
 OpenBabel03242517553D

 43 45  0  0  0  0  0  0  0  0999 V2000
   45.3830   30.1360   47.2460 C   0  0  0  0  0  0  0  0  0  0  0  0
   46.0090   31.1820   46.6530 C   0  0  0  0  0  0  0  0  0  0  0  0
   46.3030   32.2870   47.4270 C   0  0  0  0  0  0  0  0  0  0  0  0
   45.9910   32.3660   48.7660 C   0  0  0  0  0  0  0  0  0  0  0  0
   45.3560   31.2950   49.3560 C   0  0  0  0  0  0  0  0  0  0  0  0
   45.0560   30.1810   48.5840 C   0  0  0  0  0  0  0  0  0  0  0  0
   46.7980   33.1640   47.0380 H   0  0  0  0  0  0  0  0  0  0  0  0
   46.2230   33.2350   49.3720 H   0  0  0  0  0  0  0  0  0  0  0  0
   45.0920   31.3070   50.3940 H   0  0  0  0  0  0  0  0  0  0  0  0
   44.5550   29.2920   48.9790 H   0  0  0  0  0  0  0  0  0  0  0  0
   44.9340   28.8170   46.1920 S   0  0  0  0  0  0  0  0  0  0  0  0
   45.5660   28.8580   44.8610 O   0  0  0  0  0  0  0  0  0  0  0  0
   43.4230   29.0020   45.9280 O   0  0  0  0  0  0  0  0  0  0  0  0
   42.4760   26.9990   45.9120 Cl  0  0  0  0  0  0  0  0  0  0  0  0
   43.8660   26.4800   46.8430 C   0  0  0  0  0  0  0  0  0  0  0  0
   44.9950   27.2700   46.9930 C   0  0  0  0  0  0  0  0  0  0  0  0
   46.1090   26.8900   47.7210 C   0  0  0  0  0  0  0  0  0  0  0  0
   46.9440   27.5750   47.7820 H   0  0  0  0  0  0  0  0  0  0  0  0
   46.0830   25.6340   48.3360 C   0  0  0  0  0  0  0  0  0  0  0  0
   46.9580   25.3530   48.8990 H   0  0  0  0  0  0  0  0  0  0  0  0
   44.9600   24.8100   48.2050 C   0  0  0  0  0  0  0  0  0  0  0  0
   43.8570   25.2320   47.4610 C   0  0  0  0  0  0  0  0  0  0  0  0
   46.4100   31.2940   45.3280 O   0  0  0  0  0  0  0  0  0  0  0  0
   45.2910   34.2590   43.7770 C   0  0  0  0  0  0  0  0  0  0  0  0
   46.4640   34.7440   43.1650 C   0  0  0  0  0  0  0  0  0  0  0  0
   47.6310   34.0390   43.2960 C   0  0  0  0  0  0  0  0  0  0  0  0
   47.5640   32.9090   44.0190 N   0  0  0  0  0  0  0  0  0  0  0  0
   46.4670   32.4530   44.5910 C   0  0  0  0  0  0  0  0  0  0  0  0
   45.3240   33.1280   44.4730 N   0  0  0  0  0  0  0  0  0  0  0  0
   44.3650   34.8100   43.6760 H   0  0  0  0  0  0  0  0  0  0  0  0
   46.3460   35.6620   42.6190 H   0  0  0  0  0  0  0  0  0  0  0  0
   48.9020   34.4440   42.6830 C   0  0  0  0  0  0  0  0  0  0  0  0
   49.6040   34.7000   43.4950 H   0  0  0  0  0  0  0  0  0  0  0  0
   49.3050   33.5770   42.0960 H   0  0  0  0  0  0  0  0  0  0  0  0
   48.7540   35.6210   41.7630 C   0  0  0  0  0  0  0  0  0  0  0  0
   48.0380   36.3680   42.0740 H   0  0  0  0  0  0  0  0  0  0  0  0
   49.7590   36.1530   41.8230 H   0  0  0  0  0  0  0  0  0  0  0  0
   48.6130   35.2430   40.3550 C   0  0  0  0  0  0  0  0  0  0  0  0
   48.0340   34.3430   39.5720 C   0  0  0  0  0  0  0  0  0  0  0  0
   48.2230   34.1940   38.0750 C   0  0  0  0  0  0  0  0  0  0  0  0
   49.1090   34.8290   37.7810 H   0  0  0  0  0  0  0  0  0  0  0  0
   48.5260   33.1540   37.9100 H   0  0  0  0  0  0  0  0  0  0  0  0
   47.3180   34.4580   37.5220 H   0  0  0  0  0  0  0  0  0  0  0  0
  1  6  1  0  0  0  0
  2  1  2  0  0  0  0
  2  3  1  0  0  0  0
  3  4  2  0  0  0  0
  4  5  1  0  0  0  0
  4  8  1  0  0  0  0
  5  9  1  0  0  0  0
  6 10  1  0  0  0  0
  6  5  2  0  0  0  0
  7  3  1  0  0  0  0
 11 16  1  0  0  0  0
 11  1  1  0  0  0  0
 12 11  2  0  0  0  0
 13 11  2  0  0  0  0
 14 15  1  0  0  0  0
 15 16  2  0  0  0  0
 15 22  1  0  0  0  0
 16 17  1  0  0  0  0
 17 18  1  0  0  0  0
 17 19  2  0  0  0  0
 19 20  1  0  0  0  0
 21 19  1  0  0  0  0
 22 21  2  0  0  0  0
 23  2  1  0  0  0  0
 24 29  1  0  0  0  0
 25 26  1  0  0  0  0
 25 24  2  0  0  0  0
 26 27  2  0  0  0  0
 27 28  1  0  0  0  0
 28 23  1  0  0  0  0
 29 28  2  0  0  0  0
 30 24  1  0  0  0  0
 31 25  1  0  0  0  0
 32 26  1  0  0  0  0
 32 33  1  0  0  0  0
 34 32  1  0  0  0  0
 35 37  1  0  0  0  0
 35 36  1  0  0  0  0
 35 32  1  0  0  0  0
 38 35  1  0  0  0  0
 39 38  2  0  0  0  0
 40 39  1  0  0  0  0
 41 40  1  0  0  0  0
 42 40  1  0  0  0  0
 43 40  1  0  0  0  0
M  END
>  <minimizedAffinity>
-6.27555656

>  <minimizedRMSD>
2.93818641

$$$$
