
 OpenBabel03252506213D

 35 37  0  0  0  0  0  0  0  0999 V2000
   44.8480   35.3090   42.3570 C   0  0  0  0  0  0  0  0  0  0  0  0
   43.7420   35.3850   41.5060 C   0  0  0  0  0  0  0  0  0  0  0  0
   43.7550   34.5890   40.3530 C   0  0  0  0  0  0  0  0  0  0  0  0
   44.8290   33.7910   40.1180 N   0  0  0  0  0  0  0  0  0  0  0  0
   45.8800   33.7480   40.9680 C   0  0  0  0  0  0  0  0  0  0  0  0
   45.8930   34.5060   42.0900 N   0  0  0  0  0  0  0  0  0  0  0  0
   42.8920   36.0200   41.6970 H   0  0  0  0  0  0  0  0  0  0  0  0
   42.9530   34.5820   39.6450 H   0  0  0  0  0  0  0  0  0  0  0  0
   48.4650   35.1340   40.2640 Cl  0  0  0  0  0  0  0  0  0  0  0  0
   48.2190   33.4280   40.3060 C   0  0  0  0  0  0  0  0  0  0  0  0
   47.0080   32.8520   40.6370 C   0  0  0  0  0  0  0  0  0  0  0  0
   46.7740   31.4980   40.6810 C   0  0  0  0  0  0  0  0  0  0  0  0
   47.8240   30.6860   40.3740 C   0  0  0  0  0  0  0  0  0  0  0  0
   49.0820   31.1380   40.0280 C   0  0  0  0  0  0  0  0  0  0  0  0
   49.2210   32.5190   40.0100 C   0  0  0  0  0  0  0  0  0  0  0  0
   45.7960   31.1310   40.9510 H   0  0  0  0  0  0  0  0  0  0  0  0
   47.6780   29.6070   40.3980 H   0  0  0  0  0  0  0  0  0  0  0  0
   49.9050   30.4910   39.7870 H   0  0  0  0  0  0  0  0  0  0  0  0
   50.1960   32.9130   39.7430 H   0  0  0  0  0  0  0  0  0  0  0  0
   44.8580   36.1360   43.5770 C   0  0  0  0  0  3  0  0  0  0  0  0
   45.1870   37.3990   43.4570 C   0  0  0  0  0  3  0  0  0  0  0  0
   45.2130   38.2840   44.6640 C   0  0  0  0  0  0  0  0  0  0  0  0
   44.3350   38.0760   45.3100 H   0  0  0  0  0  0  0  0  0  0  0  0
   46.1720   38.0790   45.1830 H   0  0  0  0  0  0  0  0  0  0  0  0
   45.1160   39.6520   44.2130 N   0  0  0  0  0  0  0  0  0  0  0  0
   45.2320   39.9150   43.2080 H   0  0  0  0  0  0  0  0  0  0  0  0
   44.8500   42.3400   43.0120 Cl  0  0  0  0  0  0  0  0  0  0  0  0
   44.7050   42.0180   44.7310 C   0  0  0  0  0  0  0  0  0  0  0  0
   44.8510   40.7140   45.1530 C   0  0  0  0  0  0  0  0  0  0  0  0
   44.7460   40.3930   46.5040 C   0  0  0  0  0  0  0  0  0  0  0  0
   44.8620   39.3700   46.8330 H   0  0  0  0  0  0  0  0  0  0  0  0
   44.4940   41.4090   47.4060 C   0  0  0  0  0  0  0  0  0  0  0  0
   44.4030   41.1980   48.4790 H   0  0  0  0  0  0  0  0  0  0  0  0
   44.3470   42.7170   46.9690 C   0  0  0  0  0  3  0  0  0  0  0  0
   44.4490   43.0590   45.6210 C   0  0  0  0  0  3  0  0  0  0  0  0
  1 20  1  0  0  0  0
  2  7  1  0  0  0  0
  2  1  2  0  0  0  0
  3  2  1  0  0  0  0
  4  3  2  0  0  0  0
  4  5  1  0  0  0  0
  5  6  2  0  0  0  0
  6  1  1  0  0  0  0
  8  3  1  0  0  0  0
  9 10  1  0  0  0  0
 10 11  1  0  0  0  0
 11 12  2  0  0  0  0
 11  5  1  0  0  0  0
 12 16  1  0  0  0  0
 13 17  1  0  0  0  0
 13 12  1  0  0  0  0
 14 13  2  0  0  0  0
 15 14  1  0  0  0  0
 15 10  2  0  0  0  0
 18 14  1  0  0  0  0
 19 15  1  0  0  0  0
 21 20  2  0  0  0  0
 21 22  1  0  0  0  0
 22 24  1  0  0  0  0
 22 23  1  0  0  0  0
 25 22  1  0  0  0  0
 25 29  1  0  0  0  0
 26 25  1  0  0  0  0
 27 28  1  0  0  0  0
 28 29  2  0  0  0  0
 28 35  1  0  0  0  0
 29 30  1  0  0  0  0
 30 31  1  0  0  0  0
 30 32  2  0  0  0  0
 32 33  1  0  0  0  0
 34 32  1  0  0  0  0
 35 34  2  0  0  0  0
M  END
>  <minimizedAffinity>
-1.94051909

>  <minimizedRMSD>
1.44135296

$$$$
