
 OpenBabel03252507153D

 27 29  0  0  0  0  0  0  0  0999 V2000
   44.6540   35.5800   44.6860 C   0  0  0  0  0  0  0  0  0  0  0  0
   45.4530   34.7130   43.9170 C   0  0  0  0  0  0  0  0  0  0  0  0
   46.0010   33.6040   44.5210 C   0  0  0  0  0  0  0  0  0  0  0  0
   45.7610   33.3790   45.8230 N   0  0  0  0  0  0  0  0  0  0  0  0
   44.9900   34.2140   46.5730 C   0  0  0  0  0  0  0  0  0  0  0  0
   44.4550   35.2940   45.9880 N   0  0  0  0  0  0  0  0  0  0  0  0
   44.2070   36.4660   44.2350 H   0  0  0  0  0  0  0  0  0  0  0  0
   44.8130   34.0020   47.6340 H   0  0  0  0  0  0  0  0  0  0  0  0
   46.8270   32.7130   43.7130 C   0  0  0  0  0  0  0  0  0  0  0  0
   46.3010   31.5490   43.2060 C   0  0  0  0  0  0  0  0  0  0  0  0
   47.1090   30.7360   42.4500 C   0  0  0  0  0  0  0  0  0  0  0  0
   48.4320   31.0250   42.1660 C   0  0  0  0  0  0  0  0  0  0  0  0
   48.9050   32.2080   42.7020 C   0  0  0  0  0  0  0  0  0  0  0  0
   48.1040   32.9920   43.4390 N   0  0  0  0  0  0  0  0  0  0  0  0
   45.2840   31.2390   43.3720 H   0  0  0  0  0  0  0  0  0  0  0  0
   46.7560   29.7870   42.0120 H   0  0  0  0  0  0  0  0  0  0  0  0
   49.1070   30.4260   41.5820 H   0  0  0  0  0  0  0  0  0  0  0  0
   49.9200   32.5890   42.5790 H   0  0  0  0  0  0  0  0  0  0  0  0
   45.6610   35.0240   42.5310 C   0  0  0  0  0  0  0  0  0  0  0  0
   46.7320   35.6280   42.2020 O   0  0  0  0  0  0  0  0  0  0  0  0
   44.6470   34.6360   41.5860 N   0  0  0  0  0  0  0  0  0  0  0  0
   44.4720   33.4190   40.8170 C   0  0  0  0  0  2  0  0  0  0  0  0
   43.0560   32.8710   41.0380 C   0  0  0  0  0  2  0  0  0  0  0  0
   42.0550   33.8580   40.4730 C   0  0  0  0  0  3  0  0  0  0  0  0
   41.1930   33.9590   41.1760 H   0  0  0  0  0  0  0  0  0  0  0  0
   42.7350   35.1850   40.2080 C   0  0  0  0  0  2  0  0  0  0  0  0
   43.6070   35.6170   41.3420 C   0  0  0  0  0  2  0  0  0  0  0  0
  1  6  1  0  0  0  0
  2  3  1  0  0  0  0
  2  1  2  0  0  0  0
  3  4  2  0  0  0  0
  4  5  1  0  0  0  0
  5  8  1  0  0  0  0
  6  5  2  0  0  0  0
  7  1  1  0  0  0  0
  9  3  1  0  0  0  0
 10 15  1  0  0  0  0
 10  9  2  0  0  0  0
 11 10  1  0  0  0  0
 12 11  2  0  0  0  0
 12 13  1  0  0  0  0
 13 14  2  0  0  0  0
 14  9  1  0  0  0  0
 16 11  1  0  0  0  0
 17 12  1  0  0  0  0
 18 13  1  0  0  0  0
 19  2  1  0  0  0  0
 20 19  2  0  0  0  0
 21 19  1  0  0  0  0
 22 23  1  0  0  0  0
 22 21  1  0  0  0  0
 24 23  1  0  0  0  0
 24 25  1  0  0  0  0
 26 24  1  0  0  0  0
 26 27  1  0  0  0  0
 27 21  1  0  0  0  0
M  END
>  <minimizedAffinity>
-4.67592096

>  <minimizedRMSD>
1.52270508

$$$$
