
 OpenBabel03252507153D

 27 29  0  0  0  0  0  0  0  0999 V2000
   44.9890   36.0400   43.3260 C   0  0  0  0  0  0  0  0  0  0  0  0
   45.6300   34.8310   42.9980 C   0  0  0  0  0  0  0  0  0  0  0  0
   45.7850   33.8750   43.9770 C   0  0  0  0  0  0  0  0  0  0  0  0
   45.3230   34.1190   45.2130 N   0  0  0  0  0  0  0  0  0  0  0  0
   44.7020   35.2860   45.5370 C   0  0  0  0  0  0  0  0  0  0  0  0
   44.5490   36.2190   44.5880 N   0  0  0  0  0  0  0  0  0  0  0  0
   44.8510   36.8150   42.5720 H   0  0  0  0  0  0  0  0  0  0  0  0
   44.3360   35.4560   46.5570 H   0  0  0  0  0  0  0  0  0  0  0  0
   46.4530   32.6260   43.6240 C   0  0  0  0  0  0  0  0  0  0  0  0
   45.7140   31.5110   43.3060 C   0  0  0  0  0  0  0  0  0  0  0  0
   46.3760   30.3530   42.9790 C   0  0  0  0  0  0  0  0  0  0  0  0
   47.7560   30.2460   42.9500 C   0  0  0  0  0  0  0  0  0  0  0  0
   48.4450   31.3980   43.2780 C   0  0  0  0  0  0  0  0  0  0  0  0
   47.7830   32.5210   43.5950 N   0  0  0  0  0  0  0  0  0  0  0  0
   44.6380   31.4960   43.3010 H   0  0  0  0  0  0  0  0  0  0  0  0
   45.8510   29.4210   42.7150 H   0  0  0  0  0  0  0  0  0  0  0  0
   48.3240   29.3670   42.7030 H   0  0  0  0  0  0  0  0  0  0  0  0
   49.5320   31.4910   43.3060 H   0  0  0  0  0  0  0  0  0  0  0  0
   46.0960   34.6460   41.6520 C   0  0  0  0  0  0  0  0  0  0  0  0
   47.2460   35.0980   41.3450 O   0  0  0  0  0  0  0  0  0  0  0  0
   45.2380   33.9610   40.7230 N   0  0  0  0  0  0  0  0  0  0  0  0
   43.7930   33.8770   40.6380 C   0  0  0  0  0  2  0  0  0  0  0  0
   43.3350   34.2640   39.2270 C   0  0  0  0  0  2  0  0  0  0  0  0
   43.8630   33.2380   38.2430 C   0  0  0  0  0  3  0  0  0  0  0  0
   44.2380   33.7560   37.3280 H   0  0  0  0  0  0  0  0  0  0  0  0
   44.9310   32.3940   38.9030 C   0  0  0  0  0  2  0  0  0  0  0  0
   45.9130   33.2160   39.6760 C   0  0  0  0  0  2  0  0  0  0  0  0
  1  6  1  0  0  0  0
  2  1  2  0  0  0  0
  2  3  1  0  0  0  0
  3  4  2  0  0  0  0
  4  5  1  0  0  0  0
  5  8  1  0  0  0  0
  6  5  2  0  0  0  0
  7  1  1  0  0  0  0
  9  3  1  0  0  0  0
 10  9  2  0  0  0  0
 11 10  1  0  0  0  0
 12 11  2  0  0  0  0
 12 13  1  0  0  0  0
 13 18  1  0  0  0  0
 13 14  2  0  0  0  0
 14  9  1  0  0  0  0
 15 10  1  0  0  0  0
 16 11  1  0  0  0  0
 17 12  1  0  0  0  0
 19  2  1  0  0  0  0
 20 19  2  0  0  0  0
 21 19  1  0  0  0  0
 22 21  1  0  0  0  0
 23 22  1  0  0  0  0
 24 26  1  0  0  0  0
 24 23  1  0  0  0  0
 25 24  1  0  0  0  0
 26 27  1  0  0  0  0
 27 21  1  0  0  0  0
M  END
>  <minimizedAffinity>
-4.50514364

>  <minimizedRMSD>
0.430971444

$$$$
