
 OpenBabel03242523173D

 25 27  0  0  0  0  0  0  0  0999 V2000
   36.5640   30.6640   39.7720 C   0  0  0  0  0  0  0  0  0  0  0  0
   36.8410   30.7570   38.4460 C   0  0  0  0  0  0  0  0  0  0  0  0
   37.5310   31.8830   38.0510 C   0  0  0  0  0  0  0  0  0  0  0  0
   37.8810   32.8160   39.0260 N   0  0  0  0  0  0  0  0  0  0  0  0
   37.5780   32.6660   40.3190 C   0  0  0  0  0  0  0  0  0  0  0  0
   36.8920   31.5560   40.7390 N   0  0  0  0  0  0  0  0  0  0  0  0
   37.8210   32.0920   37.0310 H   0  0  0  0  0  0  0  0  0  0  0  0
   37.9420   33.5040   40.9010 H   0  0  0  0  0  0  0  0  0  0  0  0
   35.9350   29.5540   40.4630 C   0  0  0  0  0  0  0  0  0  0  0  0
   35.0190   28.8620   40.8330 O   0  0  0  0  0  0  0  0  0  0  0  0
   36.8690   28.6830   41.1720 N   0  0  0  0  0  0  0  0  0  0  0  0
   36.5850   27.9280   42.3720 C   0  0  0  0  0  2  0  0  0  0  0  0
   37.4200   28.3880   43.5480 C   0  0  0  0  0  2  0  0  0  0  0  0
   38.5810   29.2610   43.0720 C   0  0  0  0  0  3  0  0  0  0  0  0
   39.2950   29.3220   43.9040 H   0  0  0  0  0  0  0  0  0  0  0  0
   39.2100   28.4600   41.9510 C   0  0  0  0  0  2  0  0  0  0  0  0
   38.2390   28.4100   40.8210 C   0  0  0  0  0  2  0  0  0  0  0  0
   36.4200   29.8440   37.4450 C   0  0  0  0  0  0  0  0  0  0  0  0
   36.8090   29.7060   36.1530 C   0  0  0  0  0  0  0  0  0  0  0  0
   37.3610   28.6200   37.0720 C   0  0  0  0  0  0  0  0  0  0  0  0
   35.5360   29.2130   37.8970 H   0  0  0  0  0  0  0  0  0  0  0  0
   36.1390   29.3510   35.3170 H   0  0  0  0  0  0  0  0  0  0  0  0
   37.6440   30.3070   35.7090 H   0  0  0  0  0  0  0  0  0  0  0  0
   38.3370   28.7410   37.5350 H   0  0  0  0  0  0  0  0  0  0  0  0
   36.9540   27.6280   37.0150 H   0  0  0  0  0  0  0  0  0  0  0  0
  1  9  1  0  0  0  0
  1  6  1  0  0  0  0
  2  1  2  0  0  0  0
  3  2  1  0  0  0  0
  3  4  2  0  0  0  0
  4  5  1  0  0  0  0
  5  6  2  0  0  0  0
  5  8  1  0  0  0  0
  7  3  1  0  0  0  0
  9 10  2  0  0  0  0
  9 11  1  0  0  0  0
 11 12  1  0  0  0  0
 12 13  1  0  0  0  0
 14 13  1  0  0  0  0
 14 15  1  0  0  0  0
 16 14  1  0  0  0  0
 17 11  1  0  0  0  0
 17 16  1  0  0  0  0
 18 21  1  0  0  0  0
 18  2  1  0  0  0  0
 19 20  1  0  0  0  0
 19 18  1  0  0  0  0
 20 18  1  0  0  0  0
 20 24  1  0  0  0  0
 22 19  1  0  0  0  0
 23 19  1  0  0  0  0
 25 20  1  0  0  0  0
M  END
>  <minimizedAffinity>
-4.84611845

$$$$

 OpenBabel03242523173D

 25 27  0  0  0  0  0  0  0  0999 V2000
   37.9420   26.3800   40.4120 C   0  0  0  0  0  0  0  0  0  0  0  0
   37.3170   26.2580   41.6110 C   0  0  0  0  0  0  0  0  0  0  0  0
   37.0310   24.9720   42.0150 C   0  0  0  0  0  0  0  0  0  0  0  0
   37.3990   23.9220   41.1770 N   0  0  0  0  0  0  0  0  0  0  0  0
   38.0140   24.1080   40.0050 C   0  0  0  0  0  0  0  0  0  0  0  0
   38.3100   25.3770   39.5780 N   0  0  0  0  0  0  0  0  0  0  0  0
   36.5370   24.7210   42.9440 H   0  0  0  0  0  0  0  0  0  0  0  0
   38.2090   23.1610   39.5150 H   0  0  0  0  0  0  0  0  0  0  0  0
   38.4340   27.5980   39.7960 C   0  0  0  0  0  0  0  0  0  0  0  0
   39.2620   28.4100   39.4660 O   0  0  0  0  0  0  0  0  0  0  0  0
   37.3980   28.4110   39.1650 N   0  0  0  0  0  0  0  0  0  0  0  0
   37.4120   29.8500   39.0250 C   0  0  0  0  0  2  0  0  0  0  0  0
   36.2900   30.5110   39.7980 C   0  0  0  0  0  2  0  0  0  0  0  0
   35.2420   29.4780   40.2090 C   0  0  0  0  0  3  0  0  0  0  0  0
   34.3410   30.0360   40.4990 H   0  0  0  0  0  0  0  0  0  0  0  0
   34.9500   28.7180   38.9320 C   0  0  0  0  0  2  0  0  0  0  0  0
   36.1720   27.9450   38.5680 C   0  0  0  0  0  2  0  0  0  0  0  0
   36.8760   27.3310   42.4290 C   0  0  0  0  0  0  0  0  0  0  0  0
   36.3490   27.3320   43.6790 C   0  0  0  0  0  0  0  0  0  0  0  0
   37.7950   27.8130   43.6310 C   0  0  0  0  0  0  0  0  0  0  0  0
   36.9520   28.3130   41.7870 H   0  0  0  0  0  0  0  0  0  0  0  0
   35.5920   28.0810   44.0530 H   0  0  0  0  0  0  0  0  0  0  0  0
   36.2630   26.4010   44.2960 H   0  0  0  0  0  0  0  0  0  0  0  0
   38.6100   27.1100   43.7880 H   0  0  0  0  0  0  0  0  0  0  0  0
   38.0050   28.8580   43.7610 H   0  0  0  0  0  0  0  0  0  0  0  0
  1  2  1  0  0  0  0
  2  3  2  0  0  0  0
  2 18  1  0  0  0  0
  3  7  1  0  0  0  0
  4  3  1  0  0  0  0
  5  4  2  0  0  0  0
  6  5  1  0  0  0  0
  6  1  2  0  0  0  0
  8  5  1  0  0  0  0
  9  1  1  0  0  0  0
 10  9  2  0  0  0  0
 11  9  1  0  0  0  0
 12 11  1  0  0  0  0
 12 13  1  0  0  0  0
 13 14  1  0  0  0  0
 14 15  1  0  0  0  0
 16 14  1  0  0  0  0
 17 16  1  0  0  0  0
 17 11  1  0  0  0  0
 18 20  1  0  0  0  0
 18 19  1  0  0  0  0
 19 22  1  0  0  0  0
 19 23  1  0  0  0  0
 20 19  1  0  0  0  0
 20 25  1  0  0  0  0
 20 24  1  0  0  0  0
 21 18  1  0  0  0  0
M  END
>  <minimizedAffinity>
-4.69345236

$$$$

 OpenBabel03242523173D

 25 27  0  0  0  0  0  0  0  0999 V2000
   39.4120   27.7010   41.4920 C   0  0  0  0  0  0  0  0  0  0  0  0
   38.9160   26.9570   42.5130 C   0  0  0  0  0  0  0  0  0  0  0  0
   39.1580   25.6020   42.4460 C   0  0  0  0  0  0  0  0  0  0  0  0
   39.8790   25.1160   41.3560 N   0  0  0  0  0  0  0  0  0  0  0  0
   40.3410   25.9030   40.3800 C   0  0  0  0  0  0  0  0  0  0  0  0
   40.1140   27.2540   40.4220 N   0  0  0  0  0  0  0  0  0  0  0  0
   38.8260   24.8860   43.1850 H   0  0  0  0  0  0  0  0  0  0  0  0
   40.8710   25.3230   39.6340 H   0  0  0  0  0  0  0  0  0  0  0  0
   39.3800   29.1460   41.3600 C   0  0  0  0  0  0  0  0  0  0  0  0
   39.7350   30.2800   41.5650 O   0  0  0  0  0  0  0  0  0  0  0  0
   38.3320   29.6440   40.4730 N   0  0  0  0  0  0  0  0  0  0  0  0
   37.6560   30.9170   40.5840 C   0  0  0  0  0  2  0  0  0  0  0  0
   36.1780   30.7560   40.8720 C   0  0  0  0  0  2  0  0  0  0  0  0
   35.7340   29.3180   40.6060 C   0  0  0  0  0  3  0  0  0  0  0  0
   34.6370   29.3280   40.5510 H   0  0  0  0  0  0  0  0  0  0  0  0
   36.2850   29.0090   39.2300 C   0  0  0  0  0  2  0  0  0  0  0  0
   37.7720   28.9710   39.3280 C   0  0  0  0  0  2  0  0  0  0  0  0
   38.1200   27.4430   43.5830 C   0  0  0  0  0  0  0  0  0  0  0  0
   37.3540   28.5580   43.6790 C   0  0  0  0  0  0  0  0  0  0  0  0
   36.5420   27.2780   43.5070 C   0  0  0  0  0  0  0  0  0  0  0  0
   38.2960   26.7300   44.5010 H   0  0  0  0  0  0  0  0  0  0  0  0
   37.1740   29.1310   44.6350 H   0  0  0  0  0  0  0  0  0  0  0  0
   37.1870   29.2500   42.8130 H   0  0  0  0  0  0  0  0  0  0  0  0
   36.2450   26.9490   42.5140 H   0  0  0  0  0  0  0  0  0  0  0  0
   36.0030   26.8820   44.3470 H   0  0  0  0  0  0  0  0  0  0  0  0
  1  2  1  0  0  0  0
  2 18  1  0  0  0  0
  3  2  2  0  0  0  0
  3  7  1  0  0  0  0
  4  3  1  0  0  0  0
  5  6  1  0  0  0  0
  5  4  2  0  0  0  0
  6  1  2  0  0  0  0
  8  5  1  0  0  0  0
  9  1  1  0  0  0  0
  9 10  2  0  0  0  0
 11 12  1  0  0  0  0
 11  9  1  0  0  0  0
 12 13  1  0  0  0  0
 14 13  1  0  0  0  0
 15 14  1  0  0  0  0
 16 17  1  0  0  0  0
 16 14  1  0  0  0  0
 17 11  1  0  0  0  0
 18 19  1  0  0  0  0
 18 21  1  0  0  0  0
 19 22  1  0  0  0  0
 20 18  1  0  0  0  0
 20 19  1  0  0  0  0
 20 25  1  0  0  0  0
 23 19  1  0  0  0  0
 24 20  1  0  0  0  0
M  END
>  <minimizedAffinity>
-4.56346273

$$$$

 OpenBabel03242523173D

 25 27  0  0  0  0  0  0  0  0999 V2000
   38.3620   29.6490   39.9360 C   0  0  0  0  0  0  0  0  0  0  0  0
   37.0590   30.0070   39.8020 C   0  0  0  0  0  0  0  0  0  0  0  0
   36.8230   31.3380   39.5360 C   0  0  0  0  0  0  0  0  0  0  0  0
   37.9190   32.1920   39.4280 N   0  0  0  0  0  0  0  0  0  0  0  0
   39.1810   31.7770   39.5720 C   0  0  0  0  0  0  0  0  0  0  0  0
   39.4450   30.4580   39.8370 N   0  0  0  0  0  0  0  0  0  0  0  0
   35.8390   31.7670   39.4040 H   0  0  0  0  0  0  0  0  0  0  0  0
   39.8750   32.6000   39.4500 H   0  0  0  0  0  0  0  0  0  0  0  0
   38.8920   28.3110   40.1270 C   0  0  0  0  0  0  0  0  0  0  0  0
   39.4280   27.2810   39.8030 O   0  0  0  0  0  0  0  0  0  0  0  0
   38.7460   27.7970   41.4870 N   0  0  0  0  0  0  0  0  0  0  0  0
   38.5920   26.4090   41.8600 C   0  0  0  0  0  2  0  0  0  0  0  0
   37.2500   26.1360   42.5050 C   0  0  0  0  0  2  0  0  0  0  0  0
   36.5780   27.4450   42.9180 C   0  0  0  0  0  3  0  0  0  0  0  0
   35.7730   27.1830   43.6180 H   0  0  0  0  0  0  0  0  0  0  0  0
   37.6550   28.1920   43.6760 C   0  0  0  0  0  2  0  0  0  0  0  0
   38.7250   28.5640   42.7070 C   0  0  0  0  0  2  0  0  0  0  0  0
   35.9420   29.1510   39.9850 C   0  0  0  0  0  0  0  0  0  0  0  0
   34.6510   29.2860   39.5910 C   0  0  0  0  0  0  0  0  0  0  0  0
   35.4350   28.2720   38.7630 C   0  0  0  0  0  0  0  0  0  0  0  0
   36.2920   28.2610   40.6680 H   0  0  0  0  0  0  0  0  0  0  0  0
   33.7630   28.8790   40.1560 H   0  0  0  0  0  0  0  0  0  0  0  0
   34.3030   30.1350   38.9470 H   0  0  0  0  0  0  0  0  0  0  0  0
   35.9290   28.5810   37.8450 H   0  0  0  0  0  0  0  0  0  0  0  0
   35.2430   27.2240   38.8990 H   0  0  0  0  0  0  0  0  0  0  0  0
  1  9  1  0  0  0  0
  2  1  2  0  0  0  0
  2 18  1  0  0  0  0
  3  2  1  0  0  0  0
  4  3  2  0  0  0  0
  4  5  1  0  0  0  0
  5  6  2  0  0  0  0
  6  1  1  0  0  0  0
  7  3  1  0  0  0  0
  8  5  1  0  0  0  0
  9 11  1  0  0  0  0
 10  9  2  0  0  0  0
 11 12  1  0  0  0  0
 11 17  1  0  0  0  0
 12 13  1  0  0  0  0
 13 14  1  0  0  0  0
 14 15  1  0  0  0  0
 14 16  1  0  0  0  0
 17 16  1  0  0  0  0
 18 21  1  0  0  0  0
 19 18  1  0  0  0  0
 19 22  1  0  0  0  0
 20 25  1  0  0  0  0
 20 19  1  0  0  0  0
 20 18  1  0  0  0  0
 23 19  1  0  0  0  0
 24 20  1  0  0  0  0
M  END
>  <minimizedAffinity>
-4.52811432

$$$$

 OpenBabel03242523173D

 25 27  0  0  0  0  0  0  0  0999 V2000
   37.9290   28.9710   39.6940 C   0  0  0  0  0  0  0  0  0  0  0  0
   37.2820   30.0340   39.1520 C   0  0  0  0  0  0  0  0  0  0  0  0
   36.0770   29.7610   38.5430 C   0  0  0  0  0  0  0  0  0  0  0  0
   35.6290   28.4410   38.5330 N   0  0  0  0  0  0  0  0  0  0  0  0
   36.3150   27.4360   39.0850 C   0  0  0  0  0  0  0  0  0  0  0  0
   37.5170   27.6790   39.6970 N   0  0  0  0  0  0  0  0  0  0  0  0
   35.4510   30.5050   38.0700 H   0  0  0  0  0  0  0  0  0  0  0  0
   35.7890   26.4960   38.9650 H   0  0  0  0  0  0  0  0  0  0  0  0
   39.1590   28.9890   40.4640 C   0  0  0  0  0  0  0  0  0  0  0  0
   40.3510   29.0430   40.6360 O   0  0  0  0  0  0  0  0  0  0  0  0
   38.9640   28.8880   41.9080 N   0  0  0  0  0  0  0  0  0  0  0  0
   39.8830   28.2910   42.8520 C   0  0  0  0  0  2  0  0  0  0  0  0
   39.2960   27.0690   43.5260 C   0  0  0  0  0  2  0  0  0  0  0  0
   37.7850   27.0090   43.3070 C   0  0  0  0  0  3  0  0  0  0  0  0
   37.3860   26.2910   44.0360 H   0  0  0  0  0  0  0  0  0  0  0  0
   37.3030   28.3960   43.6800 C   0  0  0  0  0  2  0  0  0  0  0  0
   37.8300   29.3530   42.6650 C   0  0  0  0  0  2  0  0  0  0  0  0
   37.7740   31.3650   39.0980 C   0  0  0  0  0  0  0  0  0  0  0  0
   37.1370   32.5330   38.8360 C   0  0  0  0  0  0  0  0  0  0  0  0
   37.4780   32.3460   40.3110 C   0  0  0  0  0  0  0  0  0  0  0  0
   38.9400   31.3120   39.2370 H   0  0  0  0  0  0  0  0  0  0  0  0
   37.6130   33.4220   38.3290 H   0  0  0  0  0  0  0  0  0  0  0  0
   36.0270   32.5950   38.6930 H   0  0  0  0  0  0  0  0  0  0  0  0
   36.7520   31.9010   40.9880 H   0  0  0  0  0  0  0  0  0  0  0  0
   38.2750   32.9220   40.7420 H   0  0  0  0  0  0  0  0  0  0  0  0
  1  6  1  0  0  0  0
  1  9  1  0  0  0  0
  2  1  2  0  0  0  0
  3  2  1  0  0  0  0
  4  3  2  0  0  0  0
  4  5  1  0  0  0  0
  5  6  2  0  0  0  0
  7  3  1  0  0  0  0
  8  5  1  0  0  0  0
  9 10  2  0  0  0  0
  9 11  1  0  0  0  0
 11 17  1  0  0  0  0
 11 12  1  0  0  0  0
 12 13  1  0  0  0  0
 14 13  1  0  0  0  0
 14 16  1  0  0  0  0
 14 15  1  0  0  0  0
 17 16  1  0  0  0  0
 18  2  1  0  0  0  0
 18 21  1  0  0  0  0
 18 20  1  0  0  0  0
 19 18  1  0  0  0  0
 19 20  1  0  0  0  0
 20 25  1  0  0  0  0
 20 24  1  0  0  0  0
 22 19  1  0  0  0  0
 23 19  1  0  0  0  0
M  END
>  <minimizedAffinity>
-4.50258636

$$$$

 OpenBabel03242523173D

 25 27  0  0  0  0  0  0  0  0999 V2000
   38.6590   28.8310   42.7340 C   0  0  0  0  0  0  0  0  0  0  0  0
   39.3710   27.6790   42.8300 C   0  0  0  0  0  0  0  0  0  0  0  0
   38.6340   26.5170   42.8920 C   0  0  0  0  0  0  0  0  0  0  0  0
   37.2440   26.6150   42.8510 N   0  0  0  0  0  0  0  0  0  0  0  0
   36.6000   27.7830   42.7550 C   0  0  0  0  0  0  0  0  0  0  0  0
   37.3090   28.9550   42.6930 N   0  0  0  0  0  0  0  0  0  0  0  0
   39.0630   25.5270   42.9700 H   0  0  0  0  0  0  0  0  0  0  0  0
   35.5270   27.6320   42.7400 H   0  0  0  0  0  0  0  0  0  0  0  0
   39.1780   30.1750   42.5650 C   0  0  0  0  0  0  0  0  0  0  0  0
   39.7190   31.1990   42.9030 O   0  0  0  0  0  0  0  0  0  0  0  0
   38.9920   30.7260   41.2250 N   0  0  0  0  0  0  0  0  0  0  0  0
   38.8220   32.1240   40.8950 C   0  0  0  0  0  2  0  0  0  0  0  0
   37.4610   32.4080   40.2960 C   0  0  0  0  0  2  0  0  0  0  0  0
   36.7830   31.1080   39.8660 C   0  0  0  0  0  3  0  0  0  0  0  0
   35.9570   31.3860   39.1970 H   0  0  0  0  0  0  0  0  0  0  0  0
   37.8420   30.3880   39.0570 C   0  0  0  0  0  2  0  0  0  0  0  0
   38.9400   29.9940   39.9860 C   0  0  0  0  0  2  0  0  0  0  0  0
   40.7820   27.5850   42.9460 C   0  0  0  0  0  0  0  0  0  0  0  0
   41.6170   26.5330   42.7570 C   0  0  0  0  0  0  0  0  0  0  0  0
   41.6650   27.5560   41.6260 C   0  0  0  0  0  0  0  0  0  0  0  0
   41.1690   28.6180   43.3550 H   0  0  0  0  0  0  0  0  0  0  0  0
   42.5830   26.3740   43.3180 H   0  0  0  0  0  0  0  0  0  0  0  0
   41.2590   25.5420   42.3770 H   0  0  0  0  0  0  0  0  0  0  0  0
   41.0300   27.4330   40.7510 H   0  0  0  0  0  0  0  0  0  0  0  0
   42.5190   28.2000   41.5370 H   0  0  0  0  0  0  0  0  0  0  0  0
  1  2  1  0  0  0  0
  2  3  2  0  0  0  0
  2 18  1  0  0  0  0
  3  7  1  0  0  0  0
  4  3  1  0  0  0  0
  5  4  2  0  0  0  0
  6  1  2  0  0  0  0
  6  5  1  0  0  0  0
  8  5  1  0  0  0  0
  9  1  1  0  0  0  0
  9 10  2  0  0  0  0
 11  9  1  0  0  0  0
 12 11  1  0  0  0  0
 13 12  1  0  0  0  0
 14 13  1  0  0  0  0
 15 14  1  0  0  0  0
 16 14  1  0  0  0  0
 16 17  1  0  0  0  0
 17 11  1  0  0  0  0
 18 21  1  0  0  0  0
 19 18  1  0  0  0  0
 19 22  1  0  0  0  0
 20 19  1  0  0  0  0
 20 18  1  0  0  0  0
 23 19  1  0  0  0  0
 24 20  1  0  0  0  0
 25 20  1  0  0  0  0
M  END
>  <minimizedAffinity>
-4.42984629

$$$$

 OpenBabel03242523173D

 25 27  0  0  0  0  0  0  0  0999 V2000
   37.3380   29.1130   40.3010 C   0  0  0  0  0  0  0  0  0  0  0  0
   37.1750   28.0440   41.1210 C   0  0  0  0  0  0  0  0  0  0  0  0
   37.5860   26.8290   40.6200 C   0  0  0  0  0  0  0  0  0  0  0  0
   38.1250   26.7960   39.3350 N   0  0  0  0  0  0  0  0  0  0  0  0
   38.2590   27.8860   38.5740 C   0  0  0  0  0  0  0  0  0  0  0  0
   37.8580   29.1090   39.0480 N   0  0  0  0  0  0  0  0  0  0  0  0
   37.5180   25.8930   41.1580 H   0  0  0  0  0  0  0  0  0  0  0  0
   38.6990   27.6380   37.6150 H   0  0  0  0  0  0  0  0  0  0  0  0
   37.0750   30.5070   40.6080 C   0  0  0  0  0  0  0  0  0  0  0  0
   36.4000   31.4940   40.7600 O   0  0  0  0  0  0  0  0  0  0  0  0
   38.2660   31.2790   40.9550 N   0  0  0  0  0  0  0  0  0  0  0  0
   38.4620   32.6920   40.7220 C   0  0  0  0  0  2  0  0  0  0  0  0
   39.5920   32.9580   39.7490 C   0  0  0  0  0  2  0  0  0  0  0  0
   40.4470   31.7050   39.5640 C   0  0  0  0  0  3  0  0  0  0  0  0
   41.3860   32.0270   39.0950 H   0  0  0  0  0  0  0  0  0  0  0  0
   40.7430   31.2470   40.9770 C   0  0  0  0  0  2  0  0  0  0  0  0
   39.4630   30.7880   41.5890 C   0  0  0  0  0  2  0  0  0  0  0  0
   36.5580   28.0680   42.4000 C   0  0  0  0  0  0  0  0  0  0  0  0
   36.5690   27.1560   43.4040 C   0  0  0  0  0  0  0  0  0  0  0  0
   37.4460   28.3730   43.6790 C   0  0  0  0  0  0  0  0  0  0  0  0
   35.8940   29.0370   42.4490 H   0  0  0  0  0  0  0  0  0  0  0  0
   35.7180   26.9880   44.1260 H   0  0  0  0  0  0  0  0  0  0  0  0
   37.1900   26.2240   43.3640 H   0  0  0  0  0  0  0  0  0  0  0  0
   38.5020   28.3570   43.4190 H   0  0  0  0  0  0  0  0  0  0  0  0
   37.1210   29.1020   44.3970 H   0  0  0  0  0  0  0  0  0  0  0  0
  1  9  1  0  0  0  0
  1  2  1  0  0  0  0
  2 18  1  0  0  0  0
  3  2  2  0  0  0  0
  3  7  1  0  0  0  0
  4  3  1  0  0  0  0
  5  6  1  0  0  0  0
  5  4  2  0  0  0  0
  6  1  2  0  0  0  0
  8  5  1  0  0  0  0
  9 10  2  0  0  0  0
  9 11  1  0  0  0  0
 11 17  1  0  0  0  0
 12 11  1  0  0  0  0
 13 12  1  0  0  0  0
 14 13  1  0  0  0  0
 14 16  1  0  0  0  0
 15 14  1  0  0  0  0
 16 17  1  0  0  0  0
 18 21  1  0  0  0  0
 18 19  1  0  0  0  0
 18 20  1  0  0  0  0
 19 20  1  0  0  0  0
 19 22  1  0  0  0  0
 20 25  1  0  0  0  0
 23 19  1  0  0  0  0
 24 20  1  0  0  0  0
M  END
>  <minimizedAffinity>
-4.39609051

$$$$

 OpenBabel03242523173D

 25 27  0  0  0  0  0  0  0  0999 V2000
   36.9060   29.5560   41.1510 C   0  0  0  0  0  0  0  0  0  0  0  0
   36.2300   29.7310   39.9870 C   0  0  0  0  0  0  0  0  0  0  0  0
   36.5510   30.8590   39.2650 C   0  0  0  0  0  0  0  0  0  0  0  0
   37.5260   31.7140   39.7780 N   0  0  0  0  0  0  0  0  0  0  0  0
   38.1580   31.4860   40.9330 C   0  0  0  0  0  0  0  0  0  0  0  0
   37.8570   30.3710   41.6730 N   0  0  0  0  0  0  0  0  0  0  0  0
   36.0970   31.1290   38.3210 H   0  0  0  0  0  0  0  0  0  0  0  0
   38.8740   32.2710   41.1450 H   0  0  0  0  0  0  0  0  0  0  0  0
   36.8300   28.4210   42.0510 C   0  0  0  0  0  0  0  0  0  0  0  0
   36.3350   27.7130   42.8930 O   0  0  0  0  0  0  0  0  0  0  0  0
   37.9870   27.5320   41.9950 N   0  0  0  0  0  0  0  0  0  0  0  0
   38.5030   26.7360   43.0870 C   0  0  0  0  0  2  0  0  0  0  0  0
   39.8980   27.1620   43.4950 C   0  0  0  0  0  2  0  0  0  0  0  0
   40.5200   28.0560   42.4220 C   0  0  0  0  0  3  0  0  0  0  0  0
   41.5990   28.0940   42.6260 H   0  0  0  0  0  0  0  0  0  0  0  0
   40.2970   27.2950   41.1320 C   0  0  0  0  0  2  0  0  0  0  0  0
   38.8320   27.2780   40.8560 C   0  0  0  0  0  2  0  0  0  0  0  0
   35.1860   28.9000   39.5020 C   0  0  0  0  0  0  0  0  0  0  0  0
   34.5960   28.8420   38.2820 C   0  0  0  0  0  0  0  0  0  0  0  0
   35.5490   27.6820   38.5500 C   0  0  0  0  0  0  0  0  0  0  0  0
   34.7970   28.2620   40.4100 H   0  0  0  0  0  0  0  0  0  0  0  0
   33.5170   28.5630   38.1060 H   0  0  0  0  0  0  0  0  0  0  0  0
   34.9520   29.4520   37.4120 H   0  0  0  0  0  0  0  0  0  0  0  0
   36.5880   27.7450   38.2370 H   0  0  0  0  0  0  0  0  0  0  0  0
   35.1450   26.7070   38.7490 H   0  0  0  0  0  0  0  0  0  0  0  0
  1  6  1  0  0  0  0
  1  9  1  0  0  0  0
  2  1  2  0  0  0  0
  3  4  2  0  0  0  0
  3  2  1  0  0  0  0
  4  5  1  0  0  0  0
  5  8  1  0  0  0  0
  5  6  2  0  0  0  0
  7  3  1  0  0  0  0
  9 10  2  0  0  0  0
 11  9  1  0  0  0  0
 11 12  1  0  0  0  0
 12 13  1  0  0  0  0
 14 15  1  0  0  0  0
 14 13  1  0  0  0  0
 16 14  1  0  0  0  0
 17 16  1  0  0  0  0
 17 11  1  0  0  0  0
 18  2  1  0  0  0  0
 18 21  1  0  0  0  0
 19 20  1  0  0  0  0
 19 18  1  0  0  0  0
 20 25  1  0  0  0  0
 20 18  1  0  0  0  0
 22 19  1  0  0  0  0
 23 19  1  0  0  0  0
 24 20  1  0  0  0  0
M  END
>  <minimizedAffinity>
-4.36781359

$$$$

 OpenBabel03242523173D

 25 27  0  0  0  0  0  0  0  0999 V2000
   36.9760   28.9620   41.3750 C   0  0  0  0  0  0  0  0  0  0  0  0
   36.8190   27.8850   40.5630 C   0  0  0  0  0  0  0  0  0  0  0  0
   37.0650   26.6560   41.1360 C   0  0  0  0  0  0  0  0  0  0  0  0
   37.4490   26.6200   42.4760 N   0  0  0  0  0  0  0  0  0  0  0  0
   37.5860   27.7190   43.2230 C   0  0  0  0  0  0  0  0  0  0  0  0
   37.3480   28.9540   42.6790 N   0  0  0  0  0  0  0  0  0  0  0  0
   36.9810   25.7130   40.6140 H   0  0  0  0  0  0  0  0  0  0  0  0
   37.8900   27.4650   44.2320 H   0  0  0  0  0  0  0  0  0  0  0  0
   36.6990   30.3500   41.0570 C   0  0  0  0  0  0  0  0  0  0  0  0
   36.0790   31.3840   41.0820 O   0  0  0  0  0  0  0  0  0  0  0  0
   37.7010   30.9820   40.2020 N   0  0  0  0  0  0  0  0  0  0  0  0
   37.4610   32.0480   39.2550 C   0  0  0  0  0  2  0  0  0  0  0  0
   37.7280   31.6140   37.8290 C   0  0  0  0  0  2  0  0  0  0  0  0
   38.5170   30.3060   37.8040 C   0  0  0  0  0  3  0  0  0  0  0  0
   38.9210   30.1960   36.7890 H   0  0  0  0  0  0  0  0  0  0  0  0
   39.6680   30.5510   38.7590 C   0  0  0  0  0  2  0  0  0  0  0  0
   39.1050   30.6690   40.1350 C   0  0  0  0  0  2  0  0  0  0  0  0
   36.5010   27.9280   39.1810 C   0  0  0  0  0  0  0  0  0  0  0  0
   35.7990   27.0640   38.4070 C   0  0  0  0  0  0  0  0  0  0  0  0
   35.0330   28.3400   38.7390 C   0  0  0  0  0  0  0  0  0  0  0  0
   37.0560   28.8590   38.7240 H   0  0  0  0  0  0  0  0  0  0  0  0
   35.9970   26.8790   37.3120 H   0  0  0  0  0  0  0  0  0  0  0  0
   35.2740   26.1680   38.8300 H   0  0  0  0  0  0  0  0  0  0  0  0
   34.3740   28.3730   39.6040 H   0  0  0  0  0  0  0  0  0  0  0  0
   34.8900   29.0800   37.9740 H   0  0  0  0  0  0  0  0  0  0  0  0
  1  6  1  0  0  0  0
  2  3  1  0  0  0  0
  2  1  2  0  0  0  0
  3  4  2  0  0  0  0
  4  5  1  0  0  0  0
  5  8  1  0  0  0  0
  6  5  2  0  0  0  0
  7  3  1  0  0  0  0
  9 10  2  0  0  0  0
  9  1  1  0  0  0  0
 11  9  1  0  0  0  0
 12 11  1  0  0  0  0
 13 12  1  0  0  0  0
 14 13  1  0  0  0  0
 14 16  1  0  0  0  0
 15 14  1  0  0  0  0
 16 17  1  0  0  0  0
 17 11  1  0  0  0  0
 18  2  1  0  0  0  0
 19 20  1  0  0  0  0
 19 23  1  0  0  0  0
 19 18  1  0  0  0  0
 20 18  1  0  0  0  0
 20 24  1  0  0  0  0
 21 18  1  0  0  0  0
 22 19  1  0  0  0  0
 25 20  1  0  0  0  0
M  END
>  <minimizedAffinity>
-4.351511

$$$$
