
 OpenBabel03242517003D

 30 32  0  0  0  0  0  0  0  0999 V2000
   46.5920   34.7350   42.0000 C   0  0  0  0  0  0  0  0  0  0  0  0
   47.8770   35.2470   41.9170 C   0  0  0  0  0  0  0  0  0  0  0  0
   48.5840   35.0490   40.7380 C   0  0  0  0  0  0  0  0  0  0  0  0
   48.0040   34.3610   39.6970 C   0  0  0  0  0  0  0  0  0  0  0  0
   46.7400   33.8480   39.7580 C   0  0  0  0  0  0  0  0  0  0  0  0
   46.0500   34.0610   40.9520 C   0  0  0  0  0  0  0  0  0  0  0  0
   48.3420   35.7890   42.7300 H   0  0  0  0  0  0  0  0  0  0  0  0
   49.5910   35.4080   40.5760 H   0  0  0  0  0  0  0  0  0  0  0  0
   48.5290   34.1860   38.7560 H   0  0  0  0  0  0  0  0  0  0  0  0
   46.2180   33.2970   38.9800 H   0  0  0  0  0  0  0  0  0  0  0  0
   43.4290   34.1090   40.9460 C   0  0  0  0  0  0  0  0  0  0  0  0
   43.1350   35.2390   40.5520 O   0  0  0  0  0  0  0  0  0  0  0  0
   44.7290   33.5840   41.1560 N   0  0  0  0  0  0  0  0  0  0  0  0
   44.9020   32.6190   41.5540 H   0  0  0  0  0  0  0  0  0  0  0  0
   42.3100   33.2680   41.2080 N   0  0  0  0  0  0  0  0  0  0  0  0
   42.6960   31.9650   41.6630 C   0  0  0  0  0  0  0  0  0  0  0  0
   41.6130   31.1950   42.3460 C   0  0  0  0  0  0  0  0  0  0  0  0
   40.2750   31.4200   41.7250 C   0  0  0  0  0  0  0  0  0  0  0  0
   39.5030   30.9740   42.4120 H   0  0  0  0  0  0  0  0  0  0  0  0
   39.9120   32.8730   41.6000 C   0  0  0  0  0  0  0  0  0  0  0  0
   40.9560   33.7310   41.0190 C   0  0  0  0  0  0  0  0  0  0  0  0
   44.5100   36.1990   44.7990 C   0  0  0  0  0  0  0  0  0  0  0  0
   45.1450   36.0890   43.5380 C   0  0  0  0  0  0  0  0  0  0  0  0
   45.8920   34.9690   43.2560 C   0  0  0  0  0  0  0  0  0  0  0  0
   45.9720   34.0210   44.2350 N   0  0  0  0  0  0  0  0  0  0  0  0
   45.3670   34.1270   45.4340 C   0  0  0  0  0  0  0  0  0  0  0  0
   44.6300   35.2270   45.7180 N   0  0  0  0  0  0  0  0  0  0  0  0
   43.9670   37.1370   44.8540 H   0  0  0  0  0  0  0  0  0  0  0  0
   45.0950   36.8240   42.7560 H   0  0  0  0  0  0  0  0  0  0  0  0
   45.4400   33.3760   46.1880 H   0  0  0  0  0  0  0  0  0  0  0  0
  1 24  1  0  0  0  0
  2  1  1  0  0  0  0
  2  7  1  0  0  0  0
  3  2  2  0  0  0  0
  4  5  2  0  0  0  0
  4  3  1  0  0  0  0
  5  6  1  0  0  0  0
  6 13  1  0  0  0  0
  6  1  2  0  0  0  0
  8  3  1  0  0  0  0
  9  4  1  0  0  0  0
 10  5  1  0  0  0  0
 11 13  1  0  0  0  0
 11 15  1  0  0  0  0
 12 11  2  0  0  0  0
 13 14  1  0  0  0  0
 15 16  1  0  0  0  0
 16 17  1  0  0  0  0
 18 17  1  0  0  0  0
 18 19  1  0  0  0  0
 20 18  1  0  0  0  0
 21 15  1  0  0  0  0
 21 20  1  0  0  0  0
 22 28  1  0  0  0  0
 22 27  1  0  0  0  0
 23 22  2  0  0  0  0
 24 23  1  0  0  0  0
 24 25  2  0  0  0  0
 25 26  1  0  0  0  0
 26 27  2  0  0  0  0
 26 30  1  0  0  0  0
 29 23  1  0  0  0  0
M  END
>  <minimizedAffinity>
-6.61210918

>  <minimizedRMSD>
0.31311208

$$$$
