
 OpenBabel03252507173D

 27 29  0  0  0  0  0  0  0  0999 V2000
   39.9560   31.4630   40.8790 C   0  0  0  0  0  0  0  0  0  0  0  0
   38.8880   30.6720   40.4160 C   0  0  0  0  0  0  0  0  0  0  0  0
   37.7140   31.2920   40.0500 C   0  0  0  0  0  0  0  0  0  0  0  0
   37.6180   32.6280   40.1440 N   0  0  0  0  0  0  0  0  0  0  0  0
   38.6480   33.3980   40.5910 C   0  0  0  0  0  0  0  0  0  0  0  0
   39.7920   32.7990   40.9480 N   0  0  0  0  0  0  0  0  0  0  0  0
   40.8980   31.0010   41.1760 H   0  0  0  0  0  0  0  0  0  0  0  0
   38.5390   34.4870   40.6570 H   0  0  0  0  0  0  0  0  0  0  0  0
   36.6130   30.4610   39.5720 C   0  0  0  0  0  0  0  0  0  0  0  0
   35.6530   30.0110   40.4470 C   0  0  0  0  0  0  0  0  0  0  0  0
   34.6330   29.2320   39.9620 C   0  0  0  0  0  0  0  0  0  0  0  0
   34.5140   28.8720   38.6300 C   0  0  0  0  0  0  0  0  0  0  0  0
   35.5080   29.3530   37.7990 C   0  0  0  0  0  0  0  0  0  0  0  0
   36.4980   30.1140   38.2890 N   0  0  0  0  0  0  0  0  0  0  0  0
   35.6600   30.2380   41.5000 H   0  0  0  0  0  0  0  0  0  0  0  0
   33.8290   28.8340   40.6030 H   0  0  0  0  0  0  0  0  0  0  0  0
   33.7390   28.2660   38.1980 H   0  0  0  0  0  0  0  0  0  0  0  0
   35.5700   29.1670   36.7250 H   0  0  0  0  0  0  0  0  0  0  0  0
   39.0690   29.2500   40.3450 C   0  0  0  0  0  0  0  0  0  0  0  0
   39.6460   28.7650   39.3190 O   0  0  0  0  0  0  0  0  0  0  0  0
   38.5870   28.4470   41.4380 N   0  0  0  0  0  0  0  0  0  0  0  0
   38.7020   28.6180   42.8730 C   0  0  0  0  0  2  0  0  0  0  0  0
   37.3110   28.5330   43.5140 C   0  0  0  0  0  2  0  0  0  0  0  0
   36.7650   27.1330   43.3120 C   0  0  0  0  0  3  0  0  0  0  0  0
   35.6850   27.1890   43.0360 H   0  0  0  0  0  0  0  0  0  0  0  0
   37.5860   26.4060   42.2680 C   0  0  0  0  0  2  0  0  0  0  0  0
   37.8570   27.2510   41.0650 C   0  0  0  0  0  2  0  0  0  0  0  0
  1  6  1  0  0  0  0
  1  7  1  0  0  0  0
  2  1  2  0  0  0  0
  3  4  2  0  0  0  0
  3  2  1  0  0  0  0
  4  5  1  0  0  0  0
  5  8  1  0  0  0  0
  5  6  2  0  0  0  0
  9  3  1  0  0  0  0
  9 10  1  0  0  0  0
 10 15  1  0  0  0  0
 11 10  2  0  0  0  0
 11 16  1  0  0  0  0
 12 11  1  0  0  0  0
 13 14  1  0  0  0  0
 13 12  2  0  0  0  0
 14  9  2  0  0  0  0
 17 12  1  0  0  0  0
 18 13  1  0  0  0  0
 19  2  1  0  0  0  0
 19 21  1  0  0  0  0
 20 19  2  0  0  0  0
 21 22  1  0  0  0  0
 22 23  1  0  0  0  0
 24 23  1  0  0  0  0
 25 24  1  0  0  0  0
 26 24  1  0  0  0  0
 27 21  1  0  0  0  0
 27 26  1  0  0  0  0
M  END
>  <minimizedAffinity>
-5.59443331

$$$$

 OpenBabel03252507173D

 27 29  0  0  0  0  0  0  0  0999 V2000
   37.1210   30.3240   37.8480 C   0  0  0  0  0  0  0  0  0  0  0  0
   37.2750   29.9980   39.2090 C   0  0  0  0  0  0  0  0  0  0  0  0
   37.4610   28.6800   39.5580 C   0  0  0  0  0  0  0  0  0  0  0  0
   37.4910   27.7430   38.5970 N   0  0  0  0  0  0  0  0  0  0  0  0
   37.3420   28.0510   37.2790 C   0  0  0  0  0  0  0  0  0  0  0  0
   37.1600   29.3330   36.9350 N   0  0  0  0  0  0  0  0  0  0  0  0
   36.9720   31.3600   37.5410 H   0  0  0  0  0  0  0  0  0  0  0  0
   37.3700   27.2630   36.5180 H   0  0  0  0  0  0  0  0  0  0  0  0
   37.6190   28.3540   40.9720 C   0  0  0  0  0  0  0  0  0  0  0  0
   36.5720   27.8150   41.6810 C   0  0  0  0  0  0  0  0  0  0  0  0
   36.7580   27.5220   43.0090 C   0  0  0  0  0  0  0  0  0  0  0  0
   37.9490   27.7400   43.6790 C   0  0  0  0  0  0  0  0  0  0  0  0
   38.9640   28.2840   42.9160 C   0  0  0  0  0  0  0  0  0  0  0  0
   38.7670   28.5640   41.6190 N   0  0  0  0  0  0  0  0  0  0  0  0
   35.6080   27.6100   41.2470 H   0  0  0  0  0  0  0  0  0  0  0  0
   35.9640   27.0890   43.6400 H   0  0  0  0  0  0  0  0  0  0  0  0
   38.1480   27.5310   44.7150 H   0  0  0  0  0  0  0  0  0  0  0  0
   39.9650   28.5190   43.2820 H   0  0  0  0  0  0  0  0  0  0  0  0
   37.2320   31.0580   40.1760 C   0  0  0  0  0  0  0  0  0  0  0  0
   36.1990   31.1620   40.9120 O   0  0  0  0  0  0  0  0  0  0  0  0
   38.3590   31.9490   40.2610 N   0  0  0  0  0  0  0  0  0  0  0  0
   39.7860   31.6870   40.2760 C   0  0  0  0  0  2  0  0  0  0  0  0
   40.4750   32.5320   39.1980 C   0  0  0  0  0  2  0  0  0  0  0  0
   40.3250   33.9980   39.5560 C   0  0  0  0  0  3  0  0  0  0  0  0
   40.0850   34.5850   38.6370 H   0  0  0  0  0  0  0  0  0  0  0  0
   39.2710   34.1600   40.6310 C   0  0  0  0  0  2  0  0  0  0  0  0
   38.0400   33.3610   40.3480 C   0  0  0  0  0  2  0  0  0  0  0  0
  1  2  1  0  0  0  0
  2  3  2  0  0  0  0
  2 19  1  0  0  0  0
  3  9  1  0  0  0  0
  4  3  1  0  0  0  0
  5  4  2  0  0  0  0
  6  5  1  0  0  0  0
  6  1  2  0  0  0  0
  7  1  1  0  0  0  0
  8  5  1  0  0  0  0
  9 14  2  0  0  0  0
  9 10  1  0  0  0  0
 10 11  2  0  0  0  0
 11 16  1  0  0  0  0
 11 12  1  0  0  0  0
 12 17  1  0  0  0  0
 13 18  1  0  0  0  0
 13 12  2  0  0  0  0
 14 13  1  0  0  0  0
 15 10  1  0  0  0  0
 19 21  1  0  0  0  0
 19 20  2  0  0  0  0
 21 22  1  0  0  0  0
 21 27  1  0  0  0  0
 23 24  1  0  0  0  0
 23 22  1  0  0  0  0
 24 26  1  0  0  0  0
 25 24  1  0  0  0  0
 27 26  1  0  0  0  0
M  END
>  <minimizedAffinity>
-5.22730589

$$$$

 OpenBabel03252507173D

 27 29  0  0  0  0  0  0  0  0999 V2000
   36.1070   27.2840   38.2510 C   0  0  0  0  0  0  0  0  0  0  0  0
   36.5020   28.4020   39.0100 C   0  0  0  0  0  0  0  0  0  0  0  0
   37.3290   29.3380   38.4300 C   0  0  0  0  0  0  0  0  0  0  0  0
   37.7360   29.1620   37.1630 N   0  0  0  0  0  0  0  0  0  0  0  0
   37.3570   28.0820   36.4240 C   0  0  0  0  0  0  0  0  0  0  0  0
   36.5530   27.1690   36.9850 N   0  0  0  0  0  0  0  0  0  0  0  0
   35.4530   26.5260   38.6830 H   0  0  0  0  0  0  0  0  0  0  0  0
   37.7070   27.9670   35.3910 H   0  0  0  0  0  0  0  0  0  0  0  0
   37.7320   30.4930   39.2270 C   0  0  0  0  0  0  0  0  0  0  0  0
   37.0150   31.6630   39.1640 C   0  0  0  0  0  0  0  0  0  0  0  0
   37.4230   32.7280   39.9280 C   0  0  0  0  0  0  0  0  0  0  0  0
   38.5250   32.6890   40.7650 C   0  0  0  0  0  0  0  0  0  0  0  0
   39.2060   31.4870   40.7870 C   0  0  0  0  0  0  0  0  0  0  0  0
   38.7940   30.4550   40.0350 N   0  0  0  0  0  0  0  0  0  0  0  0
   36.1440   31.7900   38.5430 H   0  0  0  0  0  0  0  0  0  0  0  0
   36.8990   33.6980   39.9280 H   0  0  0  0  0  0  0  0  0  0  0  0
   38.8890   33.4900   41.3820 H   0  0  0  0  0  0  0  0  0  0  0  0
   40.0940   31.2820   41.3880 H   0  0  0  0  0  0  0  0  0  0  0  0
   36.0240   28.5180   40.3580 C   0  0  0  0  0  0  0  0  0  0  0  0
   34.9390   29.1510   40.5620 O   0  0  0  0  0  0  0  0  0  0  0  0
   36.7990   27.9130   41.4100 N   0  0  0  0  0  0  0  0  0  0  0  0
   37.4300   26.6110   41.5050 C   0  0  0  0  0  2  0  0  0  0  0  0
   38.9060   26.7800   41.8830 C   0  0  0  0  0  2  0  0  0  0  0  0
   38.9890   27.3770   43.2740 C   0  0  0  0  0  3  0  0  0  0  0  0
   39.7870   28.1570   43.3000 H   0  0  0  0  0  0  0  0  0  0  0  0
   37.6380   27.9260   43.6790 C   0  0  0  0  0  2  0  0  0  0  0  0
   36.9970   28.7290   42.5930 C   0  0  0  0  0  2  0  0  0  0  0  0
  1  7  1  0  0  0  0
  1  2  1  0  0  0  0
  2 19  1  0  0  0  0
  3  2  2  0  0  0  0
  3  9  1  0  0  0  0
  4  3  1  0  0  0  0
  5  6  1  0  0  0  0
  5  4  2  0  0  0  0
  6  1  2  0  0  0  0
  8  5  1  0  0  0  0
  9 14  1  0  0  0  0
 10  9  2  0  0  0  0
 10 11  1  0  0  0  0
 11 16  1  0  0  0  0
 11 12  2  0  0  0  0
 12 13  1  0  0  0  0
 12 17  1  0  0  0  0
 13 18  1  0  0  0  0
 14 13  2  0  0  0  0
 15 10  1  0  0  0  0
 19 20  2  0  0  0  0
 19 21  1  0  0  0  0
 21 22  1  0  0  0  0
 21 27  1  0  0  0  0
 22 23  1  0  0  0  0
 23 24  1  0  0  0  0
 24 25  1  0  0  0  0
 24 26  1  0  0  0  0
 27 26  1  0  0  0  0
M  END
>  <minimizedAffinity>
-5.06667328

$$$$

 OpenBabel03252507173D

 27 29  0  0  0  0  0  0  0  0999 V2000
   37.9220   28.1920   38.1030 C   0  0  0  0  0  0  0  0  0  0  0  0
   38.3450   29.3720   38.7440 C   0  0  0  0  0  0  0  0  0  0  0  0
   38.0280   30.5850   38.1770 C   0  0  0  0  0  0  0  0  0  0  0  0
   37.3260   30.6130   37.0320 N   0  0  0  0  0  0  0  0  0  0  0  0
   36.9140   29.4760   36.4070 C   0  0  0  0  0  0  0  0  0  0  0  0
   37.2210   28.2930   36.9560 N   0  0  0  0  0  0  0  0  0  0  0  0
   38.1580   27.2160   38.5280 H   0  0  0  0  0  0  0  0  0  0  0  0
   36.3420   29.5320   35.4730 H   0  0  0  0  0  0  0  0  0  0  0  0
   38.4730   31.8010   38.8510 C   0  0  0  0  0  0  0  0  0  0  0  0
   37.6210   32.4820   39.6880 C   0  0  0  0  0  0  0  0  0  0  0  0
   38.0740   33.6210   40.3050 C   0  0  0  0  0  0  0  0  0  0  0  0
   39.3510   34.1270   40.1300 C   0  0  0  0  0  0  0  0  0  0  0  0
   40.1610   33.4010   39.2780 C   0  0  0  0  0  0  0  0  0  0  0  0
   39.7040   32.2890   38.6830 N   0  0  0  0  0  0  0  0  0  0  0  0
   36.6100   32.1660   39.8860 H   0  0  0  0  0  0  0  0  0  0  0  0
   37.4480   34.2190   40.9880 H   0  0  0  0  0  0  0  0  0  0  0  0
   39.7560   35.0120   40.5860 H   0  0  0  0  0  0  0  0  0  0  0  0
   41.1930   33.6560   39.0280 H   0  0  0  0  0  0  0  0  0  0  0  0
   39.0920   29.2570   39.9650 C   0  0  0  0  0  0  0  0  0  0  0  0
   40.3480   29.4570   39.9250 O   0  0  0  0  0  0  0  0  0  0  0  0
   38.3790   28.9220   41.1690 N   0  0  0  0  0  0  0  0  0  0  0  0
   37.1310   29.4220   41.7130 C   0  0  0  0  0  2  0  0  0  0  0  0
   36.1990   28.2460   42.0290 C   0  0  0  0  0  2  0  0  0  0  0  0
   36.8210   27.4110   43.1320 C   0  0  0  0  0  3  0  0  0  0  0  0
   36.6930   26.3280   42.8980 H   0  0  0  0  0  0  0  0  0  0  0  0
   38.2760   27.7920   43.3070 C   0  0  0  0  0  2  0  0  0  0  0  0
   38.9970   27.9080   42.0030 C   0  0  0  0  0  2  0  0  0  0  0  0
  1  7  1  0  0  0  0
  1  2  1  0  0  0  0
  2 19  1  0  0  0  0
  3  2  2  0  0  0  0
  3  9  1  0  0  0  0
  4  3  1  0  0  0  0
  5  6  1  0  0  0  0
  5  4  2  0  0  0  0
  6  1  2  0  0  0  0
  8  5  1  0  0  0  0
  9 10  1  0  0  0  0
 10 15  1  0  0  0  0
 10 11  2  0  0  0  0
 11 16  1  0  0  0  0
 12 11  1  0  0  0  0
 12 17  1  0  0  0  0
 13 12  2  0  0  0  0
 14  9  2  0  0  0  0
 14 13  1  0  0  0  0
 18 13  1  0  0  0  0
 19 21  1  0  0  0  0
 20 19  2  0  0  0  0
 21 22  1  0  0  0  0
 21 27  1  0  0  0  0
 22 23  1  0  0  0  0
 23 24  1  0  0  0  0
 24 26  1  0  0  0  0
 25 24  1  0  0  0  0
 27 26  1  0  0  0  0
M  END
>  <minimizedAffinity>
-4.95196962

$$$$

 OpenBabel03252507173D

 27 29  0  0  0  0  0  0  0  0999 V2000
   40.9820   28.3950   39.7610 C   0  0  0  0  0  0  0  0  0  0  0  0
   40.2370   29.5610   40.0180 C   0  0  0  0  0  0  0  0  0  0  0  0
   39.9260   30.3940   38.9680 C   0  0  0  0  0  0  0  0  0  0  0  0
   40.3390   30.0750   37.7310 N   0  0  0  0  0  0  0  0  0  0  0  0
   41.0610   28.9490   37.4760 C   0  0  0  0  0  0  0  0  0  0  0  0
   41.3660   28.1350   38.4960 N   0  0  0  0  0  0  0  0  0  0  0  0
   41.2440   27.7150   40.5740 H   0  0  0  0  0  0  0  0  0  0  0  0
   41.3840   28.7160   36.4540 H   0  0  0  0  0  0  0  0  0  0  0  0
   39.1530   31.6000   39.2470 C   0  0  0  0  0  0  0  0  0  0  0  0
   37.8080   31.6430   38.9650 C   0  0  0  0  0  0  0  0  0  0  0  0
   37.1140   32.7950   39.2410 C   0  0  0  0  0  0  0  0  0  0  0  0
   37.6960   33.9230   39.7930 C   0  0  0  0  0  0  0  0  0  0  0  0
   39.0480   33.8210   40.0550 C   0  0  0  0  0  0  0  0  0  0  0  0
   39.7130   32.6880   39.7790 N   0  0  0  0  0  0  0  0  0  0  0  0
   37.2680   30.8170   38.5350 H   0  0  0  0  0  0  0  0  0  0  0  0
   36.0350   32.9030   39.0410 H   0  0  0  0  0  0  0  0  0  0  0  0
   37.2010   34.8480   40.0280 H   0  0  0  0  0  0  0  0  0  0  0  0
   39.6640   34.6120   40.4870 H   0  0  0  0  0  0  0  0  0  0  0  0
   39.8320   29.8310   41.3690 C   0  0  0  0  0  0  0  0  0  0  0  0
   40.5380   30.6320   42.0620 O   0  0  0  0  0  0  0  0  0  0  0  0
   38.6500   29.1800   41.8690 N   0  0  0  0  0  0  0  0  0  0  0  0
   37.3400   28.9880   41.2750 C   0  0  0  0  0  2  0  0  0  0  0  0
   36.9640   27.5020   41.3290 C   0  0  0  0  0  2  0  0  0  0  0  0
   36.8200   27.0870   42.7800 C   0  0  0  0  0  3  0  0  0  0  0  0
   37.2880   26.0850   42.9310 H   0  0  0  0  0  0  0  0  0  0  0  0
   37.4240   28.1440   43.6800 C   0  0  0  0  0  2  0  0  0  0  0  0
   38.7600   28.6090   43.1970 C   0  0  0  0  0  2  0  0  0  0  0  0
  1  2  1  0  0  0  0
  1  7  1  0  0  0  0
  2 19  1  0  0  0  0
  3  9  1  0  0  0  0
  3  2  2  0  0  0  0
  4  3  1  0  0  0  0
  5  4  2  0  0  0  0
  5  6  1  0  0  0  0
  6  1  2  0  0  0  0
  8  5  1  0  0  0  0
  9 14  1  0  0  0  0
 10 11  1  0  0  0  0
 10  9  2  0  0  0  0
 11 12  2  0  0  0  0
 12 17  1  0  0  0  0
 12 13  1  0  0  0  0
 13 18  1  0  0  0  0
 14 13  2  0  0  0  0
 15 10  1  0  0  0  0
 16 11  1  0  0  0  0
 19 21  1  0  0  0  0
 19 20  2  0  0  0  0
 21 27  1  0  0  0  0
 22 23  1  0  0  0  0
 22 21  1  0  0  0  0
 23 24  1  0  0  0  0
 24 25  1  0  0  0  0
 24 26  1  0  0  0  0
 27 26  1  0  0  0  0
M  END
>  <minimizedAffinity>
-4.90340805

$$$$

 OpenBabel03252507173D

 27 29  0  0  0  0  0  0  0  0999 V2000
   37.3520   24.7940   42.2390 C   0  0  0  0  0  0  0  0  0  0  0  0
   37.1650   26.1080   41.7720 C   0  0  0  0  0  0  0  0  0  0  0  0
   36.9080   26.3050   40.4340 C   0  0  0  0  0  0  0  0  0  0  0  0
   36.8430   25.2450   39.6130 N   0  0  0  0  0  0  0  0  0  0  0  0
   37.0230   23.9710   40.0590 C   0  0  0  0  0  0  0  0  0  0  0  0
   37.2740   23.7750   41.3610 N   0  0  0  0  0  0  0  0  0  0  0  0
   37.5570   24.6060   43.2940 H   0  0  0  0  0  0  0  0  0  0  0  0
   36.9640   23.1260   39.3630 H   0  0  0  0  0  0  0  0  0  0  0  0
   36.7160   27.6730   39.9610 C   0  0  0  0  0  0  0  0  0  0  0  0
   37.6710   28.2760   39.1770 C   0  0  0  0  0  0  0  0  0  0  0  0
   37.4560   29.5630   38.7510 C   0  0  0  0  0  0  0  0  0  0  0  0
   36.3240   30.2930   39.0670 C   0  0  0  0  0  0  0  0  0  0  0  0
   35.4000   29.6350   39.8570 C   0  0  0  0  0  0  0  0  0  0  0  0
   35.6240   28.3770   40.2650 N   0  0  0  0  0  0  0  0  0  0  0  0
   38.5840   27.7900   38.8790 H   0  0  0  0  0  0  0  0  0  0  0  0
   38.1770   30.1110   38.1210 H   0  0  0  0  0  0  0  0  0  0  0  0
   36.1050   31.3000   38.7620 H   0  0  0  0  0  0  0  0  0  0  0  0
   34.4550   30.0600   40.2000 H   0  0  0  0  0  0  0  0  0  0  0  0
   37.2500   27.1890   42.7130 C   0  0  0  0  0  0  0  0  0  0  0  0
   36.2890   27.3540   43.5310 O   0  0  0  0  0  0  0  0  0  0  0  0
   38.4190   28.0280   42.6810 N   0  0  0  0  0  0  0  0  0  0  0  0
   39.8290   27.7020   42.5830 C   0  0  0  0  0  2  0  0  0  0  0  0
   40.4600   28.4930   41.4300 C   0  0  0  0  0  2  0  0  0  0  0  0
   40.4050   29.9710   41.7640 C   0  0  0  0  0  3  0  0  0  0  0  0
   40.1130   30.5490   40.8550 H   0  0  0  0  0  0  0  0  0  0  0  0
   39.4540   30.2020   42.9190 C   0  0  0  0  0  2  0  0  0  0  0  0
   38.1700   29.4550   42.7610 C   0  0  0  0  0  2  0  0  0  0  0  0
  1  7  1  0  0  0  0
  2  1  1  0  0  0  0
  2 19  1  0  0  0  0
  3  2  2  0  0  0  0
  4  5  2  0  0  0  0
  4  3  1  0  0  0  0
  5  6  1  0  0  0  0
  6  1  2  0  0  0  0
  8  5  1  0  0  0  0
  9 14  1  0  0  0  0
  9  3  1  0  0  0  0
 10  9  2  0  0  0  0
 11 12  2  0  0  0  0
 11 10  1  0  0  0  0
 12 13  1  0  0  0  0
 13 18  1  0  0  0  0
 13 14  2  0  0  0  0
 15 10  1  0  0  0  0
 16 11  1  0  0  0  0
 17 12  1  0  0  0  0
 19 20  2  0  0  0  0
 21 19  1  0  0  0  0
 21 27  1  0  0  0  0
 22 21  1  0  0  0  0
 23 24  1  0  0  0  0
 23 22  1  0  0  0  0
 24 26  1  0  0  0  0
 25 24  1  0  0  0  0
 27 26  1  0  0  0  0
M  END
>  <minimizedAffinity>
-4.88103771

$$$$

 OpenBabel03252507173D

 27 29  0  0  0  0  0  0  0  0999 V2000
   34.9330   28.1490   38.4210 C   0  0  0  0  0  0  0  0  0  0  0  0
   35.8820   27.7260   39.3700 C   0  0  0  0  0  0  0  0  0  0  0  0
   36.4110   26.4600   39.2610 C   0  0  0  0  0  0  0  0  0  0  0  0
   36.0090   25.6640   38.2560 N   0  0  0  0  0  0  0  0  0  0  0  0
   35.0910   26.0670   37.3350 C   0  0  0  0  0  0  0  0  0  0  0  0
   34.5740   27.2990   37.4390 N   0  0  0  0  0  0  0  0  0  0  0  0
   34.4970   29.1470   38.4820 H   0  0  0  0  0  0  0  0  0  0  0  0
   34.7830   25.3940   36.5270 H   0  0  0  0  0  0  0  0  0  0  0  0
   37.3940   26.0330   40.2510 C   0  0  0  0  0  0  0  0  0  0  0  0
   37.0480   25.1280   41.2260 C   0  0  0  0  0  0  0  0  0  0  0  0
   37.9990   24.7500   42.1410 C   0  0  0  0  0  0  0  0  0  0  0  0
   39.2970   25.2310   42.1360 C   0  0  0  0  0  0  0  0  0  0  0  0
   39.5860   26.1370   41.1330 C   0  0  0  0  0  0  0  0  0  0  0  0
   38.6460   26.4960   40.2470 N   0  0  0  0  0  0  0  0  0  0  0  0
   36.0640   24.6980   41.3120 H   0  0  0  0  0  0  0  0  0  0  0  0
   37.7950   24.0300   42.9510 H   0  0  0  0  0  0  0  0  0  0  0  0
   40.0790   24.9700   42.8260 H   0  0  0  0  0  0  0  0  0  0  0  0
   40.5560   26.6140   40.9820 H   0  0  0  0  0  0  0  0  0  0  0  0
   36.2600   28.6370   40.4140 C   0  0  0  0  0  0  0  0  0  0  0  0
   35.9930   28.3190   41.6170 O   0  0  0  0  0  0  0  0  0  0  0  0
   36.9180   29.8620   40.0440 N   0  0  0  0  0  0  0  0  0  0  0  0
   38.0000   30.1230   39.1140 C   0  0  0  0  0  2  0  0  0  0  0  0
   37.5820   31.2260   38.1340 C   0  0  0  0  0  2  0  0  0  0  0  0
   37.3860   32.5170   38.9060 C   0  0  0  0  0  3  0  0  0  0  0  0
   36.4710   33.0380   38.5360 H   0  0  0  0  0  0  0  0  0  0  0  0
   37.3180   32.2240   40.3890 C   0  0  0  0  0  2  0  0  0  0  0  0
   36.4330   31.0600   40.7020 C   0  0  0  0  0  2  0  0  0  0  0  0
  1  7  1  0  0  0  0
  1  2  1  0  0  0  0
  2 19  1  0  0  0  0
  3  2  2  0  0  0  0
  3  9  1  0  0  0  0
  4  3  1  0  0  0  0
  5  6  1  0  0  0  0
  5  4  2  0  0  0  0
  6  1  2  0  0  0  0
  8  5  1  0  0  0  0
  9 10  1  0  0  0  0
 10 15  1  0  0  0  0
 10 11  2  0  0  0  0
 11 16  1  0  0  0  0
 12 11  1  0  0  0  0
 12 17  1  0  0  0  0
 13 12  2  0  0  0  0
 14  9  2  0  0  0  0
 14 13  1  0  0  0  0
 18 13  1  0  0  0  0
 19 20  2  0  0  0  0
 21 19  1  0  0  0  0
 21 27  1  0  0  0  0
 22 21  1  0  0  0  0
 23 24  1  0  0  0  0
 23 22  1  0  0  0  0
 24 26  1  0  0  0  0
 25 24  1  0  0  0  0
 26 27  1  0  0  0  0
M  END
>  <minimizedAffinity>
-4.87002087

$$$$

 OpenBabel03252507173D

 27 29  0  0  0  0  0  0  0  0999 V2000
   37.6520   26.7550   41.6430 C   0  0  0  0  0  0  0  0  0  0  0  0
   37.8210   28.0090   41.0260 C   0  0  0  0  0  0  0  0  0  0  0  0
   37.6460   29.1480   41.7800 C   0  0  0  0  0  0  0  0  0  0  0  0
   37.3210   29.0340   43.0780 N   0  0  0  0  0  0  0  0  0  0  0  0
   37.1550   27.8240   43.6800 C   0  0  0  0  0  0  0  0  0  0  0  0
   37.3240   26.7130   42.9500 N   0  0  0  0  0  0  0  0  0  0  0  0
   37.7840   25.8350   41.0720 H   0  0  0  0  0  0  0  0  0  0  0  0
   36.8890   27.7650   44.7420 H   0  0  0  0  0  0  0  0  0  0  0  0
   37.8240   30.4420   41.1290 C   0  0  0  0  0  0  0  0  0  0  0  0
   36.7440   31.1030   40.5940 C   0  0  0  0  0  0  0  0  0  0  0  0
   36.9500   32.3180   39.9900 C   0  0  0  0  0  0  0  0  0  0  0  0
   38.1920   32.9200   39.8880 C   0  0  0  0  0  0  0  0  0  0  0  0
   39.2390   32.2080   40.4430 C   0  0  0  0  0  0  0  0  0  0  0  0
   39.0220   31.0220   41.0310 N   0  0  0  0  0  0  0  0  0  0  0  0
   35.7400   30.7160   40.6240 H   0  0  0  0  0  0  0  0  0  0  0  0
   36.1330   32.9060   39.5390 H   0  0  0  0  0  0  0  0  0  0  0  0
   38.4100   33.8660   39.4260 H   0  0  0  0  0  0  0  0  0  0  0  0
   40.2810   32.5330   40.4520 H   0  0  0  0  0  0  0  0  0  0  0  0
   38.1700   28.0450   39.6340 C   0  0  0  0  0  0  0  0  0  0  0  0
   39.4010   27.9700   39.3180 O   0  0  0  0  0  0  0  0  0  0  0  0
   37.1090   28.1670   38.6700 N   0  0  0  0  0  0  0  0  0  0  0  0
   35.8290   27.4920   38.5650 C   0  0  0  0  0  2  0  0  0  0  0  0
   34.7080   28.5300   38.4380 C   0  0  0  0  0  2  0  0  0  0  0  0
   34.8820   29.2810   37.1320 C   0  0  0  0  0  3  0  0  0  0  0  0
   34.6930   30.3680   37.2980 H   0  0  0  0  0  0  0  0  0  0  0  0
   36.2630   29.0190   36.5690 C   0  0  0  0  0  2  0  0  0  0  0  0
   37.3340   29.1270   37.6050 C   0  0  0  0  0  2  0  0  0  0  0  0
  1  6  1  0  0  0  0
  2  1  2  0  0  0  0
  2  3  1  0  0  0  0
  3  4  2  0  0  0  0
  4  5  1  0  0  0  0
  5  8  1  0  0  0  0
  6  5  2  0  0  0  0
  7  1  1  0  0  0  0
  9  3  1  0  0  0  0
 10 15  1  0  0  0  0
 10  9  2  0  0  0  0
 11 10  1  0  0  0  0
 12 11  2  0  0  0  0
 12 13  1  0  0  0  0
 13 18  1  0  0  0  0
 13 14  2  0  0  0  0
 14  9  1  0  0  0  0
 16 11  1  0  0  0  0
 17 12  1  0  0  0  0
 19  2  1  0  0  0  0
 20 19  2  0  0  0  0
 21 19  1  0  0  0  0
 22 21  1  0  0  0  0
 23 22  1  0  0  0  0
 24 25  1  0  0  0  0
 24 23  1  0  0  0  0
 26 24  1  0  0  0  0
 26 27  1  0  0  0  0
 27 21  1  0  0  0  0
M  END
>  <minimizedAffinity>
-4.86600876

$$$$

 OpenBabel03252507173D

 27 29  0  0  0  0  0  0  0  0999 V2000
   36.3390   25.1300   38.3320 C   0  0  0  0  0  0  0  0  0  0  0  0
   37.0250   25.8170   39.3510 C   0  0  0  0  0  0  0  0  0  0  0  0
   36.9810   25.3190   40.6330 C   0  0  0  0  0  0  0  0  0  0  0  0
   36.2880   24.1950   40.8780 N   0  0  0  0  0  0  0  0  0  0  0  0
   35.6220   23.5260   39.8980 C   0  0  0  0  0  0  0  0  0  0  0  0
   35.6630   24.0080   38.6480 N   0  0  0  0  0  0  0  0  0  0  0  0
   36.3550   25.5010   37.3060 H   0  0  0  0  0  0  0  0  0  0  0  0
   35.0650   22.6100   40.1300 H   0  0  0  0  0  0  0  0  0  0  0  0
   37.6960   26.0420   41.6810 C   0  0  0  0  0  0  0  0  0  0  0  0
   37.0110   26.8530   42.5550 C   0  0  0  0  0  0  0  0  0  0  0  0
   37.7170   27.5170   43.5270 C   0  0  0  0  0  0  0  0  0  0  0  0
   39.0890   27.4140   43.6790 C   0  0  0  0  0  0  0  0  0  0  0  0
   39.7220   26.5850   42.7730 C   0  0  0  0  0  0  0  0  0  0  0  0
   39.0180   25.9430   41.8280 N   0  0  0  0  0  0  0  0  0  0  0  0
   35.9450   26.9970   42.5160 H   0  0  0  0  0  0  0  0  0  0  0  0
   37.2370   28.1840   44.2620 H   0  0  0  0  0  0  0  0  0  0  0  0
   39.6900   27.9100   44.4200 H   0  0  0  0  0  0  0  0  0  0  0  0
   40.7960   26.3890   42.7480 H   0  0  0  0  0  0  0  0  0  0  0  0
   37.7430   27.0120   39.0070 C   0  0  0  0  0  0  0  0  0  0  0  0
   38.8900   26.8930   38.4690 O   0  0  0  0  0  0  0  0  0  0  0  0
   37.1270   28.2820   39.2900 N   0  0  0  0  0  0  0  0  0  0  0  0
   35.7750   28.7590   39.0700 C   0  0  0  0  0  2  0  0  0  0  0  0
   35.2110   29.3270   40.3780 C   0  0  0  0  0  2  0  0  0  0  0  0
   36.0180   30.5500   40.7690 C   0  0  0  0  0  3  0  0  0  0  0  0
   36.2110   30.5350   41.8680 H   0  0  0  0  0  0  0  0  0  0  0  0
   37.2980   30.6000   39.9620 C   0  0  0  0  0  2  0  0  0  0  0  0
   37.9880   29.2760   39.9020 C   0  0  0  0  0  2  0  0  0  0  0  0
  1  6  2  0  0  0  0
  1  2  1  0  0  0  0
  2  3  2  0  0  0  0
  3  4  1  0  0  0  0
  3  9  1  0  0  0  0
  5  8  1  0  0  0  0
  5  4  2  0  0  0  0
  6  5  1  0  0  0  0
  7  1  1  0  0  0  0
  9 14  2  0  0  0  0
  9 10  1  0  0  0  0
 10 11  2  0  0  0  0
 11 12  1  0  0  0  0
 11 16  1  0  0  0  0
 12 17  1  0  0  0  0
 13 12  2  0  0  0  0
 14 13  1  0  0  0  0
 15 10  1  0  0  0  0
 18 13  1  0  0  0  0
 19 21  1  0  0  0  0
 19  2  1  0  0  0  0
 20 19  2  0  0  0  0
 21 27  1  0  0  0  0
 22 21  1  0  0  0  0
 22 23  1  0  0  0  0
 23 24  1  0  0  0  0
 24 25  1  0  0  0  0
 26 24  1  0  0  0  0
 27 26  1  0  0  0  0
M  END
>  <minimizedAffinity>
-4.85613918

$$$$
