
 OpenBabel03252507163D

 27 29  0  0  0  0  0  0  0  0999 V2000
   46.0220   35.7250   42.8350 C   0  0  0  0  0  0  0  0  0  0  0  0
   46.3950   34.4860   43.3890 C   0  0  0  0  0  0  0  0  0  0  0  0
   45.7750   34.0620   44.5430 C   0  0  0  0  0  0  0  0  0  0  0  0
   44.8360   34.8380   45.1080 N   0  0  0  0  0  0  0  0  0  0  0  0
   44.4710   36.0370   44.5770 C   0  0  0  0  0  0  0  0  0  0  0  0
   45.0720   36.4530   43.4540 N   0  0  0  0  0  0  0  0  0  0  0  0
   46.4950   36.0870   41.9220 H   0  0  0  0  0  0  0  0  0  0  0  0
   43.7000   36.6480   45.0630 H   0  0  0  0  0  0  0  0  0  0  0  0
   46.1710   32.7760   45.1080 C   0  0  0  0  0  0  0  0  0  0  0  0
   45.7930   31.6040   44.4960 C   0  0  0  0  0  0  0  0  0  0  0  0
   46.1840   30.4130   45.0560 C   0  0  0  0  0  0  0  0  0  0  0  0
   46.9420   30.3250   46.2110 C   0  0  0  0  0  0  0  0  0  0  0  0
   47.2910   31.5350   46.7810 C   0  0  0  0  0  0  0  0  0  0  0  0
   46.9020   32.6900   46.2210 N   0  0  0  0  0  0  0  0  0  0  0  0
   45.2040   31.5710   43.5960 H   0  0  0  0  0  0  0  0  0  0  0  0
   45.9180   29.4350   44.6230 H   0  0  0  0  0  0  0  0  0  0  0  0
   47.2740   29.4230   46.6910 H   0  0  0  0  0  0  0  0  0  0  0  0
   47.8850   31.6500   47.6900 H   0  0  0  0  0  0  0  0  0  0  0  0
   47.4080   33.7160   42.7250 C   0  0  0  0  0  0  0  0  0  0  0  0
   48.5150   33.5300   43.3240 O   0  0  0  0  0  0  0  0  0  0  0  0
   47.1180   33.1950   41.4150 N   0  0  0  0  0  0  0  0  0  0  0  0
   45.9430   32.5240   40.8910 C   0  0  0  0  0  0  0  0  0  0  0  0
   45.4720   33.2330   39.6160 C   0  0  0  0  0  0  0  0  0  0  0  0
   46.5390   33.0810   38.5490 C   0  0  0  0  0  0  0  0  0  0  0  0
   46.6640   34.0480   38.0050 H   0  0  0  0  0  0  0  0  0  0  0  0
   47.8310   32.6070   39.1790 C   0  0  0  0  0  0  0  0  0  0  0  0
   48.1680   33.3570   40.4270 C   0  0  0  0  0  0  0  0  0  0  0  0
  1  2  2  0  0  0  0
  1  6  1  0  0  0  0
  2  3  1  0  0  0  0
  3  9  1  0  0  0  0
  3  4  2  0  0  0  0
  5  8  1  0  0  0  0
  5  4  1  0  0  0  0
  6  5  2  0  0  0  0
  7  1  1  0  0  0  0
  9 14  1  0  0  0  0
 10 11  1  0  0  0  0
 10  9  2  0  0  0  0
 11 12  2  0  0  0  0
 12 17  1  0  0  0  0
 12 13  1  0  0  0  0
 13 18  1  0  0  0  0
 14 13  2  0  0  0  0
 15 10  1  0  0  0  0
 16 11  1  0  0  0  0
 19 20  2  0  0  0  0
 19  2  1  0  0  0  0
 21 19  1  0  0  0  0
 22 21  1  0  0  0  0
 23 22  1  0  0  0  0
 24 26  1  0  0  0  0
 24 23  1  0  0  0  0
 25 24  1  0  0  0  0
 26 27  1  0  0  0  0
 27 21  1  0  0  0  0
M  END
>  <minimizedAffinity>
-4.68742704

>  <minimizedRMSD>
2.06128836

$$$$
