
     RDKit          3D

 36 38  0  0  0  0  0  0  0  0999 V2000
   45.2720   36.1619   43.1674 C   0  0  0  0  0  0  0  0  0  0  0  0
   45.8654   34.9098   42.9182 C   0  0  0  0  0  0  0  0  0  0  0  0
   45.8244   33.9492   43.9025 C   0  0  0  0  0  0  0  0  0  0  0  0
   45.2223   34.2292   45.0702 N   0  0  0  0  0  0  0  0  0  0  0  0
   44.6470   35.4376   45.3172 C   0  0  0  0  0  0  0  0  0  0  0  0
   44.6847   36.3758   44.3614 N   0  0  0  0  0  0  0  0  0  0  0  0
   46.4427   32.6553   43.6325 C   0  0  0  0  0  0  0  0  0  0  0  0
   45.6674   31.5720   43.2953 C   0  0  0  0  0  0  0  0  0  0  0  0
   46.2840   30.3713   43.0484 C   0  0  0  0  0  0  0  0  0  0  0  0
   47.6542   30.1878   43.1204 C   0  0  0  0  0  0  0  0  0  0  0  0
   48.3824   31.3112   43.4636 C   0  0  0  0  0  0  0  0  0  0  0  0
   47.7636   32.4783   43.7019 N   0  0  0  0  0  0  0  0  0  0  0  0
   46.4895   34.6892   41.6436 C   0  0  0  0  0  0  0  0  0  0  0  0
   47.6705   35.1294   41.4664 O   0  0  0  0  0  0  0  0  0  0  0  0
   45.2891   36.9429   42.4057 H   0  0  0  0  0  0  0  0  0  0  0  0
   44.1628   35.6357   46.2810 H   0  0  0  0  0  0  0  0  0  0  0  0
   44.5945   31.6159   43.2140 H   0  0  0  0  0  0  0  0  0  0  0  0
   45.7275   29.4605   42.7731 H   0  0  0  0  0  0  0  0  0  0  0  0
   48.1882   29.2735   42.9380 H   0  0  0  0  0  0  0  0  0  0  0  0
   49.4677   31.3456   43.5656 H   0  0  0  0  0  0  0  0  0  0  0  0
   45.7452   33.9819   40.6349 N   0  0  0  0  0  0  0  0  0  0  0  0
   44.6407   34.3988   39.7927 C   0  0  0  0  0  0  0  0  0  0  0  0
   44.9745   34.1070   38.3242 C   0  0  0  0  0  0  0  0  0  0  0  0
   45.0874   32.6070   38.1370 C   0  0  0  0  0  0  0  0  0  0  0  0
   45.9618   32.3768   37.4827 H   0  0  0  0  0  0  0  0  0  0  0  0
   45.1871   31.9261   39.4863 C   0  0  0  0  0  0  0  0  0  0  0  0
   46.1519   32.6091   40.4011 C   0  0  0  0  0  0  0  0  0  0  0  0
   43.7202   33.8596   40.0290 H   0  0  0  0  0  0  0  0  0  0  0  0
   44.4729   35.4879   39.8416 H   0  0  0  0  0  0  0  0  0  0  0  0
   45.9236   34.5999   38.0287 H   0  0  0  0  0  0  0  0  0  0  0  0
   44.1201   34.5295   37.7491 H   0  0  0  0  0  0  0  0  0  0  0  0
   44.1825   32.2822   37.5849 H   0  0  0  0  0  0  0  0  0  0  0  0
   45.5842   30.9006   39.2653 H   0  0  0  0  0  0  0  0  0  0  0  0
   44.1767   31.8653   39.9261 H   0  0  0  0  0  0  0  0  0  0  0  0
   46.1619   32.0111   41.3482 H   0  0  0  0  0  0  0  0  0  0  0  0
   47.1676   32.5726   39.9443 H   0  0  0  0  0  0  0  0  0  0  0  0
  1  6  2  0
  2  1  1  0
  2  3  2  0
  3  4  1  0
  4  5  2  0
  6  5  1  0
  7 12  1  0
  7  3  1  0
  8  7  2  0
  9 10  2  0
  9  8  1  0
 10 11  1  0
 11 12  2  0
 13  2  1  0
 14 13  2  0
  1 15  1  0
  5 16  1  0
  8 17  1  0
  9 18  1  0
 10 19  1  0
 11 20  1  0
 21 22  1  0
 22 23  1  0
 23 24  1  0
 24 25  1  0
 24 26  1  0
 26 27  1  0
 27 21  1  0
 22 28  1  0
 22 29  1  0
 23 30  1  0
 23 31  1  0
 24 32  1  0
 26 33  1  0
 26 34  1  0
 27 35  1  0
 27 36  1  0
 13 21  1  0
M  ISO  7  15  14  16  14  17  14  18  14  19  14  20  14  25  15
M  END
>  <DihAtoms>  (1) 
1,12,20,21

>  <DihDeg>  (1) 
-0.00424746044924652

$$$$
