REMARK  Name = 
REMARK  2 active torsions:
REMARK  status: ('A' for Active; 'I' for Inactive)
REMARK    1  A    between atoms: C_2  and  C_13
REMARK    2  A    between atoms: C_3  and  C_7
REMARK                            x       y       z     vdW  Elec       q    Type
REMARK                         _______ _______ _______ _____ _____    ______ ____
ROOT
ATOM      1  C   UNL     1      45.272  36.162  43.167  0.00  0.00    +0.000 A 
ATOM      2  C   UNL     1      45.865  34.910  42.918  0.00  0.00    +0.000 A 
ATOM      3  C   UNL     1      45.824  33.949  43.903  0.00  0.00    +0.000 A 
ATOM      4  N   UNL     1      45.222  34.229  45.070  0.00  0.00    +0.000 NA
ATOM      5  C   UNL     1      44.647  35.438  45.317  0.00  0.00    +0.000 A 
ATOM      6  N   UNL     1      44.685  36.376  44.361  0.00  0.00    +0.000 NA
ATOM      7  H   UNL     1      45.289  36.943  42.406  0.00  0.00    +0.000 HD
ATOM      8  H   UNL     1      44.163  35.636  46.281  0.00  0.00    +0.000 HD
ENDROOT
BRANCH   3   9
ATOM      9  C   UNL     1      46.443  32.655  43.633  0.00  0.00    +0.000 A 
ATOM     10  C   UNL     1      45.667  31.572  43.295  0.00  0.00    +0.000 A 
ATOM     11  C   UNL     1      46.284  30.371  43.048  0.00  0.00    +0.000 A 
ATOM     12  C   UNL     1      47.654  30.188  43.120  0.00  0.00    +0.000 A 
ATOM     13  C   UNL     1      48.382  31.311  43.464  0.00  0.00    +0.000 A 
ATOM     14  N   UNL     1      47.764  32.478  43.702  0.00  0.00    +0.000 NA
ATOM     15  H   UNL     1      44.594  31.616  43.214  0.00  0.00    +0.000 HD
ATOM     16  H   UNL     1      45.727  29.460  42.773  0.00  0.00    +0.000 HD
ATOM     17  H   UNL     1      48.188  29.273  42.938  0.00  0.00    +0.000 HD
ATOM     18  H   UNL     1      49.468  31.346  43.566  0.00  0.00    +0.000 HD
ENDBRANCH   3   9
BRANCH   2  19
ATOM     19  C   UNL     1      46.489  34.689  41.644  0.00  0.00    +0.000 C 
ATOM     20  O   UNL     1      47.670  35.129  41.466  0.00  0.00    +0.000 OA
ATOM     21  N   UNL     1      45.745  33.982  40.635  0.00  0.00    +0.000 N 
ATOM     22  C   UNL     1      45.775  34.068  39.188  0.00  0.00    +0.000 C 
ATOM     23  C   UNL     1      45.977  32.669  38.592  0.00  0.00    +0.000 C 
ATOM     24  C   UNL     1      44.770  31.816  38.926  0.00  0.00    +0.000 C 
ATOM     25  H   UNL     1      45.105  30.794  39.225  0.00  0.00    +0.000 HD
ATOM     26  C   UNL     1      43.948  32.488  40.007  0.00  0.00    +0.000 C 
ATOM     27  C   UNL     1      44.791  33.006  41.127  0.00  0.00    +0.000 C 
ENDBRANCH   2  19
TORSDOF 2
