
 OpenBabel03242520193D

 33 35  0  0  0  0  0  0  0  0999 V2000
   41.0390   35.9090   39.3890 C   0  0  0  0  0  0  0  0  0  0  0  0
   40.8260   35.6060   38.3370 H   0  0  0  0  0  0  0  0  0  0  0  0
   41.3090   36.9910   39.4040 H   0  0  0  0  0  0  0  0  0  0  0  0
   43.9440   34.6610   41.4650 C   0  0  0  0  0  0  0  0  0  0  0  0
   42.8060   35.3980   41.0730 C   0  0  0  0  0  0  0  0  0  0  0  0
   42.2410   35.1610   39.8320 C   0  0  0  0  0  0  0  0  0  0  0  0
   42.8370   34.2070   39.0490 N   0  0  0  0  0  0  0  0  0  0  0  0
   43.9370   33.5210   39.4700 C   0  0  0  0  0  0  0  0  0  0  0  0
   44.4810   33.7470   40.6630 N   0  0  0  0  0  0  0  0  0  0  0  0
   42.4090   36.1280   41.7590 H   0  0  0  0  0  0  0  0  0  0  0  0
   44.3150   32.7910   38.7560 H   0  0  0  0  0  0  0  0  0  0  0  0
   44.5420   34.9350   42.7980 C   0  0  0  0  0  0  0  0  0  0  0  0
   46.0550   35.3310   42.6920 C   0  0  0  0  0  0  0  0  0  0  0  0
   45.0050   36.2010   43.2330 C   0  0  0  0  0  0  0  0  0  0  0  0
   44.3490   34.1110   43.5200 H   0  0  0  0  0  0  0  0  0  0  0  0
   46.7160   34.8410   43.4470 H   0  0  0  0  0  0  0  0  0  0  0  0
   46.4700   35.4840   41.6960 H   0  0  0  0  0  0  0  0  0  0  0  0
   44.7670   37.0950   42.5840 H   0  0  0  0  0  0  0  0  0  0  0  0
   44.9500   36.5030   44.3050 H   0  0  0  0  0  0  0  0  0  0  0  0
   39.8750   35.6330   40.3240 C   0  0  0  0  0  0  0  0  0  0  0  0
   40.2680   35.5570   41.3360 H   0  0  0  0  0  0  0  0  0  0  0  0
   39.1870   36.5250   40.3330 H   0  0  0  0  0  0  0  0  0  0  0  0
   39.1650   33.3410   40.7550 C   0  0  0  0  0  0  0  0  0  0  0  0
   39.7960   33.2410   41.8410 O   0  0  0  0  0  0  0  0  0  0  0  0
   39.1030   34.4840   39.9260 N   0  0  0  0  0  0  0  0  0  0  0  0
   38.5680   34.5950   39.0650 H   0  0  0  0  0  0  0  0  0  0  0  0
   38.4520   32.1780   40.3430 N   0  0  0  0  0  0  0  0  0  0  0  0
   37.8360   31.1240   41.1120 C   0  0  0  0  0  0  0  0  0  0  0  0
   38.4520   29.7800   40.8050 C   0  0  0  0  0  0  0  0  0  0  0  0
   38.2400   29.4460   39.3350 C   0  0  0  0  0  0  0  0  0  0  0  0
   38.6780   28.4800   39.0860 H   0  0  0  0  0  0  0  0  0  0  0  0
   38.9350   30.5620   38.5630 C   0  0  0  0  0  0  0  0  0  0  0  0
   38.2100   31.8350   38.9550 C   0  0  0  0  0  0  0  0  0  0  0  0
  1  3  1  0  0  0  0
  1  6  1  0  0  0  0
  1 20  1  0  0  0  0
  2  1  1  0  0  0  0
  4 12  1  0  0  0  0
  5  4  1  0  0  0  0
  5 10  1  0  0  0  0
  6  5  2  0  0  0  0
  7  8  2  0  0  0  0
  7  6  1  0  0  0  0
  8  9  1  0  0  0  0
  9  4  2  0  0  0  0
 11  8  1  0  0  0  0
 12 14  1  0  0  0  0
 12 15  1  0  0  0  0
 13 12  1  0  0  0  0
 13 14  1  0  0  0  0
 13 16  1  0  0  0  0
 14 19  1  0  0  0  0
 17 13  1  0  0  0  0
 18 14  1  0  0  0  0
 20 22  1  0  0  0  0
 20 21  1  0  0  0  0
 23 24  2  0  0  0  0
 25 20  1  0  0  0  0
 25 23  1  0  0  0  0
 26 25  1  0  0  0  0
 27 23  1  0  0  0  0
 27 28  1  0  0  0  0
 29 28  1  0  0  0  0
 30 29  1  0  0  0  0
 31 30  1  0  0  0  0
 32 33  1  0  0  0  0
 32 30  1  0  0  0  0
 33 27  1  0  0  0  0
M  END
>  <minimizedAffinity>
-5.13124943

>  <minimizedRMSD>
0.369764477

$$$$
