
 OpenBabel03252507553D

 42 45  0  0  1  0  0  0  0  0999 V2000
   46.9820   34.8180   41.9250 C   0  0  2  0  0  0  0  0  0  0  0  0
   46.2840   33.9680   40.8610 C   0  0  0  0  0  0  0  0  0  0  0  0
   47.4730   33.8440   39.8840 C   0  0  0  0  0  0  0  0  0  0  0  0
   48.6810   33.7350   40.7620 C   0  0  1  0  0  0  0  0  0  0  0  0
   48.1950   33.9620   42.1630 C   0  0  0  0  0  0  0  0  0  0  0  0
   47.2570   35.7890   41.4690 H   0  0  0  0  0  0  0  0  0  0  0  0
   45.4670   34.5370   40.4210 H   0  0  0  0  0  0  0  0  0  0  0  0
   46.0260   32.9970   41.3050 H   0  0  0  0  0  0  0  0  0  0  0  0
   47.3450   32.9600   39.2410 H   0  0  0  0  0  0  0  0  0  0  0  0
   47.4780   34.7970   39.2810 H   0  0  0  0  0  0  0  0  0  0  0  0
   49.4300   34.5080   40.4940 H   0  0  0  0  0  0  0  0  0  0  0  0
   48.9400   34.5620   42.7340 H   0  0  0  0  0  0  0  0  0  0  0  0
   47.9160   33.0420   42.6870 H   0  0  0  0  0  0  0  0  0  0  0  0
   44.5210   36.0280   44.5050 C   0  0  0  0  0  0  0  0  0  0  0  0
   45.2340   35.9930   43.3110 C   0  0  0  0  0  0  0  0  0  0  0  0
   46.1400   34.9540   43.1460 C   0  0  0  0  0  0  0  0  0  0  0  0
   46.3110   33.9930   44.1520 N   0  0  0  0  0  0  0  0  0  0  0  0
   45.5860   34.0820   45.2970 C   0  0  0  0  0  0  0  0  0  0  0  0
   44.6950   35.0950   45.4710 N   0  0  0  0  0  0  0  0  0  0  0  0
   43.8070   36.8340   44.6550 H   0  0  0  0  0  0  0  0  0  0  0  0
   45.1220   36.7190   42.5200 H   0  0  0  0  0  0  0  0  0  0  0  0
   45.7220   33.3410   46.0680 H   0  0  0  0  0  0  0  0  0  0  0  0
   49.3570   32.3840   40.7370 C   0  0  2  0  0  0  0  0  0  0  0  0
   50.2690   32.1070   41.8380 C   0  0  0  0  0  0  0  0  0  0  0  0
   50.7830   32.2450   40.4410 C   0  0  1  0  0  0  0  0  0  0  0  0
   48.6890   31.5700   40.3990 H   0  0  0  0  0  0  0  0  0  0  0  0
   50.6040   32.8910   42.5580 H   0  0  0  0  0  0  0  0  0  0  0  0
   50.2660   31.1040   42.3120 H   0  0  0  0  0  0  0  0  0  0  0  0
   51.2940   33.1470   40.0710 H   0  0  0  0  0  0  0  0  0  0  0  0
   51.1990   31.0610   39.7840 O   0  0  0  0  0  0  0  0  0  0  0  0
   51.0460   30.2720   37.3040 O   0  0  0  0  0  0  0  0  0  0  0  0
   51.4820   31.4300   38.1690 P   0  0  1  0  0  0  0  0  0  0  0  0
   50.5420   32.7910   37.7090 O   0  0  0  0  0  0  0  0  0  0  0  0
   51.0330   33.6280   37.7980 H   0  0  0  0  0  0  0  0  0  0  0  0
   53.0620   31.7940   37.8080 O   0  0  0  0  0  0  0  0  0  0  0  0
   52.4030   28.2680   40.3440 H   0  0  0  0  0  0  0  0  0  0  0  0
   53.3540   28.4580   39.9600 N   0  0  0  0  0  0  0  0  0  0  0  0
   53.2970   28.6260   38.5320 C   0  0  0  0  0  2  0  0  0  0  0  0
   54.2230   29.7080   38.0190 C   0  0  0  0  0  2  0  0  0  0  0  0
   53.9170   31.0410   38.6340 C   0  0  0  0  0  3  0  0  0  0  0  0
   53.3350   30.9020   40.0260 C   0  0  0  0  0  2  0  0  0  0  0  0
   53.8750   29.6230   40.6470 C   0  0  0  0  0  2  0  0  0  0  0  0
  1  6  1  6  0  0  0
  1  5  1  0  0  0  0
  1 16  1  0  0  0  0
  2  8  1  0  0  0  0
  2  1  1  0  0  0  0
  3  4  1  0  0  0  0
  3  2  1  0  0  0  0
  4 11  1  6  0  0  0
  4  5  1  0  0  0  0
  5 13  1  0  0  0  0
  5 12  1  0  0  0  0
  7  2  1  0  0  0  0
  9  3  1  0  0  0  0
 10  3  1  0  0  0  0
 14 20  1  0  0  0  0
 14 19  1  0  0  0  0
 15 14  2  0  0  0  0
 16 15  1  0  0  0  0
 16 17  2  0  0  0  0
 17 18  1  0  0  0  0
 18 19  2  0  0  0  0
 18 22  1  0  0  0  0
 21 15  1  0  0  0  0
 23 26  1  6  0  0  0
 23  4  1  0  0  0  0
 23 24  1  0  0  0  0
 24 28  1  0  0  0  0
 24 27  1  0  0  0  0
 25 29  1  6  0  0  0
 25 23  1  0  0  0  0
 25 24  1  0  0  0  0
 30 25  1  0  0  0  0
 32 31  2  6  0  0  0
 32 30  1  0  0  0  0
 33 34  1  0  0  0  0
 33 32  1  0  0  0  0
 35 32  1  0  0  0  0
 35 40  1  0  0  0  0
 37 36  1  0  0  0  0
 37 42  1  0  0  0  0
 38 37  1  0  0  0  0
 39 38  1  0  0  0  0
 39 40  1  0  0  0  0
 40 41  1  0  0  0  0
 41 42  1  0  0  0  0
M  END
>  <minimizedAffinity>
-5.1259079

>  <minimizedRMSD>
0.663487852

$$$$
