
     RDKit          3D

 35 37  0  0  0  0  0  0  0  0999 V2000
   46.0760   34.1501   41.0039 C   0  0  0  0  0  0  0  0  0  0  0  0
   46.6123   34.8273   42.1089 C   0  0  0  0  0  0  0  0  0  0  0  0
   47.9390   35.2753   41.9862 C   0  0  0  0  0  0  0  0  0  0  0  0
   48.6117   35.0286   40.8208 N   0  0  0  0  0  0  0  0  0  0  0  0
   48.0510   34.3821   39.8085 C   0  0  0  0  0  0  0  0  0  0  0  0
   46.7809   33.9377   39.8901 N   0  0  0  0  0  0  0  0  0  0  0  0
   45.8119   35.0352   43.2962 C   0  0  0  0  0  0  0  0  0  0  0  0
   45.0495   36.1800   43.4963 C   0  0  0  0  0  0  0  0  0  0  0  0
   44.4640   35.9672   44.7233 C   0  0  0  0  0  0  0  0  0  0  0  0
   44.8429   34.7762   45.2354 N   0  0  0  0  0  0  0  0  0  0  0  0
   45.6526   34.2430   44.3518 N   0  0  0  0  0  0  0  0  0  0  0  0
   44.7776   33.7011   41.0992 O   0  0  0  0  0  0  0  0  0  0  0  0
   43.6961   34.1972   40.4212 C   0  0  0  0  0  0  0  0  0  0  0  0
   43.2445   35.3877   40.4211 O   0  0  0  0  0  0  0  0  0  0  0  0
   48.3509   35.7986   42.8423 H   0  0  0  0  0  0  0  0  0  0  0  0
   48.5763   34.1893   38.8982 H   0  0  0  0  0  0  0  0  0  0  0  0
   44.9464   37.0248   42.8450 H   0  0  0  0  0  0  0  0  0  0  0  0
   43.7882   36.6279   45.2487 H   0  0  0  0  0  0  0  0  0  0  0  0
   44.5611   34.3507   46.1436 H   0  0  0  0  0  0  0  0  0  0  0  0
   42.7449   33.5758   39.5212 N   0  0  0  0  0  0  0  0  0  0  0  0
   42.1952   34.4570   38.5106 C   0  0  0  0  0  0  0  0  0  0  0  0
   40.8132   34.8584   39.0416 C   0  0  0  0  0  0  0  0  0  0  0  0
   40.2538   33.6332   39.7690 C   0  0  0  0  0  0  0  0  0  0  0  0
   40.5623   33.7201   40.8194 H   0  0  0  0  0  0  0  0  0  0  0  0
   40.7719   32.3389   39.1578 C   0  0  0  0  0  0  0  0  0  0  0  0
   42.2644   32.1973   39.4891 C   0  0  0  0  0  0  0  0  0  0  0  0
   42.8211   35.3065   38.2470 H   0  0  0  0  0  0  0  0  0  0  0  0
   42.0364   33.8577   37.5663 H   0  0  0  0  0  0  0  0  0  0  0  0
   40.1691   35.1334   38.1857 H   0  0  0  0  0  0  0  0  0  0  0  0
   41.0035   35.6933   39.7504 H   0  0  0  0  0  0  0  0  0  0  0  0
   39.1611   33.6682   39.6666 H   0  0  0  0  0  0  0  0  0  0  0  0
   40.6019   32.3749   38.0685 H   0  0  0  0  0  0  0  0  0  0  0  0
   40.1774   31.5182   39.5565 H   0  0  0  0  0  0  0  0  0  0  0  0
   42.4261   31.6516   40.4235 H   0  0  0  0  0  0  0  0  0  0  0  0
   42.7153   31.7097   38.5955 H   0  0  0  0  0  0  0  0  0  0  0  0
  1 12  1  0
  1  2  1  0
  2  7  1  0
  3  2  2  0
  4  3  1  0
  5  6  1  0
  5  4  2  0
  6  1  2  0
  7  8  1  0
  7 11  2  0
  8  9  2  0
  9 10  1  0
 11 10  1  0
 13 14  2  0
 13 12  1  0
  3 15  1  0
  5 16  1  0
  8 17  1  0
  9 18  1  0
 10 19  1  0
 20 21  1  0
 21 22  1  0
 22 23  1  0
 23 24  1  0
 23 25  1  0
 25 26  1  0
 26 20  1  0
 21 27  1  0
 21 28  1  0
 22 29  1  0
 22 30  1  0
 23 31  1  0
 25 32  1  0
 25 33  1  0
 26 34  1  0
 26 35  1  0
 13 20  1  0
M  ISO  6  15  14  16  14  17  14  18  14  19   9  24  15
M  END
>  <DihAtoms>  (1) 
13,12,19,20

>  <DihDeg>  (1) 
0.04411613907032106

$$$$
