
 OpenBabel03252508503D

 26 28  0  0  0  0  0  0  0  0999 V2000
   45.8660   34.2070   41.0340 C   0  0  0  0  0  0  0  0  0  0  0  0
   46.4840   34.7860   42.1520 C   0  0  0  0  0  0  0  0  0  0  0  0
   47.8520   35.0850   42.0270 C   0  0  0  0  0  0  0  0  0  0  0  0
   48.4840   34.7990   40.8480 N   0  0  0  0  0  0  0  0  0  0  0  0
   47.8450   34.2500   39.8240 C   0  0  0  0  0  0  0  0  0  0  0  0
   46.5340   33.9500   39.9070 N   0  0  0  0  0  0  0  0  0  0  0  0
   48.3280   35.5330   42.8930 H   0  0  0  0  0  0  0  0  0  0  0  0
   48.3380   34.0250   38.9020 H   0  0  0  0  0  0  0  0  0  0  0  0
   45.7220   35.0480   43.3530 C   0  0  0  0  0  0  0  0  0  0  0  0
   45.0790   36.2590   43.5850 C   0  0  0  0  0  0  0  0  0  0  0  0
   44.4890   36.0800   44.8150 C   0  0  0  0  0  0  0  0  0  0  0  0
   44.7550   34.8480   45.3000 N   0  0  0  0  0  0  0  0  0  0  0  0
   45.4980   34.2550   44.3960 N   0  0  0  0  0  0  0  0  0  0  0  0
   45.0510   37.1230   42.9510 H   0  0  0  0  0  0  0  0  0  0  0  0
   43.8880   36.7940   45.3630 H   0  0  0  0  0  0  0  0  0  0  0  0
   44.4430   34.4340   46.2050 H   0  0  0  0  0  0  0  0  0  0  0  0
   44.5260   33.9050   41.1310 O   0  0  0  0  0  0  0  0  0  0  0  0
   43.4930   34.6130   40.5770 C   0  0  0  0  0  0  0  0  0  0  0  0
   43.2470   35.8590   40.6800 O   0  0  0  0  0  0  0  0  0  0  0  0
   42.3850   34.2160   39.7320 N   0  0  0  0  0  0  0  0  0  0  0  0
   41.6940   35.3070   39.0770 C   0  0  0  0  0  2  0  0  0  0  0  0
   40.4350   35.5450   39.9210 C   0  0  0  0  0  2  0  0  0  0  0  0
   39.9750   34.1700   40.4140 C   0  0  0  0  0  3  0  0  0  0  0  0
   40.4620   34.0040   41.3840 H   0  0  0  0  0  0  0  0  0  0  0  0
   40.3470   33.0730   39.4260 C   0  0  0  0  0  2  0  0  0  0  0  0
   41.8690   32.8790   39.4500 C   0  0  0  0  0  2  0  0  0  0  0  0
  1 17  1  0  0  0  0
  1  2  1  0  0  0  0
  2  9  1  0  0  0  0
  3  2  2  0  0  0  0
  3  7  1  0  0  0  0
  4  3  1  0  0  0  0
  5  6  1  0  0  0  0
  5  4  2  0  0  0  0
  6  1  2  0  0  0  0
  8  5  1  0  0  0  0
  9 10  1  0  0  0  0
  9 13  2  0  0  0  0
 10 11  2  0  0  0  0
 11 12  1  0  0  0  0
 11 15  1  0  0  0  0
 12 16  1  0  0  0  0
 13 12  1  0  0  0  0
 14 10  1  0  0  0  0
 18 19  2  0  0  0  0
 18 17  1  0  0  0  0
 20 18  1  0  0  0  0
 21 20  1  0  0  0  0
 21 22  1  0  0  0  0
 22 23  1  0  0  0  0
 23 24  1  0  0  0  0
 25 26  1  0  0  0  0
 25 23  1  0  0  0  0
 26 20  1  0  0  0  0
M  END
>  <minimizedAffinity>
-5.81522369

>  <minimizedRMSD>
0.601043046

$$$$
