
 OpenBabel03252508503D

 26 28  0  0  0  0  0  0  0  0999 V2000
   45.6450   34.0520   41.2080 C   0  0  0  0  0  0  0  0  0  0  0  0
   46.3040   34.6310   42.3020 C   0  0  0  0  0  0  0  0  0  0  0  0
   47.6500   34.9880   42.1050 C   0  0  0  0  0  0  0  0  0  0  0  0
   48.2220   34.7540   40.8850 N   0  0  0  0  0  0  0  0  0  0  0  0
   47.5470   34.2020   39.8870 C   0  0  0  0  0  0  0  0  0  0  0  0
   46.2550   33.8470   40.0380 N   0  0  0  0  0  0  0  0  0  0  0  0
   48.1570   35.4360   42.9530 H   0  0  0  0  0  0  0  0  0  0  0  0
   47.9930   34.0190   38.9330 H   0  0  0  0  0  0  0  0  0  0  0  0
   45.6040   34.8340   43.5510 C   0  0  0  0  0  0  0  0  0  0  0  0
   44.9850   36.0350   43.8770 C   0  0  0  0  0  0  0  0  0  0  0  0
   44.4540   35.7960   45.1240 C   0  0  0  0  0  0  0  0  0  0  0  0
   44.7310   34.5380   45.5300 N   0  0  0  0  0  0  0  0  0  0  0  0
   45.4230   33.9890   44.5610 N   0  0  0  0  0  0  0  0  0  0  0  0
   44.9360   36.9320   43.2920 H   0  0  0  0  0  0  0  0  0  0  0  0
   43.8870   36.4840   45.7370 H   0  0  0  0  0  0  0  0  0  0  0  0
   44.4590   34.0800   46.4250 H   0  0  0  0  0  0  0  0  0  0  0  0
   44.3270   33.6930   41.3740 O   0  0  0  0  0  0  0  0  0  0  0  0
   43.2320   34.4330   41.0140 C   0  0  0  0  0  0  0  0  0  0  0  0
   43.1620   35.6890   40.8130 O   0  0  0  0  0  0  0  0  0  0  0  0
   41.8550   34.0670   40.7500 N   0  0  0  0  0  0  0  0  0  0  0  0
   41.6710   33.1220   39.6670 C   0  0  0  0  0  2  0  0  0  0  0  0
   41.2480   33.9750   38.4640 C   0  0  0  0  0  2  0  0  0  0  0  0
   40.3780   35.1060   39.0150 C   0  0  0  0  0  3  0  0  0  0  0  0
   41.0510   35.9460   39.2350 H   0  0  0  0  0  0  0  0  0  0  0  0
   39.6290   34.6720   40.2670 C   0  0  0  0  0  2  0  0  0  0  0  0
   40.6350   34.5130   41.4170 C   0  0  0  0  0  2  0  0  0  0  0  0
  1 17  1  0  0  0  0
  1  2  1  0  0  0  0
  2  9  1  0  0  0  0
  3  2  2  0  0  0  0
  3  7  1  0  0  0  0
  4  3  1  0  0  0  0
  5  6  1  0  0  0  0
  5  4  2  0  0  0  0
  6  1  2  0  0  0  0
  8  5  1  0  0  0  0
  9 10  1  0  0  0  0
  9 13  2  0  0  0  0
 10 11  2  0  0  0  0
 11 12  1  0  0  0  0
 11 15  1  0  0  0  0
 12 16  1  0  0  0  0
 13 12  1  0  0  0  0
 14 10  1  0  0  0  0
 18 17  1  0  0  0  0
 19 18  2  0  0  0  0
 20 18  1  0  0  0  0
 20 26  1  0  0  0  0
 21 20  1  0  0  0  0
 22 23  1  0  0  0  0
 22 21  1  0  0  0  0
 23 24  1  0  0  0  0
 23 25  1  0  0  0  0
 25 26  1  0  0  0  0
M  END
>  <minimizedAffinity>
-5.91086721

>  <minimizedRMSD>
1.24241352

$$$$
