
 OpenBabel03252508003D

 27 29  0  0  1  0  0  0  0  0999 V2000
   46.2650   34.8220   43.2380 C   0  0  0  0  0  0  0  0  0  0  0  0
   45.3170   35.8450   43.5300 C   0  0  0  0  0  0  0  0  0  0  0  0
   44.6180   35.7030   44.7250 C   0  0  0  0  0  0  0  0  0  0  0  0
   44.8790   34.6280   45.5150 N   0  0  0  0  0  0  0  0  0  0  0  0
   45.8030   33.6860   45.1720 C   0  0  0  0  0  0  0  0  0  0  0  0
   46.5000   33.7580   44.0560 N   0  0  0  0  0  0  0  0  0  0  0  0
   45.1850   36.6600   42.8310 H   0  0  0  0  0  0  0  0  0  0  0  0
   43.8890   36.4560   44.9840 H   0  0  0  0  0  0  0  0  0  0  0  0
   46.9980   34.9860   42.0000 C   0  0  0  0  0  0  0  0  0  0  0  0
   48.0800   35.6640   41.9100 O   0  0  0  0  0  0  0  0  0  0  0  0
   46.4470   34.3400   40.8420 N   0  0  0  0  0  0  0  0  0  0  0  0
   45.0270   34.0780   40.5910 C   0  0  0  0  0  0  0  0  0  0  0  0
   44.8810   32.5780   40.4760 C   0  0  0  0  0  0  0  0  0  0  0  0
   45.6940   32.0760   39.3200 C   0  0  0  0  0  0  0  0  0  0  0  0
   44.9890   31.8110   38.4810 H   0  0  0  0  0  0  0  0  0  0  0  0
   46.6320   33.0990   38.7620 C   0  0  0  0  0  0  0  0  0  0  0  0
   47.3740   33.8890   39.7960 C   0  0  0  0  0  0  0  0  0  0  0  0
   46.0320   32.5450   46.1080 C   0  0  1  0  0  0  0  0  0  0  0  0
   46.8320   32.7790   47.3690 C   0  0  0  0  0  0  0  0  0  0  0  0
   45.3350   32.6620   47.4070 C   0  0  1  0  0  0  0  0  0  0  0  0
   46.1410   31.5810   45.6050 H   0  0  0  0  0  0  0  0  0  0  0  0
   47.3910   31.8880   47.7170 H   0  0  0  0  0  0  0  0  0  0  0  0
   47.3280   33.7480   47.4150 H   0  0  0  0  0  0  0  0  0  0  0  0
   44.9140   31.7680   47.8970 H   0  0  0  0  0  0  0  0  0  0  0  0
   44.6980   33.9340   47.7650 N   0  0  0  0  0  0  0  0  0  0  0  0
   45.3780   34.7200   47.8480 H   0  0  0  0  0  0  0  0  0  0  0  0
   44.2170   33.8190   48.6640 H   0  0  0  0  0  0  0  0  0  0  0  0
  1  2  2  0  0  0  0
  1  6  1  0  0  0  0
  2  3  1  0  0  0  0
  3  8  1  0  0  0  0
  3  4  2  0  0  0  0
  5  4  1  0  0  0  0
  5 18  1  0  0  0  0
  6  5  2  0  0  0  0
  7  2  1  0  0  0  0
  9  1  1  0  0  0  0
 10  9  2  0  0  0  0
 11  9  1  0  0  0  0
 12 11  1  0  0  0  0
 13 12  1  0  0  0  0
 14 13  1  0  0  0  0
 15 14  1  0  0  0  0
 16 14  1  0  0  0  0
 16 17  1  0  0  0  0
 17 11  1  0  0  0  0
 18 21  1  6  0  0  0
 18 19  1  0  0  0  0
 18 20  1  0  0  0  0
 19 20  1  0  0  0  0
 19 23  1  0  0  0  0
 19 22  1  0  0  0  0
 20 25  1  0  0  0  0
 20 24  1  1  0  0  0
 25 26  1  0  0  0  0
 25 27  1  0  0  0  0
M  END
>  <minimizedAffinity>
-5.71935034

>  <minimizedRMSD>
0.336091608

$$$$
