
     RDKit          3D

 35 37  0  0  0  0  0  0  0  0999 V2000
   46.0760   34.1501   41.0039 C   0  0  0  0  0  0  0  0  0  0  0  0
   46.6123   34.8273   42.1089 C   0  0  0  0  0  0  0  0  0  0  0  0
   47.9390   35.2753   41.9862 C   0  0  0  0  0  0  0  0  0  0  0  0
   48.6117   35.0286   40.8208 N   0  0  0  0  0  0  0  0  0  0  0  0
   48.0510   34.3821   39.8085 C   0  0  0  0  0  0  0  0  0  0  0  0
   46.7809   33.9377   39.8901 N   0  0  0  0  0  0  0  0  0  0  0  0
   45.8119   35.0352   43.2962 C   0  0  0  0  0  0  0  0  0  0  0  0
   45.0495   36.1800   43.4963 C   0  0  0  0  0  0  0  0  0  0  0  0
   44.4640   35.9672   44.7233 C   0  0  0  0  0  0  0  0  0  0  0  0
   44.8429   34.7762   45.2354 N   0  0  0  0  0  0  0  0  0  0  0  0
   45.6526   34.2430   44.3518 N   0  0  0  0  0  0  0  0  0  0  0  0
   44.7776   33.7011   41.0992 O   0  0  0  0  0  0  0  0  0  0  0  0
   43.6961   34.1972   40.4212 C   0  0  0  0  0  0  0  0  0  0  0  0
   43.2445   35.3877   40.4211 O   0  0  0  0  0  0  0  0  0  0  0  0
   48.3509   35.7986   42.8423 H   0  0  0  0  0  0  0  0  0  0  0  0
   48.5763   34.1893   38.8982 H   0  0  0  0  0  0  0  0  0  0  0  0
   44.9464   37.0248   42.8450 H   0  0  0  0  0  0  0  0  0  0  0  0
   43.7882   36.6279   45.2487 H   0  0  0  0  0  0  0  0  0  0  0  0
   44.5611   34.3507   46.1436 H   0  0  0  0  0  0  0  0  0  0  0  0
   42.7449   33.5758   39.5212 N   0  0  0  0  0  0  0  0  0  0  0  0
   43.3298   32.7073   38.5194 C   0  0  0  0  0  0  0  0  0  0  0  0
   43.3737   33.5503   37.2386 C   0  0  0  0  0  0  0  0  0  0  0  0
   42.1184   34.4262   37.2508 C   0  0  0  0  0  0  0  0  0  0  0  0
   42.3925   35.3658   37.7487 H   0  0  0  0  0  0  0  0  0  0  0  0
   40.9701   33.7423   37.9794 C   0  0  0  0  0  0  0  0  0  0  0  0
   41.2906   33.7005   39.4804 C   0  0  0  0  0  0  0  0  0  0  0  0
   44.2915   32.2749   38.7861 H   0  0  0  0  0  0  0  0  0  0  0  0
   42.6198   31.8478   38.3373 H   0  0  0  0  0  0  0  0  0  0  0  0
   43.3690   32.8716   36.3654 H   0  0  0  0  0  0  0  0  0  0  0  0
   44.2941   34.1674   37.3261 H   0  0  0  0  0  0  0  0  0  0  0  0
   41.8321   34.5944   36.2041 H   0  0  0  0  0  0  0  0  0  0  0  0
   40.8486   32.7275   37.5643 H   0  0  0  0  0  0  0  0  0  0  0  0
   40.0582   34.2971   37.7639 H   0  0  0  0  0  0  0  0  0  0  0  0
   40.9082   34.5813   40.0050 H   0  0  0  0  0  0  0  0  0  0  0  0
   40.8649   32.7373   39.8417 H   0  0  0  0  0  0  0  0  0  0  0  0
  1 12  1  0
  1  2  1  0
  2  7  1  0
  3  2  2  0
  4  3  1  0
  5  6  1  0
  5  4  2  0
  6  1  2  0
  7  8  1  0
  7 11  2  0
  8  9  2  0
  9 10  1  0
 11 10  1  0
 13 14  2  0
 13 12  1  0
  3 15  1  0
  5 16  1  0
  8 17  1  0
  9 18  1  0
 10 19  1  0
 20 21  1  0
 21 22  1  0
 22 23  1  0
 23 24  1  0
 23 25  1  0
 25 26  1  0
 26 20  1  0
 21 27  1  0
 21 28  1  0
 22 29  1  0
 22 30  1  0
 23 31  1  0
 25 32  1  0
 25 33  1  0
 26 34  1  0
 26 35  1  0
 13 20  1  0
M  ISO  6  15  14  16  14  17  14  18  14  19   9  24  15
M  END
>  <DihAtoms>  (1) 
13,12,19,20

>  <DihDeg>  (1) 
0.04411613907032106

$$$$
