
 OpenBabel03252503103D

 25 27  0  0  0  0  0  0  0  0999 V2000
   36.5770   28.8870   38.9880 C   0  0  0  0  0  0  0  0  0  0  0  0
   37.1370   30.0090   39.6400 C   0  0  0  0  0  0  0  0  0  0  0  0
   37.9500   30.7990   38.8560 C   0  0  0  0  0  0  0  0  0  0  0  0
   38.1930   30.5170   37.5640 N   0  0  0  0  0  0  0  0  0  0  0  0
   37.6240   29.4150   36.9850 C   0  0  0  0  0  0  0  0  0  0  0  0
   36.8260   28.6170   37.6980 N   0  0  0  0  0  0  0  0  0  0  0  0
   35.9260   28.2330   39.5660 H   0  0  0  0  0  0  0  0  0  0  0  0
   37.8580   29.2450   35.9450 H   0  0  0  0  0  0  0  0  0  0  0  0
   36.8260   30.2210   41.0020 C   0  0  0  0  0  0  0  0  0  0  0  0
   35.9130   31.1410   41.1630 O   0  0  0  0  0  0  0  0  0  0  0  0
   37.5870   29.3930   41.9370 N   0  0  0  0  0  0  0  0  0  0  0  0
   38.8690   29.6570   42.5730 C   0  0  0  0  0  2  0  0  0  0  0  0
   39.7300   28.3890   42.5590 C   0  0  0  0  0  2  0  0  0  0  0  0
   39.1470   27.3790   43.4890 C   0  0  0  0  0  3  0  0  0  0  0  0
   39.5970   27.5190   44.4940 H   0  0  0  0  0  0  0  0  0  0  0  0
   37.6700   27.7130   43.6620 C   0  0  0  0  0  2  0  0  0  0  0  0
   37.0620   28.0980   42.3420 C   0  0  0  0  0  2  0  0  0  0  0  0
   38.5300   31.9310   39.4130 C   0  0  0  0  0  0  0  0  0  0  0  0
   38.1110   33.1990   39.6740 C   0  0  0  0  0  0  0  0  0  0  0  0
   38.8460   34.1530   40.2080 C   0  0  0  0  0  0  0  0  0  0  0  0
   40.1380   33.8000   40.5160 C   0  0  0  0  0  0  0  0  0  0  0  0
   40.2120   32.0230   39.9870 S   0  0  0  0  0  0  0  0  0  0  0  0
   37.1450   33.6450   39.5500 H   0  0  0  0  0  0  0  0  0  0  0  0
   38.8130   35.1740   40.5140 H   0  0  0  0  0  0  0  0  0  0  0  0
   41.0870   34.1300   40.9250 H   0  0  0  0  0  0  0  0  0  0  0  0
  1  7  1  0  0  0  0
  1  2  1  0  0  0  0
  2  9  1  0  0  0  0
  3 18  1  0  0  0  0
  3  2  2  0  0  0  0
  4  3  1  0  0  0  0
  5  4  2  0  0  0  0
  5  6  1  0  0  0  0
  6  1  2  0  0  0  0
  8  5  1  0  0  0  0
  9 10  2  0  0  0  0
  9 11  1  0  0  0  0
 11 17  1  0  0  0  0
 11 12  1  0  0  0  0
 13 12  1  0  0  0  0
 13 14  1  0  0  0  0
 14 16  1  0  0  0  0
 14 15  1  0  0  0  0
 17 16  1  0  0  0  0
 18 19  2  0  0  0  0
 18 22  1  0  0  0  0
 19 20  1  0  0  0  0
 20 24  1  0  0  0  0
 20 21  2  0  0  0  0
 21 25  1  0  0  0  0
 22 21  1  0  0  0  0
 23 19  1  0  0  0  0
M  END
>  <minimizedAffinity>
-5.10201836

$$$$

 OpenBabel03252503103D

 25 27  0  0  0  0  0  0  0  0999 V2000
   39.2090   31.7310   41.3540 C   0  0  0  0  0  0  0  0  0  0  0  0
   38.2950   30.9460   40.6150 C   0  0  0  0  0  0  0  0  0  0  0  0
   38.5710   30.8330   39.2700 C   0  0  0  0  0  0  0  0  0  0  0  0
   39.6360   31.4290   38.7040 N   0  0  0  0  0  0  0  0  0  0  0  0
   40.4880   32.1780   39.4700 C   0  0  0  0  0  0  0  0  0  0  0  0
   40.2670   32.3190   40.7790 N   0  0  0  0  0  0  0  0  0  0  0  0
   39.0320   31.8490   42.4220 H   0  0  0  0  0  0  0  0  0  0  0  0
   41.3240   32.6300   38.9560 H   0  0  0  0  0  0  0  0  0  0  0  0
   37.2030   30.3620   41.2970 C   0  0  0  0  0  0  0  0  0  0  0  0
   36.1170   31.0800   41.1960 O   0  0  0  0  0  0  0  0  0  0  0  0
   37.5110   29.1020   41.9740 N   0  0  0  0  0  0  0  0  0  0  0  0
   37.9960   28.8760   43.3270 C   0  0  0  0  0  2  0  0  0  0  0  0
   39.0800   27.7920   43.3180 C   0  0  0  0  0  2  0  0  0  0  0  0
   38.4630   26.4700   43.0060 C   0  0  0  0  0  3  0  0  0  0  0  0
   38.1650   25.9830   43.9580 H   0  0  0  0  0  0  0  0  0  0  0  0
   37.1570   26.7380   42.2670 C   0  0  0  0  0  2  0  0  0  0  0  0
   37.3390   27.8430   41.2650 C   0  0  0  0  0  2  0  0  0  0  0  0
   37.7320   30.0670   38.4710 C   0  0  0  0  0  0  0  0  0  0  0  0
   36.4600   30.1960   38.0080 C   0  0  0  0  0  0  0  0  0  0  0  0
   35.8270   29.3210   37.2530 C   0  0  0  0  0  0  0  0  0  0  0  0
   36.5460   28.1960   36.9260 C   0  0  0  0  0  0  0  0  0  0  0  0
   38.1710   28.4900   37.7710 S   0  0  0  0  0  0  0  0  0  0  0  0
   35.7670   31.0060   38.1150 H   0  0  0  0  0  0  0  0  0  0  0  0
   34.8960   29.1430   36.7650 H   0  0  0  0  0  0  0  0  0  0  0  0
   36.5430   27.2500   36.3950 H   0  0  0  0  0  0  0  0  0  0  0  0
  1  7  1  0  0  0  0
  2  9  1  0  0  0  0
  2  1  2  0  0  0  0
  3  2  1  0  0  0  0
  4  3  2  0  0  0  0
  4  5  1  0  0  0  0
  5  6  2  0  0  0  0
  6  1  1  0  0  0  0
  8  5  1  0  0  0  0
  9 11  1  0  0  0  0
 10  9  2  0  0  0  0
 11 12  1  0  0  0  0
 13 12  1  0  0  0  0
 14 13  1  0  0  0  0
 14 15  1  0  0  0  0
 16 14  1  0  0  0  0
 17 11  1  0  0  0  0
 17 16  1  0  0  0  0
 18  3  1  0  0  0  0
 19 23  1  0  0  0  0
 19 18  2  0  0  0  0
 20 19  1  0  0  0  0
 21 20  2  0  0  0  0
 21 22  1  0  0  0  0
 22 18  1  0  0  0  0
 24 20  1  0  0  0  0
 25 21  1  0  0  0  0
M  END
>  <minimizedAffinity>
-4.94935894

$$$$

 OpenBabel03252503103D

 25 27  0  0  0  0  0  0  0  0999 V2000
   39.4150   27.5730   43.1030 C   0  0  0  0  0  0  0  0  0  0  0  0
   38.2160   27.6560   42.3590 C   0  0  0  0  0  0  0  0  0  0  0  0
   38.1760   28.6630   41.4190 C   0  0  0  0  0  0  0  0  0  0  0  0
   39.2070   29.5050   41.2270 N   0  0  0  0  0  0  0  0  0  0  0  0
   40.3450   29.3780   41.9770 C   0  0  0  0  0  0  0  0  0  0  0  0
   40.4360   28.4180   42.9010 N   0  0  0  0  0  0  0  0  0  0  0  0
   39.4930   26.7920   43.8570 H   0  0  0  0  0  0  0  0  0  0  0  0
   41.1350   30.0840   41.7750 H   0  0  0  0  0  0  0  0  0  0  0  0
   37.1860   26.7280   42.6340 C   0  0  0  0  0  0  0  0  0  0  0  0
   36.3080   27.2000   43.4770 O   0  0  0  0  0  0  0  0  0  0  0  0
   37.3190   25.4470   41.9410 N   0  0  0  0  0  0  0  0  0  0  0  0
   38.0110   24.2370   42.3610 C   0  0  0  0  0  2  0  0  0  0  0  0
   38.7760   23.6360   41.1760 C   0  0  0  0  0  2  0  0  0  0  0  0
   37.8080   23.0870   40.1830 C   0  0  0  0  0  3  0  0  0  0  0  0
   37.6100   22.0230   40.4290 H   0  0  0  0  0  0  0  0  0  0  0  0
   36.4790   23.8010   40.3960 C   0  0  0  0  0  2  0  0  0  0  0  0
   36.7040   25.2680   40.6350 C   0  0  0  0  0  2  0  0  0  0  0  0
   37.0410   28.8070   40.6320 C   0  0  0  0  0  0  0  0  0  0  0  0
   35.7520   29.1790   40.8590 C   0  0  0  0  0  0  0  0  0  0  0  0
   34.8010   29.2360   39.9490 C   0  0  0  0  0  0  0  0  0  0  0  0
   35.1810   28.8830   38.6760 C   0  0  0  0  0  0  0  0  0  0  0  0
   36.9770   28.4720   38.8850 S   0  0  0  0  0  0  0  0  0  0  0  0
   35.2830   29.5270   41.7560 H   0  0  0  0  0  0  0  0  0  0  0  0
   33.7690   29.4690   39.8200 H   0  0  0  0  0  0  0  0  0  0  0  0
   34.8630   28.7550   37.6460 H   0  0  0  0  0  0  0  0  0  0  0  0
  1  7  1  0  0  0  0
  2  9  1  0  0  0  0
  2  1  2  0  0  0  0
  3  2  1  0  0  0  0
  4  3  2  0  0  0  0
  4  5  1  0  0  0  0
  5  6  2  0  0  0  0
  6  1  1  0  0  0  0
  8  5  1  0  0  0  0
  9 10  2  0  0  0  0
 11 12  1  0  0  0  0
 11  9  1  0  0  0  0
 13 12  1  0  0  0  0
 14 16  1  0  0  0  0
 14 15  1  0  0  0  0
 14 13  1  0  0  0  0
 16 17  1  0  0  0  0
 17 11  1  0  0  0  0
 18 19  2  0  0  0  0
 18  3  1  0  0  0  0
 19 23  1  0  0  0  0
 20 19  1  0  0  0  0
 21 22  1  0  0  0  0
 21 20  2  0  0  0  0
 22 18  1  0  0  0  0
 24 20  1  0  0  0  0
 25 21  1  0  0  0  0
M  END
>  <minimizedAffinity>
-4.94750023

$$$$

 OpenBabel03252503103D

 25 27  0  0  0  0  0  0  0  0999 V2000
   38.3790   27.9260   38.1500 C   0  0  0  0  0  0  0  0  0  0  0  0
   37.9870   29.1420   38.7550 C   0  0  0  0  0  0  0  0  0  0  0  0
   38.8230   30.2120   38.5200 C   0  0  0  0  0  0  0  0  0  0  0  0
   39.9330   30.1020   37.7690 N   0  0  0  0  0  0  0  0  0  0  0  0
   40.2630   28.8990   37.2060 C   0  0  0  0  0  0  0  0  0  0  0  0
   39.4880   27.8300   37.4020 N   0  0  0  0  0  0  0  0  0  0  0  0
   37.7490   27.0520   38.3070 H   0  0  0  0  0  0  0  0  0  0  0  0
   41.1660   28.8770   36.6140 H   0  0  0  0  0  0  0  0  0  0  0  0
   36.8060   29.1580   39.5320 C   0  0  0  0  0  0  0  0  0  0  0  0
   35.7540   29.4710   38.8230 O   0  0  0  0  0  0  0  0  0  0  0  0
   37.0010   28.8400   40.9460 N   0  0  0  0  0  0  0  0  0  0  0  0
   37.3010   29.7270   42.0590 C   0  0  0  0  0  2  0  0  0  0  0  0
   38.3580   29.0880   42.9670 C   0  0  0  0  0  2  0  0  0  0  0  0
   37.7650   27.9190   43.6790 C   0  0  0  0  0  3  0  0  0  0  0  0
   37.3360   28.2680   44.6410 H   0  0  0  0  0  0  0  0  0  0  0  0
   36.5730   27.4400   42.8590 C   0  0  0  0  0  2  0  0  0  0  0  0
   36.9030   27.4590   41.3930 C   0  0  0  0  0  2  0  0  0  0  0  0
   38.5050   31.4490   39.0650 C   0  0  0  0  0  0  0  0  0  0  0  0
   37.5350   32.3770   38.8460 C   0  0  0  0  0  0  0  0  0  0  0  0
   37.4180   33.5250   39.4810 C   0  0  0  0  0  0  0  0  0  0  0  0
   38.3740   33.7700   40.4380 C   0  0  0  0  0  0  0  0  0  0  0  0
   39.4330   32.2500   40.3550 S   0  0  0  0  0  0  0  0  0  0  0  0
   36.6910   32.3500   38.1880 H   0  0  0  0  0  0  0  0  0  0  0  0
   36.8160   34.4040   39.5350 H   0  0  0  0  0  0  0  0  0  0  0  0
   38.7390   34.4660   41.1870 H   0  0  0  0  0  0  0  0  0  0  0  0
  1  7  1  0  0  0  0
  1  2  1  0  0  0  0
  2  9  1  0  0  0  0
  3  2  2  0  0  0  0
  3 18  1  0  0  0  0
  4  3  1  0  0  0  0
  5  6  1  0  0  0  0
  5  4  2  0  0  0  0
  6  1  2  0  0  0  0
  8  5  1  0  0  0  0
  9 11  1  0  0  0  0
 10  9  2  0  0  0  0
 11 17  1  0  0  0  0
 11 12  1  0  0  0  0
 12 13  1  0  0  0  0
 13 14  1  0  0  0  0
 14 15  1  0  0  0  0
 16 14  1  0  0  0  0
 17 16  1  0  0  0  0
 18 22  1  0  0  0  0
 19 18  2  0  0  0  0
 19 20  1  0  0  0  0
 20 24  1  0  0  0  0
 20 21  2  0  0  0  0
 21 25  1  0  0  0  0
 22 21  1  0  0  0  0
 23 19  1  0  0  0  0
M  END
>  <minimizedAffinity>
-4.93846369

$$$$

 OpenBabel03252503103D

 25 27  0  0  0  0  0  0  0  0999 V2000
   39.1820   31.7980   40.6250 C   0  0  0  0  0  0  0  0  0  0  0  0
   38.4970   30.7870   39.9140 C   0  0  0  0  0  0  0  0  0  0  0  0
   37.3960   31.2120   39.2030 C   0  0  0  0  0  0  0  0  0  0  0  0
   37.0030   32.4970   39.1920 N   0  0  0  0  0  0  0  0  0  0  0  0
   37.7050   33.4350   39.9010 C   0  0  0  0  0  0  0  0  0  0  0  0
   38.7810   33.0770   40.6050 N   0  0  0  0  0  0  0  0  0  0  0  0
   40.0610   31.5100   41.2010 H   0  0  0  0  0  0  0  0  0  0  0  0
   37.3390   34.4490   39.8500 H   0  0  0  0  0  0  0  0  0  0  0  0
   38.9840   29.4610   39.9890 C   0  0  0  0  0  0  0  0  0  0  0  0
   39.7890   29.1740   39.0020 O   0  0  0  0  0  0  0  0  0  0  0  0
   38.4840   28.6930   41.1290 N   0  0  0  0  0  0  0  0  0  0  0  0
   37.2910   27.8650   41.2330 C   0  0  0  0  0  2  0  0  0  0  0  0
   36.6030   28.1090   42.5810 C   0  0  0  0  0  2  0  0  0  0  0  0
   37.4430   27.5480   43.6800 C   0  0  0  0  0  3  0  0  0  0  0  0
   37.1380   26.4970   43.8590 H   0  0  0  0  0  0  0  0  0  0  0  0
   38.8750   27.4670   43.1660 C   0  0  0  0  0  2  0  0  0  0  0  0
   39.2220   28.7030   42.3830 C   0  0  0  0  0  2  0  0  0  0  0  0
   36.6720   30.2860   38.4630 C   0  0  0  0  0  0  0  0  0  0  0  0
   35.5850   29.5020   38.6980 C   0  0  0  0  0  0  0  0  0  0  0  0
   35.0520   28.6570   37.8390 C   0  0  0  0  0  0  0  0  0  0  0  0
   35.6730   28.5890   36.6140 C   0  0  0  0  0  0  0  0  0  0  0  0
   37.0560   29.8130   36.7900 S   0  0  0  0  0  0  0  0  0  0  0  0
   34.9490   29.4460   39.5570 H   0  0  0  0  0  0  0  0  0  0  0  0
   34.2610   27.9500   37.7300 H   0  0  0  0  0  0  0  0  0  0  0  0
   35.6760   28.1280   35.6320 H   0  0  0  0  0  0  0  0  0  0  0  0
  1  7  1  0  0  0  0
  2  9  1  0  0  0  0
  2  1  2  0  0  0  0
  3  2  1  0  0  0  0
  4  3  2  0  0  0  0
  4  5  1  0  0  0  0
  5  6  2  0  0  0  0
  6  1  1  0  0  0  0
  8  5  1  0  0  0  0
  9 11  1  0  0  0  0
 10  9  2  0  0  0  0
 11 12  1  0  0  0  0
 11 17  1  0  0  0  0
 12 13  1  0  0  0  0
 13 14  1  0  0  0  0
 14 15  1  0  0  0  0
 16 14  1  0  0  0  0
 17 16  1  0  0  0  0
 18 19  2  0  0  0  0
 18  3  1  0  0  0  0
 19 23  1  0  0  0  0
 20 19  1  0  0  0  0
 21 22  1  0  0  0  0
 21 20  2  0  0  0  0
 22 18  1  0  0  0  0
 24 20  1  0  0  0  0
 25 21  1  0  0  0  0
M  END
>  <minimizedAffinity>
-4.89149809

$$$$

 OpenBabel03252503103D

 25 27  0  0  0  0  0  0  0  0999 V2000
   38.8230   30.2560   42.5330 C   0  0  0  0  0  0  0  0  0  0  0  0
   38.6290   28.8570   42.4970 C   0  0  0  0  0  0  0  0  0  0  0  0
   39.7830   28.1040   42.4590 C   0  0  0  0  0  0  0  0  0  0  0  0
   41.0040   28.6660   42.4550 N   0  0  0  0  0  0  0  0  0  0  0  0
   41.1320   30.0290   42.4900 C   0  0  0  0  0  0  0  0  0  0  0  0
   40.0460   30.8040   42.5290 N   0  0  0  0  0  0  0  0  0  0  0  0
   37.9400   30.8920   42.5650 H   0  0  0  0  0  0  0  0  0  0  0  0
   42.1390   30.4170   42.4850 H   0  0  0  0  0  0  0  0  0  0  0  0
   37.3060   28.3590   42.5020 C   0  0  0  0  0  0  0  0  0  0  0  0
   36.9480   27.9190   43.6780 O   0  0  0  0  0  0  0  0  0  0  0  0
   36.6250   28.4250   41.2090 N   0  0  0  0  0  0  0  0  0  0  0  0
   36.5930   27.4470   40.1310 C   0  0  0  0  0  2  0  0  0  0  0  0
   36.7430   28.1550   38.7790 C   0  0  0  0  0  2  0  0  0  0  0  0
   35.5120   28.9460   38.4900 C   0  0  0  0  0  3  0  0  0  0  0  0
   34.8000   28.3050   37.9310 H   0  0  0  0  0  0  0  0  0  0  0  0
   34.8290   29.2340   39.8220 C   0  0  0  0  0  2  0  0  0  0  0  0
   35.8480   29.6050   40.8640 C   0  0  0  0  0  2  0  0  0  0  0  0
   39.6850   26.7190   42.4380 C   0  0  0  0  0  0  0  0  0  0  0  0
   39.6520   25.7410   43.3830 C   0  0  0  0  0  0  0  0  0  0  0  0
   39.5680   24.4480   43.1430 C   0  0  0  0  0  0  0  0  0  0  0  0
   39.5110   24.0970   41.8150 C   0  0  0  0  0  0  0  0  0  0  0  0
   39.5850   25.7390   40.9550 S   0  0  0  0  0  0  0  0  0  0  0  0
   39.6390   25.8150   44.4510 H   0  0  0  0  0  0  0  0  0  0  0  0
   39.5270   23.5000   43.6290 H   0  0  0  0  0  0  0  0  0  0  0  0
   39.4430   23.2810   41.1030 H   0  0  0  0  0  0  0  0  0  0  0  0
  1  7  1  0  0  0  0
  2  9  1  0  0  0  0
  2  1  2  0  0  0  0
  3  2  1  0  0  0  0
  4  3  2  0  0  0  0
  4  5  1  0  0  0  0
  5  6  2  0  0  0  0
  6  1  1  0  0  0  0
  8  5  1  0  0  0  0
  9 10  2  0  0  0  0
 11  9  1  0  0  0  0
 12 11  1  0  0  0  0
 13 12  1  0  0  0  0
 14 13  1  0  0  0  0
 14 16  1  0  0  0  0
 15 14  1  0  0  0  0
 16 17  1  0  0  0  0
 17 11  1  0  0  0  0
 18  3  1  0  0  0  0
 18 19  2  0  0  0  0
 19 23  1  0  0  0  0
 20 19  1  0  0  0  0
 20 24  1  0  0  0  0
 21 20  2  0  0  0  0
 22 21  1  0  0  0  0
 22 18  1  0  0  0  0
 25 21  1  0  0  0  0
M  END
>  <minimizedAffinity>
-4.77143526

$$$$

 OpenBabel03252503103D

 25 27  0  0  0  0  0  0  0  0999 V2000
   38.0100   28.3370   38.2330 C   0  0  0  0  0  0  0  0  0  0  0  0
   38.5220   29.4080   38.9990 C   0  0  0  0  0  0  0  0  0  0  0  0
   38.1680   30.6660   38.5620 C   0  0  0  0  0  0  0  0  0  0  0  0
   37.3910   30.8560   37.4810 N   0  0  0  0  0  0  0  0  0  0  0  0
   36.9220   29.7800   36.7770 C   0  0  0  0  0  0  0  0  0  0  0  0
   37.2340   28.5400   37.1580 N   0  0  0  0  0  0  0  0  0  0  0  0
   38.2620   27.3240   38.5410 H   0  0  0  0  0  0  0  0  0  0  0  0
   36.3030   30.0000   35.9200 H   0  0  0  0  0  0  0  0  0  0  0  0
   39.3350   29.1100   40.1170 C   0  0  0  0  0  0  0  0  0  0  0  0
   40.5940   29.3770   39.8980 O   0  0  0  0  0  0  0  0  0  0  0  0
   38.6140   28.5590   41.2640 N   0  0  0  0  0  0  0  0  0  0  0  0
   38.3090   27.1730   41.5850 C   0  0  0  0  0  2  0  0  0  0  0  0
   36.8700   27.0610   42.1030 C   0  0  0  0  0  2  0  0  0  0  0  0
   36.7720   27.6980   43.4480 C   0  0  0  0  0  3  0  0  0  0  0  0
   36.9740   26.9290   44.2220 H   0  0  0  0  0  0  0  0  0  0  0  0
   37.9180   28.6960   43.5670 C   0  0  0  0  0  2  0  0  0  0  0  0
   38.0860   29.4560   42.2810 C   0  0  0  0  0  2  0  0  0  0  0  0
   38.6160   31.7760   39.2650 C   0  0  0  0  0  0  0  0  0  0  0  0
   38.1470   32.5070   40.3130 C   0  0  0  0  0  0  0  0  0  0  0  0
   38.7370   33.5640   40.8330 C   0  0  0  0  0  0  0  0  0  0  0  0
   39.9230   33.9280   40.2410 C   0  0  0  0  0  0  0  0  0  0  0  0
   40.1210   32.6570   38.9060 S   0  0  0  0  0  0  0  0  0  0  0  0
   37.2810   32.3570   40.9250 H   0  0  0  0  0  0  0  0  0  0  0  0
   38.6300   34.3000   41.5970 H   0  0  0  0  0  0  0  0  0  0  0  0
   40.7510   34.6300   40.2450 H   0  0  0  0  0  0  0  0  0  0  0  0
  1  7  1  0  0  0  0
  1  2  1  0  0  0  0
  2  9  1  0  0  0  0
  3  2  2  0  0  0  0
  3 18  1  0  0  0  0
  4  3  1  0  0  0  0
  5  6  1  0  0  0  0
  5  4  2  0  0  0  0
  6  1  2  0  0  0  0
  8  5  1  0  0  0  0
  9 11  1  0  0  0  0
 10  9  2  0  0  0  0
 11 12  1  0  0  0  0
 11 17  1  0  0  0  0
 12 13  1  0  0  0  0
 13 14  1  0  0  0  0
 14 16  1  0  0  0  0
 14 15  1  0  0  0  0
 17 16  1  0  0  0  0
 18 19  2  0  0  0  0
 19 20  1  0  0  0  0
 19 23  1  0  0  0  0
 20 24  1  0  0  0  0
 21 25  1  0  0  0  0
 21 20  2  0  0  0  0
 22 18  1  0  0  0  0
 22 21  1  0  0  0  0
M  END
>  <minimizedAffinity>
-4.76184416

$$$$

 OpenBabel03252503103D

 25 27  0  0  0  0  0  0  0  0999 V2000
   37.0980   32.4880   39.4240 C   0  0  0  0  0  0  0  0  0  0  0  0
   37.3100   31.2540   40.0810 C   0  0  0  0  0  0  0  0  0  0  0  0
   38.3250   31.2520   41.0130 C   0  0  0  0  0  0  0  0  0  0  0  0
   39.0610   32.3470   41.2740 N   0  0  0  0  0  0  0  0  0  0  0  0
   38.8100   33.5160   40.6060 C   0  0  0  0  0  0  0  0  0  0  0  0
   37.8370   33.5730   39.6940 N   0  0  0  0  0  0  0  0  0  0  0  0
   36.3050   32.5390   38.6790 H   0  0  0  0  0  0  0  0  0  0  0  0
   39.4350   34.3580   40.8620 H   0  0  0  0  0  0  0  0  0  0  0  0
   36.4880   30.1570   39.7360 C   0  0  0  0  0  0  0  0  0  0  0  0
   35.4630   30.0370   40.5370 O   0  0  0  0  0  0  0  0  0  0  0  0
   36.9530   29.3860   38.5840 N   0  0  0  0  0  0  0  0  0  0  0  0
   37.8560   28.2460   38.5380 C   0  0  0  0  0  2  0  0  0  0  0  0
   38.8270   28.3950   37.3610 C   0  0  0  0  0  2  0  0  0  0  0  0
   38.0860   28.2290   36.0780 C   0  0  0  0  0  3  0  0  0  0  0  0
   38.1050   27.1570   35.7910 H   0  0  0  0  0  0  0  0  0  0  0  0
   36.6190   28.5430   36.3520 C   0  0  0  0  0  2  0  0  0  0  0  0
   36.4990   29.7440   37.2490 C   0  0  0  0  0  2  0  0  0  0  0  0
   38.5920   30.0850   41.7160 C   0  0  0  0  0  0  0  0  0  0  0  0
   38.0210   29.4440   42.7720 C   0  0  0  0  0  0  0  0  0  0  0  0
   38.4540   28.3230   43.3110 C   0  0  0  0  0  0  0  0  0  0  0  0
   39.5770   27.7840   42.7300 C   0  0  0  0  0  0  0  0  0  0  0  0
   39.9560   28.9920   41.3750 S   0  0  0  0  0  0  0  0  0  0  0  0
   37.1320   29.6780   43.3210 H   0  0  0  0  0  0  0  0  0  0  0  0
   38.2440   27.6240   44.0880 H   0  0  0  0  0  0  0  0  0  0  0  0
   40.2970   26.9720   42.7480 H   0  0  0  0  0  0  0  0  0  0  0  0
  1  6  2  0  0  0  0
  1  2  1  0  0  0  0
  2  3  2  0  0  0  0
  3  4  1  0  0  0  0
  3 18  1  0  0  0  0
  5  8  1  0  0  0  0
  5  4  2  0  0  0  0
  6  5  1  0  0  0  0
  7  1  1  0  0  0  0
  9  2  1  0  0  0  0
  9 10  2  0  0  0  0
 11  9  1  0  0  0  0
 12 11  1  0  0  0  0
 13 12  1  0  0  0  0
 14 16  1  0  0  0  0
 14 13  1  0  0  0  0
 15 14  1  0  0  0  0
 16 17  1  0  0  0  0
 17 11  1  0  0  0  0
 18 19  2  0  0  0  0
 19 20  1  0  0  0  0
 19 23  1  0  0  0  0
 20 24  1  0  0  0  0
 21 25  1  0  0  0  0
 21 20  2  0  0  0  0
 22 18  1  0  0  0  0
 22 21  1  0  0  0  0
M  END
>  <minimizedAffinity>
-4.68633175

$$$$

 OpenBabel03252503103D

 25 27  0  0  0  0  0  0  0  0999 V2000
   36.8410   31.0270   39.4000 C   0  0  0  0  0  0  0  0  0  0  0  0
   36.2290   29.7630   39.2390 C   0  0  0  0  0  0  0  0  0  0  0  0
   36.3090   29.2280   37.9720 C   0  0  0  0  0  0  0  0  0  0  0  0
   36.9250   29.8670   36.9620 N   0  0  0  0  0  0  0  0  0  0  0  0
   37.5020   31.0900   37.1760 C   0  0  0  0  0  0  0  0  0  0  0  0
   37.4540   31.6530   38.3850 N   0  0  0  0  0  0  0  0  0  0  0  0
   36.8040   31.4890   40.3850 H   0  0  0  0  0  0  0  0  0  0  0  0
   37.9810   31.5510   36.3250 H   0  0  0  0  0  0  0  0  0  0  0  0
   35.6010   29.1700   40.3590 C   0  0  0  0  0  0  0  0  0  0  0  0
   34.2990   29.2350   40.2870 O   0  0  0  0  0  0  0  0  0  0  0  0
   36.5220   28.6270   41.3570 N   0  0  0  0  0  0  0  0  0  0  0  0
   37.1250   29.2810   42.5090 C   0  0  0  0  0  2  0  0  0  0  0  0
   38.6000   28.8770   42.6260 C   0  0  0  0  0  2  0  0  0  0  0  0
   38.6960   27.4430   43.0220 C   0  0  0  0  0  3  0  0  0  0  0  0
   38.7240   27.3810   44.1300 H   0  0  0  0  0  0  0  0  0  0  0  0
   37.3910   26.7670   42.6170 C   0  0  0  0  0  2  0  0  0  0  0  0
   36.9550   27.2420   41.2590 C   0  0  0  0  0  2  0  0  0  0  0  0
   35.7470   27.9810   37.7290 C   0  0  0  0  0  0  0  0  0  0  0  0
   36.1740   26.6940   37.8370 C   0  0  0  0  0  0  0  0  0  0  0  0
   35.4670   25.6260   37.5310 C   0  0  0  0  0  0  0  0  0  0  0  0
   34.1960   25.8710   37.0680 C   0  0  0  0  0  0  0  0  0  0  0  0
   34.0990   27.7230   37.1070 S   0  0  0  0  0  0  0  0  0  0  0  0
   37.0980   26.3040   38.2130 H   0  0  0  0  0  0  0  0  0  0  0  0
   35.5150   24.5610   37.5030 H   0  0  0  0  0  0  0  0  0  0  0  0
   33.2710   25.4350   36.7070 H   0  0  0  0  0  0  0  0  0  0  0  0
  1  7  1  0  0  0  0
  2  1  1  0  0  0  0
  2  9  1  0  0  0  0
  3  2  2  0  0  0  0
  4  5  2  0  0  0  0
  4  3  1  0  0  0  0
  5  6  1  0  0  0  0
  6  1  2  0  0  0  0
  8  5  1  0  0  0  0
  9 11  1  0  0  0  0
 10  9  2  0  0  0  0
 11 12  1  0  0  0  0
 12 13  1  0  0  0  0
 13 14  1  0  0  0  0
 14 15  1  0  0  0  0
 16 14  1  0  0  0  0
 17 11  1  0  0  0  0
 17 16  1  0  0  0  0
 18 19  2  0  0  0  0
 18  3  1  0  0  0  0
 19 23  1  0  0  0  0
 20 19  1  0  0  0  0
 21 22  1  0  0  0  0
 21 20  2  0  0  0  0
 22 18  1  0  0  0  0
 24 20  1  0  0  0  0
 25 21  1  0  0  0  0
M  END
>  <minimizedAffinity>
-4.65445805

$$$$
