
 OpenBabel03252508503D

 26 28  0  0  0  0  0  0  0  0999 V2000
   45.8980   34.1670   41.0360 C   0  0  0  0  0  0  0  0  0  0  0  0
   46.5020   34.7860   42.1400 C   0  0  0  0  0  0  0  0  0  0  0  0
   47.8540   35.1410   41.9960 C   0  0  0  0  0  0  0  0  0  0  0  0
   48.4850   34.8670   40.8140 N   0  0  0  0  0  0  0  0  0  0  0  0
   47.8600   34.2780   39.8040 C   0  0  0  0  0  0  0  0  0  0  0  0
   46.5640   33.9240   39.9050 N   0  0  0  0  0  0  0  0  0  0  0  0
   48.3190   35.6210   42.8510 H   0  0  0  0  0  0  0  0  0  0  0  0
   48.3520   34.0640   38.8800 H   0  0  0  0  0  0  0  0  0  0  0  0
   45.7420   35.0300   43.3460 C   0  0  0  0  0  0  0  0  0  0  0  0
   45.0850   36.2310   43.5890 C   0  0  0  0  0  0  0  0  0  0  0  0
   44.5020   36.0370   44.8210 C   0  0  0  0  0  0  0  0  0  0  0  0
   44.7860   34.8040   45.2960 N   0  0  0  0  0  0  0  0  0  0  0  0
   45.5320   34.2270   44.3850 N   0  0  0  0  0  0  0  0  0  0  0  0
   45.0430   37.0980   42.9610 H   0  0  0  0  0  0  0  0  0  0  0  0
   43.8940   36.7390   45.3750 H   0  0  0  0  0  0  0  0  0  0  0  0
   44.4830   34.3810   46.1990 H   0  0  0  0  0  0  0  0  0  0  0  0
   44.5730   33.8090   41.1520 O   0  0  0  0  0  0  0  0  0  0  0  0
   43.4970   34.5240   40.6970 C   0  0  0  0  0  0  0  0  0  0  0  0
   43.3410   35.7880   40.6800 O   0  0  0  0  0  0  0  0  0  0  0  0
   42.2360   34.1150   40.1110 N   0  0  0  0  0  0  0  0  0  0  0  0
   41.5760   33.0160   40.7880 C   0  0  0  0  0  2  0  0  0  0  0  0
   41.9040   31.7760   39.9460 C   0  0  0  0  0  2  0  0  0  0  0  0
   41.9270   32.2350   38.4860 C   0  0  0  0  0  3  0  0  0  0  0  0
   42.9620   32.5260   38.2620 H   0  0  0  0  0  0  0  0  0  0  0  0
   40.9740   33.4000   38.2540 C   0  0  0  0  0  2  0  0  0  0  0  0
   41.5410   34.6490   38.9430 C   0  0  0  0  0  2  0  0  0  0  0  0
  1 17  1  0  0  0  0
  1  2  1  0  0  0  0
  2  9  1  0  0  0  0
  3  2  2  0  0  0  0
  3  7  1  0  0  0  0
  4  3  1  0  0  0  0
  5  6  1  0  0  0  0
  5  4  2  0  0  0  0
  6  1  2  0  0  0  0
  8  5  1  0  0  0  0
  9 10  1  0  0  0  0
  9 13  2  0  0  0  0
 10 11  2  0  0  0  0
 11 12  1  0  0  0  0
 11 15  1  0  0  0  0
 12 16  1  0  0  0  0
 13 12  1  0  0  0  0
 14 10  1  0  0  0  0
 18 17  1  0  0  0  0
 19 18  2  0  0  0  0
 20 18  1  0  0  0  0
 20 21  1  0  0  0  0
 22 21  1  0  0  0  0
 23 22  1  0  0  0  0
 24 23  1  0  0  0  0
 25 23  1  0  0  0  0
 25 26  1  0  0  0  0
 26 20  1  0  0  0  0
M  END
>  <minimizedAffinity>
-5.48348093

>  <minimizedRMSD>
0.769804835

$$$$
