
 OpenBabel03252508503D

 26 28  0  0  0  0  0  0  0  0999 V2000
   45.9610   34.1630   41.0410 C   0  0  0  0  0  0  0  0  0  0  0  0
   46.5410   34.8020   42.1470 C   0  0  0  0  0  0  0  0  0  0  0  0
   47.8860   35.1880   42.0130 C   0  0  0  0  0  0  0  0  0  0  0  0
   48.5340   34.9220   40.8380 N   0  0  0  0  0  0  0  0  0  0  0  0
   47.9320   34.3140   39.8260 C   0  0  0  0  0  0  0  0  0  0  0  0
   46.6430   33.9300   39.9170 N   0  0  0  0  0  0  0  0  0  0  0  0
   48.3320   35.6820   42.8700 H   0  0  0  0  0  0  0  0  0  0  0  0
   48.4370   34.1060   38.9070 H   0  0  0  0  0  0  0  0  0  0  0  0
   45.7650   35.0350   43.3450 C   0  0  0  0  0  0  0  0  0  0  0  0
   45.0640   36.2150   43.5670 C   0  0  0  0  0  0  0  0  0  0  0  0
   44.4810   36.0160   44.7980 C   0  0  0  0  0  0  0  0  0  0  0  0
   44.8040   34.8010   45.2910 N   0  0  0  0  0  0  0  0  0  0  0  0
   45.5760   34.2390   44.3930 N   0  0  0  0  0  0  0  0  0  0  0  0
   44.9960   37.0720   42.9270 H   0  0  0  0  0  0  0  0  0  0  0  0
   43.8440   36.7040   45.3390 H   0  0  0  0  0  0  0  0  0  0  0  0
   44.5100   34.3800   46.1980 H   0  0  0  0  0  0  0  0  0  0  0  0
   44.6440   33.7760   41.1460 O   0  0  0  0  0  0  0  0  0  0  0  0
   43.5650   34.4060   40.5850 C   0  0  0  0  0  0  0  0  0  0  0  0
   43.2690   35.6440   40.6230 O   0  0  0  0  0  0  0  0  0  0  0  0
   42.4520   33.9130   39.7990 N   0  0  0  0  0  0  0  0  0  0  0  0
   41.1450   34.1430   40.3800 C   0  0  0  0  0  2  0  0  0  0  0  0
   40.7550   32.8070   41.0240 C   0  0  0  0  0  2  0  0  0  0  0  0
   41.3110   31.7070   40.1160 C   0  0  0  0  0  3  0  0  0  0  0  0
   42.3170   31.4680   40.4860 H   0  0  0  0  0  0  0  0  0  0  0  0
   41.3620   32.1590   38.6630 C   0  0  0  0  0  2  0  0  0  0  0  0
   42.4610   33.2200   38.5130 C   0  0  0  0  0  2  0  0  0  0  0  0
  1 17  1  0  0  0  0
  1  2  1  0  0  0  0
  2  9  1  0  0  0  0
  3  2  2  0  0  0  0
  3  7  1  0  0  0  0
  4  3  1  0  0  0  0
  5  6  1  0  0  0  0
  5  4  2  0  0  0  0
  6  1  2  0  0  0  0
  8  5  1  0  0  0  0
  9 10  1  0  0  0  0
  9 13  2  0  0  0  0
 10 11  2  0  0  0  0
 11 12  1  0  0  0  0
 11 15  1  0  0  0  0
 12 16  1  0  0  0  0
 13 12  1  0  0  0  0
 14 10  1  0  0  0  0
 18 19  2  0  0  0  0
 18 17  1  0  0  0  0
 20 21  1  0  0  0  0
 20 18  1  0  0  0  0
 21 22  1  0  0  0  0
 23 24  1  0  0  0  0
 23 22  1  0  0  0  0
 25 23  1  0  0  0  0
 26 25  1  0  0  0  0
 26 20  1  0  0  0  0
M  END
>  <minimizedAffinity>
-5.41497517

>  <minimizedRMSD>
0.424661785

$$$$
