
     RDKit          3D

 51 54  0  0  0  0  0  0  0  0999 V2000
   47.0615   34.8099   41.9560 C   0  0  2  0  0  0  0  0  0  0  0  0
   46.3007   34.1874   40.7839 C   0  0  0  0  0  0  0  0  0  0  0  0
   47.5031   34.0009   39.8327 C   0  0  0  0  0  0  0  0  0  0  0  0
   48.6449   33.6284   40.7274 C   0  0  1  0  0  0  0  0  0  0  0  0
   48.1339   33.7702   42.1304 C   0  0  0  0  0  0  0  0  0  0  0  0
   44.5459   35.9910   44.4965 C   0  0  0  0  0  0  0  0  0  0  0  0
   45.2829   35.9695   43.3174 C   0  0  0  0  0  0  0  0  0  0  0  0
   46.1943   34.9326   43.1595 C   0  0  0  0  0  0  0  0  0  0  0  0
   46.3464   33.9622   44.1597 N   0  0  0  0  0  0  0  0  0  0  0  0
   45.5973   34.0382   45.2900 C   0  0  0  0  0  0  0  0  0  0  0  0
   44.7014   35.0482   45.4565 N   0  0  0  0  0  0  0  0  0  0  0  0
   49.1279   32.2046   40.5690 C   0  0  2  0  0  0  0  0  0  0  0  0
   49.7705   31.6167   41.7374 C   0  0  0  0  0  0  0  0  0  0  0  0
   50.5532   31.8842   40.4917 C   0  0  1  0  0  0  0  0  0  0  0  0
   50.9263   30.7632   39.7086 O   0  0  0  0  0  0  0  0  0  0  0  0
   52.0314   30.2074   37.4152 O   0  0  0  0  0  0  0  0  0  0  0  0
   51.8792   31.3085   38.4356 P   0  0  1  0  0  0  0  0  0  0  0  0
   51.1080   32.6262   37.6529 O   0  0  0  0  0  0  0  0  0  0  0  0
   53.3921   31.8308   38.8787 O   0  0  0  0  0  0  0  0  0  0  0  0
   47.4880   35.7758   41.6197 H   0  0  0  0  0  0  0  0  0  0  0  0
   45.5901   34.9103   40.3879 H   0  0  0  0  0  0  0  0  0  0  0  0
   45.8920   33.2203   41.1095 H   0  0  0  0  0  0  0  0  0  0  0  0
   47.2820   33.2181   39.0912 H   0  0  0  0  0  0  0  0  0  0  0  0
   47.6647   35.0033   39.3408 H   0  0  0  0  0  0  0  0  0  0  0  0
   49.5042   34.3107   40.5687 H   0  0  0  0  0  0  0  0  0  0  0  0
   48.9286   34.1939   42.7865 H   0  0  0  0  0  0  0  0  0  0  0  0
   47.7080   32.8484   42.5404 H   0  0  0  0  0  0  0  0  0  0  0  0
   43.8270   36.7937   44.6395 H   0  0  0  0  0  0  0  0  0  0  0  0
   45.1872   36.7021   42.5314 H   0  0  0  0  0  0  0  0  0  0  0  0
   45.7183   33.2901   46.0563 H   0  0  0  0  0  0  0  0  0  0  0  0
   48.4355   31.5726   39.9847 H   0  0  0  0  0  0  0  0  0  0  0  0
   50.0626   32.2163   42.6318 H   0  0  0  0  0  0  0  0  0  0  0  0
   49.5442   30.5675   42.0151 H   0  0  0  0  0  0  0  0  0  0  0  0
   51.2404   32.7375   40.3795 H   0  0  0  0  0  0  0  0  0  0  0  0
   51.4010   33.4879   38.0025 H   0  0  0  0  0  0  0  0  0  0  0  0
   52.2595   28.6683   41.7089 H   0  0  0  0  0  0  0  0  0  0  0  0
   53.0482   28.5085   41.0441 N   0  0  0  0  0  0  0  0  0  0  0  0
   52.6282   28.7695   39.6930 C   0  0  0  0  0  0  0  0  0  0  0  0
   53.6898   29.4529   38.8580 C   0  0  0  0  0  0  0  0  0  0  0  0
   54.1084   30.7635   39.4524 C   0  0  0  0  0  0  0  0  0  0  0  0
   53.9690   30.7724   40.9608 C   0  0  0  0  0  0  0  0  0  0  0  0
   54.1502   29.3496   41.4684 C   0  0  0  0  0  0  0  0  0  0  0  0
   51.6614   29.3213   39.6826 H   0  0  0  0  0  0  0  0  0  0  0  0
   52.4350   27.7853   39.2020 H   0  0  0  0  0  0  0  0  0  0  0  0
   53.2450   29.5957   37.8556 H   0  0  0  0  0  0  0  0  0  0  0  0
   54.5482   28.7729   38.7827 H   0  0  0  0  0  0  0  0  0  0  0  0
   55.1819   30.9403   39.2320 H   0  0  0  0  0  0  0  0  0  0  0  0
   54.7736   31.3823   41.4588 H   0  0  0  0  0  0  0  0  0  0  0  0
   52.9465   31.1199   41.2523 H   0  0  0  0  0  0  0  0  0  0  0  0
   54.1387   29.3835   42.5744 H   0  0  0  0  0  0  0  0  0  0  0  0
   55.0850   28.9364   41.0466 H   0  0  0  0  0  0  0  0  0  0  0  0
  1  5  1  0
  1  8  1  0
  2  1  1  0
  3  4  1  0
  3  2  1  0
  4  5  1  0
  6 11  2  0
  7  6  1  0
  8  7  2  0
  8  9  1  0
  9 10  2  0
 10 11  1  0
 12  4  1  0
 12 13  1  0
 14 12  1  0
 14 13  1  0
 15 14  1  0
 16 17  2  0
 17 19  1  1
 17 15  1  0
 18 17  1  0
  1 20  1  6
  2 21  1  0
  2 22  1  0
  3 23  1  0
  3 24  1  0
  4 25  1  1
  5 26  1  0
  5 27  1  0
  6 28  1  0
  7 29  1  0
 10 30  1  0
 12 31  1  6
 13 32  1  0
 13 33  1  0
 14 34  1  1
 18 35  1  0
 36 37  1  0
 37 38  1  0
 38 39  1  0
 39 40  1  0
 40 41  1  0
 41 42  1  0
 42 37  1  0
 38 43  1  0
 38 44  1  0
 39 45  1  0
 39 46  1  0
 40 47  1  0
 41 48  1  0
 41 49  1  0
 42 50  1  0
 42 51  1  0
 19 40  1  0
M  ISO  8  20  13  21  13  22  13  23  13  24  13  25  13  26  13  27  13
M  ISO  8  28  14  29  14  30  14  31  13  32  13  33  13  34  13  35   3
M  ISO  1  36   5
M  END
>  <DihAtoms>  (1) 
16,18,39,38

>  <DihDeg>  (1) 
-119.15182244868845

$$$$
