
 OpenBabel03252508503D

 26 28  0  0  0  0  0  0  0  0999 V2000
   45.9060   34.1760   41.0260 C   0  0  0  0  0  0  0  0  0  0  0  0
   46.5070   34.7940   42.1320 C   0  0  0  0  0  0  0  0  0  0  0  0
   47.8610   35.1470   41.9940 C   0  0  0  0  0  0  0  0  0  0  0  0
   48.4950   34.8730   40.8130 N   0  0  0  0  0  0  0  0  0  0  0  0
   47.8730   34.2860   39.8010 C   0  0  0  0  0  0  0  0  0  0  0  0
   46.5760   33.9330   39.8970 N   0  0  0  0  0  0  0  0  0  0  0  0
   48.3230   35.6260   42.8510 H   0  0  0  0  0  0  0  0  0  0  0  0
   48.3680   34.0710   38.8780 H   0  0  0  0  0  0  0  0  0  0  0  0
   45.7430   35.0380   43.3360 C   0  0  0  0  0  0  0  0  0  0  0  0
   45.0670   36.2310   43.5660 C   0  0  0  0  0  0  0  0  0  0  0  0
   44.4880   36.0400   44.8000 C   0  0  0  0  0  0  0  0  0  0  0  0
   44.7900   34.8170   45.2880 N   0  0  0  0  0  0  0  0  0  0  0  0
   45.5460   34.2430   44.3830 N   0  0  0  0  0  0  0  0  0  0  0  0
   45.0120   37.0910   42.9300 H   0  0  0  0  0  0  0  0  0  0  0  0
   43.8690   36.7380   45.3480 H   0  0  0  0  0  0  0  0  0  0  0  0
   44.4940   34.3980   46.1950 H   0  0  0  0  0  0  0  0  0  0  0  0
   44.5800   33.8200   41.1360 O   0  0  0  0  0  0  0  0  0  0  0  0
   43.5160   34.4660   40.5660 C   0  0  0  0  0  0  0  0  0  0  0  0
   43.1580   35.6790   40.7180 O   0  0  0  0  0  0  0  0  0  0  0  0
   42.4890   34.0220   39.6460 N   0  0  0  0  0  0  0  0  0  0  0  0
   42.2140   34.9320   38.5510 C   0  0  0  0  0  2  0  0  0  0  0  0
   40.9440   35.6840   38.9680 C   0  0  0  0  0  2  0  0  0  0  0  0
   40.0740   34.6800   39.7310 C   0  0  0  0  0  3  0  0  0  0  0  0
   40.3440   34.7690   40.7910 H   0  0  0  0  0  0  0  0  0  0  0  0
   40.2970   33.2590   39.2310 C   0  0  0  0  0  2  0  0  0  0  0  0
   41.6950   32.7970   39.6650 C   0  0  0  0  0  2  0  0  0  0  0  0
  1 17  1  0  0  0  0
  1  2  1  0  0  0  0
  2  9  1  0  0  0  0
  3  2  2  0  0  0  0
  3  7  1  0  0  0  0
  4  3  1  0  0  0  0
  5  6  1  0  0  0  0
  5  4  2  0  0  0  0
  6  1  2  0  0  0  0
  8  5  1  0  0  0  0
  9 10  1  0  0  0  0
  9 13  2  0  0  0  0
 10 11  2  0  0  0  0
 11 12  1  0  0  0  0
 11 15  1  0  0  0  0
 12 16  1  0  0  0  0
 13 12  1  0  0  0  0
 14 10  1  0  0  0  0
 18 19  2  0  0  0  0
 18 17  1  0  0  0  0
 20 26  1  0  0  0  0
 20 18  1  0  0  0  0
 21 22  1  0  0  0  0
 21 20  1  0  0  0  0
 22 23  1  0  0  0  0
 23 24  1  0  0  0  0
 25 26  1  0  0  0  0
 25 23  1  0  0  0  0
M  END
>  <minimizedAffinity>
-5.88482094

>  <minimizedRMSD>
0.41057983

$$$$
