
 OpenBabel03252508503D

 26 28  0  0  0  0  0  0  0  0999 V2000
   45.9520   34.1840   41.0470 C   0  0  0  0  0  0  0  0  0  0  0  0
   46.5390   34.8050   42.1590 C   0  0  0  0  0  0  0  0  0  0  0  0
   47.8910   35.1700   42.0330 C   0  0  0  0  0  0  0  0  0  0  0  0
   48.5380   34.9030   40.8580 N   0  0  0  0  0  0  0  0  0  0  0  0
   47.9290   34.3120   39.8390 C   0  0  0  0  0  0  0  0  0  0  0  0
   46.6340   33.9480   39.9230 N   0  0  0  0  0  0  0  0  0  0  0  0
   48.3420   35.6510   42.8940 H   0  0  0  0  0  0  0  0  0  0  0  0
   48.4340   34.1020   38.9210 H   0  0  0  0  0  0  0  0  0  0  0  0
   45.7620   35.0420   43.3560 C   0  0  0  0  0  0  0  0  0  0  0  0
   45.0670   36.2250   43.5780 C   0  0  0  0  0  0  0  0  0  0  0  0
   44.4820   36.0300   44.8080 C   0  0  0  0  0  0  0  0  0  0  0  0
   44.7980   34.8130   45.3010 N   0  0  0  0  0  0  0  0  0  0  0  0
   45.5690   34.2470   44.4040 N   0  0  0  0  0  0  0  0  0  0  0  0
   45.0050   37.0830   42.9380 H   0  0  0  0  0  0  0  0  0  0  0  0
   43.8480   36.7200   45.3490 H   0  0  0  0  0  0  0  0  0  0  0  0
   44.5010   34.3920   46.2080 H   0  0  0  0  0  0  0  0  0  0  0  0
   44.6290   33.8180   41.1450 O   0  0  0  0  0  0  0  0  0  0  0  0
   43.5660   34.4500   40.5560 C   0  0  0  0  0  0  0  0  0  0  0  0
   43.1860   35.6560   40.7060 O   0  0  0  0  0  0  0  0  0  0  0  0
   42.5630   33.9930   39.6150 N   0  0  0  0  0  0  0  0  0  0  0  0
   41.2050   34.3860   39.9330 C   0  0  0  0  0  2  0  0  0  0  0  0
   40.5740   33.1470   40.5830 C   0  0  0  0  0  2  0  0  0  0  0  0
   41.1640   31.9310   39.8650 C   0  0  0  0  0  3  0  0  0  0  0  0
   42.0600   31.6350   40.4270 H   0  0  0  0  0  0  0  0  0  0  0  0
   41.5140   32.2540   38.4190 C   0  0  0  0  0  2  0  0  0  0  0  0
   42.7250   33.1980   38.4020 C   0  0  0  0  0  2  0  0  0  0  0  0
  1 17  1  0  0  0  0
  1  2  1  0  0  0  0
  2  9  1  0  0  0  0
  3  2  2  0  0  0  0
  3  7  1  0  0  0  0
  4  3  1  0  0  0  0
  5  6  1  0  0  0  0
  5  4  2  0  0  0  0
  6  1  2  0  0  0  0
  8  5  1  0  0  0  0
  9 10  1  0  0  0  0
  9 13  2  0  0  0  0
 10 11  2  0  0  0  0
 11 12  1  0  0  0  0
 11 15  1  0  0  0  0
 12 16  1  0  0  0  0
 13 12  1  0  0  0  0
 14 10  1  0  0  0  0
 18 19  2  0  0  0  0
 18 17  1  0  0  0  0
 20 21  1  0  0  0  0
 20 18  1  0  0  0  0
 21 22  1  0  0  0  0
 23 24  1  0  0  0  0
 23 22  1  0  0  0  0
 25 23  1  0  0  0  0
 26 25  1  0  0  0  0
 26 20  1  0  0  0  0
M  END
>  <minimizedAffinity>
-5.42287111

>  <minimizedRMSD>
0.338237464

$$$$
