
 OpenBabel03252502283D

 33 35  0  0  0  0  0  0  0  0999 V2000
   45.1070   34.4760   41.2890 C   0  0  0  0  0  0  0  0  0  0  0  0
   45.4230   35.1570   42.4690 C   0  0  0  0  0  0  0  0  0  0  0  0
   46.7610   35.4330   42.7330 C   0  0  0  0  0  0  0  0  0  0  0  0
   47.7220   35.0420   41.8480 C   0  0  0  0  0  0  0  0  0  0  0  0
   47.4330   34.3750   40.6880 C   0  0  0  0  0  0  0  0  0  0  0  0
   46.0850   34.1050   40.4390 C   0  0  0  0  0  0  0  0  0  0  0  0
   44.6600   35.4670   43.1710 H   0  0  0  0  0  0  0  0  0  0  0  0
   47.0600   35.9570   43.6300 H   0  0  0  0  0  0  0  0  0  0  0  0
   48.7920   35.2210   41.9820 H   0  0  0  0  0  0  0  0  0  0  0  0
   48.1060   34.0180   39.9180 H   0  0  0  0  0  0  0  0  0  0  0  0
   46.2650   32.7660   38.1950 C   0  0  0  0  0  0  0  0  0  0  0  0
   47.4700   32.6260   38.0430 O   0  0  0  0  0  0  0  0  0  0  0  0
   45.6400   33.4250   39.2750 N   0  0  0  0  0  0  0  0  0  0  0  0
   44.5750   33.4710   39.3030 H   0  0  0  0  0  0  0  0  0  0  0  0
   45.4350   32.2090   37.1810 N   0  0  0  0  0  0  0  0  0  0  0  0
   44.5260   31.2060   37.7080 C   0  0  0  0  0  0  0  0  0  0  0  0
   43.2900   31.2310   36.8180 C   0  0  0  0  0  0  0  0  0  0  0  0
   43.6810   30.7300   35.4470 C   0  0  0  0  0  0  0  0  0  0  0  0
   42.9920   31.2090   34.7040 H   0  0  0  0  0  0  0  0  0  0  0  0
   45.0840   31.1560   35.0810 C   0  0  0  0  0  0  0  0  0  0  0  0
   45.3780   32.4930   35.7690 C   0  0  0  0  0  0  0  0  0  0  0  0
   41.4290   34.7950   40.4980 C   0  0  0  0  0  0  0  0  0  0  0  0
   42.7740   35.1720   40.6710 C   0  0  0  0  0  0  0  0  0  0  0  0
   43.6870   34.2180   41.0730 C   0  0  0  0  0  0  0  0  0  0  0  0
   43.2260   32.9590   41.2790 N   0  0  0  0  0  0  0  0  0  0  0  0
   41.9290   32.6130   41.1070 C   0  0  0  0  0  0  0  0  0  0  0  0
   41.0300   33.5380   40.7150 N   0  0  0  0  0  0  0  0  0  0  0  0
   43.1190   36.1730   40.5030 H   0  0  0  0  0  0  0  0  0  0  0  0
   41.6070   31.5930   41.2840 H   0  0  0  0  0  0  0  0  0  0  0  0
   40.4360   35.8070   40.0670 C   0  0  0  0  0  0  0  0  0  0  0  0
   39.2380   35.1470   39.8190 F   0  0  0  0  0  0  0  0  0  0  0  0
   40.8660   36.2930   38.8270 F   0  0  0  0  0  0  0  0  0  0  0  0
   40.2380   36.8010   40.9890 F   0  0  0  0  0  0  0  0  0  0  0  0
  1  2  1  0  0  0  0
  2  3  2  0  0  0  0
  2  7  1  0  0  0  0
  3  8  1  0  0  0  0
  4  9  1  0  0  0  0
  4  3  1  0  0  0  0
  5  4  2  0  0  0  0
  6  5  1  0  0  0  0
  6  1  2  0  0  0  0
 10  5  1  0  0  0  0
 11 13  1  0  0  0  0
 12 11  2  0  0  0  0
 13 14  1  0  0  0  0
 13  6  1  0  0  0  0
 15 16  1  0  0  0  0
 15 11  1  0  0  0  0
 17 16  1  0  0  0  0
 18 17  1  0  0  0  0
 19 18  1  0  0  0  0
 20 18  1  0  0  0  0
 20 21  1  0  0  0  0
 21 15  1  0  0  0  0
 22 23  2  0  0  0  0
 22 27  1  0  0  0  0
 23 24  1  0  0  0  0
 24 25  2  0  0  0  0
 24  1  1  0  0  0  0
 26 25  1  0  0  0  0
 26 29  1  0  0  0  0
 27 26  2  0  0  0  0
 28 23  1  0  0  0  0
 30 22  1  0  0  0  0
 30 33  1  0  0  0  0
 31 30  1  0  0  0  0
 32 30  1  0  0  0  0
M  END
>  <minimizedAffinity>
-6.34068918

>  <minimizedRMSD>
0.833620965

$$$$
