
     RDKit          3D

 35 37  0  0  0  0  0  0  0  0999 V2000
   44.5715   35.4248   45.1357 C   0  0  0  0  0  0  0  0  0  0  0  0
   45.2490   35.2784   43.9339 C   0  0  0  0  0  0  0  0  0  0  0  0
   46.1871   34.2734   43.7897 C   0  0  0  0  0  0  0  0  0  0  0  0
   46.4080   33.4484   44.8707 N   0  0  0  0  0  0  0  0  0  0  0  0
   45.7504   33.6027   46.0148 C   0  0  0  0  0  0  0  0  0  0  0  0
   44.8471   34.5750   46.1445 N   0  0  0  0  0  0  0  0  0  0  0  0
   46.0015   32.7189   47.1478 C   0  0  0  0  0  0  0  0  0  0  0  0
   47.2502   32.2695   47.4430 C   0  0  0  0  0  0  0  0  0  0  0  0
   47.5678   31.4416   48.4836 C   0  0  0  0  0  0  0  0  0  0  0  0
   46.5306   31.0650   49.2531 N   0  0  0  0  0  0  0  0  0  0  0  0
   45.2869   31.5063   48.9678 C   0  0  0  0  0  0  0  0  0  0  0  0
   44.9649   32.3262   47.9391 N   0  0  0  0  0  0  0  0  0  0  0  0
   44.9656   36.1885   42.8366 C   0  0  0  0  0  0  0  0  0  0  0  0
   44.1263   35.7824   41.9726 O   0  0  0  0  0  0  0  0  0  0  0  0
   43.8260   36.1891   45.3154 H   0  0  0  0  0  0  0  0  0  0  0  0
   46.7361   34.1263   42.8690 H   0  0  0  0  0  0  0  0  0  0  0  0
   48.0493   32.6232   46.7641 H   0  0  0  0  0  0  0  0  0  0  0  0
   48.5856   31.1225   48.6602 H   0  0  0  0  0  0  0  0  0  0  0  0
   44.4018   31.2251   49.5701 H   0  0  0  0  0  0  0  0  0  0  0  0
   45.5830   37.4726   42.7142 N   0  0  0  0  0  0  0  0  0  0  0  0
   44.8115   38.5013   42.0583 C   0  0  0  0  0  0  0  0  0  0  0  0
   45.5182   39.7860   41.8296 C   0  0  0  0  0  0  0  0  0  0  0  0
   46.8959   39.8939   42.3824 C   0  0  0  0  0  0  0  0  0  0  0  0
   47.6891   39.5751   41.6733 H   0  0  0  0  0  0  0  0  0  0  0  0
   47.0900   39.0820   43.6463 C   0  0  0  0  0  0  0  0  0  0  0  0
   46.9199   37.6419   43.2514 C   0  0  0  0  0  0  0  0  0  0  0  0
   44.3594   38.1106   41.0994 H   0  0  0  0  0  0  0  0  0  0  0  0
   43.9313   38.6899   42.7408 H   0  0  0  0  0  0  0  0  0  0  0  0
   44.9228   40.6787   42.1520 H   0  0  0  0  0  0  0  0  0  0  0  0
   45.6179   39.9403   40.7144 H   0  0  0  0  0  0  0  0  0  0  0  0
   47.1063   40.9492   42.6406 H   0  0  0  0  0  0  0  0  0  0  0  0
   46.3735   39.3549   44.4342 H   0  0  0  0  0  0  0  0  0  0  0  0
   48.1237   39.2329   43.9835 H   0  0  0  0  0  0  0  0  0  0  0  0
   47.6086   37.4121   42.4088 H   0  0  0  0  0  0  0  0  0  0  0  0
   47.0415   36.9588   44.1135 H   0  0  0  0  0  0  0  0  0  0  0  0
  1  6  2  0
  2  1  1  0
  3  2  2  0
  3  4  1  0
  4  5  2  0
  5  6  1  0
  5  7  1  0
  7  8  2  0
  7 12  1  0
  8  9  1  0
  9 10  2  0
 11 10  1  0
 12 11  2  0
 13  2  1  0
 14 13  2  0
  1 15  1  0
  3 16  1  0
  8 17  1  0
  9 18  1  0
 11 19  1  0
 20 21  1  0
 21 22  1  0
 22 23  1  0
 23 24  1  0
 23 25  1  0
 25 26  1  0
 26 20  1  0
 21 27  1  0
 21 28  1  0
 22 29  1  0
 22 30  1  0
 23 31  1  0
 25 32  1  0
 25 33  1  0
 26 34  1  0
 26 35  1  0
 13 20  1  0
M  ISO  6  15  14  16  14  17  14  18  14  19  14  24  15
M  END
>  <DihAtoms>  (1) 
1,12,19,20

>  <DihDeg>  (1) 
-0.0022566011236243157

$$$$
