
     RDKit          3D

 27 28  0  0  0  0  0  0  0  0999 V2000
   44.5236   35.9093   44.6675 C   0  0  0  0  0  0  0  0  0  0  0  0
   45.1545   35.8941   43.4193 C   0  0  0  0  0  0  0  0  0  0  0  0
   46.0715   34.8612   43.2020 C   0  0  0  0  0  0  0  0  0  0  0  0
   46.2815   33.9640   44.1962 N   0  0  0  0  0  0  0  0  0  0  0  0
   45.6605   34.0071   45.3805 C   0  0  0  0  0  0  0  0  0  0  0  0
   44.7717   34.9977   45.6075 N   0  0  0  0  0  0  0  0  0  0  0  0
   45.8850   33.0473   46.4441 C   0  0  0  0  0  0  0  0  0  0  0  0
   45.1598   33.0093   47.4819 O   0  0  0  0  0  0  0  0  0  0  0  0
   43.7984   36.6979   44.8835 H   0  0  0  0  0  0  0  0  0  0  0  0
   44.9395   36.6321   42.6866 H   0  0  0  0  0  0  0  0  0  0  0  0
   46.5924   34.7982   42.2512 H   0  0  0  0  0  0  0  0  0  0  0  0
   46.9505   32.1110   46.3336 N   0  0  0  0  0  0  0  0  0  0  0  0
   48.2797   32.4389   46.8478 C   0  0  0  0  0  0  0  0  0  0  0  0
   49.1804   31.2252   46.6495 C   0  0  0  0  0  0  0  0  0  0  0  0
   48.5849   29.9906   47.2446 C   0  0  0  0  0  0  0  0  0  0  0  0
   49.2661   29.1480   46.9669 H   0  0  0  0  0  0  0  0  0  0  0  0
   47.2290   29.7136   46.6400 C   0  0  0  0  0  0  0  0  0  0  0  0
   46.7561   30.8134   45.7136 C   0  0  0  0  0  0  0  0  0  0  0  0
   48.2026   32.6338   47.9295 H   0  0  0  0  0  0  0  0  0  0  0  0
   48.7705   33.2557   46.2780 H   0  0  0  0  0  0  0  0  0  0  0  0
   50.1497   31.4715   47.0778 H   0  0  0  0  0  0  0  0  0  0  0  0
   49.3209   31.0421   45.5630 H   0  0  0  0  0  0  0  0  0  0  0  0
   48.5746   30.0190   48.3602 H   0  0  0  0  0  0  0  0  0  0  0  0
   46.5246   29.6441   47.4973 H   0  0  0  0  0  0  0  0  0  0  0  0
   47.2305   28.7657   46.0715 H   0  0  0  0  0  0  0  0  0  0  0  0
   45.6864   30.6786   45.5352 H   0  0  0  0  0  0  0  0  0  0  0  0
   47.2953   30.7342   44.7469 H   0  0  0  0  0  0  0  0  0  0  0  0
  1  6  2  0
  2  1  1  0
  3  2  2  0
  3  4  1  0
  4  5  2  0
  5  6  1  0
  5  7  1  0
  7  8  2  0
  1  9  1  0
  2 10  1  0
  3 11  1  0
 12 13  1  0
 13 14  1  0
 14 15  1  0
 15 16  1  0
 15 17  1  0
 17 18  1  0
 18 12  1  0
 13 19  1  0
 13 20  1  0
 14 21  1  0
 14 22  1  0
 15 23  1  0
 17 24  1  0
 17 25  1  0
 18 26  1  0
 18 27  1  0
  7 12  1  0
M  ISO  4   9  14  10  14  11  14  16  15
M  END
>  <DihAtoms>  (1) 
4,6,11,12

>  <DihDeg>  (1) 
0.001934799309010327

$$$$
