
     RDKit          3D

 27 28  0  0  0  0  0  0  0  0999 V2000
   44.5236   35.9093   44.6675 C   0  0  0  0  0  0  0  0  0  0  0  0
   45.1545   35.8941   43.4193 C   0  0  0  0  0  0  0  0  0  0  0  0
   46.0715   34.8612   43.2020 C   0  0  0  0  0  0  0  0  0  0  0  0
   46.2815   33.9640   44.1962 N   0  0  0  0  0  0  0  0  0  0  0  0
   45.6605   34.0071   45.3805 C   0  0  0  0  0  0  0  0  0  0  0  0
   44.7717   34.9977   45.6075 N   0  0  0  0  0  0  0  0  0  0  0  0
   45.8850   33.0473   46.4441 C   0  0  0  0  0  0  0  0  0  0  0  0
   45.1598   33.0093   47.4819 O   0  0  0  0  0  0  0  0  0  0  0  0
   43.7984   36.6979   44.8835 H   0  0  0  0  0  0  0  0  0  0  0  0
   44.9395   36.6321   42.6866 H   0  0  0  0  0  0  0  0  0  0  0  0
   46.5924   34.7982   42.2512 H   0  0  0  0  0  0  0  0  0  0  0  0
   46.9505   32.1110   46.3336 N   0  0  0  0  0  0  0  0  0  0  0  0
   48.0074   32.3067   45.3420 C   0  0  0  0  0  0  0  0  0  0  0  0
   49.0318   31.1906   45.5104 C   0  0  0  0  0  0  0  0  0  0  0  0
   49.5264   31.1006   46.9176 C   0  0  0  0  0  0  0  0  0  0  0  0
   50.1924   30.2029   46.9597 H   0  0  0  0  0  0  0  0  0  0  0  0
   48.3756   30.8734   47.8686 C   0  0  0  0  0  0  0  0  0  0  0  0
   47.0234   30.9430   47.1918 C   0  0  0  0  0  0  0  0  0  0  0  0
   48.5106   33.2656   45.5455 H   0  0  0  0  0  0  0  0  0  0  0  0
   47.6412   32.2040   44.2989 H   0  0  0  0  0  0  0  0  0  0  0  0
   49.8310   31.3781   44.7964 H   0  0  0  0  0  0  0  0  0  0  0  0
   48.5634   30.2165   45.2544 H   0  0  0  0  0  0  0  0  0  0  0  0
   50.1680   31.9694   47.1989 H   0  0  0  0  0  0  0  0  0  0  0  0
   48.4390   31.6902   48.6202 H   0  0  0  0  0  0  0  0  0  0  0  0
   48.4571   29.8905   48.3677 H   0  0  0  0  0  0  0  0  0  0  0  0
   46.2554   31.0396   47.9634 H   0  0  0  0  0  0  0  0  0  0  0  0
   46.8491   30.0047   46.6256 H   0  0  0  0  0  0  0  0  0  0  0  0
  1  6  2  0
  2  1  1  0
  3  2  2  0
  3  4  1  0
  4  5  2  0
  5  6  1  0
  5  7  1  0
  7  8  2  0
  1  9  1  0
  2 10  1  0
  3 11  1  0
 12 13  1  0
 13 14  1  0
 14 15  1  0
 15 16  1  0
 15 17  1  0
 17 18  1  0
 18 12  1  0
 13 19  1  0
 13 20  1  0
 14 21  1  0
 14 22  1  0
 15 23  1  0
 17 24  1  0
 17 25  1  0
 18 26  1  0
 18 27  1  0
  7 12  1  0
M  ISO  4   9  14  10  14  11  14  16  15
M  END
>  <DihAtoms>  (1) 
4,6,11,12

>  <DihDeg>  (1) 
0.001934799309010327

$$$$
