
     RDKit          3D

 27 28  0  0  0  0  0  0  0  0999 V2000
   44.5236   35.9093   44.6675 C   0  0  0  0  0  0  0  0  0  0  0  0
   45.1545   35.8941   43.4193 C   0  0  0  0  0  0  0  0  0  0  0  0
   46.0715   34.8612   43.2020 C   0  0  0  0  0  0  0  0  0  0  0  0
   46.2815   33.9640   44.1962 N   0  0  0  0  0  0  0  0  0  0  0  0
   45.6605   34.0071   45.3805 C   0  0  0  0  0  0  0  0  0  0  0  0
   44.7717   34.9977   45.6075 N   0  0  0  0  0  0  0  0  0  0  0  0
   45.8850   33.0473   46.4441 C   0  0  0  0  0  0  0  0  0  0  0  0
   45.1598   33.0093   47.4819 O   0  0  0  0  0  0  0  0  0  0  0  0
   43.7984   36.6979   44.8835 H   0  0  0  0  0  0  0  0  0  0  0  0
   44.9395   36.6321   42.6866 H   0  0  0  0  0  0  0  0  0  0  0  0
   46.5924   34.7982   42.2512 H   0  0  0  0  0  0  0  0  0  0  0  0
   46.9505   32.1110   46.3336 N   0  0  0  0  0  0  0  0  0  0  0  0
   48.1723   32.2847   47.1182 C   0  0  0  0  0  0  0  0  0  0  0  0
   49.0896   31.0994   46.8409 C   0  0  0  0  0  0  0  0  0  0  0  0
   48.3965   29.7962   47.0742 C   0  0  0  0  0  0  0  0  0  0  0  0
   49.1126   28.9982   46.7558 H   0  0  0  0  0  0  0  0  0  0  0  0
   47.1641   29.6908   46.2077 C   0  0  0  0  0  0  0  0  0  0  0  0
   46.8616   30.9647   45.4481 C   0  0  0  0  0  0  0  0  0  0  0  0
   47.9106   32.2709   48.1885 H   0  0  0  0  0  0  0  0  0  0  0  0
   48.7567   33.1771   46.8101 H   0  0  0  0  0  0  0  0  0  0  0  0
   49.9715   31.2229   47.4661 H   0  0  0  0  0  0  0  0  0  0  0  0
   49.4147   31.1233   45.7791 H   0  0  0  0  0  0  0  0  0  0  0  0
   48.1942   29.6102   48.1558 H   0  0  0  0  0  0  0  0  0  0  0  0
   46.3223   29.4839   46.9037 H   0  0  0  0  0  0  0  0  0  0  0  0
   47.2604   28.8703   45.4733 H   0  0  0  0  0  0  0  0  0  0  0  0
   45.8381   30.9063   45.0693 H   0  0  0  0  0  0  0  0  0  0  0  0
   47.5590   31.0529   44.5894 H   0  0  0  0  0  0  0  0  0  0  0  0
  1  6  2  0
  2  1  1  0
  3  2  2  0
  3  4  1  0
  4  5  2  0
  5  6  1  0
  5  7  1  0
  7  8  2  0
  1  9  1  0
  2 10  1  0
  3 11  1  0
 12 13  1  0
 13 14  1  0
 14 15  1  0
 15 16  1  0
 15 17  1  0
 17 18  1  0
 18 12  1  0
 13 19  1  0
 13 20  1  0
 14 21  1  0
 14 22  1  0
 15 23  1  0
 17 24  1  0
 17 25  1  0
 18 26  1  0
 18 27  1  0
  7 12  1  0
M  ISO  4   9  14  10  14  11  14  16  15
M  END
>  <DihAtoms>  (1) 
4,6,11,12

>  <DihDeg>  (1) 
0.001934799309010327

$$$$
