
 OpenBabel03252500073D

 47 50  0  0  0  0  0  0  0  0999 V2000
   37.3760   30.5730   41.6920 C   0  0  0  0  0  0  0  0  0  0  0  0
   37.1530   30.4740   40.3240 C   0  0  0  0  0  0  0  0  0  0  0  0
   36.8920   29.2210   39.7660 C   0  0  0  0  0  0  0  0  0  0  0  0
   36.8870   28.2050   40.6650 N   0  0  0  0  0  0  0  0  0  0  0  0
   37.0960   28.3080   41.9470 C   0  0  0  0  0  0  0  0  0  0  0  0
   37.3400   29.4980   42.4480 N   0  0  0  0  0  0  0  0  0  0  0  0
   37.5740   31.5340   42.1030 H   0  0  0  0  0  0  0  0  0  0  0  0
   36.6450   28.9520   38.3960 C   0  0  0  0  0  0  0  0  0  0  0  0
   37.7650   28.7610   37.5850 C   0  0  0  0  0  0  0  0  0  0  0  0
   37.7170   28.4910   36.2360 C   0  0  0  0  0  0  0  0  0  0  0  0
   36.5220   28.3950   35.6070 C   0  0  0  0  0  0  0  0  0  0  0  0
   35.3800   28.5710   36.3440 C   0  0  0  0  0  0  0  0  0  0  0  0
   34.1470   28.4870   35.7720 C   0  0  0  0  0  0  0  0  0  0  0  0
   32.9770   28.6600   36.4770 C   0  0  0  0  0  0  0  0  0  0  0  0
   33.0890   28.9330   37.8500 C   0  0  0  0  0  0  0  0  0  0  0  0
   34.3620   29.0070   38.3830 C   0  0  0  0  0  0  0  0  0  0  0  0
   35.4870   28.8410   37.6980 C   0  0  0  0  0  0  0  0  0  0  0  0
   38.7840   28.8190   38.0000 H   0  0  0  0  0  0  0  0  0  0  0  0
   38.6150   28.3520   35.6530 H   0  0  0  0  0  0  0  0  0  0  0  0
   36.4640   28.1830   34.5500 H   0  0  0  0  0  0  0  0  0  0  0  0
   34.0900   28.2740   34.7050 H   0  0  0  0  0  0  0  0  0  0  0  0
   32.0180   28.5850   35.9840 H   0  0  0  0  0  0  0  0  0  0  0  0
   32.1620   29.0560   38.3450 H   0  0  0  0  0  0  0  0  0  0  0  0
   34.2800   29.3060   39.7850 N   0  0  0  0  0  0  0  0  0  0  0  0
   34.0910   28.3660   40.2450 H   0  0  0  0  0  0  0  0  0  0  0  0
   34.3560   30.1550   40.3460 H   0  0  0  0  0  0  0  0  0  0  0  0
   37.0240   27.0080   42.6960 C   0  0  0  0  0  0  0  0  0  0  0  0
   36.0390   27.0320   43.6530 F   0  0  0  0  0  0  0  0  0  0  0  0
   38.2360   26.7030   43.2580 F   0  0  0  0  0  0  0  0  0  0  0  0
   36.7930   25.9610   41.7740 F   0  0  0  0  0  0  0  0  0  0  0  0
   37.1630   31.5910   39.3890 C   0  0  0  0  0  0  0  0  0  0  0  0
   36.1130   31.7690   39.0440 H   0  0  0  0  0  0  0  0  0  0  0  0
   37.7080   31.3360   38.4370 H   0  0  0  0  0  0  0  0  0  0  0  0
   37.7330   32.8620   39.8700 C   0  0  0  0  0  0  0  0  0  0  0  0
   37.1240   33.6570   39.3250 H   0  0  0  0  0  0  0  0  0  0  0  0
   37.7110   33.1630   40.8770 H   0  0  0  0  0  0  0  0  0  0  0  0
   40.2550   32.8370   39.9550 C   0  0  0  0  0  0  0  0  0  0  0  0
   40.1710   32.4520   41.1760 O   0  0  0  0  0  0  0  0  0  0  0  0
   39.0570   33.0140   39.1990 N   0  0  0  0  0  0  0  0  0  0  0  0
   39.1900   33.2460   38.1900 H   0  0  0  0  0  0  0  0  0  0  0  0
   41.5280   33.0880   39.3490 N   0  0  0  0  0  0  0  0  0  0  0  0
   42.8520   32.7150   39.7890 C   0  0  0  0  0  2  0  0  0  0  0  0
   43.4120   31.7370   38.7480 C   0  0  0  0  0  2  0  0  0  0  0  0
   43.3290   32.3220   37.3580 C   0  0  0  0  0  3  0  0  0  0  0  0
   44.2870   32.1880   36.8120 H   0  0  0  0  0  0  0  0  0  0  0  0
   42.8970   33.7600   37.4340 C   0  0  0  0  0  2  0  0  0  0  0  0
   41.5540   33.8280   38.0970 C   0  0  0  0  0  2  0  0  0  0  0  0
  1  7  1  0  0  0  0
  1  6  1  0  0  0  0
  2  1  2  0  0  0  0
  3  2  1  0  0  0  0
  3  4  2  0  0  0  0
  4  5  1  0  0  0  0
  5  6  2  0  0  0  0
  5 27  1  0  0  0  0
  8  3  1  0  0  0  0
  9 18  1  0  0  0  0
  9  8  2  0  0  0  0
 10  9  1  0  0  0  0
 11 10  2  0  0  0  0
 11 12  1  0  0  0  0
 12 17  1  0  0  0  0
 13 12  2  0  0  0  0
 13 14  1  0  0  0  0
 14 15  2  0  0  0  0
 15 23  1  0  0  0  0
 15 16  1  0  0  0  0
 16 24  1  0  0  0  0
 17 16  2  0  0  0  0
 17  8  1  0  0  0  0
 19 10  1  0  0  0  0
 20 11  1  0  0  0  0
 21 13  1  0  0  0  0
 22 14  1  0  0  0  0
 24 25  1  0  0  0  0
 24 26  1  0  0  0  0
 27 29  1  0  0  0  0
 27 28  1  0  0  0  0
 30 27  1  0  0  0  0
 31 34  1  0  0  0  0
 31  2  1  0  0  0  0
 32 31  1  0  0  0  0
 33 31  1  0  0  0  0
 34 36  1  0  0  0  0
 35 34  1  0  0  0  0
 37 38  2  0  0  0  0
 39 34  1  0  0  0  0
 39 37  1  0  0  0  0
 40 39  1  0  0  0  0
 41 42  1  0  0  0  0
 41 37  1  0  0  0  0
 43 42  1  0  0  0  0
 44 46  1  0  0  0  0
 44 43  1  0  0  0  0
 45 44  1  0  0  0  0
 46 47  1  0  0  0  0
 47 41  1  0  0  0  0
M  END
>  <minimizedAffinity>
-6.90339947

$$$$

 OpenBabel03252500073D

 47 50  0  0  0  0  0  0  0  0999 V2000
   35.3080   29.1060   38.9720 C   0  0  0  0  0  0  0  0  0  0  0  0
   36.1150   30.0510   39.5930 C   0  0  0  0  0  0  0  0  0  0  0  0
   36.9990   30.8040   38.8180 C   0  0  0  0  0  0  0  0  0  0  0  0
   36.9620   30.5110   37.4930 N   0  0  0  0  0  0  0  0  0  0  0  0
   36.2000   29.6220   36.9200 C   0  0  0  0  0  0  0  0  0  0  0  0
   35.3770   28.9260   37.6710 N   0  0  0  0  0  0  0  0  0  0  0  0
   34.6390   28.5390   39.5760 H   0  0  0  0  0  0  0  0  0  0  0  0
   37.8860   31.8030   39.2940 C   0  0  0  0  0  0  0  0  0  0  0  0
   37.3430   33.0720   39.5040 C   0  0  0  0  0  0  0  0  0  0  0  0
   38.0500   34.1600   39.9610 C   0  0  0  0  0  0  0  0  0  0  0  0
   39.3690   34.0400   40.2410 C   0  0  0  0  0  0  0  0  0  0  0  0
   39.9690   32.8210   40.0570 C   0  0  0  0  0  0  0  0  0  0  0  0
   41.2920   32.6340   40.3190 C   0  0  0  0  0  0  0  0  0  0  0  0
   41.9300   31.4270   40.1460 C   0  0  0  0  0  0  0  0  0  0  0  0
   41.1560   30.3530   39.6760 C   0  0  0  0  0  0  0  0  0  0  0  0
   39.8170   30.5930   39.4260 C   0  0  0  0  0  0  0  0  0  0  0  0
   39.2080   31.7610   39.5940 C   0  0  0  0  0  0  0  0  0  0  0  0
   36.2770   33.2740   39.3060 H   0  0  0  0  0  0  0  0  0  0  0  0
   37.5820   35.1220   40.1070 H   0  0  0  0  0  0  0  0  0  0  0  0
   39.9420   34.8820   40.6010 H   0  0  0  0  0  0  0  0  0  0  0  0
   41.8670   33.4840   40.6820 H   0  0  0  0  0  0  0  0  0  0  0  0
   42.9820   31.3210   40.3650 H   0  0  0  0  0  0  0  0  0  0  0  0
   41.6930   29.4480   39.5610 H   0  0  0  0  0  0  0  0  0  0  0  0
   39.1960   29.3930   38.9430 N   0  0  0  0  0  0  0  0  0  0  0  0
   38.9790   28.8350   39.8220 H   0  0  0  0  0  0  0  0  0  0  0  0
   38.9580   29.0250   38.0210 H   0  0  0  0  0  0  0  0  0  0  0  0
   36.3750   29.5190   35.4320 C   0  0  0  0  0  0  0  0  0  0  0  0
   37.3700   28.6320   35.1020 F   0  0  0  0  0  0  0  0  0  0  0  0
   36.6250   30.7510   34.8860 F   0  0  0  0  0  0  0  0  0  0  0  0
   35.1470   29.1220   34.8540 F   0  0  0  0  0  0  0  0  0  0  0  0
   36.1240   30.3410   41.0200 C   0  0  0  0  0  0  0  0  0  0  0  0
   35.0910   30.1720   41.4180 H   0  0  0  0  0  0  0  0  0  0  0  0
   36.3050   31.4340   41.2240 H   0  0  0  0  0  0  0  0  0  0  0  0
   37.0870   29.5960   41.8490 C   0  0  0  0  0  0  0  0  0  0  0  0
   38.1010   30.0040   41.5220 H   0  0  0  0  0  0  0  0  0  0  0  0
   37.1120   29.6500   42.8990 H   0  0  0  0  0  0  0  0  0  0  0  0
   38.1950   27.3340   41.7010 C   0  0  0  0  0  0  0  0  0  0  0  0
   39.0070   27.7150   42.6170 O   0  0  0  0  0  0  0  0  0  0  0  0
   37.1480   28.2140   41.2910 N   0  0  0  0  0  0  0  0  0  0  0  0
   36.4690   27.8200   40.6030 H   0  0  0  0  0  0  0  0  0  0  0  0
   38.3270   26.0450   41.0890 N   0  0  0  0  0  0  0  0  0  0  0  0
   39.0890   24.8940   41.5140 C   0  0  0  0  0  2  0  0  0  0  0  0
   38.0810   23.7840   41.8400 C   0  0  0  0  0  2  0  0  0  0  0  0
   37.1410   23.5510   40.6810 C   0  0  0  0  0  3  0  0  0  0  0  0
   37.0390   22.4660   40.4640 H   0  0  0  0  0  0  0  0  0  0  0  0
   37.5940   24.3460   39.4880 C   0  0  0  0  0  2  0  0  0  0  0  0
   37.6060   25.8000   39.8510 C   0  0  0  0  0  2  0  0  0  0  0  0
  1  7  1  0  0  0  0
  1  2  1  0  0  0  0
  2 31  1  0  0  0  0
  3  8  1  0  0  0  0
  3  2  2  0  0  0  0
  4  3  1  0  0  0  0
  5  4  2  0  0  0  0
  5  6  1  0  0  0  0
  6  1  2  0  0  0  0
  8  9  2  0  0  0  0
  8 17  1  0  0  0  0
  9 10  1  0  0  0  0
 10 19  1  0  0  0  0
 10 11  2  0  0  0  0
 11 20  1  0  0  0  0
 12 11  1  0  0  0  0
 12 13  1  0  0  0  0
 13 21  1  0  0  0  0
 14 13  2  0  0  0  0
 14 22  1  0  0  0  0
 15 14  1  0  0  0  0
 16 17  1  0  0  0  0
 16 15  2  0  0  0  0
 17 12  2  0  0  0  0
 18  9  1  0  0  0  0
 23 15  1  0  0  0  0
 24 16  1  0  0  0  0
 24 25  1  0  0  0  0
 26 24  1  0  0  0  0
 27  5  1  0  0  0  0
 28 27  1  0  0  0  0
 29 27  1  0  0  0  0
 30 27  1  0  0  0  0
 31 33  1  0  0  0  0
 31 32  1  0  0  0  0
 31 34  1  0  0  0  0
 34 36  1  0  0  0  0
 35 34  1  0  0  0  0
 37 38  2  0  0  0  0
 39 37  1  0  0  0  0
 39 34  1  0  0  0  0
 40 39  1  0  0  0  0
 41 42  1  0  0  0  0
 41 37  1  0  0  0  0
 42 43  1  0  0  0  0
 44 43  1  0  0  0  0
 45 44  1  0  0  0  0
 46 47  1  0  0  0  0
 46 44  1  0  0  0  0
 47 41  1  0  0  0  0
M  END
>  <minimizedAffinity>
-6.50442219

$$$$

 OpenBabel03252500073D

 47 50  0  0  0  0  0  0  0  0999 V2000
   35.1190   28.9400   38.3790 C   0  0  0  0  0  0  0  0  0  0  0  0
   35.9230   29.7810   39.1390 C   0  0  0  0  0  0  0  0  0  0  0  0
   36.8510   30.6000   38.4940 C   0  0  0  0  0  0  0  0  0  0  0  0
   36.8580   30.4730   37.1430 N   0  0  0  0  0  0  0  0  0  0  0  0
   36.0990   29.6820   36.4390 C   0  0  0  0  0  0  0  0  0  0  0  0
   35.2330   28.9200   37.0690 N   0  0  0  0  0  0  0  0  0  0  0  0
   34.4160   28.3210   38.8840 H   0  0  0  0  0  0  0  0  0  0  0  0
   37.7420   31.5090   39.1210 C   0  0  0  0  0  0  0  0  0  0  0  0
   37.2440   32.7860   39.3890 C   0  0  0  0  0  0  0  0  0  0  0  0
   37.9610   33.7950   39.9890 C   0  0  0  0  0  0  0  0  0  0  0  0
   39.2440   33.5820   40.3640 C   0  0  0  0  0  0  0  0  0  0  0  0
   39.7980   32.3500   40.1310 C   0  0  0  0  0  0  0  0  0  0  0  0
   41.0830   32.0710   40.4840 C   0  0  0  0  0  0  0  0  0  0  0  0
   41.6750   30.8470   40.2660 C   0  0  0  0  0  0  0  0  0  0  0  0
   40.8930   29.8570   39.6490 C   0  0  0  0  0  0  0  0  0  0  0  0
   39.5940   30.1890   39.3110 C   0  0  0  0  0  0  0  0  0  0  0  0
   39.0290   31.3710   39.5230 C   0  0  0  0  0  0  0  0  0  0  0  0
   36.2100   33.0600   39.1220 H   0  0  0  0  0  0  0  0  0  0  0  0
   37.5290   34.7670   40.1740 H   0  0  0  0  0  0  0  0  0  0  0  0
   39.8240   34.3610   40.8370 H   0  0  0  0  0  0  0  0  0  0  0  0
   41.6660   32.8580   40.9600 H   0  0  0  0  0  0  0  0  0  0  0  0
   42.6980   30.6670   40.5610 H   0  0  0  0  0  0  0  0  0  0  0  0
   41.3940   28.9350   39.5050 H   0  0  0  0  0  0  0  0  0  0  0  0
   38.9590   29.0660   38.6830 N   0  0  0  0  0  0  0  0  0  0  0  0
   38.6410   28.4540   39.4930 H   0  0  0  0  0  0  0  0  0  0  0  0
   38.7840   28.7830   37.7180 H   0  0  0  0  0  0  0  0  0  0  0  0
   36.3260   29.7580   34.9560 C   0  0  0  0  0  0  0  0  0  0  0  0
   37.3480   28.9290   34.5600 F   0  0  0  0  0  0  0  0  0  0  0  0
   36.5740   31.0490   34.5690 F   0  0  0  0  0  0  0  0  0  0  0  0
   35.1260   29.4170   34.2910 F   0  0  0  0  0  0  0  0  0  0  0  0
   35.8850   29.8930   40.5910 C   0  0  0  0  0  0  0  0  0  0  0  0
   34.9420   30.4240   40.8760 H   0  0  0  0  0  0  0  0  0  0  0  0
   36.6940   30.5720   40.9800 H   0  0  0  0  0  0  0  0  0  0  0  0
   35.9840   28.6410   41.3620 C   0  0  0  0  0  0  0  0  0  0  0  0
   35.5150   28.9030   42.3680 H   0  0  0  0  0  0  0  0  0  0  0  0
   35.5090   27.7470   41.0790 H   0  0  0  0  0  0  0  0  0  0  0  0
   37.8100   27.4140   42.5980 C   0  0  0  0  0  0  0  0  0  0  0  0
   36.9390   26.5330   42.9300 O   0  0  0  0  0  0  0  0  0  0  0  0
   37.4170   28.4940   41.7500 N   0  0  0  0  0  0  0  0  0  0  0  0
   38.1850   29.1320   41.4460 H   0  0  0  0  0  0  0  0  0  0  0  0
   39.1610   27.3270   43.0660 N   0  0  0  0  0  0  0  0  0  0  0  0
   39.8600   26.2170   43.6700 C   0  0  0  0  0  2  0  0  0  0  0  0
   40.9810   25.8140   42.7030 C   0  0  0  0  0  2  0  0  0  0  0  0
   41.8380   27.0040   42.3430 C   0  0  0  0  0  3  0  0  0  0  0  0
   42.9180   26.7560   42.4210 H   0  0  0  0  0  0  0  0  0  0  0  0
   41.4490   28.1870   43.1860 C   0  0  0  0  0  2  0  0  0  0  0  0
   40.0040   28.5040   42.9390 C   0  0  0  0  0  2  0  0  0  0  0  0
  1  7  1  0  0  0  0
  1  2  1  0  0  0  0
  2 31  1  0  0  0  0
  3  8  1  0  0  0  0
  3  2  2  0  0  0  0
  4  3  1  0  0  0  0
  5  6  1  0  0  0  0
  5  4  2  0  0  0  0
  6  1  2  0  0  0  0
  8  9  2  0  0  0  0
  8 17  1  0  0  0  0
  9 10  1  0  0  0  0
 10 19  1  0  0  0  0
 10 11  2  0  0  0  0
 11 20  1  0  0  0  0
 12 11  1  0  0  0  0
 12 13  1  0  0  0  0
 13 21  1  0  0  0  0
 14 13  2  0  0  0  0
 14 22  1  0  0  0  0
 15 14  1  0  0  0  0
 16 17  1  0  0  0  0
 16 15  2  0  0  0  0
 17 12  2  0  0  0  0
 18  9  1  0  0  0  0
 23 15  1  0  0  0  0
 24 16  1  0  0  0  0
 24 25  1  0  0  0  0
 26 24  1  0  0  0  0
 27  5  1  0  0  0  0
 28 27  1  0  0  0  0
 29 27  1  0  0  0  0
 30 27  1  0  0  0  0
 31 32  1  0  0  0  0
 31 33  1  0  0  0  0
 31 34  1  0  0  0  0
 34 39  1  0  0  0  0
 34 35  1  0  0  0  0
 36 34  1  0  0  0  0
 37 38  2  0  0  0  0
 37 41  1  0  0  0  0
 39 37  1  0  0  0  0
 40 39  1  0  0  0  0
 41 42  1  0  0  0  0
 43 42  1  0  0  0  0
 44 45  1  0  0  0  0
 44 43  1  0  0  0  0
 44 46  1  0  0  0  0
 47 41  1  0  0  0  0
 47 46  1  0  0  0  0
M  END
>  <minimizedAffinity>
-6.4893055

$$$$

 OpenBabel03252500073D

 47 50  0  0  0  0  0  0  0  0999 V2000
   36.7990   28.8910   36.5330 C   0  0  0  0  0  0  0  0  0  0  0  0
   37.2560   28.2100   37.6540 C   0  0  0  0  0  0  0  0  0  0  0  0
   36.3340   27.7690   38.6050 C   0  0  0  0  0  0  0  0  0  0  0  0
   35.0450   28.0710   38.3070 N   0  0  0  0  0  0  0  0  0  0  0  0
   34.6260   28.7100   37.2520 C   0  0  0  0  0  0  0  0  0  0  0  0
   35.5130   29.1150   36.3720 N   0  0  0  0  0  0  0  0  0  0  0  0
   37.5130   29.2220   35.8170 H   0  0  0  0  0  0  0  0  0  0  0  0
   36.6360   27.0640   39.7980 C   0  0  0  0  0  0  0  0  0  0  0  0
   36.6310   25.6700   39.7170 C   0  0  0  0  0  0  0  0  0  0  0  0
   36.8990   24.8250   40.7700 C   0  0  0  0  0  0  0  0  0  0  0  0
   37.1930   25.3350   41.9890 C   0  0  0  0  0  0  0  0  0  0  0  0
   37.2150   26.6970   42.1400 C   0  0  0  0  0  0  0  0  0  0  0  0
   37.5030   27.2730   43.3400 C   0  0  0  0  0  0  0  0  0  0  0  0
   37.5330   28.6360   43.5320 C   0  0  0  0  0  0  0  0  0  0  0  0
   37.2510   29.4480   42.4210 C   0  0  0  0  0  0  0  0  0  0  0  0
   36.9650   28.8150   41.2250 C   0  0  0  0  0  0  0  0  0  0  0  0
   36.9370   27.5000   41.0470 C   0  0  0  0  0  0  0  0  0  0  0  0
   36.4040   25.1560   38.7690 H   0  0  0  0  0  0  0  0  0  0  0  0
   36.8830   23.7520   40.6550 H   0  0  0  0  0  0  0  0  0  0  0  0
   37.4070   24.6880   42.8270 H   0  0  0  0  0  0  0  0  0  0  0  0
   37.7180   26.6190   44.1840 H   0  0  0  0  0  0  0  0  0  0  0  0
   37.7660   29.0530   44.5010 H   0  0  0  0  0  0  0  0  0  0  0  0
   37.2880   30.4860   42.6210 H   0  0  0  0  0  0  0  0  0  0  0  0
   36.6900   29.7970   40.2150 N   0  0  0  0  0  0  0  0  0  0  0  0
   37.6510   30.1050   39.8770 H   0  0  0  0  0  0  0  0  0  0  0  0
   35.8430   30.2040   39.8180 H   0  0  0  0  0  0  0  0  0  0  0  0
   33.1370   28.8970   37.1880 C   0  0  0  0  0  0  0  0  0  0  0  0
   32.6210   29.2600   38.4090 F   0  0  0  0  0  0  0  0  0  0  0  0
   32.5250   27.7620   36.7230 F   0  0  0  0  0  0  0  0  0  0  0  0
   32.8400   29.8790   36.2140 F   0  0  0  0  0  0  0  0  0  0  0  0
   38.6510   27.9000   37.9380 C   0  0  0  0  0  0  0  0  0  0  0  0
   38.7290   26.8050   38.1570 H   0  0  0  0  0  0  0  0  0  0  0  0
   39.0010   28.3820   38.8940 H   0  0  0  0  0  0  0  0  0  0  0  0
   39.6390   28.2560   36.9050 C   0  0  0  0  0  0  0  0  0  0  0  0
   40.5660   27.6590   37.1970 H   0  0  0  0  0  0  0  0  0  0  0  0
   39.5090   28.0490   35.8820 H   0  0  0  0  0  0  0  0  0  0  0  0
   41.3690   29.8520   37.8160 C   0  0  0  0  0  0  0  0  0  0  0  0
   42.1450   28.8470   37.9940 O   0  0  0  0  0  0  0  0  0  0  0  0
   40.0920   29.6440   37.2100 N   0  0  0  0  0  0  0  0  0  0  0  0
   39.5390   30.5070   37.0150 H   0  0  0  0  0  0  0  0  0  0  0  0
   41.7660   31.1690   38.2140 N   0  0  0  0  0  0  0  0  0  0  0  0
   43.0730   31.6740   38.5640 C   0  0  0  0  0  2  0  0  0  0  0  0
   43.4520   32.7140   37.5020 C   0  0  0  0  0  2  0  0  0  0  0  0
   42.3680   33.7570   37.3580 C   0  0  0  0  0  3  0  0  0  0  0  0
   42.7990   34.7810   37.3500 H   0  0  0  0  0  0  0  0  0  0  0  0
   41.3310   33.5670   38.4300 C   0  0  0  0  0  2  0  0  0  0  0  0
   40.7410   32.1960   38.2960 C   0  0  0  0  0  2  0  0  0  0  0  0
  1  2  1  0  0  0  0
  2 31  1  0  0  0  0
  2  3  2  0  0  0  0
  3  8  1  0  0  0  0
  4  3  1  0  0  0  0
  5  4  2  0  0  0  0
  6  1  2  0  0  0  0
  6  5  1  0  0  0  0
  7  1  1  0  0  0  0
  8 17  1  0  0  0  0
  9  8  2  0  0  0  0
  9 10  1  0  0  0  0
 10 11  2  0  0  0  0
 11 12  1  0  0  0  0
 11 20  1  0  0  0  0
 12 13  1  0  0  0  0
 13 14  2  0  0  0  0
 13 21  1  0  0  0  0
 14 22  1  0  0  0  0
 15 23  1  0  0  0  0
 15 14  1  0  0  0  0
 16 15  2  0  0  0  0
 17 16  1  0  0  0  0
 17 12  2  0  0  0  0
 18  9  1  0  0  0  0
 19 10  1  0  0  0  0
 24 16  1  0  0  0  0
 25 24  1  0  0  0  0
 26 24  1  0  0  0  0
 27  5  1  0  0  0  0
 27 28  1  0  0  0  0
 29 27  1  0  0  0  0
 30 27  1  0  0  0  0
 31 32  1  0  0  0  0
 31 33  1  0  0  0  0
 34 35  1  0  0  0  0
 34 39  1  0  0  0  0
 34 31  1  0  0  0  0
 36 34  1  0  0  0  0
 37 38  2  0  0  0  0
 37 41  1  0  0  0  0
 39 37  1  0  0  0  0
 40 39  1  0  0  0  0
 41 47  1  0  0  0  0
 41 42  1  0  0  0  0
 43 42  1  0  0  0  0
 44 43  1  0  0  0  0
 44 46  1  0  0  0  0
 45 44  1  0  0  0  0
 47 46  1  0  0  0  0
M  END
>  <minimizedAffinity>
-6.47820807

$$$$

 OpenBabel03252500073D

 47 50  0  0  0  0  0  0  0  0999 V2000
   37.3370   31.4250   38.1540 C   0  0  0  0  0  0  0  0  0  0  0  0
   37.4690   30.9190   39.4410 C   0  0  0  0  0  0  0  0  0  0  0  0
   37.6350   29.5440   39.6170 C   0  0  0  0  0  0  0  0  0  0  0  0
   37.6490   28.8350   38.4600 N   0  0  0  0  0  0  0  0  0  0  0  0
   37.5250   29.3200   37.2560 C   0  0  0  0  0  0  0  0  0  0  0  0
   37.3690   30.6170   37.1170 N   0  0  0  0  0  0  0  0  0  0  0  0
   37.2100   32.4750   38.0350 H   0  0  0  0  0  0  0  0  0  0  0  0
   37.7830   28.8720   40.8570 C   0  0  0  0  0  0  0  0  0  0  0  0
   36.6070   28.4860   41.5030 C   0  0  0  0  0  0  0  0  0  0  0  0
   36.5580   27.8260   42.7090 C   0  0  0  0  0  0  0  0  0  0  0  0
   37.7050   27.5090   43.3540 C   0  0  0  0  0  0  0  0  0  0  0  0
   38.8980   27.8590   42.7770 C   0  0  0  0  0  0  0  0  0  0  0  0
   40.0870   27.5680   43.3740 C   0  0  0  0  0  0  0  0  0  0  0  0
   41.3050   27.9040   42.8270 C   0  0  0  0  0  0  0  0  0  0  0  0
   41.2920   28.5760   41.5940 C   0  0  0  0  0  0  0  0  0  0  0  0
   40.0600   28.8470   41.0280 C   0  0  0  0  0  0  0  0  0  0  0  0
   38.8880   28.5210   41.5610 C   0  0  0  0  0  0  0  0  0  0  0  0
   35.6200   28.6980   41.0600 H   0  0  0  0  0  0  0  0  0  0  0  0
   35.6200   27.5490   43.1670 H   0  0  0  0  0  0  0  0  0  0  0  0
   37.6870   26.9910   44.3020 H   0  0  0  0  0  0  0  0  0  0  0  0
   40.0660   27.0470   44.3300 H   0  0  0  0  0  0  0  0  0  0  0  0
   42.2260   27.6550   43.3340 H   0  0  0  0  0  0  0  0  0  0  0  0
   42.2530   28.8100   41.2170 H   0  0  0  0  0  0  0  0  0  0  0  0
   40.2430   29.5450   39.7880 N   0  0  0  0  0  0  0  0  0  0  0  0
   40.4520   28.7790   39.0810 H   0  0  0  0  0  0  0  0  0  0  0  0
   40.2160   30.5250   39.5020 H   0  0  0  0  0  0  0  0  0  0  0  0
   37.5830   28.2930   36.1620 C   0  0  0  0  0  0  0  0  0  0  0  0
   37.3020   28.8460   34.9370 F   0  0  0  0  0  0  0  0  0  0  0  0
   36.7330   27.2510   36.4290 F   0  0  0  0  0  0  0  0  0  0  0  0
   38.8680   27.7030   36.1560 F   0  0  0  0  0  0  0  0  0  0  0  0
   37.4530   31.7130   40.6620 C   0  0  0  0  0  0  0  0  0  0  0  0
   37.9470   31.1200   41.4720 H   0  0  0  0  0  0  0  0  0  0  0  0
   36.4070   31.8630   41.0510 H   0  0  0  0  0  0  0  0  0  0  0  0
   38.0700   33.0500   40.5990 C   0  0  0  0  0  0  0  0  0  0  0  0
   38.2890   33.1960   39.4900 H   0  0  0  0  0  0  0  0  0  0  0  0
   37.5730   33.9320   40.8840 H   0  0  0  0  0  0  0  0  0  0  0  0
   40.5720   33.0510   40.2670 C   0  0  0  0  0  0  0  0  0  0  0  0
   40.3700   33.4030   39.0500 O   0  0  0  0  0  0  0  0  0  0  0  0
   39.4520   32.9050   41.1420 N   0  0  0  0  0  0  0  0  0  0  0  0
   39.6820   32.6990   42.1390 H   0  0  0  0  0  0  0  0  0  0  0  0
   41.8960   32.8060   40.7530 N   0  0  0  0  0  0  0  0  0  0  0  0
   43.1720   33.1560   40.1750 C   0  0  0  0  0  2  0  0  0  0  0  0
   43.8370   34.1580   41.1290 C   0  0  0  0  0  2  0  0  0  0  0  0
   43.8880   33.6110   42.5360 C   0  0  0  0  0  3  0  0  0  0  0  0
   44.8950   33.7530   42.9820 H   0  0  0  0  0  0  0  0  0  0  0  0
   43.4420   32.1750   42.5430 C   0  0  0  0  0  2  0  0  0  0  0  0
   42.0400   32.1010   42.0160 C   0  0  0  0  0  2  0  0  0  0  0  0
  1  2  1  0  0  0  0
  2  3  2  0  0  0  0
  2 31  1  0  0  0  0
  3  8  1  0  0  0  0
  4  3  1  0  0  0  0
  5  4  2  0  0  0  0
  6  5  1  0  0  0  0
  6  1  2  0  0  0  0
  7  1  1  0  0  0  0
  8  9  2  0  0  0  0
  8 17  1  0  0  0  0
  9 10  1  0  0  0  0
 10 19  1  0  0  0  0
 10 11  2  0  0  0  0
 11 20  1  0  0  0  0
 12 11  1  0  0  0  0
 12 13  1  0  0  0  0
 13 21  1  0  0  0  0
 14 22  1  0  0  0  0
 14 13  2  0  0  0  0
 15 14  1  0  0  0  0
 16 17  1  0  0  0  0
 16 15  2  0  0  0  0
 17 12  2  0  0  0  0
 18  9  1  0  0  0  0
 23 15  1  0  0  0  0
 24 16  1  0  0  0  0
 25 24  1  0  0  0  0
 26 24  1  0  0  0  0
 27 29  1  0  0  0  0
 27  5  1  0  0  0  0
 28 27  1  0  0  0  0
 30 27  1  0  0  0  0
 31 33  1  0  0  0  0
 31 32  1  0  0  0  0
 34 31  1  0  0  0  0
 34 36  1  0  0  0  0
 34 39  1  0  0  0  0
 35 34  1  0  0  0  0
 37 41  1  0  0  0  0
 37 39  1  0  0  0  0
 38 37  2  0  0  0  0
 39 40  1  0  0  0  0
 41 47  1  0  0  0  0
 42 41  1  0  0  0  0
 42 43  1  0  0  0  0
 43 44  1  0  0  0  0
 44 46  1  0  0  0  0
 44 45  1  0  0  0  0
 47 46  1  0  0  0  0
M  END
>  <minimizedAffinity>
-6.46551657

$$$$

 OpenBabel03252500073D

 47 50  0  0  0  0  0  0  0  0999 V2000
   37.0810   29.7800   37.4990 C   0  0  0  0  0  0  0  0  0  0  0  0
   37.4310   29.1380   38.6800 C   0  0  0  0  0  0  0  0  0  0  0  0
   36.4550   28.4310   39.3840 C   0  0  0  0  0  0  0  0  0  0  0  0
   35.2280   28.4540   38.8050 N   0  0  0  0  0  0  0  0  0  0  0  0
   34.9100   29.0590   37.6960 C   0  0  0  0  0  0  0  0  0  0  0  0
   35.8460   29.7190   37.0520 N   0  0  0  0  0  0  0  0  0  0  0  0
   37.8350   30.3160   36.9730 H   0  0  0  0  0  0  0  0  0  0  0  0
   36.6480   27.7240   40.6000 C   0  0  0  0  0  0  0  0  0  0  0  0
   36.5690   28.4730   41.7760 C   0  0  0  0  0  0  0  0  0  0  0  0
   36.7290   27.9580   43.0420 C   0  0  0  0  0  0  0  0  0  0  0  0
   36.9830   26.6390   43.2090 C   0  0  0  0  0  0  0  0  0  0  0  0
   37.0750   25.8450   42.0960 C   0  0  0  0  0  0  0  0  0  0  0  0
   37.3280   24.5100   42.1950 C   0  0  0  0  0  0  0  0  0  0  0  0
   37.4280   23.6800   41.1020 C   0  0  0  0  0  0  0  0  0  0  0  0
   37.2550   24.2620   39.8350 C   0  0  0  0  0  0  0  0  0  0  0  0
   36.9990   25.6200   39.7870 C   0  0  0  0  0  0  0  0  0  0  0  0
   36.9050   26.4160   40.8460 C   0  0  0  0  0  0  0  0  0  0  0  0
   36.3660   29.5560   41.7480 H   0  0  0  0  0  0  0  0  0  0  0  0
   36.6590   28.5810   43.9210 H   0  0  0  0  0  0  0  0  0  0  0  0
   37.1120   26.2160   44.1940 H   0  0  0  0  0  0  0  0  0  0  0  0
   37.4580   24.0860   43.1900 H   0  0  0  0  0  0  0  0  0  0  0  0
   37.6310   22.6260   41.2250 H   0  0  0  0  0  0  0  0  0  0  0  0
   37.3410   23.5820   39.0290 H   0  0  0  0  0  0  0  0  0  0  0  0
   36.8680   26.0360   38.4200 N   0  0  0  0  0  0  0  0  0  0  0  0
   35.8650   25.7900   38.1640 H   0  0  0  0  0  0  0  0  0  0  0  0
   37.4890   26.4680   37.7350 H   0  0  0  0  0  0  0  0  0  0  0  0
   33.4700   28.9080   37.2960 C   0  0  0  0  0  0  0  0  0  0  0  0
   33.1860   29.6230   36.1580 F   0  0  0  0  0  0  0  0  0  0  0  0
   32.6390   29.2810   38.3200 F   0  0  0  0  0  0  0  0  0  0  0  0
   33.1910   27.5360   37.1000 F   0  0  0  0  0  0  0  0  0  0  0  0
   38.7630   29.1310   39.2700 C   0  0  0  0  0  0  0  0  0  0  0  0
   39.4820   28.7380   38.5070 H   0  0  0  0  0  0  0  0  0  0  0  0
   38.8450   28.3880   40.1110 H   0  0  0  0  0  0  0  0  0  0  0  0
   39.2700   30.4120   39.7930 C   0  0  0  0  0  0  0  0  0  0  0  0
   38.5650   31.1880   39.3440 H   0  0  0  0  0  0  0  0  0  0  0  0
   39.2980   30.6490   40.8170 H   0  0  0  0  0  0  0  0  0  0  0  0
   40.7410   32.0190   38.5200 C   0  0  0  0  0  0  0  0  0  0  0  0
   39.8930   32.9440   38.7850 O   0  0  0  0  0  0  0  0  0  0  0  0
   40.5260   30.7080   39.0470 N   0  0  0  0  0  0  0  0  0  0  0  0
   41.2900   30.0190   38.8680 H   0  0  0  0  0  0  0  0  0  0  0  0
   41.8910   32.2840   37.7080 N   0  0  0  0  0  0  0  0  0  0  0  0
   42.4720   33.5460   37.3130 C   0  0  0  0  0  2  0  0  0  0  0  0
   43.8640   33.6190   37.9550 C   0  0  0  0  0  2  0  0  0  0  0  0
   44.6790   32.3930   37.6180 C   0  0  0  0  0  3  0  0  0  0  0  0
   45.7030   32.6730   37.2920 H   0  0  0  0  0  0  0  0  0  0  0  0
   43.9500   31.5580   36.6020 C   0  0  0  0  0  2  0  0  0  0  0  0
   42.6240   31.1500   37.1720 C   0  0  0  0  0  2  0  0  0  0  0  0
  1  2  1  0  0  0  0
  2 31  1  0  0  0  0
  2  3  2  0  0  0  0
  3  8  1  0  0  0  0
  4  3  1  0  0  0  0
  5  4  2  0  0  0  0
  6  1  2  0  0  0  0
  6  5  1  0  0  0  0
  7  1  1  0  0  0  0
  8 17  2  0  0  0  0
  8  9  1  0  0  0  0
  9 10  2  0  0  0  0
 10 11  1  0  0  0  0
 10 19  1  0  0  0  0
 11 20  1  0  0  0  0
 12 13  1  0  0  0  0
 12 11  2  0  0  0  0
 13 21  1  0  0  0  0
 14 22  1  0  0  0  0
 14 13  2  0  0  0  0
 15 14  1  0  0  0  0
 16 15  2  0  0  0  0
 16 17  1  0  0  0  0
 17 12  1  0  0  0  0
 18  9  1  0  0  0  0
 23 15  1  0  0  0  0
 24 16  1  0  0  0  0
 25 24  1  0  0  0  0
 26 24  1  0  0  0  0
 27  5  1  0  0  0  0
 27 29  1  0  0  0  0
 28 27  1  0  0  0  0
 30 27  1  0  0  0  0
 31 34  1  0  0  0  0
 31 33  1  0  0  0  0
 32 31  1  0  0  0  0
 34 36  1  0  0  0  0
 35 34  1  0  0  0  0
 37 38  2  0  0  0  0
 37 39  1  0  0  0  0
 39 34  1  0  0  0  0
 40 39  1  0  0  0  0
 41 37  1  0  0  0  0
 42 41  1  0  0  0  0
 42 43  1  0  0  0  0
 44 43  1  0  0  0  0
 45 44  1  0  0  0  0
 46 47  1  0  0  0  0
 46 44  1  0  0  0  0
 47 41  1  0  0  0  0
M  END
>  <minimizedAffinity>
-6.45584583

$$$$

 OpenBabel03252500073D

 47 50  0  0  0  0  0  0  0  0999 V2000
   36.3740   27.5280   35.0280 C   0  0  0  0  0  0  0  0  0  0  0  0
   36.4260   27.7320   36.4010 C   0  0  0  0  0  0  0  0  0  0  0  0
   36.4210   29.0370   36.8960 C   0  0  0  0  0  0  0  0  0  0  0  0
   36.3620   29.9930   35.9360 N   0  0  0  0  0  0  0  0  0  0  0  0
   36.3130   29.7930   34.6490 C   0  0  0  0  0  0  0  0  0  0  0  0
   36.3190   28.5550   34.2080 N   0  0  0  0  0  0  0  0  0  0  0  0
   36.3790   26.5280   34.6640 H   0  0  0  0  0  0  0  0  0  0  0  0
   36.4700   29.4120   38.2640 C   0  0  0  0  0  0  0  0  0  0  0  0
   35.2710   29.3370   38.9750 C   0  0  0  0  0  0  0  0  0  0  0  0
   35.1290   29.6610   40.3040 C   0  0  0  0  0  0  0  0  0  0  0  0
   36.2000   30.0880   41.0150 C   0  0  0  0  0  0  0  0  0  0  0  0
   37.4100   30.1870   40.3780 C   0  0  0  0  0  0  0  0  0  0  0  0
   38.5250   30.6090   41.0350 C   0  0  0  0  0  0  0  0  0  0  0  0
   39.7570   30.7220   40.4320 C   0  0  0  0  0  0  0  0  0  0  0  0
   39.8400   30.3770   39.0730 C   0  0  0  0  0  0  0  0  0  0  0  0
   38.6800   29.9530   38.4510 C   0  0  0  0  0  0  0  0  0  0  0  0
   37.4950   29.8470   39.0390 C   0  0  0  0  0  0  0  0  0  0  0  0
   34.3410   29.0010   38.4870 H   0  0  0  0  0  0  0  0  0  0  0  0
   34.1780   29.5860   40.8090 H   0  0  0  0  0  0  0  0  0  0  0  0
   36.1090   30.3470   42.0590 H   0  0  0  0  0  0  0  0  0  0  0  0
   38.4310   30.8700   42.0890 H   0  0  0  0  0  0  0  0  0  0  0  0
   40.6170   31.0620   40.9900 H   0  0  0  0  0  0  0  0  0  0  0  0
   40.8080   30.4810   38.6560 H   0  0  0  0  0  0  0  0  0  0  0  0
   38.9530   29.6610   37.0720 N   0  0  0  0  0  0  0  0  0  0  0  0
   39.3610   28.6790   37.0860 H   0  0  0  0  0  0  0  0  0  0  0  0
   38.8430   30.1670   36.1930 H   0  0  0  0  0  0  0  0  0  0  0  0
   36.2500   31.0470   33.8260 C   0  0  0  0  0  0  0  0  0  0  0  0
   34.9520   31.4170   33.5700 F   0  0  0  0  0  0  0  0  0  0  0  0
   36.9490   30.8960   32.6570 F   0  0  0  0  0  0  0  0  0  0  0  0
   36.9330   32.0790   34.5110 F   0  0  0  0  0  0  0  0  0  0  0  0
   36.4840   26.6770   37.4040 C   0  0  0  0  0  0  0  0  0  0  0  0
   35.8080   25.8460   37.0790 H   0  0  0  0  0  0  0  0  0  0  0  0
   36.0380   27.0060   38.3850 H   0  0  0  0  0  0  0  0  0  0  0  0
   37.8130   26.1220   37.7160 C   0  0  0  0  0  0  0  0  0  0  0  0
   37.6400   24.9940   37.7320 H   0  0  0  0  0  0  0  0  0  0  0  0
   38.6530   26.2460   37.0960 H   0  0  0  0  0  0  0  0  0  0  0  0
   38.1250   25.2960   40.0800 C   0  0  0  0  0  0  0  0  0  0  0  0
   38.0760   24.0970   39.6270 O   0  0  0  0  0  0  0  0  0  0  0  0
   38.0570   26.3890   39.1630 N   0  0  0  0  0  0  0  0  0  0  0  0
   38.1860   27.3370   39.5800 H   0  0  0  0  0  0  0  0  0  0  0  0
   38.2480   25.5470   41.4850 N   0  0  0  0  0  0  0  0  0  0  0  0
   38.6210   24.6520   42.5550 C   0  0  0  0  0  2  0  0  0  0  0  0
   39.9480   25.1660   43.1290 C   0  0  0  0  0  2  0  0  0  0  0  0
   39.8430   26.6240   43.5070 C   0  0  0  0  0  3  0  0  0  0  0  0
   40.2680   26.8050   44.5170 H   0  0  0  0  0  0  0  0  0  0  0  0
   38.4170   27.0830   43.3820 C   0  0  0  0  0  2  0  0  0  0  0  0
   37.9680   26.8900   41.9650 C   0  0  0  0  0  2  0  0  0  0  0  0
  1  2  1  0  0  0  0
  2  3  2  0  0  0  0
  2 31  1  0  0  0  0
  3  8  1  0  0  0  0
  4  3  1  0  0  0  0
  5  4  2  0  0  0  0
  6  5  1  0  0  0  0
  6  1  2  0  0  0  0
  7  1  1  0  0  0  0
  8  9  2  0  0  0  0
  8 17  1  0  0  0  0
  9 10  1  0  0  0  0
 10 19  1  0  0  0  0
 10 11  2  0  0  0  0
 11 20  1  0  0  0  0
 12 11  1  0  0  0  0
 12 13  1  0  0  0  0
 13 21  1  0  0  0  0
 14 22  1  0  0  0  0
 14 13  2  0  0  0  0
 15 14  1  0  0  0  0
 16 17  1  0  0  0  0
 16 15  2  0  0  0  0
 17 12  2  0  0  0  0
 18  9  1  0  0  0  0
 23 15  1  0  0  0  0
 24 25  1  0  0  0  0
 24 16  1  0  0  0  0
 26 24  1  0  0  0  0
 27 30  1  0  0  0  0
 27  5  1  0  0  0  0
 28 27  1  0  0  0  0
 29 27  1  0  0  0  0
 31 34  1  0  0  0  0
 31 33  1  0  0  0  0
 32 31  1  0  0  0  0
 34 35  1  0  0  0  0
 34 39  1  0  0  0  0
 36 34  1  0  0  0  0
 37 41  1  0  0  0  0
 38 37  2  0  0  0  0
 39 40  1  0  0  0  0
 39 37  1  0  0  0  0
 41 47  1  0  0  0  0
 41 42  1  0  0  0  0
 42 43  1  0  0  0  0
 43 44  1  0  0  0  0
 44 45  1  0  0  0  0
 46 44  1  0  0  0  0
 47 46  1  0  0  0  0
M  END
>  <minimizedAffinity>
-6.42328453

$$$$

 OpenBabel03252500073D

 47 50  0  0  0  0  0  0  0  0999 V2000
   37.0450   30.3640   37.7740 C   0  0  0  0  0  0  0  0  0  0  0  0
   36.6570   29.5900   38.8610 C   0  0  0  0  0  0  0  0  0  0  0  0
   37.6360   29.0520   39.6970 C   0  0  0  0  0  0  0  0  0  0  0  0
   38.9060   29.3640   39.3350 N   0  0  0  0  0  0  0  0  0  0  0  0
   39.2600   30.0920   38.3140 C   0  0  0  0  0  0  0  0  0  0  0  0
   38.3200   30.5860   37.5410 N   0  0  0  0  0  0  0  0  0  0  0  0
   36.2870   30.7670   37.1450 H   0  0  0  0  0  0  0  0  0  0  0  0
   37.4080   28.2450   40.8420 C   0  0  0  0  0  0  0  0  0  0  0  0
   37.2410   28.9160   42.0550 C   0  0  0  0  0  0  0  0  0  0  0  0
   37.0120   28.2990   43.2640 C   0  0  0  0  0  0  0  0  0  0  0  0
   36.9350   26.9490   43.3310 C   0  0  0  0  0  0  0  0  0  0  0  0
   37.0890   26.2270   42.1760 C   0  0  0  0  0  0  0  0  0  0  0  0
   37.0220   24.8670   42.1750 C   0  0  0  0  0  0  0  0  0  0  0  0
   37.1730   24.1070   41.0380 C   0  0  0  0  0  0  0  0  0  0  0  0
   37.4050   24.7920   39.8340 C   0  0  0  0  0  0  0  0  0  0  0  0
   37.4640   26.1720   39.8870 C   0  0  0  0  0  0  0  0  0  0  0  0
   37.3180   26.9000   40.9880 C   0  0  0  0  0  0  0  0  0  0  0  0
   37.2870   30.0160   42.1080 H   0  0  0  0  0  0  0  0  0  0  0  0
   36.8900   28.8640   44.1760 H   0  0  0  0  0  0  0  0  0  0  0  0
   36.7550   26.4470   44.2700 H   0  0  0  0  0  0  0  0  0  0  0  0
   36.8420   24.3630   43.1240 H   0  0  0  0  0  0  0  0  0  0  0  0
   37.1140   23.0290   41.0810 H   0  0  0  0  0  0  0  0  0  0  0  0
   37.5140   24.1630   38.9900 H   0  0  0  0  0  0  0  0  0  0  0  0
   37.7210   26.6940   38.5750 N   0  0  0  0  0  0  0  0  0  0  0  0
   36.7670   26.7050   38.1030 H   0  0  0  0  0  0  0  0  0  0  0  0
   38.5520   27.0110   38.0750 H   0  0  0  0  0  0  0  0  0  0  0  0
   40.7440   30.2710   38.1620 C   0  0  0  0  0  0  0  0  0  0  0  0
   41.0990   31.5970   38.2120 F   0  0  0  0  0  0  0  0  0  0  0  0
   41.1860   29.6960   36.9990 F   0  0  0  0  0  0  0  0  0  0  0  0
   41.3990   29.5450   39.1830 F   0  0  0  0  0  0  0  0  0  0  0  0
   35.2800   29.2800   39.2220 C   0  0  0  0  0  0  0  0  0  0  0  0
   34.6980   30.2360   39.2400 H   0  0  0  0  0  0  0  0  0  0  0  0
   35.1980   28.9060   40.2810 H   0  0  0  0  0  0  0  0  0  0  0  0
   34.5710   28.3020   38.3780 C   0  0  0  0  0  0  0  0  0  0  0  0
   34.9930   28.4850   37.3350 H   0  0  0  0  0  0  0  0  0  0  0  0
   34.6440   27.2610   38.5090 H   0  0  0  0  0  0  0  0  0  0  0  0
   32.7510   29.2870   36.9320 C   0  0  0  0  0  0  0  0  0  0  0  0
   33.5400   29.1680   35.9280 O   0  0  0  0  0  0  0  0  0  0  0  0
   33.1800   28.8150   38.2110 N   0  0  0  0  0  0  0  0  0  0  0  0
   32.4670   28.8620   38.9720 H   0  0  0  0  0  0  0  0  0  0  0  0
   31.4570   29.8830   36.7870 N   0  0  0  0  0  0  0  0  0  0  0  0
   30.6970   30.1610   35.5910 C   0  0  0  0  0  2  0  0  0  0  0  0
   29.4390   29.2840   35.6450 C   0  0  0  0  0  2  0  0  0  0  0  0
   28.6990   29.4820   36.9470 C   0  0  0  0  0  3  0  0  0  0  0  0
   27.6120   29.6220   36.7690 H   0  0  0  0  0  0  0  0  0  0  0  0
   29.3160   30.6160   37.7180 C   0  0  0  0  0  2  0  0  0  0  0  0
   30.7540   30.2900   37.9920 C   0  0  0  0  0  2  0  0  0  0  0  0
  1  2  1  0  0  0  0
  2 31  1  0  0  0  0
  2  3  2  0  0  0  0
  3  8  1  0  0  0  0
  4  3  1  0  0  0  0
  5  4  2  0  0  0  0
  6  1  2  0  0  0  0
  6  5  1  0  0  0  0
  7  1  1  0  0  0  0
  8 17  2  0  0  0  0
  8  9  1  0  0  0  0
  9 18  1  0  0  0  0
  9 10  2  0  0  0  0
 10 11  1  0  0  0  0
 10 19  1  0  0  0  0
 11 20  1  0  0  0  0
 12 11  2  0  0  0  0
 13 12  1  0  0  0  0
 13 21  1  0  0  0  0
 14 22  1  0  0  0  0
 14 13  2  0  0  0  0
 15 16  2  0  0  0  0
 15 14  1  0  0  0  0
 16 17  1  0  0  0  0
 17 12  1  0  0  0  0
 23 15  1  0  0  0  0
 24 16  1  0  0  0  0
 25 24  1  0  0  0  0
 26 24  1  0  0  0  0
 27 28  1  0  0  0  0
 27  5  1  0  0  0  0
 27 30  1  0  0  0  0
 29 27  1  0  0  0  0
 31 32  1  0  0  0  0
 31 33  1  0  0  0  0
 34 36  1  0  0  0  0
 34 31  1  0  0  0  0
 35 34  1  0  0  0  0
 37 39  1  0  0  0  0
 38 37  2  0  0  0  0
 39 34  1  0  0  0  0
 39 40  1  0  0  0  0
 41 37  1  0  0  0  0
 41 47  1  0  0  0  0
 42 43  1  0  0  0  0
 42 41  1  0  0  0  0
 43 44  1  0  0  0  0
 44 46  1  0  0  0  0
 45 44  1  0  0  0  0
 46 47  1  0  0  0  0
M  END
>  <minimizedAffinity>
-6.38499594

$$$$

 OpenBabel03252500073D

 47 50  0  0  0  0  0  0  0  0999 V2000
   37.1720   29.9240   37.8330 C   0  0  0  0  0  0  0  0  0  0  0  0
   37.4810   29.2170   38.9890 C   0  0  0  0  0  0  0  0  0  0  0  0
   36.5140   28.3850   39.5560 C   0  0  0  0  0  0  0  0  0  0  0  0
   35.3370   28.3630   38.8810 N   0  0  0  0  0  0  0  0  0  0  0  0
   35.0570   29.0300   37.7970 C   0  0  0  0  0  0  0  0  0  0  0  0
   35.9830   29.8070   37.2830 N   0  0  0  0  0  0  0  0  0  0  0  0
   37.9180   30.5550   37.4130 H   0  0  0  0  0  0  0  0  0  0  0  0
   36.6700   27.6000   40.7270 C   0  0  0  0  0  0  0  0  0  0  0  0
   36.4700   28.2510   41.9460 C   0  0  0  0  0  0  0  0  0  0  0  0
   36.5780   27.6510   43.1790 C   0  0  0  0  0  0  0  0  0  0  0  0
   36.8990   26.3390   43.2680 C   0  0  0  0  0  0  0  0  0  0  0  0
   37.1100   25.6380   42.1100 C   0  0  0  0  0  0  0  0  0  0  0  0
   37.4360   24.3160   42.1290 C   0  0  0  0  0  0  0  0  0  0  0  0
   37.6570   23.5780   40.9890 C   0  0  0  0  0  0  0  0  0  0  0  0
   37.5320   24.2440   39.7590 C   0  0  0  0  0  0  0  0  0  0  0  0
   37.1990   25.5860   39.7910 C   0  0  0  0  0  0  0  0  0  0  0  0
   36.9880   26.2920   40.8950 C   0  0  0  0  0  0  0  0  0  0  0  0
   36.2050   29.3200   41.9820 H   0  0  0  0  0  0  0  0  0  0  0  0
   36.4130   28.2000   44.0940 H   0  0  0  0  0  0  0  0  0  0  0  0
   36.9890   25.8500   44.2270 H   0  0  0  0  0  0  0  0  0  0  0  0
   37.5260   23.8250   43.0980 H   0  0  0  0  0  0  0  0  0  0  0  0
   37.9140   22.5300   41.0490 H   0  0  0  0  0  0  0  0  0  0  0  0
   37.7110   23.6330   38.9130 H   0  0  0  0  0  0  0  0  0  0  0  0
   37.1310   26.0970   38.4520 N   0  0  0  0  0  0  0  0  0  0  0  0
   36.1640   25.8170   38.1100 H   0  0  0  0  0  0  0  0  0  0  0  0
   37.7680   26.6130   37.8450 H   0  0  0  0  0  0  0  0  0  0  0  0
   33.6690   28.8050   37.2690 C   0  0  0  0  0  0  0  0  0  0  0  0
   33.4780   29.4420   36.0670 F   0  0  0  0  0  0  0  0  0  0  0  0
   32.7310   29.2060   38.1830 F   0  0  0  0  0  0  0  0  0  0  0  0
   33.4520   27.4140   37.1310 F   0  0  0  0  0  0  0  0  0  0  0  0
   38.7600   29.2630   39.6840 C   0  0  0  0  0  0  0  0  0  0  0  0
   39.2150   28.2410   39.6480 H   0  0  0  0  0  0  0  0  0  0  0  0
   38.6310   29.4500   40.7870 H   0  0  0  0  0  0  0  0  0  0  0  0
   39.7470   30.2460   39.2060 C   0  0  0  0  0  0  0  0  0  0  0  0
   39.1990   30.7990   38.3730 H   0  0  0  0  0  0  0  0  0  0  0  0
   40.1430   31.0110   39.8090 H   0  0  0  0  0  0  0  0  0  0  0  0
   41.4190   30.1150   37.3200 C   0  0  0  0  0  0  0  0  0  0  0  0
   41.2020   31.3590   37.0940 O   0  0  0  0  0  0  0  0  0  0  0  0
   40.7580   29.4840   38.4180 N   0  0  0  0  0  0  0  0  0  0  0  0
   41.0370   28.4950   38.6040 H   0  0  0  0  0  0  0  0  0  0  0  0
   42.3080   29.3600   36.4890 N   0  0  0  0  0  0  0  0  0  0  0  0
   43.2900   29.8150   35.5330 C   0  0  0  0  0  2  0  0  0  0  0  0
   44.6650   29.3940   36.0670 C   0  0  0  0  0  2  0  0  0  0  0  0
   44.6950   27.9160   36.3770 C   0  0  0  0  0  3  0  0  0  0  0  0
   45.6090   27.4410   35.9620 H   0  0  0  0  0  0  0  0  0  0  0  0
   43.4280   27.2670   35.8930 C   0  0  0  0  0  2  0  0  0  0  0  0
   42.2610   27.9100   36.5810 C   0  0  0  0  0  2  0  0  0  0  0  0
  1  2  1  0  0  0  0
  2  3  2  0  0  0  0
  2 31  1  0  0  0  0
  3  8  1  0  0  0  0
  4  3  1  0  0  0  0
  5  4  2  0  0  0  0
  6  5  1  0  0  0  0
  6  1  2  0  0  0  0
  7  1  1  0  0  0  0
  8 17  2  0  0  0  0
  8  9  1  0  0  0  0
  9 18  1  0  0  0  0
  9 10  2  0  0  0  0
 10 11  1  0  0  0  0
 10 19  1  0  0  0  0
 11 20  1  0  0  0  0
 12 13  1  0  0  0  0
 12 11  2  0  0  0  0
 13 21  1  0  0  0  0
 14 22  1  0  0  0  0
 14 13  2  0  0  0  0
 15 16  2  0  0  0  0
 15 14  1  0  0  0  0
 16 17  1  0  0  0  0
 17 12  1  0  0  0  0
 23 15  1  0  0  0  0
 24 16  1  0  0  0  0
 25 24  1  0  0  0  0
 26 24  1  0  0  0  0
 27  5  1  0  0  0  0
 27 29  1  0  0  0  0
 28 27  1  0  0  0  0
 30 27  1  0  0  0  0
 31 33  1  0  0  0  0
 32 31  1  0  0  0  0
 34 31  1  0  0  0  0
 34 36  1  0  0  0  0
 35 34  1  0  0  0  0
 37 39  1  0  0  0  0
 38 37  2  0  0  0  0
 39 40  1  0  0  0  0
 39 34  1  0  0  0  0
 41 47  1  0  0  0  0
 41 37  1  0  0  0  0
 42 43  1  0  0  0  0
 42 41  1  0  0  0  0
 43 44  1  0  0  0  0
 45 44  1  0  0  0  0
 46 44  1  0  0  0  0
 46 47  1  0  0  0  0
M  END
>  <minimizedAffinity>
-6.23877764

$$$$
