
 OpenBabel03242513113D

 18 19  0  0  0  0  0  0  0  0999 V2000
   44.6680   36.0350   44.0340 C   0  0  0  0  0  0  0  0  0  0  0  0
   45.5230   35.7580   42.9630 C   0  0  0  0  0  0  0  0  0  0  0  0
   46.3790   34.6630   43.1230 C   0  0  0  0  0  0  0  0  0  0  0  0
   46.3200   33.9610   44.2810 N   0  0  0  0  0  0  0  0  0  0  0  0
   45.4880   34.2530   45.2860 C   0  0  0  0  0  0  0  0  0  0  0  0
   44.6560   35.3080   45.1510 N   0  0  0  0  0  0  0  0  0  0  0  0
   43.9800   36.8820   43.9550 H   0  0  0  0  0  0  0  0  0  0  0  0
   45.5140   36.3540   42.0850 H   0  0  0  0  0  0  0  0  0  0  0  0
   47.0650   34.4000   42.3240 H   0  0  0  0  0  0  0  0  0  0  0  0
   45.4250   33.5020   46.5250 C   0  0  0  0  0  0  0  0  0  0  0  0
   44.6770   33.8480   47.4870 O   0  0  0  0  0  0  0  0  0  0  0  0
   46.2240   32.3360   46.6820 N   0  0  0  0  0  0  0  0  0  0  0  0
   47.2160   32.2570   47.7540 C   0  0  0  0  0  2  0  0  0  0  0  0
   47.8580   30.8740   47.7100 C   0  0  0  0  0  2  0  0  0  0  0  0
   46.8330   29.7870   47.7460 C   0  0  0  0  0  3  0  0  0  0  0  0
   47.3910   28.8260   47.6140 H   0  0  0  0  0  0  0  0  0  0  0  0
   45.8700   29.9300   46.5930 C   0  0  0  0  0  2  0  0  0  0  0  0
   46.0850   31.1970   45.7930 C   0  0  0  0  0  2  0  0  0  0  0  0
  1  6  1  0  0  0  0
  2  3  1  0  0  0  0
  2  1  2  0  0  0  0
  3  4  2  0  0  0  0
  4  5  1  0  0  0  0
  5 10  1  0  0  0  0
  6  5  2  0  0  0  0
  7  1  1  0  0  0  0
  8  2  1  0  0  0  0
  9  3  1  0  0  0  0
 10 12  1  0  0  0  0
 10 11  2  0  0  0  0
 12 13  1  0  0  0  0
 14 15  1  0  0  0  0
 14 13  1  0  0  0  0
 16 15  1  0  0  0  0
 17 15  1  0  0  0  0
 18 17  1  0  0  0  0
 18 12  1  0  0  0  0
M  END
>  <minimizedAffinity>
-4.42293978

>  <minimizedRMSD>
0.942126811

$$$$
