
 OpenBabel03242519493D

 48 51  0  0  1  0  0  0  0  0999 V2000
   45.1800   28.0240   48.0540 C   0  0  0  0  0  0  0  0  0  0  0  0
   45.5930   27.5540   48.8980 H   0  0  0  0  0  0  0  0  0  0  0  0
   43.9960   27.8940   48.4380 H   0  0  0  0  0  0  0  0  0  0  0  0
   45.0570   27.2910   46.7120 C   0  0  0  0  0  0  0  0  0  0  0  0
   45.4560   26.2660   46.8630 H   0  0  0  0  0  0  0  0  0  0  0  0
   45.6310   27.7690   45.9320 H   0  0  0  0  0  0  0  0  0  0  0  0
   43.0880   28.2800   45.6890 C   0  0  0  0  0  0  0  0  0  0  0  0
   43.6410   27.1730   46.3550 C   0  0  0  0  0  0  0  0  0  0  0  0
   42.7470   26.1540   46.5820 C   0  0  0  0  0  0  0  0  0  0  0  0
   41.4350   26.1600   46.2180 C   0  0  0  0  0  0  0  0  0  0  0  0
   40.9110   27.2630   45.5640 C   0  0  0  0  0  0  0  0  0  0  0  0
   41.7640   28.3520   45.2920 C   0  0  0  0  0  0  0  0  0  0  0  0
   43.2130   25.3160   47.0990 H   0  0  0  0  0  0  0  0  0  0  0  0
   40.8350   25.2860   46.4600 H   0  0  0  0  0  0  0  0  0  0  0  0
   39.8650   27.2310   45.2920 H   0  0  0  0  0  0  0  0  0  0  0  0
   43.7430   29.4400   45.3280 O   0  0  0  0  0  0  0  0  0  0  0  0
   44.3790   29.8570   45.9940 H   0  0  0  0  0  0  0  0  0  0  0  0
   41.1510   29.3570   44.6560 O   0  0  0  0  0  0  0  0  0  0  0  0
   40.2510   27.5420   40.2230 H   0  0  0  0  0  0  0  0  0  0  0  0
   40.1980   28.4010   40.8220 N   0  0  0  0  0  0  0  0  0  0  0  0
   41.4790   29.0300   41.0490 C   0  0  0  0  0  2  0  0  0  0  0  0
   41.9040   28.9980   42.4800 C   0  0  0  0  0  2  0  0  0  0  0  0
   40.9450   29.7800   43.3830 C   0  0  0  0  0  3  0  0  0  0  0  0
   39.5490   29.3110   42.9570 C   0  0  0  0  0  2  0  0  0  0  0  0
   39.6010   28.0720   42.1040 C   0  0  0  0  0  2  0  0  0  0  0  0
   45.1640   29.3540   47.9280 O   0  0  0  0  0  0  0  0  0  0  0  0
   45.9390   31.6000   48.0550 C   0  0  2  0  0  0  0  0  0  0  0  0
   46.9110   31.8160   46.9850 C   0  0  1  0  0  0  0  0  0  0  0  0
   47.0700   30.4590   46.4010 O   0  0  0  0  0  0  0  0  0  0  0  0
   47.4110   29.8070   47.5780 C   0  0  0  0  0  0  0  0  0  0  0  0
   46.0820   30.1690   48.4530 C   0  0  2  0  0  0  0  0  0  0  0  0
   46.0390   32.3040   48.8970 H   0  0  0  0  0  0  0  0  0  0  0  0
   47.9440   32.0000   47.3620 H   0  0  0  0  0  0  0  0  0  0  0  0
   48.2610   30.2480   48.0930 H   0  0  0  0  0  0  0  0  0  0  0  0
   47.4050   28.7320   47.4260 H   0  0  0  0  0  0  0  0  0  0  0  0
   46.5260   29.9160   49.4310 H   0  0  0  0  0  0  0  0  0  0  0  0
   45.1720   34.5650   45.3380 C   0  0  0  0  0  0  0  0  0  0  0  0
   45.7190   34.5900   44.0610 C   0  0  0  0  0  0  0  0  0  0  0  0
   46.7050   33.6390   43.7360 C   0  0  0  0  0  0  0  0  0  0  0  0
   47.0790   32.7410   44.6740 N   0  0  0  0  0  0  0  0  0  0  0  0
   46.5360   32.7320   45.9100 C   0  0  0  0  0  0  0  0  0  0  0  0
   45.5790   33.6420   46.2540 N   0  0  0  0  0  0  0  0  0  0  0  0
   45.3420   35.3560   43.3930 H   0  0  0  0  0  0  0  0  0  0  0  0
   47.1100   33.6800   42.7450 H   0  0  0  0  0  0  0  0  0  0  0  0
   44.1910   35.4840   45.7140 O   0  0  0  0  0  0  0  0  0  0  0  0
   43.3590   35.6760   45.1970 H   0  0  0  0  0  0  0  0  0  0  0  0
   44.6020   31.7500   47.4950 O   0  0  0  0  0  0  0  0  0  0  0  0
   44.5640   31.0150   46.8320 H   0  0  0  0  0  0  0  0  0  0  0  0
  1  3  1  0  0  0  0
  1  2  1  0  0  0  0
  4  5  1  0  0  0  0
  4  1  1  0  0  0  0
  6  4  1  0  0  0  0
  7  8  1  0  0  0  0
  8  9  2  0  0  0  0
  8  4  1  0  0  0  0
  9 13  1  0  0  0  0
 10 14  1  0  0  0  0
 10  9  1  0  0  0  0
 11 10  2  0  0  0  0
 12 11  1  0  0  0  0
 12  7  2  0  0  0  0
 15 11  1  0  0  0  0
 16  7  1  0  0  0  0
 16 17  1  0  0  0  0
 18 12  1  0  0  0  0
 19 20  1  0  0  0  0
 20 21  1  0  0  0  0
 20 25  1  0  0  0  0
 21 22  1  0  0  0  0
 22 23  1  0  0  0  0
 23 18  1  0  0  0  0
 24 23  1  0  0  0  0
 25 24  1  0  0  0  0
 26  1  1  0  0  0  0
 26 31  1  0  0  0  0
 27 31  1  0  0  0  0
 27 32  1  1  0  0  0
 28 33  1  1  0  0  0
 28 27  1  0  0  0  0
 29 28  1  0  0  0  0
 29 30  1  0  0  0  0
 30 34  1  0  0  0  0
 30 31  1  0  0  0  0
 31 36  1  1  0  0  0
 35 30  1  0  0  0  0
 37 45  1  0  0  0  0
 37 42  1  0  0  0  0
 38 37  2  0  0  0  0
 39 38  1  0  0  0  0
 39 40  2  0  0  0  0
 40 41  1  0  0  0  0
 41 42  2  0  0  0  0
 41 28  1  0  0  0  0
 43 38  1  0  0  0  0
 44 39  1  0  0  0  0
 46 45  1  0  0  0  0
 47 27  1  0  0  0  0
 48 47  1  0  0  0  0
M  END
>  <minimizedAffinity>
-5.94447803

>  <minimizedRMSD>
1.58345413

$$$$
