
 OpenBabel03242519493D

 48 51  0  0  1  0  0  0  0  0999 V2000
   45.1720   28.2130   48.1850 C   0  0  0  0  0  0  0  0  0  0  0  0
   45.5020   27.7970   49.0910 H   0  0  0  0  0  0  0  0  0  0  0  0
   43.9580   28.1340   48.4770 H   0  0  0  0  0  0  0  0  0  0  0  0
   45.1400   27.3880   46.8920 C   0  0  0  0  0  0  0  0  0  0  0  0
   45.5210   26.3760   47.1420 H   0  0  0  0  0  0  0  0  0  0  0  0
   45.7720   27.8100   46.1230 H   0  0  0  0  0  0  0  0  0  0  0  0
   43.2790   28.2730   45.6050 C   0  0  0  0  0  0  0  0  0  0  0  0
   43.7530   27.2490   46.4420 C   0  0  0  0  0  0  0  0  0  0  0  0
   42.8200   26.2780   46.7220 C   0  0  0  0  0  0  0  0  0  0  0  0
   41.5400   26.2590   46.2590 C   0  0  0  0  0  0  0  0  0  0  0  0
   41.0930   27.2800   45.4360 C   0  0  0  0  0  0  0  0  0  0  0  0
   41.9910   28.3150   45.1000 C   0  0  0  0  0  0  0  0  0  0  0  0
   43.2250   25.5040   47.3720 H   0  0  0  0  0  0  0  0  0  0  0  0
   40.9020   25.4300   46.5580 H   0  0  0  0  0  0  0  0  0  0  0  0
   40.0710   27.2310   45.0890 H   0  0  0  0  0  0  0  0  0  0  0  0
   43.9870   29.3690   45.1570 O   0  0  0  0  0  0  0  0  0  0  0  0
   44.5810   29.8560   45.8140 H   0  0  0  0  0  0  0  0  0  0  0  0
   41.4520   29.2420   44.3000 O   0  0  0  0  0  0  0  0  0  0  0  0
   39.1120   29.7220   40.0520 H   0  0  0  0  0  0  0  0  0  0  0  0
   39.9000   30.0840   40.6390 N   0  0  0  0  0  0  0  0  0  0  0  0
   41.0430   29.2020   40.6870 C   0  0  0  0  0  2  0  0  0  0  0  0
   41.3050   28.6520   42.0500 C   0  0  0  0  0  2  0  0  0  0  0  0
   41.6490   29.7530   43.0590 C   0  0  0  0  0  3  0  0  0  0  0  0
   40.5840   30.8310   42.8270 C   0  0  0  0  0  2  0  0  0  0  0  0
   39.4360   30.3280   41.9920 C   0  0  0  0  0  2  0  0  0  0  0  0
   45.1990   29.5310   47.9650 O   0  0  0  0  0  0  0  0  0  0  0  0
   45.9830   31.7770   48.0280 C   0  0  2  0  0  0  0  0  0  0  0  0
   46.9400   31.9650   46.9380 C   0  0  1  0  0  0  0  0  0  0  0  0
   47.0850   30.5940   46.3830 O   0  0  0  0  0  0  0  0  0  0  0  0
   47.4430   29.9680   47.5700 C   0  0  0  0  0  0  0  0  0  0  0  0
   46.1280   30.3550   48.4560 C   0  0  2  0  0  0  0  0  0  0  0  0
   46.0990   32.4990   48.8520 H   0  0  0  0  0  0  0  0  0  0  0  0
   47.9790   32.1540   47.2950 H   0  0  0  0  0  0  0  0  0  0  0  0
   48.3020   30.4170   48.0610 H   0  0  0  0  0  0  0  0  0  0  0  0
   47.4300   28.8900   47.4420 H   0  0  0  0  0  0  0  0  0  0  0  0
   46.5870   30.1220   49.4330 H   0  0  0  0  0  0  0  0  0  0  0  0
   45.1430   34.6450   45.2410 C   0  0  0  0  0  0  0  0  0  0  0  0
   45.7020   34.6700   43.9700 C   0  0  0  0  0  0  0  0  0  0  0  0
   46.7160   33.7420   43.6650 C   0  0  0  0  0  0  0  0  0  0  0  0
   47.1060   32.8650   44.6180 N   0  0  0  0  0  0  0  0  0  0  0  0
   46.5510   32.8570   45.8480 C   0  0  0  0  0  0  0  0  0  0  0  0
   45.5660   33.7440   46.1720 N   0  0  0  0  0  0  0  0  0  0  0  0
   45.3110   35.4170   43.2890 H   0  0  0  0  0  0  0  0  0  0  0  0
   47.1300   33.7820   42.6780 H   0  0  0  0  0  0  0  0  0  0  0  0
   44.1340   35.5420   45.5970 O   0  0  0  0  0  0  0  0  0  0  0  0
   43.3030   35.7050   45.0700 H   0  0  0  0  0  0  0  0  0  0  0  0
   44.6380   31.9180   47.4860 O   0  0  0  0  0  0  0  0  0  0  0  0
   44.5870   31.1680   46.8400 H   0  0  0  0  0  0  0  0  0  0  0  0
  1  3  1  0  0  0  0
  1  2  1  0  0  0  0
  4  5  1  0  0  0  0
  4  1  1  0  0  0  0
  6  4  1  0  0  0  0
  7  8  1  0  0  0  0
  8  9  2  0  0  0  0
  8  4  1  0  0  0  0
  9 13  1  0  0  0  0
 10 14  1  0  0  0  0
 10  9  1  0  0  0  0
 11 10  2  0  0  0  0
 12 11  1  0  0  0  0
 12  7  2  0  0  0  0
 15 11  1  0  0  0  0
 16  7  1  0  0  0  0
 16 17  1  0  0  0  0
 18 12  1  0  0  0  0
 19 20  1  0  0  0  0
 20 21  1  0  0  0  0
 20 25  1  0  0  0  0
 21 22  1  0  0  0  0
 22 23  1  0  0  0  0
 23 18  1  0  0  0  0
 24 23  1  0  0  0  0
 25 24  1  0  0  0  0
 26  1  1  0  0  0  0
 26 31  1  0  0  0  0
 27 31  1  0  0  0  0
 27 32  1  1  0  0  0
 28 33  1  1  0  0  0
 28 27  1  0  0  0  0
 29 28  1  0  0  0  0
 29 30  1  0  0  0  0
 30 34  1  0  0  0  0
 30 31  1  0  0  0  0
 31 36  1  1  0  0  0
 35 30  1  0  0  0  0
 37 45  1  0  0  0  0
 37 42  1  0  0  0  0
 38 37  2  0  0  0  0
 39 38  1  0  0  0  0
 39 40  2  0  0  0  0
 40 41  1  0  0  0  0
 41 42  2  0  0  0  0
 41 28  1  0  0  0  0
 43 38  1  0  0  0  0
 44 39  1  0  0  0  0
 46 45  1  0  0  0  0
 47 27  1  0  0  0  0
 48 47  1  0  0  0  0
M  END
>  <minimizedAffinity>
-6.05109215

>  <minimizedRMSD>
1.74767101

$$$$
