
 OpenBabel03252500483D

 26 28  0  0  0  0  0  0  0  0999 V2000
   44.6460   34.9750   45.8410 C   0  0  0  0  0  0  0  0  0  0  0  0
   45.1360   34.9040   44.5450 C   0  0  0  0  0  0  0  0  0  0  0  0
   46.0040   33.8880   44.1910 C   0  0  0  0  0  0  0  0  0  0  0  0
   46.3480   32.9760   45.1650 N   0  0  0  0  0  0  0  0  0  0  0  0
   45.8690   33.0590   46.4010 C   0  0  0  0  0  0  0  0  0  0  0  0
   45.0320   34.0420   46.7340 N   0  0  0  0  0  0  0  0  0  0  0  0
   43.9640   35.7430   46.1840 H   0  0  0  0  0  0  0  0  0  0  0  0
   46.4080   33.7990   43.1910 H   0  0  0  0  0  0  0  0  0  0  0  0
   46.2490   32.0840   47.4170 C   0  0  0  0  0  0  0  0  0  0  0  0
   47.4710   31.4890   47.4180 C   0  0  0  0  0  0  0  0  0  0  0  0
   47.9020   30.5670   48.3320 C   0  0  0  0  0  0  0  0  0  0  0  0
   47.0130   30.2530   49.2910 N   0  0  0  0  0  0  0  0  0  0  0  0
   45.7960   30.8390   49.2990 C   0  0  0  0  0  0  0  0  0  0  0  0
   45.3630   31.7520   48.3970 N   0  0  0  0  0  0  0  0  0  0  0  0
   48.1450   31.7990   46.5980 H   0  0  0  0  0  0  0  0  0  0  0  0
   48.8900   30.1320   48.2720 H   0  0  0  0  0  0  0  0  0  0  0  0
   45.0310   30.6140   50.0660 H   0  0  0  0  0  0  0  0  0  0  0  0
   44.7310   35.9040   43.5710 C   0  0  0  0  0  0  0  0  0  0  0  0
   43.7370   35.6030   42.8370 O   0  0  0  0  0  0  0  0  0  0  0  0
   45.3960   37.1630   43.4270 N   0  0  0  0  0  0  0  0  0  0  0  0
   44.7140   38.3190   43.9560 C   0  0  0  0  0  3  0  0  0  0  0  0
   45.3610   39.6260   43.6850 C   0  0  0  0  0  3  0  0  0  0  0  0
   46.6750   39.5840   42.9870 C   0  0  0  0  0  3  0  0  0  0  0  0
   46.5960   39.6330   41.8790 H   0  0  0  0  0  0  0  0  0  0  0  0
   47.4770   38.3410   43.3110 C   0  0  0  0  0  2  0  0  0  0  0  0
   46.6900   37.1800   42.7710 C   0  0  0  0  0  2  0  0  0  0  0  0
  1  7  1  0  0  0  0
  1  6  1  0  0  0  0
  2  1  2  0  0  0  0
  3  2  1  0  0  0  0
  3  4  2  0  0  0  0
  4  5  1  0  0  0  0
  5  6  2  0  0  0  0
  5  9  1  0  0  0  0
  8  3  1  0  0  0  0
  9 10  2  0  0  0  0
  9 14  1  0  0  0  0
 10 11  1  0  0  0  0
 11 12  2  0  0  0  0
 12 13  1  0  0  0  0
 13 17  1  0  0  0  0
 14 13  2  0  0  0  0
 15 10  1  0  0  0  0
 16 11  1  0  0  0  0
 18  2  1  0  0  0  0
 19 18  2  0  0  0  0
 20 18  1  0  0  0  0
 20 21  1  0  0  0  0
 22 21  2  0  0  0  0
 23 25  1  0  0  0  0
 23 22  1  0  0  0  0
 24 23  1  0  0  0  0
 26 25  1  0  0  0  0
 26 20  1  0  0  0  0
M  END
>  <minimizedAffinity>
2.54905152

>  <minimizedRMSD>
0.807081223

$$$$
