
 OpenBabel03252503343D

 20 21  0  0  0  0  0  0  0  0999 V2000
   45.9830   33.4220   41.1060 C   0  0  0  0  0  0  0  0  0  0  0  0
   44.8120   33.0250   41.4360 O   0  0  0  0  0  0  0  0  0  0  0  0
   46.5830   34.2570   42.0860 N   0  0  0  0  0  0  0  0  0  0  0  0
   47.5380   34.6230   41.9230 H   0  0  0  0  0  0  0  0  0  0  0  0
   46.6100   33.0570   39.8800 N   0  0  0  0  0  0  0  0  0  0  0  0
   45.8900   33.1040   38.6490 C   0  0  0  0  0  2  0  0  0  0  0  0
   46.7210   33.2090   37.4200 C   0  0  0  0  0  2  0  0  0  0  0  0
   47.9140   32.2880   37.5570 C   0  0  0  0  0  3  0  0  0  0  0  0
   48.4990   32.2000   36.6100 H   0  0  0  0  0  0  0  0  0  0  0  0
   48.7530   32.8540   38.6820 C   0  0  0  0  0  2  0  0  0  0  0  0
   48.0020   32.6450   39.9620 C   0  0  0  0  0  2  0  0  0  0  0  0
   44.5370   36.0520   44.6200 C   0  0  0  0  0  0  0  0  0  0  0  0
   45.1580   35.7730   43.3950 C   0  0  0  0  0  0  0  0  0  0  0  0
   45.9190   34.6130   43.2980 C   0  0  0  0  0  0  0  0  0  0  0  0
   46.0420   33.7890   44.3740 N   0  0  0  0  0  0  0  0  0  0  0  0
   45.4250   34.0920   45.5470 C   0  0  0  0  0  0  0  0  0  0  0  0
   44.6800   35.2110   45.6710 N   0  0  0  0  0  0  0  0  0  0  0  0
   43.9540   36.9660   44.6540 H   0  0  0  0  0  0  0  0  0  0  0  0
   45.0860   36.4000   42.5170 H   0  0  0  0  0  0  0  0  0  0  0  0
   45.5500   33.4100   46.3730 H   0  0  0  0  0  0  0  0  0  0  0  0
  1  2  2  0  0  0  0
  1  3  1  0  0  0  0
  3 14  1  0  0  0  0
  4  3  1  0  0  0  0
  5 11  1  0  0  0  0
  5  1  1  0  0  0  0
  6  5  1  0  0  0  0
  7  8  1  0  0  0  0
  7  6  1  0  0  0  0
  8 10  1  0  0  0  0
  9  8  1  0  0  0  0
 10 11  1  0  0  0  0
 12 18  1  0  0  0  0
 12 17  1  0  0  0  0
 13 12  2  0  0  0  0
 14 13  1  0  0  0  0
 14 15  2  0  0  0  0
 15 16  1  0  0  0  0
 16 17  2  0  0  0  0
 16 20  1  0  0  0  0
 19 13  1  0  0  0  0
M  END
>  <minimizedAffinity>
-4.00481892

>  <minimizedRMSD>
1.01104069

$$$$
