
 OpenBabel03252500543D

 28 29  0  0  0  0  0  0  0  0999 V2000
   46.8110   34.3220   42.0360 C   0  0  0  0  0  0  0  0  0  0  0  0
   45.4380   34.2930   41.9170 C   0  0  0  0  0  0  0  0  0  0  0  0
   44.6790   34.0340   43.0770 C   0  0  0  0  0  0  0  0  0  0  0  0
   45.3440   33.8290   44.2310 N   0  0  0  0  0  0  0  0  0  0  0  0
   46.6870   33.8620   44.3220 C   0  0  0  0  0  0  0  0  0  0  0  0
   47.4100   34.1080   43.2200 N   0  0  0  0  0  0  0  0  0  0  0  0
   43.6140   34.0200   42.9460 H   0  0  0  0  0  0  0  0  0  0  0  0
   47.1040   33.6820   45.3050 H   0  0  0  0  0  0  0  0  0  0  0  0
   47.6630   34.5830   40.8810 C   0  0  0  0  0  0  0  0  0  0  0  0
   47.1170   35.0590   40.0500 H   0  0  0  0  0  0  0  0  0  0  0  0
   48.0940   33.6330   40.5030 H   0  0  0  0  0  0  0  0  0  0  0  0
   48.7650   35.5350   41.2820 C   0  0  0  0  0  0  0  0  0  0  0  0
   48.4450   36.5820   41.2950 H   0  0  0  0  0  0  0  0  0  0  0  0
   49.1460   35.1990   42.2590 H   0  0  0  0  0  0  0  0  0  0  0  0
   49.6180   35.4220   40.5650 H   0  0  0  0  0  0  0  0  0  0  0  0
   44.9110   34.5260   40.6470 O   0  0  0  0  0  0  0  0  0  0  0  0
   44.0510   33.5850   38.3610 O   0  0  0  0  0  0  0  0  0  0  0  0
   43.7500   33.5990   39.8590 P   0  0  1  0  0  0  0  0  0  0  0  0
   43.8590   32.0140   40.4430 O   0  0  0  0  0  0  0  0  0  0  0  0
   43.8830   32.0720   41.4500 H   0  0  0  0  0  0  0  0  0  0  0  0
   42.1710   34.1530   40.1080 O   0  0  0  0  0  0  0  0  0  0  0  0
   39.6700   35.6170   40.2830 H   0  0  0  0  0  0  0  0  0  0  0  0
   39.2320   34.8970   39.6720 N   0  0  0  0  0  0  0  0  0  0  0  0
   38.9020   33.7320   40.4670 C   0  0  0  0  0  0  0  0  0  0  0  0
   40.1810   33.0940   40.9760 C   0  0  0  0  0  0  0  0  0  0  0  0
   41.2780   33.1250   39.9400 C   0  0  0  0  0  0  0  0  0  0  0  0
   40.5660   33.2010   38.5880 C   0  0  0  0  0  0  0  0  0  0  0  0
   39.9590   34.5780   38.4830 C   0  0  0  0  0  0  0  0  0  0  0  0
  1  6  1  0  0  0  0
  2  1  2  0  0  0  0
  2  3  1  0  0  0  0
  3  4  2  0  0  0  0
  4  5  1  0  0  0  0
  5  8  1  0  0  0  0
  6  5  2  0  0  0  0
  7  3  1  0  0  0  0
  9 12  1  0  0  0  0
  9  1  1  0  0  0  0
 10  9  1  0  0  0  0
 11  9  1  0  0  0  0
 12 13  1  0  0  0  0
 12 14  1  0  0  0  0
 15 12  1  0  0  0  0
 16  2  1  0  0  0  0
 18 17  2  6  0  0  0
 18 21  1  0  0  0  0
 18 19  1  0  0  0  0
 18 16  1  0  0  0  0
 19 20  1  0  0  0  0
 23 22  1  0  0  0  0
 23 24  1  0  0  0  0
 24 25  1  0  0  0  0
 26 21  1  0  0  0  0
 26 25  1  0  0  0  0
 27 26  1  0  0  0  0
 28 27  1  0  0  0  0
 28 23  1  0  0  0  0
M  END
>  <minimizedAffinity>
-4.46507311

>  <minimizedRMSD>
2.1112895

$$$$
