
 OpenBabel03252503363D

 20 21  0  0  0  0  0  0  0  0999 V2000
   38.8690   30.0040   41.9940 C   0  0  0  0  0  0  0  0  0  0  0  0
   39.2810   30.7550   42.9460 O   0  0  0  0  0  0  0  0  0  0  0  0
   39.1450   30.5370   40.7070 N   0  0  0  0  0  0  0  0  0  0  0  0
   38.8640   30.0020   39.8670 H   0  0  0  0  0  0  0  0  0  0  0  0
   38.2050   28.7630   42.2160 N   0  0  0  0  0  0  0  0  0  0  0  0
   37.6790   28.4350   43.5000 C   0  0  0  0  0  2  0  0  0  0  0  0
   36.5990   27.4110   43.5120 C   0  0  0  0  0  2  0  0  0  0  0  0
   36.9650   26.3050   42.5480 C   0  0  0  0  0  3  0  0  0  0  0  0
   36.2770   25.4290   42.6170 H   0  0  0  0  0  0  0  0  0  0  0  0
   36.9400   26.9270   41.1680 C   0  0  0  0  0  2  0  0  0  0  0  0
   38.0990   27.8720   41.0720 C   0  0  0  0  0  2  0  0  0  0  0  0
   39.8010   34.1610   40.1900 C   0  0  0  0  0  0  0  0  0  0  0  0
   39.0820   32.9710   40.3660 C   0  0  0  0  0  0  0  0  0  0  0  0
   39.8010   31.7910   40.5240 C   0  0  0  0  0  0  0  0  0  0  0  0
   41.1620   31.8170   40.5060 N   0  0  0  0  0  0  0  0  0  0  0  0
   41.8260   32.9910   40.3340 C   0  0  0  0  0  0  0  0  0  0  0  0
   41.1550   34.1520   40.1770 N   0  0  0  0  0  0  0  0  0  0  0  0
   39.2030   35.0580   40.0700 H   0  0  0  0  0  0  0  0  0  0  0  0
   38.0030   32.9060   40.3860 H   0  0  0  0  0  0  0  0  0  0  0  0
   42.9040   32.9650   40.3270 H   0  0  0  0  0  0  0  0  0  0  0  0
  1  5  1  0  0  0  0
  1  2  2  0  0  0  0
  3  1  1  0  0  0  0
  4  3  1  0  0  0  0
  5  6  1  0  0  0  0
  6  7  1  0  0  0  0
  8  9  1  0  0  0  0
  8  7  1  0  0  0  0
 10  8  1  0  0  0  0
 11 10  1  0  0  0  0
 11  5  1  0  0  0  0
 12 13  1  0  0  0  0
 13 19  1  0  0  0  0
 13 14  2  0  0  0  0
 14  3  1  0  0  0  0
 15 14  1  0  0  0  0
 16 15  2  0  0  0  0
 17 12  2  0  0  0  0
 17 16  1  0  0  0  0
 18 12  1  0  0  0  0
 20 16  1  0  0  0  0
M  END
>  <minimizedAffinity>
-4.32757044

$$$$

 OpenBabel03252503363D

 20 21  0  0  0  0  0  0  0  0999 V2000
   37.9710   29.1560   40.5490 C   0  0  0  0  0  0  0  0  0  0  0  0
   38.5640   29.4160   39.4440 O   0  0  0  0  0  0  0  0  0  0  0  0
   37.6030   30.3220   41.2700 N   0  0  0  0  0  0  0  0  0  0  0  0
   37.1060   30.2230   42.1730 H   0  0  0  0  0  0  0  0  0  0  0  0
   37.7110   27.8280   40.9960 N   0  0  0  0  0  0  0  0  0  0  0  0
   38.3710   26.7140   40.4010 C   0  0  0  0  0  2  0  0  0  0  0  0
   38.4380   25.4820   41.2330 C   0  0  0  0  0  2  0  0  0  0  0  0
   37.1020   25.2840   41.9160 C   0  0  0  0  0  3  0  0  0  0  0  0
   37.0270   24.3000   42.4360 H   0  0  0  0  0  0  0  0  0  0  0  0
   36.9510   26.4390   42.8830 C   0  0  0  0  0  2  0  0  0  0  0  0
   36.7500   27.6860   42.0770 C   0  0  0  0  0  2  0  0  0  0  0  0
   37.3690   33.6110   39.5490 C   0  0  0  0  0  0  0  0  0  0  0  0
   37.0100   32.3230   39.9710 C   0  0  0  0  0  0  0  0  0  0  0  0
   37.8930   31.6370   40.7970 C   0  0  0  0  0  0  0  0  0  0  0  0
   39.0650   32.2200   41.1720 N   0  0  0  0  0  0  0  0  0  0  0  0
   39.3790   33.4710   40.7430 C   0  0  0  0  0  0  0  0  0  0  0  0
   38.5420   34.1610   39.9400 N   0  0  0  0  0  0  0  0  0  0  0  0
   36.6530   34.1110   38.9060 H   0  0  0  0  0  0  0  0  0  0  0  0
   36.0900   31.8250   39.6960 H   0  0  0  0  0  0  0  0  0  0  0  0
   40.3180   33.8940   41.0660 H   0  0  0  0  0  0  0  0  0  0  0  0
  1  5  1  0  0  0  0
  1  3  1  0  0  0  0
  2  1  2  0  0  0  0
  3  4  1  0  0  0  0
  5 11  1  0  0  0  0
  6  5  1  0  0  0  0
  6  7  1  0  0  0  0
  7  8  1  0  0  0  0
  8  9  1  0  0  0  0
  8 10  1  0  0  0  0
 11 10  1  0  0  0  0
 12 17  2  0  0  0  0
 12 13  1  0  0  0  0
 13 14  2  0  0  0  0
 14 15  1  0  0  0  0
 14  3  1  0  0  0  0
 16 20  1  0  0  0  0
 16 15  2  0  0  0  0
 17 16  1  0  0  0  0
 18 12  1  0  0  0  0
 19 13  1  0  0  0  0
M  END
>  <minimizedAffinity>
-4.32684231

$$$$

 OpenBabel03252503363D

 20 21  0  0  0  0  0  0  0  0999 V2000
   38.5490   30.6150   40.9150 C   0  0  0  0  0  0  0  0  0  0  0  0
   37.8460   31.2520   40.0560 O   0  0  0  0  0  0  0  0  0  0  0  0
   39.9220   30.9770   40.8870 N   0  0  0  0  0  0  0  0  0  0  0  0
   40.5780   30.5270   41.5520 H   0  0  0  0  0  0  0  0  0  0  0  0
   38.0000   29.6450   41.8020 N   0  0  0  0  0  0  0  0  0  0  0  0
   36.7020   29.0990   41.5750 C   0  0  0  0  0  2  0  0  0  0  0  0
   36.4360   27.7810   42.2120 C   0  0  0  0  0  2  0  0  0  0  0  0
   37.0090   27.7930   43.6120 C   0  0  0  0  0  3  0  0  0  0  0  0
   36.7140   26.8940   44.2050 H   0  0  0  0  0  0  0  0  0  0  0  0
   38.5110   27.8860   43.4490 C   0  0  0  0  0  2  0  0  0  0  0  0
   38.8290   29.2550   42.9300 C   0  0  0  0  0  2  0  0  0  0  0  0
   41.1190   34.1610   39.3850 C   0  0  0  0  0  0  0  0  0  0  0  0
   40.6040   33.2740   40.3400 C   0  0  0  0  0  0  0  0  0  0  0  0
   40.4400   31.9430   39.9740 C   0  0  0  0  0  0  0  0  0  0  0  0
   40.7780   31.5370   38.7190 N   0  0  0  0  0  0  0  0  0  0  0  0
   41.2750   32.4260   37.8190 C   0  0  0  0  0  0  0  0  0  0  0  0
   41.4440   33.7250   38.1460 N   0  0  0  0  0  0  0  0  0  0  0  0
   41.2300   35.1900   39.7110 H   0  0  0  0  0  0  0  0  0  0  0  0
   40.3240   33.5560   41.3460 H   0  0  0  0  0  0  0  0  0  0  0  0
   41.5290   32.0600   36.8370 H   0  0  0  0  0  0  0  0  0  0  0  0
  1  5  1  0  0  0  0
  2  1  2  0  0  0  0
  3  1  1  0  0  0  0
  3  4  1  0  0  0  0
  5 11  1  0  0  0  0
  6  5  1  0  0  0  0
  6  7  1  0  0  0  0
  7  8  1  0  0  0  0
  8  9  1  0  0  0  0
 10  8  1  0  0  0  0
 11 10  1  0  0  0  0
 12 18  1  0  0  0  0
 12 13  1  0  0  0  0
 13 19  1  0  0  0  0
 14 13  2  0  0  0  0
 14  3  1  0  0  0  0
 15 14  1  0  0  0  0
 16 17  1  0  0  0  0
 16 15  2  0  0  0  0
 17 12  2  0  0  0  0
 20 16  1  0  0  0  0
M  END
>  <minimizedAffinity>
-4.29876041

$$$$

 OpenBabel03252503363D

 20 21  0  0  0  0  0  0  0  0999 V2000
   37.8300   28.7430   41.4770 C   0  0  0  0  0  0  0  0  0  0  0  0
   37.0020   29.4430   42.1580 O   0  0  0  0  0  0  0  0  0  0  0  0
   38.5290   29.5030   40.5020 N   0  0  0  0  0  0  0  0  0  0  0  0
   39.2330   29.0340   39.9040 H   0  0  0  0  0  0  0  0  0  0  0  0
   38.0220   27.3460   41.6850 N   0  0  0  0  0  0  0  0  0  0  0  0
   37.0840   26.5850   42.4430 C   0  0  0  0  0  2  0  0  0  0  0  0
   37.0810   25.1200   42.1810 C   0  0  0  0  0  2  0  0  0  0  0  0
   38.5120   24.6440   42.0640 C   0  0  0  0  0  3  0  0  0  0  0  0
   38.5930   23.5310   42.0200 H   0  0  0  0  0  0  0  0  0  0  0  0
   39.0690   25.2930   40.8160 C   0  0  0  0  0  2  0  0  0  0  0  0
   39.2100   26.7600   41.0880 C   0  0  0  0  0  2  0  0  0  0  0  0
   37.1840   32.7480   39.2840 C   0  0  0  0  0  0  0  0  0  0  0  0
   37.3480   31.3620   39.4120 C   0  0  0  0  0  0  0  0  0  0  0  0
   38.3000   30.8980   40.3120 C   0  0  0  0  0  0  0  0  0  0  0  0
   39.0400   31.7830   41.0350 N   0  0  0  0  0  0  0  0  0  0  0  0
   38.8530   33.1220   40.8850 C   0  0  0  0  0  0  0  0  0  0  0  0
   37.9360   33.6010   40.0180 N   0  0  0  0  0  0  0  0  0  0  0  0
   36.4310   33.0690   38.5710 H   0  0  0  0  0  0  0  0  0  0  0  0
   36.7820   30.6270   38.8570 H   0  0  0  0  0  0  0  0  0  0  0  0
   39.4600   33.7850   41.4790 H   0  0  0  0  0  0  0  0  0  0  0  0
  1  5  1  0  0  0  0
  1  2  2  0  0  0  0
  3  1  1  0  0  0  0
  4  3  1  0  0  0  0
  5  6  1  0  0  0  0
  7  6  1  0  0  0  0
  8  7  1  0  0  0  0
  9  8  1  0  0  0  0
 10 11  1  0  0  0  0
 10  8  1  0  0  0  0
 11  5  1  0  0  0  0
 12 13  2  0  0  0  0
 12 17  1  0  0  0  0
 13 14  1  0  0  0  0
 14  3  1  0  0  0  0
 14 15  2  0  0  0  0
 16 15  1  0  0  0  0
 16 20  1  0  0  0  0
 17 16  2  0  0  0  0
 18 12  1  0  0  0  0
 19 13  1  0  0  0  0
M  END
>  <minimizedAffinity>
-4.25575113

$$$$

 OpenBabel03252503363D

 20 21  0  0  0  0  0  0  0  0999 V2000
   38.3690   30.1500   41.1900 C   0  0  0  0  0  0  0  0  0  0  0  0
   39.2310   29.7200   42.0330 O   0  0  0  0  0  0  0  0  0  0  0  0
   37.5130   29.1280   40.7010 N   0  0  0  0  0  0  0  0  0  0  0  0
   36.7700   29.3720   40.0220 H   0  0  0  0  0  0  0  0  0  0  0  0
   38.2860   31.5150   40.7910 N   0  0  0  0  0  0  0  0  0  0  0  0
   39.3520   32.4220   41.0640 C   0  0  0  0  0  2  0  0  0  0  0  0
   39.4090   33.6300   40.1970 C   0  0  0  0  0  2  0  0  0  0  0  0
   38.0050   34.1610   40.0090 C   0  0  0  0  0  3  0  0  0  0  0  0
   37.9850   35.1520   39.4970 H   0  0  0  0  0  0  0  0  0  0  0  0
   37.2630   33.1070   39.2150 C   0  0  0  0  0  2  0  0  0  0  0  0
   37.0700   31.9170   40.1040 C   0  0  0  0  0  2  0  0  0  0  0  0
   37.0960   25.9200   42.5360 C   0  0  0  0  0  0  0  0  0  0  0  0
   36.9200   27.2680   42.1960 C   0  0  0  0  0  0  0  0  0  0  0  0
   37.6340   27.7670   41.1120 C   0  0  0  0  0  0  0  0  0  0  0  0
   38.4730   26.9500   40.4180 N   0  0  0  0  0  0  0  0  0  0  0  0
   38.6180   25.6470   40.7760 C   0  0  0  0  0  0  0  0  0  0  0  0
   37.9380   25.1350   41.8240 N   0  0  0  0  0  0  0  0  0  0  0  0
   36.5210   25.5710   43.3870 H   0  0  0  0  0  0  0  0  0  0  0  0
   36.2650   27.9500   42.7210 H   0  0  0  0  0  0  0  0  0  0  0  0
   39.2930   25.0360   40.1970 H   0  0  0  0  0  0  0  0  0  0  0  0
  1  2  2  0  0  0  0
  3 14  1  0  0  0  0
  3  1  1  0  0  0  0
  4  3  1  0  0  0  0
  5  6  1  0  0  0  0
  5  1  1  0  0  0  0
  7  6  1  0  0  0  0
  8  7  1  0  0  0  0
  9  8  1  0  0  0  0
 10  8  1  0  0  0  0
 10 11  1  0  0  0  0
 11  5  1  0  0  0  0
 12 18  1  0  0  0  0
 13 12  1  0  0  0  0
 13 19  1  0  0  0  0
 14 13  2  0  0  0  0
 15 16  2  0  0  0  0
 15 14  1  0  0  0  0
 16 17  1  0  0  0  0
 17 12  2  0  0  0  0
 20 16  1  0  0  0  0
M  END
>  <minimizedAffinity>
-4.15239477

$$$$

 OpenBabel03252503363D

 20 21  0  0  0  0  0  0  0  0999 V2000
   39.2310   29.8210   41.1340 C   0  0  0  0  0  0  0  0  0  0  0  0
   39.9010   29.7030   40.0490 O   0  0  0  0  0  0  0  0  0  0  0  0
   39.3130   31.1220   41.6980 N   0  0  0  0  0  0  0  0  0  0  0  0
   38.7970   31.3270   42.5720 H   0  0  0  0  0  0  0  0  0  0  0  0
   38.4840   28.7510   41.7060 N   0  0  0  0  0  0  0  0  0  0  0  0
   38.6910   27.4060   41.2800 C   0  0  0  0  0  2  0  0  0  0  0  0
   38.2750   26.3520   42.2440 C   0  0  0  0  0  2  0  0  0  0  0  0
   36.9490   26.7490   42.8560 C   0  0  0  0  0  3  0  0  0  0  0  0
   36.5010   25.9350   43.4750 H   0  0  0  0  0  0  0  0  0  0  0  0
   37.2220   27.9890   43.6790 C   0  0  0  0  0  2  0  0  0  0  0  0
   37.5190   29.1110   42.7310 C   0  0  0  0  0  2  0  0  0  0  0  0
   40.3250   34.1120   39.7330 C   0  0  0  0  0  0  0  0  0  0  0  0
   39.5000   33.1190   40.2770 C   0  0  0  0  0  0  0  0  0  0  0  0
   40.0830   32.1660   41.1040 C   0  0  0  0  0  0  0  0  0  0  0  0
   41.4190   32.2160   41.3620 N   0  0  0  0  0  0  0  0  0  0  0  0
   42.1890   33.1950   40.8160 C   0  0  0  0  0  0  0  0  0  0  0  0
   41.6500   34.1330   40.0100 N   0  0  0  0  0  0  0  0  0  0  0  0
   39.8310   34.8360   39.0930 H   0  0  0  0  0  0  0  0  0  0  0  0
   38.4360   33.0430   40.0970 H   0  0  0  0  0  0  0  0  0  0  0  0
   43.2420   33.1960   41.0490 H   0  0  0  0  0  0  0  0  0  0  0  0
  1  3  1  0  0  0  0
  1  5  1  0  0  0  0
  2  1  2  0  0  0  0
  3  4  1  0  0  0  0
  5 11  1  0  0  0  0
  6  5  1  0  0  0  0
  6  7  1  0  0  0  0
  7  8  1  0  0  0  0
  8  9  1  0  0  0  0
  8 10  1  0  0  0  0
 11 10  1  0  0  0  0
 12 17  2  0  0  0  0
 12 13  1  0  0  0  0
 13 14  2  0  0  0  0
 14 15  1  0  0  0  0
 14  3  1  0  0  0  0
 16 20  1  0  0  0  0
 16 15  2  0  0  0  0
 17 16  1  0  0  0  0
 18 12  1  0  0  0  0
 19 13  1  0  0  0  0
M  END
>  <minimizedAffinity>
-4.14465523

$$$$

 OpenBabel03252503363D

 20 21  0  0  0  0  0  0  0  0999 V2000
   38.7110   28.9760   40.1770 C   0  0  0  0  0  0  0  0  0  0  0  0
   38.7000   28.5010   38.9880 O   0  0  0  0  0  0  0  0  0  0  0  0
   39.5400   30.1210   40.3100 N   0  0  0  0  0  0  0  0  0  0  0  0
   39.6110   30.5910   41.2300 H   0  0  0  0  0  0  0  0  0  0  0  0
   37.9630   28.4070   41.2480 N   0  0  0  0  0  0  0  0  0  0  0  0
   37.4100   27.0970   41.1380 C   0  0  0  0  0  2  0  0  0  0  0  0
   37.1130   26.4120   42.4250 C   0  0  0  0  0  2  0  0  0  0  0  0
   36.4900   27.4110   43.3750 C   0  0  0  0  0  3  0  0  0  0  0  0
   36.1010   26.9330   44.3060 H   0  0  0  0  0  0  0  0  0  0  0  0
   37.5680   28.4280   43.6790 C   0  0  0  0  0  2  0  0  0  0  0  0
   37.8030   29.2300   42.4350 C   0  0  0  0  0  2  0  0  0  0  0  0
   42.2340   30.7800   37.8320 C   0  0  0  0  0  0  0  0  0  0  0  0
   41.5680   30.2030   38.9220 C   0  0  0  0  0  0  0  0  0  0  0  0
   40.2870   30.6560   39.2170 C   0  0  0  0  0  0  0  0  0  0  0  0
   39.7180   31.6300   38.4550 N   0  0  0  0  0  0  0  0  0  0  0  0
   40.3950   32.1660   37.4050 C   0  0  0  0  0  0  0  0  0  0  0  0
   41.6400   31.7470   37.0950 N   0  0  0  0  0  0  0  0  0  0  0  0
   43.2310   30.3990   37.6360 H   0  0  0  0  0  0  0  0  0  0  0  0
   41.9830   29.4290   39.5520 H   0  0  0  0  0  0  0  0  0  0  0  0
   39.9050   32.9350   36.8290 H   0  0  0  0  0  0  0  0  0  0  0  0
  1  3  1  0  0  0  0
  1  5  1  0  0  0  0
  2  1  2  0  0  0  0
  3  4  1  0  0  0  0
  5 11  1  0  0  0  0
  6  5  1  0  0  0  0
  6  7  1  0  0  0  0
  7  8  1  0  0  0  0
  8 10  1  0  0  0  0
  8  9  1  0  0  0  0
 11 10  1  0  0  0  0
 12 13  1  0  0  0  0
 13 14  2  0  0  0  0
 13 19  1  0  0  0  0
 14  3  1  0  0  0  0
 15 14  1  0  0  0  0
 16 15  2  0  0  0  0
 17 16  1  0  0  0  0
 17 12  2  0  0  0  0
 18 12  1  0  0  0  0
 20 16  1  0  0  0  0
M  END
>  <minimizedAffinity>
-4.08955812

$$$$

 OpenBabel03252503363D

 20 21  0  0  0  0  0  0  0  0999 V2000
   39.4340   30.3310   40.7690 C   0  0  0  0  0  0  0  0  0  0  0  0
   40.6270   30.5360   41.1860 O   0  0  0  0  0  0  0  0  0  0  0  0
   39.1030   31.1090   39.6290 N   0  0  0  0  0  0  0  0  0  0  0  0
   38.1640   31.0100   39.2030 H   0  0  0  0  0  0  0  0  0  0  0  0
   38.5410   29.4130   41.3930 N   0  0  0  0  0  0  0  0  0  0  0  0
   38.8090   28.9040   42.6980 C   0  0  0  0  0  2  0  0  0  0  0  0
   37.6290   28.3930   43.4460 C   0  0  0  0  0  2  0  0  0  0  0  0
   36.7570   27.5990   42.4970 C   0  0  0  0  0  3  0  0  0  0  0  0
   35.9340   27.0580   43.0210 H   0  0  0  0  0  0  0  0  0  0  0  0
   36.2200   28.5940   41.4910 C   0  0  0  0  0  2  0  0  0  0  0  0
   37.3630   29.0350   40.6290 C   0  0  0  0  0  2  0  0  0  0  0  0
   41.6260   32.6640   37.3830 C   0  0  0  0  0  0  0  0  0  0  0  0
   40.7470   31.7040   37.9000 C   0  0  0  0  0  0  0  0  0  0  0  0
   40.0200   32.0300   39.0390 C   0  0  0  0  0  0  0  0  0  0  0  0
   40.1750   33.2530   39.6170 N   0  0  0  0  0  0  0  0  0  0  0  0
   41.0380   34.1610   39.0870 C   0  0  0  0  0  0  0  0  0  0  0  0
   41.7570   33.8710   37.9820 N   0  0  0  0  0  0  0  0  0  0  0  0
   42.1750   32.3700   36.4940 H   0  0  0  0  0  0  0  0  0  0  0  0
   40.5940   30.7220   37.4720 H   0  0  0  0  0  0  0  0  0  0  0  0
   41.1280   35.1170   39.5770 H   0  0  0  0  0  0  0  0  0  0  0  0
  1  2  2  0  0  0  0
  1  5  1  0  0  0  0
  3  1  1  0  0  0  0
  4  3  1  0  0  0  0
  5  6  1  0  0  0  0
  6  7  1  0  0  0  0
  8  9  1  0  0  0  0
  8  7  1  0  0  0  0
 10  8  1  0  0  0  0
 11  5  1  0  0  0  0
 11 10  1  0  0  0  0
 12 13  2  0  0  0  0
 12 17  1  0  0  0  0
 13 14  1  0  0  0  0
 14 15  2  0  0  0  0
 14  3  1  0  0  0  0
 16 20  1  0  0  0  0
 16 15  1  0  0  0  0
 17 16  2  0  0  0  0
 18 12  1  0  0  0  0
 19 13  1  0  0  0  0
M  END
>  <minimizedAffinity>
-4.07001305

$$$$

 OpenBabel03252503363D

 20 21  0  0  0  0  0  0  0  0999 V2000
   39.6610   30.6480   40.3100 C   0  0  0  0  0  0  0  0  0  0  0  0
   39.8140   29.4210   39.9760 O   0  0  0  0  0  0  0  0  0  0  0  0
   38.7150   30.8250   41.3540 N   0  0  0  0  0  0  0  0  0  0  0  0
   38.5260   31.7800   41.7080 H   0  0  0  0  0  0  0  0  0  0  0  0
   40.3730   31.7150   39.6910 N   0  0  0  0  0  0  0  0  0  0  0  0
   41.0590   31.5180   38.4570 C   0  0  0  0  0  2  0  0  0  0  0  0
   41.3180   32.7470   37.6580 C   0  0  0  0  0  2  0  0  0  0  0  0
   41.7620   33.8500   38.5940 C   0  0  0  0  0  3  0  0  0  0  0  0
   42.1200   34.7560   38.0500 H   0  0  0  0  0  0  0  0  0  0  0  0
   40.5680   34.1610   39.4710 C   0  0  0  0  0  2  0  0  0  0  0  0
   40.3560   32.9930   40.3840 C   0  0  0  0  0  2  0  0  0  0  0  0
   37.6380   28.1300   43.6790 C   0  0  0  0  0  0  0  0  0  0  0  0
   38.3820   29.2040   43.1710 C   0  0  0  0  0  0  0  0  0  0  0  0
   38.0100   29.7320   41.9410 C   0  0  0  0  0  0  0  0  0  0  0  0
   36.9500   29.2060   41.2680 N   0  0  0  0  0  0  0  0  0  0  0  0
   36.2500   28.1650   41.7920 C   0  0  0  0  0  0  0  0  0  0  0  0
   36.5890   27.6300   42.9840 N   0  0  0  0  0  0  0  0  0  0  0  0
   37.9610   27.7470   44.6410 H   0  0  0  0  0  0  0  0  0  0  0  0
   39.2300   29.6500   43.6730 H   0  0  0  0  0  0  0  0  0  0  0  0
   35.4180   27.7800   41.2240 H   0  0  0  0  0  0  0  0  0  0  0  0
  1  3  1  0  0  0  0
  2  1  2  0  0  0  0
  3  4  1  0  0  0  0
  3 14  1  0  0  0  0
  5  1  1  0  0  0  0
  5 11  1  0  0  0  0
  6  5  1  0  0  0  0
  7  6  1  0  0  0  0
  7  8  1  0  0  0  0
  8 10  1  0  0  0  0
  9  8  1  0  0  0  0
 10 11  1  0  0  0  0
 12 18  1  0  0  0  0
 13 19  1  0  0  0  0
 13 12  1  0  0  0  0
 14 13  2  0  0  0  0
 15 16  2  0  0  0  0
 15 14  1  0  0  0  0
 16 17  1  0  0  0  0
 17 12  2  0  0  0  0
 20 16  1  0  0  0  0
M  END
>  <minimizedAffinity>
-4.06456137

$$$$
