
 OpenBabel03242519103D

 45 48  0  0  1  0  0  0  0  0999 V2000
   48.2640   32.9510   38.6120 N   0  0  0  0  0  0  0  0  0  0  0  0
   49.2750   33.1270   38.3510 H   0  0  0  0  0  0  0  0  0  0  0  0
   47.4950   34.1590   41.8750 N   0  0  0  0  0  0  0  0  0  0  0  0
   47.3730   34.3360   40.4320 C   0  0  0  0  0  0  0  0  0  0  0  0
   47.8790   32.9890   39.9930 C   0  0  2  0  0  0  0  0  0  0  0  0
   49.1610   32.8680   40.8140 C   0  0  0  0  0  0  0  0  0  0  0  0
   48.7850   33.5440   42.1050 C   0  0  0  0  0  0  0  0  0  0  0  0
   47.9850   35.1710   40.0660 H   0  0  0  0  0  0  0  0  0  0  0  0
   46.3230   34.5240   40.1910 H   0  0  0  0  0  0  0  0  0  0  0  0
   47.1680   32.2200   40.2930 H   0  0  0  0  0  0  0  0  0  0  0  0
   49.9230   33.4970   40.2830 H   0  0  0  0  0  0  0  0  0  0  0  0
   49.4740   31.8180   40.9470 H   0  0  0  0  0  0  0  0  0  0  0  0
   49.5570   34.2710   42.4250 H   0  0  0  0  0  0  0  0  0  0  0  0
   48.6410   32.7830   42.8840 H   0  0  0  0  0  0  0  0  0  0  0  0
   44.8610   35.7870   43.9470 C   0  0  0  0  0  0  0  0  0  0  0  0
   45.7080   35.5560   42.8660 C   0  0  0  0  0  0  0  0  0  0  0  0
   46.5970   34.4880   42.9000 C   0  0  0  0  0  0  0  0  0  0  0  0
   46.5800   33.7180   44.0160 N   0  0  0  0  0  0  0  0  0  0  0  0
   45.7690   33.9280   45.0630 C   0  0  0  0  0  0  0  0  0  0  0  0
   44.9090   34.9650   45.0250 N   0  0  0  0  0  0  0  0  0  0  0  0
   44.1630   36.6250   43.9210 H   0  0  0  0  0  0  0  0  0  0  0  0
   45.7040   36.1820   41.9890 H   0  0  0  0  0  0  0  0  0  0  0  0
   45.7960   33.2790   45.9330 H   0  0  0  0  0  0  0  0  0  0  0  0
   48.0560   32.0930   36.2900 C   0  0  0  0  0  0  0  0  0  0  0  0
   47.5340   32.7120   37.4360 C   0  0  0  0  0  0  0  0  0  0  0  0
   46.2150   33.0730   37.3030 C   0  0  0  0  0  0  0  0  0  0  0  0
   45.4270   32.8850   36.2080 C   0  0  0  0  0  0  0  0  0  0  0  0
   45.9840   32.2720   35.1060 C   0  0  0  0  0  0  0  0  0  0  0  0
   47.3010   31.8810   35.1630 C   0  0  0  0  0  0  0  0  0  0  0  0
   45.7440   33.5590   38.1530 H   0  0  0  0  0  0  0  0  0  0  0  0
   44.3980   33.1890   36.1620 H   0  0  0  0  0  0  0  0  0  0  0  0
   45.3840   32.1060   34.2160 H   0  0  0  0  0  0  0  0  0  0  0  0
   48.3690   32.0730   32.9800 C   0  0  0  0  0  0  0  0  0  0  0  0
   48.3880   33.3340   33.0840 O   0  0  0  0  0  0  0  0  0  0  0  0
   47.8520   31.2470   34.0020 N   0  0  0  0  0  0  0  0  0  0  0  0
   47.8740   30.2230   33.9080 H   0  0  0  0  0  0  0  0  0  0  0  0
   48.9050   31.5700   31.7620 N   0  0  0  0  0  0  0  0  0  0  0  0
   49.4150   32.4500   30.7630 C   0  0  0  0  0  0  0  0  0  0  0  0
   49.0640   32.1210   29.3540 C   0  0  0  0  0  0  0  0  0  0  0  0
   48.6400   30.7190   29.0900 C   0  0  0  0  0  0  0  0  0  0  0  0
   47.8690   30.7180   28.2710 H   0  0  0  0  0  0  0  0  0  0  0  0
   48.0130   30.0030   30.2430 C   0  0  0  0  0  0  0  0  0  0  0  0
   48.9940   30.1650   31.4090 C   0  0  0  0  0  0  0  0  0  0  0  0
   50.5600   31.3430   36.3800 N   0  0  0  0  0  0  0  0  0  0  0  0
   49.4540   31.6780   36.3480 C   0  0  0  0  0  0  0  0  0  0  0  0
  1  5  1  0  0  0  0
  2  1  1  0  0  0  0
  3  7  1  0  0  0  0
  3 17  1  0  0  0  0
  4  3  1  0  0  0  0
  5 10  1  1  0  0  0
  5  4  1  0  0  0  0
  5  6  1  0  0  0  0
  6 12  1  0  0  0  0
  6  7  1  0  0  0  0
  7 13  1  0  0  0  0
  7 14  1  0  0  0  0
  8  4  1  0  0  0  0
  9  4  1  0  0  0  0
 11  6  1  0  0  0  0
 15 20  1  0  0  0  0
 16 17  1  0  0  0  0
 16 15  2  0  0  0  0
 17 18  2  0  0  0  0
 18 19  1  0  0  0  0
 19 23  1  0  0  0  0
 20 19  2  0  0  0  0
 21 15  1  0  0  0  0
 22 16  1  0  0  0  0
 24 45  1  0  0  0  0
 24 25  1  0  0  0  0
 25  1  1  0  0  0  0
 26 25  2  0  0  0  0
 26 30  1  0  0  0  0
 27 26  1  0  0  0  0
 28 29  1  0  0  0  0
 28 27  2  0  0  0  0
 29 24  2  0  0  0  0
 31 27  1  0  0  0  0
 32 28  1  0  0  0  0
 33 34  2  0  0  0  0
 33 35  1  0  0  0  0
 35 29  1  0  0  0  0
 36 35  1  0  0  0  0
 37 33  1  0  0  0  0
 38 37  1  0  0  0  0
 39 38  1  0  0  0  0
 40 39  1  0  0  0  0
 40 42  1  0  0  0  0
 41 40  1  0  0  0  0
 42 43  1  0  0  0  0
 43 37  1  0  0  0  0
 45 44  3  0  0  0  0
M  END
>  <minimizedAffinity>
-6.50390387

>  <minimizedRMSD>
1.24016452

$$$$
