
     RDKit          3D

 29 30  0  0  0  0  0  0  0  0999 V2000
   44.5328   36.0452   44.5582 C   0  0  0  0  0  0  0  0  0  0  0  0
   45.2463   36.0065   43.3524 C   0  0  0  0  0  0  0  0  0  0  0  0
   46.1321   34.9551   43.1495 C   0  0  0  0  0  0  0  0  0  0  0  0
   46.2847   34.0021   44.1100 N   0  0  0  0  0  0  0  0  0  0  0  0
   45.5759   34.0714   45.2680 C   0  0  0  0  0  0  0  0  0  0  0  0
   44.7089   35.0811   45.4917 N   0  0  0  0  0  0  0  0  0  0  0  0
   46.3947   34.2017   40.7856 C   0  0  0  0  0  0  0  0  0  0  0  0
   45.2126   33.7351   40.9408 O   0  0  0  0  0  0  0  0  0  0  0  0
   46.8960   34.8428   41.9497 N   0  0  0  0  0  0  0  0  0  0  0  0
   43.8526   36.8817   44.6765 H   0  0  0  0  0  0  0  0  0  0  0  0
   45.1544   36.7428   42.5646 H   0  0  0  0  0  0  0  0  0  0  0  0
   45.7294   33.2945   45.9998 H   0  0  0  0  0  0  0  0  0  0  0  0
   47.8498   35.2460   41.9346 H   0  0  0  0  0  0  0  0  0  0  0  0
   47.1228   34.0844   39.5674 N   0  0  0  0  0  0  0  0  0  0  0  0
   47.8300   35.2004   39.0283 C   0  0  0  0  0  0  0  0  0  0  0  0
   48.9339   34.8703   38.0865 C   0  0  0  0  0  0  0  0  0  0  0  0
   48.4747   33.7597   37.1679 C   0  0  0  0  0  0  0  0  0  0  0  0
   49.1939   33.5658   36.3367 H   0  0  0  0  0  0  0  0  0  0  0  0
   48.2909   32.5396   38.0445 C   0  0  0  0  0  0  0  0  0  0  0  0
   47.1005   32.7826   38.9209 C   0  0  0  0  0  0  0  0  0  0  0  0
   48.2763   35.8121   39.8659 H   0  0  0  0  0  0  0  0  0  0  0  0
   47.1072   35.8690   38.5176 H   0  0  0  0  0  0  0  0  0  0  0  0
   49.8602   34.5263   38.5972 H   0  0  0  0  0  0  0  0  0  0  0  0
   49.1096   35.7620   37.4496 H   0  0  0  0  0  0  0  0  0  0  0  0
   47.4567   34.0379   36.8015 H   0  0  0  0  0  0  0  0  0  0  0  0
   48.0955   31.6863   37.3958 H   0  0  0  0  0  0  0  0  0  0  0  0
   49.2170   32.3526   38.5969 H   0  0  0  0  0  0  0  0  0  0  0  0
   46.2109   32.8344   38.2265 H   0  0  0  0  0  0  0  0  0  0  0  0
   46.9042   31.9656   39.6410 H   0  0  0  0  0  0  0  0  0  0  0  0
  1  6  2  0
  2  1  1  0
  3  2  2  0
  3  4  1  0
  4  5  2  0
  5  6  1  0
  7  8  2  0
  7  9  1  0
  9  3  1  0
  1 10  1  0
  2 11  1  0
  5 12  1  0
  9 13  1  0
 14 15  1  0
 15 16  1  0
 16 17  1  0
 17 18  1  0
 17 19  1  0
 19 20  1  0
 20 14  1  0
 15 21  1  0
 15 22  1  0
 16 23  1  0
 16 24  1  0
 17 25  1  0
 19 26  1  0
 19 27  1  0
 20 28  1  0
 20 29  1  0
  7 14  1  0
M  ISO  4  10  14  11  14  12  14  18  15
M  END
>  <DihAtoms>  (1) 
7,6,13,14

>  <DihDeg>  (1) 
-179.99861423340718

$$$$
