
 OpenBabel03252509123D

 30 33  0  0  0  0  0  0  0  0999 V2000
   47.8040   32.2140   44.0390 C   0  0  0  0  0  0  0  0  0  0  0  0
   47.1250   33.3200   43.5160 C   0  0  0  0  0  0  0  0  0  0  0  0
   46.1430   34.0080   44.2110 C   0  0  0  0  0  0  0  0  0  0  0  0
   45.8080   33.5850   45.4970 C   0  0  0  0  0  0  0  0  0  0  0  0
   44.9360   33.9890   46.4480 N   0  0  0  0  0  0  0  0  0  0  0  0
   45.0460   33.1850   47.5300 C   0  0  0  0  0  0  0  0  0  0  0  0
   45.9930   32.2910   47.2260 N   0  0  0  0  0  0  0  0  0  0  0  0
   46.4790   32.5040   45.9970 C   0  0  0  0  0  0  0  0  0  0  0  0
   47.4630   31.7990   45.3240 C   0  0  0  0  0  0  0  0  0  0  0  0
   48.5690   31.7050   43.4520 H   0  0  0  0  0  0  0  0  0  0  0  0
   44.2820   34.7970   46.3560 H   0  0  0  0  0  0  0  0  0  0  0  0
   44.4480   33.2960   48.4480 H   0  0  0  0  0  0  0  0  0  0  0  0
   47.9600   30.9500   45.7700 H   0  0  0  0  0  0  0  0  0  0  0  0
   47.2860   33.5310   39.8540 C   0  0  0  0  0  0  0  0  0  0  0  0
   48.1150   34.6230   39.6420 C   0  0  0  0  0  0  0  0  0  0  0  0
   48.6170   35.2840   40.7560 C   0  0  0  0  0  0  0  0  0  0  0  0
   48.2750   34.8350   42.0040 N   0  0  0  0  0  0  0  0  0  0  0  0
   47.4680   33.7720   42.1680 C   0  0  0  0  0  0  0  0  0  0  0  0
   46.9720   33.1190   41.1050 N   0  0  0  0  0  0  0  0  0  0  0  0
   46.9180   33.0480   38.9530 H   0  0  0  0  0  0  0  0  0  0  0  0
   48.4250   35.0320   38.7040 H   0  0  0  0  0  0  0  0  0  0  0  0
   49.2610   36.1330   40.7420 H   0  0  0  0  0  0  0  0  0  0  0  0
   45.2990   35.4090   43.5190 S   0  0  0  0  0  0  0  0  0  0  0  0
   42.3770   33.0590   39.7100 H   0  0  0  0  0  0  0  0  0  0  0  0
   42.3770   33.7750   40.4770 N   0  0  0  0  0  0  0  0  0  0  0  0
   42.6070   33.0820   41.7060 C   0  0  0  0  0  0  0  0  0  0  0  0
   43.9180   33.4940   42.2890 C   0  0  0  0  0  0  0  0  0  0  0  0
   43.8370   34.9930   42.5750 C   0  0  0  0  0  0  0  0  0  0  0  0
   43.7070   35.6990   41.2650 C   0  0  0  0  0  0  0  0  0  0  0  0
   43.3570   34.7600   40.1340 C   0  0  0  0  0  0  0  0  0  0  0  0
  1  9  1  0  0  0  0
  2  1  2  0  0  0  0
  2  3  1  0  0  0  0
  3  4  2  0  0  0  0
  4  8  1  0  0  0  0
  4  5  1  0  0  0  0
  5  6  1  0  0  0  0
  6 12  1  0  0  0  0
  7  6  2  0  0  0  0
  8  7  1  0  0  0  0
  9 13  1  0  0  0  0
  9  8  2  0  0  0  0
 10  1  1  0  0  0  0
 11  5  1  0  0  0  0
 14 19  1  0  0  0  0
 15 14  2  0  0  0  0
 15 16  1  0  0  0  0
 16 17  2  0  0  0  0
 17 18  1  0  0  0  0
 18  2  1  0  0  0  0
 19 18  2  0  0  0  0
 20 14  1  0  0  0  0
 21 15  1  0  0  0  0
 22 16  1  0  0  0  0
 23  3  1  0  0  0  0
 24 25  1  0  0  0  0
 25 26  1  0  0  0  0
 26 27  1  0  0  0  0
 27 28  1  0  0  0  0
 28 23  1  0  0  0  0
 29 28  1  0  0  0  0
 30 25  1  0  0  0  0
 30 29  1  0  0  0  0
M  END
>  <minimizedAffinity>
-5.26503897

>  <minimizedRMSD>
1.45489037

$$$$
