
 OpenBabel03252509003D

 43 45  0  0  1  0  0  0  0  0999 V2000
   46.7320   34.4460   43.4310 N   0  0  0  0  0  0  0  0  0  0  0  0
   46.2550   35.6060   42.7540 C   0  0  0  0  0  0  0  0  0  0  0  0
   44.7670   35.8560   42.8880 C   0  0  0  0  0  0  0  0  0  0  0  0
   44.1870   35.4490   44.2060 C   0  0  0  0  0  0  0  0  0  0  0  0
   45.2400   34.9290   45.1510 C   0  0  0  0  0  0  0  0  0  0  0  0
   45.9270   33.7760   44.3360 C   0  0  2  0  0  0  0  0  0  0  0  0
   46.7520   36.4990   43.2330 H   0  0  0  0  0  0  0  0  0  0  0  0
   46.5030   35.6810   41.6900 H   0  0  0  0  0  0  0  0  0  0  0  0
   44.2760   35.2020   42.1240 H   0  0  0  0  0  0  0  0  0  0  0  0
   44.5590   36.8940   42.6030 H   0  0  0  0  0  0  0  0  0  0  0  0
   43.8030   36.3970   44.6810 H   0  0  0  0  0  0  0  0  0  0  0  0
   43.3460   34.7540   44.1580 H   0  0  0  0  0  0  0  0  0  0  0  0
   44.7980   34.4570   46.0280 H   0  0  0  0  0  0  0  0  0  0  0  0
   46.0140   35.6960   45.3550 H   0  0  0  0  0  0  0  0  0  0  0  0
   45.0840   33.1740   43.9670 H   0  0  0  0  0  0  0  0  0  0  0  0
   47.7290   33.7210   42.7120 C   0  0  0  0  0  0  0  0  0  0  0  0
   48.3480   33.1060   43.3870 H   0  0  0  0  0  0  0  0  0  0  0  0
   48.3920   34.4450   42.2020 H   0  0  0  0  0  0  0  0  0  0  0  0
   47.0560   32.8160   41.7240 C   0  0  0  0  0  0  0  0  0  0  0  0
   47.0710   31.7650   42.0400 H   0  0  0  0  0  0  0  0  0  0  0  0
   45.9670   33.0660   41.5900 H   0  0  0  0  0  0  0  0  0  0  0  0
   49.2090   32.1130   38.7300 C   0  0  0  0  0  0  0  0  0  0  0  0
   48.5890   31.9850   39.9830 C   0  0  0  0  0  0  0  0  0  0  0  0
   47.7050   32.9560   40.4030 C   0  0  0  0  0  0  0  0  0  0  0  0
   47.4740   33.9960   39.5760 N   0  0  0  0  0  0  0  0  0  0  0  0
   48.0790   34.1030   38.3740 C   0  0  0  0  0  0  0  0  0  0  0  0
   48.9450   33.1720   37.9390 N   0  0  0  0  0  0  0  0  0  0  0  0
   49.9070   31.3830   38.3540 H   0  0  0  0  0  0  0  0  0  0  0  0
   48.8530   31.1150   40.5480 H   0  0  0  0  0  0  0  0  0  0  0  0
   47.7610   35.0110   37.8600 H   0  0  0  0  0  0  0  0  0  0  0  0
   46.6770   33.1450   45.3150 O   0  0  0  0  0  0  0  0  0  0  0  0
   45.4240   31.0140   44.3460 O   0  0  0  0  0  0  0  0  0  0  0  0
   46.2830   31.5220   45.5090 P   0  0  2  0  0  0  0  0  0  0  0  0
   45.2590   31.4400   46.8770 O   0  0  0  0  0  0  0  0  0  0  0  0
   45.8410   31.5730   47.6800 H   0  0  0  0  0  0  0  0  0  0  0  0
   47.5980   30.5500   45.8030 O   0  0  0  0  0  0  0  0  0  0  0  0
   50.2950   27.6370   42.5670 H   0  0  0  0  0  0  0  0  0  0  0  0
   49.9550   28.2570   43.3100 N   0  0  0  0  0  0  0  0  0  0  0  0
   49.0030   27.5960   44.1580 C   0  0  0  0  0  2  0  0  0  0  0  0
   48.7180   28.5250   45.3270 C   0  0  0  0  0  2  0  0  0  0  0  0
   47.9550   29.7150   44.7660 C   0  0  0  0  0  3  0  0  0  0  0  0
   48.8810   30.3990   43.7850 C   0  0  0  0  0  2  0  0  0  0  0  0
   49.3460   29.4280   42.7410 C   0  0  0  0  0  2  0  0  0  0  0  0
  1  6  1  0  0  0  0
  2  3  1  0  0  0  0
  2  7  1  0  0  0  0
  2  1  1  0  0  0  0
  3  4  1  0  0  0  0
  4 11  1  0  0  0  0
  4  5  1  0  0  0  0
  5 14  1  0  0  0  0
  5 13  1  0  0  0  0
  6 15  1  6  0  0  0
  6  5  1  0  0  0  0
  6 31  1  0  0  0  0
  8  2  1  0  0  0  0
  9  3  1  0  0  0  0
 10  3  1  0  0  0  0
 12  4  1  0  0  0  0
 16 17  1  0  0  0  0
 16  1  1  0  0  0  0
 18 16  1  0  0  0  0
 19 20  1  0  0  0  0
 19 16  1  0  0  0  0
 21 19  1  0  0  0  0
 22 23  1  0  0  0  0
 23 24  2  0  0  0  0
 23 29  1  0  0  0  0
 24 19  1  0  0  0  0
 25 24  1  0  0  0  0
 26 25  2  0  0  0  0
 27 26  1  0  0  0  0
 27 22  2  0  0  0  0
 28 22  1  0  0  0  0
 30 26  1  0  0  0  0
 31 33  1  0  0  0  0
 33 32  2  6  0  0  0
 33 36  1  0  0  0  0
 33 34  1  0  0  0  0
 34 35  1  0  0  0  0
 37 38  1  0  0  0  0
 38 39  1  0  0  0  0
 39 40  1  0  0  0  0
 41 40  1  0  0  0  0
 41 36  1  0  0  0  0
 42 41  1  0  0  0  0
 43 38  1  0  0  0  0
 43 42  1  0  0  0  0
M  END
>  <minimizedAffinity>
-3.90642548

>  <minimizedRMSD>
0.745447934

$$$$
