
 OpenBabel03242514553D

 17 18  0  0  1  0  0  0  0  0999 V2000
   46.3070   34.1670   43.9510 C   0  0  0  0  0  0  0  0  0  0  0  0
   45.7420   34.0290   45.2360 C   0  0  0  0  0  0  0  0  0  0  0  0
   44.7630   34.9710   45.6200 C   0  0  0  0  0  0  0  0  0  0  0  0
   44.4310   35.9380   44.7380 N   0  0  0  0  0  0  0  0  0  0  0  0
   44.9890   36.0400   43.5240 C   0  0  0  0  0  0  0  0  0  0  0  0
   45.9220   35.1570   43.1320 N   0  0  0  0  0  0  0  0  0  0  0  0
   45.9680   33.2840   45.9700 H   0  0  0  0  0  0  0  0  0  0  0  0
   44.2820   34.9430   46.5760 H   0  0  0  0  0  0  0  0  0  0  0  0
   44.7630   36.7900   42.7810 H   0  0  0  0  0  0  0  0  0  0  0  0
   47.5350   32.9300   43.5510 S   0  0  0  0  0  0  0  0  0  0  0  0
   48.7610   36.3810   39.6650 H   0  0  0  0  0  0  0  0  0  0  0  0
   48.9830   35.5120   40.2210 N   0  0  0  0  0  0  0  0  0  0  0  0
   47.9960   34.5230   39.9080 C   0  0  0  0  0  0  0  0  0  0  0  0
   47.6510   33.5440   40.9520 C   0  0  0  0  0  0  0  0  0  0  0  0
   48.5480   33.4780   42.1320 C   0  0  1  0  0  0  0  0  0  0  0  0
   49.2130   34.7480   42.5370 C   0  0  0  0  0  0  0  0  0  0  0  0
   49.0220   35.8950   41.5940 C   0  0  0  0  0  0  0  0  0  0  0  0
  1  2  1  0  0  0  0
  2  3  2  0  0  0  0
  2  7  1  0  0  0  0
  3  8  1  0  0  0  0
  4  3  1  0  0  0  0
  5  4  2  0  0  0  0
  6  5  1  0  0  0  0
  6  1  2  0  0  0  0
  9  5  1  0  0  0  0
 10  1  1  0  0  0  0
 11 12  1  0  0  0  0
 12 17  1  0  0  0  0
 13 12  1  0  0  0  0
 13 14  2  0  0  0  0
 14 15  1  0  0  0  0
 15 16  1  0  0  0  0
 15 10  1  1  0  0  0
 17 16  1  0  0  0  0
M  END
>  <minimizedAffinity>
-4.72644424

>  <minimizedRMSD>
4.52193308

$$$$
