
 OpenBabel03252501043D

 29 31  0  0  1  0  0  0  0  0999 V2000
   37.3210   31.8260   37.9060 C   0  0  1  0  0  0  0  0  0  0  0  0
   37.7170   30.6930   37.0350 C   0  0  0  0  0  0  0  0  0  0  0  0
   36.7720   30.4930   38.2120 C   0  0  1  0  0  0  0  0  0  0  0  0
   36.6780   32.6070   37.4480 H   0  0  0  0  0  0  0  0  0  0  0  0
   37.3170   30.6350   35.9930 H   0  0  0  0  0  0  0  0  0  0  0  0
   38.6650   30.1410   37.1370 H   0  0  0  0  0  0  0  0  0  0  0  0
   35.7690   30.1880   37.8520 H   0  0  0  0  0  0  0  0  0  0  0  0
   40.6790   32.5240   39.4550 C   0  0  0  0  0  0  0  0  0  0  0  0
   39.7160   32.0130   38.5700 C   0  0  0  0  0  0  0  0  0  0  0  0
   38.3800   32.3510   38.8130 C   0  0  0  0  0  0  0  0  0  0  0  0
   38.0550   33.1450   39.8710 N   0  0  0  0  0  0  0  0  0  0  0  0
   39.0070   33.6230   40.7080 C   0  0  0  0  0  0  0  0  0  0  0  0
   40.3160   33.3120   40.4990 N   0  0  0  0  0  0  0  0  0  0  0  0
   41.7280   32.3440   39.3830 H   0  0  0  0  0  0  0  0  0  0  0  0
   40.0610   31.4020   37.7680 H   0  0  0  0  0  0  0  0  0  0  0  0
   38.6070   34.2320   41.4930 H   0  0  0  0  0  0  0  0  0  0  0  0
   37.1560   29.9080   39.3560 O   0  0  0  0  0  0  0  0  0  0  0  0
   34.8420   29.2440   40.4810 O   0  0  0  0  0  0  0  0  0  0  0  0
   36.1650   29.9520   40.6590 P   0  0  2  0  0  0  0  0  0  0  0  0
   35.7930   31.5150   41.1950 O   0  0  0  0  0  0  0  0  0  0  0  0
   34.9830   31.8840   40.7520 H   0  0  0  0  0  0  0  0  0  0  0  0
   36.9240   29.1780   41.9590 O   0  0  0  0  0  0  0  0  0  0  0  0
   39.7410   26.7410   42.3770 H   0  0  0  0  0  0  0  0  0  0  0  0
   38.8620   26.3470   42.7900 N   0  0  0  0  0  0  0  0  0  0  0  0
   38.2950   27.3200   43.6790 C   0  0  0  0  0  2  0  0  0  0  0  0
   36.7920   27.3060   43.4700 C   0  0  0  0  0  2  0  0  0  0  0  0
   36.4800   27.8620   42.0810 C   0  0  0  0  0  3  0  0  0  0  0  0
   37.1810   26.9830   41.0960 C   0  0  0  0  0  2  0  0  0  0  0  0
   38.0030   25.8880   41.7470 C   0  0  0  0  0  2  0  0  0  0  0  0
  1  4  1  6  0  0  0
  1  3  1  0  0  0  0
  1 10  1  0  0  0  0
  2  6  1  0  0  0  0
  2  1  1  0  0  0  0
  2  3  1  0  0  0  0
  3  7  1  6  0  0  0
  3 17  1  0  0  0  0
  5  2  1  0  0  0  0
  8 13  1  0  0  0  0
  9 10  1  0  0  0  0
  9  8  2  0  0  0  0
 10 11  2  0  0  0  0
 11 12  1  0  0  0  0
 12 16  1  0  0  0  0
 13 12  2  0  0  0  0
 14  8  1  0  0  0  0
 15  9  1  0  0  0  0
 17 19  1  0  0  0  0
 19 18  2  6  0  0  0
 19 20  1  0  0  0  0
 19 22  1  0  0  0  0
 21 20  1  0  0  0  0
 22 27  1  0  0  0  0
 23 24  1  0  0  0  0
 24 25  1  0  0  0  0
 26 25  1  0  0  0  0
 27 26  1  0  0  0  0
 28 29  1  0  0  0  0
 28 27  1  0  0  0  0
 29 24  1  0  0  0  0
M  END
>  <minimizedAffinity>
-5.19083452

$$$$

 OpenBabel03252501043D

 29 31  0  0  1  0  0  0  0  0999 V2000
   37.1950   31.7060   38.0460 C   0  0  1  0  0  0  0  0  0  0  0  0
   37.6350   30.6010   37.1600 C   0  0  0  0  0  0  0  0  0  0  0  0
   36.7550   30.3390   38.3750 C   0  0  1  0  0  0  0  0  0  0  0  0
   36.4800   32.4370   37.6140 H   0  0  0  0  0  0  0  0  0  0  0  0
   37.1970   30.5100   36.1360 H   0  0  0  0  0  0  0  0  0  0  0  0
   38.6230   30.1170   37.2240 H   0  0  0  0  0  0  0  0  0  0  0  0
   35.7620   29.9620   38.0580 H   0  0  0  0  0  0  0  0  0  0  0  0
   40.5550   32.7350   39.3940 C   0  0  0  0  0  0  0  0  0  0  0  0
   39.5950   32.1570   38.5480 C   0  0  0  0  0  0  0  0  0  0  0  0
   38.2510   32.3080   38.9080 C   0  0  0  0  0  0  0  0  0  0  0  0
   37.9160   32.9930   40.0370 N   0  0  0  0  0  0  0  0  0  0  0  0
   38.8660   33.5400   40.8330 C   0  0  0  0  0  0  0  0  0  0  0  0
   40.1820   33.4100   40.5110 N   0  0  0  0  0  0  0  0  0  0  0  0
   41.6090   32.6930   39.2350 H   0  0  0  0  0  0  0  0  0  0  0  0
   39.9480   31.6410   37.6840 H   0  0  0  0  0  0  0  0  0  0  0  0
   38.4580   34.0470   41.6830 H   0  0  0  0  0  0  0  0  0  0  0  0
   37.2270   29.7870   39.5040 O   0  0  0  0  0  0  0  0  0  0  0  0
   35.0320   28.8050   40.6350 O   0  0  0  0  0  0  0  0  0  0  0  0
   36.2550   29.6750   40.8160 P   0  0  2  0  0  0  0  0  0  0  0  0
   35.6900   31.1650   41.3910 O   0  0  0  0  0  0  0  0  0  0  0  0
   34.8330   31.4350   40.9640 H   0  0  0  0  0  0  0  0  0  0  0  0
   37.1230   28.9780   42.0920 O   0  0  0  0  0  0  0  0  0  0  0  0
   38.8930   26.8630   44.6300 H   0  0  0  0  0  0  0  0  0  0  0  0
   39.2730   26.6680   43.6730 N   0  0  0  0  0  0  0  0  0  0  0  0
   38.1780   26.3920   42.7900 C   0  0  0  0  0  2  0  0  0  0  0  0
   38.4720   27.0810   41.4700 C   0  0  0  0  0  2  0  0  0  0  0  0
   38.3960   28.5930   41.6750 C   0  0  0  0  0  3  0  0  0  0  0  0
   39.4110   28.9400   42.7160 C   0  0  0  0  0  2  0  0  0  0  0  0
   40.1360   27.7310   43.2730 C   0  0  0  0  0  2  0  0  0  0  0  0
  1  4  1  6  0  0  0
  1  3  1  0  0  0  0
  1 10  1  0  0  0  0
  2  6  1  0  0  0  0
  2  1  1  0  0  0  0
  2  3  1  0  0  0  0
  3  7  1  6  0  0  0
  3 17  1  0  0  0  0
  5  2  1  0  0  0  0
  8 13  1  0  0  0  0
  9 10  1  0  0  0  0
  9  8  2  0  0  0  0
 10 11  2  0  0  0  0
 11 12  1  0  0  0  0
 12 16  1  0  0  0  0
 13 12  2  0  0  0  0
 14  8  1  0  0  0  0
 15  9  1  0  0  0  0
 17 19  1  0  0  0  0
 19 18  2  6  0  0  0
 19 20  1  0  0  0  0
 19 22  1  0  0  0  0
 21 20  1  0  0  0  0
 24 23  1  0  0  0  0
 25 24  1  0  0  0  0
 26 27  1  0  0  0  0
 26 25  1  0  0  0  0
 27 22  1  0  0  0  0
 27 28  1  0  0  0  0
 28 29  1  0  0  0  0
 29 24  1  0  0  0  0
M  END
>  <minimizedAffinity>
-5.12094545

$$$$

 OpenBabel03252501043D

 29 31  0  0  1  0  0  0  0  0999 V2000
   36.9640   27.0840   43.0760 C   0  0  1  0  0  0  0  0  0  0  0  0
   37.7570   28.3320   43.1940 C   0  0  0  0  0  0  0  0  0  0  0  0
   36.5460   28.2470   42.2750 C   0  0  1  0  0  0  0  0  0  0  0  0
   36.3790   26.7780   43.9690 H   0  0  0  0  0  0  0  0  0  0  0  0
   37.6930   28.9380   44.1310 H   0  0  0  0  0  0  0  0  0  0  0  0
   38.7020   28.5140   42.6580 H   0  0  0  0  0  0  0  0  0  0  0  0
   35.7470   28.9300   42.6260 H   0  0  0  0  0  0  0  0  0  0  0  0
   37.5460   23.7810   41.3680 C   0  0  0  0  0  0  0  0  0  0  0  0
   36.8800   24.8170   42.0430 C   0  0  0  0  0  0  0  0  0  0  0  0
   37.6240   25.9610   42.3540 C   0  0  0  0  0  0  0  0  0  0  0  0
   38.9380   26.0400   42.0040 N   0  0  0  0  0  0  0  0  0  0  0  0
   39.5540   25.0230   41.3530 C   0  0  0  0  0  0  0  0  0  0  0  0
   38.8570   23.8970   41.0370 N   0  0  0  0  0  0  0  0  0  0  0  0
   37.0960   22.8600   41.0740 H   0  0  0  0  0  0  0  0  0  0  0  0
   35.8500   24.6700   42.2750 H   0  0  0  0  0  0  0  0  0  0  0  0
   40.5840   25.2230   41.1430 H   0  0  0  0  0  0  0  0  0  0  0  0
   36.6570   28.1570   40.9400 O   0  0  0  0  0  0  0  0  0  0  0  0
   34.4080   29.2590   40.0530 O   0  0  0  0  0  0  0  0  0  0  0  0
   35.9180   29.2670   39.9910 P   0  0  2  0  0  0  0  0  0  0  0  0
   36.3220   29.1540   38.3490 O   0  0  0  0  0  0  0  0  0  0  0  0
   35.7150   28.5420   37.8520 H   0  0  0  0  0  0  0  0  0  0  0  0
   36.3850   30.8180   40.4830 O   0  0  0  0  0  0  0  0  0  0  0  0
   38.6030   33.3530   42.1270 H   0  0  0  0  0  0  0  0  0  0  0  0
   39.0900   32.9340   41.3000 N   0  0  0  0  0  0  0  0  0  0  0  0
   39.0250   31.5040   41.4030 C   0  0  0  0  0  2  0  0  0  0  0  0
   38.7440   30.9600   40.0140 C   0  0  0  0  0  2  0  0  0  0  0  0
   37.3250   31.3560   39.6070 C   0  0  0  0  0  3  0  0  0  0  0  0
   37.2680   32.8490   39.6340 C   0  0  0  0  0  2  0  0  0  0  0  0
   38.5610   33.4910   40.0970 C   0  0  0  0  0  2  0  0  0  0  0  0
  1  2  1  0  0  0  0
  1  4  1  1  0  0  0
  2  5  1  0  0  0  0
  3  7  1  1  0  0  0
  3  1  1  0  0  0  0
  3  2  1  0  0  0  0
  6  2  1  0  0  0  0
  8  9  1  0  0  0  0
  9 15  1  0  0  0  0
  9 10  2  0  0  0  0
 10  1  1  0  0  0  0
 11 10  1  0  0  0  0
 12 11  2  0  0  0  0
 13 12  1  0  0  0  0
 13  8  2  0  0  0  0
 14  8  1  0  0  0  0
 16 12  1  0  0  0  0
 17  3  1  0  0  0  0
 19 18  2  1  0  0  0
 19 22  1  0  0  0  0
 19 17  1  0  0  0  0
 20 19  1  0  0  0  0
 21 20  1  0  0  0  0
 24 25  1  0  0  0  0
 24 23  1  0  0  0  0
 26 25  1  0  0  0  0
 27 28  1  0  0  0  0
 27 26  1  0  0  0  0
 27 22  1  0  0  0  0
 28 29  1  0  0  0  0
 29 24  1  0  0  0  0
M  END
>  <minimizedAffinity>
-5.03166485

$$$$

 OpenBabel03252501043D

 29 31  0  0  1  0  0  0  0  0999 V2000
   39.4590   33.1050   40.6550 C   0  0  1  0  0  0  0  0  0  0  0  0
   38.4290   33.9890   40.0570 C   0  0  0  0  0  0  0  0  0  0  0  0
   38.0730   32.6090   40.5930 C   0  0  1  0  0  0  0  0  0  0  0  0
   39.8950   33.4320   41.6230 H   0  0  0  0  0  0  0  0  0  0  0  0
   38.0920   34.8970   40.6140 H   0  0  0  0  0  0  0  0  0  0  0  0
   38.2620   34.0930   38.9730 H   0  0  0  0  0  0  0  0  0  0  0  0
   37.3910   32.6970   41.4620 H   0  0  0  0  0  0  0  0  0  0  0  0
   42.1570   30.9240   39.1970 C   0  0  0  0  0  0  0  0  0  0  0  0
   41.2430   31.4470   40.1250 C   0  0  0  0  0  0  0  0  0  0  0  0
   40.4390   32.5120   39.7030 C   0  0  0  0  0  0  0  0  0  0  0  0
   40.5580   33.0010   38.4380 N   0  0  0  0  0  0  0  0  0  0  0  0
   41.4500   32.4760   37.5630 C   0  0  0  0  0  0  0  0  0  0  0  0
   42.2470   31.4390   37.9440 N   0  0  0  0  0  0  0  0  0  0  0  0
   42.8250   30.1160   39.3900 H   0  0  0  0  0  0  0  0  0  0  0  0
   41.2160   31.0010   41.0940 H   0  0  0  0  0  0  0  0  0  0  0  0
   41.4330   32.9580   36.6080 H   0  0  0  0  0  0  0  0  0  0  0  0
   37.8210   31.5640   39.7900 O   0  0  0  0  0  0  0  0  0  0  0  0
   35.8090   29.9870   39.0650 O   0  0  0  0  0  0  0  0  0  0  0  0
   36.6650   30.4830   40.2080 P   0  0  2  0  0  0  0  0  0  0  0  0
   35.5900   31.0420   41.3920 O   0  0  0  0  0  0  0  0  0  0  0  0
   34.8030   31.5070   41.0000 H   0  0  0  0  0  0  0  0  0  0  0  0
   37.4030   29.1040   40.8560 O   0  0  0  0  0  0  0  0  0  0  0  0
   39.9510   26.8460   42.4230 H   0  0  0  0  0  0  0  0  0  0  0  0
   39.6870   27.6070   43.0920 N   0  0  0  0  0  0  0  0  0  0  0  0
   39.8060   28.8710   42.4230 C   0  0  0  0  0  2  0  0  0  0  0  0
   38.6200   29.7210   42.8410 C   0  0  0  0  0  2  0  0  0  0  0  0
   37.3470   29.1190   42.2480 C   0  0  0  0  0  3  0  0  0  0  0  0
   37.2400   27.7250   42.7790 C   0  0  0  0  0  2  0  0  0  0  0  0
   38.4080   27.3270   43.6590 C   0  0  0  0  0  2  0  0  0  0  0  0
  1  4  1  1  0  0  0
  2  3  1  0  0  0  0
  2  5  1  0  0  0  0
  2  1  1  0  0  0  0
  3  1  1  0  0  0  0
  3  7  1  1  0  0  0
  6  2  1  0  0  0  0
  8 14  1  0  0  0  0
  8  9  1  0  0  0  0
  9 15  1  0  0  0  0
 10  9  2  0  0  0  0
 10  1  1  0  0  0  0
 11 10  1  0  0  0  0
 12 13  1  0  0  0  0
 12 11  2  0  0  0  0
 13  8  2  0  0  0  0
 16 12  1  0  0  0  0
 17 19  1  0  0  0  0
 17  3  1  0  0  0  0
 19 18  2  6  0  0  0
 19 22  1  0  0  0  0
 19 20  1  0  0  0  0
 21 20  1  0  0  0  0
 22 27  1  0  0  0  0
 23 24  1  0  0  0  0
 24 29  1  0  0  0  0
 25 26  1  0  0  0  0
 25 24  1  0  0  0  0
 27 28  1  0  0  0  0
 27 26  1  0  0  0  0
 28 29  1  0  0  0  0
M  END
>  <minimizedAffinity>
-5.00000763

$$$$

 OpenBabel03252501043D

 29 31  0  0  1  0  0  0  0  0999 V2000
   36.5850   28.7890   39.9640 C   0  0  1  0  0  0  0  0  0  0  0  0
   35.1750   29.2280   40.1100 C   0  0  0  0  0  0  0  0  0  0  0  0
   36.2870   30.2230   39.8030 C   0  0  1  0  0  0  0  0  0  0  0  0
   36.8230   28.1620   39.0790 H   0  0  0  0  0  0  0  0  0  0  0  0
   34.4350   28.9710   39.3140 H   0  0  0  0  0  0  0  0  0  0  0  0
   34.6840   29.4070   41.0790 H   0  0  0  0  0  0  0  0  0  0  0  0
   36.1380   30.6700   38.8000 H   0  0  0  0  0  0  0  0  0  0  0  0
   37.1860   27.6290   43.4940 C   0  0  0  0  0  0  0  0  0  0  0  0
   36.4980   28.0080   42.3300 C   0  0  0  0  0  0  0  0  0  0  0  0
   37.2690   28.3720   41.2200 C   0  0  0  0  0  0  0  0  0  0  0  0
   38.6290   28.3510   41.2940 N   0  0  0  0  0  0  0  0  0  0  0  0
   39.2650   27.9810   42.4320 C   0  0  0  0  0  0  0  0  0  0  0  0
   38.5420   27.6220   43.5290 N   0  0  0  0  0  0  0  0  0  0  0  0
   36.7190   27.3310   44.4050 H   0  0  0  0  0  0  0  0  0  0  0  0
   35.4320   27.9930   42.3620 H   0  0  0  0  0  0  0  0  0  0  0  0
   40.3310   28.0120   42.3450 H   0  0  0  0  0  0  0  0  0  0  0  0
   36.7750   31.0680   40.7230 O   0  0  0  0  0  0  0  0  0  0  0  0
   38.7370   32.7760   41.2670 O   0  0  0  0  0  0  0  0  0  0  0  0
   37.7120   32.3240   40.2510 P   0  0  2  0  0  0  0  0  0  0  0  0
   36.8440   33.7110   39.8120 O   0  0  0  0  0  0  0  0  0  0  0  0
   36.6800   34.3160   40.5840 H   0  0  0  0  0  0  0  0  0  0  0  0
   38.5990   31.8710   38.8820 O   0  0  0  0  0  0  0  0  0  0  0  0
   40.7040   30.9520   35.9200 H   0  0  0  0  0  0  0  0  0  0  0  0
   41.3100   31.0750   36.7660 N   0  0  0  0  0  0  0  0  0  0  0  0
   41.0050   32.3390   37.3720 C   0  0  0  0  0  2  0  0  0  0  0  0
   40.9940   32.1320   38.8760 C   0  0  0  0  0  2  0  0  0  0  0  0
   39.7960   31.2580   39.2460 C   0  0  0  0  0  3  0  0  0  0  0  0
   39.9620   29.9650   38.5140 C   0  0  0  0  0  2  0  0  0  0  0  0
   41.1840   29.9360   37.6170 C   0  0  0  0  0  2  0  0  0  0  0  0
  1  4  1  6  0  0  0
  1  2  1  0  0  0  0
  1 10  1  0  0  0  0
  2  6  1  0  0  0  0
  3  7  1  6  0  0  0
  3  1  1  0  0  0  0
  3  2  1  0  0  0  0
  3 17  1  0  0  0  0
  5  2  1  0  0  0  0
  8 13  1  0  0  0  0
  8 14  1  0  0  0  0
  9 15  1  0  0  0  0
  9  8  2  0  0  0  0
 10 11  2  0  0  0  0
 10  9  1  0  0  0  0
 11 12  1  0  0  0  0
 12 13  2  0  0  0  0
 16 12  1  0  0  0  0
 19 17  1  0  0  0  0
 19 18  2  1  0  0  0
 20 19  1  0  0  0  0
 20 21  1  0  0  0  0
 22 27  1  0  0  0  0
 22 19  1  0  0  0  0
 23 24  1  0  0  0  0
 24 25  1  0  0  0  0
 24 29  1  0  0  0  0
 25 26  1  0  0  0  0
 26 27  1  0  0  0  0
 28 27  1  0  0  0  0
 29 28  1  0  0  0  0
M  END
>  <minimizedAffinity>
-4.98039961

$$$$

 OpenBabel03252501043D

 29 31  0  0  1  0  0  0  0  0999 V2000
   39.2050   25.8800   43.4000 C   0  0  1  0  0  0  0  0  0  0  0  0
   40.6110   26.3280   43.2490 C   0  0  0  0  0  0  0  0  0  0  0  0
   39.4570   27.3220   43.2350 C   0  0  1  0  0  0  0  0  0  0  0  0
   38.9160   25.4710   44.3920 H   0  0  0  0  0  0  0  0  0  0  0  0
   41.2960   26.2960   44.1310 H   0  0  0  0  0  0  0  0  0  0  0  0
   41.1690   26.2930   42.2990 H   0  0  0  0  0  0  0  0  0  0  0  0
   39.5210   27.9990   44.1100 H   0  0  0  0  0  0  0  0  0  0  0  0
   36.7460   24.2310   41.0760 C   0  0  0  0  0  0  0  0  0  0  0  0
   37.2460   24.9290   42.1880 C   0  0  0  0  0  0  0  0  0  0  0  0
   38.6260   25.1510   42.2370 C   0  0  0  0  0  0  0  0  0  0  0  0
   39.4300   24.7000   41.2340 N   0  0  0  0  0  0  0  0  0  0  0  0
   38.9180   24.0300   40.1730 C   0  0  0  0  0  0  0  0  0  0  0  0
   37.5790   23.7970   40.0970 N   0  0  0  0  0  0  0  0  0  0  0  0
   35.7180   23.9970   40.9180 H   0  0  0  0  0  0  0  0  0  0  0  0
   36.5430   25.2470   42.9250 H   0  0  0  0  0  0  0  0  0  0  0  0
   39.6640   23.7360   39.4640 H   0  0  0  0  0  0  0  0  0  0  0  0
   39.0200   27.9060   42.1080 O   0  0  0  0  0  0  0  0  0  0  0  0
   39.2890   30.4200   42.9230 O   0  0  0  0  0  0  0  0  0  0  0  0
   38.4330   29.4330   42.1640 P   0  0  2  0  0  0  0  0  0  0  0  0
   36.8780   29.5550   42.8250 O   0  0  0  0  0  0  0  0  0  0  0  0
   36.8950   29.6830   43.8110 H   0  0  0  0  0  0  0  0  0  0  0  0
   38.3230   30.0430   40.5890 O   0  0  0  0  0  0  0  0  0  0  0  0
   38.6970   32.6010   37.8740 H   0  0  0  0  0  0  0  0  0  0  0  0
   37.6820   32.3860   38.0270 N   0  0  0  0  0  0  0  0  0  0  0  0
   37.5010   30.9640   37.9880 C   0  0  0  0  0  2  0  0  0  0  0  0
   36.5220   30.5990   39.0890 C   0  0  0  0  0  2  0  0  0  0  0  0
   37.1880   30.8380   40.4430 C   0  0  0  0  0  3  0  0  0  0  0  0
   37.5580   32.2860   40.4920 C   0  0  0  0  0  2  0  0  0  0  0  0
   37.2280   33.0340   39.2150 C   0  0  0  0  0  2  0  0  0  0  0  0
  1  4  1  1  0  0  0
  2  1  1  0  0  0  0
  2  5  1  0  0  0  0
  3  2  1  0  0  0  0
  3  1  1  0  0  0  0
  3  7  1  1  0  0  0
  6  2  1  0  0  0  0
  8  9  1  0  0  0  0
  9 10  2  0  0  0  0
  9 15  1  0  0  0  0
 10  1  1  0  0  0  0
 11 10  1  0  0  0  0
 12 11  2  0  0  0  0
 13 12  1  0  0  0  0
 13  8  2  0  0  0  0
 14  8  1  0  0  0  0
 16 12  1  0  0  0  0
 17 19  1  0  0  0  0
 17  3  1  0  0  0  0
 19 20  1  0  0  0  0
 19 18  2  1  0  0  0
 20 21  1  0  0  0  0
 22 19  1  0  0  0  0
 23 24  1  0  0  0  0
 24 29  1  0  0  0  0
 25 24  1  0  0  0  0
 25 26  1  0  0  0  0
 26 27  1  0  0  0  0
 27 28  1  0  0  0  0
 27 22  1  0  0  0  0
 29 28  1  0  0  0  0
M  END
>  <minimizedAffinity>
-4.96077871

$$$$

 OpenBabel03252501043D

 29 31  0  0  1  0  0  0  0  0999 V2000
   37.3080   27.0070   38.9390 C   0  0  1  0  0  0  0  0  0  0  0  0
   35.9490   26.9920   38.3450 C   0  0  0  0  0  0  0  0  0  0  0  0
   36.4520   28.1900   39.1400 C   0  0  1  0  0  0  0  0  0  0  0  0
   38.1620   27.0460   38.2300 H   0  0  0  0  0  0  0  0  0  0  0  0
   35.8320   27.0780   37.2370 H   0  0  0  0  0  0  0  0  0  0  0  0
   35.0810   26.4940   38.8070 H   0  0  0  0  0  0  0  0  0  0  0  0
   36.5370   29.0790   38.4840 H   0  0  0  0  0  0  0  0  0  0  0  0
   36.9000   24.1950   41.4070 C   0  0  0  0  0  0  0  0  0  0  0  0
   36.6720   25.0080   40.2850 C   0  0  0  0  0  0  0  0  0  0  0  0
   37.5160   26.1100   40.1100 C   0  0  0  0  0  0  0  0  0  0  0  0
   38.5110   26.3600   41.0060 N   0  0  0  0  0  0  0  0  0  0  0  0
   38.7070   25.5570   42.0790 C   0  0  0  0  0  0  0  0  0  0  0  0
   37.9020   24.4770   42.2770 N   0  0  0  0  0  0  0  0  0  0  0  0
   36.3310   23.3280   41.6550 H   0  0  0  0  0  0  0  0  0  0  0  0
   35.8710   24.7360   39.6360 H   0  0  0  0  0  0  0  0  0  0  0  0
   39.5230   25.8740   42.6960 H   0  0  0  0  0  0  0  0  0  0  0  0
   36.0380   28.4550   40.3880 O   0  0  0  0  0  0  0  0  0  0  0  0
   37.2660   29.4120   42.5410 O   0  0  0  0  0  0  0  0  0  0  0  0
   36.6640   29.7350   41.1930 P   0  0  2  0  0  0  0  0  0  0  0  0
   35.5600   30.9920   41.4610 O   0  0  0  0  0  0  0  0  0  0  0  0
   35.0650   30.8850   42.3170 H   0  0  0  0  0  0  0  0  0  0  0  0
   37.9230   30.4030   40.2800 O   0  0  0  0  0  0  0  0  0  0  0  0
   40.6340   31.9760   38.2240 H   0  0  0  0  0  0  0  0  0  0  0  0
   39.7830   32.5890   38.2250 N   0  0  0  0  0  0  0  0  0  0  0  0
   38.6430   31.7970   37.8660 C   0  0  0  0  0  2  0  0  0  0  0  0
   37.4930   32.2210   38.7600 C   0  0  0  0  0  2  0  0  0  0  0  0
   37.7940   31.7880   40.1940 C   0  0  0  0  0  3  0  0  0  0  0  0
   39.0730   32.4540   40.5880 C   0  0  0  0  0  2  0  0  0  0  0  0
   39.6890   33.2770   39.4730 C   0  0  0  0  0  2  0  0  0  0  0  0
  1  4  1  6  0  0  0
  1  3  1  0  0  0  0
  1 10  1  0  0  0  0
  2  6  1  0  0  0  0
  2  1  1  0  0  0  0
  2  3  1  0  0  0  0
  3  7  1  6  0  0  0
  3 17  1  0  0  0  0
  5  2  1  0  0  0  0
  8 14  1  0  0  0  0
  8 13  1  0  0  0  0
  9  8  2  0  0  0  0
 10  9  1  0  0  0  0
 10 11  2  0  0  0  0
 11 12  1  0  0  0  0
 12 13  2  0  0  0  0
 12 16  1  0  0  0  0
 15  9  1  0  0  0  0
 17 19  1  0  0  0  0
 19 20  1  0  0  0  0
 19 18  2  1  0  0  0
 20 21  1  0  0  0  0
 22 19  1  0  0  0  0
 23 24  1  0  0  0  0
 24 29  1  0  0  0  0
 25 24  1  0  0  0  0
 25 26  1  0  0  0  0
 26 27  1  0  0  0  0
 27 22  1  0  0  0  0
 27 28  1  0  0  0  0
 29 28  1  0  0  0  0
M  END
>  <minimizedAffinity>
-4.95240355

$$$$

 OpenBabel03252501043D

 29 31  0  0  1  0  0  0  0  0999 V2000
   35.4140   29.6940   40.0270 C   0  0  1  0  0  0  0  0  0  0  0  0
   35.3780   28.5250   39.1140 C   0  0  0  0  0  0  0  0  0  0  0  0
   35.7490   28.3710   40.5830 C   0  0  1  0  0  0  0  0  0  0  0  0
   34.4400   30.1720   40.2640 H   0  0  0  0  0  0  0  0  0  0  0  0
   34.3930   28.1390   38.7540 H   0  0  0  0  0  0  0  0  0  0  0  0
   36.1950   28.2570   38.4260 H   0  0  0  0  0  0  0  0  0  0  0  0
   34.9900   27.7600   41.1100 H   0  0  0  0  0  0  0  0  0  0  0  0
   38.2070   31.6290   38.4090 C   0  0  0  0  0  0  0  0  0  0  0  0
   37.1470   30.7200   38.5590 C   0  0  0  0  0  0  0  0  0  0  0  0
   36.5370   30.6490   39.8160 C   0  0  0  0  0  0  0  0  0  0  0  0
   36.9730   31.4420   40.8350 N   0  0  0  0  0  0  0  0  0  0  0  0
   37.9980   32.3100   40.6600 C   0  0  0  0  0  0  0  0  0  0  0  0
   38.6130   32.4010   39.4480 N   0  0  0  0  0  0  0  0  0  0  0  0
   38.7550   31.7800   37.5060 H   0  0  0  0  0  0  0  0  0  0  0  0
   36.8720   30.1410   37.7070 H   0  0  0  0  0  0  0  0  0  0  0  0
   38.2320   32.8660   41.5440 H   0  0  0  0  0  0  0  0  0  0  0  0
   37.0110   28.1690   40.9920 O   0  0  0  0  0  0  0  0  0  0  0  0
   36.4140   27.1310   43.3640 O   0  0  0  0  0  0  0  0  0  0  0  0
   37.3330   28.0500   42.5920 P   0  0  2  0  0  0  0  0  0  0  0  0
   37.3140   29.5310   43.4150 O   0  0  0  0  0  0  0  0  0  0  0  0
   36.4110   29.7590   43.7650 H   0  0  0  0  0  0  0  0  0  0  0  0
   38.8890   27.4170   42.8000 O   0  0  0  0  0  0  0  0  0  0  0  0
   41.8000   25.1990   43.6070 H   0  0  0  0  0  0  0  0  0  0  0  0
   41.2080   24.7560   42.8640 N   0  0  0  0  0  0  0  0  0  0  0  0
   39.8440   24.7490   43.3060 C   0  0  0  0  0  2  0  0  0  0  0  0
   38.9770   25.1100   42.1140 C   0  0  0  0  0  2  0  0  0  0  0  0
   39.2260   26.5710   41.7450 C   0  0  0  0  0  3  0  0  0  0  0  0
   40.6810   26.6940   41.4250 C   0  0  0  0  0  2  0  0  0  0  0  0
   41.4480   25.4000   41.6130 C   0  0  0  0  0  2  0  0  0  0  0  0
  1  4  1  1  0  0  0
  1  3  1  0  0  0  0
  2  1  1  0  0  0  0
  2  3  1  0  0  0  0
  3 17  1  0  0  0  0
  3  7  1  1  0  0  0
  5  2  1  0  0  0  0
  6  2  1  0  0  0  0
  8  9  2  0  0  0  0
  8 13  1  0  0  0  0
  9 10  1  0  0  0  0
 10  1  1  0  0  0  0
 10 11  2  0  0  0  0
 12 11  1  0  0  0  0
 12 16  1  0  0  0  0
 13 12  2  0  0  0  0
 14  8  1  0  0  0  0
 15  9  1  0  0  0  0
 17 19  1  0  0  0  0
 19 22  1  0  0  0  0
 19 18  2  1  0  0  0
 19 20  1  0  0  0  0
 20 21  1  0  0  0  0
 24 25  1  0  0  0  0
 24 23  1  0  0  0  0
 26 25  1  0  0  0  0
 27 26  1  0  0  0  0
 27 22  1  0  0  0  0
 28 29  1  0  0  0  0
 28 27  1  0  0  0  0
 29 24  1  0  0  0  0
M  END
>  <minimizedAffinity>
-4.89665699

$$$$

 OpenBabel03252501043D

 29 31  0  0  1  0  0  0  0  0999 V2000
   39.1580   30.3470   42.7350 C   0  0  1  0  0  0  0  0  0  0  0  0
   40.4080   30.4940   41.9490 C   0  0  0  0  0  0  0  0  0  0  0  0
   39.0940   31.0930   41.4660 C   0  0  1  0  0  0  0  0  0  0  0  0
   39.1140   30.8850   43.7060 H   0  0  0  0  0  0  0  0  0  0  0  0
   41.2160   31.1700   42.3220 H   0  0  0  0  0  0  0  0  0  0  0  0
   40.8070   29.7170   41.2770 H   0  0  0  0  0  0  0  0  0  0  0  0
   39.1600   32.2000   41.4460 H   0  0  0  0  0  0  0  0  0  0  0  0
   38.7490   26.6160   42.4600 C   0  0  0  0  0  0  0  0  0  0  0  0
   39.3590   27.8800   42.4370 C   0  0  0  0  0  0  0  0  0  0  0  0
   38.5590   28.9830   42.7540 C   0  0  0  0  0  0  0  0  0  0  0  0
   37.2450   28.8090   43.0710 N   0  0  0  0  0  0  0  0  0  0  0  0
   36.6850   27.5760   43.0850 C   0  0  0  0  0  0  0  0  0  0  0  0
   37.4370   26.4830   42.7800 N   0  0  0  0  0  0  0  0  0  0  0  0
   39.2450   25.6980   42.2390 H   0  0  0  0  0  0  0  0  0  0  0  0
   40.3930   27.9220   42.1800 H   0  0  0  0  0  0  0  0  0  0  0  0
   35.6480   27.5900   43.3510 H   0  0  0  0  0  0  0  0  0  0  0  0
   38.3800   30.5590   40.4640 O   0  0  0  0  0  0  0  0  0  0  0  0
   36.8910   32.6270   39.7140 O   0  0  0  0  0  0  0  0  0  0  0  0
   36.9040   31.1680   40.1080 P   0  0  2  0  0  0  0  0  0  0  0  0
   35.7690   31.0090   41.3560 O   0  0  0  0  0  0  0  0  0  0  0  0
   35.7770   31.7870   41.9760 H   0  0  0  0  0  0  0  0  0  0  0  0
   36.2630   30.3330   38.7820 O   0  0  0  0  0  0  0  0  0  0  0  0
   36.1120   27.5470   36.2790 H   0  0  0  0  0  0  0  0  0  0  0  0
   35.9060   27.1790   37.2390 N   0  0  0  0  0  0  0  0  0  0  0  0
   36.9420   27.6120   38.1310 C   0  0  0  0  0  2  0  0  0  0  0  0
   36.2790   28.0150   39.4360 C   0  0  0  0  0  2  0  0  0  0  0  0
   35.4540   29.2790   39.2020 C   0  0  0  0  0  3  0  0  0  0  0  0
   34.4440   28.9480   38.1510 C   0  0  0  0  0  2  0  0  0  0  0  0
   34.5760   27.5360   37.6150 C   0  0  0  0  0  2  0  0  0  0  0  0
  1 10  1  0  0  0  0
  1  4  1  1  0  0  0
  2  5  1  0  0  0  0
  2  1  1  0  0  0  0
  3  7  1  1  0  0  0
  3  2  1  0  0  0  0
  3  1  1  0  0  0  0
  6  2  1  0  0  0  0
  8 13  1  0  0  0  0
  9  8  2  0  0  0  0
  9 10  1  0  0  0  0
 10 11  2  0  0  0  0
 11 12  1  0  0  0  0
 12 16  1  0  0  0  0
 13 12  2  0  0  0  0
 14  8  1  0  0  0  0
 15  9  1  0  0  0  0
 17  3  1  0  0  0  0
 19 18  2  6  0  0  0
 19 17  1  0  0  0  0
 19 20  1  0  0  0  0
 20 21  1  0  0  0  0
 22 27  1  0  0  0  0
 22 19  1  0  0  0  0
 23 24  1  0  0  0  0
 24 29  1  0  0  0  0
 24 25  1  0  0  0  0
 25 26  1  0  0  0  0
 27 26  1  0  0  0  0
 28 27  1  0  0  0  0
 29 28  1  0  0  0  0
M  END
>  <minimizedAffinity>
-4.88160944

$$$$
