
 OpenBabel03242521103D

 17 18  0  0  0  0  0  0  0  0999 V2000
   44.5670   35.6170   45.1140 C   0  0  0  0  0  0  0  0  0  0  0  0
   44.8890   36.0730   43.8170 C   0  0  0  0  0  0  0  0  0  0  0  0
   45.7850   35.2950   43.0600 C   0  0  0  0  0  0  0  0  0  0  0  0
   46.2910   34.1600   43.6020 N   0  0  0  0  0  0  0  0  0  0  0  0
   45.9520   33.7610   44.8550 C   0  0  0  0  0  0  0  0  0  0  0  0
   45.1000   34.4700   45.6170 N   0  0  0  0  0  0  0  0  0  0  0  0
   43.8920   36.1580   45.7490 H   0  0  0  0  0  0  0  0  0  0  0  0
   44.4340   36.9940   43.4710 H   0  0  0  0  0  0  0  0  0  0  0  0
   46.0360   35.6440   42.0680 H   0  0  0  0  0  0  0  0  0  0  0  0
   46.7510   32.2450   45.3340 S   0  0  0  0  0  0  0  0  0  0  0  0
   46.4420   30.5750   50.5430 H   0  0  0  0  0  0  0  0  0  0  0  0
   46.5330   30.9720   49.6060 N   0  0  0  0  0  0  0  0  0  0  0  0
   47.8530   31.0940   49.0700 C   0  0  0  0  0  0  0  0  0  0  0  0
   47.7570   30.9320   47.5550 C   0  0  0  0  0  0  0  0  0  0  0  0
   46.7890   31.9650   47.0930 C   0  0  0  0  0  0  0  0  0  0  0  0
   45.4080   31.5160   47.5250 C   0  0  0  0  0  0  0  0  0  0  0  0
   45.5370   30.5390   48.6710 C   0  0  0  0  0  0  0  0  0  0  0  0
  1  6  1  0  0  0  0
  1  7  1  0  0  0  0
  2  1  2  0  0  0  0
  3  4  2  0  0  0  0
  3  2  1  0  0  0  0
  4  5  1  0  0  0  0
  5 10  1  0  0  0  0
  5  6  2  0  0  0  0
  8  2  1  0  0  0  0
  9  3  1  0  0  0  0
 10 15  1  0  0  0  0
 12 11  1  0  0  0  0
 13 12  1  0  0  0  0
 14 13  1  0  0  0  0
 15 16  1  0  0  0  0
 15 14  1  0  0  0  0
 16 17  1  0  0  0  0
 17 12  1  0  0  0  0
M  END
>  <minimizedAffinity>
-4.55134392

>  <minimizedRMSD>
2.06729031

$$$$
