
 OpenBabel03252508593D

 43 45  0  0  1  0  0  0  0  0999 V2000
   46.6650   34.5220   43.5320 N   0  0  0  0  0  0  0  0  0  0  0  0
   46.1850   35.5860   42.7160 C   0  0  0  0  0  0  0  0  0  0  0  0
   44.6820   35.7740   42.7330 C   0  0  0  0  0  0  0  0  0  0  0  0
   44.0340   35.4680   44.0470 C   0  0  0  0  0  0  0  0  0  0  0  0
   45.0440   35.0930   45.1010 C   0  0  0  0  0  0  0  0  0  0  0  0
   45.8320   33.9030   44.4490 C   0  0  2  0  0  0  0  0  0  0  0  0
   46.6100   36.5450   43.1340 H   0  0  0  0  0  0  0  0  0  0  0  0
   46.5000   35.5710   41.6680 H   0  0  0  0  0  0  0  0  0  0  0  0
   44.2710   35.0260   42.0090 H   0  0  0  0  0  0  0  0  0  0  0  0
   44.4480   36.7680   42.3350 H   0  0  0  0  0  0  0  0  0  0  0  0
   43.5790   36.4360   44.4010 H   0  0  0  0  0  0  0  0  0  0  0  0
   43.2290   34.7310   44.0160 H   0  0  0  0  0  0  0  0  0  0  0  0
   44.5660   34.6870   45.9920 H   0  0  0  0  0  0  0  0  0  0  0  0
   45.7700   35.9140   45.2750 H   0  0  0  0  0  0  0  0  0  0  0  0
   45.0420   33.2270   44.0900 H   0  0  0  0  0  0  0  0  0  0  0  0
   47.7390   33.7810   42.9520 C   0  0  0  0  0  0  0  0  0  0  0  0
   48.3580   33.2930   43.7240 H   0  0  0  0  0  0  0  0  0  0  0  0
   48.3830   34.4800   42.3850 H   0  0  0  0  0  0  0  0  0  0  0  0
   47.1710   32.7230   42.0550 C   0  0  0  0  0  0  0  0  0  0  0  0
   47.3550   31.7090   42.4330 H   0  0  0  0  0  0  0  0  0  0  0  0
   46.0520   32.8010   41.9590 H   0  0  0  0  0  0  0  0  0  0  0  0
   49.0670   31.9850   38.9000 C   0  0  0  0  0  0  0  0  0  0  0  0
   48.5240   31.8540   40.1870 C   0  0  0  0  0  0  0  0  0  0  0  0
   47.7400   32.8670   40.6980 C   0  0  0  0  0  0  0  0  0  0  0  0
   47.5290   33.9500   39.9220 N   0  0  0  0  0  0  0  0  0  0  0  0
   48.0600   34.0590   38.6860 C   0  0  0  0  0  0  0  0  0  0  0  0
   48.8270   33.0890   38.1630 N   0  0  0  0  0  0  0  0  0  0  0  0
   49.6860   31.2230   38.4540 H   0  0  0  0  0  0  0  0  0  0  0  0
   48.7620   30.9480   40.7050 H   0  0  0  0  0  0  0  0  0  0  0  0
   47.7740   35.0050   38.2240 H   0  0  0  0  0  0  0  0  0  0  0  0
   46.5430   33.4070   45.5290 O   0  0  0  0  0  0  0  0  0  0  0  0
   45.4600   31.1340   44.6860 O   0  0  0  0  0  0  0  0  0  0  0  0
   46.2280   31.7850   45.8420 P   0  0  2  0  0  0  0  0  0  0  0  0
   45.1400   31.7560   47.1620 O   0  0  0  0  0  0  0  0  0  0  0  0
   45.6710   31.9880   47.9770 H   0  0  0  0  0  0  0  0  0  0  0  0
   47.5770   30.9190   46.2790 O   0  0  0  0  0  0  0  0  0  0  0  0
   49.9850   27.1330   43.8100 H   0  0  0  0  0  0  0  0  0  0  0  0
   49.7100   27.9490   44.3680 N   0  0  0  0  0  0  0  0  0  0  0  0
   48.8350   27.5840   45.4460 C   0  0  0  0  0  2  0  0  0  0  0  0
   48.6520   28.8160   46.3160 C   0  0  0  0  0  2  0  0  0  0  0  0
   47.8430   29.8130   45.5010 C   0  0  0  0  0  3  0  0  0  0  0  0
   48.6820   30.1630   44.2910 C   0  0  0  0  0  2  0  0  0  0  0  0
   49.0550   28.9220   43.5380 C   0  0  0  0  0  2  0  0  0  0  0  0
  1  6  1  0  0  0  0
  2  3  1  0  0  0  0
  2  7  1  0  0  0  0
  2  1  1  0  0  0  0
  3  4  1  0  0  0  0
  4 11  1  0  0  0  0
  4  5  1  0  0  0  0
  5 14  1  0  0  0  0
  5 13  1  0  0  0  0
  6 15  1  6  0  0  0
  6  5  1  0  0  0  0
  6 31  1  0  0  0  0
  8  2  1  0  0  0  0
  9  3  1  0  0  0  0
 10  3  1  0  0  0  0
 12  4  1  0  0  0  0
 16  1  1  0  0  0  0
 16 17  1  0  0  0  0
 18 16  1  0  0  0  0
 19 20  1  0  0  0  0
 19 16  1  0  0  0  0
 21 19  1  0  0  0  0
 22 23  1  0  0  0  0
 23 24  2  0  0  0  0
 23 29  1  0  0  0  0
 24 19  1  0  0  0  0
 25 24  1  0  0  0  0
 26 25  2  0  0  0  0
 27 26  1  0  0  0  0
 27 22  2  0  0  0  0
 28 22  1  0  0  0  0
 30 26  1  0  0  0  0
 31 33  1  0  0  0  0
 33 32  2  6  0  0  0
 33 36  1  0  0  0  0
 33 34  1  0  0  0  0
 34 35  1  0  0  0  0
 37 38  1  0  0  0  0
 38 39  1  0  0  0  0
 39 40  1  0  0  0  0
 41 36  1  0  0  0  0
 41 40  1  0  0  0  0
 42 41  1  0  0  0  0
 43 42  1  0  0  0  0
 43 38  1  0  0  0  0
M  END
>  <minimizedAffinity>
-4.02928686

>  <minimizedRMSD>
1.0131135

$$$$
