
 OpenBabel03242513003D

 33 36  0  0  0  0  0  0  0  0999 V2000
   38.2980   27.5820   39.7250 F   0  0  0  0  0  0  0  0  0  0  0  0
   37.9740   27.7860   41.0350 C   0  0  0  0  0  0  0  0  0  0  0  0
   37.6050   26.7370   41.8400 C   0  0  0  0  0  0  0  0  0  0  0  0
   37.2940   27.0280   43.1470 C   0  0  0  0  0  0  0  0  0  0  0  0
   37.3340   28.2960   43.6770 C   0  0  0  0  0  0  0  0  0  0  0  0
   37.7080   29.3020   42.8260 C   0  0  0  0  0  0  0  0  0  0  0  0
   38.0310   29.0690   41.5080 C   0  0  0  0  0  0  0  0  0  0  0  0
   37.0050   26.1920   43.7710 H   0  0  0  0  0  0  0  0  0  0  0  0
   37.0780   28.4570   44.7050 H   0  0  0  0  0  0  0  0  0  0  0  0
   37.7500   30.3230   43.2150 H   0  0  0  0  0  0  0  0  0  0  0  0
   38.4360   23.1500   40.9470 C   0  0  0  0  0  0  0  0  0  0  0  0
   38.5230   24.4230   41.5330 C   0  0  0  0  0  0  0  0  0  0  0  0
   37.5680   25.4000   41.2620 C   0  0  0  0  0  0  0  0  0  0  0  0
   36.5770   25.0190   40.4070 N   0  0  0  0  0  0  0  0  0  0  0  0
   36.5070   23.7990   39.8540 C   0  0  0  0  0  0  0  0  0  0  0  0
   37.4170   22.8730   40.1140 N   0  0  0  0  0  0  0  0  0  0  0  0
   39.1990   22.4090   41.1790 H   0  0  0  0  0  0  0  0  0  0  0  0
   39.3220   24.6730   42.2000 H   0  0  0  0  0  0  0  0  0  0  0  0
   35.6680   23.6270   39.1910 H   0  0  0  0  0  0  0  0  0  0  0  0
   38.4300   30.1640   40.6140 C   0  0  0  0  0  0  0  0  0  0  0  0
   37.5830   31.0510   39.9890 C   0  0  0  0  0  0  0  0  0  0  0  0
   38.3940   31.9160   39.2420 C   0  0  0  0  0  0  0  0  0  0  0  0
   39.6590   31.5320   39.4350 N   0  0  0  0  0  0  0  0  0  0  0  0
   39.6940   30.4720   40.2640 N   0  0  0  0  0  0  0  0  0  0  0  0
   36.5150   31.1080   40.0370 H   0  0  0  0  0  0  0  0  0  0  0  0
   38.1240   32.7510   38.6100 H   0  0  0  0  0  0  0  0  0  0  0  0
   41.2710   33.6620   36.3430 H   0  0  0  0  0  0  0  0  0  0  0  0
   42.1540   33.5410   36.8950 N   0  0  0  0  0  0  0  0  0  0  0  0
   42.0250   34.1610   38.1840 C   0  0  0  0  0  2  0  0  0  0  0  0
   41.0200   33.5140   39.0810 C   0  0  0  0  0  2  0  0  0  0  0  0
   40.9230   32.0300   38.9370 C   0  0  0  0  0  3  0  0  0  0  0  0
   41.0580   31.5510   37.5150 C   0  0  0  0  0  2  0  0  0  0  0  0
   42.3790   32.1060   36.9990 C   0  0  0  0  0  2  0  0  0  0  0  0
  1  2  1  0  0  0  0
  2  7  2  0  0  0  0
  2  3  1  0  0  0  0
  3  4  2  0  0  0  0
  4  5  1  0  0  0  0
  4  8  1  0  0  0  0
  5  9  1  0  0  0  0
  6 10  1  0  0  0  0
  6  5  2  0  0  0  0
  7  6  1  0  0  0  0
 11 17  1  0  0  0  0
 11 12  1  0  0  0  0
 12 18  1  0  0  0  0
 13 12  2  0  0  0  0
 13  3  1  0  0  0  0
 14 13  1  0  0  0  0
 15 16  1  0  0  0  0
 15 14  2  0  0  0  0
 16 11  2  0  0  0  0
 19 15  1  0  0  0  0
 20  7  1  0  0  0  0
 21 25  1  0  0  0  0
 21 20  1  0  0  0  0
 22 23  1  0  0  0  0
 22 21  2  0  0  0  0
 23 24  1  0  0  0  0
 24 20  2  0  0  0  0
 26 22  1  0  0  0  0
 27 28  1  0  0  0  0
 28 33  1  0  0  0  0
 28 29  1  0  0  0  0
 29 30  1  0  0  0  0
 31 30  1  0  0  0  0
 31 23  1  0  0  0  0
 32 31  1  0  0  0  0
 33 32  1  0  0  0  0
M  END
>  <minimizedAffinity>
-5.92780924

$$$$

 OpenBabel03242513003D

 33 36  0  0  0  0  0  0  0  0999 V2000
   35.3840   29.3160   39.4640 F   0  0  0  0  0  0  0  0  0  0  0  0
   35.7060   28.0200   39.1780 C   0  0  0  0  0  0  0  0  0  0  0  0
   36.5880   27.3240   39.9660 C   0  0  0  0  0  0  0  0  0  0  0  0
   36.8570   26.0240   39.6080 C   0  0  0  0  0  0  0  0  0  0  0  0
   36.2950   25.4000   38.5190 C   0  0  0  0  0  0  0  0  0  0  0  0
   35.4230   26.1450   37.7700 C   0  0  0  0  0  0  0  0  0  0  0  0
   35.1160   27.4510   38.0820 C   0  0  0  0  0  0  0  0  0  0  0  0
   37.5540   25.4860   40.2370 H   0  0  0  0  0  0  0  0  0  0  0  0
   36.5480   24.3830   38.2930 H   0  0  0  0  0  0  0  0  0  0  0  0
   34.9590   25.6800   36.8980 H   0  0  0  0  0  0  0  0  0  0  0  0
   37.3610   28.4600   43.4960 C   0  0  0  0  0  0  0  0  0  0  0  0
   36.7590   27.7800   42.4260 C   0  0  0  0  0  0  0  0  0  0  0  0
   37.1740   28.0000   41.1150 C   0  0  0  0  0  0  0  0  0  0  0  0
   38.1830   28.9050   40.9730 N   0  0  0  0  0  0  0  0  0  0  0  0
   38.7490   29.5490   42.0050 C   0  0  0  0  0  0  0  0  0  0  0  0
   38.3500   29.3360   43.2490 N   0  0  0  0  0  0  0  0  0  0  0  0
   37.0130   28.2660   44.5090 H   0  0  0  0  0  0  0  0  0  0  0  0
   35.9680   27.0760   42.5910 H   0  0  0  0  0  0  0  0  0  0  0  0
   39.5410   30.2430   41.7530 H   0  0  0  0  0  0  0  0  0  0  0  0
   34.1770   28.2310   37.2640 C   0  0  0  0  0  0  0  0  0  0  0  0
   34.3660   28.6140   35.9560 C   0  0  0  0  0  0  0  0  0  0  0  0
   33.2230   29.3340   35.5840 C   0  0  0  0  0  0  0  0  0  0  0  0
   32.4130   29.3590   36.6460 N   0  0  0  0  0  0  0  0  0  0  0  0
   32.9800   28.6950   37.6700 N   0  0  0  0  0  0  0  0  0  0  0  0
   35.2000   28.4230   35.3120 H   0  0  0  0  0  0  0  0  0  0  0  0
   32.9730   29.8060   34.6440 H   0  0  0  0  0  0  0  0  0  0  0  0
   30.5520   32.3350   38.7380 H   0  0  0  0  0  0  0  0  0  0  0  0
   29.7120   32.0010   38.2080 N   0  0  0  0  0  0  0  0  0  0  0  0
   29.9180   32.1580   36.7950 C   0  0  0  0  0  2  0  0  0  0  0  0
   30.9950   31.2890   36.2300 C   0  0  0  0  0  2  0  0  0  0  0  0
   31.1090   29.9440   36.8720 C   0  0  0  0  0  3  0  0  0  0  0  0
   30.8840   29.9650   38.3610 C   0  0  0  0  0  2  0  0  0  0  0  0
   29.5200   30.6060   38.5800 C   0  0  0  0  0  2  0  0  0  0  0  0
  2  1  1  0  0  0  0
  2  3  1  0  0  0  0
  3 13  1  0  0  0  0
  4  3  2  0  0  0  0
  4  8  1  0  0  0  0
  5  4  1  0  0  0  0
  6  7  1  0  0  0  0
  6  5  2  0  0  0  0
  7  2  2  0  0  0  0
  9  5  1  0  0  0  0
 10  6  1  0  0  0  0
 11 17  1  0  0  0  0
 12 18  1  0  0  0  0
 12 11  2  0  0  0  0
 13 12  1  0  0  0  0
 14 13  2  0  0  0  0
 14 15  1  0  0  0  0
 15 16  2  0  0  0  0
 16 11  1  0  0  0  0
 19 15  1  0  0  0  0
 20 24  2  0  0  0  0
 20  7  1  0  0  0  0
 21 20  1  0  0  0  0
 22 21  2  0  0  0  0
 22 23  1  0  0  0  0
 23 31  1  0  0  0  0
 23 24  1  0  0  0  0
 25 21  1  0  0  0  0
 26 22  1  0  0  0  0
 28 33  1  0  0  0  0
 28 27  1  0  0  0  0
 29 28  1  0  0  0  0
 30 29  1  0  0  0  0
 30 31  1  0  0  0  0
 31 32  1  0  0  0  0
 32 33  1  0  0  0  0
M  END
>  <minimizedAffinity>
-5.8040328

$$$$

 OpenBabel03242513003D

 33 36  0  0  0  0  0  0  0  0999 V2000
   40.8050   30.8960   40.5880 F   0  0  0  0  0  0  0  0  0  0  0  0
   39.6930   31.6600   40.3810 C   0  0  0  0  0  0  0  0  0  0  0  0
   39.7800   32.8700   39.7380 C   0  0  0  0  0  0  0  0  0  0  0  0
   38.6120   33.5770   39.5710 C   0  0  0  0  0  0  0  0  0  0  0  0
   37.3850   33.1380   40.0090 C   0  0  0  0  0  0  0  0  0  0  0  0
   37.3600   31.9250   40.6440 C   0  0  0  0  0  0  0  0  0  0  0  0
   38.4980   31.1740   40.8390 C   0  0  0  0  0  0  0  0  0  0  0  0
   38.6950   34.5290   39.0630 H   0  0  0  0  0  0  0  0  0  0  0  0
   36.5120   33.7380   39.8480 H   0  0  0  0  0  0  0  0  0  0  0  0
   36.4010   31.5470   41.0050 H   0  0  0  0  0  0  0  0  0  0  0  0
   43.3400   34.1610   39.6440 C   0  0  0  0  0  0  0  0  0  0  0  0
   42.0980   33.7390   40.1420 C   0  0  0  0  0  0  0  0  0  0  0  0
   41.0870   33.3190   39.2810 C   0  0  0  0  0  0  0  0  0  0  0  0
   41.4060   33.3540   37.9550 N   0  0  0  0  0  0  0  0  0  0  0  0
   42.5980   33.7610   37.4930 C   0  0  0  0  0  0  0  0  0  0  0  0
   43.5550   34.1590   38.3170 N   0  0  0  0  0  0  0  0  0  0  0  0
   44.1080   34.4840   40.3440 H   0  0  0  0  0  0  0  0  0  0  0  0
   41.8960   33.7290   41.1940 H   0  0  0  0  0  0  0  0  0  0  0  0
   42.7210   33.7400   36.4170 H   0  0  0  0  0  0  0  0  0  0  0  0
   38.4470   29.8740   41.5230 C   0  0  0  0  0  0  0  0  0  0  0  0
   38.4500   29.6740   42.8840 C   0  0  0  0  0  0  0  0  0  0  0  0
   38.3910   28.2880   43.0810 C   0  0  0  0  0  0  0  0  0  0  0  0
   38.3570   27.7210   41.8730 N   0  0  0  0  0  0  0  0  0  0  0  0
   38.3910   28.6710   40.9200 N   0  0  0  0  0  0  0  0  0  0  0  0
   38.4870   30.3990   43.6710 H   0  0  0  0  0  0  0  0  0  0  0  0
   38.3730   27.7160   43.9990 H   0  0  0  0  0  0  0  0  0  0  0  0
   38.2430   23.9010   43.3200 H   0  0  0  0  0  0  0  0  0  0  0  0
   38.1430   23.6610   42.3050 N   0  0  0  0  0  0  0  0  0  0  0  0
   36.9460   24.2460   41.7680 C   0  0  0  0  0  2  0  0  0  0  0  0
   36.9570   25.7390   41.7230 C   0  0  0  0  0  2  0  0  0  0  0  0
   38.2940   26.3430   41.4360 C   0  0  0  0  0  3  0  0  0  0  0  0
   39.4380   25.6160   42.0940 C   0  0  0  0  0  2  0  0  0  0  0  0
   39.3400   24.1650   41.6450 C   0  0  0  0  0  2  0  0  0  0  0  0
  2  1  1  0  0  0  0
  2  7  1  0  0  0  0
  3  2  2  0  0  0  0
  4  3  1  0  0  0  0
  4  5  2  0  0  0  0
  5  6  1  0  0  0  0
  6  7  2  0  0  0  0
  6 10  1  0  0  0  0
  7 20  1  0  0  0  0
  8  4  1  0  0  0  0
  9  5  1  0  0  0  0
 11 12  1  0  0  0  0
 11 17  1  0  0  0  0
 12 18  1  0  0  0  0
 13  3  1  0  0  0  0
 13 12  2  0  0  0  0
 14 13  1  0  0  0  0
 15 14  2  0  0  0  0
 15 16  1  0  0  0  0
 16 11  2  0  0  0  0
 19 15  1  0  0  0  0
 20 21  1  0  0  0  0
 21 22  2  0  0  0  0
 21 25  1  0  0  0  0
 22 26  1  0  0  0  0
 23 22  1  0  0  0  0
 24 20  2  0  0  0  0
 24 23  1  0  0  0  0
 28 27  1  0  0  0  0
 29 28  1  0  0  0  0
 30 29  1  0  0  0  0
 31 30  1  0  0  0  0
 31 23  1  0  0  0  0
 31 32  1  0  0  0  0
 33 32  1  0  0  0  0
 33 28  1  0  0  0  0
M  END
>  <minimizedAffinity>
-5.75285769

$$$$

 OpenBabel03242513003D

 33 36  0  0  0  0  0  0  0  0999 V2000
   38.1330   29.8140   40.9900 F   0  0  0  0  0  0  0  0  0  0  0  0
   37.4620   29.6610   39.8110 C   0  0  0  0  0  0  0  0  0  0  0  0
   36.8490   28.4730   39.4990 C   0  0  0  0  0  0  0  0  0  0  0  0
   36.1950   28.4030   38.2920 C   0  0  0  0  0  0  0  0  0  0  0  0
   36.1280   29.4450   37.3970 C   0  0  0  0  0  0  0  0  0  0  0  0
   36.7600   30.6040   37.7620 C   0  0  0  0  0  0  0  0  0  0  0  0
   37.4290   30.7320   38.9590 C   0  0  0  0  0  0  0  0  0  0  0  0
   35.7160   27.4610   38.0580 H   0  0  0  0  0  0  0  0  0  0  0  0
   35.6030   29.3250   36.4710 H   0  0  0  0  0  0  0  0  0  0  0  0
   36.7260   31.4530   37.0750 H   0  0  0  0  0  0  0  0  0  0  0  0
   37.2890   25.0520   41.0660 C   0  0  0  0  0  0  0  0  0  0  0  0
   37.2230   26.0660   40.0980 C   0  0  0  0  0  0  0  0  0  0  0  0
   36.9300   27.3790   40.4570 C   0  0  0  0  0  0  0  0  0  0  0  0
   36.7190   27.5810   41.7890 N   0  0  0  0  0  0  0  0  0  0  0  0
   36.7840   26.6010   42.7040 C   0  0  0  0  0  0  0  0  0  0  0  0
   37.0630   25.3550   42.3570 N   0  0  0  0  0  0  0  0  0  0  0  0
   37.5200   24.0360   40.7520 H   0  0  0  0  0  0  0  0  0  0  0  0
   37.3980   25.8570   39.0620 H   0  0  0  0  0  0  0  0  0  0  0  0
   36.5950   26.8970   43.7290 H   0  0  0  0  0  0  0  0  0  0  0  0
   38.0990   31.9860   39.3290 C   0  0  0  0  0  0  0  0  0  0  0  0
   37.5240   33.0480   39.9900 C   0  0  0  0  0  0  0  0  0  0  0  0
   38.5250   34.0180   40.1300 C   0  0  0  0  0  0  0  0  0  0  0  0
   39.6310   33.5240   39.5660 N   0  0  0  0  0  0  0  0  0  0  0  0
   39.3860   32.2950   39.0770 N   0  0  0  0  0  0  0  0  0  0  0  0
   36.5190   33.1550   40.3460 H   0  0  0  0  0  0  0  0  0  0  0  0
   38.4870   34.9960   40.5890 H   0  0  0  0  0  0  0  0  0  0  0  0
   43.5500   32.3680   39.5050 H   0  0  0  0  0  0  0  0  0  0  0  0
   43.7060   33.3780   39.2680 N   0  0  0  0  0  0  0  0  0  0  0  0
   43.0500   33.7080   38.0330 C   0  0  0  0  0  2  0  0  0  0  0  0
   41.5590   33.6400   38.0910 C   0  0  0  0  0  2  0  0  0  0  0  0
   40.9680   34.0520   39.4000 C   0  0  0  0  0  3  0  0  0  0  0  0
   41.7730   33.6060   40.5930 C   0  0  0  0  0  2  0  0  0  0  0  0
   43.1810   34.1480   40.3880 C   0  0  0  0  0  2  0  0  0  0  0  0
  2  1  1  0  0  0  0
  3  2  1  0  0  0  0
  3 13  1  0  0  0  0
  4  3  2  0  0  0  0
  5  6  2  0  0  0  0
  5  4  1  0  0  0  0
  6  7  1  0  0  0  0
  7 20  1  0  0  0  0
  7  2  2  0  0  0  0
  8  4  1  0  0  0  0
  9  5  1  0  0  0  0
 10  6  1  0  0  0  0
 11 16  1  0  0  0  0
 12 13  1  0  0  0  0
 12 11  2  0  0  0  0
 13 14  2  0  0  0  0
 14 15  1  0  0  0  0
 15 19  1  0  0  0  0
 16 15  2  0  0  0  0
 17 11  1  0  0  0  0
 18 12  1  0  0  0  0
 20 21  1  0  0  0  0
 21 22  2  0  0  0  0
 21 25  1  0  0  0  0
 22 26  1  0  0  0  0
 23 22  1  0  0  0  0
 24 20  2  0  0  0  0
 24 23  1  0  0  0  0
 28 27  1  0  0  0  0
 28 33  1  0  0  0  0
 29 30  1  0  0  0  0
 29 28  1  0  0  0  0
 30 31  1  0  0  0  0
 31 23  1  0  0  0  0
 31 32  1  0  0  0  0
 33 32  1  0  0  0  0
M  END
>  <minimizedAffinity>
-5.58272839

$$$$

 OpenBabel03242513003D

 33 36  0  0  0  0  0  0  0  0999 V2000
   36.9980   30.4400   37.0690 F   0  0  0  0  0  0  0  0  0  0  0  0
   36.3590   30.0330   38.2050 C   0  0  0  0  0  0  0  0  0  0  0  0
   35.3680   29.0840   38.1540 C   0  0  0  0  0  0  0  0  0  0  0  0
   34.7770   28.7310   39.3440 C   0  0  0  0  0  0  0  0  0  0  0  0
   35.1240   29.2720   40.5600 C   0  0  0  0  0  0  0  0  0  0  0  0
   36.1180   30.2140   40.5480 C   0  0  0  0  0  0  0  0  0  0  0  0
   36.7450   30.6070   39.3870 C   0  0  0  0  0  0  0  0  0  0  0  0
   33.9970   27.9820   39.2900 H   0  0  0  0  0  0  0  0  0  0  0  0
   34.6220   28.9540   41.4510 H   0  0  0  0  0  0  0  0  0  0  0  0
   36.4170   30.6650   41.4970 H   0  0  0  0  0  0  0  0  0  0  0  0
   33.6300   28.3740   34.8640 C   0  0  0  0  0  0  0  0  0  0  0  0
   33.9240   28.9530   36.1080 C   0  0  0  0  0  0  0  0  0  0  0  0
   35.0140   28.5210   36.8590 C   0  0  0  0  0  0  0  0  0  0  0  0
   35.7450   27.5190   36.2920 N   0  0  0  0  0  0  0  0  0  0  0  0
   35.4520   26.9730   35.1020 C   0  0  0  0  0  0  0  0  0  0  0  0
   34.4140   27.3880   34.3930 N   0  0  0  0  0  0  0  0  0  0  0  0
   32.7700   28.7340   34.3030 H   0  0  0  0  0  0  0  0  0  0  0  0
   33.3180   29.7400   36.5100 H   0  0  0  0  0  0  0  0  0  0  0  0
   36.1140   26.1850   34.7670 H   0  0  0  0  0  0  0  0  0  0  0  0
   37.8100   31.6190   39.3990 C   0  0  0  0  0  0  0  0  0  0  0  0
   37.6740   32.9340   39.7800 C   0  0  0  0  0  0  0  0  0  0  0  0
   38.9370   33.5230   39.6320 C   0  0  0  0  0  0  0  0  0  0  0  0
   39.7620   32.5740   39.1810 N   0  0  0  0  0  0  0  0  0  0  0  0
   39.0910   31.4170   39.0350 N   0  0  0  0  0  0  0  0  0  0  0  0
   36.8000   33.4470   40.1270 H   0  0  0  0  0  0  0  0  0  0  0  0
   39.2580   34.5380   39.8240 H   0  0  0  0  0  0  0  0  0  0  0  0
   42.3990   34.0850   36.4500 H   0  0  0  0  0  0  0  0  0  0  0  0
   43.1020   33.6070   37.0630 N   0  0  0  0  0  0  0  0  0  0  0  0
   43.0670   34.1610   38.3880 C   0  0  0  0  0  2  0  0  0  0  0  0
   41.7970   33.9010   39.1300 C   0  0  0  0  0  2  0  0  0  0  0  0
   41.1680   32.5770   38.8420 C   0  0  0  0  0  3  0  0  0  0  0  0
   41.2780   32.1580   37.3990 C   0  0  0  0  0  2  0  0  0  0  0  0
   42.7600   32.1910   37.0540 C   0  0  0  0  0  2  0  0  0  0  0  0
  1  2  1  0  0  0  0
  2  7  1  0  0  0  0
  3  2  2  0  0  0  0
  3  4  1  0  0  0  0
  4  5  2  0  0  0  0
  5  9  1  0  0  0  0
  6  5  1  0  0  0  0
  6 10  1  0  0  0  0
  7 20  1  0  0  0  0
  7  6  2  0  0  0  0
  8  4  1  0  0  0  0
 11 12  1  0  0  0  0
 12 18  1  0  0  0  0
 12 13  2  0  0  0  0
 13  3  1  0  0  0  0
 14 13  1  0  0  0  0
 15 14  2  0  0  0  0
 16 11  2  0  0  0  0
 16 15  1  0  0  0  0
 17 11  1  0  0  0  0
 19 15  1  0  0  0  0
 20 21  1  0  0  0  0
 21 25  1  0  0  0  0
 22 21  2  0  0  0  0
 22 26  1  0  0  0  0
 23 22  1  0  0  0  0
 24 23  1  0  0  0  0
 24 20  2  0  0  0  0
 27 28  1  0  0  0  0
 28 29  1  0  0  0  0
 29 30  1  0  0  0  0
 31 30  1  0  0  0  0
 31 23  1  0  0  0  0
 32 31  1  0  0  0  0
 33 28  1  0  0  0  0
 33 32  1  0  0  0  0
M  END
>  <minimizedAffinity>
-5.48434353

$$$$

 OpenBabel03242513003D

 33 36  0  0  0  0  0  0  0  0999 V2000
   33.1480   29.0460   38.8920 F   0  0  0  0  0  0  0  0  0  0  0  0
   33.9660   29.0920   37.8000 C   0  0  0  0  0  0  0  0  0  0  0  0
   33.4460   29.0800   36.5300 C   0  0  0  0  0  0  0  0  0  0  0  0
   34.3390   29.1290   35.4860 C   0  0  0  0  0  0  0  0  0  0  0  0
   35.7030   29.1880   35.6500 C   0  0  0  0  0  0  0  0  0  0  0  0
   36.1630   29.1960   36.9400 C   0  0  0  0  0  0  0  0  0  0  0  0
   35.3150   29.1490   38.0240 C   0  0  0  0  0  0  0  0  0  0  0  0
   33.9160   29.1190   34.4900 H   0  0  0  0  0  0  0  0  0  0  0  0
   36.3460   29.2230   34.7940 H   0  0  0  0  0  0  0  0  0  0  0  0
   37.2420   29.2420   37.1060 H   0  0  0  0  0  0  0  0  0  0  0  0
   29.7720   29.9970   36.3900 C   0  0  0  0  0  0  0  0  0  0  0  0
   31.1610   30.1160   36.5540 C   0  0  0  0  0  0  0  0  0  0  0  0
   31.9990   29.0180   36.3740 C   0  0  0  0  0  0  0  0  0  0  0  0
   31.3670   27.8590   36.0350 N   0  0  0  0  0  0  0  0  0  0  0  0
   30.0380   27.7590   35.8820 C   0  0  0  0  0  0  0  0  0  0  0  0
   29.2460   28.8060   36.0550 N   0  0  0  0  0  0  0  0  0  0  0  0
   29.1460   30.8740   36.5390 H   0  0  0  0  0  0  0  0  0  0  0  0
   31.6100   31.0510   36.8210 H   0  0  0  0  0  0  0  0  0  0  0  0
   29.6640   26.7790   35.6110 H   0  0  0  0  0  0  0  0  0  0  0  0
   35.8320   29.1600   39.3990 C   0  0  0  0  0  0  0  0  0  0  0  0
   35.9900   30.2700   40.1980 C   0  0  0  0  0  0  0  0  0  0  0  0
   36.5080   29.8110   41.4160 C   0  0  0  0  0  0  0  0  0  0  0  0
   36.6400   28.4860   41.3130 N   0  0  0  0  0  0  0  0  0  0  0  0
   36.2340   28.0790   40.0960 N   0  0  0  0  0  0  0  0  0  0  0  0
   35.7740   31.2940   39.9750 H   0  0  0  0  0  0  0  0  0  0  0  0
   36.7740   30.3600   42.3100 H   0  0  0  0  0  0  0  0  0  0  0  0
   39.8130   25.9970   41.9730 H   0  0  0  0  0  0  0  0  0  0  0  0
   39.2710   25.7540   42.8370 N   0  0  0  0  0  0  0  0  0  0  0  0
   39.1040   26.9150   43.6660 C   0  0  0  0  0  2  0  0  0  0  0  0
   38.2470   27.9810   43.0660 C   0  0  0  0  0  2  0  0  0  0  0  0
   37.1170   27.4730   42.2290 C   0  0  0  0  0  3  0  0  0  0  0  0
   37.4720   26.2620   41.4070 C   0  0  0  0  0  2  0  0  0  0  0  0
   37.9950   25.2180   42.3830 C   0  0  0  0  0  2  0  0  0  0  0  0
  2  7  1  0  0  0  0
  2  1  1  0  0  0  0
  3  2  2  0  0  0  0
  4  5  2  0  0  0  0
  4  3  1  0  0  0  0
  5  6  1  0  0  0  0
  6 10  1  0  0  0  0
  6  7  2  0  0  0  0
  7 20  1  0  0  0  0
  8  4  1  0  0  0  0
  9  5  1  0  0  0  0
 11 17  1  0  0  0  0
 11 12  1  0  0  0  0
 12 18  1  0  0  0  0
 13  3  1  0  0  0  0
 13 12  2  0  0  0  0
 14 13  1  0  0  0  0
 15 14  2  0  0  0  0
 15 16  1  0  0  0  0
 16 11  2  0  0  0  0
 19 15  1  0  0  0  0
 20 24  2  0  0  0  0
 20 21  1  0  0  0  0
 21 22  2  0  0  0  0
 22 26  1  0  0  0  0
 23 22  1  0  0  0  0
 23 31  1  0  0  0  0
 24 23  1  0  0  0  0
 25 21  1  0  0  0  0
 27 28  1  0  0  0  0
 28 29  1  0  0  0  0
 30 29  1  0  0  0  0
 31 30  1  0  0  0  0
 32 31  1  0  0  0  0
 32 33  1  0  0  0  0
 33 28  1  0  0  0  0
M  END
>  <minimizedAffinity>
-5.48342037

$$$$

 OpenBabel03242513003D

 33 36  0  0  0  0  0  0  0  0999 V2000
   40.4950   30.6070   39.2710 F   0  0  0  0  0  0  0  0  0  0  0  0
   39.5150   31.5250   39.5150 C   0  0  0  0  0  0  0  0  0  0  0  0
   39.7890   32.8700   39.4950 C   0  0  0  0  0  0  0  0  0  0  0  0
   38.7440   33.7270   39.7510 C   0  0  0  0  0  0  0  0  0  0  0  0
   37.4620   33.3090   40.0220 C   0  0  0  0  0  0  0  0  0  0  0  0
   37.2500   31.9560   40.0290 C   0  0  0  0  0  0  0  0  0  0  0  0
   38.2580   31.0510   39.7790 C   0  0  0  0  0  0  0  0  0  0  0  0
   38.9740   34.7840   39.7330 H   0  0  0  0  0  0  0  0  0  0  0  0
   36.6930   34.0280   40.2140 H   0  0  0  0  0  0  0  0  0  0  0  0
   36.2420   31.5890   40.2400 H   0  0  0  0  0  0  0  0  0  0  0  0
   43.4660   33.7230   39.8230 C   0  0  0  0  0  0  0  0  0  0  0  0
   42.1690   33.3030   40.1580 C   0  0  0  0  0  0  0  0  0  0  0  0
   41.1520   33.2950   39.2070 C   0  0  0  0  0  0  0  0  0  0  0  0
   41.5190   33.7190   37.9640 N   0  0  0  0  0  0  0  0  0  0  0  0
   42.7630   34.1190   37.6580 C   0  0  0  0  0  0  0  0  0  0  0  0
   43.7260   34.1240   38.5660 N   0  0  0  0  0  0  0  0  0  0  0  0
   44.2380   33.7170   40.5890 H   0  0  0  0  0  0  0  0  0  0  0  0
   41.9300   32.9780   41.1510 H   0  0  0  0  0  0  0  0  0  0  0  0
   42.9210   34.4310   36.6330 H   0  0  0  0  0  0  0  0  0  0  0  0
   38.0060   29.6040   39.7910 C   0  0  0  0  0  0  0  0  0  0  0  0
   37.7010   28.8250   38.6980 C   0  0  0  0  0  0  0  0  0  0  0  0
   37.5450   27.5170   39.1740 C   0  0  0  0  0  0  0  0  0  0  0  0
   37.7520   27.5520   40.4930 N   0  0  0  0  0  0  0  0  0  0  0  0
   38.0320   28.8100   40.8790 N   0  0  0  0  0  0  0  0  0  0  0  0
   37.5970   29.1160   37.6730 H   0  0  0  0  0  0  0  0  0  0  0  0
   37.3040   26.6060   38.6420 H   0  0  0  0  0  0  0  0  0  0  0  0
   38.9650   23.7200   41.2300 H   0  0  0  0  0  0  0  0  0  0  0  0
   38.5680   23.9180   42.1800 N   0  0  0  0  0  0  0  0  0  0  0  0
   39.2690   25.0090   42.7970 C   0  0  0  0  0  2  0  0  0  0  0  0
   39.0840   26.3250   42.1140 C   0  0  0  0  0  2  0  0  0  0  0  0
   37.7290   26.5310   41.5180 C   0  0  0  0  0  3  0  0  0  0  0  0
   37.1490   25.2880   40.8940 C   0  0  0  0  0  2  0  0  0  0  0  0
   37.1570   24.2200   41.9790 C   0  0  0  0  0  2  0  0  0  0  0  0
  1  2  1  0  0  0  0
  2  7  1  0  0  0  0
  3  2  2  0  0  0  0
  3  4  1  0  0  0  0
  4  5  2  0  0  0  0
  5  6  1  0  0  0  0
  5  9  1  0  0  0  0
  6 10  1  0  0  0  0
  7 20  1  0  0  0  0
  7  6  2  0  0  0  0
  8  4  1  0  0  0  0
 11 12  1  0  0  0  0
 11 17  1  0  0  0  0
 12 18  1  0  0  0  0
 13  3  1  0  0  0  0
 13 12  2  0  0  0  0
 14 13  1  0  0  0  0
 15 14  2  0  0  0  0
 15 16  1  0  0  0  0
 16 11  2  0  0  0  0
 19 15  1  0  0  0  0
 20 24  2  0  0  0  0
 21 22  2  0  0  0  0
 21 20  1  0  0  0  0
 22 23  1  0  0  0  0
 23 24  1  0  0  0  0
 23 31  1  0  0  0  0
 25 21  1  0  0  0  0
 26 22  1  0  0  0  0
 27 28  1  0  0  0  0
 28 29  1  0  0  0  0
 30 29  1  0  0  0  0
 31 30  1  0  0  0  0
 32 31  1  0  0  0  0
 32 33  1  0  0  0  0
 33 28  1  0  0  0  0
M  END
>  <minimizedAffinity>
-5.45351028

$$$$

 OpenBabel03242513003D

 33 36  0  0  0  0  0  0  0  0999 V2000
   36.8130   26.8340   38.8290 F   0  0  0  0  0  0  0  0  0  0  0  0
   36.8570   26.2930   40.0820 C   0  0  0  0  0  0  0  0  0  0  0  0
   36.8470   24.9320   40.2620 C   0  0  0  0  0  0  0  0  0  0  0  0
   36.8930   24.4700   41.5560 C   0  0  0  0  0  0  0  0  0  0  0  0
   36.9470   25.2900   42.6580 C   0  0  0  0  0  0  0  0  0  0  0  0
   36.9530   26.6380   42.4170 C   0  0  0  0  0  0  0  0  0  0  0  0
   36.9080   27.1580   41.1420 C   0  0  0  0  0  0  0  0  0  0  0  0
   36.8850   23.3950   41.6830 H   0  0  0  0  0  0  0  0  0  0  0  0
   36.9800   24.8660   43.6420 H   0  0  0  0  0  0  0  0  0  0  0  0
   36.9940   27.3190   43.2710 H   0  0  0  0  0  0  0  0  0  0  0  0
   35.6050   22.8140   37.3760 C   0  0  0  0  0  0  0  0  0  0  0  0
   35.5990   23.6360   38.5140 C   0  0  0  0  0  0  0  0  0  0  0  0
   36.7910   24.0780   39.0830 C   0  0  0  0  0  0  0  0  0  0  0  0
   37.9240   23.6530   38.4550 N   0  0  0  0  0  0  0  0  0  0  0  0
   37.9150   22.8660   37.3680 C   0  0  0  0  0  0  0  0  0  0  0  0
   36.7790   22.4490   36.8310 N   0  0  0  0  0  0  0  0  0  0  0  0
   34.6570   22.4860   36.9570 H   0  0  0  0  0  0  0  0  0  0  0  0
   34.6800   23.9430   38.9710 H   0  0  0  0  0  0  0  0  0  0  0  0
   38.8860   22.6020   36.9670 H   0  0  0  0  0  0  0  0  0  0  0  0
   36.9160   28.6080   40.9070 C   0  0  0  0  0  0  0  0  0  0  0  0
   35.8280   29.4470   40.9820 C   0  0  0  0  0  0  0  0  0  0  0  0
   36.2980   30.7330   40.6850 C   0  0  0  0  0  0  0  0  0  0  0  0
   37.6080   30.6280   40.4490 N   0  0  0  0  0  0  0  0  0  0  0  0
   37.9950   29.3450   40.5800 N   0  0  0  0  0  0  0  0  0  0  0  0
   34.8110   29.2100   41.2180 H   0  0  0  0  0  0  0  0  0  0  0  0
   35.7670   31.6740   40.6370 H   0  0  0  0  0  0  0  0  0  0  0  0
   39.7530   33.7360   42.0100 H   0  0  0  0  0  0  0  0  0  0  0  0
   40.2170   33.7130   41.0700 N   0  0  0  0  0  0  0  0  0  0  0  0
   40.8630   32.4480   40.8610 C   0  0  0  0  0  2  0  0  0  0  0  0
   39.9270   31.2880   40.7610 C   0  0  0  0  0  2  0  0  0  0  0  0
   38.6230   31.5960   40.0960 C   0  0  0  0  0  3  0  0  0  0  0  0
   38.0780   32.9570   40.4420 C   0  0  0  0  0  2  0  0  0  0  0  0
   39.1680   33.9600   40.0890 C   0  0  0  0  0  2  0  0  0  0  0  0
  1  2  1  0  0  0  0
  2  3  2  0  0  0  0
  2  7  1  0  0  0  0
  3  4  1  0  0  0  0
  4  8  1  0  0  0  0
  4  5  2  0  0  0  0
  5  9  1  0  0  0  0
  6  5  1  0  0  0  0
  6 10  1  0  0  0  0
  7  6  2  0  0  0  0
 11 12  1  0  0  0  0
 12 18  1  0  0  0  0
 12 13  2  0  0  0  0
 13  3  1  0  0  0  0
 14 13  1  0  0  0  0
 15 14  2  0  0  0  0
 16 15  1  0  0  0  0
 16 11  2  0  0  0  0
 17 11  1  0  0  0  0
 19 15  1  0  0  0  0
 20 21  1  0  0  0  0
 20  7  1  0  0  0  0
 21 25  1  0  0  0  0
 22 21  2  0  0  0  0
 23 24  1  0  0  0  0
 23 22  1  0  0  0  0
 24 20  2  0  0  0  0
 26 22  1  0  0  0  0
 28 27  1  0  0  0  0
 29 28  1  0  0  0  0
 30 29  1  0  0  0  0
 31 32  1  0  0  0  0
 31 23  1  0  0  0  0
 31 30  1  0  0  0  0
 33 32  1  0  0  0  0
 33 28  1  0  0  0  0
M  END
>  <minimizedAffinity>
-5.44997454

$$$$

 OpenBabel03242513003D

 33 36  0  0  0  0  0  0  0  0999 V2000
   38.1140   26.5090   40.0930 F   0  0  0  0  0  0  0  0  0  0  0  0
   38.7020   26.1410   41.2680 C   0  0  0  0  0  0  0  0  0  0  0  0
   39.0020   24.8260   41.5250 C   0  0  0  0  0  0  0  0  0  0  0  0
   39.5930   24.5420   42.7330 C   0  0  0  0  0  0  0  0  0  0  0  0
   39.8920   25.4940   43.6800 C   0  0  0  0  0  0  0  0  0  0  0  0
   39.5690   26.7880   43.3680 C   0  0  0  0  0  0  0  0  0  0  0  0
   38.9760   27.1310   42.1740 C   0  0  0  0  0  0  0  0  0  0  0  0
   39.8240   23.5020   42.9220 H   0  0  0  0  0  0  0  0  0  0  0  0
   40.3520   25.2060   44.6030 H   0  0  0  0  0  0  0  0  0  0  0  0
   39.7930   27.5690   44.0990 H   0  0  0  0  0  0  0  0  0  0  0  0
   37.2840   22.0810   39.5580 C   0  0  0  0  0  0  0  0  0  0  0  0
   37.5460   23.0230   40.5650 C   0  0  0  0  0  0  0  0  0  0  0  0
   38.6780   23.8320   40.5110 C   0  0  0  0  0  0  0  0  0  0  0  0
   39.4810   23.6310   39.4270 N   0  0  0  0  0  0  0  0  0  0  0  0
   39.2190   22.7250   38.4720 C   0  0  0  0  0  0  0  0  0  0  0  0
   38.1410   21.9590   38.5290 N   0  0  0  0  0  0  0  0  0  0  0  0
   36.3910   21.4650   39.6310 H   0  0  0  0  0  0  0  0  0  0  0  0
   36.8820   23.1440   41.3980 H   0  0  0  0  0  0  0  0  0  0  0  0
   39.9390   22.6670   37.6650 H   0  0  0  0  0  0  0  0  0  0  0  0
   38.6390   28.5260   41.8620 C   0  0  0  0  0  0  0  0  0  0  0  0
   37.3760   29.0740   41.8560 C   0  0  0  0  0  0  0  0  0  0  0  0
   37.5300   30.4220   41.5050 C   0  0  0  0  0  0  0  0  0  0  0  0
   38.8350   30.6320   41.3170 N   0  0  0  0  0  0  0  0  0  0  0  0
   39.5180   29.4920   41.5290 N   0  0  0  0  0  0  0  0  0  0  0  0
   36.4390   28.6040   42.0720 H   0  0  0  0  0  0  0  0  0  0  0  0
   36.7870   31.1990   41.3890 H   0  0  0  0  0  0  0  0  0  0  0  0
   39.3310   33.2970   38.2590 H   0  0  0  0  0  0  0  0  0  0  0  0
   39.9890   33.7500   38.9380 N   0  0  0  0  0  0  0  0  0  0  0  0
   39.2830   34.1590   40.1200 C   0  0  0  0  0  2  0  0  0  0  0  0
   38.7420   33.0310   40.9350 C   0  0  0  0  0  2  0  0  0  0  0  0
   39.5970   31.8040   40.9450 C   0  0  0  0  0  3  0  0  0  0  0  0
   40.2450   31.5110   39.6170 C   0  0  0  0  0  2  0  0  0  0  0  0
   41.0190   32.7630   39.2310 C   0  0  0  0  0  2  0  0  0  0  0  0
  1  2  1  0  0  0  0
  2  3  2  0  0  0  0
  2  7  1  0  0  0  0
  3  4  1  0  0  0  0
  4  8  1  0  0  0  0
  4  5  2  0  0  0  0
  5  9  1  0  0  0  0
  6  5  1  0  0  0  0
  6 10  1  0  0  0  0
  7  6  2  0  0  0  0
 11 17  1  0  0  0  0
 11 12  1  0  0  0  0
 12 18  1  0  0  0  0
 13 12  2  0  0  0  0
 13  3  1  0  0  0  0
 14 13  1  0  0  0  0
 15 16  1  0  0  0  0
 15 14  2  0  0  0  0
 16 11  2  0  0  0  0
 19 15  1  0  0  0  0
 20  7  1  0  0  0  0
 21 20  1  0  0  0  0
 21 25  1  0  0  0  0
 22 21  2  0  0  0  0
 23 22  1  0  0  0  0
 23 24  1  0  0  0  0
 24 20  2  0  0  0  0
 26 22  1  0  0  0  0
 27 28  1  0  0  0  0
 28 33  1  0  0  0  0
 28 29  1  0  0  0  0
 29 30  1  0  0  0  0
 30 31  1  0  0  0  0
 31 23  1  0  0  0  0
 32 31  1  0  0  0  0
 33 32  1  0  0  0  0
M  END
>  <minimizedAffinity>
-5.4034133

$$$$
