
     RDKit          3D

 52 54  0  0  0  0  0  0  0  0999 V2000
   47.1737   34.1561   43.0863 N   0  0  0  0  0  0  0  0  0  0  0  0
   46.6619   35.3635   42.5306 C   0  0  0  0  0  0  0  0  0  0  0  0
   45.1779   35.5843   42.7420 C   0  0  0  0  0  0  0  0  0  0  0  0
   44.6516   35.0568   44.0399 C   0  0  0  0  0  0  0  0  0  0  0  0
   45.7453   34.4687   44.8962 C   0  0  0  0  0  0  0  0  0  0  0  0
   46.4104   33.3996   43.9591 C   0  0  2  0  0  0  0  0  0  0  0  0
   48.1495   33.5077   42.2696 C   0  0  0  0  0  0  0  0  0  0  0  0
   47.4481   32.6576   41.2541 C   0  0  0  0  0  0  0  0  0  0  0  0
   49.3355   32.2830   38.0306 C   0  0  0  0  0  0  0  0  0  0  0  0
   48.8163   32.0166   39.3073 C   0  0  0  0  0  0  0  0  0  0  0  0
   47.9923   32.9438   39.9088 C   0  0  0  0  0  0  0  0  0  0  0  0
   47.7215   34.0780   39.2310 N   0  0  0  0  0  0  0  0  0  0  0  0
   48.2302   34.3170   38.0035 C   0  0  0  0  0  0  0  0  0  0  0  0
   49.0355   33.4323   37.3930 N   0  0  0  0  0  0  0  0  0  0  0  0
   47.2030   32.6948   44.8496 O   0  0  0  0  0  0  0  0  0  0  0  0
   45.9971   30.5437   43.8663 O   0  0  0  0  0  0  0  0  0  0  0  0
   46.6649   31.1247   45.1175 P   0  0  2  0  0  0  0  0  0  0  0  0
   45.4078   31.2401   46.2713 O   0  0  0  0  0  0  0  0  0  0  0  0
   47.8334   30.1199   45.7403 O   0  0  0  0  0  0  0  0  0  0  0  0
   47.1694   36.2175   43.0678 H   0  0  0  0  0  0  0  0  0  0  0  0
   46.8687   35.5346   41.4696 H   0  0  0  0  0  0  0  0  0  0  0  0
   44.6637   34.9933   41.9426 H   0  0  0  0  0  0  0  0  0  0  0  0
   44.9500   36.6402   42.5575 H   0  0  0  0  0  0  0  0  0  0  0  0
   44.2778   35.9547   44.6103 H   0  0  0  0  0  0  0  0  0  0  0  0
   43.8160   34.3593   43.9632 H   0  0  0  0  0  0  0  0  0  0  0  0
   45.3406   33.9184   45.7437 H   0  0  0  0  0  0  0  0  0  0  0  0
   46.5196   35.2250   45.1373 H   0  0  0  0  0  0  0  0  0  0  0  0
   45.5588   32.8216   43.5700 H   0  0  0  0  0  0  0  0  0  0  0  0
   48.8152   32.8634   42.8692 H   0  0  0  0  0  0  0  0  0  0  0  0
   48.7709   34.2824   41.7811 H   0  0  0  0  0  0  0  0  0  0  0  0
   47.5329   31.5862   41.4732 H   0  0  0  0  0  0  0  0  0  0  0  0
   46.3424   32.8634   41.2176 H   0  0  0  0  0  0  0  0  0  0  0  0
   49.9841   31.5919   37.5164 H   0  0  0  0  0  0  0  0  0  0  0  0
   49.1032   31.0824   39.7432 H   0  0  0  0  0  0  0  0  0  0  0  0
   47.8940   35.2842   37.6274 H   0  0  0  0  0  0  0  0  0  0  0  0
   45.8429   31.4248   47.1532 H   0  0  0  0  0  0  0  0  0  0  0  0
   48.5804   27.2075   41.5947 H   0  0  0  0  0  0  0  0  0  0  0  0
   48.2887   27.9012   42.2913 N   0  0  0  0  0  0  0  0  0  0  0  0
   49.3993   28.6806   42.7610 C   0  0  0  0  0  0  0  0  0  0  0  0
   48.8352   29.7955   43.6263 C   0  0  0  0  0  0  0  0  0  0  0  0
   48.2836   29.1399   44.8823 C   0  0  0  0  0  0  0  0  0  0  0  0
   47.1630   28.2255   44.4352 C   0  0  0  0  0  0  0  0  0  0  0  0
   47.6625   27.2518   43.4100 C   0  0  0  0  0  0  0  0  0  0  0  0
   50.0182   28.0194   43.4325 H   0  0  0  0  0  0  0  0  0  0  0  0
   50.0052   29.1020   41.9187 H   0  0  0  0  0  0  0  0  0  0  0  0
   49.6193   30.5305   43.8926 H   0  0  0  0  0  0  0  0  0  0  0  0
   48.0076   30.2607   43.0800 H   0  0  0  0  0  0  0  0  0  0  0  0
   49.0680   28.4950   45.3550 H   0  0  0  0  0  0  0  0  0  0  0  0
   46.7452   27.6467   45.2863 H   0  0  0  0  0  0  0  0  0  0  0  0
   46.3895   28.8879   43.9680 H   0  0  0  0  0  0  0  0  0  0  0  0
   48.3736   26.5392   43.8960 H   0  0  0  0  0  0  0  0  0  0  0  0
   46.8034   26.6405   43.0641 H   0  0  0  0  0  0  0  0  0  0  0  0
  1  6  1  0
  2  3  1  0
  2  1  1  0
  3  4  1  0
  4  5  1  0
  6 15  1  0
  6  5  1  0
  7  1  1  0
  8  7  1  0
  9 10  2  0
 10 11  1  0
 11  8  1  0
 12 11  2  0
 13 12  1  0
 14 13  2  0
 14  9  1  0
 17 15  1  6
 16 17  2  0
 17 19  1  0
 17 18  1  0
  2 20  1  0
  2 21  1  0
  3 22  1  0
  3 23  1  0
  4 24  1  0
  4 25  1  0
  5 26  1  0
  5 27  1  0
  6 28  1  6
  7 29  1  0
  7 30  1  0
  8 31  1  0
  8 32  1  0
  9 33  1  0
 10 34  1  0
 13 35  1  0
 18 36  1  0
 37 38  1  0
 38 39  1  0
 39 40  1  0
 40 41  1  0
 41 42  1  0
 42 43  1  0
 43 38  1  0
 39 44  1  0
 39 45  1  0
 40 46  1  0
 40 47  1  0
 41 48  1  0
 42 49  1  0
 42 50  1  0
 43 51  1  0
 43 52  1  0
 19 41  1  0
M  ISO  8  20  13  21  13  22  13  23  13  24  13  25  13  26  13  27  13
M  ISO  8  28  13  29   8  30   8  31   8  32   8  33  14  34  14  35  14
M  ISO  2  36   3  37   5
M  END
>  <DihAtoms>  (1) 
16,18,40,39

>  <DihDeg>  (1) 
-122.0812567576318

$$$$
