REMARK  Name = 
REMARK  3 active torsions:
REMARK  status: ('A' for Active; 'I' for Inactive)
REMARK    1  A    between atoms: C_2  and  C_14
REMARK    2  A    between atoms: C_3  and  S_16
REMARK    3  A    between atoms: S_16  and  C_28
REMARK                            x       y       z     vdW  Elec       q    Type
REMARK                         _______ _______ _______ _____ _____    ______ ____
ROOT
ATOM      1  C   UNL     1      47.465  31.674  44.821  0.00  0.00    +0.000 A 
ATOM      2  C   UNL     1      46.781  32.862  44.543  0.00  0.00    +0.000 A 
ATOM      3  C   UNL     1      45.903  33.460  45.433  0.00  0.00    +0.000 A 
ATOM      4  C   UNL     1      45.684  32.855  46.670  0.00  0.00    +0.000 A 
ATOM      5  N   UNL     1      44.930  33.131  47.758  0.00  0.00    +0.000 N 
ATOM      6  C   UNL     1      45.118  32.170  48.691  0.00  0.00    +0.000 A 
ATOM      7  N   UNL     1      45.993  31.310  48.159  0.00  0.00    +0.000 NA
ATOM      8  C   UNL     1      46.359  31.695  46.930  0.00  0.00    +0.000 A 
ATOM      9  C   UNL     1      47.241  31.077  46.059  0.00  0.00    +0.000 A 
ATOM     10  H   UNL     1      48.146  31.242  44.087  0.00  0.00    +0.000 HD
ATOM     11  H   UNL     1      44.302  33.959  47.857  0.00  0.00    +0.000 HD
ATOM     12  H   UNL     1      44.621  32.154  49.674  0.00  0.00    +0.000 HD
ATOM     13  H   UNL     1      47.747  30.159  46.319  0.00  0.00    +0.000 HD
ENDROOT
BRANCH   2  18
ATOM     14  C   UNL     1      46.384  33.814  41.019  0.00  0.00    +0.000 A 
ATOM     15  C   UNL     1      47.422  34.712  40.821  0.00  0.00    +0.000 A 
ATOM     16  C   UNL     1      48.256  34.990  41.897  0.00  0.00    +0.000 A 
ATOM     17  N   UNL     1      48.020  34.371  43.096  0.00  0.00    +0.000 NA
ATOM     18  C   UNL     1      47.002  33.505  43.248  0.00  0.00    +0.000 A 
ATOM     19  N   UNL     1      46.185  33.223  42.221  0.00  0.00    +0.000 NA
ATOM     20  H   UNL     1      45.760  33.630  40.149  0.00  0.00    +0.000 HD
ATOM     21  H   UNL     1      47.669  35.234  39.921  0.00  0.00    +0.000 HD
ATOM     22  H   UNL     1      49.087  35.656  41.889  0.00  0.00    +0.000 HD
ENDBRANCH   2  18
BRANCH   3  23
ATOM     23  S   UNL     1      45.048  34.969  45.050  0.00  0.00    +0.000 S 
BRANCH  23  28
ATOM     24  H   UNL     1      40.974  36.037  41.760  0.00  0.00    +0.000 HD
ATOM     25  N   UNL     1      41.316  35.417  42.535  0.00  0.00    +0.000 NA
ATOM     26  C   UNL     1      42.445  34.696  42.036  0.00  0.00    +0.000 C 
ATOM     27  C   UNL     1      43.679  35.100  42.771  0.00  0.00    +0.000 C 
ATOM     28  C   UNL     1      43.470  34.735  44.241  0.00  0.00    +0.000 C 
ATOM     29  C   UNL     1      42.358  35.582  44.766  0.00  0.00    +0.000 C 
ATOM     30  C   UNL     1      41.574  36.257  43.664  0.00  0.00    +0.000 C 
ENDBRANCH  23  28
ENDBRANCH   3  23
TORSDOF 3
