REMARK  Name = 
REMARK  4 active torsions:
REMARK  status: ('A' for Active; 'I' for Inactive)
REMARK    1  A    between atoms: C_1  and  C_4
REMARK    2  A    between atoms: C_2  and  C_11
REMARK    3  A    between atoms: C_8  and  O_10
REMARK    4  A    between atoms: O_10  and  C_25
REMARK                            x       y       z     vdW  Elec       q    Type
REMARK                         _______ _______ _______ _____ _____    ______ ____
ROOT
ATOM      1  C   UNL     1      45.897  32.866  44.818  0.00  0.00    +0.000 A 
ATOM      2  C   UNL     1      46.728  31.753  44.500  0.00  0.00    +0.000 A 
ATOM      3  C   UNL     1      47.394  31.062  45.505  0.00  0.00    +0.000 A 
ATOM      4  N   UNL     1      47.215  31.497  46.782  0.00  0.00    +0.000 NA
ATOM      5  C   UNL     1      46.408  32.573  47.049  0.00  0.00    +0.000 A 
ATOM      6  N   UNL     1      45.765  33.239  46.087  0.00  0.00    +0.000 NA
ATOM      7  H   UNL     1      46.843  31.440  43.470  0.00  0.00    +0.000 HD
ATOM      8  H   UNL     1      48.023  30.227  45.310  0.00  0.00    +0.000 HD
ENDROOT
BRANCH   1   9
ATOM      9  C   UNL     1      45.229  33.563  43.713  0.00  0.00    +0.000 C 
ATOM     10  C   UNL     1      45.861  34.983  43.474  0.00  0.00    +0.000 C 
ATOM     11  C   UNL     1      45.799  33.866  42.457  0.00  0.00    +0.000 C 
ATOM     12  H   UNL     1      44.112  33.619  43.874  0.00  0.00    +0.000 HD
ATOM     13  H   UNL     1      46.805  35.210  43.960  0.00  0.00    +0.000 HD
ATOM     14  H   UNL     1      45.120  33.983  41.570  0.00  0.00    +0.000 HD
ATOM     15  H   UNL     1      46.795  33.497  42.138  0.00  0.00    +0.000 HD
BRANCH  10  16
ATOM     16  C   UNL     1      44.838  36.071  43.240  0.00  0.00    +0.000 C 
ATOM     17  F   UNL     1      45.367  37.329  43.241  0.00  0.00    +0.000 F 
ATOM     18  F   UNL     1      44.247  35.861  41.982  0.00  0.00    +0.000 F 
ATOM     19  F   UNL     1      43.790  35.969  44.144  0.00  0.00    +0.000 F 
ENDBRANCH  10  16
ENDBRANCH   1   9
BRANCH   5  20
ATOM     20  O   UNL     1      46.315  32.913  48.388  0.00  0.00    +0.000 OA
BRANCH  20  25
ATOM     21  H   UNL     1      46.543  29.260  48.245  0.00  0.00    +0.000 HD
ATOM     22  N   UNL     1      47.414  29.421  48.811  0.00  0.00    +0.000 NA
ATOM     23  C   UNL     1      47.029  29.872  50.133  0.00  0.00    +0.000 C 
ATOM     24  C   UNL     1      46.160  31.097  49.944  0.00  0.00    +0.000 C 
ATOM     25  C   UNL     1      47.023  32.166  49.338  0.00  0.00    +0.000 C 
ATOM     26  C   UNL     1      48.358  31.688  48.850  0.00  0.00    +0.000 C 
ATOM     27  C   UNL     1      48.309  30.354  48.163  0.00  0.00    +0.000 C 
ENDBRANCH  20  25
ENDBRANCH   5  20
TORSDOF 4
