
 OpenBabel03252509313D

 25 26  0  0  0  0  0  0  0  0999 V2000
   48.2480   33.1820   43.5420 O   0  0  0  0  0  0  0  0  0  0  0  0
   46.9430   33.3060   43.0490 C   0  0  0  0  0  0  0  0  0  0  0  0
   46.9150   33.8490   42.0640 H   0  0  0  0  0  0  0  0  0  0  0  0
   46.4720   32.3120   42.8520 H   0  0  0  0  0  0  0  0  0  0  0  0
   45.0800   34.2950   46.1180 C   0  0  0  0  0  0  0  0  0  0  0  0
   45.9040   33.5680   45.2410 C   0  0  0  0  0  0  0  0  0  0  0  0
   46.0950   34.0470   43.9640 C   0  0  0  0  0  0  0  0  0  0  0  0
   45.4700   35.2180   43.6040 N   0  0  0  0  0  0  0  0  0  0  0  0
   44.6810   35.8930   44.4780 C   0  0  0  0  0  0  0  0  0  0  0  0
   44.4900   35.4390   45.7110 N   0  0  0  0  0  0  0  0  0  0  0  0
   44.9180   33.9280   47.1330 H   0  0  0  0  0  0  0  0  0  0  0  0
   46.3340   32.6660   45.6470 H   0  0  0  0  0  0  0  0  0  0  0  0
   44.1870   36.8150   44.1990 H   0  0  0  0  0  0  0  0  0  0  0  0
   50.2990   32.7800   41.9770 O   0  0  0  0  0  0  0  0  0  0  0  0
   49.2830   33.8230   42.3600 P   0  0  2  0  0  0  0  0  0  0  0  0
   49.9620   35.2230   42.9930 O   0  0  0  0  0  0  0  0  0  0  0  0
   50.9030   35.0980   43.3030 H   0  0  0  0  0  0  0  0  0  0  0  0
   48.3410   34.1690   41.0010 O   0  0  0  0  0  0  0  0  0  0  0  0
   46.5630   31.8100   37.1300 H   0  0  0  0  0  0  0  0  0  0  0  0
   47.4030   32.2980   37.4840 N   0  0  0  0  0  0  0  0  0  0  0  0
   47.1020   33.6330   37.9620 C   0  0  0  0  0  2  0  0  0  0  0  0
   48.3110   34.2040   38.6630 C   0  0  0  0  0  2  0  0  0  0  0  0
   48.6670   33.4150   39.9050 C   0  0  0  0  0  3  0  0  0  0  0  0
   47.9320   32.0990   39.8400 C   0  0  0  0  0  2  0  0  0  0  0  0
   48.1860   31.5420   38.4370 C   0  0  0  0  0  2  0  0  0  0  0  0
  2  1  1  0  0  0  0
  2  7  1  0  0  0  0
  3  2  1  0  0  0  0
  4  2  1  0  0  0  0
  5 11  1  0  0  0  0
  6 12  1  0  0  0  0
  6  5  2  0  0  0  0
  7  6  1  0  0  0  0
  8  7  2  0  0  0  0
  8  9  1  0  0  0  0
  9 10  2  0  0  0  0
 10  5  1  0  0  0  0
 13  9  1  0  0  0  0
 15 14  2  6  0  0  0
 15 16  1  0  0  0  0
 15  1  1  0  0  0  0
 16 17  1  0  0  0  0
 18 15  1  0  0  0  0
 19 20  1  0  0  0  0
 20 21  1  0  0  0  0
 20 25  1  0  0  0  0
 21 22  1  0  0  0  0
 22 23  1  0  0  0  0
 23 18  1  0  0  0  0
 24 23  1  0  0  0  0
 25 24  1  0  0  0  0
M  END
>  <minimizedAffinity>
-4.4234271

>  <minimizedRMSD>
1.25470781

$$$$
