
     RDKit          3D

 34 35  0  0  0  0  0  0  0  0999 V2000
   47.1585   33.9831   42.4766 C   0  0  0  0  0  0  0  0  0  0  0  0
   45.2967   34.2256   45.6931 C   0  0  0  0  0  0  0  0  0  0  0  0
   46.1659   33.7544   44.6938 C   0  0  0  0  0  0  0  0  0  0  0  0
   46.2637   34.4603   43.5163 C   0  0  0  0  0  0  0  0  0  0  0  0
   45.5045   35.5979   43.3705 N   0  0  0  0  0  0  0  0  0  0  0  0
   44.6764   36.0228   44.3562 C   0  0  0  0  0  0  0  0  0  0  0  0
   44.5751   35.3487   45.4957 N   0  0  0  0  0  0  0  0  0  0  0  0
   48.3185   33.4169   43.0160 O   0  0  0  0  0  0  0  0  0  0  0  0
   50.6633   33.1020   41.9082 O   0  0  0  0  0  0  0  0  0  0  0  0
   49.6339   34.1524   42.2339 P   0  0  2  0  0  0  0  0  0  0  0  0
   50.2063   35.3647   43.2448 O   0  0  0  0  0  0  0  0  0  0  0  0
   49.0582   34.7971   40.7817 O   0  0  0  0  0  0  0  0  0  0  0  0
   47.3873   34.8629   41.8128 H   0  0  0  0  0  0  0  0  0  0  0  0
   46.6005   33.2628   41.8304 H   0  0  0  0  0  0  0  0  0  0  0  0
   45.2075   33.6771   46.6333 H   0  0  0  0  0  0  0  0  0  0  0  0
   46.7040   32.8506   44.9342 H   0  0  0  0  0  0  0  0  0  0  0  0
   44.0767   36.9177   44.2463 H   0  0  0  0  0  0  0  0  0  0  0  0
   51.0396   35.1087   43.7317 H   0  0  0  0  0  0  0  0  0  0  0  0
   48.2680   32.7858   36.4193 H   0  0  0  0  0  0  0  0  0  0  0  0
   48.9560   33.3341   36.9615 N   0  0  0  0  0  0  0  0  0  0  0  0
   48.3719   34.5295   37.5398 C   0  0  0  0  0  0  0  0  0  0  0  0
   49.3572   35.1628   38.4914 C   0  0  0  0  0  0  0  0  0  0  0  0
   49.6580   34.2641   39.6728 C   0  0  0  0  0  0  0  0  0  0  0  0
   49.1686   32.8791   39.3308 C   0  0  0  0  0  0  0  0  0  0  0  0
   49.7086   32.5714   37.9321 C   0  0  0  0  0  0  0  0  0  0  0  0
   47.3753   34.3942   37.9595 H   0  0  0  0  0  0  0  0  0  0  0  0
   48.2665   35.2621   36.6906 H   0  0  0  0  0  0  0  0  0  0  0  0
   48.9241   36.1404   38.7737 H   0  0  0  0  0  0  0  0  0  0  0  0
   50.2874   35.3813   37.9372 H   0  0  0  0  0  0  0  0  0  0  0  0
   50.7543   34.2122   39.8305 H   0  0  0  0  0  0  0  0  0  0  0  0
   48.0820   32.8118   39.2798 H   0  0  0  0  0  0  0  0  0  0  0  0
   49.5620   32.0844   39.9914 H   0  0  0  0  0  0  0  0  0  0  0  0
   50.7945   32.7829   37.8589 H   0  0  0  0  0  0  0  0  0  0  0  0
   49.5755   31.4731   37.7905 H   0  0  0  0  0  0  0  0  0  0  0  0
  1  8  1  0
  1  4  1  0
  3  2  2  0
  4  3  1  0
  5  4  2  0
  5  6  1  0
  6  7  2  0
  7  2  1  0
  9 10  2  0
 10  8  1  1
 10 11  1  0
 12 10  1  0
  1 13  1  0
  1 14  1  0
  2 15  1  0
  3 16  1  0
  6 17  1  0
 11 18  1  0
 19 20  1  0
 20 21  1  0
 21 22  1  0
 22 23  1  0
 23 24  1  0
 24 25  1  0
 25 20  1  0
 21 26  1  0
 21 27  1  0
 22 28  1  0
 22 29  1  0
 23 30  1  0
 24 31  1  0
 24 32  1  0
 25 33  1  0
 25 34  1  0
 12 23  1  0
M  ISO  7  13   8  14   8  15  14  16  14  17  14  18   3  19   5
M  END
>  <DihAtoms>  (1) 
9,11,22,21

>  <DihDeg>  (1) 
-119.52033412483071

$$$$
