
     RDKit          3D

 34 35  0  0  0  0  0  0  0  0999 V2000
   45.5038   34.9111   44.1450 C   0  0  0  0  0  0  0  0  0  0  0  0
   46.5418   34.2337   43.5226 C   0  0  0  0  0  0  0  0  0  0  0  0
   47.1421   33.1726   44.2261 C   0  0  0  0  0  0  0  0  0  0  0  0
   46.6858   32.8716   45.4508 N   0  0  0  0  0  0  0  0  0  0  0  0
   45.6610   33.5683   46.0209 C   0  0  0  0  0  0  0  0  0  0  0  0
   45.0807   34.5862   45.3534 N   0  0  0  0  0  0  0  0  0  0  0  0
   44.8664   36.0376   43.3984 C   0  0  0  0  0  0  0  0  0  0  0  0
   45.3036   33.1369   47.2912 O   0  0  0  0  0  0  0  0  0  0  0  0
   45.3437   31.7145   49.4377 O   0  0  0  0  0  0  0  0  0  0  0  0
   45.6189   31.6211   47.9401 P   0  0  1  0  0  0  0  0  0  0  0  0
   44.5976   30.4124   47.3475 O   0  0  0  0  0  0  0  0  0  0  0  0
   47.2055   31.1731   47.6541 O   0  0  0  0  0  0  0  0  0  0  0  0
   46.8998   34.4875   42.5336 H   0  0  0  0  0  0  0  0  0  0  0  0
   47.9415   32.6584   43.7346 H   0  0  0  0  0  0  0  0  0  0  0  0
   44.0915   36.5276   44.0073 H   0  0  0  0  0  0  0  0  0  0  0  0
   45.6182   36.8138   43.1423 H   0  0  0  0  0  0  0  0  0  0  0  0
   44.4556   35.6390   42.4385 H   0  0  0  0  0  0  0  0  0  0  0  0
   44.6048   30.4036   46.3482 H   0  0  0  0  0  0  0  0  0  0  0  0
   49.0471   29.3524   51.0533 H   0  0  0  0  0  0  0  0  0  0  0  0
   49.3312   30.3001   50.8024 N   0  0  0  0  0  0  0  0  0  0  0  0
   48.4473   31.3676   51.1175 C   0  0  0  0  0  0  0  0  0  0  0  0
   47.6035   31.8567   49.9563 C   0  0  0  0  0  0  0  0  0  0  0  0
   47.9965   31.0499   48.7585 C   0  0  0  0  0  0  0  0  0  0  0  0
   49.4669   31.2483   48.5407 C   0  0  0  0  0  0  0  0  0  0  0  0
   50.1642   30.4667   49.6623 C   0  0  0  0  0  0  0  0  0  0  0  0
   48.9542   32.1978   51.6676 H   0  0  0  0  0  0  0  0  0  0  0  0
   47.7112   30.9630   51.8714 H   0  0  0  0  0  0  0  0  0  0  0  0
   47.8650   32.9443   49.8408 H   0  0  0  0  0  0  0  0  0  0  0  0
   46.5130   31.7685   50.1392 H   0  0  0  0  0  0  0  0  0  0  0  0
   47.8721   29.9698   49.0640 H   0  0  0  0  0  0  0  0  0  0  0  0
   49.7433   32.3194   48.6904 H   0  0  0  0  0  0  0  0  0  0  0  0
   49.7926   30.9140   47.5457 H   0  0  0  0  0  0  0  0  0  0  0  0
   51.1668   30.8466   49.8585 H   0  0  0  0  0  0  0  0  0  0  0  0
   50.3024   29.4409   49.2098 H   0  0  0  0  0  0  0  0  0  0  0  0
  1  6  2  0
  2  1  1  0
  2  3  2  0
  3  4  1  0
  4  5  2  0
  5  8  1  0
  6  5  1  0
  7  1  1  0
 10  8  1  6
 10  9  2  0
 11 10  1  0
 12 10  1  0
  2 13  1  0
  3 14  1  0
  7 15  1  0
  7 16  1  0
  7 17  1  0
 11 18  1  0
 19 20  1  0
 20 21  1  0
 21 22  1  0
 22 23  1  0
 23 24  1  0
 24 25  1  0
 25 20  1  0
 21 26  1  0
 21 27  1  0
 22 28  1  0
 22 29  1  0
 23 30  1  0
 24 31  1  0
 24 32  1  0
 25 33  1  0
 25 34  1  0
 12 23  1  0
M  ISO  7  13  14  14  14  15   8  16   8  17   8  18   3  19   5
M  END
>  <DihAtoms>  (1) 
9,11,22,21

>  <DihDeg>  (1) 
-115.81247200715778

$$$$
