
     RDKit          3D

 36 38  0  0  0  0  0  0  0  0999 V2000
   45.2288   33.5631   43.7133 C   0  0  1  0  0  0  0  0  0  0  0  0
   45.8615   34.9830   43.4743 C   0  0  1  0  0  0  0  0  0  0  0  0
   45.7987   33.8657   42.4567 C   0  0  0  0  0  0  0  0  0  0  0  0
   45.8966   32.8658   44.8176 C   0  0  0  0  0  0  0  0  0  0  0  0
   46.7278   31.7525   44.4999 C   0  0  0  0  0  0  0  0  0  0  0  0
   47.3942   31.0619   45.5046 C   0  0  0  0  0  0  0  0  0  0  0  0
   47.2147   31.4974   46.7825 N   0  0  0  0  0  0  0  0  0  0  0  0
   46.4077   32.5732   47.0490 C   0  0  0  0  0  0  0  0  0  0  0  0
   45.7646   33.2395   46.0873 N   0  0  0  0  0  0  0  0  0  0  0  0
   46.3153   32.9131   48.3884 O   0  0  0  0  0  0  0  0  0  0  0  0
   44.8377   36.0711   43.2404 C   0  0  0  0  0  0  0  0  0  0  0  0
   45.3675   37.3288   43.2412 F   0  0  0  0  0  0  0  0  0  0  0  0
   44.2466   35.8611   41.9824 F   0  0  0  0  0  0  0  0  0  0  0  0
   43.7903   35.9688   44.1444 F   0  0  0  0  0  0  0  0  0  0  0  0
   44.1120   33.6186   43.8739 H   0  0  0  0  0  0  0  0  0  0  0  0
   46.8053   35.2099   43.9598 H   0  0  0  0  0  0  0  0  0  0  0  0
   45.1199   33.9832   41.5704 H   0  0  0  0  0  0  0  0  0  0  0  0
   46.7947   33.4970   42.1382 H   0  0  0  0  0  0  0  0  0  0  0  0
   46.8429   31.4403   43.4696 H   0  0  0  0  0  0  0  0  0  0  0  0
   48.0227   30.2267   45.3100 H   0  0  0  0  0  0  0  0  0  0  0  0
   49.1381   30.7586   47.4914 H   0  0  0  0  0  0  0  0  0  0  0  0
   49.4043   30.9058   48.4973 N   0  0  0  0  0  0  0  0  0  0  0  0
   48.4526   30.2036   49.3344 C   0  0  0  0  0  0  0  0  0  0  0  0
   47.0770   30.7136   48.9603 C   0  0  0  0  0  0  0  0  0  0  0  0
   47.0225   32.1659   49.3383 C   0  0  0  0  0  0  0  0  0  0  0  0
   48.3477   32.7658   49.7050 C   0  0  0  0  0  0  0  0  0  0  0  0
   49.4807   32.3114   48.8305 C   0  0  0  0  0  0  0  0  0  0  0  0
   48.6475   30.4832   50.3832 H   0  0  0  0  0  0  0  0  0  0  0  0
   48.5572   29.1289   49.1078 H   0  0  0  0  0  0  0  0  0  0  0  0
   46.3266   30.1044   49.5207 H   0  0  0  0  0  0  0  0  0  0  0  0
   46.8959   30.5775   47.8570 H   0  0  0  0  0  0  0  0  0  0  0  0
   46.4006   32.2256   50.2803 H   0  0  0  0  0  0  0  0  0  0  0  0
   48.2711   33.8689   49.6144 H   0  0  0  0  0  0  0  0  0  0  0  0
   48.6191   32.5474   50.7598 H   0  0  0  0  0  0  0  0  0  0  0  0
   50.4231   32.4274   49.4084 H   0  0  0  0  0  0  0  0  0  0  0  0
   49.6069   32.8816   47.8976 H   0  0  0  0  0  0  0  0  0  0  0  0
  1  4  1  0
  2  1  1  0
  3  2  1  0
  3  1  1  0
  4  9  1  0
  5  4  2  0
  5  6  1  0
  6  7  2  0
  7  8  1  0
  8 10  1  0
  9  8  2  0
 11  2  1  0
 11 14  1  0
 12 11  1  0
 13 11  1  0
  1 15  1  6
  2 16  1  1
  3 17  1  0
  3 18  1  0
  5 19  1  0
  6 20  1  0
 21 22  1  0
 22 23  1  0
 23 24  1  0
 24 25  1  0
 25 26  1  0
 26 27  1  0
 27 22  1  0
 23 28  1  0
 23 29  1  0
 24 30  1  0
 24 31  1  0
 25 32  1  0
 26 33  1  0
 26 34  1  0
 27 35  1  0
 27 36  1  0
 10 25  1  0
M  ISO  7  15  13  16  13  17  13  18  13  19  14  20  14  21   5
M  END
>  <DihAtoms>  (1) 
7,9,24,23

>  <DihDeg>  (1) 
114.67291907576084

$$$$
