
 OpenBabel03252504223D

 30 33  0  0  0  0  0  0  0  0999 V2000
   47.7690   33.5010   40.1440 C   0  0  0  0  0  0  0  0  0  0  0  0
   49.1100   33.2340   40.4140 C   0  0  0  0  0  0  0  0  0  0  0  0
   49.5660   33.3130   41.7620 C   0  0  0  0  0  0  0  0  0  0  0  0
   48.6330   33.6510   42.7020 N   0  0  0  0  0  0  0  0  0  0  0  0
   47.3380   33.9030   42.3920 C   0  0  0  0  0  0  0  0  0  0  0  0
   46.9220   33.8250   41.1170 N   0  0  0  0  0  0  0  0  0  0  0  0
   46.4510   34.2470   43.4510 N   0  0  0  0  0  0  0  0  0  0  0  0
   45.5400   35.2490   43.4210 C   0  0  0  0  0  0  0  0  0  0  0  0
   44.8880   35.2610   44.6240 N   0  0  0  0  0  0  0  0  0  0  0  0
   45.4170   34.2720   45.3430 C   0  0  0  0  0  0  0  0  0  0  0  0
   45.1940   33.7770   46.6200 C   0  0  0  0  0  0  0  0  0  0  0  0
   45.8630   32.7590   47.1320 N   0  0  0  0  0  0  0  0  0  0  0  0
   46.8260   32.1210   46.4340 C   0  0  0  0  0  0  0  0  0  0  0  0
   47.0450   32.5990   45.1970 N   0  0  0  0  0  0  0  0  0  0  0  0
   46.4010   33.6190   44.6370 C   0  0  0  0  0  0  0  0  0  0  0  0
   49.9120   32.9580   39.7440 H   0  0  0  0  0  0  0  0  0  0  0  0
   50.5700   33.1240   42.0440 H   0  0  0  0  0  0  0  0  0  0  0  0
   45.3720   35.9150   42.5810 H   0  0  0  0  0  0  0  0  0  0  0  0
   47.3910   31.2850   46.8220 H   0  0  0  0  0  0  0  0  0  0  0  0
   44.2100   34.3500   47.4700 N   0  0  0  0  0  0  0  0  0  0  0  0
   43.4180   33.8870   47.9550 H   0  0  0  0  0  0  0  0  0  0  0  0
   44.3470   35.3950   47.5950 H   0  0  0  0  0  0  0  0  0  0  0  0
   47.3090   33.3770   38.4210 S   0  0  0  0  0  0  0  0  0  0  0  0
   45.8310   32.1800   35.4960 H   0  0  0  0  0  0  0  0  0  0  0  0
   46.6830   31.5880   35.5960 N   0  0  0  0  0  0  0  0  0  0  0  0
   47.8900   32.1820   35.0760 C   0  0  0  0  0  2  0  0  0  0  0  0
   48.5260   33.1710   36.0280 C   0  0  0  0  0  2  0  0  0  0  0  0
   48.5870   32.6160   37.4380 C   0  0  0  0  0  3  0  0  0  0  0  0
   48.2930   31.1330   37.3380 C   0  0  0  0  0  2  0  0  0  0  0  0
   46.8230   31.0240   36.9160 C   0  0  0  0  0  2  0  0  0  0  0  0
  1  2  2  0  0  0  0
  1  6  1  0  0  0  0
  2  3  1  0  0  0  0
  3 17  1  0  0  0  0
  3  4  2  0  0  0  0
  5  4  1  0  0  0  0
  5  7  1  0  0  0  0
  6  5  2  0  0  0  0
  7 15  1  0  0  0  0
  8  7  1  0  0  0  0
  8  9  2  0  0  0  0
  9 10  1  0  0  0  0
 10 11  1  0  0  0  0
 11 12  2  0  0  0  0
 11 20  1  0  0  0  0
 13 19  1  0  0  0  0
 13 12  1  0  0  0  0
 14 13  2  0  0  0  0
 15 14  1  0  0  0  0
 15 10  2  0  0  0  0
 16  2  1  0  0  0  0
 18  8  1  0  0  0  0
 20 22  1  0  0  0  0
 20 21  1  0  0  0  0
 23  1  1  0  0  0  0
 24 25  1  0  0  0  0
 25 30  1  0  0  0  0
 26 25  1  0  0  0  0
 26 27  1  0  0  0  0
 27 28  1  0  0  0  0
 28 23  1  0  0  0  0
 29 28  1  0  0  0  0
 30 29  1  0  0  0  0
M  END
>  <minimizedAffinity>
-5.7205143

>  <minimizedRMSD>
0.270751595

$$$$
