
     RDKit          3D

 32 34  0  0  0  0  0  0  0  0999 V2000
   44.5638   35.8695   44.4087 C   0  0  0  0  0  0  0  0  0  0  0  0
   45.3379   35.9372   43.2179 C   0  0  0  0  0  0  0  0  0  0  0  0
   46.3302   34.9869   43.0475 C   0  0  0  0  0  0  0  0  0  0  0  0
   46.5093   34.0474   44.0213 N   0  0  0  0  0  0  0  0  0  0  0  0
   45.7580   34.0097   45.1404 C   0  0  0  0  0  0  0  0  0  0  0  0
   44.7956   34.9230   45.3165 N   0  0  0  0  0  0  0  0  0  0  0  0
   47.1962   34.9396   41.8761 C   0  0  0  0  0  0  0  0  0  0  0  0
   46.9695   34.2371   40.7221 C   0  0  0  0  0  0  0  0  0  0  0  0
   48.0265   34.4474   39.8402 C   0  0  0  0  0  0  0  0  0  0  0  0
   48.8648   35.2760   40.4928 N   0  0  0  0  0  0  0  0  0  0  0  0
   48.3882   35.5712   41.6875 N   0  0  0  0  0  0  0  0  0  0  0  0
   43.7796   36.6082   44.5594 H   0  0  0  0  0  0  0  0  0  0  0  0
   45.1805   36.6777   42.4734 H   0  0  0  0  0  0  0  0  0  0  0  0
   45.9233   33.2503   45.8982 H   0  0  0  0  0  0  0  0  0  0  0  0
   46.0790   33.6188   40.5642 H   0  0  0  0  0  0  0  0  0  0  0  0
   48.0842   34.0042   38.8632 H   0  0  0  0  0  0  0  0  0  0  0  0
   51.9139   37.1238   37.6997 H   0  0  0  0  0  0  0  0  0  0  0  0
   50.9291   37.4176   37.6729 N   0  0  0  0  0  0  0  0  0  0  0  0
   50.0091   36.3588   37.3810 C   0  0  0  0  0  0  0  0  0  0  0  0
   50.0403   35.2599   38.4062 C   0  0  0  0  0  0  0  0  0  0  0  0
   50.0873   35.6929   39.8275 C   0  0  0  0  0  0  0  0  0  0  0  0
   50.4136   37.1143   40.0748 C   0  0  0  0  0  0  0  0  0  0  0  0
   50.4497   38.0217   38.8943 C   0  0  0  0  0  0  0  0  0  0  0  0
   50.2734   35.9048   36.4005 H   0  0  0  0  0  0  0  0  0  0  0  0
   48.9944   36.7881   37.3010 H   0  0  0  0  0  0  0  0  0  0  0  0
   50.8906   34.5841   38.1237 H   0  0  0  0  0  0  0  0  0  0  0  0
   49.1394   34.6366   38.2060 H   0  0  0  0  0  0  0  0  0  0  0  0
   50.8979   35.0808   40.3229 H   0  0  0  0  0  0  0  0  0  0  0  0
   49.6552   37.5473   40.7716 H   0  0  0  0  0  0  0  0  0  0  0  0
   51.3853   37.2602   40.6322 H   0  0  0  0  0  0  0  0  0  0  0  0
   49.4567   38.4604   38.6834 H   0  0  0  0  0  0  0  0  0  0  0  0
   51.1156   38.8904   39.0956 H   0  0  0  0  0  0  0  0  0  0  0  0
  1  6  2  0
  2  1  1  0
  3  2  2  0
  3  4  1  0
  4  5  2  0
  5  6  1  0
  7  3  1  0
  8  7  1  0
  9 10  1  0
  9  8  2  0
 10 11  1  0
 11  7  2  0
  1 12  1  0
  2 13  1  0
  5 14  1  0
  8 15  1  0
  9 16  1  0
 17 18  1  0
 18 19  1  0
 19 20  1  0
 20 21  1  0
 21 22  1  0
 22 23  1  0
 23 18  1  0
 19 24  1  0
 19 25  1  0
 20 26  1  0
 20 27  1  0
 21 28  1  0
 22 29  1  0
 22 30  1  0
 23 31  1  0
 23 32  1  0
 10 21  1  0
M  ISO  6  12  14  13  14  14  14  15  14  16  14  17   5
M  END
>  <DihAtoms>  (1) 
8,9,20,19

>  <DihDeg>  (1) 
-65.59007580521924

$$$$
