
     RDKit          3D

 36 38  0  0  0  0  0  0  0  0999 V2000
   45.2288   33.5631   43.7133 C   0  0  1  0  0  0  0  0  0  0  0  0
   45.8615   34.9830   43.4743 C   0  0  1  0  0  0  0  0  0  0  0  0
   45.7987   33.8657   42.4567 C   0  0  0  0  0  0  0  0  0  0  0  0
   45.8966   32.8658   44.8176 C   0  0  0  0  0  0  0  0  0  0  0  0
   46.7278   31.7525   44.4999 C   0  0  0  0  0  0  0  0  0  0  0  0
   47.3942   31.0619   45.5046 C   0  0  0  0  0  0  0  0  0  0  0  0
   47.2147   31.4974   46.7825 N   0  0  0  0  0  0  0  0  0  0  0  0
   46.4077   32.5732   47.0490 C   0  0  0  0  0  0  0  0  0  0  0  0
   45.7646   33.2395   46.0873 N   0  0  0  0  0  0  0  0  0  0  0  0
   46.3153   32.9131   48.3884 O   0  0  0  0  0  0  0  0  0  0  0  0
   44.8377   36.0711   43.2404 C   0  0  0  0  0  0  0  0  0  0  0  0
   45.3675   37.3288   43.2412 F   0  0  0  0  0  0  0  0  0  0  0  0
   44.2466   35.8611   41.9824 F   0  0  0  0  0  0  0  0  0  0  0  0
   43.7903   35.9688   44.1444 F   0  0  0  0  0  0  0  0  0  0  0  0
   44.1120   33.6186   43.8739 H   0  0  0  0  0  0  0  0  0  0  0  0
   46.8053   35.2099   43.9598 H   0  0  0  0  0  0  0  0  0  0  0  0
   45.1199   33.9832   41.5704 H   0  0  0  0  0  0  0  0  0  0  0  0
   46.7947   33.4970   42.1382 H   0  0  0  0  0  0  0  0  0  0  0  0
   46.8429   31.4403   43.4696 H   0  0  0  0  0  0  0  0  0  0  0  0
   48.0227   30.2267   45.3100 H   0  0  0  0  0  0  0  0  0  0  0  0
   48.5736   30.1834   47.4592 H   0  0  0  0  0  0  0  0  0  0  0  0
   49.0082   30.3969   48.3919 N   0  0  0  0  0  0  0  0  0  0  0  0
   48.0892   29.9867   49.4344 C   0  0  0  0  0  0  0  0  0  0  0  0
   46.7774   30.6942   49.1681 C   0  0  0  0  0  0  0  0  0  0  0  0
   47.0225   32.1659   49.3383 C   0  0  0  0  0  0  0  0  0  0  0  0
   48.4688   32.5498   49.4449 C   0  0  0  0  0  0  0  0  0  0  0  0
   49.3664   31.7936   48.5082 C   0  0  0  0  0  0  0  0  0  0  0  0
   48.4828   30.3477   50.3992 H   0  0  0  0  0  0  0  0  0  0  0  0
   47.9784   28.8920   49.3525 H   0  0  0  0  0  0  0  0  0  0  0  0
   46.0286   30.3048   49.9002 H   0  0  0  0  0  0  0  0  0  0  0  0
   46.4129   30.4642   48.1275 H   0  0  0  0  0  0  0  0  0  0  0  0
   46.5674   32.4506   50.3331 H   0  0  0  0  0  0  0  0  0  0  0  0
   48.5641   33.6294   49.2079 H   0  0  0  0  0  0  0  0  0  0  0  0
   48.8550   32.4114   50.4772 H   0  0  0  0  0  0  0  0  0  0  0  0
   50.3908   31.8010   48.9397 H   0  0  0  0  0  0  0  0  0  0  0  0
   49.4445   32.2161   47.4950 H   0  0  0  0  0  0  0  0  0  0  0  0
  1  4  1  0
  2  1  1  0
  3  2  1  0
  3  1  1  0
  4  9  1  0
  5  4  2  0
  5  6  1  0
  6  7  2  0
  7  8  1  0
  8 10  1  0
  9  8  2  0
 11  2  1  0
 11 14  1  0
 12 11  1  0
 13 11  1  0
  1 15  1  6
  2 16  1  1
  3 17  1  0
  3 18  1  0
  5 19  1  0
  6 20  1  0
 21 22  1  0
 22 23  1  0
 23 24  1  0
 24 25  1  0
 25 26  1  0
 26 27  1  0
 27 22  1  0
 23 28  1  0
 23 29  1  0
 24 30  1  0
 24 31  1  0
 25 32  1  0
 26 33  1  0
 26 34  1  0
 27 35  1  0
 27 36  1  0
 10 25  1  0
M  ISO  7  15  13  16  13  17  13  18  13  19  14  20  14  21   5
M  END
>  <DihAtoms>  (1) 
7,9,24,23

>  <DihDeg>  (1) 
114.67291907576084

$$$$
