
 OpenBabel03252505473D

 27 29  0  0  1  0  0  0  0  0999 V2000
   45.9070   32.8950   44.0940 C   0  0  0  0  0  0  0  0  0  0  0  0
   46.4040   31.6550   43.6000 C   0  0  0  0  0  0  0  0  0  0  0  0
   47.1710   30.8290   44.4130 C   0  0  0  0  0  0  0  0  0  0  0  0
   47.4180   31.2600   45.6800 N   0  0  0  0  0  0  0  0  0  0  0  0
   46.9230   32.4610   46.1200 C   0  0  0  0  0  0  0  0  0  0  0  0
   46.1850   33.2570   45.3430 N   0  0  0  0  0  0  0  0  0  0  0  0
   46.1840   31.3500   42.5840 H   0  0  0  0  0  0  0  0  0  0  0  0
   47.5600   29.8960   44.0820 H   0  0  0  0  0  0  0  0  0  0  0  0
   45.1130   33.7290   43.1850 C   0  0  1  0  0  0  0  0  0  0  0  0
   45.7560   35.1550   43.0170 C   0  0  1  0  0  0  0  0  0  0  0  0
   45.5070   34.1660   41.9010 C   0  0  0  0  0  0  0  0  0  0  0  0
   44.0340   33.7880   43.5140 H   0  0  0  0  0  0  0  0  0  0  0  0
   46.7680   35.3050   43.3820 H   0  0  0  0  0  0  0  0  0  0  0  0
   44.7130   34.3990   41.1430 H   0  0  0  0  0  0  0  0  0  0  0  0
   46.4330   33.8170   41.4000 H   0  0  0  0  0  0  0  0  0  0  0  0
   44.7500   36.2830   43.0600 C   0  0  0  0  0  0  0  0  0  0  0  0
   45.3190   37.5190   43.1610 F   0  0  0  0  0  0  0  0  0  0  0  0
   44.0030   36.2560   41.8700 F   0  0  0  0  0  0  0  0  0  0  0  0
   43.8180   36.0780   44.0680 F   0  0  0  0  0  0  0  0  0  0  0  0
   47.2500   32.7810   47.4270 O   0  0  0  0  0  0  0  0  0  0  0  0
   46.0090   29.3560   47.0450 H   0  0  0  0  0  0  0  0  0  0  0  0
   46.1440   29.3280   48.0870 N   0  0  0  0  0  0  0  0  0  0  0  0
   45.1490   30.1810   48.7050 C   0  0  0  0  0  2  0  0  0  0  0  0
   45.2990   31.5530   48.0820 C   0  0  0  0  0  2  0  0  0  0  0  0
   46.6490   32.0780   48.4780 C   0  0  0  0  0  3  0  0  0  0  0  0
   47.5520   31.0610   49.1110 C   0  0  0  0  0  2  0  0  0  0  0  0
   47.4880   29.7080   48.4630 C   0  0  0  0  0  2  0  0  0  0  0  0
  1  6  1  0  0  0  0
  2  1  2  0  0  0  0
  2  3  1  0  0  0  0
  3  4  2  0  0  0  0
  4  5  1  0  0  0  0
  5 20  1  0  0  0  0
  6  5  2  0  0  0  0
  7  2  1  0  0  0  0
  8  3  1  0  0  0  0
  9 12  1  1  0  0  0
  9  1  1  0  0  0  0
 10 16  1  0  0  0  0
 10  9  1  0  0  0  0
 10 13  1  1  0  0  0
 11 10  1  0  0  0  0
 11  9  1  0  0  0  0
 14 11  1  0  0  0  0
 15 11  1  0  0  0  0
 16 17  1  0  0  0  0
 16 19  1  0  0  0  0
 18 16  1  0  0  0  0
 20 25  1  0  0  0  0
 21 22  1  0  0  0  0
 22 27  1  0  0  0  0
 22 23  1  0  0  0  0
 24 25  1  0  0  0  0
 24 23  1  0  0  0  0
 25 26  1  0  0  0  0
 27 26  1  0  0  0  0
M  END
>  <minimizedAffinity>
-4.95044613

>  <minimizedRMSD>
1.08177924

$$$$
