
 OpenBabel03252503173D

 34 37  0  0  0  0  0  0  0  0999 V2000
   38.6400   27.3180   42.5890 C   0  0  0  0  0  0  0  0  0  0  0  0
   39.3110   27.3950   43.6660 O   0  0  0  0  0  0  0  0  0  0  0  0
   38.1290   28.5180   41.8300 C   0  0  0  0  0  0  0  0  0  0  0  0
   38.7210   29.0900   40.7150 C   0  0  0  0  0  0  0  0  0  0  0  0
   37.9170   30.1170   40.3950 N   0  0  0  0  0  0  0  0  0  0  0  0
   36.8890   30.1770   41.2610 C   0  0  0  0  0  0  0  0  0  0  0  0
   37.0050   29.1750   42.1750 N   0  0  0  0  0  0  0  0  0  0  0  0
   35.7730   31.0720   41.3590 N   0  0  0  0  0  0  0  0  0  0  0  0
   39.6280   28.7710   40.2220 H   0  0  0  0  0  0  0  0  0  0  0  0
   35.8070   31.8100   42.1050 H   0  0  0  0  0  0  0  0  0  0  0  0
   35.0940   30.7760   40.5990 H   0  0  0  0  0  0  0  0  0  0  0  0
   38.1370   33.0800   36.9360 H   0  0  0  0  0  0  0  0  0  0  0  0
   38.5400   32.1450   36.8300 N   0  0  0  0  0  0  0  0  0  0  0  0
   37.5880   31.0590   36.8420 C   0  0  0  0  0  2  0  0  0  0  0  0
   37.0950   30.7130   38.2150 C   0  0  0  0  0  2  0  0  0  0  0  0
   38.0800   31.0540   39.2980 C   0  0  0  0  0  3  0  0  0  0  0  0
   39.5220   30.9840   38.7760 C   0  0  0  0  0  2  0  0  0  0  0  0
   39.7050   31.8910   37.6170 C   0  0  0  0  0  2  0  0  0  0  0  0
   37.0900   25.4730   42.1830 C   0  0  0  0  0  0  0  0  0  0  0  0
   38.3780   26.0050   42.1060 C   0  0  0  0  0  0  0  0  0  0  0  0
   39.3320   25.1670   41.5430 C   0  0  0  0  0  0  0  0  0  0  0  0
   39.0360   23.9420   41.1050 N   0  0  0  0  0  0  0  0  0  0  0  0
   37.7600   23.4650   41.2010 C   0  0  0  0  0  0  0  0  0  0  0  0
   36.8000   24.2380   41.7410 N   0  0  0  0  0  0  0  0  0  0  0  0
   36.2960   26.0850   42.6170 H   0  0  0  0  0  0  0  0  0  0  0  0
   37.5140   22.4670   40.8460 H   0  0  0  0  0  0  0  0  0  0  0  0
   40.6630   25.6350   41.4310 C   0  0  0  0  0  0  0  0  0  0  0  0
   41.3390   26.3890   40.5220 C   0  0  0  0  0  0  0  0  0  0  0  0
   42.6250   26.6790   40.6790 C   0  0  0  0  0  0  0  0  0  0  0  0
   43.2490   26.2010   41.7800 C   0  0  0  0  0  0  0  0  0  0  0  0
   41.9150   25.2810   42.6370 S   0  0  0  0  0  0  0  0  0  0  0  0
   40.7280   26.7260   39.6600 H   0  0  0  0  0  0  0  0  0  0  0  0
   43.2240   27.2710   39.9980 H   0  0  0  0  0  0  0  0  0  0  0  0
   44.2630   26.2810   42.1500 H   0  0  0  0  0  0  0  0  0  0  0  0
  1  2  2  0  0  0  0
  3  7  1  0  0  0  0
  3  1  1  0  0  0  0
  4  3  2  0  0  0  0
  5  4  1  0  0  0  0
  5  6  1  0  0  0  0
  6  8  1  0  0  0  0
  6  7  2  0  0  0  0
  8 10  1  0  0  0  0
  9  4  1  0  0  0  0
 11  8  1  0  0  0  0
 13 14  1  0  0  0  0
 13 12  1  0  0  0  0
 13 18  1  0  0  0  0
 14 15  1  0  0  0  0
 15 16  1  0  0  0  0
 16  5  1  0  0  0  0
 17 16  1  0  0  0  0
 18 17  1  0  0  0  0
 19 25  1  0  0  0  0
 20 19  1  0  0  0  0
 20  1  1  0  0  0  0
 21 20  2  0  0  0  0
 22 23  2  0  0  0  0
 22 21  1  0  0  0  0
 23 24  1  0  0  0  0
 24 19  2  0  0  0  0
 26 23  1  0  0  0  0
 27 21  1  0  0  0  0
 27 31  1  0  0  0  0
 28 29  1  0  0  0  0
 28 27  2  0  0  0  0
 29 30  2  0  0  0  0
 30 34  1  0  0  0  0
 30 31  1  0  0  0  0
 32 28  1  0  0  0  0
 33 29  1  0  0  0  0
M  END
>  <minimizedAffinity>
-5.95960236

$$$$

 OpenBabel03252503173D

 34 37  0  0  0  0  0  0  0  0999 V2000
   37.6210   27.9130   42.3620 C   0  0  0  0  0  0  0  0  0  0  0  0
   36.5490   27.5570   42.9460 O   0  0  0  0  0  0  0  0  0  0  0  0
   37.7250   29.1160   41.4570 C   0  0  0  0  0  0  0  0  0  0  0  0
   38.6320   29.2830   40.4230 C   0  0  0  0  0  0  0  0  0  0  0  0
   38.3450   30.4910   39.9120 N   0  0  0  0  0  0  0  0  0  0  0  0
   37.3200   31.0390   40.5900 C   0  0  0  0  0  0  0  0  0  0  0  0
   36.9140   30.1860   41.5690 N   0  0  0  0  0  0  0  0  0  0  0  0
   36.6420   32.2940   40.4460 N   0  0  0  0  0  0  0  0  0  0  0  0
   39.3970   28.5870   40.1080 H   0  0  0  0  0  0  0  0  0  0  0  0
   36.8660   33.0490   41.1410 H   0  0  0  0  0  0  0  0  0  0  0  0
   36.0060   32.1880   39.6040 H   0  0  0  0  0  0  0  0  0  0  0  0
   40.3030   32.3710   36.2490 H   0  0  0  0  0  0  0  0  0  0  0  0
   40.8840   32.0700   37.0370 N   0  0  0  0  0  0  0  0  0  0  0  0
   40.9160   30.6450   37.2680 C   0  0  0  0  0  2  0  0  0  0  0  0
   39.6860   30.1240   37.9490 C   0  0  0  0  0  2  0  0  0  0  0  0
   39.0020   31.1560   38.8020 C   0  0  0  0  0  3  0  0  0  0  0  0
   40.0080   32.1810   39.3440 C   0  0  0  0  0  2  0  0  0  0  0  0
   40.7370   32.8390   38.2310 C   0  0  0  0  0  2  0  0  0  0  0  0
   39.8060   27.5770   43.4040 C   0  0  0  0  0  0  0  0  0  0  0  0
   38.7650   27.1020   42.6040 C   0  0  0  0  0  0  0  0  0  0  0  0
   38.9490   25.8240   42.0920 C   0  0  0  0  0  0  0  0  0  0  0  0
   40.0410   25.1030   42.3490 N   0  0  0  0  0  0  0  0  0  0  0  0
   41.0340   25.6110   43.1370 C   0  0  0  0  0  0  0  0  0  0  0  0
   40.9030   26.8450   43.6560 N   0  0  0  0  0  0  0  0  0  0  0  0
   39.7190   28.5780   43.8360 H   0  0  0  0  0  0  0  0  0  0  0  0
   41.9260   25.0270   43.3490 H   0  0  0  0  0  0  0  0  0  0  0  0
   37.9370   25.2730   41.2700 C   0  0  0  0  0  0  0  0  0  0  0  0
   36.9190   24.3900   41.4660 C   0  0  0  0  0  0  0  0  0  0  0  0
   36.1000   24.0450   40.4810 C   0  0  0  0  0  0  0  0  0  0  0  0
   36.3060   24.6000   39.2660 C   0  0  0  0  0  0  0  0  0  0  0  0
   37.7610   25.6790   39.5520 S   0  0  0  0  0  0  0  0  0  0  0  0
   36.8440   23.9990   42.5020 H   0  0  0  0  0  0  0  0  0  0  0  0
   35.2720   23.3510   40.5660 H   0  0  0  0  0  0  0  0  0  0  0  0
   35.8050   24.5010   38.3110 H   0  0  0  0  0  0  0  0  0  0  0  0
  1 20  1  0  0  0  0
  1  2  2  0  0  0  0
  3  7  1  0  0  0  0
  3  1  1  0  0  0  0
  4  3  2  0  0  0  0
  5  4  1  0  0  0  0
  5  6  1  0  0  0  0
  6  7  2  0  0  0  0
  8  6  1  0  0  0  0
  8 10  1  0  0  0  0
  9  4  1  0  0  0  0
 11  8  1  0  0  0  0
 12 13  1  0  0  0  0
 13 14  1  0  0  0  0
 13 18  1  0  0  0  0
 14 15  1  0  0  0  0
 15 16  1  0  0  0  0
 16 17  1  0  0  0  0
 16  5  1  0  0  0  0
 18 17  1  0  0  0  0
 19 24  1  0  0  0  0
 19 25  1  0  0  0  0
 20 19  2  0  0  0  0
 21 22  2  0  0  0  0
 21 20  1  0  0  0  0
 22 23  1  0  0  0  0
 23 26  1  0  0  0  0
 23 24  2  0  0  0  0
 27 28  2  0  0  0  0
 27 21  1  0  0  0  0
 28 32  1  0  0  0  0
 29 33  1  0  0  0  0
 29 28  1  0  0  0  0
 30 31  1  0  0  0  0
 30 29  2  0  0  0  0
 31 27  1  0  0  0  0
 34 30  1  0  0  0  0
M  END
>  <minimizedAffinity>
-5.83206797

$$$$

 OpenBabel03252503173D

 34 37  0  0  0  0  0  0  0  0999 V2000
   37.1260   30.7320   40.4390 C   0  0  0  0  0  0  0  0  0  0  0  0
   36.2700   31.4310   41.0670 O   0  0  0  0  0  0  0  0  0  0  0  0
   37.8870   31.2220   39.2320 C   0  0  0  0  0  0  0  0  0  0  0  0
   39.2610   31.3870   39.1460 C   0  0  0  0  0  0  0  0  0  0  0  0
   39.4700   31.8360   37.8980 N   0  0  0  0  0  0  0  0  0  0  0  0
   38.2960   31.9440   37.2500 C   0  0  0  0  0  0  0  0  0  0  0  0
   37.2840   31.5610   38.0760 N   0  0  0  0  0  0  0  0  0  0  0  0
   37.9730   32.3710   35.9200 N   0  0  0  0  0  0  0  0  0  0  0  0
   39.9910   31.1920   39.9190 H   0  0  0  0  0  0  0  0  0  0  0  0
   37.5670   33.3320   35.8040 H   0  0  0  0  0  0  0  0  0  0  0  0
   38.2310   31.5620   35.2830 H   0  0  0  0  0  0  0  0  0  0  0  0
   43.4510   32.6400   35.8240 H   0  0  0  0  0  0  0  0  0  0  0  0
   43.4120   32.5850   36.8460 N   0  0  0  0  0  0  0  0  0  0  0  0
   43.0820   31.2840   37.3800 C   0  0  0  0  0  2  0  0  0  0  0  0
   41.6230   30.9540   37.2870 C   0  0  0  0  0  2  0  0  0  0  0  0
   40.7420   32.1720   37.2850 C   0  0  0  0  0  3  0  0  0  0  0  0
   41.3930   33.3270   38.0590 C   0  0  0  0  0  2  0  0  0  0  0  0
   42.7220   33.6570   37.4890 C   0  0  0  0  0  2  0  0  0  0  0  0
   38.2380   29.2090   41.9940 C   0  0  0  0  0  0  0  0  0  0  0  0
   37.3490   29.4180   40.9370 C   0  0  0  0  0  0  0  0  0  0  0  0
   36.7350   28.2730   40.4450 C   0  0  0  0  0  0  0  0  0  0  0  0
   36.9780   27.0620   40.9480 N   0  0  0  0  0  0  0  0  0  0  0  0
   37.8570   26.9070   41.9820 C   0  0  0  0  0  0  0  0  0  0  0  0
   38.4770   27.9860   42.4930 N   0  0  0  0  0  0  0  0  0  0  0  0
   38.7520   30.0720   42.4230 H   0  0  0  0  0  0  0  0  0  0  0  0
   38.0580   25.9210   42.3950 H   0  0  0  0  0  0  0  0  0  0  0  0
   35.8210   28.4030   39.3720 C   0  0  0  0  0  0  0  0  0  0  0  0
   34.5340   28.8320   39.2580 C   0  0  0  0  0  0  0  0  0  0  0  0
   33.9080   28.8440   38.0890 C   0  0  0  0  0  0  0  0  0  0  0  0
   34.5900   28.4150   37.0030 C   0  0  0  0  0  0  0  0  0  0  0  0
   36.2250   27.9670   37.7010 S   0  0  0  0  0  0  0  0  0  0  0  0
   34.0740   29.1610   40.2130 H   0  0  0  0  0  0  0  0  0  0  0  0
   32.8880   29.1710   37.9250 H   0  0  0  0  0  0  0  0  0  0  0  0
   34.3330   28.3190   35.9560 H   0  0  0  0  0  0  0  0  0  0  0  0
  1 20  1  0  0  0  0
  1  2  2  0  0  0  0
  3  1  1  0  0  0  0
  4  3  2  0  0  0  0
  4  9  1  0  0  0  0
  5  4  1  0  0  0  0
  6  5  1  0  0  0  0
  6  7  2  0  0  0  0
  7  3  1  0  0  0  0
  8  6  1  0  0  0  0
 10  8  1  0  0  0  0
 11  8  1  0  0  0  0
 12 13  1  0  0  0  0
 13 14  1  0  0  0  0
 13 18  1  0  0  0  0
 15 14  1  0  0  0  0
 16 15  1  0  0  0  0
 16  5  1  0  0  0  0
 16 17  1  0  0  0  0
 18 17  1  0  0  0  0
 19 25  1  0  0  0  0
 19 24  1  0  0  0  0
 20 19  2  0  0  0  0
 21 20  1  0  0  0  0
 21 22  2  0  0  0  0
 22 23  1  0  0  0  0
 23 26  1  0  0  0  0
 23 24  2  0  0  0  0
 27 21  1  0  0  0  0
 28 27  2  0  0  0  0
 28 32  1  0  0  0  0
 29 28  1  0  0  0  0
 30 31  1  0  0  0  0
 30 29  2  0  0  0  0
 31 27  1  0  0  0  0
 33 29  1  0  0  0  0
 34 30  1  0  0  0  0
M  END
>  <minimizedAffinity>
-5.80809593

$$$$

 OpenBabel03252503173D

 34 37  0  0  0  0  0  0  0  0999 V2000
   37.0500   27.5380   42.6470 C   0  0  0  0  0  0  0  0  0  0  0  0
   36.2010   27.1410   43.5060 O   0  0  0  0  0  0  0  0  0  0  0  0
   36.7380   28.5320   41.5550 C   0  0  0  0  0  0  0  0  0  0  0  0
   36.3000   28.2260   40.2760 C   0  0  0  0  0  0  0  0  0  0  0  0
   36.1590   29.4170   39.6730 N   0  0  0  0  0  0  0  0  0  0  0  0
   36.4910   30.4020   40.5270 C   0  0  0  0  0  0  0  0  0  0  0  0
   36.8600   29.8630   41.7210 N   0  0  0  0  0  0  0  0  0  0  0  0
   36.5140   31.8280   40.3800 N   0  0  0  0  0  0  0  0  0  0  0  0
   36.1150   27.2420   39.8670 H   0  0  0  0  0  0  0  0  0  0  0  0
   37.4500   32.2880   40.2540 H   0  0  0  0  0  0  0  0  0  0  0  0
   35.5030   32.1440   40.4360 H   0  0  0  0  0  0  0  0  0  0  0  0
   34.5080   30.1980   35.4950 H   0  0  0  0  0  0  0  0  0  0  0  0
   35.0920   29.3740   35.6640 N   0  0  0  0  0  0  0  0  0  0  0  0
   34.5130   28.3780   36.5370 C   0  0  0  0  0  2  0  0  0  0  0  0
   34.5780   28.7480   37.9880 C   0  0  0  0  0  2  0  0  0  0  0  0
   35.7210   29.6690   38.3120 C   0  0  0  0  0  3  0  0  0  0  0  0
   36.8970   29.4510   37.3490 C   0  0  0  0  0  2  0  0  0  0  0  0
   36.4650   29.6480   35.9430 C   0  0  0  0  0  2  0  0  0  0  0  0
   39.3210   27.6220   43.5470 C   0  0  0  0  0  0  0  0  0  0  0  0
   38.3580   26.9890   42.7580 C   0  0  0  0  0  0  0  0  0  0  0  0
   38.7830   25.8280   42.1250 C   0  0  0  0  0  0  0  0  0  0  0  0
   40.0220   25.3530   42.2620 N   0  0  0  0  0  0  0  0  0  0  0  0
   40.9290   26.0080   43.0450 C   0  0  0  0  0  0  0  0  0  0  0  0
   40.5660   27.1380   43.6790 N   0  0  0  0  0  0  0  0  0  0  0  0
   39.0450   28.5410   44.0710 H   0  0  0  0  0  0  0  0  0  0  0  0
   41.9410   25.6250   43.1590 H   0  0  0  0  0  0  0  0  0  0  0  0
   37.8640   25.1290   41.3060 C   0  0  0  0  0  0  0  0  0  0  0  0
   36.7690   24.3560   41.5410 C   0  0  0  0  0  0  0  0  0  0  0  0
   36.0780   23.8100   40.5480 C   0  0  0  0  0  0  0  0  0  0  0  0
   36.4960   24.0470   39.2840 C   0  0  0  0  0  0  0  0  0  0  0  0
   37.9670   25.1130   39.5350 S   0  0  0  0  0  0  0  0  0  0  0  0
   36.5180   24.2300   42.6150 H   0  0  0  0  0  0  0  0  0  0  0  0
   35.1990   23.1860   40.6620 H   0  0  0  0  0  0  0  0  0  0  0  0
   36.1330   23.7370   38.3130 H   0  0  0  0  0  0  0  0  0  0  0  0
  1 20  1  0  0  0  0
  1  2  2  0  0  0  0
  3  7  1  0  0  0  0
  3  1  1  0  0  0  0
  4  3  2  0  0  0  0
  5  4  1  0  0  0  0
  5  6  1  0  0  0  0
  6  7  2  0  0  0  0
  8 11  1  0  0  0  0
  8  6  1  0  0  0  0
  9  4  1  0  0  0  0
 10  8  1  0  0  0  0
 12 13  1  0  0  0  0
 13 18  1  0  0  0  0
 13 14  1  0  0  0  0
 14 15  1  0  0  0  0
 15 16  1  0  0  0  0
 16  5  1  0  0  0  0
 17 16  1  0  0  0  0
 18 17  1  0  0  0  0
 19 24  1  0  0  0  0
 19 25  1  0  0  0  0
 20 19  2  0  0  0  0
 21 22  2  0  0  0  0
 21 20  1  0  0  0  0
 22 23  1  0  0  0  0
 23 26  1  0  0  0  0
 23 24  2  0  0  0  0
 27 28  2  0  0  0  0
 27 21  1  0  0  0  0
 28 32  1  0  0  0  0
 29 33  1  0  0  0  0
 29 28  1  0  0  0  0
 30 31  1  0  0  0  0
 30 29  2  0  0  0  0
 31 27  1  0  0  0  0
 34 30  1  0  0  0  0
M  END
>  <minimizedAffinity>
-5.785182

$$$$

 OpenBabel03252503173D

 34 37  0  0  0  0  0  0  0  0999 V2000
   36.9870   30.6360   40.4430 C   0  0  0  0  0  0  0  0  0  0  0  0
   36.0850   31.1960   41.1420 O   0  0  0  0  0  0  0  0  0  0  0  0
   38.4260   31.0880   40.4100 C   0  0  0  0  0  0  0  0  0  0  0  0
   39.1990   31.2630   39.2730 C   0  0  0  0  0  0  0  0  0  0  0  0
   40.3930   31.6690   39.7350 N   0  0  0  0  0  0  0  0  0  0  0  0
   40.3600   31.7400   41.0780 C   0  0  0  0  0  0  0  0  0  0  0  0
   39.1270   31.3780   41.5240 N   0  0  0  0  0  0  0  0  0  0  0  0
   41.3560   32.1130   42.0400 N   0  0  0  0  0  0  0  0  0  0  0  0
   38.8970   31.1050   38.2470 H   0  0  0  0  0  0  0  0  0  0  0  0
   41.8220   31.3420   42.5810 H   0  0  0  0  0  0  0  0  0  0  0  0
   41.4180   33.1710   42.0030 H   0  0  0  0  0  0  0  0  0  0  0  0
   44.1410   32.9250   37.4620 H   0  0  0  0  0  0  0  0  0  0  0  0
   43.2480   32.8470   36.9660 N   0  0  0  0  0  0  0  0  0  0  0  0
   42.2400   33.8040   37.3570 C   0  0  0  0  0  2  0  0  0  0  0  0
   41.5710   33.4670   38.6570 C   0  0  0  0  0  2  0  0  0  0  0  0
   41.5740   31.9940   38.9570 C   0  0  0  0  0  3  0  0  0  0  0  0
   41.5780   31.1660   37.6640 C   0  0  0  0  0  2  0  0  0  0  0  0
   42.7470   31.5170   36.8200 C   0  0  0  0  0  2  0  0  0  0  0  0
   36.0570   29.7170   38.3780 C   0  0  0  0  0  0  0  0  0  0  0  0
   36.5720   29.5220   39.6620 C   0  0  0  0  0  0  0  0  0  0  0  0
   36.6330   28.1980   40.0790 C   0  0  0  0  0  0  0  0  0  0  0  0
   36.2300   27.1880   39.3070 N   0  0  0  0  0  0  0  0  0  0  0  0
   35.7330   27.4290   38.0580 C   0  0  0  0  0  0  0  0  0  0  0  0
   35.6530   28.6940   37.6080 N   0  0  0  0  0  0  0  0  0  0  0  0
   35.9840   30.7370   37.9940 H   0  0  0  0  0  0  0  0  0  0  0  0
   35.4040   26.6080   37.4250 H   0  0  0  0  0  0  0  0  0  0  0  0
   37.1420   27.9190   41.3700 C   0  0  0  0  0  0  0  0  0  0  0  0
   36.6020   27.8510   42.6170 C   0  0  0  0  0  0  0  0  0  0  0  0
   37.3420   27.5590   43.6790 C   0  0  0  0  0  0  0  0  0  0  0  0
   38.6600   27.3280   43.4850 C   0  0  0  0  0  0  0  0  0  0  0  0
   38.8490   27.5440   41.6740 S   0  0  0  0  0  0  0  0  0  0  0  0
   35.5120   28.0580   42.6580 H   0  0  0  0  0  0  0  0  0  0  0  0
   36.9800   27.4880   44.6980 H   0  0  0  0  0  0  0  0  0  0  0  0
   39.4750   27.0770   44.1520 H   0  0  0  0  0  0  0  0  0  0  0  0
  1  2  2  0  0  0  0
  3  1  1  0  0  0  0
  3  7  1  0  0  0  0
  4  5  1  0  0  0  0
  4  3  2  0  0  0  0
  5  6  1  0  0  0  0
  6  7  2  0  0  0  0
  6  8  1  0  0  0  0
  8 10  1  0  0  0  0
  9  4  1  0  0  0  0
 11  8  1  0  0  0  0
 13 14  1  0  0  0  0
 13 12  1  0  0  0  0
 14 15  1  0  0  0  0
 15 16  1  0  0  0  0
 16  5  1  0  0  0  0
 17 16  1  0  0  0  0
 18 13  1  0  0  0  0
 18 17  1  0  0  0  0
 19 20  1  0  0  0  0
 20 21  2  0  0  0  0
 20  1  1  0  0  0  0
 21 27  1  0  0  0  0
 22 21  1  0  0  0  0
 23 22  2  0  0  0  0
 24 23  1  0  0  0  0
 24 19  2  0  0  0  0
 25 19  1  0  0  0  0
 26 23  1  0  0  0  0
 27 31  1  0  0  0  0
 27 28  2  0  0  0  0
 28 32  1  0  0  0  0
 28 29  1  0  0  0  0
 29 33  1  0  0  0  0
 30 29  2  0  0  0  0
 30 34  1  0  0  0  0
 31 30  1  0  0  0  0
M  END
>  <minimizedAffinity>
-5.74401999

$$$$

 OpenBabel03252503173D

 34 37  0  0  0  0  0  0  0  0999 V2000
   41.1080   30.6740   41.2760 C   0  0  0  0  0  0  0  0  0  0  0  0
   41.7310   31.5790   41.9160 O   0  0  0  0  0  0  0  0  0  0  0  0
   40.1200   29.7260   41.9100 C   0  0  0  0  0  0  0  0  0  0  0  0
   40.2160   28.3440   41.9350 C   0  0  0  0  0  0  0  0  0  0  0  0
   39.1210   27.9400   42.5990 N   0  0  0  0  0  0  0  0  0  0  0  0
   38.3910   29.0100   42.9640 C   0  0  0  0  0  0  0  0  0  0  0  0
   39.0040   30.1470   42.5380 N   0  0  0  0  0  0  0  0  0  0  0  0
   37.1540   29.1230   43.6800 N   0  0  0  0  0  0  0  0  0  0  0  0
   41.0030   27.7370   41.5100 H   0  0  0  0  0  0  0  0  0  0  0  0
   36.2880   29.3340   43.1230 H   0  0  0  0  0  0  0  0  0  0  0  0
   37.3910   28.9580   44.7010 H   0  0  0  0  0  0  0  0  0  0  0  0
   38.0720   23.6690   43.8010 H   0  0  0  0  0  0  0  0  0  0  0  0
   38.4950   23.8500   42.8850 N   0  0  0  0  0  0  0  0  0  0  0  0
   39.8540   24.3370   42.9210 C   0  0  0  0  0  2  0  0  0  0  0  0
   39.9570   25.7900   43.2780 C   0  0  0  0  0  2  0  0  0  0  0  0
   38.7310   26.5770   42.9070 C   0  0  0  0  0  3  0  0  0  0  0  0
   38.0250   25.9600   41.6920 C   0  0  0  0  0  2  0  0  0  0  0  0
   37.6630   24.5460   41.9570 C   0  0  0  0  0  2  0  0  0  0  0  0
   42.4240   29.7610   39.4290 C   0  0  0  0  0  0  0  0  0  0  0  0
   41.3910   30.5830   39.8840 C   0  0  0  0  0  0  0  0  0  0  0  0
   40.7020   31.2710   38.8930 C   0  0  0  0  0  0  0  0  0  0  0  0
   41.0060   31.1520   37.6000 N   0  0  0  0  0  0  0  0  0  0  0  0
   42.0260   30.3350   37.2030 C   0  0  0  0  0  0  0  0  0  0  0  0
   42.7240   29.6480   38.1260 N   0  0  0  0  0  0  0  0  0  0  0  0
   43.0020   29.1940   40.1630 H   0  0  0  0  0  0  0  0  0  0  0  0
   42.2770   30.2350   36.1500 H   0  0  0  0  0  0  0  0  0  0  0  0
   39.6410   32.1260   39.2750 C   0  0  0  0  0  0  0  0  0  0  0  0
   38.2880   31.9960   39.3540 C   0  0  0  0  0  0  0  0  0  0  0  0
   37.5170   32.9970   39.7580 C   0  0  0  0  0  0  0  0  0  0  0  0
   38.1190   34.1610   40.0930 C   0  0  0  0  0  0  0  0  0  0  0  0
   39.8930   33.7980   39.8100 S   0  0  0  0  0  0  0  0  0  0  0  0
   37.9040   30.9980   39.0560 H   0  0  0  0  0  0  0  0  0  0  0  0
   36.4370   32.9650   39.8450 H   0  0  0  0  0  0  0  0  0  0  0  0
   37.7450   35.1140   40.4450 H   0  0  0  0  0  0  0  0  0  0  0  0
  1  3  1  0  0  0  0
  1  2  2  0  0  0  0
  3  4  2  0  0  0  0
  3  7  1  0  0  0  0
  4  5  1  0  0  0  0
  5 16  1  0  0  0  0
  5  6  1  0  0  0  0
  6  8  1  0  0  0  0
  7  6  2  0  0  0  0
  8 11  1  0  0  0  0
  9  4  1  0  0  0  0
 10  8  1  0  0  0  0
 13 14  1  0  0  0  0
 13 12  1  0  0  0  0
 14 15  1  0  0  0  0
 16 15  1  0  0  0  0
 17 18  1  0  0  0  0
 17 16  1  0  0  0  0
 18 13  1  0  0  0  0
 19 20  1  0  0  0  0
 19 25  1  0  0  0  0
 20  1  1  0  0  0  0
 21 27  1  0  0  0  0
 21 20  2  0  0  0  0
 22 21  1  0  0  0  0
 23 22  2  0  0  0  0
 23 24  1  0  0  0  0
 24 19  2  0  0  0  0
 26 23  1  0  0  0  0
 27 28  2  0  0  0  0
 27 31  1  0  0  0  0
 28 29  1  0  0  0  0
 29 33  1  0  0  0  0
 29 30  2  0  0  0  0
 30 34  1  0  0  0  0
 31 30  1  0  0  0  0
 32 28  1  0  0  0  0
M  END
>  <minimizedAffinity>
-5.73950195

$$$$

 OpenBabel03252503173D

 34 37  0  0  0  0  0  0  0  0999 V2000
   37.0330   28.8820   41.3140 C   0  0  0  0  0  0  0  0  0  0  0  0
   35.8270   28.5290   41.5100 O   0  0  0  0  0  0  0  0  0  0  0  0
   37.4320   30.1580   40.6140 C   0  0  0  0  0  0  0  0  0  0  0  0
   38.5260   30.3220   39.7800 C   0  0  0  0  0  0  0  0  0  0  0  0
   38.4720   31.6080   39.3990 N   0  0  0  0  0  0  0  0  0  0  0  0
   37.4060   32.2050   39.9640 C   0  0  0  0  0  0  0  0  0  0  0  0
   36.7370   31.3050   40.7340 N   0  0  0  0  0  0  0  0  0  0  0  0
   36.9070   33.5460   39.8820 N   0  0  0  0  0  0  0  0  0  0  0  0
   39.2560   29.5720   39.5040 H   0  0  0  0  0  0  0  0  0  0  0  0
   37.0810   34.1790   40.7020 H   0  0  0  0  0  0  0  0  0  0  0  0
   36.4280   33.6240   38.9390 H   0  0  0  0  0  0  0  0  0  0  0  0
   41.2570   33.6320   36.4090 H   0  0  0  0  0  0  0  0  0  0  0  0
   41.6490   33.1460   37.2210 N   0  0  0  0  0  0  0  0  0  0  0  0
   41.4590   31.7150   37.2340 C   0  0  0  0  0  2  0  0  0  0  0  0
   40.0730   31.3010   37.6310 C   0  0  0  0  0  2  0  0  0  0  0  0
   39.3900   32.3050   38.5170 C   0  0  0  0  0  3  0  0  0  0  0  0
   40.4100   33.0870   39.3560 C   0  0  0  0  0  2  0  0  0  0  0  0
   41.3970   33.7670   38.4820 C   0  0  0  0  0  2  0  0  0  0  0  0
   38.7440   28.3030   42.9600 C   0  0  0  0  0  0  0  0  0  0  0  0
   38.0320   27.9930   41.7990 C   0  0  0  0  0  0  0  0  0  0  0  0
   38.3800   26.7910   41.1950 C   0  0  0  0  0  0  0  0  0  0  0  0
   39.3250   25.9910   41.6910 N   0  0  0  0  0  0  0  0  0  0  0  0
   39.9950   26.3370   42.8290 C   0  0  0  0  0  0  0  0  0  0  0  0
   39.6960   27.4920   43.4510 N   0  0  0  0  0  0  0  0  0  0  0  0
   38.5160   29.2360   43.4800 H   0  0  0  0  0  0  0  0  0  0  0  0
   40.7670   25.6880   43.2370 H   0  0  0  0  0  0  0  0  0  0  0  0
   37.7030   26.4070   40.0130 C   0  0  0  0  0  0  0  0  0  0  0  0
   36.5870   25.6760   39.7440 C   0  0  0  0  0  0  0  0  0  0  0  0
   36.1750   25.4720   38.4990 C   0  0  0  0  0  0  0  0  0  0  0  0
   36.9010   26.0160   37.4970 C   0  0  0  0  0  0  0  0  0  0  0  0
   38.2540   26.8700   38.3920 S   0  0  0  0  0  0  0  0  0  0  0  0
   36.0710   25.2780   40.6420 H   0  0  0  0  0  0  0  0  0  0  0  0
   35.2990   24.9020   38.2120 H   0  0  0  0  0  0  0  0  0  0  0  0
   36.7980   26.0100   36.4190 H   0  0  0  0  0  0  0  0  0  0  0  0
  1  2  2  0  0  0  0
  1 20  1  0  0  0  0
  3  7  1  0  0  0  0
  3  1  1  0  0  0  0
  4  3  2  0  0  0  0
  5  4  1  0  0  0  0
  5  6  1  0  0  0  0
  6  7  2  0  0  0  0
  8  6  1  0  0  0  0
  8 10  1  0  0  0  0
  9  4  1  0  0  0  0
 11  8  1  0  0  0  0
 12 13  1  0  0  0  0
 13 14  1  0  0  0  0
 13 18  1  0  0  0  0
 14 15  1  0  0  0  0
 15 16  1  0  0  0  0
 16 17  1  0  0  0  0
 16  5  1  0  0  0  0
 18 17  1  0  0  0  0
 19 24  1  0  0  0  0
 19 25  1  0  0  0  0
 20 19  2  0  0  0  0
 21 22  2  0  0  0  0
 21 20  1  0  0  0  0
 22 23  1  0  0  0  0
 23 26  1  0  0  0  0
 23 24  2  0  0  0  0
 27 21  1  0  0  0  0
 28 27  2  0  0  0  0
 28 32  1  0  0  0  0
 29 28  1  0  0  0  0
 30 31  1  0  0  0  0
 30 29  2  0  0  0  0
 31 27  1  0  0  0  0
 33 29  1  0  0  0  0
 34 30  1  0  0  0  0
M  END
>  <minimizedAffinity>
-5.69834423

$$$$

 OpenBabel03252503173D

 34 37  0  0  0  0  0  0  0  0999 V2000
   35.9930   29.4050   39.5380 C   0  0  0  0  0  0  0  0  0  0  0  0
   35.0550   29.7720   40.3130 O   0  0  0  0  0  0  0  0  0  0  0  0
   37.0300   30.3440   38.9720 C   0  0  0  0  0  0  0  0  0  0  0  0
   38.0970   30.8930   39.6640 C   0  0  0  0  0  0  0  0  0  0  0  0
   38.7340   31.6520   38.7580 N   0  0  0  0  0  0  0  0  0  0  0  0
   38.0990   31.5770   37.5750 C   0  0  0  0  0  0  0  0  0  0  0  0
   37.0200   30.7550   37.6890 N   0  0  0  0  0  0  0  0  0  0  0  0
   38.3670   32.1870   36.3050 N   0  0  0  0  0  0  0  0  0  0  0  0
   38.3510   30.7380   40.7040 H   0  0  0  0  0  0  0  0  0  0  0  0
   37.7670   33.0010   36.0220 H   0  0  0  0  0  0  0  0  0  0  0  0
   39.1770   31.6450   35.8850 H   0  0  0  0  0  0  0  0  0  0  0  0
   42.6230   33.9880   39.2170 H   0  0  0  0  0  0  0  0  0  0  0  0
   42.1840   33.5650   40.0410 N   0  0  0  0  0  0  0  0  0  0  0  0
   42.1590   32.1210   40.0530 C   0  0  0  0  0  2  0  0  0  0  0  0
   41.1020   31.5370   39.1640 C   0  0  0  0  0  2  0  0  0  0  0  0
   39.9280   32.4530   38.9630 C   0  0  0  0  0  3  0  0  0  0  0  0
   39.7260   33.3690   40.1780 C   0  0  0  0  0  2  0  0  0  0  0  0
   40.9510   34.1610   40.4460 C   0  0  0  0  0  2  0  0  0  0  0  0
   35.4890   27.5700   38.0060 C   0  0  0  0  0  0  0  0  0  0  0  0
   36.0300   28.0210   39.2110 C   0  0  0  0  0  0  0  0  0  0  0  0
   36.5790   27.0330   40.0190 C   0  0  0  0  0  0  0  0  0  0  0  0
   36.5890   25.7470   39.6670 N   0  0  0  0  0  0  0  0  0  0  0  0
   36.0460   25.3530   38.4770 C   0  0  0  0  0  0  0  0  0  0  0  0
   35.5010   26.2720   37.6590 N   0  0  0  0  0  0  0  0  0  0  0  0
   35.0420   28.3000   37.3270 H   0  0  0  0  0  0  0  0  0  0  0  0
   36.0520   24.3060   38.1850 H   0  0  0  0  0  0  0  0  0  0  0  0
   37.1470   27.4120   41.2590 C   0  0  0  0  0  0  0  0  0  0  0  0
   36.6580   27.6190   42.5120 C   0  0  0  0  0  0  0  0  0  0  0  0
   37.4480   27.9810   43.5150 C   0  0  0  0  0  0  0  0  0  0  0  0
   38.7650   28.1400   43.2540 C   0  0  0  0  0  0  0  0  0  0  0  0
   38.8760   27.7490   41.4660 S   0  0  0  0  0  0  0  0  0  0  0  0
   35.5640   27.4590   42.6110 H   0  0  0  0  0  0  0  0  0  0  0  0
   37.1280   28.1620   44.5340 H   0  0  0  0  0  0  0  0  0  0  0  0
   39.6130   28.4220   43.8650 H   0  0  0  0  0  0  0  0  0  0  0  0
  1  2  2  0  0  0  0
  3  1  1  0  0  0  0
  3  4  2  0  0  0  0
  4  9  1  0  0  0  0
  5 16  1  0  0  0  0
  5  4  1  0  0  0  0
  6  7  2  0  0  0  0
  6  5  1  0  0  0  0
  7  3  1  0  0  0  0
  8  6  1  0  0  0  0
 10  8  1  0  0  0  0
 11  8  1  0  0  0  0
 12 13  1  0  0  0  0
 13 14  1  0  0  0  0
 13 18  1  0  0  0  0
 15 14  1  0  0  0  0
 16 15  1  0  0  0  0
 16 17  1  0  0  0  0
 17 18  1  0  0  0  0
 19 20  1  0  0  0  0
 20  1  1  0  0  0  0
 20 21  2  0  0  0  0
 21 27  1  0  0  0  0
 22 21  1  0  0  0  0
 23 22  2  0  0  0  0
 24 19  2  0  0  0  0
 24 23  1  0  0  0  0
 25 19  1  0  0  0  0
 26 23  1  0  0  0  0
 27 31  1  0  0  0  0
 27 28  2  0  0  0  0
 28 32  1  0  0  0  0
 28 29  1  0  0  0  0
 29 33  1  0  0  0  0
 30 29  2  0  0  0  0
 30 34  1  0  0  0  0
 31 30  1  0  0  0  0
M  END
>  <minimizedAffinity>
-5.69017124

$$$$

 OpenBabel03252503173D

 34 37  0  0  0  0  0  0  0  0999 V2000
   35.2730   28.8880   39.2630 C   0  0  0  0  0  0  0  0  0  0  0  0
   34.0630   29.2730   39.3260 O   0  0  0  0  0  0  0  0  0  0  0  0
   36.0910   28.4880   40.4660 C   0  0  0  0  0  0  0  0  0  0  0  0
   36.8060   27.3100   40.6100 C   0  0  0  0  0  0  0  0  0  0  0  0
   37.3640   27.3990   41.8290 N   0  0  0  0  0  0  0  0  0  0  0  0
   37.0140   28.5640   42.4040 C   0  0  0  0  0  0  0  0  0  0  0  0
   36.2100   29.2660   41.5600 N   0  0  0  0  0  0  0  0  0  0  0  0
   37.3350   29.1340   43.6800 N   0  0  0  0  0  0  0  0  0  0  0  0
   36.8900   26.5050   39.8930 H   0  0  0  0  0  0  0  0  0  0  0  0
   36.5950   29.1060   44.4250 H   0  0  0  0  0  0  0  0  0  0  0  0
   38.3300   29.4940   43.5970 H   0  0  0  0  0  0  0  0  0  0  0  0
   40.2060   24.5590   43.9850 H   0  0  0  0  0  0  0  0  0  0  0  0
   40.1260   24.5200   42.9640 N   0  0  0  0  0  0  0  0  0  0  0  0
   40.6050   25.6880   42.2640 C   0  0  0  0  0  2  0  0  0  0  0  0
   39.6540   26.8460   42.3140 C   0  0  0  0  0  2  0  0  0  0  0  0
   38.2200   26.4240   42.4790 C   0  0  0  0  0  3  0  0  0  0  0  0
   37.9770   25.0390   41.8630 C   0  0  0  0  0  2  0  0  0  0  0  0
   38.8790   24.0300   42.4700 C   0  0  0  0  0  2  0  0  0  0  0  0
   35.4060   27.9130   37.0260 C   0  0  0  0  0  0  0  0  0  0  0  0
   35.8510   28.8480   37.9630 C   0  0  0  0  0  0  0  0  0  0  0  0
   36.8620   29.6920   37.5230 C   0  0  0  0  0  0  0  0  0  0  0  0
   37.3710   29.6130   36.2920 N   0  0  0  0  0  0  0  0  0  0  0  0
   36.9040   28.6810   35.4100 C   0  0  0  0  0  0  0  0  0  0  0  0
   35.9240   27.8400   35.7890 N   0  0  0  0  0  0  0  0  0  0  0  0
   34.6110   27.2210   37.3140 H   0  0  0  0  0  0  0  0  0  0  0  0
   37.3150   28.6140   34.4060 H   0  0  0  0  0  0  0  0  0  0  0  0
   37.3670   30.6670   38.4160 C   0  0  0  0  0  0  0  0  0  0  0  0
   36.9280   31.8760   38.8600 C   0  0  0  0  0  0  0  0  0  0  0  0
   37.6320   32.5950   39.7250 C   0  0  0  0  0  0  0  0  0  0  0  0
   38.8090   32.0880   40.1560 C   0  0  0  0  0  0  0  0  0  0  0  0
   38.9120   30.4870   39.2690 S   0  0  0  0  0  0  0  0  0  0  0  0
   35.9510   32.1920   38.4400 H   0  0  0  0  0  0  0  0  0  0  0  0
   37.3450   33.5620   40.1200 H   0  0  0  0  0  0  0  0  0  0  0  0
   39.5650   32.4500   40.8410 H   0  0  0  0  0  0  0  0  0  0  0  0
  1  2  2  0  0  0  0
  1  3  1  0  0  0  0
  3  4  2  0  0  0  0
  3  7  1  0  0  0  0
  4  5  1  0  0  0  0
  5  6  1  0  0  0  0
  5 16  1  0  0  0  0
  6  8  1  0  0  0  0
  7  6  2  0  0  0  0
  8 10  1  0  0  0  0
  9  4  1  0  0  0  0
 11  8  1  0  0  0  0
 13 12  1  0  0  0  0
 14 15  1  0  0  0  0
 14 13  1  0  0  0  0
 15 16  1  0  0  0  0
 17 18  1  0  0  0  0
 17 16  1  0  0  0  0
 18 13  1  0  0  0  0
 19 25  1  0  0  0  0
 19 20  1  0  0  0  0
 20  1  1  0  0  0  0
 21 20  2  0  0  0  0
 21 27  1  0  0  0  0
 22 21  1  0  0  0  0
 23 24  1  0  0  0  0
 23 22  2  0  0  0  0
 24 19  2  0  0  0  0
 26 23  1  0  0  0  0
 27 28  2  0  0  0  0
 27 31  1  0  0  0  0
 28 29  1  0  0  0  0
 29 33  1  0  0  0  0
 29 30  2  0  0  0  0
 30 34  1  0  0  0  0
 31 30  1  0  0  0  0
 32 28  1  0  0  0  0
M  END
>  <minimizedAffinity>
-5.47829533

$$$$
