
 OpenBabel03252509313D

 25 26  0  0  0  0  0  0  0  0999 V2000
   48.3480   33.5040   43.3770 O   0  0  0  0  0  0  0  0  0  0  0  0
   47.0100   33.4400   42.9710 C   0  0  0  0  0  0  0  0  0  0  0  0
   46.8550   33.9090   41.9590 H   0  0  0  0  0  0  0  0  0  0  0  0
   46.6520   32.3870   42.8660 H   0  0  0  0  0  0  0  0  0  0  0  0
   45.0940   34.2980   46.0460 C   0  0  0  0  0  0  0  0  0  0  0  0
   45.9420   33.6160   45.1570 C   0  0  0  0  0  0  0  0  0  0  0  0
   46.1360   34.1360   43.8970 C   0  0  0  0  0  0  0  0  0  0  0  0
   45.4890   35.3030   43.5640 N   0  0  0  0  0  0  0  0  0  0  0  0
   44.6760   35.9340   44.4480 C   0  0  0  0  0  0  0  0  0  0  0  0
   44.4830   35.4400   45.6660 N   0  0  0  0  0  0  0  0  0  0  0  0
   44.9300   33.8980   47.0490 H   0  0  0  0  0  0  0  0  0  0  0  0
   46.3890   32.7130   45.5410 H   0  0  0  0  0  0  0  0  0  0  0  0
   44.1650   36.8530   44.1910 H   0  0  0  0  0  0  0  0  0  0  0  0
   50.3080   33.0640   41.7080 O   0  0  0  0  0  0  0  0  0  0  0  0
   49.2400   34.0700   42.0490 P   0  0  2  0  0  0  0  0  0  0  0  0
   49.8450   35.5830   42.4570 O   0  0  0  0  0  0  0  0  0  0  0  0
   50.8140   35.5650   42.7030 H   0  0  0  0  0  0  0  0  0  0  0  0
   48.1770   34.1780   40.7400 O   0  0  0  0  0  0  0  0  0  0  0  0
   46.5540   31.8080   36.8080 H   0  0  0  0  0  0  0  0  0  0  0  0
   47.3850   32.2780   37.2030 N   0  0  0  0  0  0  0  0  0  0  0  0
   47.0960   33.6290   37.6440 C   0  0  0  0  0  2  0  0  0  0  0  0
   48.2790   34.1760   38.4030 C   0  0  0  0  0  2  0  0  0  0  0  0
   48.5430   33.3980   39.6750 C   0  0  0  0  0  3  0  0  0  0  0  0
   47.7760   32.1020   39.5870 C   0  0  0  0  0  2  0  0  0  0  0  0
   48.0920   31.5160   38.2080 C   0  0  0  0  0  2  0  0  0  0  0  0
  2  1  1  0  0  0  0
  2  7  1  0  0  0  0
  3  2  1  0  0  0  0
  4  2  1  0  0  0  0
  5 11  1  0  0  0  0
  6 12  1  0  0  0  0
  6  5  2  0  0  0  0
  7  6  1  0  0  0  0
  8  7  2  0  0  0  0
  8  9  1  0  0  0  0
  9 10  2  0  0  0  0
 10  5  1  0  0  0  0
 13  9  1  0  0  0  0
 15 14  2  6  0  0  0
 15 16  1  0  0  0  0
 15  1  1  0  0  0  0
 16 17  1  0  0  0  0
 18 15  1  0  0  0  0
 19 20  1  0  0  0  0
 20 21  1  0  0  0  0
 20 25  1  0  0  0  0
 21 22  1  0  0  0  0
 22 23  1  0  0  0  0
 23 18  1  0  0  0  0
 24 23  1  0  0  0  0
 25 24  1  0  0  0  0
M  END
>  <minimizedAffinity>
-4.25903606

>  <minimizedRMSD>
1.35989952

$$$$
