
 OpenBabel03252504473D

 25 26  0  0  0  0  0  0  0  0999 V2000
   45.2960   30.1890   45.4370 O   0  0  0  0  0  0  0  0  0  0  0  0
   47.2470   32.6950   43.7070 C   0  0  0  0  0  0  0  0  0  0  0  0
   48.3020   31.9310   43.2320 C   0  0  0  0  0  0  0  0  0  0  0  0
   48.2980   30.5560   43.5340 C   0  0  0  0  0  0  0  0  0  0  0  0
   47.2850   30.0580   44.2580 N   0  0  0  0  0  0  0  0  0  0  0  0
   46.2690   30.8520   44.7020 C   0  0  0  0  0  0  0  0  0  0  0  0
   46.2660   32.1700   44.4170 N   0  0  0  0  0  0  0  0  0  0  0  0
   49.1140   32.3450   42.6490 H   0  0  0  0  0  0  0  0  0  0  0  0
   49.1170   29.9770   43.1610 H   0  0  0  0  0  0  0  0  0  0  0  0
   47.2510   34.1560   43.3860 C   0  0  0  0  0  0  0  0  0  0  0  0
   46.3950   34.6650   43.8530 H   0  0  0  0  0  0  0  0  0  0  0  0
   48.1710   34.6400   43.7770 H   0  0  0  0  0  0  0  0  0  0  0  0
   47.2560   34.2740   42.2750 H   0  0  0  0  0  0  0  0  0  0  0  0
   44.0880   28.1370   46.4170 O   0  0  0  0  0  0  0  0  0  0  0  0
   45.4860   28.7140   46.2160 P   0  0  1  0  0  0  0  0  0  0  0  0
   46.3390   27.5780   45.3010 O   0  0  0  0  0  0  0  0  0  0  0  0
   47.2100   27.9570   44.9920 H   0  0  0  0  0  0  0  0  0  0  0  0
   46.2630   28.9150   47.6840 O   0  0  0  0  0  0  0  0  0  0  0  0
   46.8640   33.1230   47.2500 H   0  0  0  0  0  0  0  0  0  0  0  0
   46.9190   32.7230   48.1880 N   0  0  0  0  0  0  0  0  0  0  0  0
   48.0910   31.9970   48.5370 C   0  0  0  0  0  2  0  0  0  0  0  0
   47.9520   30.4900   48.4520 C   0  0  0  0  0  2  0  0  0  0  0  0
   46.5440   30.2020   48.0360 C   0  0  0  0  0  3  0  0  0  0  0  0
   45.6340   30.8190   49.0560 C   0  0  0  0  0  2  0  0  0  0  0  0
   45.7060   32.3330   48.8190 C   0  0  0  0  0  2  0  0  0  0  0  0
  1 15  1  0  0  0  0
  2  7  1  0  0  0  0
  3  4  1  0  0  0  0
  3  2  2  0  0  0  0
  4  5  2  0  0  0  0
  5  6  1  0  0  0  0
  6  1  1  0  0  0  0
  7  6  2  0  0  0  0
  8  3  1  0  0  0  0
  9  4  1  0  0  0  0
 10  2  1  0  0  0  0
 10 12  1  0  0  0  0
 10 11  1  0  0  0  0
 13 10  1  0  0  0  0
 15 14  2  1  0  0  0
 15 18  1  0  0  0  0
 16 15  1  0  0  0  0
 17 16  1  0  0  0  0
 18 23  1  0  0  0  0
 19 20  1  0  0  0  0
 20 21  1  0  0  0  0
 20 25  1  0  0  0  0
 22 21  1  0  0  0  0
 23 22  1  0  0  0  0
 23 24  1  0  0  0  0
 25 24  1  0  0  0  0
M  END
>  <minimizedAffinity>
-3.68884039

>  <minimizedRMSD>
3.35545468

$$$$
