
 OpenBabel03242520293D

 39 41  0  0  0  0  0  0  0  0999 V2000
   45.8020   35.1150   43.2080 C   0  0  0  0  0  0  0  0  0  0  0  0
   46.6560   34.1390   43.7850 C   0  0  0  0  0  0  0  0  0  0  0  0
   46.3960   33.7430   45.0950 C   0  0  0  0  0  0  0  0  0  0  0  0
   45.3570   34.2910   45.7570 N   0  0  0  0  0  0  0  0  0  0  0  0
   44.5560   35.2230   45.1800 C   0  0  0  0  0  0  0  0  0  0  0  0
   44.7800   35.6240   43.9260 N   0  0  0  0  0  0  0  0  0  0  0  0
   45.9770   35.4490   42.1870 H   0  0  0  0  0  0  0  0  0  0  0  0
   43.7780   35.5470   45.8590 H   0  0  0  0  0  0  0  0  0  0  0  0
   47.7030   33.6630   42.9550 N   0  0  0  0  0  0  0  0  0  0  0  0
   49.0170   34.2780   42.8990 C   0  0  0  0  0  0  0  0  0  0  0  0
   49.9220   33.4680   42.0290 C   0  0  0  0  0  0  0  0  0  0  0  0
   49.3600   33.1650   40.7350 N   0  0  0  0  0  0  0  0  0  0  0  0
   48.0310   32.6290   40.7580 C   0  0  0  0  0  0  0  0  0  0  0  0
   47.4370   32.5000   42.1240 C   0  0  0  0  0  0  0  0  0  0  0  0
   48.9760   35.3390   42.6350 H   0  0  0  0  0  0  0  0  0  0  0  0
   49.4350   34.2190   43.9360 H   0  0  0  0  0  0  0  0  0  0  0  0
   50.8830   33.9740   41.8530 H   0  0  0  0  0  0  0  0  0  0  0  0
   50.1110   32.4980   42.5370 H   0  0  0  0  0  0  0  0  0  0  0  0
   50.0170   32.4810   40.2920 H   0  0  0  0  0  0  0  0  0  0  0  0
   48.0150   31.6390   40.2650 H   0  0  0  0  0  0  0  0  0  0  0  0
   47.3740   33.2910   40.1530 H   0  0  0  0  0  0  0  0  0  0  0  0
   47.7870   31.5980   42.6740 H   0  0  0  0  0  0  0  0  0  0  0  0
   46.3340   32.3620   41.9890 H   0  0  0  0  0  0  0  0  0  0  0  0
   47.2410   32.7970   45.6230 O   0  0  0  0  0  0  0  0  0  0  0  0
   45.4220   30.8540   45.6610 O   0  0  0  0  0  0  0  0  0  0  0  0
   46.5590   31.4430   46.4830 P   0  0  1  0  0  0  0  0  0  0  0  0
   47.7940   30.3440   46.7210 O   0  0  0  0  0  0  0  0  0  0  0  0
   47.5180   25.5280   45.4390 H   0  0  0  0  0  0  0  0  0  0  0  0
   47.4480   26.5370   45.6480 N   0  0  0  0  0  0  0  0  0  0  0  0
   47.3840   26.7150   47.0660 C   0  0  0  0  0  0  0  0  0  0  0  0
   47.8360   28.1180   47.3970 C   0  0  0  0  0  0  0  0  0  0  0  0
   47.5010   29.0660   46.2610 C   0  0  0  0  0  0  0  0  0  0  0  0
   48.4720   28.7050   45.1270 C   0  0  0  0  0  0  0  0  0  0  0  0
   48.5530   27.2030   45.0060 C   0  0  0  0  0  0  0  0  0  0  0  0
   45.9420   32.0650   47.9180 O   0  0  0  0  0  0  0  0  0  0  0  0
   45.9030   31.1410   48.9340 C   0  0  0  0  0  0  0  0  0  0  0  0
   47.1470   30.8660   49.4900 F   0  0  0  0  0  0  0  0  0  0  0  0
   45.2990   29.9520   48.6160 F   0  0  0  0  0  0  0  0  0  0  0  0
   45.1200   31.7290   49.9400 F   0  0  0  0  0  0  0  0  0  0  0  0
  1  2  2  0  0  0  0
  1  6  1  0  0  0  0
  2  3  1  0  0  0  0
  3 24  1  0  0  0  0
  3  4  2  0  0  0  0
  5  4  1  0  0  0  0
  5  8  1  0  0  0  0
  6  5  2  0  0  0  0
  7  1  1  0  0  0  0
  9  2  1  0  0  0  0
 10  9  1  0  0  0  0
 10 16  1  0  0  0  0
 11 18  1  0  0  0  0
 11 10  1  0  0  0  0
 12 13  1  0  0  0  0
 12 11  1  0  0  0  0
 13 14  1  0  0  0  0
 14 22  1  0  0  0  0
 14  9  1  0  0  0  0
 15 10  1  0  0  0  0
 17 11  1  0  0  0  0
 19 12  1  0  0  0  0
 20 13  1  0  0  0  0
 21 13  1  0  0  0  0
 23 14  1  0  0  0  0
 24 26  1  0  0  0  0
 26 25  2  6  0  0  0
 26 27  1  0  0  0  0
 26 35  1  0  0  0  0
 28 29  1  0  0  0  0
 29 30  1  0  0  0  0
 30 31  1  0  0  0  0
 32 27  1  0  0  0  0
 32 31  1  0  0  0  0
 33 32  1  0  0  0  0
 34 33  1  0  0  0  0
 34 29  1  0  0  0  0
 35 36  1  0  0  0  0
 36 37  1  0  0  0  0
 36 39  1  0  0  0  0
 38 36  1  0  0  0  0
M  END
>  <minimizedAffinity>
-5.06484652

>  <minimizedRMSD>
1.85757315

$$$$
