
     RDKit          3D

 40 42  0  0  0  0  0  0  0  0999 V2000
   44.4769   35.7517   45.0153 C   0  0  0  0  0  0  0  0  0  0  0  0
   45.1181   35.7136   43.7478 C   0  0  0  0  0  0  0  0  0  0  0  0
   46.0233   34.7063   43.4787 C   0  0  0  0  0  0  0  0  0  0  0  0
   46.2243   33.8179   44.4788 N   0  0  0  0  0  0  0  0  0  0  0  0
   45.6242   33.8547   45.6631 C   0  0  0  0  0  0  0  0  0  0  0  0
   44.7526   34.8148   45.9379 N   0  0  0  0  0  0  0  0  0  0  0  0
   45.9457   32.8446   46.6007 N   0  0  0  0  0  0  0  0  0  0  0  0
   45.1629   32.5619   47.8082 C   0  0  0  0  0  0  0  0  0  0  0  0
   46.2521   32.2440   48.8138 C   0  0  0  0  0  0  0  0  0  0  0  0
   47.5228   32.0538   48.0398 C   0  0  0  0  0  0  0  0  0  0  0  0
   47.0251   31.9025   46.6284 C   0  0  1  0  0  0  0  0  0  0  0  0
   44.7634   36.7537   42.8250 N   0  0  0  0  0  0  0  0  0  0  0  0
   46.4904   30.2043   46.3736 S   0  0  0  0  0  0  0  0  0  0  0  0
   43.7611   36.5167   45.2782 H   0  0  0  0  0  0  0  0  0  0  0  0
   46.4882   34.7005   42.5247 H   0  0  0  0  0  0  0  0  0  0  0  0
   44.5845   33.4580   48.0760 H   0  0  0  0  0  0  0  0  0  0  0  0
   44.4877   31.6896   47.6158 H   0  0  0  0  0  0  0  0  0  0  0  0
   45.9471   31.3684   49.4179 H   0  0  0  0  0  0  0  0  0  0  0  0
   46.4046   33.1433   49.4564 H   0  0  0  0  0  0  0  0  0  0  0  0
   48.2742   32.8351   48.1800 H   0  0  0  0  0  0  0  0  0  0  0  0
   47.9658   31.0842   48.3365 H   0  0  0  0  0  0  0  0  0  0  0  0
   47.8348   32.2061   45.9295 H   0  0  0  0  0  0  0  0  0  0  0  0
   43.7444   36.8405   42.5780 H   0  0  0  0  0  0  0  0  0  0  0  0
   45.5565   37.3379   42.4776 H   0  0  0  0  0  0  0  0  0  0  0  0
   44.7995   32.1900   42.4332 H   0  0  0  0  0  0  0  0  0  0  0  0
   44.7858   31.1662   42.2698 N   0  0  0  0  0  0  0  0  0  0  0  0
   43.9568   30.4237   43.1667 C   0  0  0  0  0  0  0  0  0  0  0  0
   44.4338   30.5081   44.5786 C   0  0  0  0  0  0  0  0  0  0  0  0
   45.8589   30.0662   44.6637 C   0  0  0  0  0  0  0  0  0  0  0  0
   46.7095   30.8787   43.7155 C   0  0  0  0  0  0  0  0  0  0  0  0
   46.1501   30.6609   42.3125 C   0  0  0  0  0  0  0  0  0  0  0  0
   43.9700   29.3680   42.8390 H   0  0  0  0  0  0  0  0  0  0  0  0
   42.9101   30.7780   43.0805 H   0  0  0  0  0  0  0  0  0  0  0  0
   43.8433   29.8419   45.2402 H   0  0  0  0  0  0  0  0  0  0  0  0
   44.3294   31.5414   44.9515 H   0  0  0  0  0  0  0  0  0  0  0  0
   45.9067   28.9955   44.3066 H   0  0  0  0  0  0  0  0  0  0  0  0
   47.7606   30.5917   43.7288 H   0  0  0  0  0  0  0  0  0  0  0  0
   46.6116   31.9538   43.9841 H   0  0  0  0  0  0  0  0  0  0  0  0
   46.1294   29.5834   42.1084 H   0  0  0  0  0  0  0  0  0  0  0  0
   46.7617   31.2045   41.5816 H   0  0  0  0  0  0  0  0  0  0  0  0
  1  6  2  0
  2  1  1  0
  3  2  2  0
  3  4  1  0
  4  5  2  0
  5  6  1  0
  5  7  1  0
  7 11  1  0
  7  8  1  0
  8  9  1  0
 10  9  1  0
 11 10  1  0
 12  2  1  0
 13 11  1  0
  1 14  1  0
  3 15  1  0
  8 16  1  0
  8 17  1  0
  9 18  1  0
  9 19  1  0
 10 20  1  0
 10 21  1  0
 11 22  1  6
 12 23  1  0
 12 24  1  0
 25 26  1  0
 26 27  1  0
 27 28  1  0
 28 29  1  0
 29 30  1  0
 30 31  1  0
 31 26  1  0
 27 32  1  0
 27 33  1  0
 28 34  1  0
 28 35  1  0
 29 36  1  0
 30 37  1  0
 30 38  1  0
 31 39  1  0
 31 40  1  0
 13 29  1  0
M  ISO  8  14  14  15  14  16  13  17  13  18  13  19  13  20  13  21  13
M  ISO  2  22  13  25   5
M  END
>  <DihAtoms>  (1) 
10,12,28,27

>  <DihDeg>  (1) 
66.34266268693183

$$$$
