
     RDKit          3D

 49 52  0  0  0  0  0  0  0  0999 V2000
   44.5939   34.4431   42.9394 C   0  0  0  0  0  0  0  0  0  0  0  0
   44.3047   35.6926   43.5518 C   0  0  0  0  0  0  0  0  0  0  0  0
   44.6223   35.8172   44.9027 C   0  0  0  0  0  0  0  0  0  0  0  0
   45.1791   34.7515   45.5370 N   0  0  0  0  0  0  0  0  0  0  0  0
   45.4382   33.5668   44.8996 C   0  0  0  0  0  0  0  0  0  0  0  0
   45.1395   33.4725   43.6553 N   0  0  0  0  0  0  0  0  0  0  0  0
   46.0310   32.4609   45.6729 C   0  0  1  0  0  0  0  0  0  0  0  0
   46.9703   32.7658   46.8112 C   0  0  0  0  0  0  0  0  0  0  0  0
   45.5466   32.3528   47.0753 C   0  0  1  0  0  0  0  0  0  0  0  0
   44.7422   33.4064   47.6515 N   0  0  0  0  0  0  0  0  0  0  0  0
   44.2487   34.3193   41.5566 C   0  0  0  0  0  0  0  0  0  0  0  0
   45.1165   34.1496   40.6317 O   0  0  0  0  0  0  0  0  0  0  0  0
   41.9646   33.3108   41.3582 C   0  0  0  0  0  0  0  0  0  0  0  0
   42.8035   34.4083   41.3144 C   0  0  0  0  0  0  0  0  0  0  0  0
   42.2600   35.6509   41.0325 C   0  0  0  0  0  0  0  0  0  0  0  0
   40.9063   35.8057   40.7961 C   0  0  0  0  0  0  0  0  0  0  0  0
   40.0694   34.7285   40.8366 C   0  0  0  0  0  0  0  0  0  0  0  0
   40.6187   33.5104   41.1168 C   0  0  0  0  0  0  0  0  0  0  0  0
   42.5528   31.7652   41.6042 S   0  0  0  0  0  0  0  0  0  0  0  0
   42.4312   31.0935   40.2781 O   0  0  0  0  0  0  0  0  0  0  0  0
   41.5814   31.0913   42.6313 O   0  0  0  0  0  0  0  0  0  0  0  0
   43.8741   36.5587   43.1163 H   0  0  0  0  0  0  0  0  0  0  0  0
   44.4425   36.7330   45.4695 H   0  0  0  0  0  0  0  0  0  0  0  0
   46.2745   31.5279   45.1307 H   0  0  0  0  0  0  0  0  0  0  0  0
   47.2736   33.8386   46.9772 H   0  0  0  0  0  0  0  0  0  0  0  0
   47.7836   32.0825   47.0701 H   0  0  0  0  0  0  0  0  0  0  0  0
   45.4418   31.3293   47.4758 H   0  0  0  0  0  0  0  0  0  0  0  0
   45.2767   34.2082   48.0212 H   0  0  0  0  0  0  0  0  0  0  0  0
   44.1874   32.9847   48.4406 H   0  0  0  0  0  0  0  0  0  0  0  0
   42.8501   36.5607   40.9761 H   0  0  0  0  0  0  0  0  0  0  0  0
   40.5089   36.7727   40.5801 H   0  0  0  0  0  0  0  0  0  0  0  0
   39.0259   34.8149   40.6594 H   0  0  0  0  0  0  0  0  0  0  0  0
   39.9428   32.6511   41.1489 H   0  0  0  0  0  0  0  0  0  0  0  0
   43.8375   28.2483   44.9938 H   0  0  0  0  0  0  0  0  0  0  0  0
   44.2838   29.0454   44.4922 N   0  0  0  0  0  0  0  0  0  0  0  0
   43.4645   30.2290   44.4899 C   0  0  0  0  0  0  0  0  0  0  0  0
   44.1045   31.2055   43.5960 C   0  0  0  0  0  0  0  0  0  0  0  0
   43.8995   30.9801   42.0888 C   0  0  0  0  0  0  0  0  0  0  0  0
   43.9671   29.4671   42.0494 C   0  0  0  0  0  0  0  0  0  0  0  0
   44.6947   28.7868   43.1578 C   0  0  0  0  0  0  0  0  0  0  0  0
   42.4441   29.9324   44.3568 H   0  0  0  0  0  0  0  0  0  0  0  0
   43.5398   30.6661   45.5080 H   0  0  0  0  0  0  0  0  0  0  0  0
   43.7283   32.2461   43.8250 H   0  0  0  0  0  0  0  0  0  0  0  0
   45.1676   31.2437   43.8984 H   0  0  0  0  0  0  0  0  0  0  0  0
   44.8385   31.4393   41.7276 H   0  0  0  0  0  0  0  0  0  0  0  0
   42.9615   29.0651   41.9439 H   0  0  0  0  0  0  0  0  0  0  0  0
   44.6174   29.2173   41.1861 H   0  0  0  0  0  0  0  0  0  0  0  0
   44.5026   27.7025   43.0000 H   0  0  0  0  0  0  0  0  0  0  0  0
   45.8012   28.8939   43.1009 H   0  0  0  0  0  0  0  0  0  0  0  0
  1  2  2  0
  1  6  1  0
  2  3  1  0
  3  4  2  0
  5  4  1  0
  5  7  1  0
  6  5  2  0
  7  8  1  0
  7  9  1  0
  8  9  1  0
  9 10  1  0
 11  1  1  0
 12 11  2  0
 13 19  1  0
 14 13  1  0
 14 11  1  0
 15 14  2  0
 16 17  2  0
 16 15  1  0
 17 18  1  0
 18 13  2  0
 19 21  2  0
 20 19  2  0
  2 22  1  0
  3 23  1  0
  7 24  1  6
  8 25  1  0
  8 26  1  0
  9 27  1  1
 10 28  1  0
 10 29  1  0
 15 30  1  0
 16 31  1  0
 17 32  1  0
 18 33  1  0
 34 35  1  0
 35 36  1  0
 36 37  1  0
 37 38  1  0
 38 39  1  0
 39 40  1  0
 40 35  1  0
 36 41  1  0
 36 42  1  0
 37 43  1  0
 37 44  1  0
 38 45  1  0
 39 46  1  0
 39 47  1  0
 40 48  1  0
 40 49  1  0
 19 38  1  0
M  ISO  8  22  14  23  14  24  13  25  13  26  13  27  13  28   5  29   5
M  ISO  5  30  14  31  14  32  14  33  14  34   5
M  END
>  <DihAtoms>  (1) 
12,18,37,36

>  <DihDeg>  (1) 
175.0993125544488

$$$$
