
 OpenBabel03252508033D

 40 43  0  0  1  0  0  0  0  0999 V2000
   44.2650   34.3110   41.5120 C   0  0  0  0  0  0  0  0  0  0  0  0
   45.1380   34.1450   40.5900 O   0  0  0  0  0  0  0  0  0  0  0  0
   42.0480   33.3070   40.9220 C   0  0  0  0  0  0  0  0  0  0  0  0
   42.8200   34.4000   41.2620 C   0  0  0  0  0  0  0  0  0  0  0  0
   42.2090   35.6380   41.3790 C   0  0  0  0  0  0  0  0  0  0  0  0
   40.8520   35.7920   41.1600 C   0  0  0  0  0  0  0  0  0  0  0  0
   40.0800   34.7180   40.8230 C   0  0  0  0  0  0  0  0  0  0  0  0
   40.6960   33.5050   40.7130 C   0  0  0  0  0  0  0  0  0  0  0  0
   42.7460   36.5460   41.6390 H   0  0  0  0  0  0  0  0  0  0  0  0
   40.4020   36.7550   41.2550 H   0  0  0  0  0  0  0  0  0  0  0  0
   39.0360   34.8050   40.6480 H   0  0  0  0  0  0  0  0  0  0  0  0
   40.0720   32.6490   40.4440 H   0  0  0  0  0  0  0  0  0  0  0  0
   42.7220   31.7970   40.6750 S   0  0  0  0  0  0  0  0  0  0  0  0
   43.3850   31.8860   39.3420 O   0  0  0  0  0  0  0  0  0  0  0  0
   41.5210   30.7940   40.6030 O   0  0  0  0  0  0  0  0  0  0  0  0
   42.6190   27.4390   43.2260 H   0  0  0  0  0  0  0  0  0  0  0  0
   43.2400   28.2700   43.1310 N   0  0  0  0  0  0  0  0  0  0  0  0
   42.5160   29.5130   43.1770 C   0  0  0  0  0  2  0  0  0  0  0  0
   43.4610   30.5870   42.8380 C   0  0  0  0  0  2  0  0  0  0  0  0
   43.7870   30.7560   41.3450 C   0  0  0  0  0  3  0  0  0  0  0  0
   43.8090   29.3000   40.9260 C   0  0  0  0  0  2  0  0  0  0  0  0
   44.0800   28.2880   41.9870 C   0  0  0  0  0  2  0  0  0  0  0  0
   44.6040   34.4310   42.8960 C   0  0  0  0  0  0  0  0  0  0  0  0
   44.3240   35.6830   43.5080 C   0  0  0  0  0  0  0  0  0  0  0  0
   44.6350   35.8030   44.8610 C   0  0  0  0  0  0  0  0  0  0  0  0
   45.1780   34.7320   45.4970 N   0  0  0  0  0  0  0  0  0  0  0  0
   45.4280   33.5450   44.8610 C   0  0  0  0  0  0  0  0  0  0  0  0
   45.1350   33.4540   43.6140 N   0  0  0  0  0  0  0  0  0  0  0  0
   43.9050   36.5540   43.0700 H   0  0  0  0  0  0  0  0  0  0  0  0
   44.4630   36.7210   45.4260 H   0  0  0  0  0  0  0  0  0  0  0  0
   46.0050   32.4320   45.6370 C   0  0  1  0  0  0  0  0  0  0  0  0
   46.9660   32.7260   46.7590 C   0  0  0  0  0  0  0  0  0  0  0  0
   45.5370   32.3490   47.0460 C   0  0  1  0  0  0  0  0  0  0  0  0
   46.2200   31.4890   45.1000 H   0  0  0  0  0  0  0  0  0  0  0  0
   47.2970   33.7930   46.9110 H   0  0  0  0  0  0  0  0  0  0  0  0
   47.7670   32.0260   47.0140 H   0  0  0  0  0  0  0  0  0  0  0  0
   45.4140   31.3310   47.4580 H   0  0  0  0  0  0  0  0  0  0  0  0
   44.7650   33.4260   47.6220 N   0  0  0  0  0  0  0  0  0  0  0  0
   45.3240   34.2180   47.9770 H   0  0  0  0  0  0  0  0  0  0  0  0
   44.2110   33.0250   48.4230 H   0  0  0  0  0  0  0  0  0  0  0  0
  1 23  1  0  0  0  0
  2  1  2  0  0  0  0
  3  4  1  0  0  0  0
  4  5  2  0  0  0  0
  4  1  1  0  0  0  0
  5  9  1  0  0  0  0
  6 10  1  0  0  0  0
  6  5  1  0  0  0  0
  7  6  2  0  0  0  0
  8  7  1  0  0  0  0
  8  3  2  0  0  0  0
 11  7  1  0  0  0  0
 12  8  1  0  0  0  0
 13  3  1  0  0  0  0
 13 20  1  0  0  0  0
 14 13  2  0  0  0  0
 15 13  2  0  0  0  0
 17 18  1  0  0  0  0
 17 16  1  0  0  0  0
 19 18  1  0  0  0  0
 20 19  1  0  0  0  0
 21 20  1  0  0  0  0
 21 22  1  0  0  0  0
 22 17  1  0  0  0  0
 23 24  2  0  0  0  0
 23 28  1  0  0  0  0
 24 25  1  0  0  0  0
 25 30  1  0  0  0  0
 25 26  2  0  0  0  0
 27 26  1  0  0  0  0
 27 31  1  0  0  0  0
 28 27  2  0  0  0  0
 29 24  1  0  0  0  0
 31 34  1  6  0  0  0
 31 32  1  0  0  0  0
 31 33  1  0  0  0  0
 32 35  1  0  0  0  0
 32 36  1  0  0  0  0
 32 33  1  0  0  0  0
 33 37  1  1  0  0  0
 33 38  1  0  0  0  0
 38 39  1  0  0  0  0
 38 40  1  0  0  0  0
M  END
>  <minimizedAffinity>
-5.69001341

>  <minimizedRMSD>
1.1568563

$$$$
