
 OpenBabel03242513413D

 38 41  0  0  0  0  0  0  0  0999 V2000
   47.7460   31.0230   45.9730 C   0  0  0  0  0  0  0  0  0  0  0  0
   46.9970   32.0500   45.4520 C   0  0  0  0  0  0  0  0  0  0  0  0
   45.9530   32.5160   46.2010 C   0  0  0  0  0  0  0  0  0  0  0  0
   45.6250   32.0010   47.4440 C   0  0  0  0  0  0  0  0  0  0  0  0
   44.7040   32.2100   48.4100 N   0  0  0  0  0  0  0  0  0  0  0  0
   44.8860   31.3650   49.4420 C   0  0  0  0  0  0  0  0  0  0  0  0
   45.9400   30.6120   49.1190 N   0  0  0  0  0  0  0  0  0  0  0  0
   46.4160   30.9720   47.9060 C   0  0  0  0  0  0  0  0  0  0  0  0
   47.4700   30.4640   47.2070 C   0  0  0  0  0  0  0  0  0  0  0  0
   48.5720   30.6540   45.3790 H   0  0  0  0  0  0  0  0  0  0  0  0
   45.3330   33.3220   45.8380 H   0  0  0  0  0  0  0  0  0  0  0  0
   43.9590   32.9520   48.3200 H   0  0  0  0  0  0  0  0  0  0  0  0
   44.2710   31.3330   50.3490 H   0  0  0  0  0  0  0  0  0  0  0  0
   47.2920   34.4060   42.6690 C   0  0  0  0  0  0  0  0  0  0  0  0
   47.9090   33.6490   41.6800 C   0  0  0  0  0  0  0  0  0  0  0  0
   48.2130   32.3230   42.0020 C   0  0  0  0  0  0  0  0  0  0  0  0
   47.9060   31.8300   43.2330 N   0  0  0  0  0  0  0  0  0  0  0  0
   47.3060   32.6240   44.1460 C   0  0  0  0  0  0  0  0  0  0  0  0
   46.9990   33.8890   43.8850 N   0  0  0  0  0  0  0  0  0  0  0  0
   47.0010   35.4540   42.5490 H   0  0  0  0  0  0  0  0  0  0  0  0
   48.6860   31.7600   41.2280 H   0  0  0  0  0  0  0  0  0  0  0  0
   48.1880   34.3070   40.3830 C   0  0  0  0  0  0  0  0  0  0  0  0
   48.7530   35.5260   40.7050 F   0  0  0  0  0  0  0  0  0  0  0  0
   47.0190   34.4730   39.7130 F   0  0  0  0  0  0  0  0  0  0  0  0
   49.0640   33.4810   39.6680 F   0  0  0  0  0  0  0  0  0  0  0  0
   48.2250   29.4310   47.7240 O   0  0  0  0  0  0  0  0  0  0  0  0
   49.8130   28.2080   49.3640 O   0  0  0  0  0  0  0  0  0  0  0  0
   49.4420   29.6270   48.8900 P   0  0  2  0  0  0  0  0  0  0  0  0
   48.7660   30.4280   50.2210 O   0  0  0  0  0  0  0  0  0  0  0  0
   49.4650   30.7150   50.8490 H   0  0  0  0  0  0  0  0  0  0  0  0
   50.8100   30.4000   48.3500 O   0  0  0  0  0  0  0  0  0  0  0  0
   54.1430   33.4170   48.0860 H   0  0  0  0  0  0  0  0  0  0  0  0
   54.0650   32.4870   48.5630 N   0  0  0  0  0  0  0  0  0  0  0  0
   53.3090   32.5800   49.7990 C   0  0  0  0  0  0  0  0  0  0  0  0
   51.8680   32.1590   49.6020 C   0  0  0  0  0  0  0  0  0  0  0  0
   51.7700   30.6560   49.3030 C   0  0  0  0  0  0  0  0  0  0  0  0
   53.1070   30.3030   48.6830 C   0  0  0  0  0  0  0  0  0  0  0  0
   53.4330   31.4830   47.7580 C   0  0  0  0  0  0  0  0  0  0  0  0
  1  9  1  0  0  0  0
  2  1  2  0  0  0  0
  2  3  1  0  0  0  0
  3  4  2  0  0  0  0
  4  8  1  0  0  0  0
  4  5  1  0  0  0  0
  5  6  1  0  0  0  0
  6 13  1  0  0  0  0
  7  6  2  0  0  0  0
  8  7  1  0  0  0  0
  9 26  1  0  0  0  0
  9  8  2  0  0  0  0
 10  1  1  0  0  0  0
 11  3  1  0  0  0  0
 12  5  1  0  0  0  0
 14 19  1  0  0  0  0
 15 16  1  0  0  0  0
 15 14  2  0  0  0  0
 16 17  2  0  0  0  0
 17 18  1  0  0  0  0
 18  2  1  0  0  0  0
 19 18  2  0  0  0  0
 20 14  1  0  0  0  0
 21 16  1  0  0  0  0
 22 23  1  0  0  0  0
 22 15  1  0  0  0  0
 24 22  1  0  0  0  0
 25 22  1  0  0  0  0
 26 28  1  0  0  0  0
 28 27  2  1  0  0  0
 28 29  1  0  0  0  0
 29 30  1  0  0  0  0
 31 28  1  0  0  0  0
 31 36  1  0  0  0  0
 32 33  1  0  0  0  0
 33 34  1  0  0  0  0
 35 34  1  0  0  0  0
 36 35  1  0  0  0  0
 37 36  1  0  0  0  0
 38 33  1  0  0  0  0
 38 37  1  0  0  0  0
M  END
>  <minimizedAffinity>
-6.22077417

>  <minimizedRMSD>
2.35070324

$$$$
