
 OpenBabel03252509083D

 39 42  0  0  0  0  0  0  0  0999 V2000
   48.9280   32.3380   38.9270 C   0  0  0  0  0  0  0  0  0  0  0  0
   48.2020   33.4920   38.9340 C   0  0  0  0  0  0  0  0  0  0  0  0
   47.9660   34.1420   37.7390 C   0  0  0  0  0  0  0  0  0  0  0  0
   48.4550   33.6320   36.5610 C   0  0  0  0  0  0  0  0  0  0  0  0
   49.1970   32.4550   36.5270 C   0  0  0  0  0  0  0  0  0  0  0  0
   49.4270   31.8150   37.7310 C   0  0  0  0  0  0  0  0  0  0  0  0
   47.3870   35.0720   37.7160 H   0  0  0  0  0  0  0  0  0  0  0  0
   48.2560   34.1590   35.6510 H   0  0  0  0  0  0  0  0  0  0  0  0
   49.5960   32.0250   35.6190 H   0  0  0  0  0  0  0  0  0  0  0  0
   50.0090   30.8920   37.7060 H   0  0  0  0  0  0  0  0  0  0  0  0
   44.2200   34.1650   42.1200 Cl  0  0  0  0  0  0  0  0  0  0  0  0
   45.8500   34.4260   41.5800 C   0  0  0  0  0  0  0  0  0  0  0  0
   46.3270   33.8240   40.4720 C   0  0  0  0  0  0  0  0  0  0  0  0
   47.6430   34.1030   40.1260 C   0  0  0  0  0  0  0  0  0  0  0  0
   48.4320   34.9460   40.8640 C   0  0  0  0  0  0  0  0  0  0  0  0
   47.9330   35.5430   41.9760 C   0  0  0  0  0  0  0  0  0  0  0  0
   46.6300   35.2750   42.3300 C   0  0  0  0  0  0  0  0  0  0  0  0
   49.4530   35.1420   40.5670 H   0  0  0  0  0  0  0  0  0  0  0  0
   48.5240   36.2210   42.5930 H   0  0  0  0  0  0  0  0  0  0  0  0
   46.2380   35.7600   43.2270 H   0  0  0  0  0  0  0  0  0  0  0  0
   44.5510   30.7510   39.1840 C   0  0  0  0  0  0  0  0  0  0  0  0
   45.3950   31.5870   39.9220 C   0  0  0  0  0  0  0  0  0  0  0  0
   45.4630   32.9500   39.7160 C   0  0  0  0  0  0  0  0  0  0  0  0
   44.6460   33.4200   38.7370 N   0  0  0  0  0  0  0  0  0  0  0  0
   43.8340   32.6230   38.0250 C   0  0  0  0  0  0  0  0  0  0  0  0
   43.7900   31.3040   38.2480 N   0  0  0  0  0  0  0  0  0  0  0  0
   44.5190   29.6740   39.3700 H   0  0  0  0  0  0  0  0  0  0  0  0
   46.0080   31.1250   40.6800 H   0  0  0  0  0  0  0  0  0  0  0  0
   43.2080   33.0730   37.2570 H   0  0  0  0  0  0  0  0  0  0  0  0
   49.2500   31.4760   40.3390 S   0  0  0  0  0  0  0  0  0  0  0  0
   49.9620   30.1650   40.0590 O   0  0  0  0  0  0  0  0  0  0  0  0
   50.3300   32.3380   41.0490 O   0  0  0  0  0  0  0  0  0  0  0  0
   48.2490   30.4130   45.5110 H   0  0  0  0  0  0  0  0  0  0  0  0
   48.0540   30.4560   44.5070 N   0  0  0  0  0  0  0  0  0  0  0  0
   47.7960   31.7610   43.9610 C   0  0  0  0  0  2  0  0  0  0  0  0
   48.6800   31.9820   42.7970 C   0  0  0  0  0  2  0  0  0  0  0  0
   48.2210   31.0580   41.6030 C   0  0  0  0  0  3  0  0  0  0  0  0
   48.4430   29.7060   42.2760 C   0  0  0  0  0  2  0  0  0  0  0  0
   48.9960   29.7630   43.6570 C   0  0  0  0  0  2  0  0  0  0  0  0
  1  2  1  0  0  0  0
  1 30  1  0  0  0  0
  2 14  1  0  0  0  0
  3  2  2  0  0  0  0
  4  3  1  0  0  0  0
  5  4  2  0  0  0  0
  5  6  1  0  0  0  0
  6  1  2  0  0  0  0
  7  3  1  0  0  0  0
  8  4  1  0  0  0  0
  9  5  1  0  0  0  0
 10  6  1  0  0  0  0
 12 11  1  0  0  0  0
 12 17  1  0  0  0  0
 13 12  2  0  0  0  0
 14 13  1  0  0  0  0
 14 15  2  0  0  0  0
 15 16  1  0  0  0  0
 16 17  2  0  0  0  0
 16 19  1  0  0  0  0
 17 20  1  0  0  0  0
 18 15  1  0  0  0  0
 21 27  1  0  0  0  0
 21 22  1  0  0  0  0
 22 28  1  0  0  0  0
 23 22  2  0  0  0  0
 23 13  1  0  0  0  0
 24 23  1  0  0  0  0
 25 26  1  0  0  0  0
 25 24  2  0  0  0  0
 26 21  2  0  0  0  0
 29 25  1  0  0  0  0
 30 32  2  0  0  0  0
 30 37  1  0  0  0  0
 31 30  2  0  0  0  0
 34 33  1  0  0  0  0
 35 34  1  0  0  0  0
 36 35  1  0  0  0  0
 37 38  1  0  0  0  0
 37 36  1  0  0  0  0
 38 39  1  0  0  0  0
 39 34  1  0  0  0  0
M  END
>  <minimizedAffinity>
-5.04225731

>  <minimizedRMSD>
4.0717926

$$$$
