
 OpenBabel03242519383D

 25 26  0  0  0  0  0  0  0  0999 V2000
   48.1910   32.8750   41.5290 O   0  0  0  0  0  0  0  0  0  0  0  0
   47.2100   34.0020   41.1850 P   0  0  2  0  0  0  0  0  0  0  0  0
   45.6830   33.6310   41.8930 O   0  0  0  0  0  0  0  0  0  0  0  0
   44.4080   35.8400   44.5260 C   0  0  0  0  0  0  0  0  0  0  0  0
   44.7060   35.3460   43.2290 C   0  0  0  0  0  0  0  0  0  0  0  0
   45.3850   34.1290   43.1620 C   0  0  0  0  0  0  0  0  0  0  0  0
   45.7180   33.4930   44.3090 N   0  0  0  0  0  0  0  0  0  0  0  0
   45.4150   34.0010   45.5270 C   0  0  0  0  0  0  0  0  0  0  0  0
   44.7610   35.1720   45.6340 N   0  0  0  0  0  0  0  0  0  0  0  0
   43.8820   36.7820   44.6440 H   0  0  0  0  0  0  0  0  0  0  0  0
   44.3930   35.9350   42.3760 H   0  0  0  0  0  0  0  0  0  0  0  0
   45.7750   33.3280   46.3090 H   0  0  0  0  0  0  0  0  0  0  0  0
   47.0360   34.1940   39.5470 O   0  0  0  0  0  0  0  0  0  0  0  0
   48.8800   30.8140   36.4310 H   0  0  0  0  0  0  0  0  0  0  0  0
   48.0720   31.4420   36.5770 N   0  0  0  0  0  0  0  0  0  0  0  0
   47.3310   31.0020   37.7170 C   0  0  0  0  0  0  0  0  0  0  0  0
   46.5830   32.1570   38.3490 C   0  0  0  0  0  0  0  0  0  0  0  0
   47.6170   33.1000   38.9030 C   0  0  0  0  0  0  0  0  0  0  0  0
   48.5440   33.5380   37.7970 C   0  0  0  0  0  0  0  0  0  0  0  0
   48.3390   32.8400   36.4980 C   0  0  0  0  0  0  0  0  0  0  0  0
   47.7890   35.4120   41.9180 O   0  0  0  0  0  0  0  0  0  0  0  0
   49.0300   35.7850   41.4500 C   0  0  0  0  0  0  0  0  0  0  0  0
   49.4300   37.0380   41.8930 F   0  0  0  0  0  0  0  0  0  0  0  0
   49.9550   34.7970   41.7380 F   0  0  0  0  0  0  0  0  0  0  0  0
   48.9270   35.8670   40.0650 F   0  0  0  0  0  0  0  0  0  0  0  0
  2  1  2  1  0  0  0
  2  3  1  0  0  0  0
  2 21  1  0  0  0  0
  3  6  1  0  0  0  0
  4 10  1  0  0  0  0
  4  9  1  0  0  0  0
  5  4  2  0  0  0  0
  6  5  1  0  0  0  0
  6  7  2  0  0  0  0
  7  8  1  0  0  0  0
  8  9  2  0  0  0  0
  8 12  1  0  0  0  0
 11  5  1  0  0  0  0
 13  2  1  0  0  0  0
 14 15  1  0  0  0  0
 15 16  1  0  0  0  0
 16 17  1  0  0  0  0
 17 18  1  0  0  0  0
 18 13  1  0  0  0  0
 19 18  1  0  0  0  0
 20 15  1  0  0  0  0
 20 19  1  0  0  0  0
 22 24  1  0  0  0  0
 22 23  1  0  0  0  0
 22 21  1  0  0  0  0
 25 22  1  0  0  0  0
M  END
>  <minimizedAffinity>
-5.09767008

>  <minimizedRMSD>
1.29437423

$$$$
