
 OpenBabel03252506373D

 42 45  0  0  1  0  0  0  0  0999 V2000
   44.4910   35.5850   45.1400 C   0  0  0  0  0  0  0  0  0  0  0  0
   45.1440   35.5940   43.8890 C   0  0  0  0  0  0  0  0  0  0  0  0
   46.0590   34.6360   43.6140 C   0  0  0  0  0  0  0  0  0  0  0  0
   46.2960   33.7100   44.5770 N   0  0  0  0  0  0  0  0  0  0  0  0
   45.6790   33.7070   45.7490 C   0  0  0  0  0  0  0  0  0  0  0  0
   44.7740   34.6370   46.0470 N   0  0  0  0  0  0  0  0  0  0  0  0
   46.0100   32.6790   46.6990 N   0  0  0  0  0  0  0  0  0  0  0  0
   45.2760   32.4140   47.8810 C   0  0  0  0  0  0  0  0  0  0  0  0
   46.3510   32.0490   48.8870 C   0  0  0  0  0  0  0  0  0  0  0  0
   47.6310   31.9580   48.1130 C   0  0  0  0  0  0  0  0  0  0  0  0
   47.1310   31.7680   46.6800 C   0  0  1  0  0  0  0  0  0  0  0  0
   43.7520   36.3690   45.3440 H   0  0  0  0  0  0  0  0  0  0  0  0
   46.5720   34.6200   42.6710 H   0  0  0  0  0  0  0  0  0  0  0  0
   44.9090   33.4230   48.2560 H   0  0  0  0  0  0  0  0  0  0  0  0
   44.4690   31.7670   47.9780 H   0  0  0  0  0  0  0  0  0  0  0  0
   46.3750   32.6820   49.7760 H   0  0  0  0  0  0  0  0  0  0  0  0
   46.1470   31.0090   49.2780 H   0  0  0  0  0  0  0  0  0  0  0  0
   48.2320   31.0920   48.4200 H   0  0  0  0  0  0  0  0  0  0  0  0
   48.1670   32.9220   48.2170 H   0  0  0  0  0  0  0  0  0  0  0  0
   47.9360   32.0750   46.0110 H   0  0  0  0  0  0  0  0  0  0  0  0
   44.7920   36.6390   42.9650 N   0  0  0  0  0  0  0  0  0  0  0  0
   44.4360   37.5590   43.2550 H   0  0  0  0  0  0  0  0  0  0  0  0
   44.9260   36.3890   41.9480 H   0  0  0  0  0  0  0  0  0  0  0  0
   46.6190   30.0820   46.4630 S   0  0  0  0  0  0  0  0  0  0  0  0
   45.7180   30.8100   43.3330 O   0  0  0  0  0  0  0  0  0  0  0  0
   45.0720   30.1650   44.1750 C   0  0  0  0  0  0  0  0  0  0  0  0
   45.1160   29.8090   45.6170 C   0  0  1  0  0  0  0  0  0  0  0  0
   44.6430   28.3790   45.5850 C   0  0  0  0  0  0  0  0  0  0  0  0
   43.3510   28.6090   44.7950 C   0  0  0  0  0  0  0  0  0  0  0  0
   43.8640   29.4950   43.7580 N   0  0  0  0  0  0  0  0  0  0  0  0
   44.1960   30.3360   45.9810 H   0  0  0  0  0  0  0  0  0  0  0  0
   44.3870   27.9560   46.5650 H   0  0  0  0  0  0  0  0  0  0  0  0
   45.2750   27.7310   44.9530 H   0  0  0  0  0  0  0  0  0  0  0  0
   43.0140   27.6380   44.4180 H   0  0  0  0  0  0  0  0  0  0  0  0
   42.6410   29.0980   45.4830 H   0  0  0  0  0  0  0  0  0  0  0  0
   43.2660   29.9610   38.9630 H   0  0  0  0  0  0  0  0  0  0  0  0
   43.5410   30.6120   39.7350 N   0  0  0  0  0  0  0  0  0  0  0  0
   42.4560   30.9670   40.6130 C   0  0  0  0  0  2  0  0  0  0  0  0
   42.9180   31.0160   42.0740 C   0  0  0  0  0  2  0  0  0  0  0  0
   43.1490   29.6050   42.4880 C   0  0  0  0  0  3  0  0  0  0  0  0
   43.9200   28.9080   41.3650 C   0  0  0  0  0  2  0  0  0  0  0  0
   44.5920   29.9340   40.4720 C   0  0  0  0  0  2  0  0  0  0  0  0
  1 12  1  0  0  0  0
  1  6  1  0  0  0  0
  2  1  2  0  0  0  0
  3  2  1  0  0  0  0
  3  4  2  0  0  0  0
  4  5  1  0  0  0  0
  5  6  2  0  0  0  0
  5  7  1  0  0  0  0
  7  8  1  0  0  0  0
  8 15  1  0  0  0  0
  8 14  1  0  0  0  0
  8  9  1  0  0  0  0
  9 17  1  0  0  0  0
  9 16  1  0  0  0  0
 10 19  1  0  0  0  0
 10 18  1  0  0  0  0
 10  9  1  0  0  0  0
 11 20  1  6  0  0  0
 11  7  1  0  0  0  0
 11 10  1  0  0  0  0
 13  3  1  0  0  0  0
 21 22  1  0  0  0  0
 21  2  1  0  0  0  0
 23 21  1  0  0  0  0
 24 11  1  0  0  0  0
 25 26  2  0  0  0  0
 26 27  1  0  0  0  0
 27 31  1  1  0  0  0
 27 24  1  0  0  0  0
 28 27  1  0  0  0  0
 28 32  1  0  0  0  0
 29 35  1  0  0  0  0
 29 28  1  0  0  0  0
 30 26  1  0  0  0  0
 30 29  1  0  0  0  0
 33 28  1  0  0  0  0
 34 29  1  0  0  0  0
 36 37  1  0  0  0  0
 37 42  1  0  0  0  0
 37 38  1  0  0  0  0
 38 39  1  0  0  0  0
 39 40  1  0  0  0  0
 40 30  1  0  0  0  0
 41 40  1  0  0  0  0
 42 41  1  0  0  0  0
M  END
>  <minimizedAffinity>
-5.18011761

>  <minimizedRMSD>
0.579062283

$$$$
