
     RDKit          3D

 51 54  0  0  0  0  0  0  0  0999 V2000
   44.5013   35.5341   45.1228 C   0  0  0  0  0  0  0  0  0  0  0  0
   45.1675   35.5069   43.8790 C   0  0  0  0  0  0  0  0  0  0  0  0
   46.0873   34.5443   43.6426 C   0  0  0  0  0  0  0  0  0  0  0  0
   46.3155   33.6485   44.6358 N   0  0  0  0  0  0  0  0  0  0  0  0
   45.6872   33.6792   45.8012 C   0  0  0  0  0  0  0  0  0  0  0  0
   44.7770   34.6154   46.0611 N   0  0  0  0  0  0  0  0  0  0  0  0
   46.0103   32.6805   46.7850 N   0  0  0  0  0  0  0  0  0  0  0  0
   45.2646   32.4503   47.9668 C   0  0  0  0  0  0  0  0  0  0  0  0
   46.3301   32.1177   48.9937 C   0  0  0  0  0  0  0  0  0  0  0  0
   47.6180   32.0057   48.2365 C   0  0  0  0  0  0  0  0  0  0  0  0
   47.1327   31.7722   46.8050 C   0  0  1  0  0  0  0  0  0  0  0  0
   44.8218   36.5225   42.9212 N   0  0  0  0  0  0  0  0  0  0  0  0
   46.6269   30.0789   46.6344 S   0  0  0  0  0  0  0  0  0  0  0  0
   45.6044   30.5129   43.4869 O   0  0  0  0  0  0  0  0  0  0  0  0
   44.9752   29.9884   44.4200 C   0  0  0  0  0  0  0  0  0  0  0  0
   45.0761   29.7829   45.8895 C   0  0  1  0  0  0  0  0  0  0  0  0
   44.5476   28.3787   46.0303 C   0  0  0  0  0  0  0  0  0  0  0  0
   43.2287   28.5800   45.2775 C   0  0  0  0  0  0  0  0  0  0  0  0
   43.7238   29.3300   44.1306 N   0  0  0  0  0  0  0  0  0  0  0  0
   43.7585   36.3222   45.2964 H   0  0  0  0  0  0  0  0  0  0  0  0
   46.6090   34.4996   42.7058 H   0  0  0  0  0  0  0  0  0  0  0  0
   44.8922   33.4695   48.3070 H   0  0  0  0  0  0  0  0  0  0  0  0
   44.4582   31.8041   48.0747 H   0  0  0  0  0  0  0  0  0  0  0  0
   46.3441   32.7766   49.8645 H   0  0  0  0  0  0  0  0  0  0  0  0
   46.1237   31.0900   49.4144 H   0  0  0  0  0  0  0  0  0  0  0  0
   48.2181   31.1517   48.5754 H   0  0  0  0  0  0  0  0  0  0  0  0
   48.1506   32.9740   48.3172 H   0  0  0  0  0  0  0  0  0  0  0  0
   47.9435   32.0612   46.1349 H   0  0  0  0  0  0  0  0  0  0  0  0
   44.4609   37.4500   43.1793 H   0  0  0  0  0  0  0  0  0  0  0  0
   44.9674   36.2434   41.9127 H   0  0  0  0  0  0  0  0  0  0  0  0
   44.1948   30.3840   46.2352 H   0  0  0  0  0  0  0  0  0  0  0  0
   44.3237   28.0733   47.0604 H   0  0  0  0  0  0  0  0  0  0  0  0
   45.1234   27.6424   45.4444 H   0  0  0  0  0  0  0  0  0  0  0  0
   42.8370   27.5906   45.0221 H   0  0  0  0  0  0  0  0  0  0  0  0
   42.5722   29.1685   45.9405 H   0  0  0  0  0  0  0  0  0  0  0  0
   41.5448   31.1735   40.2038 H   0  0  0  0  0  0  0  0  0  0  0  0
   41.3294   31.1671   41.2276 N   0  0  0  0  0  0  0  0  0  0  0  0
   40.9041   29.8838   41.7274 C   0  0  0  0  0  0  0  0  0  0  0  0
   41.5046   29.5999   43.1081 C   0  0  0  0  0  0  0  0  0  0  0  0
   42.9526   29.3370   42.8886 C   0  0  0  0  0  0  0  0  0  0  0  0
   43.4809   30.4009   41.9253 C   0  0  0  0  0  0  0  0  0  0  0  0
   42.5459   31.5953   41.8948 C   0  0  0  0  0  0  0  0  0  0  0  0
   39.8277   29.7181   41.6860 H   0  0  0  0  0  0  0  0  0  0  0  0
   41.3814   29.1203   41.0456 H   0  0  0  0  0  0  0  0  0  0  0  0
   41.2485   30.3670   43.8359 H   0  0  0  0  0  0  0  0  0  0  0  0
   41.0473   28.6071   43.3934 H   0  0  0  0  0  0  0  0  0  0  0  0
   43.0555   28.3716   42.3487 H   0  0  0  0  0  0  0  0  0  0  0  0
   43.5168   30.0185   40.8797 H   0  0  0  0  0  0  0  0  0  0  0  0
   44.5295   30.6807   42.1564 H   0  0  0  0  0  0  0  0  0  0  0  0
   42.2487   31.9277   42.9057 H   0  0  0  0  0  0  0  0  0  0  0  0
   43.0768   32.3857   41.3300 H   0  0  0  0  0  0  0  0  0  0  0  0
  1  6  2  0
  2  1  1  0
  3  2  2  0
  3  4  1  0
  4  5  2  0
  5  6  1  0
  5  7  1  0
  7 11  1  0
  7  8  1  0
  8  9  1  0
 10  9  1  0
 11 10  1  0
 12  2  1  0
 13 11  1  0
 14 15  2  0
 15 16  1  0
 16 17  1  0
 16 13  1  0
 18 17  1  0
 19 15  1  0
 19 18  1  0
  1 20  1  0
  3 21  1  0
  8 22  1  0
  8 23  1  0
  9 24  1  0
  9 25  1  0
 10 26  1  0
 10 27  1  0
 11 28  1  6
 12 29  1  0
 12 30  1  0
 16 31  1  1
 17 32  1  0
 17 33  1  0
 18 34  1  0
 18 35  1  0
 36 37  1  0
 37 38  1  0
 38 39  1  0
 39 40  1  0
 40 41  1  0
 41 42  1  0
 42 37  1  0
 38 43  1  0
 38 44  1  0
 39 45  1  0
 39 46  1  0
 40 47  1  0
 41 48  1  0
 41 49  1  0
 42 50  1  0
 42 51  1  0
 19 40  1  0
M  ISO  8  20  14  21  14  22  13  23  13  24  13  25  13  26  13  27  13
M  ISO  7  28  13  31  13  32  13  33  13  34  13  35  13  36   5
M  END
>  <DihAtoms>  (1) 
14,18,39,38

>  <DihDeg>  (1) 
121.98882012885619

$$$$
