REMARK  Name = 
REMARK  4 active torsions:
REMARK  status: ('A' for Active; 'I' for Inactive)
REMARK    1  A    between atoms: C_2  and  N_12
REMARK    2  A    between atoms: C_11  and  S_13
REMARK    3  A    between atoms: S_13  and  C_16
REMARK    4  A    between atoms: N_19  and  C_40
REMARK                            x       y       z     vdW  Elec       q    Type
REMARK                         _______ _______ _______ _____ _____    ______ ____
ROOT
ATOM      1  C   UNL     1      44.501  35.534  45.123  0.00  0.00    +0.000 A 
ATOM      2  C   UNL     1      45.167  35.507  43.879  0.00  0.00    +0.000 A 
ATOM      3  C   UNL     1      46.087  34.544  43.643  0.00  0.00    +0.000 A 
ATOM      4  N   UNL     1      46.316  33.648  44.636  0.00  0.00    +0.000 NA
ATOM      5  C   UNL     1      45.687  33.679  45.801  0.00  0.00    +0.000 A 
ATOM      6  N   UNL     1      44.777  34.615  46.061  0.00  0.00    +0.000 NA
ATOM      7  N   UNL     1      46.010  32.681  46.785  0.00  0.00    +0.000 N 
ATOM      8  C   UNL     1      45.265  32.450  47.967  0.00  0.00    +0.000 C 
ATOM      9  C   UNL     1      46.330  32.118  48.994  0.00  0.00    +0.000 C 
ATOM     10  C   UNL     1      47.618  32.006  48.236  0.00  0.00    +0.000 C 
ATOM     11  C   UNL     1      47.133  31.772  46.805  0.00  0.00    +0.000 C 
ATOM     12  H   UNL     1      43.758  36.322  45.296  0.00  0.00    +0.000 HD
ATOM     13  H   UNL     1      46.609  34.500  42.706  0.00  0.00    +0.000 HD
ATOM     14  H   UNL     1      44.892  33.469  48.307  0.00  0.00    +0.000 HD
ATOM     15  H   UNL     1      44.458  31.804  48.075  0.00  0.00    +0.000 HD
ATOM     16  H   UNL     1      46.344  32.777  49.864  0.00  0.00    +0.000 HD
ATOM     17  H   UNL     1      46.124  31.090  49.414  0.00  0.00    +0.000 HD
ATOM     18  H   UNL     1      48.218  31.152  48.575  0.00  0.00    +0.000 HD
ATOM     19  H   UNL     1      48.151  32.974  48.317  0.00  0.00    +0.000 HD
ATOM     20  H   UNL     1      47.944  32.061  46.135  0.00  0.00    +0.000 HD
ENDROOT
BRANCH   2  21
ATOM     21  N   UNL     1      44.822  36.523  42.921  0.00  0.00    +0.000 N 
ATOM     22  H   UNL     1      44.461  37.450  43.179  0.00  0.00    +0.000 HD
ATOM     23  H   UNL     1      44.967  36.243  41.913  0.00  0.00    +0.000 HD
ENDBRANCH   2  21
BRANCH  11  24
ATOM     24  S   UNL     1      46.627  30.079  46.634  0.00  0.00    +0.000 S 
BRANCH  24  27
ATOM     25  O   UNL     1      45.604  30.513  43.487  0.00  0.00    +0.000 OA
ATOM     26  C   UNL     1      44.975  29.988  44.420  0.00  0.00    +0.000 C 
ATOM     27  C   UNL     1      45.076  29.783  45.889  0.00  0.00    +0.000 C 
ATOM     28  C   UNL     1      44.548  28.379  46.030  0.00  0.00    +0.000 C 
ATOM     29  C   UNL     1      43.229  28.580  45.278  0.00  0.00    +0.000 C 
ATOM     30  N   UNL     1      43.724  29.330  44.131  0.00  0.00    +0.000 N 
ATOM     31  H   UNL     1      44.195  30.384  46.235  0.00  0.00    +0.000 HD
ATOM     32  H   UNL     1      44.324  28.073  47.060  0.00  0.00    +0.000 HD
ATOM     33  H   UNL     1      45.123  27.642  45.444  0.00  0.00    +0.000 HD
ATOM     34  H   UNL     1      42.837  27.591  45.022  0.00  0.00    +0.000 HD
ATOM     35  H   UNL     1      42.572  29.169  45.941  0.00  0.00    +0.000 HD
BRANCH  30  40
ATOM     36  H   UNL     1      40.413  27.884  40.888  0.00  0.00    +0.000 HD
ATOM     37  N   UNL     1      41.344  27.521  41.198  0.00  0.00    +0.000 NA
ATOM     38  C   UNL     1      42.460  28.318  40.753  0.00  0.00    +0.000 C 
ATOM     39  C   UNL     1      43.525  28.442  41.847  0.00  0.00    +0.000 C 
ATOM     40  C   UNL     1      42.953  29.337  42.889  0.00  0.00    +0.000 C 
ATOM     41  C   UNL     1      41.509  28.899  43.141  0.00  0.00    +0.000 C 
ATOM     42  C   UNL     1      41.295  27.480  42.648  0.00  0.00    +0.000 C 
ENDBRANCH  30  40
ENDBRANCH  24  27
ENDBRANCH  11  24
TORSDOF 4
