
 OpenBabel03242523133D

 44 48  0  0  1  0  0  0  0  0999 V2000
   38.1950   22.8050   40.5440 C   0  0  0  0  0  0  0  0  0  0  0  0
   38.3340   24.1390   40.9260 C   0  0  0  0  0  0  0  0  0  0  0  0
   37.3660   25.0380   40.5930 C   0  0  0  0  0  0  0  0  0  0  0  0
   36.2940   24.5660   39.8860 N   0  0  0  0  0  0  0  0  0  0  0  0
   36.1610   23.2850   39.5200 C   0  0  0  0  0  0  0  0  0  0  0  0
   37.0960   22.4260   39.8450 N   0  0  0  0  0  0  0  0  0  0  0  0
   38.9670   22.0830   40.8120 H   0  0  0  0  0  0  0  0  0  0  0  0
   35.3430   22.8520   38.9620 H   0  0  0  0  0  0  0  0  0  0  0  0
   39.4940   24.4840   41.6220 N   0  0  0  0  0  0  0  0  0  0  0  0
   40.6440   25.0110   40.9610 C   0  0  0  0  0  0  0  0  0  0  0  0
   41.7350   25.4870   41.8700 C   0  0  0  0  0  0  0  0  0  0  0  0
   41.3000   26.1610   43.0190 N   0  0  0  0  0  0  0  0  0  0  0  0
   40.2130   25.6230   43.6750 C   0  0  0  0  0  0  0  0  0  0  0  0
   39.6920   24.3660   43.0120 C   0  0  0  0  0  0  0  0  0  0  0  0
   41.0610   24.1780   40.3420 H   0  0  0  0  0  0  0  0  0  0  0  0
   40.4280   25.8230   40.2430 H   0  0  0  0  0  0  0  0  0  0  0  0
   42.3250   24.5800   42.1710 H   0  0  0  0  0  0  0  0  0  0  0  0
   42.4250   26.1410   41.3040 H   0  0  0  0  0  0  0  0  0  0  0  0
   42.0900   26.3770   43.6340 H   0  0  0  0  0  0  0  0  0  0  0  0
   39.3680   26.3190   43.8610 H   0  0  0  0  0  0  0  0  0  0  0  0
   40.5270   25.2950   44.7090 H   0  0  0  0  0  0  0  0  0  0  0  0
   38.7980   24.0470   43.5900 H   0  0  0  0  0  0  0  0  0  0  0  0
   40.4630   23.5780   43.2170 H   0  0  0  0  0  0  0  0  0  0  0  0
   36.8970   26.7340   42.1530 C   0  0  0  0  0  0  0  0  0  0  0  0
   37.1970   26.4070   40.8130 C   0  0  0  0  0  0  0  0  0  0  0  0
   37.2000   27.5290   40.0200 C   0  0  0  0  0  0  0  0  0  0  0  0
   36.9500   28.8010   40.4230 C   0  0  0  0  0  0  0  0  0  0  0  0
   36.6570   29.0380   41.7640 C   0  0  0  0  0  0  0  0  0  0  0  0
   36.6320   27.9830   42.6390 C   0  0  0  0  0  0  0  0  0  0  0  0
   36.4500   30.4040   41.8480 O   0  0  0  0  0  0  0  0  0  0  0  0
   36.6510   31.0100   40.5900 C   0  0  2  0  0  0  0  0  0  0  0  0
   36.9430   29.9600   39.6690 O   0  0  0  0  0  0  0  0  0  0  0  0
   36.8260   26.0730   43.0430 H   0  0  0  0  0  0  0  0  0  0  0  0
   37.4190   27.3100   39.0230 H   0  0  0  0  0  0  0  0  0  0  0  0
   36.4010   28.2830   43.6300 H   0  0  0  0  0  0  0  0  0  0  0  0
   35.7830   31.5390   40.2060 H   0  0  0  0  0  0  0  0  0  0  0  0
   37.8050   31.8150   40.7100 O   0  0  0  0  0  0  0  0  0  0  0  0
   41.5180   34.0820   38.9640 H   0  0  0  0  0  0  0  0  0  0  0  0
   40.4960   33.8800   38.8930 N   0  0  0  0  0  0  0  0  0  0  0  0
   39.9030   34.1540   40.1680 C   0  0  0  0  0  2  0  0  0  0  0  0
   38.4160   33.9540   40.0210 C   0  0  0  0  0  2  0  0  0  0  0  0
   38.0370   32.5810   39.5670 C   0  0  0  0  0  3  0  0  0  0  0  0
   38.9870   31.9360   38.6180 C   0  0  0  0  0  2  0  0  0  0  0  0
   40.3880   32.4590   38.6660 C   0  0  0  0  0  2  0  0  0  0  0  0
  1  7  1  0  0  0  0
  1  2  1  0  0  0  0
  2  9  1  0  0  0  0
  3 25  1  0  0  0  0
  3  2  2  0  0  0  0
  4  3  1  0  0  0  0
  5  6  1  0  0  0  0
  5  4  2  0  0  0  0
  6  1  2  0  0  0  0
  8  5  1  0  0  0  0
  9 14  1  0  0  0  0
 10  9  1  0  0  0  0
 10 11  1  0  0  0  0
 11 17  1  0  0  0  0
 11 12  1  0  0  0  0
 12 19  1  0  0  0  0
 12 13  1  0  0  0  0
 13 20  1  0  0  0  0
 13 21  1  0  0  0  0
 14 23  1  0  0  0  0
 14 22  1  0  0  0  0
 14 13  1  0  0  0  0
 15 10  1  0  0  0  0
 16 10  1  0  0  0  0
 18 11  1  0  0  0  0
 24 29  1  0  0  0  0
 24 33  1  0  0  0  0
 25 24  2  0  0  0  0
 26 27  2  0  0  0  0
 26 25  1  0  0  0  0
 27 28  1  0  0  0  0
 28 30  1  0  0  0  0
 28 29  2  0  0  0  0
 29 35  1  0  0  0  0
 31 36  1  6  0  0  0
 31 37  1  0  0  0  0
 31 30  1  0  0  0  0
 32 27  1  0  0  0  0
 32 31  1  0  0  0  0
 34 26  1  0  0  0  0
 39 38  1  0  0  0  0
 39 40  1  0  0  0  0
 41 40  1  0  0  0  0
 42 41  1  0  0  0  0
 42 37  1  0  0  0  0
 43 44  1  0  0  0  0
 43 42  1  0  0  0  0
 44 39  1  0  0  0  0
M  END
>  <minimizedAffinity>
-6.25652218

$$$$

 OpenBabel03242523133D

 44 48  0  0  1  0  0  0  0  0999 V2000
   42.7640   33.3280   40.5440 C   0  0  0  0  0  0  0  0  0  0  0  0
   41.9210   32.2190   40.6110 C   0  0  0  0  0  0  0  0  0  0  0  0
   41.8630   31.4880   41.7600 C   0  0  0  0  0  0  0  0  0  0  0  0
   42.6560   31.8950   42.7980 N   0  0  0  0  0  0  0  0  0  0  0  0
   43.4650   32.9600   42.7320 C   0  0  0  0  0  0  0  0  0  0  0  0
   43.5140   33.6590   41.6250 N   0  0  0  0  0  0  0  0  0  0  0  0
   42.8100   33.9160   39.6260 H   0  0  0  0  0  0  0  0  0  0  0  0
   44.1130   33.3300   43.5130 H   0  0  0  0  0  0  0  0  0  0  0  0
   41.1890   31.9050   39.4650 N   0  0  0  0  0  0  0  0  0  0  0  0
   39.8370   32.3270   39.2920 C   0  0  0  0  0  0  0  0  0  0  0  0
   39.2570   32.0540   37.9380 C   0  0  0  0  0  0  0  0  0  0  0  0
   40.1300   32.2670   36.8630 N   0  0  0  0  0  0  0  0  0  0  0  0
   41.4250   31.8200   37.0220 C   0  0  0  0  0  0  0  0  0  0  0  0
   41.6550   31.1590   38.3640 C   0  0  0  0  0  0  0  0  0  0  0  0
   39.2310   31.7570   40.0380 H   0  0  0  0  0  0  0  0  0  0  0  0
   39.6550   33.3920   39.5250 H   0  0  0  0  0  0  0  0  0  0  0  0
   38.9200   30.9830   37.9390 H   0  0  0  0  0  0  0  0  0  0  0  0
   38.3500   32.6710   37.7960 H   0  0  0  0  0  0  0  0  0  0  0  0
   39.6970   31.9770   35.9810 H   0  0  0  0  0  0  0  0  0  0  0  0
   42.2210   32.5730   36.8400 H   0  0  0  0  0  0  0  0  0  0  0  0
   41.6370   31.0120   36.2620 H   0  0  0  0  0  0  0  0  0  0  0  0
   42.7300   30.8820   38.4030 H   0  0  0  0  0  0  0  0  0  0  0  0
   41.1070   30.1810   38.3130 H   0  0  0  0  0  0  0  0  0  0  0  0
   39.8090   30.6270   42.5140 C   0  0  0  0  0  0  0  0  0  0  0  0
   41.1470   30.3560   42.1520 C   0  0  0  0  0  0  0  0  0  0  0  0
   41.4450   29.0260   42.3260 C   0  0  0  0  0  0  0  0  0  0  0  0
   40.6030   28.0640   42.7850 C   0  0  0  0  0  0  0  0  0  0  0  0
   39.2990   28.4170   43.1240 C   0  0  0  0  0  0  0  0  0  0  0  0
   38.9010   29.7210   42.9850 C   0  0  0  0  0  0  0  0  0  0  0  0
   38.7110   27.2390   43.5540 O   0  0  0  0  0  0  0  0  0  0  0  0
   39.6220   26.1670   43.4430 C   0  0  2  0  0  0  0  0  0  0  0  0
   40.8510   26.7170   42.9740 O   0  0  0  0  0  0  0  0  0  0  0  0
   39.2500   31.5860   42.4850 H   0  0  0  0  0  0  0  0  0  0  0  0
   42.4310   28.8020   42.0650 H   0  0  0  0  0  0  0  0  0  0  0  0
   37.8900   29.8700   43.2710 H   0  0  0  0  0  0  0  0  0  0  0  0
   39.8340   25.6640   44.3820 H   0  0  0  0  0  0  0  0  0  0  0  0
   39.1180   25.3130   42.4370 O   0  0  0  0  0  0  0  0  0  0  0  0
   36.3360   23.9780   38.9090 H   0  0  0  0  0  0  0  0  0  0  0  0
   36.5340   24.6780   39.6580 N   0  0  0  0  0  0  0  0  0  0  0  0
   37.8870   25.1190   39.5030 C   0  0  0  0  0  2  0  0  0  0  0  0
   38.1260   26.2000   40.5260 C   0  0  0  0  0  2  0  0  0  0  0  0
   37.8930   25.7530   41.9350 C   0  0  0  0  0  3  0  0  0  0  0  0
   36.7980   24.7610   42.1180 C   0  0  0  0  0  2  0  0  0  0  0  0
   36.4580   23.9550   40.9050 C   0  0  0  0  0  2  0  0  0  0  0  0
  1  2  2  0  0  0  0
  1  6  1  0  0  0  0
  2  3  1  0  0  0  0
  3 25  1  0  0  0  0
  3  4  2  0  0  0  0
  5  4  1  0  0  0  0
  5  8  1  0  0  0  0
  6  5  2  0  0  0  0
  7  1  1  0  0  0  0
  9  2  1  0  0  0  0
 10  9  1  0  0  0  0
 10 16  1  0  0  0  0
 10 15  1  0  0  0  0
 11 17  1  0  0  0  0
 11 10  1  0  0  0  0
 12 13  1  0  0  0  0
 12 11  1  0  0  0  0
 13 14  1  0  0  0  0
 14 22  1  0  0  0  0
 14  9  1  0  0  0  0
 18 11  1  0  0  0  0
 19 12  1  0  0  0  0
 20 13  1  0  0  0  0
 21 13  1  0  0  0  0
 23 14  1  0  0  0  0
 24 29  1  0  0  0  0
 25 26  1  0  0  0  0
 25 24  2  0  0  0  0
 26 27  2  0  0  0  0
 27 32  1  0  0  0  0
 27 28  1  0  0  0  0
 28 30  1  0  0  0  0
 29 28  2  0  0  0  0
 29 35  1  0  0  0  0
 31 30  1  0  0  0  0
 31 36  1  1  0  0  0
 32 31  1  0  0  0  0
 33 24  1  0  0  0  0
 34 26  1  0  0  0  0
 37 31  1  0  0  0  0
 38 39  1  0  0  0  0
 39 44  1  0  0  0  0
 40 39  1  0  0  0  0
 40 41  1  0  0  0  0
 41 42  1  0  0  0  0
 42 43  1  0  0  0  0
 42 37  1  0  0  0  0
 44 43  1  0  0  0  0
M  END
>  <minimizedAffinity>
-6.09336805

$$$$

 OpenBabel03242523133D

 44 48  0  0  1  0  0  0  0  0999 V2000
   42.3830   32.5120   40.9230 C   0  0  0  0  0  0  0  0  0  0  0  0
   41.4020   31.5370   40.7410 C   0  0  0  0  0  0  0  0  0  0  0  0
   41.0940   30.6950   41.7680 C   0  0  0  0  0  0  0  0  0  0  0  0
   41.7820   30.8620   42.9390 N   0  0  0  0  0  0  0  0  0  0  0  0
   42.7230   31.7990   43.1110 C   0  0  0  0  0  0  0  0  0  0  0  0
   43.0140   32.6050   42.1200 N   0  0  0  0  0  0  0  0  0  0  0  0
   42.6300   33.1880   40.1030 H   0  0  0  0  0  0  0  0  0  0  0  0
   43.3000   31.9800   44.0070 H   0  0  0  0  0  0  0  0  0  0  0  0
   40.8010   31.4650   39.4840 N   0  0  0  0  0  0  0  0  0  0  0  0
   39.4730   31.9330   39.2530 C   0  0  0  0  0  0  0  0  0  0  0  0
   39.0450   31.9400   37.8180 C   0  0  0  0  0  0  0  0  0  0  0  0
   40.0280   32.3450   36.9050 N   0  0  0  0  0  0  0  0  0  0  0  0
   41.3000   31.8560   37.1110 C   0  0  0  0  0  0  0  0  0  0  0  0
   41.3880   30.9410   38.3150 C   0  0  0  0  0  0  0  0  0  0  0  0
   38.7930   31.2380   39.8030 H   0  0  0  0  0  0  0  0  0  0  0  0
   39.2610   32.9350   39.6700 H   0  0  0  0  0  0  0  0  0  0  0  0
   38.7160   30.8950   37.5720 H   0  0  0  0  0  0  0  0  0  0  0  0
   38.1550   32.5870   37.7030 H   0  0  0  0  0  0  0  0  0  0  0  0
   39.6950   32.2410   35.9420 H   0  0  0  0  0  0  0  0  0  0  0  0
   42.1080   32.6170   37.1680 H   0  0  0  0  0  0  0  0  0  0  0  0
   41.5980   31.2090   36.2350 H   0  0  0  0  0  0  0  0  0  0  0  0
   42.4540   30.6450   38.4140 H   0  0  0  0  0  0  0  0  0  0  0  0
   40.8540   30.0010   38.0140 H   0  0  0  0  0  0  0  0  0  0  0  0
   39.1120   29.9370   42.7810 C   0  0  0  0  0  0  0  0  0  0  0  0
   40.1900   29.6420   41.9180 C   0  0  0  0  0  0  0  0  0  0  0  0
   40.1200   28.3460   41.4660 C   0  0  0  0  0  0  0  0  0  0  0  0
   39.1650   27.4330   41.7810 C   0  0  0  0  0  0  0  0  0  0  0  0
   38.1370   27.8040   42.6430 C   0  0  0  0  0  0  0  0  0  0  0  0
   38.1140   29.0780   43.1480 C   0  0  0  0  0  0  0  0  0  0  0  0
   37.3480   26.6730   42.7650 O   0  0  0  0  0  0  0  0  0  0  0  0
   37.8550   25.6310   41.9600 C   0  0  2  0  0  0  0  0  0  0  0  0
   39.0480   26.1240   41.3510 O   0  0  0  0  0  0  0  0  0  0  0  0
   38.8650   30.8840   43.3050 H   0  0  0  0  0  0  0  0  0  0  0  0
   40.9100   28.1050   40.8270 H   0  0  0  0  0  0  0  0  0  0  0  0
   37.2860   29.2460   43.7890 H   0  0  0  0  0  0  0  0  0  0  0  0
   38.1240   24.7330   42.5090 H   0  0  0  0  0  0  0  0  0  0  0  0
   36.9050   25.4130   40.9370 O   0  0  0  0  0  0  0  0  0  0  0  0
   37.9100   22.0180   37.8670 H   0  0  0  0  0  0  0  0  0  0  0  0
   37.3500   22.3180   38.6950 N   0  0  0  0  0  0  0  0  0  0  0  0
   36.6940   23.5470   38.3610 C   0  0  0  0  0  2  0  0  0  0  0  0
   35.8140   23.9150   39.5280 C   0  0  0  0  0  2  0  0  0  0  0  0
   36.5570   24.0680   40.8160 C   0  0  0  0  0  3  0  0  0  0  0  0
   37.7150   23.1490   40.9990 C   0  0  0  0  0  2  0  0  0  0  0  0
   38.3070   22.6110   39.7350 C   0  0  0  0  0  2  0  0  0  0  0  0
  1  6  1  0  0  0  0
  2  1  2  0  0  0  0
  2  3  1  0  0  0  0
  3 25  1  0  0  0  0
  3  4  2  0  0  0  0
  4  5  1  0  0  0  0
  5  8  1  0  0  0  0
  6  5  2  0  0  0  0
  7  1  1  0  0  0  0
  9  2  1  0  0  0  0
 10  9  1  0  0  0  0
 10 16  1  0  0  0  0
 10 15  1  0  0  0  0
 11 10  1  0  0  0  0
 12 13  1  0  0  0  0
 12 11  1  0  0  0  0
 13 20  1  0  0  0  0
 13 14  1  0  0  0  0
 14 22  1  0  0  0  0
 14  9  1  0  0  0  0
 17 11  1  0  0  0  0
 18 11  1  0  0  0  0
 19 12  1  0  0  0  0
 21 13  1  0  0  0  0
 23 14  1  0  0  0  0
 24 29  1  0  0  0  0
 24 33  1  0  0  0  0
 25 24  2  0  0  0  0
 26 27  2  0  0  0  0
 26 25  1  0  0  0  0
 27 28  1  0  0  0  0
 28 30  1  0  0  0  0
 28 29  2  0  0  0  0
 29 35  1  0  0  0  0
 31 36  1  1  0  0  0
 31 30  1  0  0  0  0
 32 27  1  0  0  0  0
 32 31  1  0  0  0  0
 34 26  1  0  0  0  0
 37 31  1  0  0  0  0
 38 39  1  0  0  0  0
 39 44  1  0  0  0  0
 40 39  1  0  0  0  0
 40 41  1  0  0  0  0
 41 42  1  0  0  0  0
 42 37  1  0  0  0  0
 42 43  1  0  0  0  0
 44 43  1  0  0  0  0
M  END
>  <minimizedAffinity>
-5.92847157

$$$$

 OpenBabel03242523133D

 44 48  0  0  1  0  0  0  0  0999 V2000
   41.4180   33.1140   40.7420 C   0  0  0  0  0  0  0  0  0  0  0  0
   40.4520   32.1080   40.7250 C   0  0  0  0  0  0  0  0  0  0  0  0
   40.5870   31.0330   41.5500 C   0  0  0  0  0  0  0  0  0  0  0  0
   41.6880   31.0050   42.3620 N   0  0  0  0  0  0  0  0  0  0  0  0
   42.6150   31.9710   42.3770 C   0  0  0  0  0  0  0  0  0  0  0  0
   42.4770   33.0020   41.5820 N   0  0  0  0  0  0  0  0  0  0  0  0
   41.3110   33.9770   40.0840 H   0  0  0  0  0  0  0  0  0  0  0  0
   43.5030   32.0060   42.9920 H   0  0  0  0  0  0  0  0  0  0  0  0
   39.3940   32.2570   39.8250 N   0  0  0  0  0  0  0  0  0  0  0  0
   39.4670   31.7690   38.4860 C   0  0  0  0  0  0  0  0  0  0  0  0
   38.1890   31.8580   37.7100 C   0  0  0  0  0  0  0  0  0  0  0  0
   37.0300   31.5500   38.4350 N   0  0  0  0  0  0  0  0  0  0  0  0
   36.9490   32.0590   39.7150 C   0  0  0  0  0  0  0  0  0  0  0  0
   38.1610   32.8830   40.0940 C   0  0  0  0  0  0  0  0  0  0  0  0
   40.2240   32.4020   37.9610 H   0  0  0  0  0  0  0  0  0  0  0  0
   39.8430   30.7340   38.3950 H   0  0  0  0  0  0  0  0  0  0  0  0
   38.1170   32.9090   37.3210 H   0  0  0  0  0  0  0  0  0  0  0  0
   38.2500   31.1970   36.8260 H   0  0  0  0  0  0  0  0  0  0  0  0
   36.1920   31.7170   37.8700 H   0  0  0  0  0  0  0  0  0  0  0  0
   36.7410   31.3190   40.5160 H   0  0  0  0  0  0  0  0  0  0  0  0
   36.0810   32.7770   39.7760 H   0  0  0  0  0  0  0  0  0  0  0  0
   38.0140   33.2010   41.1480 H   0  0  0  0  0  0  0  0  0  0  0  0
   38.0800   33.8270   39.4940 H   0  0  0  0  0  0  0  0  0  0  0  0
   38.8970   30.0190   42.8340 C   0  0  0  0  0  0  0  0  0  0  0  0
   39.8250   29.8850   41.7780 C   0  0  0  0  0  0  0  0  0  0  0  0
   39.7940   28.6160   41.2530 C   0  0  0  0  0  0  0  0  0  0  0  0
   38.9980   27.5940   41.6600 C   0  0  0  0  0  0  0  0  0  0  0  0
   38.1120   27.8090   42.7120 C   0  0  0  0  0  0  0  0  0  0  0  0
   38.0640   29.0440   43.3050 C   0  0  0  0  0  0  0  0  0  0  0  0
   37.4640   26.5980   42.8870 O   0  0  0  0  0  0  0  0  0  0  0  0
   37.9120   25.6590   41.9330 C   0  0  2  0  0  0  0  0  0  0  0  0
   38.9260   26.3050   41.1650 O   0  0  0  0  0  0  0  0  0  0  0  0
   38.6620   30.9070   43.4600 H   0  0  0  0  0  0  0  0  0  0  0  0
   40.4740   28.4930   40.4700 H   0  0  0  0  0  0  0  0  0  0  0  0
   37.3520   29.0910   44.0900 H   0  0  0  0  0  0  0  0  0  0  0  0
   38.3560   24.7650   42.3610 H   0  0  0  0  0  0  0  0  0  0  0  0
   36.8180   25.4020   41.0770 O   0  0  0  0  0  0  0  0  0  0  0  0
   38.0400   22.1940   37.8860 H   0  0  0  0  0  0  0  0  0  0  0  0
   37.4720   22.4220   38.7330 N   0  0  0  0  0  0  0  0  0  0  0  0
   36.7120   23.6020   38.4480 C   0  0  0  0  0  2  0  0  0  0  0  0
   35.8260   23.8610   39.6400 C   0  0  0  0  0  2  0  0  0  0  0  0
   36.5790   24.0360   40.9200 C   0  0  0  0  0  3  0  0  0  0  0  0
   37.8120   23.2120   41.0550 C   0  0  0  0  0  2  0  0  0  0  0  0
   38.4220   22.7620   39.7650 C   0  0  0  0  0  2  0  0  0  0  0  0
  1  6  1  0  0  0  0
  2  1  2  0  0  0  0
  2  3  1  0  0  0  0
  3 25  1  0  0  0  0
  3  4  2  0  0  0  0
  4  5  1  0  0  0  0
  5  8  1  0  0  0  0
  6  5  2  0  0  0  0
  7  1  1  0  0  0  0
  9 14  1  0  0  0  0
  9  2  1  0  0  0  0
 10  9  1  0  0  0  0
 11 12  1  0  0  0  0
 11 10  1  0  0  0  0
 12 13  1  0  0  0  0
 13 21  1  0  0  0  0
 13 14  1  0  0  0  0
 13 20  1  0  0  0  0
 14 22  1  0  0  0  0
 15 10  1  0  0  0  0
 16 10  1  0  0  0  0
 17 11  1  0  0  0  0
 18 11  1  0  0  0  0
 19 12  1  0  0  0  0
 23 14  1  0  0  0  0
 24 29  1  0  0  0  0
 24 33  1  0  0  0  0
 25 24  2  0  0  0  0
 26 27  2  0  0  0  0
 26 25  1  0  0  0  0
 27 28  1  0  0  0  0
 28 30  1  0  0  0  0
 28 29  2  0  0  0  0
 29 35  1  0  0  0  0
 31 36  1  1  0  0  0
 31 30  1  0  0  0  0
 32 27  1  0  0  0  0
 32 31  1  0  0  0  0
 34 26  1  0  0  0  0
 37 31  1  0  0  0  0
 38 39  1  0  0  0  0
 39 44  1  0  0  0  0
 40 39  1  0  0  0  0
 40 41  1  0  0  0  0
 41 42  1  0  0  0  0
 42 43  1  0  0  0  0
 42 37  1  0  0  0  0
 44 43  1  0  0  0  0
M  END
>  <minimizedAffinity>
-5.75286436

$$$$

 OpenBabel03242523133D

 44 48  0  0  1  0  0  0  0  0999 V2000
   37.3170   32.6860   39.0510 C   0  0  0  0  0  0  0  0  0  0  0  0
   37.3730   31.3410   39.4160 C   0  0  0  0  0  0  0  0  0  0  0  0
   38.1200   30.9680   40.4940 C   0  0  0  0  0  0  0  0  0  0  0  0
   38.7850   31.9590   41.1640 N   0  0  0  0  0  0  0  0  0  0  0  0
   38.7300   33.2490   40.8120 C   0  0  0  0  0  0  0  0  0  0  0  0
   38.0090   33.6000   39.7760 N   0  0  0  0  0  0  0  0  0  0  0  0
   36.7190   32.9870   38.1900 H   0  0  0  0  0  0  0  0  0  0  0  0
   39.2300   34.0750   41.2980 H   0  0  0  0  0  0  0  0  0  0  0  0
   36.6650   30.4360   38.6240 N   0  0  0  0  0  0  0  0  0  0  0  0
   36.9810   30.2270   37.2490 C   0  0  0  0  0  0  0  0  0  0  0  0
   36.2400   29.1030   36.5920 C   0  0  0  0  0  0  0  0  0  0  0  0
   36.0690   27.9600   37.3850 N   0  0  0  0  0  0  0  0  0  0  0  0
   35.7230   28.1700   38.7030 C   0  0  0  0  0  0  0  0  0  0  0  0
   35.5830   29.6380   39.0460 C   0  0  0  0  0  0  0  0  0  0  0  0
   36.7050   31.1690   36.7150 H   0  0  0  0  0  0  0  0  0  0  0  0
   38.0570   30.0830   37.0420 H   0  0  0  0  0  0  0  0  0  0  0  0
   35.2340   29.5060   36.2970 H   0  0  0  0  0  0  0  0  0  0  0  0
   36.7550   28.8210   35.6550 H   0  0  0  0  0  0  0  0  0  0  0  0
   35.4810   27.2710   36.9070 H   0  0  0  0  0  0  0  0  0  0  0  0
   36.3730   27.6760   39.4570 H   0  0  0  0  0  0  0  0  0  0  0  0
   34.7020   27.7290   38.8960 H   0  0  0  0  0  0  0  0  0  0  0  0
   35.3510   29.6920   40.1300 H   0  0  0  0  0  0  0  0  0  0  0  0
   34.6440   29.9750   38.5330 H   0  0  0  0  0  0  0  0  0  0  0  0
   37.9040   29.6630   42.4380 C   0  0  0  0  0  0  0  0  0  0  0  0
   38.3840   29.7450   41.1130 C   0  0  0  0  0  0  0  0  0  0  0  0
   39.0550   28.5990   40.7600 C   0  0  0  0  0  0  0  0  0  0  0  0
   39.2590   27.5100   41.5440 C   0  0  0  0  0  0  0  0  0  0  0  0
   38.7550   27.5120   42.8430 C   0  0  0  0  0  0  0  0  0  0  0  0
   38.0670   28.6080   43.2920 C   0  0  0  0  0  0  0  0  0  0  0  0
   39.1290   26.2880   43.3720 O   0  0  0  0  0  0  0  0  0  0  0  0
   39.8160   25.5240   42.4050 C   0  0  2  0  0  0  0  0  0  0  0  0
   39.9210   26.3360   41.2370 O   0  0  0  0  0  0  0  0  0  0  0  0
   37.3180   30.4020   43.0240 H   0  0  0  0  0  0  0  0  0  0  0  0
   39.4200   28.6380   39.7820 H   0  0  0  0  0  0  0  0  0  0  0  0
   37.7300   28.4960   44.2910 H   0  0  0  0  0  0  0  0  0  0  0  0
   40.8260   25.2450   42.6930 H   0  0  0  0  0  0  0  0  0  0  0  0
   38.9850   24.4240   42.0950 O   0  0  0  0  0  0  0  0  0  0  0  0
   35.8930   21.9080   39.6300 H   0  0  0  0  0  0  0  0  0  0  0  0
   36.6050   22.6720   39.6320 N   0  0  0  0  0  0  0  0  0  0  0  0
   37.8120   22.1490   40.1950 C   0  0  0  0  0  2  0  0  0  0  0  0
   38.8560   23.2320   40.1000 C   0  0  0  0  0  2  0  0  0  0  0  0
   38.4740   24.4970   40.7990 C   0  0  0  0  0  3  0  0  0  0  0  0
   37.0240   24.8340   40.7630 C   0  0  0  0  0  2  0  0  0  0  0  0
   36.1050   23.6750   40.5420 C   0  0  0  0  0  2  0  0  0  0  0  0
  1  2  2  0  0  0  0
  1  6  1  0  0  0  0
  2  3  1  0  0  0  0
  3 25  1  0  0  0  0
  3  4  2  0  0  0  0
  5  4  1  0  0  0  0
  5  8  1  0  0  0  0
  6  5  2  0  0  0  0
  7  1  1  0  0  0  0
  9 14  1  0  0  0  0
  9  2  1  0  0  0  0
 10  9  1  0  0  0  0
 11 10  1  0  0  0  0
 11 12  1  0  0  0  0
 12 13  1  0  0  0  0
 13 21  1  0  0  0  0
 13 14  1  0  0  0  0
 13 20  1  0  0  0  0
 14 22  1  0  0  0  0
 15 10  1  0  0  0  0
 16 10  1  0  0  0  0
 17 11  1  0  0  0  0
 18 11  1  0  0  0  0
 19 12  1  0  0  0  0
 23 14  1  0  0  0  0
 24 33  1  0  0  0  0
 24 29  1  0  0  0  0
 25 24  2  0  0  0  0
 26 25  1  0  0  0  0
 26 27  2  0  0  0  0
 27 28  1  0  0  0  0
 28 29  2  0  0  0  0
 28 30  1  0  0  0  0
 29 35  1  0  0  0  0
 31 36  1  1  0  0  0
 31 30  1  0  0  0  0
 32 27  1  0  0  0  0
 32 31  1  0  0  0  0
 34 26  1  0  0  0  0
 37 31  1  0  0  0  0
 38 39  1  0  0  0  0
 39 40  1  0  0  0  0
 39 44  1  0  0  0  0
 41 40  1  0  0  0  0
 41 42  1  0  0  0  0
 42 37  1  0  0  0  0
 43 42  1  0  0  0  0
 44 43  1  0  0  0  0
M  END
>  <minimizedAffinity>
-5.7390008

$$$$

 OpenBabel03242523133D

 44 48  0  0  1  0  0  0  0  0999 V2000
   39.7110   31.4370   41.6350 C   0  0  0  0  0  0  0  0  0  0  0  0
   38.7260   30.5680   41.1640 C   0  0  0  0  0  0  0  0  0  0  0  0
   37.8830   30.9800   40.1760 C   0  0  0  0  0  0  0  0  0  0  0  0
   38.0580   32.2500   39.6970 N   0  0  0  0  0  0  0  0  0  0  0  0
   39.0030   33.0830   40.1500 C   0  0  0  0  0  0  0  0  0  0  0  0
   39.8110   32.6790   41.0990 N   0  0  0  0  0  0  0  0  0  0  0  0
   40.3880   31.1080   42.4240 H   0  0  0  0  0  0  0  0  0  0  0  0
   39.1910   34.0930   39.8150 H   0  0  0  0  0  0  0  0  0  0  0  0
   38.6470   29.3100   41.7650 N   0  0  0  0  0  0  0  0  0  0  0  0
   38.1440   29.1340   43.0880 C   0  0  0  0  0  0  0  0  0  0  0  0
   37.9690   27.7090   43.5150 C   0  0  0  0  0  0  0  0  0  0  0  0
   37.4690   26.8500   42.5270 N   0  0  0  0  0  0  0  0  0  0  0  0
   37.9900   26.9990   41.2590 C   0  0  0  0  0  0  0  0  0  0  0  0
   39.0380   28.0890   41.1810 C   0  0  0  0  0  0  0  0  0  0  0  0
   38.8930   29.6010   43.7750 H   0  0  0  0  0  0  0  0  0  0  0  0
   37.1960   29.6640   43.2920 H   0  0  0  0  0  0  0  0  0  0  0  0
   38.9760   27.3440   43.8510 H   0  0  0  0  0  0  0  0  0  0  0  0
   37.3060   27.6700   44.3990 H   0  0  0  0  0  0  0  0  0  0  0  0
   37.4590   25.8810   42.8590 H   0  0  0  0  0  0  0  0  0  0  0  0
   37.2480   27.1430   40.4450 H   0  0  0  0  0  0  0  0  0  0  0  0
   38.5340   26.0540   40.9650 H   0  0  0  0  0  0  0  0  0  0  0  0
   39.3530   28.1530   40.1170 H   0  0  0  0  0  0  0  0  0  0  0  0
   39.9330   27.6820   41.7210 H   0  0  0  0  0  0  0  0  0  0  0  0
   35.7950   29.9120   40.3450 C   0  0  0  0  0  0  0  0  0  0  0  0
   36.8210   30.3800   39.4960 C   0  0  0  0  0  0  0  0  0  0  0  0
   36.5500   30.0810   38.1830 C   0  0  0  0  0  0  0  0  0  0  0  0
   35.4580   29.4230   37.7150 C   0  0  0  0  0  0  0  0  0  0  0  0
   34.4930   28.9900   38.6210 C   0  0  0  0  0  0  0  0  0  0  0  0
   34.6690   29.2420   39.9570 C   0  0  0  0  0  0  0  0  0  0  0  0
   33.5320   28.3620   37.8470 O   0  0  0  0  0  0  0  0  0  0  0  0
   33.8750   28.4400   36.4800 C   0  0  2  0  0  0  0  0  0  0  0  0
   35.1370   29.1010   36.4090 O   0  0  0  0  0  0  0  0  0  0  0  0
   35.6970   29.9970   41.4490 H   0  0  0  0  0  0  0  0  0  0  0  0
   37.2980   30.4170   37.5360 H   0  0  0  0  0  0  0  0  0  0  0  0
   33.8720   28.8690   40.5490 H   0  0  0  0  0  0  0  0  0  0  0  0
   33.9910   27.4760   35.9940 H   0  0  0  0  0  0  0  0  0  0  0  0
   32.9130   29.2770   35.8710 O   0  0  0  0  0  0  0  0  0  0  0  0
   28.5750   30.4040   34.5030 H   0  0  0  0  0  0  0  0  0  0  0  0
   29.1890   30.0230   35.2570 N   0  0  0  0  0  0  0  0  0  0  0  0
   30.2390   30.9690   35.4900 C   0  0  0  0  0  2  0  0  0  0  0  0
   31.0580   30.4520   36.6440 C   0  0  0  0  0  2  0  0  0  0  0  0
   31.6390   29.0940   36.4080 C   0  0  0  0  0  3  0  0  0  0  0  0
   30.7950   28.1700   35.6010 C   0  0  0  0  0  2  0  0  0  0  0  0
   29.7970   28.8340   34.7070 C   0  0  0  0  0  2  0  0  0  0  0  0
  1  7  1  0  0  0  0
  2  1  1  0  0  0  0
  2  9  1  0  0  0  0
  3  2  2  0  0  0  0
  4  5  2  0  0  0  0
  4  3  1  0  0  0  0
  5  6  1  0  0  0  0
  6  1  2  0  0  0  0
  8  5  1  0  0  0  0
  9 10  1  0  0  0  0
 10 16  1  0  0  0  0
 10 11  1  0  0  0  0
 10 15  1  0  0  0  0
 11 17  1  0  0  0  0
 11 18  1  0  0  0  0
 12 19  1  0  0  0  0
 12 11  1  0  0  0  0
 13 12  1  0  0  0  0
 14 13  1  0  0  0  0
 14 23  1  0  0  0  0
 14  9  1  0  0  0  0
 20 13  1  0  0  0  0
 21 13  1  0  0  0  0
 22 14  1  0  0  0  0
 24 33  1  0  0  0  0
 25  3  1  0  0  0  0
 25 24  2  0  0  0  0
 26 25  1  0  0  0  0
 27 26  2  0  0  0  0
 27 28  1  0  0  0  0
 28 29  2  0  0  0  0
 29 24  1  0  0  0  0
 29 35  1  0  0  0  0
 30 28  1  0  0  0  0
 31 36  1  6  0  0  0
 31 30  1  0  0  0  0
 32 31  1  0  0  0  0
 32 27  1  0  0  0  0
 34 26  1  0  0  0  0
 37 42  1  0  0  0  0
 37 31  1  0  0  0  0
 38 39  1  0  0  0  0
 39 40  1  0  0  0  0
 40 41  1  0  0  0  0
 42 41  1  0  0  0  0
 43 42  1  0  0  0  0
 44 39  1  0  0  0  0
 44 43  1  0  0  0  0
M  END
>  <minimizedAffinity>
-5.7219615

$$$$

 OpenBabel03242523133D

 44 48  0  0  1  0  0  0  0  0999 V2000
   36.5730   24.1750   41.0470 C   0  0  0  0  0  0  0  0  0  0  0  0
   36.9480   25.5140   40.9390 C   0  0  0  0  0  0  0  0  0  0  0  0
   36.7400   26.1770   39.7660 C   0  0  0  0  0  0  0  0  0  0  0  0
   36.1650   25.4710   38.7450 N   0  0  0  0  0  0  0  0  0  0  0  0
   35.8070   24.1850   38.8500 C   0  0  0  0  0  0  0  0  0  0  0  0
   36.0090   23.5550   39.9810 N   0  0  0  0  0  0  0  0  0  0  0  0
   36.7370   23.6430   41.9850 H   0  0  0  0  0  0  0  0  0  0  0  0
   35.3510   23.5750   38.0830 H   0  0  0  0  0  0  0  0  0  0  0  0
   37.5480   26.1000   42.0550 N   0  0  0  0  0  0  0  0  0  0  0  0
   38.8820   25.7820   42.4490 C   0  0  0  0  0  0  0  0  0  0  0  0
   39.4300   26.6220   43.5620 C   0  0  0  0  0  0  0  0  0  0  0  0
   39.0930   27.9810   43.5030 N   0  0  0  0  0  0  0  0  0  0  0  0
   37.7900   28.2790   43.1610 C   0  0  0  0  0  0  0  0  0  0  0  0
   36.9520   27.0420   42.9160 C   0  0  0  0  0  0  0  0  0  0  0  0
   38.8620   24.7230   42.8060 H   0  0  0  0  0  0  0  0  0  0  0  0
   39.6190   25.7950   41.6260 H   0  0  0  0  0  0  0  0  0  0  0  0
   39.0440   26.1830   44.5210 H   0  0  0  0  0  0  0  0  0  0  0  0
   40.5310   26.5230   43.5890 H   0  0  0  0  0  0  0  0  0  0  0  0
   39.4240   28.4740   44.3370 H   0  0  0  0  0  0  0  0  0  0  0  0
   37.6630   28.9840   42.3120 H   0  0  0  0  0  0  0  0  0  0  0  0
   37.2870   28.8020   44.0250 H   0  0  0  0  0  0  0  0  0  0  0  0
   35.9460   27.3950   42.6050 H   0  0  0  0  0  0  0  0  0  0  0  0
   36.7960   26.5820   43.9270 H   0  0  0  0  0  0  0  0  0  0  0  0
   35.8460   28.3100   39.3440 C   0  0  0  0  0  0  0  0  0  0  0  0
   36.9880   27.4810   39.3340 C   0  0  0  0  0  0  0  0  0  0  0  0
   38.0810   28.1530   38.8410 C   0  0  0  0  0  0  0  0  0  0  0  0
   38.1080   29.4390   38.4070 C   0  0  0  0  0  0  0  0  0  0  0  0
   36.9350   30.1880   38.4470 C   0  0  0  0  0  0  0  0  0  0  0  0
   35.7880   29.6100   38.9240 C   0  0  0  0  0  0  0  0  0  0  0  0
   37.2860   31.4280   37.9410 O   0  0  0  0  0  0  0  0  0  0  0  0
   38.6630   31.4610   37.6320 C   0  0  2  0  0  0  0  0  0  0  0  0
   39.1780   30.1600   37.9080 O   0  0  0  0  0  0  0  0  0  0  0  0
   34.8130   28.0860   39.6860 H   0  0  0  0  0  0  0  0  0  0  0  0
   38.9390   27.5570   38.8240 H   0  0  0  0  0  0  0  0  0  0  0  0
   34.9610   30.2740   38.9090 H   0  0  0  0  0  0  0  0  0  0  0  0
   38.8800   31.6760   36.5890 H   0  0  0  0  0  0  0  0  0  0  0  0
   39.2580   32.3650   38.5400 O   0  0  0  0  0  0  0  0  0  0  0  0
   43.0480   34.9960   39.3640 H   0  0  0  0  0  0  0  0  0  0  0  0
   42.6630   34.0490   39.1520 N   0  0  0  0  0  0  0  0  0  0  0  0
   41.8340   34.1600   37.9900 C   0  0  0  0  0  2  0  0  0  0  0  0
   41.3670   32.7710   37.6390 C   0  0  0  0  0  2  0  0  0  0  0  0
   40.6130   32.0960   38.7400 C   0  0  0  0  0  3  0  0  0  0  0  0
   41.0710   32.4180   40.1200 C   0  0  0  0  0  2  0  0  0  0  0  0
   41.8020   33.7150   40.2620 C   0  0  0  0  0  2  0  0  0  0  0  0
  1  7  1  0  0  0  0
  2  1  1  0  0  0  0
  2  9  1  0  0  0  0
  3  2  2  0  0  0  0
  4  5  2  0  0  0  0
  4  3  1  0  0  0  0
  5  6  1  0  0  0  0
  6  1  2  0  0  0  0
  8  5  1  0  0  0  0
  9 10  1  0  0  0  0
  9 14  1  0  0  0  0
 10 15  1  0  0  0  0
 10 11  1  0  0  0  0
 11 18  1  0  0  0  0
 11 17  1  0  0  0  0
 12 11  1  0  0  0  0
 12 19  1  0  0  0  0
 13 12  1  0  0  0  0
 13 21  1  0  0  0  0
 14 13  1  0  0  0  0
 14 23  1  0  0  0  0
 16 10  1  0  0  0  0
 20 13  1  0  0  0  0
 22 14  1  0  0  0  0
 24 33  1  0  0  0  0
 25 24  1  0  0  0  0
 25  3  1  0  0  0  0
 26 25  2  0  0  0  0
 27 28  2  0  0  0  0
 27 26  1  0  0  0  0
 28 29  1  0  0  0  0
 29 24  2  0  0  0  0
 30 28  1  0  0  0  0
 31 36  1  6  0  0  0
 31 32  1  0  0  0  0
 31 30  1  0  0  0  0
 31 37  1  0  0  0  0
 32 27  1  0  0  0  0
 34 26  1  0  0  0  0
 35 29  1  0  0  0  0
 37 42  1  0  0  0  0
 39 38  1  0  0  0  0
 39 44  1  0  0  0  0
 40 39  1  0  0  0  0
 41 40  1  0  0  0  0
 41 42  1  0  0  0  0
 42 43  1  0  0  0  0
 43 44  1  0  0  0  0
M  END
>  <minimizedAffinity>
-5.70081377

$$$$

 OpenBabel03242523133D

 44 48  0  0  1  0  0  0  0  0999 V2000
   38.1420   29.4610   42.8720 C   0  0  0  0  0  0  0  0  0  0  0  0
   37.5730   29.5740   41.6030 C   0  0  0  0  0  0  0  0  0  0  0  0
   36.6560   28.6520   41.1940 C   0  0  0  0  0  0  0  0  0  0  0  0
   36.3460   27.6490   42.0720 N   0  0  0  0  0  0  0  0  0  0  0  0
   36.8930   27.5420   43.2890 C   0  0  0  0  0  0  0  0  0  0  0  0
   37.7730   28.4330   43.6760 N   0  0  0  0  0  0  0  0  0  0  0  0
   38.8740   30.1990   43.2030 H   0  0  0  0  0  0  0  0  0  0  0  0
   36.6910   26.7770   44.0250 H   0  0  0  0  0  0  0  0  0  0  0  0
   38.0040   30.6340   40.8040 N   0  0  0  0  0  0  0  0  0  0  0  0
   39.2360   30.5870   40.0870 C   0  0  0  0  0  0  0  0  0  0  0  0
   39.4660   31.7300   39.1470 C   0  0  0  0  0  0  0  0  0  0  0  0
   38.3340   32.1520   38.4360 N   0  0  0  0  0  0  0  0  0  0  0  0
   37.1550   32.2340   39.1460 C   0  0  0  0  0  0  0  0  0  0  0  0
   37.3190   31.8490   40.6010 C   0  0  0  0  0  0  0  0  0  0  0  0
   40.0490   30.6150   40.8540 H   0  0  0  0  0  0  0  0  0  0  0  0
   39.4040   29.6520   39.5230 H   0  0  0  0  0  0  0  0  0  0  0  0
   39.8590   32.5840   39.7630 H   0  0  0  0  0  0  0  0  0  0  0  0
   40.2650   31.4630   38.4310 H   0  0  0  0  0  0  0  0  0  0  0  0
   38.5430   32.9890   37.8830 H   0  0  0  0  0  0  0  0  0  0  0  0
   36.2920   31.6830   38.7140 H   0  0  0  0  0  0  0  0  0  0  0  0
   36.8070   33.3070   39.1690 H   0  0  0  0  0  0  0  0  0  0  0  0
   36.3100   31.9040   41.0620 H   0  0  0  0  0  0  0  0  0  0  0  0
   37.8970   32.6890   41.0690 H   0  0  0  0  0  0  0  0  0  0  0  0
   36.4130   27.4550   39.1840 C   0  0  0  0  0  0  0  0  0  0  0  0
   35.9160   28.4760   40.0240 C   0  0  0  0  0  0  0  0  0  0  0  0
   34.8330   29.1000   39.4520 C   0  0  0  0  0  0  0  0  0  0  0  0
   34.2810   28.8130   38.2460 C   0  0  0  0  0  0  0  0  0  0  0  0
   34.8350   27.7930   37.4770 C   0  0  0  0  0  0  0  0  0  0  0  0
   35.9180   27.1050   37.9590 C   0  0  0  0  0  0  0  0  0  0  0  0
   34.0660   27.7530   36.3270 O   0  0  0  0  0  0  0  0  0  0  0  0
   33.0260   28.7060   36.3990 C   0  0  2  0  0  0  0  0  0  0  0  0
   33.1940   29.4060   37.6300 O   0  0  0  0  0  0  0  0  0  0  0  0
   37.2620   26.7580   39.3470 H   0  0  0  0  0  0  0  0  0  0  0  0
   34.4490   29.8610   40.0560 H   0  0  0  0  0  0  0  0  0  0  0  0
   36.2520   26.3520   37.2910 H   0  0  0  0  0  0  0  0  0  0  0  0
   33.0450   29.4470   35.6040 H   0  0  0  0  0  0  0  0  0  0  0  0
   31.8180   27.9780   36.4750 O   0  0  0  0  0  0  0  0  0  0  0  0
   29.0990   31.7660   36.9500 H   0  0  0  0  0  0  0  0  0  0  0  0
   29.3090   30.8950   36.4140 N   0  0  0  0  0  0  0  0  0  0  0  0
   29.3550   29.8060   37.3430 C   0  0  0  0  0  2  0  0  0  0  0  0
   29.5600   28.5450   36.5440 C   0  0  0  0  0  2  0  0  0  0  0  0
   30.8030   28.5580   35.7120 C   0  0  0  0  0  3  0  0  0  0  0  0
   31.1830   29.8830   35.1500 C   0  0  0  0  0  2  0  0  0  0  0  0
   30.6430   31.0670   35.8880 C   0  0  0  0  0  2  0  0  0  0  0  0
  1  7  1  0  0  0  0
  1  6  1  0  0  0  0
  2  1  2  0  0  0  0
  3  2  1  0  0  0  0
  3  4  2  0  0  0  0
  4  5  1  0  0  0  0
  5  6  2  0  0  0  0
  5  8  1  0  0  0  0
  9  2  1  0  0  0  0
 10  9  1  0  0  0  0
 10 15  1  0  0  0  0
 11 17  1  0  0  0  0
 11 10  1  0  0  0  0
 12 13  1  0  0  0  0
 12 11  1  0  0  0  0
 13 21  1  0  0  0  0
 13 14  1  0  0  0  0
 14  9  1  0  0  0  0
 14 22  1  0  0  0  0
 14 23  1  0  0  0  0
 16 10  1  0  0  0  0
 18 11  1  0  0  0  0
 19 12  1  0  0  0  0
 20 13  1  0  0  0  0
 24 33  1  0  0  0  0
 24 25  1  0  0  0  0
 25  3  1  0  0  0  0
 26 25  2  0  0  0  0
 26 34  1  0  0  0  0
 27 26  1  0  0  0  0
 28 29  1  0  0  0  0
 28 27  2  0  0  0  0
 29 24  2  0  0  0  0
 30 31  1  0  0  0  0
 30 28  1  0  0  0  0
 31 36  1  6  0  0  0
 31 37  1  0  0  0  0
 31 32  1  0  0  0  0
 32 27  1  0  0  0  0
 35 29  1  0  0  0  0
 39 38  1  0  0  0  0
 39 40  1  0  0  0  0
 41 40  1  0  0  0  0
 42 37  1  0  0  0  0
 42 41  1  0  0  0  0
 43 42  1  0  0  0  0
 43 44  1  0  0  0  0
 44 39  1  0  0  0  0
M  END
>  <minimizedAffinity>
-5.61251354

$$$$

 OpenBabel03242523133D

 44 48  0  0  1  0  0  0  0  0999 V2000
   39.0240   29.3980   40.8310 C   0  0  0  0  0  0  0  0  0  0  0  0
   38.0170   29.7990   39.9530 C   0  0  0  0  0  0  0  0  0  0  0  0
   37.0800   28.8960   39.5480 C   0  0  0  0  0  0  0  0  0  0  0  0
   37.1880   27.6230   40.0380 N   0  0  0  0  0  0  0  0  0  0  0  0
   38.1550   27.2400   40.8810 C   0  0  0  0  0  0  0  0  0  0  0  0
   39.0510   28.1130   41.2660 N   0  0  0  0  0  0  0  0  0  0  0  0
   39.7740   30.1190   41.1580 H   0  0  0  0  0  0  0  0  0  0  0  0
   38.2940   26.2530   41.3010 H   0  0  0  0  0  0  0  0  0  0  0  0
   38.0460   31.1240   39.5130 N   0  0  0  0  0  0  0  0  0  0  0  0
   37.1070   32.0940   39.9730 C   0  0  0  0  0  0  0  0  0  0  0  0
   37.3830   33.5000   39.5370 C   0  0  0  0  0  0  0  0  0  0  0  0
   38.7340   33.8710   39.5480 N   0  0  0  0  0  0  0  0  0  0  0  0
   39.6320   32.9440   39.0630 C   0  0  0  0  0  0  0  0  0  0  0  0
   38.9630   31.6700   38.5930 C   0  0  0  0  0  0  0  0  0  0  0  0
   36.1160   31.7980   39.5490 H   0  0  0  0  0  0  0  0  0  0  0  0
   36.9590   32.1060   41.0690 H   0  0  0  0  0  0  0  0  0  0  0  0
   36.9760   33.6030   38.4950 H   0  0  0  0  0  0  0  0  0  0  0  0
   36.8090   34.2000   40.1720 H   0  0  0  0  0  0  0  0  0  0  0  0
   38.8560   34.8090   39.1560 H   0  0  0  0  0  0  0  0  0  0  0  0
   40.4750   32.6880   39.7410 H   0  0  0  0  0  0  0  0  0  0  0  0
   40.1390   33.3600   38.1450 H   0  0  0  0  0  0  0  0  0  0  0  0
   39.7740   30.9830   38.2700 H   0  0  0  0  0  0  0  0  0  0  0  0
   38.4270   31.9470   37.6470 H   0  0  0  0  0  0  0  0  0  0  0  0
   34.7350   28.9890   39.3860 C   0  0  0  0  0  0  0  0  0  0  0  0
   35.9710   28.9650   38.7020 C   0  0  0  0  0  0  0  0  0  0  0  0
   35.7810   28.9620   37.3420 C   0  0  0  0  0  0  0  0  0  0  0  0
   34.5880   28.9750   36.6940 C   0  0  0  0  0  0  0  0  0  0  0  0
   33.4150   28.9940   37.4440 C   0  0  0  0  0  0  0  0  0  0  0  0
   33.4960   29.0020   38.8120 C   0  0  0  0  0  0  0  0  0  0  0  0
   32.3930   28.9980   36.5090 O   0  0  0  0  0  0  0  0  0  0  0  0
   32.9240   29.0220   35.2010 C   0  0  2  0  0  0  0  0  0  0  0  0
   34.3440   28.9760   35.3330 O   0  0  0  0  0  0  0  0  0  0  0  0
   34.5320   29.0090   40.4780 H   0  0  0  0  0  0  0  0  0  0  0  0
   36.6830   28.9430   36.8150 H   0  0  0  0  0  0  0  0  0  0  0  0
   32.5410   29.0190   39.2750 H   0  0  0  0  0  0  0  0  0  0  0  0
   32.6320   28.1760   34.5860 H   0  0  0  0  0  0  0  0  0  0  0  0
   32.5800   30.2760   34.6500 O   0  0  0  0  0  0  0  0  0  0  0  0
   29.4600   32.6340   32.0670 H   0  0  0  0  0  0  0  0  0  0  0  0
   29.6640   32.1300   32.9590 N   0  0  0  0  0  0  0  0  0  0  0  0
   30.8450   32.7040   33.5300 C   0  0  0  0  0  2  0  0  0  0  0  0
   31.0680   32.0350   34.8610 C   0  0  0  0  0  2  0  0  0  0  0  0
   31.2170   30.5500   34.7680 C   0  0  0  0  0  3  0  0  0  0  0  0
   30.3980   29.8900   33.7140 C   0  0  0  0  0  2  0  0  0  0  0  0
   29.9850   30.7750   32.5810 C   0  0  0  0  0  2  0  0  0  0  0  0
  1  7  1  0  0  0  0
  1  6  1  0  0  0  0
  2  1  2  0  0  0  0
  3  2  1  0  0  0  0
  3  4  2  0  0  0  0
  4  5  1  0  0  0  0
  5  6  2  0  0  0  0
  5  8  1  0  0  0  0
  9  2  1  0  0  0  0
  9 10  1  0  0  0  0
 10 16  1  0  0  0  0
 11 12  1  0  0  0  0
 11 10  1  0  0  0  0
 11 18  1  0  0  0  0
 13 12  1  0  0  0  0
 13 20  1  0  0  0  0
 14 13  1  0  0  0  0
 14  9  1  0  0  0  0
 15 10  1  0  0  0  0
 17 11  1  0  0  0  0
 19 12  1  0  0  0  0
 21 13  1  0  0  0  0
 22 14  1  0  0  0  0
 23 14  1  0  0  0  0
 24 33  1  0  0  0  0
 25 24  2  0  0  0  0
 25  3  1  0  0  0  0
 26 25  1  0  0  0  0
 27 26  2  0  0  0  0
 27 28  1  0  0  0  0
 28 29  2  0  0  0  0
 29 35  1  0  0  0  0
 29 24  1  0  0  0  0
 30 28  1  0  0  0  0
 31 36  1  6  0  0  0
 31 32  1  0  0  0  0
 31 30  1  0  0  0  0
 32 27  1  0  0  0  0
 34 26  1  0  0  0  0
 37 42  1  0  0  0  0
 37 31  1  0  0  0  0
 38 39  1  0  0  0  0
 39 40  1  0  0  0  0
 40 41  1  0  0  0  0
 42 41  1  0  0  0  0
 43 42  1  0  0  0  0
 44 39  1  0  0  0  0
 44 43  1  0  0  0  0
M  END
>  <minimizedAffinity>
-5.5394907

$$$$
