
 OpenBabel03252506393D

 42 45  0  0  1  0  0  0  0  0999 V2000
   36.7540   29.5070   36.6770 C   0  0  0  0  0  0  0  0  0  0  0  0
   37.7670   28.5530   36.4420 C   0  0  0  0  0  0  0  0  0  0  0  0
   38.9170   28.6220   37.1510 C   0  0  0  0  0  0  0  0  0  0  0  0
   39.0260   29.6240   38.0600 N   0  0  0  0  0  0  0  0  0  0  0  0
   38.0710   30.5150   38.2760 C   0  0  0  0  0  0  0  0  0  0  0  0
   36.9290   30.4720   37.5930 N   0  0  0  0  0  0  0  0  0  0  0  0
   38.2940   31.5380   39.2620 N   0  0  0  0  0  0  0  0  0  0  0  0
   37.2900   32.4040   39.7600 C   0  0  0  0  0  0  0  0  0  0  0  0
   38.0190   33.7210   39.9390 C   0  0  0  0  0  0  0  0  0  0  0  0
   39.4690   33.4300   39.6920 C   0  0  0  0  0  0  0  0  0  0  0  0
   39.5350   31.9170   39.8970 C   0  0  1  0  0  0  0  0  0  0  0  0
   35.8290   29.4340   36.0930 H   0  0  0  0  0  0  0  0  0  0  0  0
   39.7050   27.9100   36.9920 H   0  0  0  0  0  0  0  0  0  0  0  0
   36.5950   32.6140   38.8840 H   0  0  0  0  0  0  0  0  0  0  0  0
   36.6700   32.2310   40.5760 H   0  0  0  0  0  0  0  0  0  0  0  0
   37.5970   34.5550   39.3750 H   0  0  0  0  0  0  0  0  0  0  0  0
   37.9430   34.0360   41.0210 H   0  0  0  0  0  0  0  0  0  0  0  0
   40.1160   33.9380   40.4190 H   0  0  0  0  0  0  0  0  0  0  0  0
   39.6990   33.6950   38.6410 H   0  0  0  0  0  0  0  0  0  0  0  0
   40.4230   31.5560   39.3750 H   0  0  0  0  0  0  0  0  0  0  0  0
   37.5120   27.5480   35.4450 N   0  0  0  0  0  0  0  0  0  0  0  0
   36.8770   27.6840   34.6490 H   0  0  0  0  0  0  0  0  0  0  0  0
   38.0330   26.6410   35.5930 H   0  0  0  0  0  0  0  0  0  0  0  0
   39.5320   31.5660   41.6370 S   0  0  0  0  0  0  0  0  0  0  0  0
   37.2530   29.2920   42.5180 O   0  0  0  0  0  0  0  0  0  0  0  0
   38.4710   29.1150   42.3490 C   0  0  0  0  0  0  0  0  0  0  0  0
   39.7140   29.8960   42.1140 C   0  0  1  0  0  0  0  0  0  0  0  0
   40.4350   29.0170   41.1260 C   0  0  0  0  0  0  0  0  0  0  0  0
   40.3760   27.7150   41.9300 C   0  0  0  0  0  0  0  0  0  0  0  0
   38.9860   27.7680   42.3620 N   0  0  0  0  0  0  0  0  0  0  0  0
   40.2730   29.6700   43.0580 H   0  0  0  0  0  0  0  0  0  0  0  0
   41.4870   29.2810   40.9570 H   0  0  0  0  0  0  0  0  0  0  0  0
   39.8520   28.8330   40.2070 H   0  0  0  0  0  0  0  0  0  0  0  0
   40.5940   26.8900   41.2450 H   0  0  0  0  0  0  0  0  0  0  0  0
   41.1000   27.8200   42.7570 H   0  0  0  0  0  0  0  0  0  0  0  0
   38.1910   22.9890   42.6810 H   0  0  0  0  0  0  0  0  0  0  0  0
   38.1050   23.6980   41.9160 N   0  0  0  0  0  0  0  0  0  0  0  0
   36.9970   24.6050   42.0820 C   0  0  0  0  0  2  0  0  0  0  0  0
   37.3840   26.0320   41.6800 C   0  0  0  0  0  2  0  0  0  0  0  0
   38.3020   26.5320   42.7390 C   0  0  0  0  0  3  0  0  0  0  0  0
   39.3100   25.4220   43.0460 C   0  0  0  0  0  2  0  0  0  0  0  0
   39.3610   24.4260   41.9030 C   0  0  0  0  0  2  0  0  0  0  0  0
  1  6  1  0  0  0  0
  2  1  2  0  0  0  0
  2  3  1  0  0  0  0
  3  4  2  0  0  0  0
  4  5  1  0  0  0  0
  5  7  1  0  0  0  0
  6  5  2  0  0  0  0
  7  8  1  0  0  0  0
  7 11  1  0  0  0  0
  8  9  1  0  0  0  0
  8 15  1  0  0  0  0
  9 17  1  0  0  0  0
 10 11  1  0  0  0  0
 10  9  1  0  0  0  0
 10 18  1  0  0  0  0
 11 20  1  6  0  0  0
 11 24  1  0  0  0  0
 12  1  1  0  0  0  0
 13  3  1  0  0  0  0
 14  8  1  0  0  0  0
 16  9  1  0  0  0  0
 19 10  1  0  0  0  0
 21 23  1  0  0  0  0
 21  2  1  0  0  0  0
 22 21  1  0  0  0  0
 24 27  1  0  0  0  0
 26 30  1  0  0  0  0
 26 25  2  0  0  0  0
 27 26  1  0  0  0  0
 27 31  1  1  0  0  0
 28 29  1  0  0  0  0
 28 27  1  0  0  0  0
 29 30  1  0  0  0  0
 29 35  1  0  0  0  0
 30 40  1  0  0  0  0
 32 28  1  0  0  0  0
 33 28  1  0  0  0  0
 34 29  1  0  0  0  0
 37 38  1  0  0  0  0
 37 36  1  0  0  0  0
 39 38  1  0  0  0  0
 39 40  1  0  0  0  0
 40 41  1  0  0  0  0
 42 37  1  0  0  0  0
 42 41  1  0  0  0  0
M  END
>  <minimizedAffinity>
-5.90923691

$$$$

 OpenBabel03252506393D

 42 45  0  0  1  0  0  0  0  0999 V2000
   38.0610   25.9130   36.3290 C   0  0  0  0  0  0  0  0  0  0  0  0
   36.7960   26.4910   36.0910 C   0  0  0  0  0  0  0  0  0  0  0  0
   35.9370   26.6490   37.1240 C   0  0  0  0  0  0  0  0  0  0  0  0
   36.3530   26.2330   38.3470 N   0  0  0  0  0  0  0  0  0  0  0  0
   37.5420   25.6920   38.5630 C   0  0  0  0  0  0  0  0  0  0  0  0
   38.4080   25.5240   37.5660 N   0  0  0  0  0  0  0  0  0  0  0  0
   37.8800   25.2830   39.9000 N   0  0  0  0  0  0  0  0  0  0  0  0
   39.1810   24.9110   40.3200 C   0  0  0  0  0  0  0  0  0  0  0  0
   38.9230   23.7840   41.3020 C   0  0  0  0  0  0  0  0  0  0  0  0
   37.4380   23.7360   41.4990 C   0  0  0  0  0  0  0  0  0  0  0  0
   37.0040   25.1280   41.0390 C   0  0  1  0  0  0  0  0  0  0  0  0
   38.7440   25.7930   35.4800 H   0  0  0  0  0  0  0  0  0  0  0  0
   34.9680   27.0850   36.9720 H   0  0  0  0  0  0  0  0  0  0  0  0
   39.6540   24.3750   39.4360 H   0  0  0  0  0  0  0  0  0  0  0  0
   39.9160   25.5430   40.6940 H   0  0  0  0  0  0  0  0  0  0  0  0
   39.4010   22.8380   41.0430 H   0  0  0  0  0  0  0  0  0  0  0  0
   39.3630   24.0650   42.3030 H   0  0  0  0  0  0  0  0  0  0  0  0
   37.1710   23.5870   42.5530 H   0  0  0  0  0  0  0  0  0  0  0  0
   37.0270   22.9540   40.8300 H   0  0  0  0  0  0  0  0  0  0  0  0
   35.9470   25.0680   40.7750 H   0  0  0  0  0  0  0  0  0  0  0  0
   36.4900   26.8830   34.7420 N   0  0  0  0  0  0  0  0  0  0  0  0
   36.9090   26.4440   33.9120 H   0  0  0  0  0  0  0  0  0  0  0  0
   35.7920   27.6720   34.6610 H   0  0  0  0  0  0  0  0  0  0  0  0
   37.3610   26.3000   42.3230 S   0  0  0  0  0  0  0  0  0  0  0  0
   35.6040   28.5870   40.6430 O   0  0  0  0  0  0  0  0  0  0  0  0
   36.7190   28.7290   41.1710 C   0  0  0  0  0  0  0  0  0  0  0  0
   37.7800   27.9210   41.8270 C   0  0  1  0  0  0  0  0  0  0  0  0
   38.2140   28.8450   42.9350 C   0  0  0  0  0  0  0  0  0  0  0  0
   38.4840   30.0830   42.0750 C   0  0  0  0  0  0  0  0  0  0  0  0
   37.2920   30.0510   41.2370 N   0  0  0  0  0  0  0  0  0  0  0  0
   38.6150   28.0540   41.0910 H   0  0  0  0  0  0  0  0  0  0  0  0
   39.1460   28.5540   43.4370 H   0  0  0  0  0  0  0  0  0  0  0  0
   37.3900   29.1200   43.6140 H   0  0  0  0  0  0  0  0  0  0  0  0
   38.5300   30.9490   42.7420 H   0  0  0  0  0  0  0  0  0  0  0  0
   39.4190   29.8890   41.5220 H   0  0  0  0  0  0  0  0  0  0  0  0
   36.6760   33.3060   37.6880 H   0  0  0  0  0  0  0  0  0  0  0  0
   37.4810   33.0260   38.2950 N   0  0  0  0  0  0  0  0  0  0  0  0
   37.3550   33.4520   39.6660 C   0  0  0  0  0  2  0  0  0  0  0  0
   37.8470   32.3680   40.6310 C   0  0  0  0  0  2  0  0  0  0  0  0
   36.8330   31.2810   40.5920 C   0  0  0  0  0  3  0  0  0  0  0  0
   36.4740   31.0270   39.1270 C   0  0  0  0  0  2  0  0  0  0  0  0
   37.5550   31.5780   38.2170 C   0  0  0  0  0  2  0  0  0  0  0  0
  1  6  1  0  0  0  0
  2  1  2  0  0  0  0
  2  3  1  0  0  0  0
  3  4  2  0  0  0  0
  4  5  1  0  0  0  0
  5  7  1  0  0  0  0
  6  5  2  0  0  0  0
  7  8  1  0  0  0  0
  7 11  1  0  0  0  0
  8 15  1  0  0  0  0
  8  9  1  0  0  0  0
  9 10  1  0  0  0  0
  9 17  1  0  0  0  0
 10 18  1  0  0  0  0
 11 20  1  6  0  0  0
 11 10  1  0  0  0  0
 11 24  1  0  0  0  0
 12  1  1  0  0  0  0
 13  3  1  0  0  0  0
 14  8  1  0  0  0  0
 16  9  1  0  0  0  0
 19 10  1  0  0  0  0
 21  2  1  0  0  0  0
 22 21  1  0  0  0  0
 23 21  1  0  0  0  0
 25 26  2  0  0  0  0
 26 30  1  0  0  0  0
 26 27  1  0  0  0  0
 27 31  1  6  0  0  0
 27 24  1  0  0  0  0
 27 28  1  0  0  0  0
 28 32  1  0  0  0  0
 28 33  1  0  0  0  0
 29 34  1  0  0  0  0
 29 28  1  0  0  0  0
 30 29  1  0  0  0  0
 35 29  1  0  0  0  0
 36 37  1  0  0  0  0
 37 38  1  0  0  0  0
 38 39  1  0  0  0  0
 40 39  1  0  0  0  0
 40 30  1  0  0  0  0
 41 40  1  0  0  0  0
 42 37  1  0  0  0  0
 42 41  1  0  0  0  0
M  END
>  <minimizedAffinity>
-5.69922638

$$$$

 OpenBabel03252506393D

 42 45  0  0  1  0  0  0  0  0999 V2000
   36.9870   31.7420   39.0580 C   0  0  0  0  0  0  0  0  0  0  0  0
   37.3330   33.0170   39.5540 C   0  0  0  0  0  0  0  0  0  0  0  0
   38.1770   33.1100   40.6070 C   0  0  0  0  0  0  0  0  0  0  0  0
   38.6470   31.9500   41.1300 N   0  0  0  0  0  0  0  0  0  0  0  0
   38.3180   30.7560   40.6590 C   0  0  0  0  0  0  0  0  0  0  0  0
   37.4900   30.6340   39.6240 N   0  0  0  0  0  0  0  0  0  0  0  0
   38.8730   29.5900   41.2920 N   0  0  0  0  0  0  0  0  0  0  0  0
   38.8000   28.2780   40.7620 C   0  0  0  0  0  0  0  0  0  0  0  0
   38.6130   27.4120   41.9920 C   0  0  0  0  0  0  0  0  0  0  0  0
   38.7860   28.3210   43.1710 C   0  0  0  0  0  0  0  0  0  0  0  0
   39.5520   29.4970   42.5640 C   0  0  1  0  0  0  0  0  0  0  0  0
   36.3020   31.6870   38.2040 H   0  0  0  0  0  0  0  0  0  0  0  0
   38.4560   34.0670   41.0050 H   0  0  0  0  0  0  0  0  0  0  0  0
   37.7900   28.2060   40.2430 H   0  0  0  0  0  0  0  0  0  0  0  0
   39.4810   27.8320   40.1160 H   0  0  0  0  0  0  0  0  0  0  0  0
   37.7060   26.8040   41.9870 H   0  0  0  0  0  0  0  0  0  0  0  0
   39.4600   26.6660   42.0450 H   0  0  0  0  0  0  0  0  0  0  0  0
   39.3820   27.8520   43.9640 H   0  0  0  0  0  0  0  0  0  0  0  0
   37.7810   28.6400   43.5110 H   0  0  0  0  0  0  0  0  0  0  0  0
   39.3910   30.3600   43.2120 H   0  0  0  0  0  0  0  0  0  0  0  0
   36.7560   34.1610   38.9000 N   0  0  0  0  0  0  0  0  0  0  0  0
   35.8580   34.1390   38.4010 H   0  0  0  0  0  0  0  0  0  0  0  0
   37.3330   35.0430   38.9680 H   0  0  0  0  0  0  0  0  0  0  0  0
   41.2590   29.0440   42.3800 S   0  0  0  0  0  0  0  0  0  0  0  0
   41.6210   30.6890   39.4990 O   0  0  0  0  0  0  0  0  0  0  0  0
   42.2040   30.9090   40.5730 C   0  0  0  0  0  0  0  0  0  0  0  0
   42.3730   30.3080   41.9220 C   0  0  1  0  0  0  0  0  0  0  0  0
   42.3560   31.5340   42.7980 C   0  0  0  0  0  0  0  0  0  0  0  0
   43.4450   32.3240   42.0660 C   0  0  0  0  0  0  0  0  0  0  0  0
   43.0180   32.0950   40.6920 N   0  0  0  0  0  0  0  0  0  0  0  0
   43.4680   30.0710   41.8990 H   0  0  0  0  0  0  0  0  0  0  0  0
   42.6780   31.3650   43.8330 H   0  0  0  0  0  0  0  0  0  0  0  0
   41.4300   32.1250   42.6940 H   0  0  0  0  0  0  0  0  0  0  0  0
   43.3700   33.3680   42.3830 H   0  0  0  0  0  0  0  0  0  0  0  0
   44.4070   31.8440   42.3150 H   0  0  0  0  0  0  0  0  0  0  0  0
   42.5610   35.0210   36.8450 H   0  0  0  0  0  0  0  0  0  0  0  0
   42.5750   33.9830   36.9800 N   0  0  0  0  0  0  0  0  0  0  0  0
   43.8750   33.4540   37.3070 C   0  0  0  0  0  2  0  0  0  0  0  0
   43.7730   32.3510   38.3660 C   0  0  0  0  0  2  0  0  0  0  0  0
   43.4300   33.0290   39.6450 C   0  0  0  0  0  3  0  0  0  0  0  0
   42.3230   34.0450   39.3540 C   0  0  0  0  0  2  0  0  0  0  0  0
   41.6300   33.7080   38.0470 C   0  0  0  0  0  2  0  0  0  0  0  0
  1  2  2  0  0  0  0
  1  6  1  0  0  0  0
  2  3  1  0  0  0  0
  3 13  1  0  0  0  0
  3  4  2  0  0  0  0
  5  4  1  0  0  0  0
  5  7  1  0  0  0  0
  6  5  2  0  0  0  0
  7 11  1  0  0  0  0
  8  7  1  0  0  0  0
  8  9  1  0  0  0  0
  9 17  1  0  0  0  0
  9 10  1  0  0  0  0
 10 19  1  0  0  0  0
 10 18  1  0  0  0  0
 11 10  1  0  0  0  0
 11 20  1  1  0  0  0
 12  1  1  0  0  0  0
 14  8  1  0  0  0  0
 15  8  1  0  0  0  0
 16  9  1  0  0  0  0
 21 23  1  0  0  0  0
 21  2  1  0  0  0  0
 22 21  1  0  0  0  0
 24 11  1  0  0  0  0
 25 26  2  0  0  0  0
 26 30  1  0  0  0  0
 26 27  1  0  0  0  0
 27 31  1  1  0  0  0
 27 24  1  0  0  0  0
 27 28  1  0  0  0  0
 28 32  1  0  0  0  0
 29 35  1  0  0  0  0
 29 34  1  0  0  0  0
 29 28  1  0  0  0  0
 30 29  1  0  0  0  0
 33 28  1  0  0  0  0
 36 37  1  0  0  0  0
 37 38  1  0  0  0  0
 37 42  1  0  0  0  0
 38 39  1  0  0  0  0
 39 40  1  0  0  0  0
 40 30  1  0  0  0  0
 41 40  1  0  0  0  0
 42 41  1  0  0  0  0
M  END
>  <minimizedAffinity>
-5.6575675

$$$$

 OpenBabel03252506393D

 42 45  0  0  1  0  0  0  0  0999 V2000
   35.0820   27.1530   37.4960 C   0  0  0  0  0  0  0  0  0  0  0  0
   34.6730   28.4620   37.8310 C   0  0  0  0  0  0  0  0  0  0  0  0
   35.0660   28.9950   39.0110 C   0  0  0  0  0  0  0  0  0  0  0  0
   35.8430   28.2230   39.8120 N   0  0  0  0  0  0  0  0  0  0  0  0
   36.2240   26.9960   39.4910 C   0  0  0  0  0  0  0  0  0  0  0  0
   35.8520   26.4460   38.3370 N   0  0  0  0  0  0  0  0  0  0  0  0
   37.0460   26.2650   40.4170 N   0  0  0  0  0  0  0  0  0  0  0  0
   37.7130   25.0530   40.1130 C   0  0  0  0  0  0  0  0  0  0  0  0
   37.6070   24.2620   41.4030 C   0  0  0  0  0  0  0  0  0  0  0  0
   37.0300   25.1990   42.4200 C   0  0  0  0  0  0  0  0  0  0  0  0
   37.3220   26.5680   41.8030 C   0  0  1  0  0  0  0  0  0  0  0  0
   34.7540   26.7380   36.5350 H   0  0  0  0  0  0  0  0  0  0  0  0
   34.7690   29.9870   39.2920 H   0  0  0  0  0  0  0  0  0  0  0  0
   37.0250   24.4850   39.4090 H   0  0  0  0  0  0  0  0  0  0  0  0
   38.6680   24.9540   39.7160 H   0  0  0  0  0  0  0  0  0  0  0  0
   37.1070   23.2970   41.3050 H   0  0  0  0  0  0  0  0  0  0  0  0
   38.6480   24.0120   41.7640 H   0  0  0  0  0  0  0  0  0  0  0  0
   37.5330   25.1080   43.3910 H   0  0  0  0  0  0  0  0  0  0  0  0
   35.9380   25.0180   42.4750 H   0  0  0  0  0  0  0  0  0  0  0  0
   36.6240   27.2800   42.2440 H   0  0  0  0  0  0  0  0  0  0  0  0
   33.8480   29.1610   36.8830 N   0  0  0  0  0  0  0  0  0  0  0  0
   33.2270   28.6910   36.2130 H   0  0  0  0  0  0  0  0  0  0  0  0
   33.9270   30.2130   36.9240 H   0  0  0  0  0  0  0  0  0  0  0  0
   39.0290   26.9720   42.0720 S   0  0  0  0  0  0  0  0  0  0  0  0
   39.3350   28.7260   39.2500 O   0  0  0  0  0  0  0  0  0  0  0  0
   39.4420   29.1440   40.4140 C   0  0  0  0  0  0  0  0  0  0  0  0
   39.5060   28.6310   41.8080 C   0  0  1  0  0  0  0  0  0  0  0  0
   38.6910   29.6630   42.5430 C   0  0  0  0  0  0  0  0  0  0  0  0
   39.4400   30.9040   42.0480 C   0  0  0  0  0  0  0  0  0  0  0  0
   39.5480   30.5660   40.6340 N   0  0  0  0  0  0  0  0  0  0  0  0
   40.5480   28.9370   42.0850 H   0  0  0  0  0  0  0  0  0  0  0  0
   38.7690   29.6170   43.6360 H   0  0  0  0  0  0  0  0  0  0  0  0
   37.6620   29.7540   42.1560 H   0  0  0  0  0  0  0  0  0  0  0  0
   38.8080   31.7760   42.2450 H   0  0  0  0  0  0  0  0  0  0  0  0
   40.4100   30.9210   42.5740 H   0  0  0  0  0  0  0  0  0  0  0  0
   38.8760   33.0680   36.5290 H   0  0  0  0  0  0  0  0  0  0  0  0
   39.3510   32.1670   36.7700 N   0  0  0  0  0  0  0  0  0  0  0  0
   40.5840   32.3340   37.4990 C   0  0  0  0  0  2  0  0  0  0  0  0
   40.7260   31.2760   38.5970 C   0  0  0  0  0  2  0  0  0  0  0  0
   39.7400   31.6320   39.6520 C   0  0  0  0  0  3  0  0  0  0  0  0
   38.4200   31.9800   38.9610 C   0  0  0  0  0  2  0  0  0  0  0  0
   38.3950   31.4090   37.5560 C   0  0  0  0  0  2  0  0  0  0  0  0
  1  2  2  0  0  0  0
  1  6  1  0  0  0  0
  2  3  1  0  0  0  0
  3 13  1  0  0  0  0
  3  4  2  0  0  0  0
  5  4  1  0  0  0  0
  5  7  1  0  0  0  0
  6  5  2  0  0  0  0
  7 11  1  0  0  0  0
  8  7  1  0  0  0  0
  8  9  1  0  0  0  0
  9 17  1  0  0  0  0
  9 10  1  0  0  0  0
 10 19  1  0  0  0  0
 10 18  1  0  0  0  0
 11 24  1  0  0  0  0
 11 20  1  1  0  0  0
 11 10  1  0  0  0  0
 12  1  1  0  0  0  0
 14  8  1  0  0  0  0
 15  8  1  0  0  0  0
 16  9  1  0  0  0  0
 21 23  1  0  0  0  0
 21  2  1  0  0  0  0
 22 21  1  0  0  0  0
 25 26  2  0  0  0  0
 26 30  1  0  0  0  0
 26 27  1  0  0  0  0
 27 24  1  0  0  0  0
 27 31  1  1  0  0  0
 27 28  1  0  0  0  0
 28 32  1  0  0  0  0
 29 34  1  0  0  0  0
 29 28  1  0  0  0  0
 29 35  1  0  0  0  0
 30 29  1  0  0  0  0
 33 28  1  0  0  0  0
 36 37  1  0  0  0  0
 37 38  1  0  0  0  0
 37 42  1  0  0  0  0
 38 39  1  0  0  0  0
 39 40  1  0  0  0  0
 40 30  1  0  0  0  0
 41 40  1  0  0  0  0
 42 41  1  0  0  0  0
M  END
>  <minimizedAffinity>
-5.64085102

$$$$

 OpenBabel03252506393D

 42 45  0  0  1  0  0  0  0  0999 V2000
   38.1370   27.2250   37.1050 C   0  0  0  0  0  0  0  0  0  0  0  0
   37.7290   28.4500   36.5360 C   0  0  0  0  0  0  0  0  0  0  0  0
   37.3860   29.4750   37.3500 C   0  0  0  0  0  0  0  0  0  0  0  0
   37.4580   29.2560   38.6870 N   0  0  0  0  0  0  0  0  0  0  0  0
   37.8420   28.1040   39.2150 C   0  0  0  0  0  0  0  0  0  0  0  0
   38.1850   27.0780   38.4380 N   0  0  0  0  0  0  0  0  0  0  0  0
   37.8790   27.9800   40.6470 N   0  0  0  0  0  0  0  0  0  0  0  0
   38.4820   26.9040   41.3440 C   0  0  0  0  0  0  0  0  0  0  0  0
   37.5570   26.6890   42.5250 C   0  0  0  0  0  0  0  0  0  0  0  0
   36.5740   27.8200   42.4960 C   0  0  0  0  0  0  0  0  0  0  0  0
   37.2990   28.8570   41.6380 C   0  0  1  0  0  0  0  0  0  0  0  0
   38.4110   26.4060   36.4300 H   0  0  0  0  0  0  0  0  0  0  0  0
   37.0720   30.4180   36.9440 H   0  0  0  0  0  0  0  0  0  0  0  0
   38.3030   25.9790   40.7080 H   0  0  0  0  0  0  0  0  0  0  0  0
   39.4710   26.8450   41.6560 H   0  0  0  0  0  0  0  0  0  0  0  0
   37.1290   25.6860   42.5910 H   0  0  0  0  0  0  0  0  0  0  0  0
   38.1480   26.8130   43.4790 H   0  0  0  0  0  0  0  0  0  0  0  0
   36.3870   28.2240   43.4990 H   0  0  0  0  0  0  0  0  0  0  0  0
   35.6540   27.4640   41.9900 H   0  0  0  0  0  0  0  0  0  0  0  0
   36.5430   29.5340   41.2370 H   0  0  0  0  0  0  0  0  0  0  0  0
   37.7000   28.5370   35.1010 N   0  0  0  0  0  0  0  0  0  0  0  0
   37.5640   27.7260   34.4840 H   0  0  0  0  0  0  0  0  0  0  0  0
   37.8340   29.5120   34.7170 H   0  0  0  0  0  0  0  0  0  0  0  0
   38.5350   29.6630   42.6240 S   0  0  0  0  0  0  0  0  0  0  0  0
   41.0730   29.3760   40.4760 O   0  0  0  0  0  0  0  0  0  0  0  0
   40.5100   30.4190   40.8450 C   0  0  0  0  0  0  0  0  0  0  0  0
   39.5080   30.8830   41.8410 C   0  0  1  0  0  0  0  0  0  0  0  0
   38.7440   31.9040   41.0400 C   0  0  0  0  0  0  0  0  0  0  0  0
   39.9420   32.7370   40.5730 C   0  0  0  0  0  0  0  0  0  0  0  0
   40.8400   31.6580   40.1830 N   0  0  0  0  0  0  0  0  0  0  0  0
   40.1520   31.5420   42.4790 H   0  0  0  0  0  0  0  0  0  0  0  0
   38.0760   32.5460   41.6300 H   0  0  0  0  0  0  0  0  0  0  0  0
   38.2910   31.4840   40.1260 H   0  0  0  0  0  0  0  0  0  0  0  0
   39.6100   33.3590   39.7360 H   0  0  0  0  0  0  0  0  0  0  0  0
   40.2920   33.3080   41.4500 H   0  0  0  0  0  0  0  0  0  0  0  0
   43.4570   34.1630   36.9520 H   0  0  0  0  0  0  0  0  0  0  0  0
   42.5250   33.6890   36.9310 N   0  0  0  0  0  0  0  0  0  0  0  0
   42.6020   32.2490   36.9300 C   0  0  0  0  0  2  0  0  0  0  0  0
   41.5150   31.6360   37.8190 C   0  0  0  0  0  2  0  0  0  0  0  0
   41.9110   31.9250   39.2240 C   0  0  0  0  0  3  0  0  0  0  0  0
   42.3530   33.3880   39.2940 C   0  0  0  0  0  2  0  0  0  0  0  0
   41.8120   34.1590   38.1040 C   0  0  0  0  0  2  0  0  0  0  0  0
  1  6  1  0  0  0  0
  2  1  2  0  0  0  0
  2  3  1  0  0  0  0
  3  4  2  0  0  0  0
  4  5  1  0  0  0  0
  5  7  1  0  0  0  0
  6  5  2  0  0  0  0
  7  8  1  0  0  0  0
  7 11  1  0  0  0  0
  8 15  1  0  0  0  0
  8  9  1  0  0  0  0
  9 16  1  0  0  0  0
  9 17  1  0  0  0  0
 10  9  1  0  0  0  0
 10 18  1  0  0  0  0
 11 20  1  6  0  0  0
 11 10  1  0  0  0  0
 11 24  1  0  0  0  0
 12  1  1  0  0  0  0
 13  3  1  0  0  0  0
 14  8  1  0  0  0  0
 19 10  1  0  0  0  0
 21  2  1  0  0  0  0
 22 21  1  0  0  0  0
 23 21  1  0  0  0  0
 25 26  2  0  0  0  0
 26 27  1  0  0  0  0
 27 31  1  1  0  0  0
 27 24  1  0  0  0  0
 28 32  1  0  0  0  0
 28 27  1  0  0  0  0
 29 28  1  0  0  0  0
 29 35  1  0  0  0  0
 30 29  1  0  0  0  0
 30 26  1  0  0  0  0
 33 28  1  0  0  0  0
 34 29  1  0  0  0  0
 37 36  1  0  0  0  0
 37 42  1  0  0  0  0
 38 37  1  0  0  0  0
 38 39  1  0  0  0  0
 39 40  1  0  0  0  0
 40 41  1  0  0  0  0
 40 30  1  0  0  0  0
 42 41  1  0  0  0  0
M  END
>  <minimizedAffinity>
-5.59189606

$$$$

 OpenBabel03252506393D

 42 45  0  0  1  0  0  0  0  0999 V2000
   36.7830   27.7140   40.6380 C   0  0  0  0  0  0  0  0  0  0  0  0
   36.4600   28.9430   41.2520 C   0  0  0  0  0  0  0  0  0  0  0  0
   37.3430   29.5070   42.1070 C   0  0  0  0  0  0  0  0  0  0  0  0
   38.5060   28.8430   42.3250 N   0  0  0  0  0  0  0  0  0  0  0  0
   38.8030   27.6890   41.7460 C   0  0  0  0  0  0  0  0  0  0  0  0
   37.9530   27.1110   40.9000 N   0  0  0  0  0  0  0  0  0  0  0  0
   40.0640   27.0690   42.0530 N   0  0  0  0  0  0  0  0  0  0  0  0
   40.6110   25.9720   41.3440 C   0  0  0  0  0  0  0  0  0  0  0  0
   41.2810   25.1520   42.4290 C   0  0  0  0  0  0  0  0  0  0  0  0
   41.2110   25.9780   43.6780 C   0  0  0  0  0  0  0  0  0  0  0  0
   40.9810   27.3840   43.1240 C   0  0  1  0  0  0  0  0  0  0  0  0
   36.0550   27.2720   39.9470 H   0  0  0  0  0  0  0  0  0  0  0  0
   37.1230   30.4410   42.5880 H   0  0  0  0  0  0  0  0  0  0  0  0
   39.7280   25.3220   41.0420 H   0  0  0  0  0  0  0  0  0  0  0  0
   41.2260   26.0190   40.5080 H   0  0  0  0  0  0  0  0  0  0  0  0
   40.9170   24.1260   42.5140 H   0  0  0  0  0  0  0  0  0  0  0  0
   42.3780   25.0490   42.1840 H   0  0  0  0  0  0  0  0  0  0  0  0
   42.1510   25.9440   44.2430 H   0  0  0  0  0  0  0  0  0  0  0  0
   40.3350   25.6390   44.2660 H   0  0  0  0  0  0  0  0  0  0  0  0
   40.5360   27.9800   43.9220 H   0  0  0  0  0  0  0  0  0  0  0  0
   35.1890   29.5320   40.9250 N   0  0  0  0  0  0  0  0  0  0  0  0
   34.3690   28.9890   40.6260 H   0  0  0  0  0  0  0  0  0  0  0  0
   35.1570   30.5840   41.0140 H   0  0  0  0  0  0  0  0  0  0  0  0
   42.5210   28.0270   42.5190 S   0  0  0  0  0  0  0  0  0  0  0  0
   41.6090   29.3580   39.5970 O   0  0  0  0  0  0  0  0  0  0  0  0
   41.9560   29.9600   40.6260 C   0  0  0  0  0  0  0  0  0  0  0  0
   42.5310   29.6840   41.9690 C   0  0  1  0  0  0  0  0  0  0  0  0
   41.7630   30.6550   42.8270 C   0  0  0  0  0  0  0  0  0  0  0  0
   42.0490   31.9200   42.0110 C   0  0  0  0  0  0  0  0  0  0  0  0
   41.8130   31.3950   40.6730 N   0  0  0  0  0  0  0  0  0  0  0  0
   43.5180   30.2090   41.8740 H   0  0  0  0  0  0  0  0  0  0  0  0
   42.1620   30.7900   43.8400 H   0  0  0  0  0  0  0  0  0  0  0  0
   40.6710   30.5020   42.7770 H   0  0  0  0  0  0  0  0  0  0  0  0
   41.3290   32.6850   42.3180 H   0  0  0  0  0  0  0  0  0  0  0  0
   43.1030   32.1880   42.2010 H   0  0  0  0  0  0  0  0  0  0  0  0
   39.4600   33.0810   36.7750 H   0  0  0  0  0  0  0  0  0  0  0  0
   40.1690   32.3280   36.9350 N   0  0  0  0  0  0  0  0  0  0  0  0
   41.4920   32.8240   37.2240 C   0  0  0  0  0  2  0  0  0  0  0  0
   42.1710   31.9880   38.3140 C   0  0  0  0  0  2  0  0  0  0  0  0
   41.4770   32.3160   39.5880 C   0  0  0  0  0  3  0  0  0  0  0  0
   39.9710   32.3110   39.3150 C   0  0  0  0  0  2  0  0  0  0  0  0
   39.6690   31.5380   38.0450 C   0  0  0  0  0  2  0  0  0  0  0  0
  1  6  2  0  0  0  0
  1  2  1  0  0  0  0
  2  3  2  0  0  0  0
  3  4  1  0  0  0  0
  3 13  1  0  0  0  0
  5  7  1  0  0  0  0
  5  4  2  0  0  0  0
  6  5  1  0  0  0  0
  7 11  1  0  0  0  0
  8  7  1  0  0  0  0
  8  9  1  0  0  0  0
  9 16  1  0  0  0  0
  9 10  1  0  0  0  0
 10 18  1  0  0  0  0
 10 19  1  0  0  0  0
 11 10  1  0  0  0  0
 11 20  1  1  0  0  0
 12  1  1  0  0  0  0
 14  8  1  0  0  0  0
 15  8  1  0  0  0  0
 17  9  1  0  0  0  0
 21 23  1  0  0  0  0
 21  2  1  0  0  0  0
 22 21  1  0  0  0  0
 24 11  1  0  0  0  0
 25 26  2  0  0  0  0
 26 30  1  0  0  0  0
 26 27  1  0  0  0  0
 27 31  1  6  0  0  0
 27 24  1  0  0  0  0
 27 28  1  0  0  0  0
 28 32  1  0  0  0  0
 29 35  1  0  0  0  0
 29 34  1  0  0  0  0
 29 28  1  0  0  0  0
 30 29  1  0  0  0  0
 33 28  1  0  0  0  0
 36 37  1  0  0  0  0
 37 38  1  0  0  0  0
 37 42  1  0  0  0  0
 38 39  1  0  0  0  0
 39 40  1  0  0  0  0
 40 30  1  0  0  0  0
 41 40  1  0  0  0  0
 42 41  1  0  0  0  0
M  END
>  <minimizedAffinity>
-5.48568726

$$$$

 OpenBabel03252506393D

 42 45  0  0  1  0  0  0  0  0999 V2000
   42.5880   31.4260   39.7070 C   0  0  0  0  0  0  0  0  0  0  0  0
   42.8850   31.4890   41.0850 C   0  0  0  0  0  0  0  0  0  0  0  0
   41.8740   31.6190   41.9740 C   0  0  0  0  0  0  0  0  0  0  0  0
   40.6130   31.6830   41.4740 N   0  0  0  0  0  0  0  0  0  0  0  0
   40.3420   31.6220   40.1800 C   0  0  0  0  0  0  0  0  0  0  0  0
   41.3170   31.4940   39.2820 N   0  0  0  0  0  0  0  0  0  0  0  0
   38.9690   31.7030   39.7590 N   0  0  0  0  0  0  0  0  0  0  0  0
   38.5140   31.4220   38.4480 C   0  0  0  0  0  0  0  0  0  0  0  0
   37.4110   32.4410   38.2330 C   0  0  0  0  0  0  0  0  0  0  0  0
   37.2050   33.1150   39.5560 C   0  0  0  0  0  0  0  0  0  0  0  0
   37.8170   32.1090   40.5310 C   0  0  1  0  0  0  0  0  0  0  0  0
   43.4210   31.3200   39.0010 H   0  0  0  0  0  0  0  0  0  0  0  0
   42.0710   31.6700   43.0280 H   0  0  0  0  0  0  0  0  0  0  0  0
   39.3340   31.7830   37.7480 H   0  0  0  0  0  0  0  0  0  0  0  0
   38.2150   30.4970   38.0800 H   0  0  0  0  0  0  0  0  0  0  0  0
   37.5640   33.1030   37.3790 H   0  0  0  0  0  0  0  0  0  0  0  0
   36.4490   31.8950   38.0070 H   0  0  0  0  0  0  0  0  0  0  0  0
   36.1400   33.2570   39.7800 H   0  0  0  0  0  0  0  0  0  0  0  0
   37.7810   34.0610   39.5540 H   0  0  0  0  0  0  0  0  0  0  0  0
   38.0690   32.6530   41.4430 H   0  0  0  0  0  0  0  0  0  0  0  0
   44.2690   31.4100   41.4680 N   0  0  0  0  0  0  0  0  0  0  0  0
   45.0460   31.7030   40.8620 H   0  0  0  0  0  0  0  0  0  0  0  0
   44.4350   31.0200   42.4360 H   0  0  0  0  0  0  0  0  0  0  0  0
   36.6730   30.7750   40.7820 S   0  0  0  0  0  0  0  0  0  0  0  0
   38.6340   28.2850   39.7340 O   0  0  0  0  0  0  0  0  0  0  0  0
   38.2200   28.4860   40.8870 C   0  0  0  0  0  0  0  0  0  0  0  0
   37.2680   29.3630   41.6200 C   0  0  1  0  0  0  0  0  0  0  0  0
   38.0340   29.6380   42.8880 C   0  0  0  0  0  0  0  0  0  0  0  0
   38.3310   28.1850   43.2670 C   0  0  0  0  0  0  0  0  0  0  0  0
   38.7430   27.6800   41.9640 N   0  0  0  0  0  0  0  0  0  0  0  0
   36.5260   28.6010   41.9730 H   0  0  0  0  0  0  0  0  0  0  0  0
   37.4440   30.1000   43.6900 H   0  0  0  0  0  0  0  0  0  0  0  0
   39.0140   30.1110   42.7050 H   0  0  0  0  0  0  0  0  0  0  0  0
   39.1330   28.1910   44.0110 H   0  0  0  0  0  0  0  0  0  0  0  0
   37.3820   27.7510   43.6290 H   0  0  0  0  0  0  0  0  0  0  0  0
   39.9360   22.9870   42.3060 H   0  0  0  0  0  0  0  0  0  0  0  0
   39.7730   23.7550   42.9980 N   0  0  0  0  0  0  0  0  0  0  0  0
   40.8180   24.7480   43.0270 C   0  0  0  0  0  2  0  0  0  0  0  0
   40.2380   26.1580   43.1830 C   0  0  0  0  0  2  0  0  0  0  0  0
   39.5880   26.4900   41.8870 C   0  0  0  0  0  3  0  0  0  0  0  0
   38.7750   25.2710   41.4460 C   0  0  0  0  0  2  0  0  0  0  0  0
   38.5060   24.3610   42.6290 C   0  0  0  0  0  2  0  0  0  0  0  0
  1  2  1  0  0  0  0
  2 21  1  0  0  0  0
  2  3  2  0  0  0  0
  3 13  1  0  0  0  0
  4  3  1  0  0  0  0
  5  4  2  0  0  0  0
  6  1  2  0  0  0  0
  6  5  1  0  0  0  0
  7  5  1  0  0  0  0
  7 11  1  0  0  0  0
  8  7  1  0  0  0  0
  9  8  1  0  0  0  0
  9 10  1  0  0  0  0
 10 18  1  0  0  0  0
 10 11  1  0  0  0  0
 11 24  1  0  0  0  0
 11 20  1  1  0  0  0
 12  1  1  0  0  0  0
 14  8  1  0  0  0  0
 15  8  1  0  0  0  0
 16  9  1  0  0  0  0
 17  9  1  0  0  0  0
 19 10  1  0  0  0  0
 21 23  1  0  0  0  0
 22 21  1  0  0  0  0
 24 27  1  0  0  0  0
 25 26  2  0  0  0  0
 26 27  1  0  0  0  0
 26 30  1  0  0  0  0
 27 31  1  1  0  0  0
 27 28  1  0  0  0  0
 28 29  1  0  0  0  0
 28 32  1  0  0  0  0
 29 35  1  0  0  0  0
 29 34  1  0  0  0  0
 30 29  1  0  0  0  0
 33 28  1  0  0  0  0
 36 37  1  0  0  0  0
 37 38  1  0  0  0  0
 38 39  1  0  0  0  0
 40 30  1  0  0  0  0
 40 39  1  0  0  0  0
 41 40  1  0  0  0  0
 41 42  1  0  0  0  0
 42 37  1  0  0  0  0
M  END
>  <minimizedAffinity>
-5.45038462

$$$$

 OpenBabel03252506393D

 42 45  0  0  1  0  0  0  0  0999 V2000
   36.2340   28.6820   40.4620 C   0  0  0  0  0  0  0  0  0  0  0  0
   36.4620   29.7130   41.4000 C   0  0  0  0  0  0  0  0  0  0  0  0
   37.4210   29.5510   42.3390 C   0  0  0  0  0  0  0  0  0  0  0  0
   38.1180   28.3860   42.3200 N   0  0  0  0  0  0  0  0  0  0  0  0
   37.8990   27.4240   41.4370 C   0  0  0  0  0  0  0  0  0  0  0  0
   36.9620   27.5550   40.5020 N   0  0  0  0  0  0  0  0  0  0  0  0
   38.6950   26.2280   41.5110 N   0  0  0  0  0  0  0  0  0  0  0  0
   38.7340   25.2280   40.5090 C   0  0  0  0  0  0  0  0  0  0  0  0
   38.8430   23.9400   41.3010 C   0  0  0  0  0  0  0  0  0  0  0  0
   39.0470   24.3460   42.7290 C   0  0  0  0  0  0  0  0  0  0  0  0
   39.5490   25.7840   42.5890 C   0  0  1  0  0  0  0  0  0  0  0  0
   35.4520   28.8320   39.7080 H   0  0  0  0  0  0  0  0  0  0  0  0
   37.6150   30.3180   43.0650 H   0  0  0  0  0  0  0  0  0  0  0  0
   37.6840   25.1740   40.0770 H   0  0  0  0  0  0  0  0  0  0  0  0
   39.3760   25.1950   39.6920 H   0  0  0  0  0  0  0  0  0  0  0  0
   38.0390   23.2250   41.1190 H   0  0  0  0  0  0  0  0  0  0  0  0
   39.7860   23.4000   40.9920 H   0  0  0  0  0  0  0  0  0  0  0  0
   39.8070   23.7290   43.2240 H   0  0  0  0  0  0  0  0  0  0  0  0
   38.0640   24.3210   43.2390 H   0  0  0  0  0  0  0  0  0  0  0  0
   39.3580   26.2890   43.5370 H   0  0  0  0  0  0  0  0  0  0  0  0
   35.6450   30.8920   41.2980 N   0  0  0  0  0  0  0  0  0  0  0  0
   34.6990   30.8970   40.8970 H   0  0  0  0  0  0  0  0  0  0  0  0
   36.0960   31.7710   41.6720 H   0  0  0  0  0  0  0  0  0  0  0  0
   41.2600   25.7580   42.1190 S   0  0  0  0  0  0  0  0  0  0  0  0
   41.0100   28.4130   40.1130 O   0  0  0  0  0  0  0  0  0  0  0  0
   41.6890   28.3100   41.1470 C   0  0  0  0  0  0  0  0  0  0  0  0
   42.1140   27.2810   42.1330 C   0  0  1  0  0  0  0  0  0  0  0  0
   42.0340   28.0550   43.4230 C   0  0  0  0  0  0  0  0  0  0  0  0
   42.8950   29.2480   43.0000 C   0  0  0  0  0  0  0  0  0  0  0  0
   42.3320   29.4870   41.6770 N   0  0  0  0  0  0  0  0  0  0  0  0
   43.2200   27.2740   41.9500 H   0  0  0  0  0  0  0  0  0  0  0  0
   42.5080   27.5650   44.2840 H   0  0  0  0  0  0  0  0  0  0  0  0
   41.0270   28.4610   43.6200 H   0  0  0  0  0  0  0  0  0  0  0  0
   42.7130   30.0600   43.7100 H   0  0  0  0  0  0  0  0  0  0  0  0
   43.9400   28.8930   42.9770 H   0  0  0  0  0  0  0  0  0  0  0  0
   43.4190   34.2090   41.3740 H   0  0  0  0  0  0  0  0  0  0  0  0
   42.6510   33.6600   41.8250 N   0  0  0  0  0  0  0  0  0  0  0  0
   41.7080   33.0970   40.8910 C   0  0  0  0  0  2  0  0  0  0  0  0
   41.2900   31.6840   41.3110 C   0  0  0  0  0  2  0  0  0  0  0  0
   42.4680   30.8080   41.0660 C   0  0  0  0  0  3  0  0  0  0  0  0
   43.7070   31.5310   41.5980 C   0  0  0  0  0  2  0  0  0  0  0  0
   43.3040   32.6100   42.5850 C   0  0  0  0  0  2  0  0  0  0  0  0
  1  6  2  0  0  0  0
  1  2  1  0  0  0  0
  2  3  2  0  0  0  0
  3 13  1  0  0  0  0
  4  3  1  0  0  0  0
  5  7  1  0  0  0  0
  5  4  2  0  0  0  0
  6  5  1  0  0  0  0
  7 11  1  0  0  0  0
  8  9  1  0  0  0  0
  8  7  1  0  0  0  0
  9 10  1  0  0  0  0
 10 18  1  0  0  0  0
 10 19  1  0  0  0  0
 11 10  1  0  0  0  0
 11 20  1  1  0  0  0
 12  1  1  0  0  0  0
 14  8  1  0  0  0  0
 15  8  1  0  0  0  0
 16  9  1  0  0  0  0
 17  9  1  0  0  0  0
 21  2  1  0  0  0  0
 21 23  1  0  0  0  0
 22 21  1  0  0  0  0
 24 27  1  0  0  0  0
 24 11  1  0  0  0  0
 25 26  2  0  0  0  0
 26 30  1  0  0  0  0
 26 27  1  0  0  0  0
 27 31  1  6  0  0  0
 27 28  1  0  0  0  0
 28 33  1  0  0  0  0
 28 32  1  0  0  0  0
 29 28  1  0  0  0  0
 29 34  1  0  0  0  0
 30 29  1  0  0  0  0
 35 29  1  0  0  0  0
 36 37  1  0  0  0  0
 37 42  1  0  0  0  0
 38 39  1  0  0  0  0
 38 37  1  0  0  0  0
 40 39  1  0  0  0  0
 40 41  1  0  0  0  0
 40 30  1  0  0  0  0
 41 42  1  0  0  0  0
M  END
>  <minimizedAffinity>
-5.36950922

$$$$

 OpenBabel03252506393D

 42 45  0  0  1  0  0  0  0  0999 V2000
   38.5040   27.0000   36.1970 C   0  0  0  0  0  0  0  0  0  0  0  0
   37.4430   27.9070   35.9930 C   0  0  0  0  0  0  0  0  0  0  0  0
   36.5420   28.1030   36.9830 C   0  0  0  0  0  0  0  0  0  0  0  0
   36.7190   27.4020   38.1310 N   0  0  0  0  0  0  0  0  0  0  0  0
   37.7170   26.5520   38.3160 C   0  0  0  0  0  0  0  0  0  0  0  0
   38.6190   26.3390   37.3600 N   0  0  0  0  0  0  0  0  0  0  0  0
   37.8080   25.8580   39.5720 N   0  0  0  0  0  0  0  0  0  0  0  0
   38.9320   25.1090   39.9950 C   0  0  0  0  0  0  0  0  0  0  0  0
   38.3160   23.9370   40.7340 C   0  0  0  0  0  0  0  0  0  0  0  0
   36.8490   24.2300   40.8280 C   0  0  0  0  0  0  0  0  0  0  0  0
   36.8060   25.7420   40.6070 C   0  0  1  0  0  0  0  0  0  0  0  0
   39.2250   26.8540   35.3840 H   0  0  0  0  0  0  0  0  0  0  0  0
   35.7240   28.7870   36.8550 H   0  0  0  0  0  0  0  0  0  0  0  0
   39.3570   24.6240   39.0580 H   0  0  0  0  0  0  0  0  0  0  0  0
   39.7530   25.4660   40.5240 H   0  0  0  0  0  0  0  0  0  0  0  0
   38.5820   22.9570   40.3350 H   0  0  0  0  0  0  0  0  0  0  0  0
   38.7020   23.9310   41.7960 H   0  0  0  0  0  0  0  0  0  0  0  0
   36.4460   23.9820   41.8180 H   0  0  0  0  0  0  0  0  0  0  0  0
   36.3370   23.6970   40.0020 H   0  0  0  0  0  0  0  0  0  0  0  0
   35.7980   25.9940   40.2720 H   0  0  0  0  0  0  0  0  0  0  0  0
   37.3810   28.5790   34.7230 N   0  0  0  0  0  0  0  0  0  0  0  0
   37.7690   28.1920   33.8540 H   0  0  0  0  0  0  0  0  0  0  0  0
   36.9010   29.5200   34.7470 H   0  0  0  0  0  0  0  0  0  0  0  0
   37.2920   26.5620   42.1050 S   0  0  0  0  0  0  0  0  0  0  0  0
   39.8740   28.3300   40.9460 O   0  0  0  0  0  0  0  0  0  0  0  0
   38.7810   28.7630   41.3450 C   0  0  0  0  0  0  0  0  0  0  0  0
   37.5460   28.2870   42.0220 C   0  0  1  0  0  0  0  0  0  0  0  0
   36.4850   29.0620   41.2850 C   0  0  0  0  0  0  0  0  0  0  0  0
   37.0850   30.4590   41.4720 C   0  0  0  0  0  0  0  0  0  0  0  0
   38.4770   30.1610   41.1590 N   0  0  0  0  0  0  0  0  0  0  0  0
   37.6110   28.8630   42.9820 H   0  0  0  0  0  0  0  0  0  0  0  0
   35.4920   29.0400   41.7510 H   0  0  0  0  0  0  0  0  0  0  0  0
   36.4900   28.8720   40.1980 H   0  0  0  0  0  0  0  0  0  0  0  0
   36.6050   31.1280   40.7520 H   0  0  0  0  0  0  0  0  0  0  0  0
   36.9200   30.7370   42.5270 H   0  0  0  0  0  0  0  0  0  0  0  0
   39.7520   34.5920   39.6410 H   0  0  0  0  0  0  0  0  0  0  0  0
   39.2780   33.7720   39.1960 N   0  0  0  0  0  0  0  0  0  0  0  0
   40.1590   32.6610   38.9330 C   0  0  0  0  0  2  0  0  0  0  0  0
   39.4720   31.3260   39.2360 C   0  0  0  0  0  2  0  0  0  0  0  0
   39.3620   31.2380   40.7170 C   0  0  0  0  0  3  0  0  0  0  0  0
   38.8710   32.5920   41.2320 C   0  0  0  0  0  2  0  0  0  0  0  0
   38.2210   33.3780   40.1080 C   0  0  0  0  0  2  0  0  0  0  0  0
  1  6  1  0  0  0  0
  2  1  2  0  0  0  0
  2  3  1  0  0  0  0
  3  4  2  0  0  0  0
  4  5  1  0  0  0  0
  5  7  1  0  0  0  0
  6  5  2  0  0  0  0
  7  8  1  0  0  0  0
  7 11  1  0  0  0  0
  8 15  1  0  0  0  0
  8  9  1  0  0  0  0
  9 10  1  0  0  0  0
  9 17  1  0  0  0  0
 10 18  1  0  0  0  0
 11 20  1  6  0  0  0
 11 10  1  0  0  0  0
 11 24  1  0  0  0  0
 12  1  1  0  0  0  0
 13  3  1  0  0  0  0
 14  8  1  0  0  0  0
 16  9  1  0  0  0  0
 19 10  1  0  0  0  0
 21 23  1  0  0  0  0
 21  2  1  0  0  0  0
 22 21  1  0  0  0  0
 25 26  2  0  0  0  0
 26 27  1  0  0  0  0
 27 24  1  0  0  0  0
 27 31  1  1  0  0  0
 28 29  1  0  0  0  0
 28 32  1  0  0  0  0
 28 27  1  0  0  0  0
 29 35  1  0  0  0  0
 30 26  1  0  0  0  0
 30 29  1  0  0  0  0
 33 28  1  0  0  0  0
 34 29  1  0  0  0  0
 37 36  1  0  0  0  0
 37 42  1  0  0  0  0
 38 37  1  0  0  0  0
 38 39  1  0  0  0  0
 39 40  1  0  0  0  0
 40 30  1  0  0  0  0
 40 41  1  0  0  0  0
 42 41  1  0  0  0  0
M  END
>  <minimizedAffinity>
-5.35823917

$$$$
