
 OpenBabel03242523113D

 44 48  0  0  1  0  0  0  0  0999 V2000
   45.2330   35.9760   43.4770 C   0  0  0  0  0  0  0  0  0  0  0  0
   46.0580   34.8810   43.2200 C   0  0  0  0  0  0  0  0  0  0  0  0
   46.1760   33.8950   44.1530 C   0  0  0  0  0  0  0  0  0  0  0  0
   45.4640   34.0450   45.3120 N   0  0  0  0  0  0  0  0  0  0  0  0
   44.6730   35.0970   45.5570 C   0  0  0  0  0  0  0  0  0  0  0  0
   44.5630   36.0400   44.6550 N   0  0  0  0  0  0  0  0  0  0  0  0
   45.1350   36.7660   42.7310 H   0  0  0  0  0  0  0  0  0  0  0  0
   44.0880   35.2730   46.4490 H   0  0  0  0  0  0  0  0  0  0  0  0
   46.7450   34.8740   42.0050 N   0  0  0  0  0  0  0  0  0  0  0  0
   48.0210   35.4940   41.8540 C   0  0  0  0  0  0  0  0  0  0  0  0
   48.6940   35.2480   40.5390 C   0  0  0  0  0  0  0  0  0  0  0  0
   48.5580   33.9470   40.0360 N   0  0  0  0  0  0  0  0  0  0  0  0
   47.3100   33.3700   40.1480 C   0  0  0  0  0  0  0  0  0  0  0  0
   46.2990   34.2850   40.8050 C   0  0  0  0  0  0  0  0  0  0  0  0
   47.8490   36.5950   41.9430 H   0  0  0  0  0  0  0  0  0  0  0  0
   48.7460   35.2500   42.6520 H   0  0  0  0  0  0  0  0  0  0  0  0
   48.2560   35.9780   39.8080 H   0  0  0  0  0  0  0  0  0  0  0  0
   49.7690   35.4930   40.6250 H   0  0  0  0  0  0  0  0  0  0  0  0
   48.9640   33.8760   39.0980 H   0  0  0  0  0  0  0  0  0  0  0  0
   47.2810   32.3740   40.6400 H   0  0  0  0  0  0  0  0  0  0  0  0
   46.8960   33.1740   39.1160 H   0  0  0  0  0  0  0  0  0  0  0  0
   45.3530   33.7090   40.8860 H   0  0  0  0  0  0  0  0  0  0  0  0
   46.0850   35.0850   40.0490 H   0  0  0  0  0  0  0  0  0  0  0  0
   46.4540   31.8220   45.2280 C   0  0  0  0  0  0  0  0  0  0  0  0
   46.8930   32.6990   44.2120 C   0  0  0  0  0  0  0  0  0  0  0  0
   47.9770   32.1780   43.5460 C   0  0  0  0  0  0  0  0  0  0  0  0
   48.5810   30.9880   43.7960 C   0  0  0  0  0  0  0  0  0  0  0  0
   48.0870   30.1840   44.8200 C   0  0  0  0  0  0  0  0  0  0  0  0
   47.0050   30.6130   45.5440 C   0  0  0  0  0  0  0  0  0  0  0  0
   48.9070   29.0680   44.8250 O   0  0  0  0  0  0  0  0  0  0  0  0
   49.8670   29.1600   43.7950 C   0  0  2  0  0  0  0  0  0  0  0  0
   49.6660   30.4200   43.1560 O   0  0  0  0  0  0  0  0  0  0  0  0
   45.6060   31.9310   45.9370 H   0  0  0  0  0  0  0  0  0  0  0  0
   48.3200   32.8110   42.7900 H   0  0  0  0  0  0  0  0  0  0  0  0
   46.7170   29.9190   46.2940 H   0  0  0  0  0  0  0  0  0  0  0  0
   50.8960   29.1380   44.1410 H   0  0  0  0  0  0  0  0  0  0  0  0
   49.5550   28.1460   42.8620 O   0  0  0  0  0  0  0  0  0  0  0  0
   53.3220   29.5240   40.4380 H   0  0  0  0  0  0  0  0  0  0  0  0
   52.7770   28.7300   40.8420 N   0  0  0  0  0  0  0  0  0  0  0  0
   51.4270   28.8420   40.3770 C   0  0  0  0  0  0  0  0  0  0  0  0
   50.6770   27.6370   40.8860 C   0  0  0  0  0  0  0  0  0  0  0  0
   50.6950   27.5060   42.3760 C   0  0  0  0  0  0  0  0  0  0  0  0
   51.9460   27.9600   43.0430 C   0  0  0  0  0  0  0  0  0  0  0  0
   52.7590   28.9480   42.2680 C   0  0  0  0  0  0  0  0  0  0  0  0
  1  6  1  0  0  0  0
  2  1  2  0  0  0  0
  2  3  1  0  0  0  0
  3 25  1  0  0  0  0
  3  4  2  0  0  0  0
  4  5  1  0  0  0  0
  5  8  1  0  0  0  0
  6  5  2  0  0  0  0
  7  1  1  0  0  0  0
  9  2  1  0  0  0  0
 10 15  1  0  0  0  0
 10  9  1  0  0  0  0
 10 16  1  0  0  0  0
 11 18  1  0  0  0  0
 11 10  1  0  0  0  0
 12 13  1  0  0  0  0
 12 11  1  0  0  0  0
 13 20  1  0  0  0  0
 13 14  1  0  0  0  0
 14 22  1  0  0  0  0
 14  9  1  0  0  0  0
 17 11  1  0  0  0  0
 19 12  1  0  0  0  0
 21 13  1  0  0  0  0
 23 14  1  0  0  0  0
 24 29  1  0  0  0  0
 24 33  1  0  0  0  0
 25 24  2  0  0  0  0
 26 27  2  0  0  0  0
 26 25  1  0  0  0  0
 27 28  1  0  0  0  0
 28 30  1  0  0  0  0
 28 29  2  0  0  0  0
 29 35  1  0  0  0  0
 31 36  1  1  0  0  0
 31 30  1  0  0  0  0
 32 31  1  0  0  0  0
 32 27  1  0  0  0  0
 34 26  1  0  0  0  0
 37 31  1  0  0  0  0
 38 39  1  0  0  0  0
 39 44  1  0  0  0  0
 40 39  1  0  0  0  0
 40 41  1  0  0  0  0
 41 42  1  0  0  0  0
 42 37  1  0  0  0  0
 42 43  1  0  0  0  0
 44 43  1  0  0  0  0
M  END
>  <minimizedAffinity>
-4.87931728

>  <minimizedRMSD>
0.673677027

$$$$
