
 OpenBabel03242517053D

 31 33  0  0  0  0  0  0  0  0999 V2000
   37.4650   26.4600   41.1690 C   0  0  0  0  0  0  0  0  0  0  0  0
   37.0220   25.1660   41.3820 C   0  0  0  0  0  0  0  0  0  0  0  0
   37.8110   24.3250   42.1410 C   0  0  0  0  0  0  0  0  0  0  0  0
   38.9870   24.7590   42.6610 C   0  0  0  0  0  0  0  0  0  0  0  0
   39.4560   26.0390   42.4700 C   0  0  0  0  0  0  0  0  0  0  0  0
   38.6480   26.8890   41.6960 C   0  0  0  0  0  0  0  0  0  0  0  0
   36.0720   24.8180   40.9590 H   0  0  0  0  0  0  0  0  0  0  0  0
   37.4860   23.3090   42.3210 H   0  0  0  0  0  0  0  0  0  0  0  0
   39.6210   24.1190   43.2590 H   0  0  0  0  0  0  0  0  0  0  0  0
   40.3880   26.4630   42.8540 H   0  0  0  0  0  0  0  0  0  0  0  0
   35.5660   28.0600   38.3330 C   0  0  0  0  0  0  0  0  0  0  0  0
   36.4360   27.1720   39.0030 C   0  0  0  0  0  0  0  0  0  0  0  0
   36.5940   27.3150   40.3540 C   0  0  0  0  0  0  0  0  0  0  0  0
   35.9040   28.3110   40.9880 N   0  0  0  0  0  0  0  0  0  0  0  0
   35.0740   29.1560   40.3430 C   0  0  0  0  0  0  0  0  0  0  0  0
   34.9020   29.0310   38.9970 N   0  0  0  0  0  0  0  0  0  0  0  0
   35.5210   27.8490   37.2680 H   0  0  0  0  0  0  0  0  0  0  0  0
   36.9850   26.3890   38.5370 H   0  0  0  0  0  0  0  0  0  0  0  0
   34.5380   29.9360   40.8630 H   0  0  0  0  0  0  0  0  0  0  0  0
   38.9840   29.4470   42.1000 C   0  0  0  0  0  0  0  0  0  0  0  0
   38.5670   29.6090   43.2370 O   0  0  0  0  0  0  0  0  0  0  0  0
   38.9980   28.2240   41.4050 N   0  0  0  0  0  0  0  0  0  0  0  0
   39.3400   28.1800   40.4080 H   0  0  0  0  0  0  0  0  0  0  0  0
   39.4890   30.5640   41.4290 O   0  0  0  0  0  0  0  0  0  0  0  0
   36.4450   33.2410   40.8340 H   0  0  0  0  0  0  0  0  0  0  0  0
   36.9990   33.3160   39.9670 N   0  0  0  0  0  0  0  0  0  0  0  0
   38.3100   33.8490   40.1870 C   0  0  0  0  0  2  0  0  0  0  0  0
   39.2110   32.9260   40.9560 C   0  0  0  0  0  2  0  0  0  0  0  0
   38.6090   31.5250   40.9330 C   0  0  0  0  0  3  0  0  0  0  0  0
   38.1460   31.1870   39.5210 C   0  0  0  0  0  2  0  0  0  0  0  0
   36.9950   32.1090   39.1930 C   0  0  0  0  0  2  0  0  0  0  0  0
  1  2  2  0  0  0  0
  1  6  1  0  0  0  0
  2  3  1  0  0  0  0
  3  8  1  0  0  0  0
  3  4  2  0  0  0  0
  4  9  1  0  0  0  0
  5  4  1  0  0  0  0
  5 10  1  0  0  0  0
  6  5  2  0  0  0  0
  7  2  1  0  0  0  0
 11 16  2  0  0  0  0
 11 12  1  0  0  0  0
 12 13  2  0  0  0  0
 13 14  1  0  0  0  0
 13  1  1  0  0  0  0
 15 19  1  0  0  0  0
 15 14  2  0  0  0  0
 16 15  1  0  0  0  0
 17 11  1  0  0  0  0
 18 12  1  0  0  0  0
 20 21  2  0  0  0  0
 22  6  1  0  0  0  0
 22 20  1  0  0  0  0
 23 22  1  0  0  0  0
 24 20  1  0  0  0  0
 26 27  1  0  0  0  0
 26 25  1  0  0  0  0
 27 28  1  0  0  0  0
 29 28  1  0  0  0  0
 29 24  1  0  0  0  0
 30 29  1  0  0  0  0
 31 30  1  0  0  0  0
 31 26  1  0  0  0  0
M  END
>  <minimizedAffinity>
-5.65412283

$$$$

 OpenBabel03242517053D

 31 33  0  0  0  0  0  0  0  0999 V2000
   37.0310   25.9400   40.8720 C   0  0  0  0  0  0  0  0  0  0  0  0
   37.0630   24.6990   41.4850 C   0  0  0  0  0  0  0  0  0  0  0  0
   36.6300   23.6060   40.7610 C   0  0  0  0  0  0  0  0  0  0  0  0
   36.1870   23.7490   39.4870 C   0  0  0  0  0  0  0  0  0  0  0  0
   36.1430   24.9680   38.8480 C   0  0  0  0  0  0  0  0  0  0  0  0
   36.5850   26.0760   39.5900 C   0  0  0  0  0  0  0  0  0  0  0  0
   37.4210   24.5870   42.5150 H   0  0  0  0  0  0  0  0  0  0  0  0
   36.6450   22.6260   41.2180 H   0  0  0  0  0  0  0  0  0  0  0  0
   35.8430   22.9080   38.9000 H   0  0  0  0  0  0  0  0  0  0  0  0
   35.8010   25.1650   37.8280 H   0  0  0  0  0  0  0  0  0  0  0  0
   37.4310   28.5970   43.5160 C   0  0  0  0  0  0  0  0  0  0  0  0
   36.8800   27.4950   42.8260 C   0  0  0  0  0  0  0  0  0  0  0  0
   37.4990   27.0710   41.6820 C   0  0  0  0  0  0  0  0  0  0  0  0
   38.6170   27.7370   41.2630 N   0  0  0  0  0  0  0  0  0  0  0  0
   39.1390   28.7890   41.9260 C   0  0  0  0  0  0  0  0  0  0  0  0
   38.5390   29.2270   43.0680 N   0  0  0  0  0  0  0  0  0  0  0  0
   36.8570   28.8400   44.4060 H   0  0  0  0  0  0  0  0  0  0  0  0
   36.0130   26.9580   43.1280 H   0  0  0  0  0  0  0  0  0  0  0  0
   40.0240   29.3010   41.5780 H   0  0  0  0  0  0  0  0  0  0  0  0
   37.3030   28.0800   38.0790 C   0  0  0  0  0  0  0  0  0  0  0  0
   38.2070   27.6130   37.4030 O   0  0  0  0  0  0  0  0  0  0  0  0
   36.5920   27.3890   39.0770 N   0  0  0  0  0  0  0  0  0  0  0  0
   35.8520   27.8820   39.6440 H   0  0  0  0  0  0  0  0  0  0  0  0
   36.9430   29.4120   37.8500 O   0  0  0  0  0  0  0  0  0  0  0  0
   38.3590   31.7620   40.8930 H   0  0  0  0  0  0  0  0  0  0  0  0
   37.4120   32.1360   40.7260 N   0  0  0  0  0  0  0  0  0  0  0  0
   37.2700   32.7430   39.4370 C   0  0  0  0  0  2  0  0  0  0  0  0
   37.3320   31.7620   38.3010 C   0  0  0  0  0  2  0  0  0  0  0  0
   37.1230   30.3570   38.8580 C   0  0  0  0  0  3  0  0  0  0  0  0
   35.9570   30.3610   39.8400 C   0  0  0  0  0  2  0  0  0  0  0  0
   36.3760   31.1920   41.0300 C   0  0  0  0  0  2  0  0  0  0  0  0
  1  2  1  0  0  0  0
  1 13  1  0  0  0  0
  2  7  1  0  0  0  0
  3  8  1  0  0  0  0
  3  2  2  0  0  0  0
  4  3  1  0  0  0  0
  5  4  2  0  0  0  0
  5  6  1  0  0  0  0
  6  1  2  0  0  0  0
  9  4  1  0  0  0  0
 10  5  1  0  0  0  0
 11 17  1  0  0  0  0
 12 18  1  0  0  0  0
 12 11  2  0  0  0  0
 13 12  1  0  0  0  0
 14 13  2  0  0  0  0
 14 15  1  0  0  0  0
 15 16  2  0  0  0  0
 16 11  1  0  0  0  0
 19 15  1  0  0  0  0
 20 22  1  0  0  0  0
 21 20  2  0  0  0  0
 22  6  1  0  0  0  0
 22 23  1  0  0  0  0
 24 20  1  0  0  0  0
 24 29  1  0  0  0  0
 26 25  1  0  0  0  0
 26 31  1  0  0  0  0
 27 26  1  0  0  0  0
 28 29  1  0  0  0  0
 28 27  1  0  0  0  0
 29 30  1  0  0  0  0
 30 31  1  0  0  0  0
M  END
>  <minimizedAffinity>
-5.36054707

$$$$

 OpenBabel03242517053D

 31 33  0  0  0  0  0  0  0  0999 V2000
   36.8250   26.7210   40.1550 C   0  0  0  0  0  0  0  0  0  0  0  0
   36.5250   25.4120   39.8160 C   0  0  0  0  0  0  0  0  0  0  0  0
   36.6460   24.4440   40.7920 C   0  0  0  0  0  0  0  0  0  0  0  0
   37.0470   24.7700   42.0460 C   0  0  0  0  0  0  0  0  0  0  0  0
   37.3520   26.0600   42.4170 C   0  0  0  0  0  0  0  0  0  0  0  0
   37.2280   27.0400   41.4190 C   0  0  0  0  0  0  0  0  0  0  0  0
   36.2020   25.1520   38.8000 H   0  0  0  0  0  0  0  0  0  0  0  0
   36.4170   23.4140   40.5510 H   0  0  0  0  0  0  0  0  0  0  0  0
   37.1490   24.0290   42.8280 H   0  0  0  0  0  0  0  0  0  0  0  0
   37.6810   26.4020   43.4030 H   0  0  0  0  0  0  0  0  0  0  0  0
   35.4810   29.0810   37.5410 C   0  0  0  0  0  0  0  0  0  0  0  0
   35.4810   28.1170   38.5730 C   0  0  0  0  0  0  0  0  0  0  0  0
   36.6850   27.7130   39.0830 C   0  0  0  0  0  0  0  0  0  0  0  0
   37.8260   28.2620   38.5670 N   0  0  0  0  0  0  0  0  0  0  0  0
   37.8210   29.1820   37.5820 C   0  0  0  0  0  0  0  0  0  0  0  0
   36.6330   29.5980   37.0600 N   0  0  0  0  0  0  0  0  0  0  0  0
   34.4720   29.3220   37.2190 H   0  0  0  0  0  0  0  0  0  0  0  0
   34.6100   27.6730   38.9930 H   0  0  0  0  0  0  0  0  0  0  0  0
   38.7340   29.6030   37.1890 H   0  0  0  0  0  0  0  0  0  0  0  0
   38.6460   29.1520   42.0060 C   0  0  0  0  0  0  0  0  0  0  0  0
   39.7430   28.6880   42.2740 O   0  0  0  0  0  0  0  0  0  0  0  0
   37.5120   28.4030   41.6430 N   0  0  0  0  0  0  0  0  0  0  0  0
   36.5890   28.8820   41.4670 H   0  0  0  0  0  0  0  0  0  0  0  0
   38.4960   30.5410   42.0660 O   0  0  0  0  0  0  0  0  0  0  0  0
   38.7430   31.8620   38.1960 H   0  0  0  0  0  0  0  0  0  0  0  0
   38.4700   32.7090   38.7180 N   0  0  0  0  0  0  0  0  0  0  0  0
   37.1640   32.6110   39.2980 C   0  0  0  0  0  2  0  0  0  0  0  0
   37.0780   31.6140   40.4180 C   0  0  0  0  0  2  0  0  0  0  0  0
   38.4920   31.2840   40.8870 C   0  0  0  0  0  3  0  0  0  0  0  0
   39.2990   32.5690   41.0290 C   0  0  0  0  0  2  0  0  0  0  0  0
   39.4740   33.1450   39.6440 C   0  0  0  0  0  2  0  0  0  0  0  0
  1  6  1  0  0  0  0
  2  1  2  0  0  0  0
  2  3  1  0  0  0  0
  3  4  2  0  0  0  0
  4  5  1  0  0  0  0
  4  9  1  0  0  0  0
  5 10  1  0  0  0  0
  6 22  1  0  0  0  0
  6  5  2  0  0  0  0
  7  2  1  0  0  0  0
  8  3  1  0  0  0  0
 11 12  1  0  0  0  0
 12 18  1  0  0  0  0
 12 13  2  0  0  0  0
 13  1  1  0  0  0  0
 14 13  1  0  0  0  0
 15 14  2  0  0  0  0
 16 11  2  0  0  0  0
 16 15  1  0  0  0  0
 17 11  1  0  0  0  0
 19 15  1  0  0  0  0
 20 24  1  0  0  0  0
 20 21  2  0  0  0  0
 22 20  1  0  0  0  0
 23 22  1  0  0  0  0
 25 26  1  0  0  0  0
 26 27  1  0  0  0  0
 26 31  1  0  0  0  0
 27 28  1  0  0  0  0
 28 29  1  0  0  0  0
 29 30  1  0  0  0  0
 29 24  1  0  0  0  0
 31 30  1  0  0  0  0
M  END
>  <minimizedAffinity>
-5.29896545

$$$$

 OpenBabel03242517053D

 31 33  0  0  0  0  0  0  0  0999 V2000
   37.5450   31.7390   40.0970 C   0  0  0  0  0  0  0  0  0  0  0  0
   37.0860   32.8280   39.3760 C   0  0  0  0  0  0  0  0  0  0  0  0
   37.7150   34.0430   39.5630 C   0  0  0  0  0  0  0  0  0  0  0  0
   38.7510   34.1610   40.4300 C   0  0  0  0  0  0  0  0  0  0  0  0
   39.2330   33.0990   41.1620 C   0  0  0  0  0  0  0  0  0  0  0  0
   38.5890   31.8660   40.9670 C   0  0  0  0  0  0  0  0  0  0  0  0
   36.2470   32.7280   38.6760 H   0  0  0  0  0  0  0  0  0  0  0  0
   37.3740   34.9090   39.0110 H   0  0  0  0  0  0  0  0  0  0  0  0
   39.2590   35.1020   40.5930 H   0  0  0  0  0  0  0  0  0  0  0  0
   40.0600   33.1140   41.8770 H   0  0  0  0  0  0  0  0  0  0  0  0
   35.0350   28.9270   40.0680 C   0  0  0  0  0  0  0  0  0  0  0  0
   35.6020   30.1860   40.3630 C   0  0  0  0  0  0  0  0  0  0  0  0
   36.8440   30.4700   39.8660 C   0  0  0  0  0  0  0  0  0  0  0  0
   37.4750   29.5210   39.1100 N   0  0  0  0  0  0  0  0  0  0  0  0
   36.9290   28.3200   38.8310 C   0  0  0  0  0  0  0  0  0  0  0  0
   35.6920   28.0170   39.3160 N   0  0  0  0  0  0  0  0  0  0  0  0
   34.0510   28.8170   40.5140 H   0  0  0  0  0  0  0  0  0  0  0  0
   35.1360   30.9430   40.9470 H   0  0  0  0  0  0  0  0  0  0  0  0
   37.4440   27.5840   38.2320 H   0  0  0  0  0  0  0  0  0  0  0  0
   40.0450   30.2870   42.4500 C   0  0  0  0  0  0  0  0  0  0  0  0
   41.0270   30.9670   42.7050 O   0  0  0  0  0  0  0  0  0  0  0  0
   38.9610   30.6900   41.6500 N   0  0  0  0  0  0  0  0  0  0  0  0
   38.1700   30.0230   41.4460 H   0  0  0  0  0  0  0  0  0  0  0  0
   39.9890   29.0000   42.9940 O   0  0  0  0  0  0  0  0  0  0  0  0
   37.0050   26.9770   41.0470 H   0  0  0  0  0  0  0  0  0  0  0  0
   37.0420   26.5150   41.9690 N   0  0  0  0  0  0  0  0  0  0  0  0
   38.2720   25.8170   42.1940 C   0  0  0  0  0  2  0  0  0  0  0  0
   39.4580   26.7250   42.3450 C   0  0  0  0  0  2  0  0  0  0  0  0
   38.9580   28.1390   42.6190 C   0  0  0  0  0  3  0  0  0  0  0  0
   37.8510   28.0990   43.6660 C   0  0  0  0  0  2  0  0  0  0  0  0
   36.6730   27.3850   43.0470 C   0  0  0  0  0  2  0  0  0  0  0  0
  1  6  1  0  0  0  0
  2  3  1  0  0  0  0
  2  1  2  0  0  0  0
  3  4  2  0  0  0  0
  4  9  1  0  0  0  0
  4  5  1  0  0  0  0
  5 10  1  0  0  0  0
  6  5  2  0  0  0  0
  6 22  1  0  0  0  0
  7  2  1  0  0  0  0
  8  3  1  0  0  0  0
 11 12  1  0  0  0  0
 11 17  1  0  0  0  0
 12 18  1  0  0  0  0
 13  1  1  0  0  0  0
 13 12  2  0  0  0  0
 14 13  1  0  0  0  0
 15 14  2  0  0  0  0
 15 16  1  0  0  0  0
 16 11  2  0  0  0  0
 19 15  1  0  0  0  0
 20 21  2  0  0  0  0
 20 24  1  0  0  0  0
 22 20  1  0  0  0  0
 23 22  1  0  0  0  0
 25 26  1  0  0  0  0
 26 27  1  0  0  0  0
 26 31  1  0  0  0  0
 27 28  1  0  0  0  0
 28 29  1  0  0  0  0
 29 24  1  0  0  0  0
 29 30  1  0  0  0  0
 31 30  1  0  0  0  0
M  END
>  <minimizedAffinity>
-5.27828264

$$$$

 OpenBabel03242517053D

 31 33  0  0  0  0  0  0  0  0999 V2000
   36.6990   29.6470   37.5760 C   0  0  0  0  0  0  0  0  0  0  0  0
   36.1560   29.6240   36.3020 C   0  0  0  0  0  0  0  0  0  0  0  0
   34.8750   29.1320   36.1510 C   0  0  0  0  0  0  0  0  0  0  0  0
   34.1730   28.6840   37.2220 C   0  0  0  0  0  0  0  0  0  0  0  0
   34.6830   28.6940   38.5010 C   0  0  0  0  0  0  0  0  0  0  0  0
   35.9860   29.1960   38.6480 C   0  0  0  0  0  0  0  0  0  0  0  0
   36.7280   29.9860   35.4390 H   0  0  0  0  0  0  0  0  0  0  0  0
   34.4300   29.1030   35.1650 H   0  0  0  0  0  0  0  0  0  0  0  0
   33.1690   28.2950   37.1280 H   0  0  0  0  0  0  0  0  0  0  0  0
   34.1820   28.3530   39.4110 H   0  0  0  0  0  0  0  0  0  0  0  0
   39.7230   31.8910   37.7590 C   0  0  0  0  0  0  0  0  0  0  0  0
   38.3680   31.5100   37.6410 C   0  0  0  0  0  0  0  0  0  0  0  0
   38.0630   30.1770   37.6860 C   0  0  0  0  0  0  0  0  0  0  0  0
   39.0850   29.2820   37.8400 N   0  0  0  0  0  0  0  0  0  0  0  0
   40.3770   29.6510   37.9530 C   0  0  0  0  0  0  0  0  0  0  0  0
   40.7020   30.9740   37.9110 N   0  0  0  0  0  0  0  0  0  0  0  0
   39.8400   32.9700   37.7100 H   0  0  0  0  0  0  0  0  0  0  0  0
   37.5530   32.1830   37.5190 H   0  0  0  0  0  0  0  0  0  0  0  0
   41.1690   28.9270   38.0750 H   0  0  0  0  0  0  0  0  0  0  0  0
   36.6860   30.1670   40.9680 C   0  0  0  0  0  0  0  0  0  0  0  0
   36.1020   31.2390   41.0120 O   0  0  0  0  0  0  0  0  0  0  0  0
   36.6460   29.2620   39.8920 N   0  0  0  0  0  0  0  0  0  0  0  0
   37.2150   28.3740   39.9190 H   0  0  0  0  0  0  0  0  0  0  0  0
   37.4600   29.8050   42.0740 O   0  0  0  0  0  0  0  0  0  0  0  0
   38.8760   25.9840   41.6420 H   0  0  0  0  0  0  0  0  0  0  0  0
   38.5180   25.9960   42.6100 N   0  0  0  0  0  0  0  0  0  0  0  0
   39.2540   26.8770   43.4660 C   0  0  0  0  0  2  0  0  0  0  0  0
   39.0670   28.3300   43.1340 C   0  0  0  0  0  2  0  0  0  0  0  0
   37.8360   28.4730   42.2440 C   0  0  0  0  0  3  0  0  0  0  0  0
   36.6940   27.6340   42.8070 C   0  0  0  0  0  2  0  0  0  0  0  0
   37.0990   26.1840   42.6800 C   0  0  0  0  0  2  0  0  0  0  0  0
  1 13  1  0  0  0  0
  1  6  1  0  0  0  0
  2  1  2  0  0  0  0
  3  2  1  0  0  0  0
  3  4  2  0  0  0  0
  4  5  1  0  0  0  0
  5  6  2  0  0  0  0
  5 10  1  0  0  0  0
  6 22  1  0  0  0  0
  7  2  1  0  0  0  0
  8  3  1  0  0  0  0
  9  4  1  0  0  0  0
 11 16  1  0  0  0  0
 12 13  1  0  0  0  0
 12 11  2  0  0  0  0
 13 14  2  0  0  0  0
 14 15  1  0  0  0  0
 15 19  1  0  0  0  0
 16 15  2  0  0  0  0
 17 11  1  0  0  0  0
 18 12  1  0  0  0  0
 20 21  2  0  0  0  0
 20 24  1  0  0  0  0
 22 23  1  0  0  0  0
 22 20  1  0  0  0  0
 24 29  1  0  0  0  0
 25 26  1  0  0  0  0
 26 31  1  0  0  0  0
 26 27  1  0  0  0  0
 28 27  1  0  0  0  0
 29 30  1  0  0  0  0
 29 28  1  0  0  0  0
 31 30  1  0  0  0  0
M  END
>  <minimizedAffinity>
-5.15756273

$$$$

 OpenBabel03242517053D

 31 33  0  0  0  0  0  0  0  0999 V2000
   36.6600   28.1620   39.8940 C   0  0  0  0  0  0  0  0  0  0  0  0
   36.2080   26.9900   39.3110 C   0  0  0  0  0  0  0  0  0  0  0  0
   35.6140   27.0690   38.0670 C   0  0  0  0  0  0  0  0  0  0  0  0
   35.4780   28.2640   37.4390 C   0  0  0  0  0  0  0  0  0  0  0  0
   35.9160   29.4470   37.9890 C   0  0  0  0  0  0  0  0  0  0  0  0
   36.5200   29.3590   39.2540 C   0  0  0  0  0  0  0  0  0  0  0  0
   36.3190   26.0260   39.8230 H   0  0  0  0  0  0  0  0  0  0  0  0
   35.2530   26.1670   37.5920 H   0  0  0  0  0  0  0  0  0  0  0  0
   35.0160   28.3500   36.4640 H   0  0  0  0  0  0  0  0  0  0  0  0
   35.8440   30.4450   37.5470 H   0  0  0  0  0  0  0  0  0  0  0  0
   37.2920   27.8010   43.5920 C   0  0  0  0  0  0  0  0  0  0  0  0
   36.5740   27.9270   42.3830 C   0  0  0  0  0  0  0  0  0  0  0  0
   37.2810   28.0270   41.2160 C   0  0  0  0  0  0  0  0  0  0  0  0
   38.6470   28.0030   41.2800 N   0  0  0  0  0  0  0  0  0  0  0  0
   39.3280   27.8820   42.4370 C   0  0  0  0  0  0  0  0  0  0  0  0
   38.6430   27.7800   43.6110 N   0  0  0  0  0  0  0  0  0  0  0  0
   36.6260   27.7290   44.4470 H   0  0  0  0  0  0  0  0  0  0  0  0
   35.5140   27.9490   42.3030 H   0  0  0  0  0  0  0  0  0  0  0  0
   40.4080   27.8640   42.4650 H   0  0  0  0  0  0  0  0  0  0  0  0
   37.2660   31.8310   39.6390 C   0  0  0  0  0  0  0  0  0  0  0  0
   37.1280   32.3410   38.5370 O   0  0  0  0  0  0  0  0  0  0  0  0
   37.0100   30.4840   39.9490 N   0  0  0  0  0  0  0  0  0  0  0  0
   37.1950   30.1150   40.9200 H   0  0  0  0  0  0  0  0  0  0  0  0
   37.7150   32.6490   40.6800 O   0  0  0  0  0  0  0  0  0  0  0  0
   41.4330   33.5370   42.1560 H   0  0  0  0  0  0  0  0  0  0  0  0
   41.6260   32.8090   41.4490 N   0  0  0  0  0  0  0  0  0  0  0  0
   41.0680   31.5360   41.7930 C   0  0  0  0  0  2  0  0  0  0  0  0
   39.5680   31.5060   41.7480 C   0  0  0  0  0  2  0  0  0  0  0  0
   39.0790   32.7180   40.9610 C   0  0  0  0  0  3  0  0  0  0  0  0
   39.9070   32.8750   39.6920 C   0  0  0  0  0  2  0  0  0  0  0  0
   41.3130   33.2280   40.1140 C   0  0  0  0  0  2  0  0  0  0  0  0
  1 13  1  0  0  0  0
  2  7  1  0  0  0  0
  2  1  1  0  0  0  0
  3  2  2  0  0  0  0
  4  5  2  0  0  0  0
  4  3  1  0  0  0  0
  5  6  1  0  0  0  0
  6  1  2  0  0  0  0
  6 22  1  0  0  0  0
  8  3  1  0  0  0  0
  9  4  1  0  0  0  0
 10  5  1  0  0  0  0
 11 16  1  0  0  0  0
 11 17  1  0  0  0  0
 12 11  2  0  0  0  0
 13 14  2  0  0  0  0
 13 12  1  0  0  0  0
 14 15  1  0  0  0  0
 15 19  1  0  0  0  0
 15 16  2  0  0  0  0
 18 12  1  0  0  0  0
 20 22  1  0  0  0  0
 20 24  1  0  0  0  0
 21 20  2  0  0  0  0
 22 23  1  0  0  0  0
 24 29  1  0  0  0  0
 26 27  1  0  0  0  0
 26 25  1  0  0  0  0
 28 27  1  0  0  0  0
 29 28  1  0  0  0  0
 30 31  1  0  0  0  0
 30 29  1  0  0  0  0
 31 26  1  0  0  0  0
M  END
>  <minimizedAffinity>
-5.12800741

$$$$

 OpenBabel03242517053D

 31 33  0  0  0  0  0  0  0  0999 V2000
   37.4230   30.0260   39.3720 C   0  0  0  0  0  0  0  0  0  0  0  0
   36.4990   30.2440   38.3640 C   0  0  0  0  0  0  0  0  0  0  0  0
   35.5740   29.2530   38.1040 C   0  0  0  0  0  0  0  0  0  0  0  0
   35.5750   28.0990   38.8180 C   0  0  0  0  0  0  0  0  0  0  0  0
   36.4780   27.8500   39.8270 C   0  0  0  0  0  0  0  0  0  0  0  0
   37.4160   28.8630   40.0860 C   0  0  0  0  0  0  0  0  0  0  0  0
   36.5030   31.1780   37.7880 H   0  0  0  0  0  0  0  0  0  0  0  0
   34.8430   29.4000   37.3210 H   0  0  0  0  0  0  0  0  0  0  0  0
   34.8610   27.3090   38.6330 H   0  0  0  0  0  0  0  0  0  0  0  0
   36.5430   26.9510   40.4450 H   0  0  0  0  0  0  0  0  0  0  0  0
   40.3440   32.4000   39.1690 C   0  0  0  0  0  0  0  0  0  0  0  0
   39.4940   31.3230   38.8350 C   0  0  0  0  0  0  0  0  0  0  0  0
   38.3870   31.1070   39.6100 C   0  0  0  0  0  0  0  0  0  0  0  0
   38.1600   31.9430   40.6680 N   0  0  0  0  0  0  0  0  0  0  0  0
   38.9760   32.9700   40.9820 C   0  0  0  0  0  0  0  0  0  0  0  0
   40.0830   33.2020   40.2240 N   0  0  0  0  0  0  0  0  0  0  0  0
   41.1860   32.4720   38.4860 H   0  0  0  0  0  0  0  0  0  0  0  0
   39.6440   30.6570   38.0200 H   0  0  0  0  0  0  0  0  0  0  0  0
   38.7780   33.6180   41.8230 H   0  0  0  0  0  0  0  0  0  0  0  0
   38.4470   28.8380   42.4850 C   0  0  0  0  0  0  0  0  0  0  0  0
   37.4960   29.1060   43.2020 O   0  0  0  0  0  0  0  0  0  0  0  0
   38.4090   28.7520   41.0810 N   0  0  0  0  0  0  0  0  0  0  0  0
   39.2890   28.5560   40.5340 H   0  0  0  0  0  0  0  0  0  0  0  0
   39.6790   28.6000   43.1020 O   0  0  0  0  0  0  0  0  0  0  0  0
   41.4690   25.1260   41.8720 H   0  0  0  0  0  0  0  0  0  0  0  0
   41.3430   24.9810   42.8860 N   0  0  0  0  0  0  0  0  0  0  0  0
   42.1260   25.8790   43.6800 C   0  0  0  0  0  2  0  0  0  0  0  0
   41.6710   27.3080   43.5940 C   0  0  0  0  0  2  0  0  0  0  0  0
   40.2620   27.3370   43.0090 C   0  0  0  0  0  3  0  0  0  0  0  0
   39.4040   26.2700   43.6790 C   0  0  0  0  0  2  0  0  0  0  0  0
   39.9640   24.9270   43.2760 C   0  0  0  0  0  2  0  0  0  0  0  0
  1 13  1  0  0  0  0
  1  6  1  0  0  0  0
  2  1  2  0  0  0  0
  3  2  1  0  0  0  0
  3  4  2  0  0  0  0
  4  5  1  0  0  0  0
  5  6  2  0  0  0  0
  5 10  1  0  0  0  0
  6 22  1  0  0  0  0
  7  2  1  0  0  0  0
  8  3  1  0  0  0  0
  9  4  1  0  0  0  0
 11 16  1  0  0  0  0
 12 11  2  0  0  0  0
 12 13  1  0  0  0  0
 13 14  2  0  0  0  0
 14 15  1  0  0  0  0
 15 19  1  0  0  0  0
 16 15  2  0  0  0  0
 17 11  1  0  0  0  0
 18 12  1  0  0  0  0
 20 24  1  0  0  0  0
 20 21  2  0  0  0  0
 22 20  1  0  0  0  0
 23 22  1  0  0  0  0
 25 26  1  0  0  0  0
 26 31  1  0  0  0  0
 26 27  1  0  0  0  0
 28 27  1  0  0  0  0
 29 24  1  0  0  0  0
 29 28  1  0  0  0  0
 29 30  1  0  0  0  0
 31 30  1  0  0  0  0
M  END
>  <minimizedAffinity>
-5.12454605

$$$$

 OpenBabel03242517053D

 31 33  0  0  0  0  0  0  0  0999 V2000
   37.2970   30.0200   39.2140 C   0  0  0  0  0  0  0  0  0  0  0  0
   37.2510   30.7830   38.0590 C   0  0  0  0  0  0  0  0  0  0  0  0
   37.2620   32.1570   38.1870 C   0  0  0  0  0  0  0  0  0  0  0  0
   37.3170   32.7400   39.4110 C   0  0  0  0  0  0  0  0  0  0  0  0
   37.3650   32.0120   40.5790 C   0  0  0  0  0  0  0  0  0  0  0  0
   37.3530   30.6140   40.4420 C   0  0  0  0  0  0  0  0  0  0  0  0
   37.2050   30.3080   37.0720 H   0  0  0  0  0  0  0  0  0  0  0  0
   37.2260   32.7740   37.2990 H   0  0  0  0  0  0  0  0  0  0  0  0
   37.3270   33.8140   39.5360 H   0  0  0  0  0  0  0  0  0  0  0  0
   37.4110   32.4050   41.5980 H   0  0  0  0  0  0  0  0  0  0  0  0
   36.2590   26.4390   38.6620 C   0  0  0  0  0  0  0  0  0  0  0  0
   36.1400   27.8360   38.8290 C   0  0  0  0  0  0  0  0  0  0  0  0
   37.2810   28.5650   39.0280 C   0  0  0  0  0  0  0  0  0  0  0  0
   38.4770   27.9040   39.0570 N   0  0  0  0  0  0  0  0  0  0  0  0
   38.5850   26.5690   38.8960 C   0  0  0  0  0  0  0  0  0  0  0  0
   37.4620   25.8250   38.6970 N   0  0  0  0  0  0  0  0  0  0  0  0
   35.2900   25.9700   38.5120 H   0  0  0  0  0  0  0  0  0  0  0  0
   35.2240   28.3770   38.8120 H   0  0  0  0  0  0  0  0  0  0  0  0
   39.5410   26.0670   38.9220 H   0  0  0  0  0  0  0  0  0  0  0  0
   38.2120   29.5620   42.6720 C   0  0  0  0  0  0  0  0  0  0  0  0
   39.2170   30.2110   42.9200 O   0  0  0  0  0  0  0  0  0  0  0  0
   37.3900   29.7350   41.5440 N   0  0  0  0  0  0  0  0  0  0  0  0
   36.5600   29.1030   41.3850 H   0  0  0  0  0  0  0  0  0  0  0  0
   37.8430   28.5640   43.5790 O   0  0  0  0  0  0  0  0  0  0  0  0
   38.6450   24.5500   43.7490 H   0  0  0  0  0  0  0  0  0  0  0  0
   38.7610   24.7720   42.7480 N   0  0  0  0  0  0  0  0  0  0  0  0
   37.5380   25.1730   42.1210 C   0  0  0  0  0  2  0  0  0  0  0  0
   37.0290   26.5040   42.5940 C   0  0  0  0  0  2  0  0  0  0  0  0
   38.1620   27.2350   43.3060 C   0  0  0  0  0  3  0  0  0  0  0  0
   39.4430   27.1210   42.4870 C   0  0  0  0  0  2  0  0  0  0  0  0
   39.8530   25.6670   42.4960 C   0  0  0  0  0  2  0  0  0  0  0  0
  1  6  1  0  0  0  0
  2  3  1  0  0  0  0
  2  1  2  0  0  0  0
  3  4  2  0  0  0  0
  4  9  1  0  0  0  0
  4  5  1  0  0  0  0
  5 10  1  0  0  0  0
  6  5  2  0  0  0  0
  6 22  1  0  0  0  0
  7  2  1  0  0  0  0
  8  3  1  0  0  0  0
 11 16  2  0  0  0  0
 11 12  1  0  0  0  0
 12 13  2  0  0  0  0
 13 14  1  0  0  0  0
 13  1  1  0  0  0  0
 15 19  1  0  0  0  0
 15 14  2  0  0  0  0
 16 15  1  0  0  0  0
 17 11  1  0  0  0  0
 18 12  1  0  0  0  0
 20 21  2  0  0  0  0
 20 24  1  0  0  0  0
 22 20  1  0  0  0  0
 23 22  1  0  0  0  0
 26 25  1  0  0  0  0
 27 28  1  0  0  0  0
 27 26  1  0  0  0  0
 28 29  1  0  0  0  0
 29 24  1  0  0  0  0
 30 31  1  0  0  0  0
 30 29  1  0  0  0  0
 31 26  1  0  0  0  0
M  END
>  <minimizedAffinity>
-5.11838675

$$$$

 OpenBabel03242517053D

 31 33  0  0  0  0  0  0  0  0999 V2000
   37.1040   30.0600   39.4790 C   0  0  0  0  0  0  0  0  0  0  0  0
   36.4480   30.3050   38.2850 C   0  0  0  0  0  0  0  0  0  0  0  0
   35.5650   29.3500   37.8210 C   0  0  0  0  0  0  0  0  0  0  0  0
   35.3520   28.2050   38.5180 C   0  0  0  0  0  0  0  0  0  0  0  0
   35.9870   27.9310   39.7080 C   0  0  0  0  0  0  0  0  0  0  0  0
   36.8830   28.9070   40.1750 C   0  0  0  0  0  0  0  0  0  0  0  0
   36.6240   31.2310   37.7240 H   0  0  0  0  0  0  0  0  0  0  0  0
   35.0410   29.5180   36.8900 H   0  0  0  0  0  0  0  0  0  0  0  0
   34.6660   27.4430   38.1740 H   0  0  0  0  0  0  0  0  0  0  0  0
   35.8690   27.0370   40.3260 H   0  0  0  0  0  0  0  0  0  0  0  0
   38.6340   33.2680   40.7360 C   0  0  0  0  0  0  0  0  0  0  0  0
   37.6400   32.3530   40.3220 C   0  0  0  0  0  0  0  0  0  0  0  0
   38.0330   31.1030   39.9300 C   0  0  0  0  0  0  0  0  0  0  0  0
   39.3660   30.8020   39.9570 N   0  0  0  0  0  0  0  0  0  0  0  0
   40.3110   31.6780   40.3530 C   0  0  0  0  0  0  0  0  0  0  0  0
   39.9420   32.9290   40.7480 N   0  0  0  0  0  0  0  0  0  0  0  0
   38.2040   34.2230   41.0220 H   0  0  0  0  0  0  0  0  0  0  0  0
   36.5970   32.5590   40.2900 H   0  0  0  0  0  0  0  0  0  0  0  0
   41.3600   31.4200   40.3670 H   0  0  0  0  0  0  0  0  0  0  0  0
   37.3900   28.1800   42.6310 C   0  0  0  0  0  0  0  0  0  0  0  0
   36.3520   27.6420   42.9840 O   0  0  0  0  0  0  0  0  0  0  0  0
   37.6150   28.7660   41.3720 N   0  0  0  0  0  0  0  0  0  0  0  0
   38.5290   29.2480   41.1620 H   0  0  0  0  0  0  0  0  0  0  0  0
   38.4440   28.2220   43.5480 O   0  0  0  0  0  0  0  0  0  0  0  0
   41.1360   25.2500   44.3890 H   0  0  0  0  0  0  0  0  0  0  0  0
   41.2760   25.4190   43.3800 N   0  0  0  0  0  0  0  0  0  0  0  0
   40.1330   25.0670   42.5920 C   0  0  0  0  0  2  0  0  0  0  0  0
   38.9530   25.9690   42.8120 C   0  0  0  0  0  2  0  0  0  0  0  0
   39.4320   27.2390   43.5070 C   0  0  0  0  0  3  0  0  0  0  0  0
   40.7020   27.7460   42.8340 C   0  0  0  0  0  2  0  0  0  0  0  0
   41.7860   26.7280   43.0960 C   0  0  0  0  0  2  0  0  0  0  0  0
  1 13  1  0  0  0  0
  1  6  1  0  0  0  0
  2  1  2  0  0  0  0
  3  2  1  0  0  0  0
  3  4  2  0  0  0  0
  4  5  1  0  0  0  0
  5  6  2  0  0  0  0
  5 10  1  0  0  0  0
  6 22  1  0  0  0  0
  7  2  1  0  0  0  0
  8  3  1  0  0  0  0
  9  4  1  0  0  0  0
 11 16  1  0  0  0  0
 11 17  1  0  0  0  0
 12 11  2  0  0  0  0
 13 14  2  0  0  0  0
 13 12  1  0  0  0  0
 14 15  1  0  0  0  0
 15 19  1  0  0  0  0
 15 16  2  0  0  0  0
 18 12  1  0  0  0  0
 20 21  2  0  0  0  0
 20 24  1  0  0  0  0
 22 20  1  0  0  0  0
 23 22  1  0  0  0  0
 26 25  1  0  0  0  0
 27 28  1  0  0  0  0
 27 26  1  0  0  0  0
 28 29  1  0  0  0  0
 29 24  1  0  0  0  0
 30 31  1  0  0  0  0
 30 29  1  0  0  0  0
 31 26  1  0  0  0  0
M  END
>  <minimizedAffinity>
-5.08621168

$$$$
