REMARK  Name = 
REMARK  7 active torsions:
REMARK  status: ('A' for Active; 'I' for Inactive)
REMARK    1  A    between atoms: C_2  and  O_17
REMARK    2  A    between atoms: C_3  and  C_7
REMARK    3  A    between atoms: O_17  and  P_19
REMARK    4  A    between atoms: P_19  and  O_20
REMARK    5  A    between atoms: P_19  and  O_21
REMARK    6  A    between atoms: O_20  and  C_40
REMARK    7  A    between atoms: O_21  and  C_22
REMARK                            x       y       z     vdW  Elec       q    Type
REMARK                         _______ _______ _______ _____ _____    ______ ____
ROOT
ATOM      1  C   UNL     1      45.130  36.014  42.915  0.00  0.00    +0.000 A 
ATOM      2  C   UNL     1      45.373  34.645  42.905  0.00  0.00    +0.000 A 
ATOM      3  C   UNL     1      45.215  33.919  44.061  0.00  0.00    +0.000 A 
ATOM      4  N   UNL     1      44.814  34.609  45.188  0.00  0.00    +0.000 NA
ATOM      5  C   UNL     1      44.583  35.920  45.188  0.00  0.00    +0.000 A 
ATOM      6  N   UNL     1      44.746  36.612  44.040  0.00  0.00    +0.000 NA
ATOM      7  H   UNL     1      45.239  36.635  42.035  0.00  0.00    +0.000 HD
ATOM      8  H   UNL     1      44.272  36.466  46.053  0.00  0.00    +0.000 HD
ENDROOT
BRANCH   3   9
ATOM      9  C   UNL     1      45.420  32.530  44.219  0.00  0.00    +0.000 A 
ATOM     10  C   UNL     1      44.941  31.561  43.332  0.00  0.00    +0.000 A 
ATOM     11  C   UNL     1      45.078  30.211  43.519  0.00  0.00    +0.000 A 
ATOM     12  C   UNL     1      45.723  29.741  44.638  0.00  0.00    +0.000 A 
ATOM     13  C   UNL     1      46.220  30.709  45.553  0.00  0.00    +0.000 A 
ATOM     14  C   UNL     1      46.862  30.250  46.675  0.00  0.00    +0.000 A 
ATOM     15  C   UNL     1      47.370  31.134  47.603  0.00  0.00    +0.000 A 
ATOM     16  C   UNL     1      47.226  32.519  47.391  0.00  0.00    +0.000 A 
ATOM     17  C   UNL     1      46.559  32.938  46.226  0.00  0.00    +0.000 A 
ATOM     18  C   UNL     1      46.062  32.036  45.325  0.00  0.00    +0.000 A 
ATOM     19  H   UNL     1      44.430  31.940  42.447  0.00  0.00    +0.000 HD
ATOM     20  H   UNL     1      44.708  29.473  42.833  0.00  0.00    +0.000 HD
ATOM     21  H   UNL     1      45.872  28.693  44.860  0.00  0.00    +0.000 HD
ATOM     22  H   UNL     1      46.982  29.191  46.851  0.00  0.00    +0.000 HD
ATOM     23  H   UNL     1      47.869  30.721  48.476  0.00  0.00    +0.000 HD
ATOM     24  H   UNL     1      47.654  33.117  48.164  0.00  0.00    +0.000 HD
ATOM     25  H   UNL     1      46.571  34.006  46.233  0.00  0.00    +0.000 HD
ENDBRANCH   3   9
BRANCH   2  26
ATOM     26  O   UNL     1      45.760  34.088  41.723  0.00  0.00    +0.000 OA
BRANCH  26  28
ATOM     27  O   UNL     1      47.681  32.430  41.092  0.00  0.00    +0.000 OA
ATOM     28  P   UNL     1      47.370  33.876  41.235  0.00  0.00    +0.000 P 
BRANCH  28  29
ATOM     29  O   UNL     1      47.649  34.617  39.754  0.00  0.00    +0.000 OA
BRANCH  29  34
ATOM     30  H   UNL     1      50.445  34.746  35.854  0.00  0.00    +0.000 HD
ATOM     31  N   UNL     1      49.733  34.716  36.628  0.00  0.00    +0.000 NA
ATOM     32  C   UNL     1      50.390  34.292  37.816  0.00  0.00    +0.000 C 
ATOM     33  C   UNL     1      49.565  33.620  38.848  0.00  0.00    +0.000 C 
ATOM     34  C   UNL     1      48.081  33.787  38.738  0.00  0.00    +0.000 C 
ATOM     35  C   UNL     1      47.579  34.145  37.391  0.00  0.00    +0.000 C 
ATOM     36  C   UNL     1      48.631  33.830  36.347  0.00  0.00    +0.000 C 
ENDBRANCH  29  34
ENDBRANCH  28  29
BRANCH  28  37
ATOM     37  O   UNL     1      48.362  34.590  42.386  0.00  0.00    +0.000 OA
BRANCH  37  38
ATOM     38  C   UNL     1      49.535  35.290  42.150  0.00  0.00    +0.000 C 
ATOM     39  O   UNL     1      49.203  36.212  41.381  0.00  0.00    +0.000 OA
ATOM     40  N   UNL     1      50.640  34.699  42.862  0.00  0.00    +0.000 N 
ATOM     41  H   UNL     1      51.478  34.223  42.428  0.00  0.00    +0.000 HD
ATOM     42  H   UNL     1      50.597  34.754  43.919  0.00  0.00    +0.000 HD
ENDBRANCH  37  38
ENDBRANCH  28  37
ENDBRANCH  26  28
ENDBRANCH   2  26
TORSDOF 7
