
 OpenBabel03252508083D

 42 45  0  0  0  0  0  0  0  0999 V2000
   45.1610   35.6040   43.1740 C   0  0  0  0  0  0  0  0  0  0  0  0
   45.5300   34.2640   43.2230 C   0  0  0  0  0  0  0  0  0  0  0  0
   45.4370   33.5770   44.4090 C   0  0  0  0  0  0  0  0  0  0  0  0
   44.9690   34.2740   45.5060 N   0  0  0  0  0  0  0  0  0  0  0  0
   44.6180   35.5570   45.4500 C   0  0  0  0  0  0  0  0  0  0  0  0
   44.7190   36.2110   44.2730 N   0  0  0  0  0  0  0  0  0  0  0  0
   45.2150   36.1940   42.2680 H   0  0  0  0  0  0  0  0  0  0  0  0
   44.2540   36.1080   46.2910 H   0  0  0  0  0  0  0  0  0  0  0  0
   45.7690   32.2210   44.6260 C   0  0  0  0  0  0  0  0  0  0  0  0
   45.4230   31.1800   43.7590 C   0  0  0  0  0  0  0  0  0  0  0  0
   45.6830   29.8570   44.0020 C   0  0  0  0  0  0  0  0  0  0  0  0
   46.3250   29.4910   45.1600 C   0  0  0  0  0  0  0  0  0  0  0  0
   46.6880   30.5340   46.0560 C   0  0  0  0  0  0  0  0  0  0  0  0
   47.3260   30.1780   47.2180 C   0  0  0  0  0  0  0  0  0  0  0  0
   47.7080   31.1390   48.1300 C   0  0  0  0  0  0  0  0  0  0  0  0
   47.4380   32.4950   47.8610 C   0  0  0  0  0  0  0  0  0  0  0  0
   46.7810   32.8070   46.6570 C   0  0  0  0  0  0  0  0  0  0  0  0
   46.4110   31.8300   45.7730 C   0  0  0  0  0  0  0  0  0  0  0  0
   44.9140   31.4770   42.8430 H   0  0  0  0  0  0  0  0  0  0  0  0
   45.4150   29.0640   43.3310 H   0  0  0  0  0  0  0  0  0  0  0  0
   46.5670   28.4710   45.4270 H   0  0  0  0  0  0  0  0  0  0  0  0
   47.5420   29.1430   47.4370 H   0  0  0  0  0  0  0  0  0  0  0  0
   48.2090   30.8070   49.0360 H   0  0  0  0  0  0  0  0  0  0  0  0
   47.7750   33.1580   48.6260 H   0  0  0  0  0  0  0  0  0  0  0  0
   46.6890   33.8700   46.6250 H   0  0  0  0  0  0  0  0  0  0  0  0
   45.9710   33.6950   42.0660 O   0  0  0  0  0  0  0  0  0  0  0  0
   48.1640   32.4050   41.4640 O   0  0  0  0  0  0  0  0  0  0  0  0
   47.5680   33.7660   41.5010 P   0  0  1  0  0  0  0  0  0  0  0  0
   47.6260   34.4020   39.9470 O   0  0  0  0  0  0  0  0  0  0  0  0
   46.3370   29.8370   39.2040 H   0  0  0  0  0  0  0  0  0  0  0  0
   46.7400   30.7970   39.3540 N   0  0  0  0  0  0  0  0  0  0  0  0
   45.7010   31.7480   39.1510 C   0  0  0  0  0  2  0  0  0  0  0  0
   46.1000   33.1120   38.7250 C   0  0  0  0  0  2  0  0  0  0  0  0
   47.5380   33.4850   38.9180 C   0  0  0  0  0  3  0  0  0  0  0  0
   48.4820   32.3480   39.0200 C   0  0  0  0  0  2  0  0  0  0  0  0
   47.8390   31.0920   38.4680 C   0  0  0  0  0  2  0  0  0  0  0  0
   48.4390   34.7730   42.5240 O   0  0  0  0  0  0  0  0  0  0  0  0
   49.6590   35.3730   42.2550 C   0  0  0  0  0  0  0  0  0  0  0  0
   49.3670   36.4410   41.6850 O   0  0  0  0  0  0  0  0  0  0  0  0
   50.7500   34.5560   42.7240 N   0  0  0  0  0  0  0  0  0  0  0  0
   51.4710   34.0730   42.1210 H   0  0  0  0  0  0  0  0  0  0  0  0
   50.8260   34.4370   43.7740 H   0  0  0  0  0  0  0  0  0  0  0  0
  1  2  2  0  0  0  0
  1  6  1  0  0  0  0
  2  3  1  0  0  0  0
  3  9  1  0  0  0  0
  3  4  2  0  0  0  0
  5  4  1  0  0  0  0
  5  8  1  0  0  0  0
  6  5  2  0  0  0  0
  7  1  1  0  0  0  0
  9 18  1  0  0  0  0
 10 11  1  0  0  0  0
 10  9  2  0  0  0  0
 11 12  2  0  0  0  0
 12 21  1  0  0  0  0
 12 13  1  0  0  0  0
 13 14  1  0  0  0  0
 14 22  1  0  0  0  0
 14 15  2  0  0  0  0
 15 23  1  0  0  0  0
 16 15  1  0  0  0  0
 16 24  1  0  0  0  0
 17 16  2  0  0  0  0
 18 13  2  0  0  0  0
 18 17  1  0  0  0  0
 19 10  1  0  0  0  0
 20 11  1  0  0  0  0
 25 17  1  0  0  0  0
 26  2  1  0  0  0  0
 28 27  2  1  0  0  0
 28 26  1  0  0  0  0
 28 37  1  0  0  0  0
 29 28  1  0  0  0  0
 30 31  1  0  0  0  0
 32 31  1  0  0  0  0
 33 34  1  0  0  0  0
 33 32  1  0  0  0  0
 34 35  1  0  0  0  0
 34 29  1  0  0  0  0
 36 35  1  0  0  0  0
 36 31  1  0  0  0  0
 38 37  1  0  0  0  0
 38 40  1  0  0  0  0
 39 38  2  0  0  0  0
 40 42  1  0  0  0  0
 41 40  1  0  0  0  0
M  END
>  <minimizedAffinity>
-5.98131275

>  <minimizedRMSD>
0.664093435

$$$$
