
 OpenBabel03252508073D

 42 45  0  0  0  0  0  0  0  0999 V2000
   45.4560   35.8690   42.6980 C   0  0  0  0  0  0  0  0  0  0  0  0
   45.6440   34.4930   42.7760 C   0  0  0  0  0  0  0  0  0  0  0  0
   45.3070   33.8260   43.9290 C   0  0  0  0  0  0  0  0  0  0  0  0
   44.7880   34.5800   44.9640 N   0  0  0  0  0  0  0  0  0  0  0  0
   44.6110   35.8970   44.8800 C   0  0  0  0  0  0  0  0  0  0  0  0
   44.9510   36.5300   43.7370 N   0  0  0  0  0  0  0  0  0  0  0  0
   45.7050   36.4450   41.8160 H   0  0  0  0  0  0  0  0  0  0  0  0
   44.2110   36.4920   45.6730 H   0  0  0  0  0  0  0  0  0  0  0  0
   45.4340   32.4400   44.1700 C   0  0  0  0  0  0  0  0  0  0  0  0
   44.9090   31.4480   43.3350 C   0  0  0  0  0  0  0  0  0  0  0  0
   44.9710   30.1060   43.6020 C   0  0  0  0  0  0  0  0  0  0  0  0
   45.5810   29.6680   44.7520 C   0  0  0  0  0  0  0  0  0  0  0  0
   46.1240   30.6590   45.6150 C   0  0  0  0  0  0  0  0  0  0  0  0
   46.7320   30.2320   46.7680 C   0  0  0  0  0  0  0  0  0  0  0  0
   47.2810   31.1400   47.6480 C   0  0  0  0  0  0  0  0  0  0  0  0
   47.2150   32.5160   47.3550 C   0  0  0  0  0  0  0  0  0  0  0  0
   46.5800   32.9020   46.1610 C   0  0  0  0  0  0  0  0  0  0  0  0
   46.0410   31.9770   45.3090 C   0  0  0  0  0  0  0  0  0  0  0  0
   44.4260   31.8020   42.4250 H   0  0  0  0  0  0  0  0  0  0  0  0
   44.5650   29.3500   42.9560 H   0  0  0  0  0  0  0  0  0  0  0  0
   45.6710   28.6280   45.0360 H   0  0  0  0  0  0  0  0  0  0  0  0
   46.7930   29.1800   47.0060 H   0  0  0  0  0  0  0  0  0  0  0  0
   47.7510   30.7520   48.5490 H   0  0  0  0  0  0  0  0  0  0  0  0
   47.6700   33.1340   48.0960 H   0  0  0  0  0  0  0  0  0  0  0  0
   46.6510   33.9660   46.1060 H   0  0  0  0  0  0  0  0  0  0  0  0
   46.1610   33.8700   41.6800 O   0  0  0  0  0  0  0  0  0  0  0  0
   47.9900   32.0020   41.6710 O   0  0  0  0  0  0  0  0  0  0  0  0
   47.7950   33.4620   41.4800 P   0  0  1  0  0  0  0  0  0  0  0  0
   48.3270   33.8610   39.9380 O   0  0  0  0  0  0  0  0  0  0  0  0
   49.4730   32.8320   35.3920 H   0  0  0  0  0  0  0  0  0  0  0  0
   49.1140   33.1090   36.3410 N   0  0  0  0  0  0  0  0  0  0  0  0
   49.8190   32.3510   37.3170 C   0  0  0  0  0  2  0  0  0  0  0  0
   49.1390   32.1100   38.6120 C   0  0  0  0  0  2  0  0  0  0  0  0
   47.9680   32.9860   38.9320 C   0  0  0  0  0  3  0  0  0  0  0  0
   47.3100   33.6200   37.7660 C   0  0  0  0  0  2  0  0  0  0  0  0
   47.6980   32.8910   36.4950 C   0  0  0  0  0  2  0  0  0  0  0  0
   48.6910   34.3360   42.5990 O   0  0  0  0  0  0  0  0  0  0  0  0
   49.8040   35.1210   42.3380 C   0  0  0  0  0  0  0  0  0  0  0  0
   49.3390   36.2160   41.9700 O   0  0  0  0  0  0  0  0  0  0  0  0
   51.0200   34.3890   42.5880 N   0  0  0  0  0  0  0  0  0  0  0  0
   51.7320   34.0980   41.8630 H   0  0  0  0  0  0  0  0  0  0  0  0
   51.2080   34.1250   43.5960 H   0  0  0  0  0  0  0  0  0  0  0  0
  1  2  2  0  0  0  0
  1  6  1  0  0  0  0
  2  3  1  0  0  0  0
  3  9  1  0  0  0  0
  3  4  2  0  0  0  0
  5  4  1  0  0  0  0
  5  8  1  0  0  0  0
  6  5  2  0  0  0  0
  7  1  1  0  0  0  0
  9 18  1  0  0  0  0
 10 11  1  0  0  0  0
 10  9  2  0  0  0  0
 11 12  2  0  0  0  0
 12 21  1  0  0  0  0
 12 13  1  0  0  0  0
 13 14  1  0  0  0  0
 14 22  1  0  0  0  0
 14 15  2  0  0  0  0
 15 23  1  0  0  0  0
 16 15  1  0  0  0  0
 16 24  1  0  0  0  0
 17 16  2  0  0  0  0
 18 13  2  0  0  0  0
 18 17  1  0  0  0  0
 19 10  1  0  0  0  0
 20 11  1  0  0  0  0
 25 17  1  0  0  0  0
 26  2  1  0  0  0  0
 28 27  2  1  0  0  0
 28 26  1  0  0  0  0
 28 37  1  0  0  0  0
 29 28  1  0  0  0  0
 30 31  1  0  0  0  0
 31 36  1  0  0  0  0
 31 32  1  0  0  0  0
 32 33  1  0  0  0  0
 33 34  1  0  0  0  0
 34 29  1  0  0  0  0
 35 34  1  0  0  0  0
 36 35  1  0  0  0  0
 38 40  1  0  0  0  0
 38 37  1  0  0  0  0
 39 38  2  0  0  0  0
 40 42  1  0  0  0  0
 41 40  1  0  0  0  0
M  END
>  <minimizedAffinity>
-6.02260494

>  <minimizedRMSD>
0.752066851

$$$$
