REMARK  Name = 
REMARK  3 active torsions:
REMARK  status: ('A' for Active; 'I' for Inactive)
REMARK    1  A    between atoms: N_1  and  C_9
REMARK    2  A    between atoms: C_6  and  O_13
REMARK    3  A    between atoms: O_13  and  C_30
REMARK                            x       y       z     vdW  Elec       q    Type
REMARK                         _______ _______ _______ _____ _____    ______ ____
ROOT
ATOM      1  N   UNL     1      46.872  34.614  42.225  0.00  0.00    +0.000 N 
ATOM      2  C   UNL     1      48.325  34.784  42.261  0.00  0.00    +0.000 C 
ATOM      3  C   UNL     1      48.649  35.522  40.958  0.00  0.00    +0.000 C 
ATOM      4  C   UNL     1      48.359  34.612  39.791  0.00  0.00    +0.000 C 
ATOM      5  C   UNL     1      47.079  33.867  39.901  0.00  0.00    +0.000 C 
ATOM      6  C   UNL     1      46.175  34.269  41.030  0.00  0.00    +0.000 C 
ATOM      7  H   UNL     1      48.807  33.789  42.220  0.00  0.00    +0.000 HD
ATOM      8  H   UNL     1      48.648  35.343  43.138  0.00  0.00    +0.000 HD
ATOM      9  H   UNL     1      48.071  36.460  40.923  0.00  0.00    +0.000 HD
ATOM     10  H   UNL     1      49.754  35.697  41.004  0.00  0.00    +0.000 HD
ATOM     11  H   UNL     1      48.456  35.226  38.875  0.00  0.00    +0.000 HD
ATOM     12  H   UNL     1      49.191  33.858  39.763  0.00  0.00    +0.000 HD
ATOM     13  H   UNL     1      47.224  32.764  39.908  0.00  0.00    +0.000 HD
ATOM     14  H   UNL     1      46.507  34.079  38.957  0.00  0.00    +0.000 HD
ATOM     15  H   UNL     1      45.541  35.147  40.761  0.00  0.00    +0.000 HD
ENDROOT
BRANCH   1  18
ATOM     16  C   UNL     1      44.513  35.982  44.770  0.00  0.00    +0.000 A 
ATOM     17  C   UNL     1      45.231  35.881  43.575  0.00  0.00    +0.000 A 
ATOM     18  C   UNL     1      46.103  34.795  43.409  0.00  0.00    +0.000 A 
ATOM     19  N   UNL     1      46.188  33.908  44.438  0.00  0.00    +0.000 NA
ATOM     20  C   UNL     1      45.479  34.035  45.583  0.00  0.00    +0.000 A 
ATOM     21  N   UNL     1      44.641  35.085  45.734  0.00  0.00    +0.000 NA
ATOM     22  H   UNL     1      43.869  36.851  44.803  0.00  0.00    +0.000 HD
ATOM     23  H   UNL     1      45.134  36.619  42.766  0.00  0.00    +0.000 HD
ATOM     24  H   UNL     1      45.620  33.264  46.353  0.00  0.00    +0.000 HD
ENDBRANCH   1  18
BRANCH   6  25
ATOM     25  O   UNL     1      45.356  33.162  41.303  0.00  0.00    +0.000 OA
BRANCH  25  30
ATOM     26  H   UNL     1      41.397  32.721  42.966  0.00  0.00    +0.000 HD
ATOM     27  N   UNL     1      41.302  33.128  42.028  0.00  0.00    +0.000 NA
ATOM     28  C   UNL     1      41.866  32.175  41.094  0.00  0.00    +0.000 C 
ATOM     29  C   UNL     1      43.335  32.074  41.374  0.00  0.00    +0.000 C 
ATOM     30  C   UNL     1      44.016  33.423  41.175  0.00  0.00    +0.000 C 
ATOM     31  C   UNL     1      43.432  34.337  42.199  0.00  0.00    +0.000 C 
ATOM     32  C   UNL     1      41.927  34.408  41.912  0.00  0.00    +0.000 C 
ENDBRANCH  25  30
ENDBRANCH   6  25
TORSDOF 3
