
 OpenBabel03252508073D

 42 45  0  0  0  0  0  0  0  0999 V2000
   45.1550   35.5340   43.3380 C   0  0  0  0  0  0  0  0  0  0  0  0
   45.5360   34.1980   43.3830 C   0  0  0  0  0  0  0  0  0  0  0  0
   45.4580   33.5100   44.5700 C   0  0  0  0  0  0  0  0  0  0  0  0
   44.9920   34.2030   45.6700 N   0  0  0  0  0  0  0  0  0  0  0  0
   44.6290   35.4820   45.6170 C   0  0  0  0  0  0  0  0  0  0  0  0
   44.7160   36.1380   44.4400 N   0  0  0  0  0  0  0  0  0  0  0  0
   45.1960   36.1250   42.4310 H   0  0  0  0  0  0  0  0  0  0  0  0
   44.2670   36.0300   46.4610 H   0  0  0  0  0  0  0  0  0  0  0  0
   45.8040   32.1570   44.7850 C   0  0  0  0  0  0  0  0  0  0  0  0
   45.4450   31.1110   43.9300 C   0  0  0  0  0  0  0  0  0  0  0  0
   45.7190   29.7900   44.1710 C   0  0  0  0  0  0  0  0  0  0  0  0
   46.3900   29.4330   45.3160 C   0  0  0  0  0  0  0  0  0  0  0  0
   46.7660   30.4810   46.2000 C   0  0  0  0  0  0  0  0  0  0  0  0
   47.4330   30.1350   47.3480 C   0  0  0  0  0  0  0  0  0  0  0  0
   47.8290   31.1010   48.2470 C   0  0  0  0  0  0  0  0  0  0  0  0
   47.5450   32.4540   47.9800 C   0  0  0  0  0  0  0  0  0  0  0  0
   46.8580   32.7570   46.7900 C   0  0  0  0  0  0  0  0  0  0  0  0
   46.4740   31.7750   45.9180 C   0  0  0  0  0  0  0  0  0  0  0  0
   44.9130   31.4000   43.0240 H   0  0  0  0  0  0  0  0  0  0  0  0
   45.4410   28.9920   43.5090 H   0  0  0  0  0  0  0  0  0  0  0  0
   46.6440   28.4150   45.5810 H   0  0  0  0  0  0  0  0  0  0  0  0
   47.6600   29.1010   47.5660 H   0  0  0  0  0  0  0  0  0  0  0  0
   48.3530   30.7760   49.1430 H   0  0  0  0  0  0  0  0  0  0  0  0
   47.8940   33.1220   48.7350 H   0  0  0  0  0  0  0  0  0  0  0  0
   46.7580   33.8200   46.7560 H   0  0  0  0  0  0  0  0  0  0  0  0
   45.9740   33.6330   42.2230 O   0  0  0  0  0  0  0  0  0  0  0  0
   48.1300   32.2060   41.8330 O   0  0  0  0  0  0  0  0  0  0  0  0
   47.5920   33.5870   41.7200 P   0  0  1  0  0  0  0  0  0  0  0  0
   47.7350   34.0710   40.1180 O   0  0  0  0  0  0  0  0  0  0  0  0
   46.2990   33.7670   35.5470 H   0  0  0  0  0  0  0  0  0  0  0  0
   46.4960   33.7980   36.5810 N   0  0  0  0  0  0  0  0  0  0  0  0
   47.9050   33.7620   36.7630 C   0  0  0  0  0  2  0  0  0  0  0  0
   48.4110   33.2160   38.0450 C   0  0  0  0  0  2  0  0  0  0  0  0
   47.4280   33.1140   39.1710 C   0  0  0  0  0  3  0  0  0  0  0  0
   46.0030   33.0770   38.7680 C   0  0  0  0  0  2  0  0  0  0  0  0
   45.8910   32.7080   37.3030 C   0  0  0  0  0  2  0  0  0  0  0  0
   48.4670   34.6500   42.6810 O   0  0  0  0  0  0  0  0  0  0  0  0
   49.6610   35.2740   42.3520 C   0  0  0  0  0  0  0  0  0  0  0  0
   49.3190   36.3510   41.8270 O   0  0  0  0  0  0  0  0  0  0  0  0
   50.7890   34.4630   42.7330 N   0  0  0  0  0  0  0  0  0  0  0  0
   51.4780   34.0050   42.0750 H   0  0  0  0  0  0  0  0  0  0  0  0
   50.9310   34.3200   43.7730 H   0  0  0  0  0  0  0  0  0  0  0  0
  1  2  2  0  0  0  0
  1  6  1  0  0  0  0
  2  3  1  0  0  0  0
  3  9  1  0  0  0  0
  3  4  2  0  0  0  0
  5  4  1  0  0  0  0
  5  8  1  0  0  0  0
  6  5  2  0  0  0  0
  7  1  1  0  0  0  0
  9 18  1  0  0  0  0
 10 11  1  0  0  0  0
 10  9  2  0  0  0  0
 11 12  2  0  0  0  0
 12 21  1  0  0  0  0
 12 13  1  0  0  0  0
 13 14  1  0  0  0  0
 14 22  1  0  0  0  0
 14 15  2  0  0  0  0
 15 23  1  0  0  0  0
 16 15  1  0  0  0  0
 16 24  1  0  0  0  0
 17 16  2  0  0  0  0
 18 13  2  0  0  0  0
 18 17  1  0  0  0  0
 19 10  1  0  0  0  0
 20 11  1  0  0  0  0
 25 17  1  0  0  0  0
 26  2  1  0  0  0  0
 28 27  2  1  0  0  0
 28 26  1  0  0  0  0
 28 37  1  0  0  0  0
 29 28  1  0  0  0  0
 30 31  1  0  0  0  0
 31 32  1  0  0  0  0
 31 36  1  0  0  0  0
 32 33  1  0  0  0  0
 33 34  1  0  0  0  0
 34 29  1  0  0  0  0
 35 34  1  0  0  0  0
 36 35  1  0  0  0  0
 38 37  1  0  0  0  0
 38 40  1  0  0  0  0
 39 38  2  0  0  0  0
 40 42  1  0  0  0  0
 41 40  1  0  0  0  0
M  END
>  <minimizedAffinity>
-6.40710306

>  <minimizedRMSD>
1.02628434

$$$$
