
 OpenBabel03252508073D

 42 45  0  0  0  0  0  0  0  0999 V2000
   45.1450   35.6040   43.2070 C   0  0  0  0  0  0  0  0  0  0  0  0
   45.5190   34.2650   43.2500 C   0  0  0  0  0  0  0  0  0  0  0  0
   45.4360   33.5750   44.4350 C   0  0  0  0  0  0  0  0  0  0  0  0
   44.9750   34.2680   45.5370 N   0  0  0  0  0  0  0  0  0  0  0  0
   44.6190   35.5490   45.4860 C   0  0  0  0  0  0  0  0  0  0  0  0
   44.7100   36.2070   44.3100 N   0  0  0  0  0  0  0  0  0  0  0  0
   45.1910   36.1970   42.3020 H   0  0  0  0  0  0  0  0  0  0  0  0
   44.2600   36.0970   46.3310 H   0  0  0  0  0  0  0  0  0  0  0  0
   45.7740   32.2190   44.6460 C   0  0  0  0  0  0  0  0  0  0  0  0
   45.4300   31.1800   43.7760 C   0  0  0  0  0  0  0  0  0  0  0  0
   45.6960   29.8580   44.0130 C   0  0  0  0  0  0  0  0  0  0  0  0
   46.3420   29.4900   45.1690 C   0  0  0  0  0  0  0  0  0  0  0  0
   46.7030   30.5300   46.0680 C   0  0  0  0  0  0  0  0  0  0  0  0
   47.3450   30.1730   47.2260 C   0  0  0  0  0  0  0  0  0  0  0  0
   47.7250   31.1310   48.1410 C   0  0  0  0  0  0  0  0  0  0  0  0
   47.4500   32.4870   47.8780 C   0  0  0  0  0  0  0  0  0  0  0  0
   46.7890   32.8010   46.6770 C   0  0  0  0  0  0  0  0  0  0  0  0
   46.4200   31.8270   45.7900 C   0  0  0  0  0  0  0  0  0  0  0  0
   44.9180   31.4790   42.8610 H   0  0  0  0  0  0  0  0  0  0  0  0
   45.4290   29.0660   43.3390 H   0  0  0  0  0  0  0  0  0  0  0  0
   46.5880   28.4690   45.4310 H   0  0  0  0  0  0  0  0  0  0  0  0
   47.5650   29.1370   47.4410 H   0  0  0  0  0  0  0  0  0  0  0  0
   48.2290   30.7980   49.0440 H   0  0  0  0  0  0  0  0  0  0  0  0
   47.7850   33.1490   48.6450 H   0  0  0  0  0  0  0  0  0  0  0  0
   46.6920   33.8640   46.6490 H   0  0  0  0  0  0  0  0  0  0  0  0
   45.9530   33.7010   42.0880 O   0  0  0  0  0  0  0  0  0  0  0  0
   48.1420   32.3860   41.5260 O   0  0  0  0  0  0  0  0  0  0  0  0
   47.5530   33.7500   41.5270 P   0  0  1  0  0  0  0  0  0  0  0  0
   47.6200   34.3470   39.9590 O   0  0  0  0  0  0  0  0  0  0  0  0
   46.1150   29.8320   39.3290 H   0  0  0  0  0  0  0  0  0  0  0  0
   46.5630   30.7750   39.4540 N   0  0  0  0  0  0  0  0  0  0  0  0
   45.5700   31.7680   39.2310 C   0  0  0  0  0  2  0  0  0  0  0  0
   46.0310   33.1010   38.7720 C   0  0  0  0  0  2  0  0  0  0  0  0
   47.4850   33.4110   38.9530 C   0  0  0  0  0  3  0  0  0  0  0  0
   48.3750   32.2340   39.0800 C   0  0  0  0  0  2  0  0  0  0  0  0
   47.6720   30.9960   38.5590 C   0  0  0  0  0  2  0  0  0  0  0  0
   48.4250   34.7770   42.5290 O   0  0  0  0  0  0  0  0  0  0  0  0
   49.6450   35.3710   42.2470 C   0  0  0  0  0  0  0  0  0  0  0  0
   49.3530   36.4310   41.6620 O   0  0  0  0  0  0  0  0  0  0  0  0
   50.7360   34.5590   42.7250 N   0  0  0  0  0  0  0  0  0  0  0  0
   51.4540   34.0650   42.1270 H   0  0  0  0  0  0  0  0  0  0  0  0
   50.8150   34.4550   43.7760 H   0  0  0  0  0  0  0  0  0  0  0  0
  1  2  2  0  0  0  0
  1  6  1  0  0  0  0
  2  3  1  0  0  0  0
  3  9  1  0  0  0  0
  3  4  2  0  0  0  0
  5  4  1  0  0  0  0
  5  8  1  0  0  0  0
  6  5  2  0  0  0  0
  7  1  1  0  0  0  0
  9 18  1  0  0  0  0
 10 11  1  0  0  0  0
 10  9  2  0  0  0  0
 11 12  2  0  0  0  0
 12 21  1  0  0  0  0
 12 13  1  0  0  0  0
 13 14  1  0  0  0  0
 14 22  1  0  0  0  0
 14 15  2  0  0  0  0
 15 23  1  0  0  0  0
 16 15  1  0  0  0  0
 16 24  1  0  0  0  0
 17 16  2  0  0  0  0
 18 13  2  0  0  0  0
 18 17  1  0  0  0  0
 19 10  1  0  0  0  0
 20 11  1  0  0  0  0
 25 17  1  0  0  0  0
 26  2  1  0  0  0  0
 28 27  2  1  0  0  0
 28 26  1  0  0  0  0
 28 37  1  0  0  0  0
 29 28  1  0  0  0  0
 30 31  1  0  0  0  0
 32 31  1  0  0  0  0
 33 34  1  0  0  0  0
 33 32  1  0  0  0  0
 34 35  1  0  0  0  0
 34 29  1  0  0  0  0
 36 35  1  0  0  0  0
 36 31  1  0  0  0  0
 38 37  1  0  0  0  0
 38 40  1  0  0  0  0
 39 38  2  0  0  0  0
 40 42  1  0  0  0  0
 41 40  1  0  0  0  0
M  END
>  <minimizedAffinity>
-5.95604944

>  <minimizedRMSD>
0.857204199

$$$$
