
     RDKit          3D

 43 45  0  0  0  0  0  0  0  0999 V2000
   45.5977   33.9032   45.5952 C   0  0  0  0  0  0  0  0  0  0  0  0
   44.7862   34.9938   45.7288 C   0  0  0  0  0  0  0  0  0  0  0  0
   44.4529   35.8340   44.6841 C   0  0  0  0  0  0  0  0  0  0  0  0
   44.9619   35.5661   43.4335 C   0  0  0  0  0  0  0  0  0  0  0  0
   45.7725   34.4850   43.2768 C   0  0  0  0  0  0  0  0  0  0  0  0
   46.0914   33.6585   44.3397 C   0  0  0  0  0  0  0  0  0  0  0  0
   47.5671   31.8411   47.8981 C   0  0  0  0  0  0  0  0  0  0  0  0
   46.6300   31.4445   48.8497 C   0  0  0  0  0  0  0  0  0  0  0  0
   45.3112   31.8842   48.7063 C   0  0  0  0  0  0  0  0  0  0  0  0
   44.9749   32.6788   47.6555 N   0  0  0  0  0  0  0  0  0  0  0  0
   45.9135   33.0535   46.7357 C   0  0  0  0  0  0  0  0  0  0  0  0
   47.1806   32.6210   46.8886 N   0  0  0  0  0  0  0  0  0  0  0  0
   46.9472   32.5750   44.0116 N   0  0  0  0  0  0  0  0  0  0  0  0
   48.2492   32.4397   42.9256 S   0  0  0  0  0  0  0  0  0  0  0  0
   47.7002   32.2016   41.5310 O   0  0  0  0  0  0  0  0  0  0  0  0
   49.1769   33.5981   42.9123 O   0  0  0  0  0  0  0  0  0  0  0  0
   49.0318   30.9860   43.3433 O   0  0  0  0  0  0  0  0  0  0  0  0
   44.3771   35.2184   46.7081 H   0  0  0  0  0  0  0  0  0  0  0  0
   43.8075   36.6690   44.8812 H   0  0  0  0  0  0  0  0  0  0  0  0
   44.6900   36.2378   42.6197 H   0  0  0  0  0  0  0  0  0  0  0  0
   46.1447   34.3198   42.2760 H   0  0  0  0  0  0  0  0  0  0  0  0
   48.5835   31.5090   47.9986 H   0  0  0  0  0  0  0  0  0  0  0  0
   46.8799   30.8094   49.6969 H   0  0  0  0  0  0  0  0  0  0  0  0
   44.5257   31.6272   49.3920 H   0  0  0  0  0  0  0  0  0  0  0  0
   46.6835   31.7110   44.5773 H   0  0  0  0  0  0  0  0  0  0  0  0
   48.2096   31.8209   40.7901 H   0  0  0  0  0  0  0  0  0  0  0  0
   49.3600   34.2699   42.2082 H   0  0  0  0  0  0  0  0  0  0  0  0
   53.2638   33.0237   42.5171 H   0  0  0  0  0  0  0  0  0  0  0  0
   52.5140   32.5438   43.0513 N   0  0  0  0  0  0  0  0  0  0  0  0
   52.6132   31.1113   43.0331 C   0  0  0  0  0  0  0  0  0  0  0  0
   51.3137   30.4914   43.4733 C   0  0  0  0  0  0  0  0  0  0  0  0
   50.1533   30.8226   42.5780 C   0  0  0  0  0  0  0  0  0  0  0  0
   50.3995   32.1536   41.8624 C   0  0  0  0  0  0  0  0  0  0  0  0
   51.1977   33.0579   42.7666 C   0  0  0  0  0  0  0  0  0  0  0  0
   53.0074   30.6933   42.0946 H   0  0  0  0  0  0  0  0  0  0  0  0
   53.3486   30.8427   43.8462 H   0  0  0  0  0  0  0  0  0  0  0  0
   51.1057   30.9076   44.4979 H   0  0  0  0  0  0  0  0  0  0  0  0
   51.4270   29.3870   43.5717 H   0  0  0  0  0  0  0  0  0  0  0  0
   49.9847   30.0418   41.7815 H   0  0  0  0  0  0  0  0  0  0  0  0
   49.4328   32.6602   41.6656 H   0  0  0  0  0  0  0  0  0  0  0  0
   50.9241   31.9697   40.9029 H   0  0  0  0  0  0  0  0  0  0  0  0
   50.6395   33.2254   43.6947 H   0  0  0  0  0  0  0  0  0  0  0  0
   51.3237   34.0385   42.2407 H   0  0  0  0  0  0  0  0  0  0  0  0
  1  2  2  0
  1 11  1  0
  3  2  1  0
  4  3  2  0
  5  4  1  0
  5  6  2  0
  6  1  1  0
  7  8  2  0
  9  8  1  0
 10  9  2  0
 11 12  2  0
 11 10  1  0
 12  7  1  0
 13  6  1  0
 14 17  1  0
 14 13  1  0
 15 14  1  0
 16 14  1  0
  2 18  1  0
  3 19  1  0
  4 20  1  0
  5 21  1  0
  7 22  1  0
  8 23  1  0
  9 24  1  0
 13 25  1  0
 15 26  1  0
 16 27  1  0
 28 29  1  0
 29 30  1  0
 30 31  1  0
 31 32  1  0
 32 33  1  0
 33 34  1  0
 34 29  1  0
 30 35  1  0
 30 36  1  0
 31 37  1  0
 31 38  1  0
 32 39  1  0
 33 40  1  0
 33 41  1  0
 34 42  1  0
 34 43  1  0
 17 32  1  0
M  ISO  8  18  14  19  14  20  14  21  14  22  14  23  14  24  14  26   3
M  ISO  2  27   3  28   5
M  END
>  <DihAtoms>  (1) 
13,16,31,30

>  <DihDeg>  (1) 
-124.43349096516062

$$$$
