
 OpenBabel03242511073D

 25 27  0  0  1  0  0  0  0  0999 V2000
   36.8330   27.2230   42.2360 C   0  0  1  0  0  0  0  0  0  0  0  0
   36.5180   27.4800   43.6790 C   0  0  0  0  0  0  0  0  0  0  0  0
   37.5980   28.2720   42.9170 C   0  0  2  0  0  0  0  0  0  0  0  0
   36.0520   27.5190   41.5080 H   0  0  0  0  0  0  0  0  0  0  0  0
   35.5680   27.9650   43.8790 H   0  0  0  0  0  0  0  0  0  0  0  0
   36.8700   26.6770   44.3660 H   0  0  0  0  0  0  0  0  0  0  0  0
   38.6410   28.0610   43.3000 H   0  0  0  0  0  0  0  0  0  0  0  0
   39.2880   24.4360   42.1130 C   0  0  0  0  0  0  0  0  0  0  0  0
   38.6900   23.5940   41.1110 C   0  0  0  0  0  0  0  0  0  0  0  0
   37.4590   24.0080   40.5150 C   0  0  0  0  0  0  0  0  0  0  0  0
   36.9080   25.1600   40.9050 N   0  0  0  0  0  0  0  0  0  0  0  0
   37.5060   25.9410   41.8670 C   0  0  0  0  0  0  0  0  0  0  0  0
   38.6830   25.5730   42.4560 N   0  0  0  0  0  0  0  0  0  0  0  0
   40.2180   24.0990   42.5470 H   0  0  0  0  0  0  0  0  0  0  0  0
   39.1950   22.6760   40.8460 H   0  0  0  0  0  0  0  0  0  0  0  0
   37.0530   23.3400   39.7690 H   0  0  0  0  0  0  0  0  0  0  0  0
   37.3430   29.6600   42.7510 N   0  0  0  0  0  0  0  0  0  0  0  0
   36.3290   29.8410   42.9940 H   0  0  0  0  0  0  0  0  0  0  0  0
   38.4070   33.2030   39.6120 H   0  0  0  0  0  0  0  0  0  0  0  0
   37.8560   32.8230   40.4280 N   0  0  0  0  0  0  0  0  0  0  0  0
   38.7180   32.1970   41.4090 C   0  0  0  0  0  2  0  0  0  0  0  0
   38.8410   30.7110   41.1870 C   0  0  0  0  0  2  0  0  0  0  0  0
   37.4890   30.0520   41.3620 C   0  0  0  0  0  3  0  0  0  0  0  0
   36.3640   31.0040   40.9680 C   0  0  0  0  0  2  0  0  0  0  0  0
   36.8670   31.9390   39.8910 C   0  0  0  0  0  2  0  0  0  0  0  0
  1  4  1  6  0  0  0
  1  3  1  0  0  0  0
  1  2  1  0  0  0  0
  2  5  1  0  0  0  0
  2  6  1  0  0  0  0
  3  7  1  1  0  0  0
  3  2  1  0  0  0  0
  8 13  1  0  0  0  0
  8 14  1  0  0  0  0
  9  8  2  0  0  0  0
 10 11  2  0  0  0  0
 10  9  1  0  0  0  0
 11 12  1  0  0  0  0
 12  1  1  0  0  0  0
 12 13  2  0  0  0  0
 15  9  1  0  0  0  0
 16 10  1  0  0  0  0
 17  3  1  0  0  0  0
 17 18  1  0  0  0  0
 19 20  1  0  0  0  0
 20 21  1  0  0  0  0
 22 23  1  0  0  0  0
 22 21  1  0  0  0  0
 23 17  1  0  0  0  0
 24 23  1  0  0  0  0
 25 20  1  0  0  0  0
 25 24  1  0  0  0  0
M  END
>  <minimizedAffinity>
-4.70296669

$$$$

 OpenBabel03242511073D

 25 27  0  0  1  0  0  0  0  0999 V2000
   37.2170   27.8140   42.6610 C   0  0  1  0  0  0  0  0  0  0  0  0
   37.3710   28.9040   43.6800 C   0  0  0  0  0  0  0  0  0  0  0  0
   37.8000   29.0820   42.2090 C   0  0  2  0  0  0  0  0  0  0  0  0
   36.1780   27.5690   42.3660 H   0  0  0  0  0  0  0  0  0  0  0  0
   36.4530   29.3790   44.0090 H   0  0  0  0  0  0  0  0  0  0  0  0
   38.1790   28.7140   44.4220 H   0  0  0  0  0  0  0  0  0  0  0  0
   38.9200   29.1860   42.0940 H   0  0  0  0  0  0  0  0  0  0  0  0
   40.0540   25.5730   43.5220 C   0  0  0  0  0  0  0  0  0  0  0  0
   39.6260   24.3470   42.9030 C   0  0  0  0  0  0  0  0  0  0  0  0
   38.3730   24.3280   42.2150 C   0  0  0  0  0  0  0  0  0  0  0  0
   37.6450   25.4460   42.1690 N   0  0  0  0  0  0  0  0  0  0  0  0
   38.0830   26.6010   42.7730 C   0  0  0  0  0  0  0  0  0  0  0  0
   39.2760   26.6520   43.4380 N   0  0  0  0  0  0  0  0  0  0  0  0
   41.0030   25.5590   44.0350 H   0  0  0  0  0  0  0  0  0  0  0  0
   40.2690   23.4820   42.9810 H   0  0  0  0  0  0  0  0  0  0  0  0
   38.1000   23.3830   41.7680 H   0  0  0  0  0  0  0  0  0  0  0  0
   37.0770   30.0560   41.4700 N   0  0  0  0  0  0  0  0  0  0  0  0
   36.1660   29.6220   41.1530 H   0  0  0  0  0  0  0  0  0  0  0  0
   38.1250   33.5260   38.2460 H   0  0  0  0  0  0  0  0  0  0  0  0
   37.4320   32.9490   38.7930 N   0  0  0  0  0  0  0  0  0  0  0  0
   37.7800   32.8870   40.1980 C   0  0  0  0  0  2  0  0  0  0  0  0
   38.5980   31.6640   40.5230 C   0  0  0  0  0  2  0  0  0  0  0  0
   37.7840   30.4150   40.2550 C   0  0  0  0  0  3  0  0  0  0  0  0
   36.7880   30.6460   39.1220 C   0  0  0  0  0  2  0  0  0  0  0  0
   37.3640   31.6650   38.1650 C   0  0  0  0  0  2  0  0  0  0  0  0
  1  4  1  6  0  0  0
  1 12  1  0  0  0  0
  1  2  1  0  0  0  0
  2  5  1  0  0  0  0
  2  6  1  0  0  0  0
  3  7  1  6  0  0  0
  3  1  1  0  0  0  0
  3  2  1  0  0  0  0
  8 14  1  0  0  0  0
  9 15  1  0  0  0  0
  9  8  2  0  0  0  0
 10  9  1  0  0  0  0
 11 10  2  0  0  0  0
 11 12  1  0  0  0  0
 12 13  2  0  0  0  0
 13  8  1  0  0  0  0
 16 10  1  0  0  0  0
 17  3  1  0  0  0  0
 18 17  1  0  0  0  0
 19 20  1  0  0  0  0
 20 21  1  0  0  0  0
 21 22  1  0  0  0  0
 23 22  1  0  0  0  0
 23 17  1  0  0  0  0
 24 23  1  0  0  0  0
 25 20  1  0  0  0  0
 25 24  1  0  0  0  0
M  END
>  <minimizedAffinity>
-4.64103603

$$$$

 OpenBabel03242511073D

 25 27  0  0  1  0  0  0  0  0999 V2000
   37.1630   27.3410   42.4350 C   0  0  1  0  0  0  0  0  0  0  0  0
   36.4880   27.8380   43.6780 C   0  0  0  0  0  0  0  0  0  0  0  0
   37.3980   28.7370   42.8170 C   0  0  2  0  0  0  0  0  0  0  0  0
   36.4990   27.1270   41.5750 H   0  0  0  0  0  0  0  0  0  0  0  0
   35.4130   27.9790   43.6110 H   0  0  0  0  0  0  0  0  0  0  0  0
   36.9230   27.4320   44.6190 H   0  0  0  0  0  0  0  0  0  0  0  0
   38.3490   29.0300   43.3530 H   0  0  0  0  0  0  0  0  0  0  0  0
   39.2530   24.3060   41.9520 C   0  0  0  0  0  0  0  0  0  0  0  0
   40.3040   24.5490   42.9030 C   0  0  0  0  0  0  0  0  0  0  0  0
   40.2650   25.7510   43.6750 C   0  0  0  0  0  0  0  0  0  0  0  0
   39.2560   26.6050   43.4880 N   0  0  0  0  0  0  0  0  0  0  0  0
   38.2670   26.3420   42.5700 C   0  0  0  0  0  0  0  0  0  0  0  0
   38.2760   25.2020   41.8170 N   0  0  0  0  0  0  0  0  0  0  0  0
   39.3070   23.3900   41.3830 H   0  0  0  0  0  0  0  0  0  0  0  0
   41.0890   23.8120   42.9990 H   0  0  0  0  0  0  0  0  0  0  0  0
   41.0790   25.8850   44.3740 H   0  0  0  0  0  0  0  0  0  0  0  0
   36.7590   29.8380   42.1870 N   0  0  0  0  0  0  0  0  0  0  0  0
   35.7690   29.5530   41.9460 H   0  0  0  0  0  0  0  0  0  0  0  0
   39.7300   32.8020   39.7520 H   0  0  0  0  0  0  0  0  0  0  0  0
   38.8860   32.6330   40.3630 N   0  0  0  0  0  0  0  0  0  0  0  0
   39.1960   31.7550   41.4720 C   0  0  0  0  0  2  0  0  0  0  0  0
   38.8820   30.3150   41.1580 C   0  0  0  0  0  2  0  0  0  0  0  0
   37.3950   30.1530   40.9220 C   0  0  0  0  0  3  0  0  0  0  0  0
   36.7940   31.4290   40.3400 C   0  0  0  0  0  2  0  0  0  0  0  0
   37.8470   32.1340   39.5150 C   0  0  0  0  0  2  0  0  0  0  0  0
  1  4  1  6  0  0  0
  1 12  1  0  0  0  0
  1  3  1  0  0  0  0
  1  2  1  0  0  0  0
  2  6  1  0  0  0  0
  3  7  1  1  0  0  0
  3  2  1  0  0  0  0
  5  2  1  0  0  0  0
  8  9  1  0  0  0  0
  9 15  1  0  0  0  0
  9 10  2  0  0  0  0
 10 16  1  0  0  0  0
 11 10  1  0  0  0  0
 12 11  2  0  0  0  0
 13  8  2  0  0  0  0
 13 12  1  0  0  0  0
 14  8  1  0  0  0  0
 17  3  1  0  0  0  0
 18 17  1  0  0  0  0
 19 20  1  0  0  0  0
 20 21  1  0  0  0  0
 22 21  1  0  0  0  0
 23 22  1  0  0  0  0
 23 17  1  0  0  0  0
 24 23  1  0  0  0  0
 25 24  1  0  0  0  0
 25 20  1  0  0  0  0
M  END
>  <minimizedAffinity>
-4.58739948

$$$$

 OpenBabel03242511073D

 25 27  0  0  1  0  0  0  0  0999 V2000
   37.3830   26.9520   42.5220 C   0  0  1  0  0  0  0  0  0  0  0  0
   36.5130   27.4410   43.6420 C   0  0  0  0  0  0  0  0  0  0  0  0
   37.1140   28.3920   42.5880 C   0  0  2  0  0  0  0  0  0  0  0  0
   36.8780   26.3490   41.7430 H   0  0  0  0  0  0  0  0  0  0  0  0
   35.4590   27.1910   43.5680 H   0  0  0  0  0  0  0  0  0  0  0  0
   37.0060   27.4150   44.6390 H   0  0  0  0  0  0  0  0  0  0  0  0
   37.8810   29.0970   43.0280 H   0  0  0  0  0  0  0  0  0  0  0  0
   40.2770   24.6660   42.9780 C   0  0  0  0  0  0  0  0  0  0  0  0
   41.2600   25.5760   43.5030 C   0  0  0  0  0  0  0  0  0  0  0  0
   40.8980   26.9480   43.6780 C   0  0  0  0  0  0  0  0  0  0  0  0
   39.6640   27.3370   43.3500 N   0  0  0  0  0  0  0  0  0  0  0  0
   38.7490   26.4400   42.8490 C   0  0  0  0  0  0  0  0  0  0  0  0
   39.0640   25.1220   42.6700 N   0  0  0  0  0  0  0  0  0  0  0  0
   40.5770   23.6360   42.8560 H   0  0  0  0  0  0  0  0  0  0  0  0
   42.2380   25.1890   43.7470 H   0  0  0  0  0  0  0  0  0  0  0  0
   41.6720   27.5890   44.0750 H   0  0  0  0  0  0  0  0  0  0  0  0
   36.1780   29.0520   41.7480 N   0  0  0  0  0  0  0  0  0  0  0  0
   36.0730   28.4850   40.8610 H   0  0  0  0  0  0  0  0  0  0  0  0
   38.7100   31.5640   38.4580 H   0  0  0  0  0  0  0  0  0  0  0  0
   38.6180   30.7700   39.1480 N   0  0  0  0  0  0  0  0  0  0  0  0
   37.3730   30.0520   38.9720 C   0  0  0  0  0  2  0  0  0  0  0  0
   36.2890   30.5700   39.8820 C   0  0  0  0  0  2  0  0  0  0  0  0
   36.6810   30.3470   41.3280 C   0  0  0  0  0  3  0  0  0  0  0  0
   38.1970   30.3960   41.4950 C   0  0  0  0  0  2  0  0  0  0  0  0
   38.7740   31.3310   40.4550 C   0  0  0  0  0  2  0  0  0  0  0  0
  1  4  1  6  0  0  0
  1  3  1  0  0  0  0
  1 12  1  0  0  0  0
  1  2  1  0  0  0  0
  2  6  1  0  0  0  0
  3  7  1  1  0  0  0
  3  2  1  0  0  0  0
  5  2  1  0  0  0  0
  8  9  1  0  0  0  0
  9 10  2  0  0  0  0
  9 15  1  0  0  0  0
 10 16  1  0  0  0  0
 11 10  1  0  0  0  0
 12 11  2  0  0  0  0
 13 12  1  0  0  0  0
 13  8  2  0  0  0  0
 14  8  1  0  0  0  0
 17  3  1  0  0  0  0
 18 17  1  0  0  0  0
 19 20  1  0  0  0  0
 20 25  1  0  0  0  0
 21 20  1  0  0  0  0
 21 22  1  0  0  0  0
 22 23  1  0  0  0  0
 23 24  1  0  0  0  0
 23 17  1  0  0  0  0
 25 24  1  0  0  0  0
M  END
>  <minimizedAffinity>
-4.58271122

$$$$

 OpenBabel03242511073D

 25 27  0  0  1  0  0  0  0  0999 V2000
   36.6140   31.1740   40.5670 C   0  0  1  0  0  0  0  0  0  0  0  0
   36.2490   30.3810   39.3480 C   0  0  0  0  0  0  0  0  0  0  0  0
   36.7860   29.7200   40.6330 C   0  0  2  0  0  0  0  0  0  0  0  0
   35.7700   31.6380   41.1150 H   0  0  0  0  0  0  0  0  0  0  0  0
   35.1880   30.3010   39.1330 H   0  0  0  0  0  0  0  0  0  0  0  0
   36.9650   30.4990   38.5030 H   0  0  0  0  0  0  0  0  0  0  0  0
   37.8090   29.2590   40.4880 H   0  0  0  0  0  0  0  0  0  0  0  0
   38.7820   34.1520   40.0770 C   0  0  0  0  0  0  0  0  0  0  0  0
   40.0720   33.6020   40.4010 C   0  0  0  0  0  0  0  0  0  0  0  0
   40.1540   32.2280   40.7830 C   0  0  0  0  0  0  0  0  0  0  0  0
   39.0340   31.5020   40.8260 N   0  0  0  0  0  0  0  0  0  0  0  0
   37.8170   32.0590   40.5110 C   0  0  0  0  0  0  0  0  0  0  0  0
   37.7050   33.3700   40.1420 N   0  0  0  0  0  0  0  0  0  0  0  0
   38.7500   35.1930   39.7920 H   0  0  0  0  0  0  0  0  0  0  0  0
   40.9340   34.2510   40.3430 H   0  0  0  0  0  0  0  0  0  0  0  0
   41.1450   31.8650   41.0160 H   0  0  0  0  0  0  0  0  0  0  0  0
   35.8830   28.8550   41.3050 N   0  0  0  0  0  0  0  0  0  0  0  0
   35.6460   29.2870   42.2420 H   0  0  0  0  0  0  0  0  0  0  0  0
   39.2930   26.4990   43.8270 H   0  0  0  0  0  0  0  0  0  0  0  0
   38.9930   27.2640   43.1660 N   0  0  0  0  0  0  0  0  0  0  0  0
   37.8330   27.9750   43.6620 C   0  0  0  0  0  2  0  0  0  0  0  0
   36.5480   27.4100   43.1130 C   0  0  0  0  0  2  0  0  0  0  0  0
   36.5110   27.5830   41.6090 C   0  0  0  0  0  3  0  0  0  0  0  0
   37.9190   27.5440   41.0220 C   0  0  0  0  0  2  0  0  0  0  0  0
   38.7860   26.6560   41.8870 C   0  0  0  0  0  2  0  0  0  0  0  0
  1  3  1  0  0  0  0
  1  4  1  1  0  0  0
  2  1  1  0  0  0  0
  2  3  1  0  0  0  0
  3  7  1  6  0  0  0
  3 17  1  0  0  0  0
  5  2  1  0  0  0  0
  6  2  1  0  0  0  0
  8 13  2  0  0  0  0
  8  9  1  0  0  0  0
  9 10  2  0  0  0  0
 10 11  1  0  0  0  0
 10 16  1  0  0  0  0
 12  1  1  0  0  0  0
 12 11  2  0  0  0  0
 13 12  1  0  0  0  0
 14  8  1  0  0  0  0
 15  9  1  0  0  0  0
 17 23  1  0  0  0  0
 17 18  1  0  0  0  0
 20 21  1  0  0  0  0
 20 19  1  0  0  0  0
 22 21  1  0  0  0  0
 23 22  1  0  0  0  0
 24 23  1  0  0  0  0
 24 25  1  0  0  0  0
 25 20  1  0  0  0  0
M  END
>  <minimizedAffinity>
-4.53448439

$$$$

 OpenBabel03242511073D

 25 27  0  0  1  0  0  0  0  0999 V2000
   39.3010   30.4490   42.8890 C   0  0  1  0  0  0  0  0  0  0  0  0
   40.7690   30.4490   42.5800 C   0  0  0  0  0  0  0  0  0  0  0  0
   39.7280   31.1020   41.6480 C   0  0  2  0  0  0  0  0  0  0  0  0
   38.9850   31.0780   43.7430 H   0  0  0  0  0  0  0  0  0  0  0  0
   41.3840   31.0950   43.1970 H   0  0  0  0  0  0  0  0  0  0  0  0
   41.1640   29.4530   42.2750 H   0  0  0  0  0  0  0  0  0  0  0  0
   39.6350   30.5650   40.6580 H   0  0  0  0  0  0  0  0  0  0  0  0
   38.4580   26.8440   43.2140 C   0  0  0  0  0  0  0  0  0  0  0  0
   37.1410   26.8220   42.6350 C   0  0  0  0  0  0  0  0  0  0  0  0
   36.5820   28.0480   42.1580 C   0  0  0  0  0  0  0  0  0  0  0  0
   37.3000   29.1690   42.2640 N   0  0  0  0  0  0  0  0  0  0  0  0
   38.5560   29.1550   42.8230 C   0  0  0  0  0  0  0  0  0  0  0  0
   39.1180   27.9990   43.2890 N   0  0  0  0  0  0  0  0  0  0  0  0
   38.8550   25.9040   43.5660 H   0  0  0  0  0  0  0  0  0  0  0  0
   36.6200   25.8770   42.5830 H   0  0  0  0  0  0  0  0  0  0  0  0
   35.5910   27.9760   41.7330 H   0  0  0  0  0  0  0  0  0  0  0  0
   39.8310   32.5120   41.5020 N   0  0  0  0  0  0  0  0  0  0  0  0
   38.9830   32.9540   41.9540 H   0  0  0  0  0  0  0  0  0  0  0  0
   37.0520   33.2210   37.5880 H   0  0  0  0  0  0  0  0  0  0  0  0
   37.3950   32.6180   38.3840 N   0  0  0  0  0  0  0  0  0  0  0  0
   37.3850   33.3380   39.6410 C   0  0  0  0  0  2  0  0  0  0  0  0
   38.7190   33.9700   39.9410 C   0  0  0  0  0  2  0  0  0  0  0  0
   39.7730   32.8940   40.1030 C   0  0  0  0  0  3  0  0  0  0  0  0
   39.4450   31.6770   39.2440 C   0  0  0  0  0  2  0  0  0  0  0  0
   38.6900   32.1330   38.0150 C   0  0  0  0  0  2  0  0  0  0  0  0
  1  4  1  1  0  0  0
  2  1  1  0  0  0  0
  2  5  1  0  0  0  0
  3  7  1  6  0  0  0
  3  2  1  0  0  0  0
  3  1  1  0  0  0  0
  6  2  1  0  0  0  0
  8 13  1  0  0  0  0
  8 14  1  0  0  0  0
  9  8  2  0  0  0  0
 10 11  2  0  0  0  0
 10  9  1  0  0  0  0
 11 12  1  0  0  0  0
 12  1  1  0  0  0  0
 12 13  2  0  0  0  0
 15  9  1  0  0  0  0
 16 10  1  0  0  0  0
 17  3  1  0  0  0  0
 17 18  1  0  0  0  0
 19 20  1  0  0  0  0
 20 21  1  0  0  0  0
 21 22  1  0  0  0  0
 22 23  1  0  0  0  0
 23 17  1  0  0  0  0
 24 23  1  0  0  0  0
 25 20  1  0  0  0  0
 25 24  1  0  0  0  0
M  END
>  <minimizedAffinity>
-4.52742815

$$$$

 OpenBabel03242511073D

 25 27  0  0  1  0  0  0  0  0999 V2000
   38.7940   28.0800   43.1070 C   0  0  1  0  0  0  0  0  0  0  0  0
   40.1860   28.6120   42.9320 C   0  0  0  0  0  0  0  0  0  0  0  0
   39.0210   29.0260   42.0100 C   0  0  2  0  0  0  0  0  0  0  0  0
   38.2530   28.4270   44.0090 H   0  0  0  0  0  0  0  0  0  0  0  0
   40.5230   29.3190   43.6840 H   0  0  0  0  0  0  0  0  0  0  0  0
   40.9060   27.8640   42.5300 H   0  0  0  0  0  0  0  0  0  0  0  0
   39.1520   28.6510   40.9510 H   0  0  0  0  0  0  0  0  0  0  0  0
   39.3020   24.4320   42.6120 C   0  0  0  0  0  0  0  0  0  0  0  0
   37.9870   24.0320   42.1870 C   0  0  0  0  0  0  0  0  0  0  0  0
   36.9670   25.0280   42.0910 C   0  0  0  0  0  0  0  0  0  0  0  0
   37.2670   26.2920   42.3960 N   0  0  0  0  0  0  0  0  0  0  0  0
   38.5350   26.6410   42.8000 C   0  0  0  0  0  0  0  0  0  0  0  0
   39.5330   25.7120   42.9020 N   0  0  0  0  0  0  0  0  0  0  0  0
   40.0540   23.6600   42.6750 H   0  0  0  0  0  0  0  0  0  0  0  0
   37.8190   22.9900   41.9560 H   0  0  0  0  0  0  0  0  0  0  0  0
   35.9980   24.6750   41.7670 H   0  0  0  0  0  0  0  0  0  0  0  0
   38.6450   30.3940   42.0670 N   0  0  0  0  0  0  0  0  0  0  0  0
   37.6960   30.4580   42.5300 H   0  0  0  0  0  0  0  0  0  0  0  0
   38.0410   34.3620   39.3410 H   0  0  0  0  0  0  0  0  0  0  0  0
   37.7610   33.7400   40.1460 N   0  0  0  0  0  0  0  0  0  0  0  0
   38.9030   33.3640   40.9530 C   0  0  0  0  0  2  0  0  0  0  0  0
   39.4870   32.0420   40.5260 C   0  0  0  0  0  2  0  0  0  0  0  0
   38.4680   30.9400   40.7350 C   0  0  0  0  0  3  0  0  0  0  0  0
   37.0480   31.4730   40.5740 C   0  0  0  0  0  2  0  0  0  0  0  0
   37.0640   32.6200   39.5880 C   0  0  0  0  0  2  0  0  0  0  0  0
  1  4  1  1  0  0  0
  2  1  1  0  0  0  0
  2  5  1  0  0  0  0
  3  7  1  6  0  0  0
  3 17  1  0  0  0  0
  3  2  1  0  0  0  0
  3  1  1  0  0  0  0
  6  2  1  0  0  0  0
  8 14  1  0  0  0  0
  8 13  1  0  0  0  0
  9  8  2  0  0  0  0
 10  9  1  0  0  0  0
 10 11  2  0  0  0  0
 11 12  1  0  0  0  0
 12 13  2  0  0  0  0
 12  1  1  0  0  0  0
 15  9  1  0  0  0  0
 16 10  1  0  0  0  0
 17 18  1  0  0  0  0
 19 20  1  0  0  0  0
 20 21  1  0  0  0  0
 22 23  1  0  0  0  0
 22 21  1  0  0  0  0
 23 17  1  0  0  0  0
 24 23  1  0  0  0  0
 25 20  1  0  0  0  0
 25 24  1  0  0  0  0
M  END
>  <minimizedAffinity>
-4.47665501

$$$$

 OpenBabel03242511073D

 25 27  0  0  1  0  0  0  0  0999 V2000
   36.8240   27.5020   42.5780 C   0  0  1  0  0  0  0  0  0  0  0  0
   37.3360   28.3820   43.6800 C   0  0  0  0  0  0  0  0  0  0  0  0
   37.3420   28.8210   42.2020 C   0  0  2  0  0  0  0  0  0  0  0  0
   35.7300   27.3340   42.5610 H   0  0  0  0  0  0  0  0  0  0  0  0
   36.5840   28.8050   44.3390 H   0  0  0  0  0  0  0  0  0  0  0  0
   38.3060   28.0450   44.1100 H   0  0  0  0  0  0  0  0  0  0  0  0
   38.3880   28.9260   41.7850 H   0  0  0  0  0  0  0  0  0  0  0  0
   39.6430   25.2340   41.7300 C   0  0  0  0  0  0  0  0  0  0  0  0
   38.9410   23.9920   41.5400 C   0  0  0  0  0  0  0  0  0  0  0  0
   37.5230   23.9730   41.7150 C   0  0  0  0  0  0  0  0  0  0  0  0
   36.8980   25.1050   42.0480 N   0  0  0  0  0  0  0  0  0  0  0  0
   37.5990   26.2750   42.2230 C   0  0  0  0  0  0  0  0  0  0  0  0
   38.9560   26.3270   42.0620 N   0  0  0  0  0  0  0  0  0  0  0  0
   40.7130   25.2200   41.5910 H   0  0  0  0  0  0  0  0  0  0  0  0
   39.5140   23.1170   41.2700 H   0  0  0  0  0  0  0  0  0  0  0  0
   37.0450   23.0160   41.5610 H   0  0  0  0  0  0  0  0  0  0  0  0
   36.5100   29.9270   41.8840 N   0  0  0  0  0  0  0  0  0  0  0  0
   35.6800   29.5700   41.3330 H   0  0  0  0  0  0  0  0  0  0  0  0
   38.4220   30.7160   37.4950 H   0  0  0  0  0  0  0  0  0  0  0  0
   38.3400   30.1490   38.3820 N   0  0  0  0  0  0  0  0  0  0  0  0
   36.9560   29.9050   38.7330 C   0  0  0  0  0  2  0  0  0  0  0  0
   36.4290   30.9340   39.6980 C   0  0  0  0  0  2  0  0  0  0  0  0
   37.1940   30.8550   41.0030 C   0  0  0  0  0  3  0  0  0  0  0  0
   38.6270   30.3890   40.7670 C   0  0  0  0  0  2  0  0  0  0  0  0
   39.0710   30.8470   39.3950 C   0  0  0  0  0  2  0  0  0  0  0  0
  1  4  1  6  0  0  0
  1  2  1  0  0  0  0
  2  6  1  0  0  0  0
  2  5  1  0  0  0  0
  3  7  1  6  0  0  0
  3  1  1  0  0  0  0
  3  2  1  0  0  0  0
  8 13  1  0  0  0  0
  9 10  1  0  0  0  0
  9  8  2  0  0  0  0
 10 11  2  0  0  0  0
 11 12  1  0  0  0  0
 12  1  1  0  0  0  0
 13 12  2  0  0  0  0
 14  8  1  0  0  0  0
 15  9  1  0  0  0  0
 16 10  1  0  0  0  0
 17  3  1  0  0  0  0
 18 17  1  0  0  0  0
 19 20  1  0  0  0  0
 20 21  1  0  0  0  0
 20 25  1  0  0  0  0
 21 22  1  0  0  0  0
 22 23  1  0  0  0  0
 23 17  1  0  0  0  0
 24 23  1  0  0  0  0
 25 24  1  0  0  0  0
M  END
>  <minimizedAffinity>
-4.45606709

$$$$

 OpenBabel03242511073D

 25 27  0  0  1  0  0  0  0  0999 V2000
   36.4720   28.7700   39.9010 C   0  0  1  0  0  0  0  0  0  0  0  0
   35.1040   29.3810   39.8270 C   0  0  0  0  0  0  0  0  0  0  0  0
   36.3900   30.2120   39.6440 C   0  0  2  0  0  0  0  0  0  0  0  0
   36.7460   28.0940   39.0680 H   0  0  0  0  0  0  0  0  0  0  0  0
   34.5200   29.1350   38.9460 H   0  0  0  0  0  0  0  0  0  0  0  0
   34.5910   29.4550   40.8130 H   0  0  0  0  0  0  0  0  0  0  0  0
   36.5510   30.9510   40.4830 H   0  0  0  0  0  0  0  0  0  0  0  0
   37.3860   26.5210   42.7140 C   0  0  0  0  0  0  0  0  0  0  0  0
   37.8600   27.4770   43.6800 C   0  0  0  0  0  0  0  0  0  0  0  0
   37.8570   28.8620   43.3300 C   0  0  0  0  0  0  0  0  0  0  0  0
   37.4140   29.2230   42.1240 N   0  0  0  0  0  0  0  0  0  0  0  0
   36.9680   28.2830   41.2240 C   0  0  0  0  0  0  0  0  0  0  0  0
   36.9580   26.9510   41.5280 N   0  0  0  0  0  0  0  0  0  0  0  0
   37.4000   25.4820   43.0050 H   0  0  0  0  0  0  0  0  0  0  0  0
   38.2030   27.1100   44.6370 H   0  0  0  0  0  0  0  0  0  0  0  0
   38.2230   29.5370   44.0910 H   0  0  0  0  0  0  0  0  0  0  0  0
   36.5730   30.7890   38.3590 N   0  0  0  0  0  0  0  0  0  0  0  0
   37.1720   30.1330   37.7840 H   0  0  0  0  0  0  0  0  0  0  0  0
   40.5790   33.0170   39.9480 H   0  0  0  0  0  0  0  0  0  0  0  0
   39.7220   32.4230   40.1120 N   0  0  0  0  0  0  0  0  0  0  0  0
   39.6060   31.3680   39.1270 C   0  0  0  0  0  2  0  0  0  0  0  0
   38.7350   31.7720   37.9660 C   0  0  0  0  0  2  0  0  0  0  0  0
   37.3220   32.0280   38.4480 C   0  0  0  0  0  3  0  0  0  0  0  0
   37.3210   32.5340   39.8870 C   0  0  0  0  0  2  0  0  0  0  0  0
   38.5970   33.3080   40.1360 C   0  0  0  0  0  2  0  0  0  0  0  0
  1  4  1  6  0  0  0
  1 12  1  0  0  0  0
  2  1  1  0  0  0  0
  2  6  1  0  0  0  0
  3  2  1  0  0  0  0
  3  1  1  0  0  0  0
  3  7  1  1  0  0  0
  5  2  1  0  0  0  0
  8 14  1  0  0  0  0
  8  9  1  0  0  0  0
  9 15  1  0  0  0  0
 10  9  2  0  0  0  0
 10 16  1  0  0  0  0
 11 10  1  0  0  0  0
 12 13  1  0  0  0  0
 12 11  2  0  0  0  0
 13  8  2  0  0  0  0
 17 23  1  0  0  0  0
 17  3  1  0  0  0  0
 18 17  1  0  0  0  0
 19 20  1  0  0  0  0
 20 25  1  0  0  0  0
 21 20  1  0  0  0  0
 22 23  1  0  0  0  0
 22 21  1  0  0  0  0
 23 24  1  0  0  0  0
 24 25  1  0  0  0  0
M  END
>  <minimizedAffinity>
-4.34950399

$$$$
