
 OpenBabel03252506223D

 33 35  0  0  0  0  0  0  0  0999 V2000
   45.1140   36.0430   43.0730 C   0  0  0  0  0  0  0  0  0  0  0  0
   44.1030   35.8900   42.1200 C   0  0  0  0  0  0  0  0  0  0  0  0
   44.2820   34.8950   41.1370 C   0  0  0  0  0  0  0  0  0  0  0  0
   45.4120   34.1470   41.1640 N   0  0  0  0  0  0  0  0  0  0  0  0
   46.3670   34.3380   42.1160 C   0  0  0  0  0  0  0  0  0  0  0  0
   46.2080   35.2790   43.0540 N   0  0  0  0  0  0  0  0  0  0  0  0
   43.2300   36.5120   42.1490 H   0  0  0  0  0  0  0  0  0  0  0  0
   43.5180   34.7430   40.3770 H   0  0  0  0  0  0  0  0  0  0  0  0
   48.8750   35.6820   41.0860 Cl  0  0  0  0  0  0  0  0  0  0  0  0
   48.7430   34.0410   41.5950 C   0  0  0  0  0  0  0  0  0  0  0  0
   47.5670   33.4700   42.0610 C   0  0  0  0  0  0  0  0  0  0  0  0
   47.4430   32.1740   42.4680 C   0  0  0  0  0  0  0  0  0  0  0  0
   48.5590   31.3920   42.4100 C   0  0  0  0  0  0  0  0  0  0  0  0
   49.7900   31.8360   41.9670 C   0  0  0  0  0  0  0  0  0  0  0  0
   49.8260   33.1760   41.5700 C   0  0  0  0  0  0  0  0  0  0  0  0
   46.5230   31.7380   42.8290 H   0  0  0  0  0  0  0  0  0  0  0  0
   48.5200   30.3590   42.7200 H   0  0  0  0  0  0  0  0  0  0  0  0
   50.6860   31.2330   41.9130 H   0  0  0  0  0  0  0  0  0  0  0  0
   50.7600   33.6100   41.2050 H   0  0  0  0  0  0  0  0  0  0  0  0
   44.9310   37.0750   44.0940 C   0  0  0  0  0  3  0  0  0  0  0  0
   45.4710   38.2660   43.9020 C   0  0  0  0  0  3  0  0  0  0  0  0
   45.2750   39.3080   44.9570 C   0  0  0  0  0  0  0  0  0  0  0  0
   44.4770   38.9950   45.6620 H   0  0  0  0  0  0  0  0  0  0  0  0
   46.2030   39.4930   45.5240 H   0  0  0  0  0  0  0  0  0  0  0  0
   44.7990   40.4960   44.2760 N   0  0  0  0  0  0  0  0  0  0  0  0
   45.6760   40.9480   43.8800 H   0  0  0  0  0  0  0  0  0  0  0  0
   46.1820   43.1180   46.7380 H   0  0  0  0  0  0  0  0  0  0  0  0
   45.2070   43.4600   46.8930 N   0  0  0  0  0  0  0  0  0  0  0  0
   44.5660   43.8850   45.6790 C   0  0  0  0  0  2  0  0  0  0  0  0
   44.4160   42.8310   44.6360 C   0  0  0  0  0  2  0  0  0  0  0  0
   44.1610   41.4470   45.1420 C   0  0  0  0  0  3  0  0  0  0  0  0
   44.6360   41.1920   46.5440 C   0  0  0  0  0  2  0  0  0  0  0  0
   44.4110   42.3810   47.4470 C   0  0  0  0  0  2  0  0  0  0  0  0
  1 20  1  0  0  0  0
  2  7  1  0  0  0  0
  2  1  2  0  0  0  0
  3  4  2  0  0  0  0
  3  2  1  0  0  0  0
  4  5  1  0  0  0  0
  5  6  2  0  0  0  0
  6  1  1  0  0  0  0
  8  3  1  0  0  0  0
  9 10  1  0  0  0  0
 10 11  1  0  0  0  0
 11  5  1  0  0  0  0
 11 12  2  0  0  0  0
 12 16  1  0  0  0  0
 13 12  1  0  0  0  0
 13 17  1  0  0  0  0
 14 13  2  0  0  0  0
 15 10  2  0  0  0  0
 15 14  1  0  0  0  0
 18 14  1  0  0  0  0
 19 15  1  0  0  0  0
 21 20  2  0  0  0  0
 21 22  1  0  0  0  0
 22 24  1  0  0  0  0
 22 23  1  0  0  0  0
 25 22  1  0  0  0  0
 25 31  1  0  0  0  0
 26 25  1  0  0  0  0
 27 28  1  0  0  0  0
 28 33  1  0  0  0  0
 29 28  1  0  0  0  0
 30 31  1  0  0  0  0
 30 29  1  0  0  0  0
 31 32  1  0  0  0  0
 32 33  1  0  0  0  0
M  END
>  <minimizedAffinity>
-3.52106142

>  <minimizedRMSD>
0.538811803

$$$$
