
 OpenBabel03252506223D

 33 35  0  0  0  0  0  0  0  0999 V2000
   45.1060   36.1960   43.1900 C   0  0  0  0  0  0  0  0  0  0  0  0
   44.1120   36.0820   42.2140 C   0  0  0  0  0  0  0  0  0  0  0  0
   44.2860   35.0960   41.2210 C   0  0  0  0  0  0  0  0  0  0  0  0
   45.3950   34.3180   41.2620 N   0  0  0  0  0  0  0  0  0  0  0  0
   46.3340   34.4710   42.2370 C   0  0  0  0  0  0  0  0  0  0  0  0
   46.1790   35.4030   43.1840 N   0  0  0  0  0  0  0  0  0  0  0  0
   43.2550   36.7270   42.2320 H   0  0  0  0  0  0  0  0  0  0  0  0
   43.5350   34.9750   40.4420 H   0  0  0  0  0  0  0  0  0  0  0  0
   48.8490   35.7040   41.0920 Cl  0  0  0  0  0  0  0  0  0  0  0  0
   48.6900   34.0920   41.6790 C   0  0  0  0  0  0  0  0  0  0  0  0
   47.5110   33.5720   42.1970 C   0  0  0  0  0  0  0  0  0  0  0  0
   47.3660   32.3000   42.6640 C   0  0  0  0  0  0  0  0  0  0  0  0
   48.4620   31.4890   42.6180 C   0  0  0  0  0  0  0  0  0  0  0  0
   49.6930   31.8820   42.1300 C   0  0  0  0  0  0  0  0  0  0  0  0
   49.7510   33.2010   41.6700 C   0  0  0  0  0  0  0  0  0  0  0  0
   46.4450   31.9030   43.0650 H   0  0  0  0  0  0  0  0  0  0  0  0
   48.4060   30.4720   42.9770 H   0  0  0  0  0  0  0  0  0  0  0  0
   50.5730   31.2550   42.0840 H   0  0  0  0  0  0  0  0  0  0  0  0
   50.6870   33.5950   41.2650 H   0  0  0  0  0  0  0  0  0  0  0  0
   44.9270   37.2180   44.2210 C   0  0  0  0  0  3  0  0  0  0  0  0
   45.4240   38.4260   44.0160 C   0  0  0  0  0  3  0  0  0  0  0  0
   45.2330   39.4580   45.0810 C   0  0  0  0  0  0  0  0  0  0  0  0
   44.3980   39.1680   45.7510 H   0  0  0  0  0  0  0  0  0  0  0  0
   46.1470   39.5950   45.6830 H   0  0  0  0  0  0  0  0  0  0  0  0
   44.8320   40.6760   44.4040 N   0  0  0  0  0  0  0  0  0  0  0  0
   45.6940   40.9770   43.8590 H   0  0  0  0  0  0  0  0  0  0  0  0
   42.5880   43.7800   43.9760 H   0  0  0  0  0  0  0  0  0  0  0  0
   42.7210   43.9930   44.9910 N   0  0  0  0  0  0  0  0  0  0  0  0
   42.3000   42.9170   45.8460 C   0  0  0  0  0  2  0  0  0  0  0  0
   43.0250   41.6290   45.6520 C   0  0  0  0  0  2  0  0  0  0  0  0
   44.4730   41.7450   45.2940 C   0  0  0  0  0  3  0  0  0  0  0  0
   44.8580   43.0420   44.6410 C   0  0  0  0  0  2  0  0  0  0  0  0
   44.1310   44.2200   45.2450 C   0  0  0  0  0  2  0  0  0  0  0  0
  1 20  1  0  0  0  0
  2  7  1  0  0  0  0
  2  1  2  0  0  0  0
  3  4  2  0  0  0  0
  3  2  1  0  0  0  0
  4  5  1  0  0  0  0
  5  6  2  0  0  0  0
  6  1  1  0  0  0  0
  8  3  1  0  0  0  0
  9 10  1  0  0  0  0
 10 11  1  0  0  0  0
 11  5  1  0  0  0  0
 11 12  2  0  0  0  0
 12 16  1  0  0  0  0
 13 12  1  0  0  0  0
 13 17  1  0  0  0  0
 14 13  2  0  0  0  0
 15 10  2  0  0  0  0
 15 14  1  0  0  0  0
 18 14  1  0  0  0  0
 19 15  1  0  0  0  0
 21 20  2  0  0  0  0
 21 22  1  0  0  0  0
 22 24  1  0  0  0  0
 22 23  1  0  0  0  0
 25 22  1  0  0  0  0
 25 31  1  0  0  0  0
 26 25  1  0  0  0  0
 27 28  1  0  0  0  0
 28 33  1  0  0  0  0
 28 29  1  0  0  0  0
 30 29  1  0  0  0  0
 31 30  1  0  0  0  0
 32 33  1  0  0  0  0
 32 31  1  0  0  0  0
M  END
>  <minimizedAffinity>
-2.56107211

>  <minimizedRMSD>
0.301656425

$$$$
