
 OpenBabel03252506223D

 33 35  0  0  0  0  0  0  0  0999 V2000
   45.1100   36.1120   43.1410 C   0  0  0  0  0  0  0  0  0  0  0  0
   44.1070   35.9850   42.1760 C   0  0  0  0  0  0  0  0  0  0  0  0
   44.2830   35.0020   41.1810 C   0  0  0  0  0  0  0  0  0  0  0  0
   45.4020   34.2370   41.2100 N   0  0  0  0  0  0  0  0  0  0  0  0
   46.3500   34.4010   42.1750 C   0  0  0  0  0  0  0  0  0  0  0  0
   46.1930   35.3320   43.1240 N   0  0  0  0  0  0  0  0  0  0  0  0
   43.2430   36.6200   42.2040 H   0  0  0  0  0  0  0  0  0  0  0  0
   43.5250   34.8710   40.4110 H   0  0  0  0  0  0  0  0  0  0  0  0
   48.8630   35.6960   41.0960 Cl  0  0  0  0  0  0  0  0  0  0  0  0
   48.7150   34.0660   41.6330 C   0  0  0  0  0  0  0  0  0  0  0  0
   47.5370   33.5170   42.1210 C   0  0  0  0  0  0  0  0  0  0  0  0
   47.4020   32.2300   42.5500 C   0  0  0  0  0  0  0  0  0  0  0  0
   48.5060   31.4330   42.4920 C   0  0  0  0  0  0  0  0  0  0  0  0
   49.7380   31.8540   42.0290 C   0  0  0  0  0  0  0  0  0  0  0  0
   49.7860   33.1870   41.6100 C   0  0  0  0  0  0  0  0  0  0  0  0
   46.4800   31.8110   42.9280 H   0  0  0  0  0  0  0  0  0  0  0  0
   48.4580   30.4060   42.8200 H   0  0  0  0  0  0  0  0  0  0  0  0
   50.6260   31.2390   41.9750 H   0  0  0  0  0  0  0  0  0  0  0  0
   50.7220   33.6030   41.2280 H   0  0  0  0  0  0  0  0  0  0  0  0
   44.9310   37.1320   44.1740 C   0  0  0  0  0  3  0  0  0  0  0  0
   45.4370   38.3360   43.9780 C   0  0  0  0  0  3  0  0  0  0  0  0
   45.2450   39.3660   45.0450 C   0  0  0  0  0  0  0  0  0  0  0  0
   44.4740   39.0300   45.7690 H   0  0  0  0  0  0  0  0  0  0  0  0
   46.1840   39.5700   45.5880 H   0  0  0  0  0  0  0  0  0  0  0  0
   44.7240   40.5470   44.3850 N   0  0  0  0  0  0  0  0  0  0  0  0
   45.4940   40.8430   43.7150 H   0  0  0  0  0  0  0  0  0  0  0  0
   42.6720   43.7860   44.0000 H   0  0  0  0  0  0  0  0  0  0  0  0
   42.8510   43.9990   45.0070 N   0  0  0  0  0  0  0  0  0  0  0  0
   42.3890   42.9580   45.8850 C   0  0  0  0  0  2  0  0  0  0  0  0
   43.0230   41.6250   45.6810 C   0  0  0  0  0  2  0  0  0  0  0  0
   44.4630   41.6440   45.2760 C   0  0  0  0  0  3  0  0  0  0  0  0
   44.9110   42.9080   44.5990 C   0  0  0  0  0  2  0  0  0  0  0  0
   44.2800   44.1360   45.2150 C   0  0  0  0  0  2  0  0  0  0  0  0
  1 20  1  0  0  0  0
  2  7  1  0  0  0  0
  2  1  2  0  0  0  0
  3  4  2  0  0  0  0
  3  2  1  0  0  0  0
  4  5  1  0  0  0  0
  5  6  2  0  0  0  0
  6  1  1  0  0  0  0
  8  3  1  0  0  0  0
  9 10  1  0  0  0  0
 10 11  1  0  0  0  0
 11  5  1  0  0  0  0
 11 12  2  0  0  0  0
 12 16  1  0  0  0  0
 13 12  1  0  0  0  0
 13 17  1  0  0  0  0
 14 13  2  0  0  0  0
 15 10  2  0  0  0  0
 15 14  1  0  0  0  0
 18 14  1  0  0  0  0
 19 15  1  0  0  0  0
 21 20  2  0  0  0  0
 21 22  1  0  0  0  0
 22 24  1  0  0  0  0
 22 23  1  0  0  0  0
 25 22  1  0  0  0  0
 25 31  1  0  0  0  0
 26 25  1  0  0  0  0
 27 28  1  0  0  0  0
 28 33  1  0  0  0  0
 28 29  1  0  0  0  0
 30 29  1  0  0  0  0
 31 30  1  0  0  0  0
 32 33  1  0  0  0  0
 32 31  1  0  0  0  0
M  END
>  <minimizedAffinity>
-2.57688475

>  <minimizedRMSD>
0.316490233

$$$$
