REMARK  Name = 
REMARK  5 active torsions:
REMARK  status: ('A' for Active; 'I' for Inactive)
REMARK    1  A    between atoms: C_1  and  C_14
REMARK    2  A    between atoms: C_5  and  C_9
REMARK    3  A    between atoms: C_15  and  C_16
REMARK    4  A    between atoms: C_16  and  N_17
REMARK    5  A    between atoms: N_17  and  C_33
REMARK                            x       y       z     vdW  Elec       q    Type
REMARK                         _______ _______ _______ _____ _____    ______ ____
ROOT
ATOM      1  C   UNL     1      45.133  36.007  43.056  0.00  0.00    +0.000 A 
ATOM      2  C   UNL     1      44.142  35.802  42.092  0.00  0.00    +0.000 A 
ATOM      3  C   UNL     1      44.373  34.803  41.124  0.00  0.00    +0.000 A 
ATOM      4  N   UNL     1      45.531  34.100  41.176  0.00  0.00    +0.000 NA
ATOM      5  C   UNL     1      46.465  34.340  42.138  0.00  0.00    +0.000 A 
ATOM      6  N   UNL     1      46.256  35.286  43.062  0.00  0.00    +0.000 NA
ATOM      7  H   UNL     1      43.245  36.390  42.101  0.00  0.00    +0.000 HD
ATOM      8  H   UNL     1      43.626  34.612  40.356  0.00  0.00    +0.000 HD
ENDROOT
BRANCH   5  11
ATOM      9 CL   UNL     1      48.958  35.803  41.244  0.00  0.00    +0.000 Cl
ATOM     10  C   UNL     1      48.869  34.146  41.707  0.00  0.00    +0.000 A 
ATOM     11  C   UNL     1      47.698  33.519  42.111  0.00  0.00    +0.000 A 
ATOM     12  C   UNL     1      47.608  32.210  42.480  0.00  0.00    +0.000 A 
ATOM     13  C   UNL     1      48.754  31.472  42.448  0.00  0.00    +0.000 A 
ATOM     14  C   UNL     1      49.984  31.973  42.067  0.00  0.00    +0.000 A 
ATOM     15  C   UNL     1      49.984  33.323  41.704  0.00  0.00    +0.000 A 
ATOM     16  H   UNL     1      46.692  31.730  42.793  0.00  0.00    +0.000 HD
ATOM     17  H   UNL     1      48.743  30.430  42.731  0.00  0.00    +0.000 HD
ATOM     18  H   UNL     1      50.904  31.405  42.034  0.00  0.00    +0.000 HD
ATOM     19  H   UNL     1      50.915  33.801  41.388  0.00  0.00    +0.000 HD
ENDBRANCH   5  11
BRANCH   1  20
ATOM     20  C   UNL     1      44.896  37.043  44.061  0.00  0.00    +0.000 C 
ATOM     21  C   UNL     1      45.474  38.222  43.912  0.00  0.00    +0.000 C 
BRANCH  21  22
ATOM     22  C   UNL     1      45.221  39.269  44.950  0.00  0.00    +0.000 C 
ATOM     23  H   UNL     1      44.370  38.971  45.596  0.00  0.00    +0.000 HD
ATOM     24  H   UNL     1      46.110  39.439  45.581  0.00  0.00    +0.000 HD
BRANCH  22  25
ATOM     25  N   UNL     1      44.816  40.464  44.236  0.00  0.00    +0.000 NA
ATOM     26  H   UNL     1      45.656  40.715  43.634  0.00  0.00    +0.000 HD
BRANCH  25  31
ATOM     27  H   UNL     1      41.664  41.513  46.191  0.00  0.00    +0.000 HD
ATOM     28  N   UNL     1      42.211  42.295  46.616  0.00  0.00    +0.000 NA
ATOM     29  C   UNL     1      43.375  41.838  47.325  0.00  0.00    +0.000 C 
ATOM     30  C   UNL     1      44.378  41.108  46.499  0.00  0.00    +0.000 C 
ATOM     31  C   UNL     1      44.530  41.583  45.090  0.00  0.00    +0.000 C 
ATOM     32  C   UNL     1      43.331  42.298  44.533  0.00  0.00    +0.000 C 
ATOM     33  C   UNL     1      42.667  43.181  45.563  0.00  0.00    +0.000 C 
ENDBRANCH  25  31
ENDBRANCH  22  25
ENDBRANCH  21  22
ENDBRANCH   1  20
TORSDOF 5
