
 OpenBabel03252506213D

 33 35  0  0  0  0  0  0  0  0999 V2000
   45.4200   34.9300   42.1190 C   0  0  0  0  0  0  0  0  0  0  0  0
   44.6860   34.5020   41.0090 C   0  0  0  0  0  0  0  0  0  0  0  0
   45.2710   33.5230   40.1810 C   0  0  0  0  0  0  0  0  0  0  0  0
   46.5020   33.0510   40.4980 N   0  0  0  0  0  0  0  0  0  0  0  0
   47.1760   33.5030   41.5920 C   0  0  0  0  0  0  0  0  0  0  0  0
   46.6290   34.4320   42.3860 N   0  0  0  0  0  0  0  0  0  0  0  0
   43.7150   34.9120   40.8090 H   0  0  0  0  0  0  0  0  0  0  0  0
   44.7320   33.1620   39.3070 H   0  0  0  0  0  0  0  0  0  0  0  0
   49.4070   35.5260   41.8780 Cl  0  0  0  0  0  0  0  0  0  0  0  0
   49.5720   33.8150   41.9930 C   0  0  0  0  0  0  0  0  0  0  0  0
   48.5150   32.9260   41.8540 C   0  0  0  0  0  0  0  0  0  0  0  0
   48.6260   31.5700   41.9410 C   0  0  0  0  0  0  0  0  0  0  0  0
   49.8670   31.0600   42.1830 C   0  0  0  0  0  0  0  0  0  0  0  0
   51.0010   31.8320   42.3420 C   0  0  0  0  0  0  0  0  0  0  0  0
   50.7960   33.2110   42.2370 C   0  0  0  0  0  0  0  0  0  0  0  0
   47.7970   30.8860   41.8320 H   0  0  0  0  0  0  0  0  0  0  0  0
   50.0150   29.9930   42.2640 H   0  0  0  0  0  0  0  0  0  0  0  0
   51.9940   31.4470   42.5340 H   0  0  0  0  0  0  0  0  0  0  0  0
   51.6400   33.8970   42.3480 H   0  0  0  0  0  0  0  0  0  0  0  0
   44.8160   35.9460   42.9800 C   0  0  0  0  0  0  0  0  0  0  0  0
   45.5410   36.9890   43.3440 C   0  0  0  0  0  0  0  0  0  0  0  0
   44.9070   38.0180   44.2250 C   0  0  0  0  0  0  0  0  0  0  0  0
   43.8020   37.9200   44.1960 H   0  0  0  0  0  0  0  0  0  0  0  0
   45.2480   37.9240   45.2700 H   0  0  0  0  0  0  0  0  0  0  0  0
   45.2360   39.3080   43.6520 N   0  0  0  0  0  0  0  0  0  0  0  0
   46.1470   39.1450   43.1290 H   0  0  0  0  0  0  0  0  0  0  0  0
   42.8790   41.1670   46.0690 H   0  0  0  0  0  0  0  0  0  0  0  0
   43.7120   41.6400   46.4870 N   0  0  0  0  0  0  0  0  0  0  0  0
   44.6790   40.7090   47.0030 C   0  0  0  0  0  0  0  0  0  0  0  0
   45.2630   39.7770   45.9990 C   0  0  0  0  0  0  0  0  0  0  0  0
   45.4600   40.3380   44.6270 C   0  0  0  0  0  0  0  0  0  0  0  0
   44.5710   41.5010   44.2890 C   0  0  0  0  0  0  0  0  0  0  0  0
   44.3730   42.4280   45.4650 C   0  0  0  0  0  0  0  0  0  0  0  0
  1  6  1  0  0  0  0
  1 20  1  0  0  0  0
  2  1  2  0  0  0  0
  3  4  2  0  0  0  0
  3  2  1  0  0  0  0
  4  5  1  0  0  0  0
  5 11  1  0  0  0  0
  5  6  2  0  0  0  0
  7  2  1  0  0  0  0
  8  3  1  0  0  0  0
  9 10  1  0  0  0  0
 10 15  1  0  0  0  0
 11 12  1  0  0  0  0
 11 10  2  0  0  0  0
 12 13  2  0  0  0  0
 13 17  1  0  0  0  0
 13 14  1  0  0  0  0
 14 18  1  0  0  0  0
 15 14  2  0  0  0  0
 15 19  1  0  0  0  0
 16 12  1  0  0  0  0
 20 21  2  0  0  0  0
 21 22  1  0  0  0  0
 22 24  1  0  0  0  0
 23 22  1  0  0  0  0
 25 22  1  0  0  0  0
 25 31  1  0  0  0  0
 26 25  1  0  0  0  0
 27 28  1  0  0  0  0
 28 29  1  0  0  0  0
 30 29  1  0  0  0  0
 31 30  1  0  0  0  0
 32 31  1  0  0  0  0
 32 33  1  0  0  0  0
 33 28  1  0  0  0  0
M  END
>  <minimizedAffinity>
-4.49465513

>  <minimizedRMSD>
1.40700555

$$$$
