REMARK  Name = 
REMARK  4 active torsions:
REMARK  status: ('A' for Active; 'I' for Inactive)
REMARK    1  A    between atoms: C_2  and  C_11
REMARK    2  A    between atoms: C_3  and  C_7
REMARK    3  A    between atoms: C_11  and  N_12
REMARK    4  A    between atoms: N_12  and  C_22
REMARK                            x       y       z     vdW  Elec       q    Type
REMARK                         _______ _______ _______ _____ _____    ______ ____
ROOT
ATOM      1  C   UNL     1      44.932  34.915  45.034  0.00  0.00    +0.000 A 
ATOM      2  C   UNL     1      45.443  35.179  43.755  0.00  0.00    +0.000 A 
ATOM      3  C   UNL     1      46.516  34.396  43.359  0.00  0.00    +0.000 A 
ATOM      4  N   UNL     1      47.015  33.443  44.190  0.00  0.00    +0.000 NA
ATOM      5  C   UNL     1      46.491  33.229  45.405  0.00  0.00    +0.000 A 
ATOM      6  N   UNL     1      45.446  33.965  45.832  0.00  0.00    +0.000 NA
ATOM      7  H   UNL     1      44.093  35.507  45.377  0.00  0.00    +0.000 HD
ATOM      8  H   UNL     1      46.961  32.448  45.985  0.00  0.00    +0.000 HD
ENDROOT
BRANCH   3   9
ATOM      9  C   UNL     1      47.023  34.681  42.007  0.00  0.00    +0.000 C 
ATOM     10  F   UNL     1      47.967  33.707  41.671  0.00  0.00    +0.000 F 
ATOM     11  F   UNL     1      47.690  35.871  42.069  0.00  0.00    +0.000 F 
ATOM     12  F   UNL     1      46.056  34.608  41.055  0.00  0.00    +0.000 F 
ENDBRANCH   3   9
BRANCH   2  13
ATOM     13  C   UNL     1      44.865  36.229  42.919  0.00  0.00    +0.000 C 
ATOM     14  H   UNL     1      45.344  36.467  41.992  0.00  0.00    +0.000 HD
ATOM     15  H   UNL     1      43.770  36.062  42.716  0.00  0.00    +0.000 HD
BRANCH  13  16
ATOM     16  N   UNL     1      44.997  37.517  43.614  0.00  0.00    +0.000 NA
ATOM     17  H   UNL     1      44.508  37.452  44.523  0.00  0.00    +0.000 HD
BRANCH  16  22
ATOM     18  H   UNL     1      46.170  40.361  39.931  0.00  0.00    +0.000 HD
ATOM     19  N   UNL     1      45.735  39.861  40.731  0.00  0.00    +0.000 NA
ATOM     20  C   UNL     1      44.486  39.222  40.373  0.00  0.00    +0.000 C 
ATOM     21  C   UNL     1      44.219  38.175  41.414  0.00  0.00    +0.000 C 
ATOM     22  C   UNL     1      44.430  38.605  42.813  0.00  0.00    +0.000 C 
ATOM     23  C   UNL     1      45.139  39.874  43.066  0.00  0.00    +0.000 C 
ATOM     24  C   UNL     1      45.465  40.695  41.861  0.00  0.00    +0.000 C 
ENDBRANCH  16  22
ENDBRANCH  13  16
ENDBRANCH   2  13
TORSDOF 4
