
 OpenBabel03242519033D

 30 32  0  0  1  0  0  0  0  0999 V2000
   47.4650   34.2300   42.3320 N   0  0  0  0  0  0  0  0  0  0  0  0
   47.9960   35.0160   41.2520 C   0  0  0  0  0  0  0  0  0  0  0  0
   47.9140   33.9670   40.1560 C   0  0  2  0  0  0  0  0  0  0  0  0
   48.5920   32.8050   40.8140 C   0  0  0  0  0  0  0  0  0  0  0  0
   48.1190   32.9270   42.2530 C   0  0  0  0  0  0  0  0  0  0  0  0
   47.3560   35.8840   40.9960 H   0  0  0  0  0  0  0  0  0  0  0  0
   49.0450   35.2760   41.3730 H   0  0  0  0  0  0  0  0  0  0  0  0
   46.8980   33.6920   39.9000 H   0  0  0  0  0  0  0  0  0  0  0  0
   48.1660   31.8570   40.4120 H   0  0  0  0  0  0  0  0  0  0  0  0
   49.6950   32.8380   40.7320 H   0  0  0  0  0  0  0  0  0  0  0  0
   49.0320   32.9470   42.8960 H   0  0  0  0  0  0  0  0  0  0  0  0
   47.4110   32.1340   42.5260 H   0  0  0  0  0  0  0  0  0  0  0  0
   44.6900   35.7860   44.2720 C   0  0  0  0  0  0  0  0  0  0  0  0
   45.5840   35.5650   43.2320 C   0  0  0  0  0  0  0  0  0  0  0  0
   46.5200   34.5450   43.3110 C   0  0  0  0  0  0  0  0  0  0  0  0
   46.5070   33.7800   44.4640 N   0  0  0  0  0  0  0  0  0  0  0  0
   45.6340   34.0000   45.4730 C   0  0  0  0  0  0  0  0  0  0  0  0
   44.7270   35.0050   45.3730 N   0  0  0  0  0  0  0  0  0  0  0  0
   43.9590   36.5810   44.2120 H   0  0  0  0  0  0  0  0  0  0  0  0
   45.5920   36.1600   42.3390 H   0  0  0  0  0  0  0  0  0  0  0  0
   45.6900   33.3530   46.3460 H   0  0  0  0  0  0  0  0  0  0  0  0
   48.7200   34.3840   39.0330 N   0  0  0  0  0  0  0  0  0  0  0  0
   49.6880   34.0820   39.0700 H   0  0  0  0  0  0  0  0  0  0  0  0
   47.0700   30.7810   37.0840 H   0  0  0  0  0  0  0  0  0  0  0  0
   47.3310   31.6420   36.5380 N   0  0  0  0  0  0  0  0  0  0  0  0
   48.6670   31.9730   36.9250 C   0  0  0  0  0  2  0  0  0  0  0  0
   48.8810   33.4670   36.7670 C   0  0  0  0  0  2  0  0  0  0  0  0
   48.1140   34.2670   37.7590 C   0  0  0  0  0  3  0  0  0  0  0  0
   46.7850   33.5460   37.9780 C   0  0  0  0  0  2  0  0  0  0  0  0
   46.4080   32.7270   36.7640 C   0  0  0  0  0  2  0  0  0  0  0  0
  1 15  1  0  0  0  0
  2  7  1  0  0  0  0
  2  1  1  0  0  0  0
  3  8  1  6  0  0  0
  3  4  1  0  0  0  0
  3  2  1  0  0  0  0
  4  5  1  0  0  0  0
  5  1  1  0  0  0  0
  5 12  1  0  0  0  0
  5 11  1  0  0  0  0
  6  2  1  0  0  0  0
  9  4  1  0  0  0  0
 10  4  1  0  0  0  0
 13 18  1  0  0  0  0
 14 15  1  0  0  0  0
 14 13  2  0  0  0  0
 15 16  2  0  0  0  0
 16 17  1  0  0  0  0
 17 21  1  0  0  0  0
 18 17  2  0  0  0  0
 19 13  1  0  0  0  0
 20 14  1  0  0  0  0
 22 23  1  0  0  0  0
 22  3  1  0  0  0  0
 25 30  1  0  0  0  0
 25 26  1  0  0  0  0
 25 24  1  0  0  0  0
 27 26  1  0  0  0  0
 27 28  1  0  0  0  0
 28 29  1  0  0  0  0
 28 22  1  0  0  0  0
 30 29  1  0  0  0  0
M  END
>  <minimizedAffinity>
-4.75373936

>  <minimizedRMSD>
1.22929764

$$$$
