REMARK  Name = 
REMARK  3 active torsions:
REMARK  status: ('A' for Active; 'I' for Inactive)
REMARK    1  A    between atoms: N_1  and  C_8
REMARK    2  A    between atoms: C_3  and  N_12
REMARK    3  A    between atoms: N_12  and  C_28
REMARK                            x       y       z     vdW  Elec       q    Type
REMARK                         _______ _______ _______ _____ _____    ______ ____
ROOT
ATOM      1  N   UNL     1      47.159  34.240  42.383  0.00  0.00    +0.000 N 
ATOM      2  C   UNL     1      48.004  35.041  41.540  0.00  0.00    +0.000 C 
ATOM      3  C   UNL     1      47.684  34.375  40.212  0.00  0.00    +0.000 C 
ATOM      4  C   UNL     1      47.895  32.932  40.552  0.00  0.00    +0.000 C 
ATOM      5  C   UNL     1      47.364  32.854  41.974  0.00  0.00    +0.000 C 
ATOM      6  H   UNL     1      47.701  36.107  41.514  0.00  0.00    +0.000 HD
ATOM      7  H   UNL     1      49.067  34.901  41.724  0.00  0.00    +0.000 HD
ATOM      8  H   UNL     1      46.659  34.523  39.894  0.00  0.00    +0.000 HD
ATOM      9  H   UNL     1      47.223  32.305  39.921  0.00  0.00    +0.000 HD
ATOM     10  H   UNL     1      48.953  32.615  40.482  0.00  0.00    +0.000 HD
ATOM     11  H   UNL     1      48.177  32.414  42.602  0.00  0.00    +0.000 HD
ATOM     12  H   UNL     1      46.419  32.300  42.035  0.00  0.00    +0.000 HD
ENDROOT
BRANCH   1  15
ATOM     13  C   UNL     1      44.577  35.944  44.461  0.00  0.00    +0.000 A 
ATOM     14  C   UNL     1      45.402  35.675  43.376  0.00  0.00    +0.000 A 
ATOM     15  C   UNL     1      46.285  34.606  43.409  0.00  0.00    +0.000 A 
ATOM     16  N   UNL     1      46.291  33.843  44.564  0.00  0.00    +0.000 NA
ATOM     17  C   UNL     1      45.486  34.110  45.616  0.00  0.00    +0.000 A 
ATOM     18  N   UNL     1      44.630  35.162  45.561  0.00  0.00    +0.000 NA
ATOM     19  H   UNL     1      43.888  36.777  44.437  0.00  0.00    +0.000 HD
ATOM     20  H   UNL     1      45.395  36.268  42.482  0.00  0.00    +0.000 HD
ATOM     21  H   UNL     1      45.553  33.461  46.487  0.00  0.00    +0.000 HD
ENDBRANCH   1  15
BRANCH   3  22
ATOM     22  N   UNL     1      48.674  34.758  39.234  0.00  0.00    +0.000 NA
ATOM     23  H   UNL     1      49.630  34.756  39.574  0.00  0.00    +0.000 HD
BRANCH  22  28
ATOM     24  H   UNL     1      47.310  30.712  38.104  0.00  0.00    +0.000 HD
ATOM     25  N   UNL     1      47.843  31.330  37.438  0.00  0.00    +0.000 NA
ATOM     26  C   UNL     1      49.009  31.766  38.140  0.00  0.00    +0.000 C 
ATOM     27  C   UNL     1      49.450  33.111  37.594  0.00  0.00    +0.000 C 
ATOM     28  C   UNL     1      48.508  34.211  37.939  0.00  0.00    +0.000 C 
ATOM     29  C   UNL     1      47.101  33.617  37.898  0.00  0.00    +0.000 C 
ATOM     30  C   UNL     1      47.041  32.431  36.962  0.00  0.00    +0.000 C 
ENDBRANCH  22  28
ENDBRANCH   3  22
TORSDOF 3
