
     RDKit          3D

 39 41  0  0  0  0  0  0  0  0999 V2000
   47.1589   34.2397   42.3825 N   0  0  0  0  0  0  0  0  0  0  0  0
   48.0035   35.0415   41.5403 C   0  0  0  0  0  0  0  0  0  0  0  0
   47.6840   34.3754   40.2116 C   0  0  2  0  0  0  0  0  0  0  0  0
   47.8955   32.9316   40.5516 C   0  0  0  0  0  0  0  0  0  0  0  0
   47.3641   32.8541   41.9739 C   0  0  0  0  0  0  0  0  0  0  0  0
   44.5771   35.9441   44.4613 C   0  0  0  0  0  0  0  0  0  0  0  0
   45.4020   35.6751   43.3757 C   0  0  0  0  0  0  0  0  0  0  0  0
   46.2846   34.6061   43.4088 C   0  0  0  0  0  0  0  0  0  0  0  0
   46.2908   33.8430   44.5642 N   0  0  0  0  0  0  0  0  0  0  0  0
   45.4865   34.1097   45.6158 C   0  0  0  0  0  0  0  0  0  0  0  0
   44.6299   35.1623   45.5607 N   0  0  0  0  0  0  0  0  0  0  0  0
   48.6740   34.7584   39.2336 N   0  0  0  0  0  0  0  0  0  0  0  0
   47.7011   36.1066   41.5137 H   0  0  0  0  0  0  0  0  0  0  0  0
   49.0669   34.9010   41.7244 H   0  0  0  0  0  0  0  0  0  0  0  0
   46.6592   34.5232   39.8939 H   0  0  0  0  0  0  0  0  0  0  0  0
   47.2226   32.3048   39.9211 H   0  0  0  0  0  0  0  0  0  0  0  0
   48.9525   32.6152   40.4824 H   0  0  0  0  0  0  0  0  0  0  0  0
   48.1772   32.4137   42.6023 H   0  0  0  0  0  0  0  0  0  0  0  0
   46.4189   32.3001   42.0346 H   0  0  0  0  0  0  0  0  0  0  0  0
   43.8883   36.7773   44.4370 H   0  0  0  0  0  0  0  0  0  0  0  0
   45.3946   36.2684   42.4819 H   0  0  0  0  0  0  0  0  0  0  0  0
   45.5528   33.4612   46.4873 H   0  0  0  0  0  0  0  0  0  0  0  0
   49.6300   34.7557   39.5736 H   0  0  0  0  0  0  0  0  0  0  0  0
   46.0438   36.1453   35.9678 H   0  0  0  0  0  0  0  0  0  0  0  0
   46.4352   35.1675   35.9943 N   0  0  0  0  0  0  0  0  0  0  0  0
   46.1300   34.6480   37.2903 C   0  0  0  0  0  0  0  0  0  0  0  0
   47.1702   33.6126   37.6749 C   0  0  0  0  0  0  0  0  0  0  0  0
   48.5077   34.2106   37.9392 C   0  0  0  0  0  0  0  0  0  0  0  0
   48.6785   35.3658   36.9552 C   0  0  0  0  0  0  0  0  0  0  0  0
   47.8496   35.1439   35.7101 C   0  0  0  0  0  0  0  0  0  0  0  0
   46.0682   35.4129   38.0849 H   0  0  0  0  0  0  0  0  0  0  0  0
   45.1529   34.0977   37.2492 H   0  0  0  0  0  0  0  0  0  0  0  0
   47.2898   32.9745   36.7503 H   0  0  0  0  0  0  0  0  0  0  0  0
   46.7216   33.0296   38.4768 H   0  0  0  0  0  0  0  0  0  0  0  0
   49.3532   33.5133   37.6864 H   0  0  0  0  0  0  0  0  0  0  0  0
   49.7175   35.4805   36.6452 H   0  0  0  0  0  0  0  0  0  0  0  0
   48.3241   36.2923   37.4346 H   0  0  0  0  0  0  0  0  0  0  0  0
   48.0603   36.0104   35.0435 H   0  0  0  0  0  0  0  0  0  0  0  0
   48.1882   34.2549   35.1655 H   0  0  0  0  0  0  0  0  0  0  0  0
  1  8  1  0
  2  1  1  0
  3  4  1  0
  3  2  1  0
  4  5  1  0
  5  1  1  0
  6 11  2  0
  7  8  2  0
  7  6  1  0
  8  9  1  0
  9 10  2  0
 11 10  1  0
 12  3  1  0
  2 13  1  0
  2 14  1  0
  3 15  1  6
  4 16  1  0
  4 17  1  0
  5 18  1  0
  5 19  1  0
  6 20  1  0
  7 21  1  0
 10 22  1  0
 12 23  1  0
 24 25  1  0
 25 26  1  0
 26 27  1  0
 27 28  1  0
 28 29  1  0
 29 30  1  0
 30 25  1  0
 26 31  1  0
 26 32  1  0
 27 33  1  0
 27 34  1  0
 28 35  1  0
 29 36  1  0
 29 37  1  0
 30 38  1  0
 30 39  1  0
 12 28  1  0
M  ISO  8  13  13  14  13  15  13  16  13  17  13  18  13  19  13  20  14
M  ISO  4  21  14  22  14  23   5  24   5
M  END
>  <DihAtoms>  (1) 
2,11,27,26

>  <DihDeg>  (1) 
60.0230770539469

$$$$
