
 OpenBabel03252507303D

 47 50  0  0  1  0  0  0  0  0999 V2000
   46.9730   32.7800   45.5360 C   0  0  0  0  0  0  0  0  0  0  0  0
   45.8800   33.4590   46.0560 C   0  0  0  0  0  0  0  0  0  0  0  0
   45.1930   34.3990   45.2510 C   0  0  0  0  0  0  0  0  0  0  0  0
   45.6820   34.5810   43.9580 N   0  0  0  0  0  0  0  0  0  0  0  0
   46.7420   33.8940   43.5210 C   0  0  0  0  0  0  0  0  0  0  0  0
   47.3740   33.0110   44.2930 N   0  0  0  0  0  0  0  0  0  0  0  0
   45.3700   33.5070   46.9980 H   0  0  0  0  0  0  0  0  0  0  0  0
   44.3530   35.0000   45.4720 H   0  0  0  0  0  0  0  0  0  0  0  0
   47.6270   31.8140   46.3930 C   0  0  2  0  0  0  0  0  0  0  0  0
   47.4280   30.3580   45.8700 C   0  0  0  0  0  0  0  0  0  0  0  0
   48.2640   29.4300   46.6850 C   0  0  0  0  0  0  0  0  0  0  0  0
   48.2070   29.6330   48.1640 C   0  0  0  0  0  0  0  0  0  0  0  0
   48.1580   31.0140   48.5720 C   0  0  0  0  0  0  0  0  0  0  0  0
   47.1590   31.8690   47.7640 C   0  0  2  0  0  0  0  0  0  0  0  0
   48.7340   31.9350   46.3120 H   0  0  0  0  0  0  0  0  0  0  0  0
   47.8020   30.4010   44.8270 H   0  0  0  0  0  0  0  0  0  0  0  0
   46.3770   30.1000   45.8000 H   0  0  0  0  0  0  0  0  0  0  0  0
   47.9110   28.3810   46.4980 H   0  0  0  0  0  0  0  0  0  0  0  0
   49.2740   29.4560   46.2260 H   0  0  0  0  0  0  0  0  0  0  0  0
   47.8420   28.8120   48.7810 H   0  0  0  0  0  0  0  0  0  0  0  0
   49.3210   29.4050   48.4150 H   0  0  0  0  0  0  0  0  0  0  0  0
   49.1010   31.6150   48.5700 H   0  0  0  0  0  0  0  0  0  0  0  0
   47.7700   31.0890   49.6270 H   0  0  0  0  0  0  0  0  0  0  0  0
   47.2400   32.8250   48.2830 H   0  0  0  0  0  0  0  0  0  0  0  0
   45.8340   31.2530   47.8640 N   0  0  0  0  0  0  0  0  0  0  0  0
   45.1490   30.6870   48.9540 C   0  0  0  0  0  0  0  0  0  0  0  0
   44.5770   31.3930   49.8620 O   0  0  0  0  0  0  0  0  0  0  0  0
   45.1280   29.2600   48.9710 N   0  0  0  0  0  0  0  0  0  0  0  0
   45.2050   31.0970   46.9890 H   0  0  0  0  0  0  0  0  0  0  0  0
   45.4370   28.3950   49.4600 H   0  0  0  0  0  0  0  0  0  0  0  0
   44.7110   28.5110   48.3700 H   0  0  0  0  0  0  0  0  0  0  0  0
   47.2150   34.1470   42.1560 C   0  0  0  0  0  0  0  0  0  0  0  0
   48.1370   35.1360   41.8930 C   0  0  0  0  0  0  0  0  0  0  0  0
   48.6340   35.4410   40.6520 C   0  0  0  0  0  0  0  0  0  0  0  0
   48.1250   34.6550   39.6300 C   0  0  0  0  0  0  0  0  0  0  0  0
   47.2040   33.6630   39.8680 C   0  0  0  0  0  0  0  0  0  0  0  0
   46.7470   33.4080   41.1380 N   0  0  0  0  0  0  0  0  0  0  0  0
   48.4910   35.7100   42.7460 H   0  0  0  0  0  0  0  0  0  0  0  0
   49.3590   36.2260   40.4880 H   0  0  0  0  0  0  0  0  0  0  0  0
   48.4650   34.8300   38.6160 H   0  0  0  0  0  0  0  0  0  0  0  0
   46.6830   32.8600   38.8180 N   0  0  0  0  0  0  0  0  0  0  0  0
   47.5120   32.2850   37.7850 C   0  0  0  0  0  2  0  0  0  0  0  0
   46.7220   31.9350   36.5470 C   0  0  0  0  0  2  0  0  0  0  0  0
   45.6230   32.9390   36.2760 C   0  0  0  0  0  3  0  0  0  0  0  0
   46.0570   33.9070   35.9290 H   0  0  0  0  0  0  0  0  0  0  0  0
   44.7340   33.1910   37.4480 C   0  0  0  0  0  2  0  0  0  0  0  0
   45.2710   32.5580   38.7090 C   0  0  0  0  0  2  0  0  0  0  0  0
  1  2  1  0  0  0  0
  1  9  1  0  0  0  0
  2  7  1  0  0  0  0
  3  8  1  0  0  0  0
  3  2  2  0  0  0  0
  4  3  1  0  0  0  0
  5  4  2  0  0  0  0
  5  6  1  0  0  0  0
  6  1  2  0  0  0  0
  9 15  1  6  0  0  0
  9 14  1  0  0  0  0
 10  9  1  0  0  0  0
 10 11  1  0  0  0  0
 11 12  1  0  0  0  0
 12 21  1  0  0  0  0
 12 13  1  0  0  0  0
 12 20  1  0  0  0  0
 13 23  1  0  0  0  0
 14 25  1  0  0  0  0
 14 24  1  1  0  0  0
 14 13  1  0  0  0  0
 16 10  1  0  0  0  0
 17 10  1  0  0  0  0
 18 11  1  0  0  0  0
 19 11  1  0  0  0  0
 22 13  1  0  0  0  0
 25 26  1  0  0  0  0
 26 28  1  0  0  0  0
 26 27  2  0  0  0  0
 28 30  1  0  0  0  0
 29 25  1  0  0  0  0
 31 28  1  0  0  0  0
 32  5  1  0  0  0  0
 33 32  1  0  0  0  0
 33 38  1  0  0  0  0
 34 33  2  0  0  0  0
 35 36  2  0  0  0  0
 35 34  1  0  0  0  0
 36 37  1  0  0  0  0
 37 32  2  0  0  0  0
 39 34  1  0  0  0  0
 40 35  1  0  0  0  0
 41 36  1  0  0  0  0
 42 41  1  0  0  0  0
 43 42  1  0  0  0  0
 44 43  1  0  0  0  0
 44 46  1  0  0  0  0
 45 44  1  0  0  0  0
 46 47  1  0  0  0  0
 47 41  1  0  0  0  0
M  END
>  <minimizedAffinity>
-6.68705702

>  <minimizedRMSD>
0.204633161

$$$$
