
 OpenBabel03252507303D

 47 50  0  0  1  0  0  0  0  0999 V2000
   46.9970   32.7380   45.5240 C   0  0  0  0  0  0  0  0  0  0  0  0
   45.8930   33.4000   46.0420 C   0  0  0  0  0  0  0  0  0  0  0  0
   45.2160   34.3560   45.2470 C   0  0  0  0  0  0  0  0  0  0  0  0
   45.7260   34.5710   43.9690 N   0  0  0  0  0  0  0  0  0  0  0  0
   46.7970   33.8990   43.5340 C   0  0  0  0  0  0  0  0  0  0  0  0
   47.4200   33.0000   44.2940 N   0  0  0  0  0  0  0  0  0  0  0  0
   45.3660   33.4210   46.9750 H   0  0  0  0  0  0  0  0  0  0  0  0
   44.3700   34.9470   45.4690 H   0  0  0  0  0  0  0  0  0  0  0  0
   47.6410   31.7530   46.3690 C   0  0  2  0  0  0  0  0  0  0  0  0
   47.4100   30.3050   45.8370 C   0  0  0  0  0  0  0  0  0  0  0  0
   48.2350   29.3550   46.6390 C   0  0  0  0  0  0  0  0  0  0  0  0
   48.1960   29.5490   48.1190 C   0  0  0  0  0  0  0  0  0  0  0  0
   48.1760   30.9280   48.5370 C   0  0  0  0  0  0  0  0  0  0  0  0
   47.1860   31.8080   47.7440 C   0  0  2  0  0  0  0  0  0  0  0  0
   48.7490   31.8530   46.2780 H   0  0  0  0  0  0  0  0  0  0  0  0
   47.7750   30.3480   44.7920 H   0  0  0  0  0  0  0  0  0  0  0  0
   46.3540   30.0670   45.7750 H   0  0  0  0  0  0  0  0  0  0  0  0
   47.8610   28.3150   46.4470 H   0  0  0  0  0  0  0  0  0  0  0  0
   49.2410   29.3660   46.1710 H   0  0  0  0  0  0  0  0  0  0  0  0
   47.8200   28.7310   48.7340 H   0  0  0  0  0  0  0  0  0  0  0  0
   49.3070   29.2980   48.3590 H   0  0  0  0  0  0  0  0  0  0  0  0
   49.1300   31.5110   48.5300 H   0  0  0  0  0  0  0  0  0  0  0  0
   47.7990   31.0030   49.5960 H   0  0  0  0  0  0  0  0  0  0  0  0
   47.2900   32.7580   48.2680 H   0  0  0  0  0  0  0  0  0  0  0  0
   45.8510   31.2150   47.8520 N   0  0  0  0  0  0  0  0  0  0  0  0
   45.1570   30.6740   48.9490 C   0  0  0  0  0  0  0  0  0  0  0  0
   44.5990   31.3990   49.8500 O   0  0  0  0  0  0  0  0  0  0  0  0
   45.1120   29.2480   48.9810 N   0  0  0  0  0  0  0  0  0  0  0  0
   45.2180   31.0620   46.9790 H   0  0  0  0  0  0  0  0  0  0  0  0
   45.4050   28.3830   49.4780 H   0  0  0  0  0  0  0  0  0  0  0  0
   44.6800   28.5000   48.3880 H   0  0  0  0  0  0  0  0  0  0  0  0
   47.2930   34.1880   42.1840 C   0  0  0  0  0  0  0  0  0  0  0  0
   48.2070   35.1940   41.9590 C   0  0  0  0  0  0  0  0  0  0  0  0
   48.7230   35.5320   40.7350 C   0  0  0  0  0  0  0  0  0  0  0  0
   48.2440   34.7620   39.6870 C   0  0  0  0  0  0  0  0  0  0  0  0
   47.3310   33.7540   39.8850 C   0  0  0  0  0  0  0  0  0  0  0  0
   46.8530   33.4660   41.1410 N   0  0  0  0  0  0  0  0  0  0  0  0
   48.5370   35.7540   42.8310 H   0  0  0  0  0  0  0  0  0  0  0  0
   49.4410   36.3290   40.6020 H   0  0  0  0  0  0  0  0  0  0  0  0
   48.6010   34.9630   38.6830 H   0  0  0  0  0  0  0  0  0  0  0  0
   46.8410   32.9670   38.8090 N   0  0  0  0  0  0  0  0  0  0  0  0
   47.6170   32.6880   37.6230 C   0  0  0  0  0  2  0  0  0  0  0  0
   46.7490   32.3040   36.4500 C   0  0  0  0  0  2  0  0  0  0  0  0
   45.4460   33.0710   36.4350 C   0  0  0  0  0  3  0  0  0  0  0  0
   45.6270   34.1410   36.1660 H   0  0  0  0  0  0  0  0  0  0  0  0
   44.6950   33.0100   37.7230 C   0  0  0  0  0  2  0  0  0  0  0  0
   45.5160   32.3840   38.8250 C   0  0  0  0  0  2  0  0  0  0  0  0
  1  2  1  0  0  0  0
  1  9  1  0  0  0  0
  2  7  1  0  0  0  0
  3  8  1  0  0  0  0
  3  2  2  0  0  0  0
  4  3  1  0  0  0  0
  5  4  2  0  0  0  0
  5  6  1  0  0  0  0
  6  1  2  0  0  0  0
  9 15  1  6  0  0  0
  9 14  1  0  0  0  0
 10  9  1  0  0  0  0
 10 11  1  0  0  0  0
 11 12  1  0  0  0  0
 12 21  1  0  0  0  0
 12 13  1  0  0  0  0
 12 20  1  0  0  0  0
 13 23  1  0  0  0  0
 14 25  1  0  0  0  0
 14 24  1  1  0  0  0
 14 13  1  0  0  0  0
 16 10  1  0  0  0  0
 17 10  1  0  0  0  0
 18 11  1  0  0  0  0
 19 11  1  0  0  0  0
 22 13  1  0  0  0  0
 25 26  1  0  0  0  0
 26 28  1  0  0  0  0
 26 27  2  0  0  0  0
 28 30  1  0  0  0  0
 29 25  1  0  0  0  0
 31 28  1  0  0  0  0
 32  5  1  0  0  0  0
 33 32  1  0  0  0  0
 33 38  1  0  0  0  0
 34 33  2  0  0  0  0
 35 36  2  0  0  0  0
 35 34  1  0  0  0  0
 36 37  1  0  0  0  0
 37 32  2  0  0  0  0
 39 34  1  0  0  0  0
 40 35  1  0  0  0  0
 41 47  1  0  0  0  0
 41 36  1  0  0  0  0
 42 41  1  0  0  0  0
 43 42  1  0  0  0  0
 44 43  1  0  0  0  0
 44 46  1  0  0  0  0
 45 44  1  0  0  0  0
 46 47  1  0  0  0  0
M  END
>  <minimizedAffinity>
-6.71982098

>  <minimizedRMSD>
0.247899249

$$$$
