
 OpenBabel03252507303D

 47 50  0  0  1  0  0  0  0  0999 V2000
   46.9650   32.7640   45.5310 C   0  0  0  0  0  0  0  0  0  0  0  0
   45.8950   33.4780   46.0530 C   0  0  0  0  0  0  0  0  0  0  0  0
   45.2050   34.4020   45.2330 C   0  0  0  0  0  0  0  0  0  0  0  0
   45.6670   34.5340   43.9250 N   0  0  0  0  0  0  0  0  0  0  0  0
   46.7060   33.8160   43.4870 C   0  0  0  0  0  0  0  0  0  0  0  0
   47.3420   32.9480   44.2730 N   0  0  0  0  0  0  0  0  0  0  0  0
   45.4070   33.5640   47.0040 H   0  0  0  0  0  0  0  0  0  0  0  0
   44.3790   35.0230   45.4530 H   0  0  0  0  0  0  0  0  0  0  0  0
   47.6240   31.8160   46.4060 C   0  0  2  0  0  0  0  0  0  0  0  0
   47.4440   30.3510   45.8990 C   0  0  0  0  0  0  0  0  0  0  0  0
   48.2830   29.4420   46.7320 C   0  0  0  0  0  0  0  0  0  0  0  0
   48.2150   29.6630   48.2070 C   0  0  0  0  0  0  0  0  0  0  0  0
   48.1480   31.0480   48.5970 C   0  0  0  0  0  0  0  0  0  0  0  0
   47.1460   31.8830   47.7720 C   0  0  2  0  0  0  0  0  0  0  0  0
   48.7290   31.9470   46.3300 H   0  0  0  0  0  0  0  0  0  0  0  0
   47.8240   30.3850   44.8580 H   0  0  0  0  0  0  0  0  0  0  0  0
   46.3960   30.0810   45.8250 H   0  0  0  0  0  0  0  0  0  0  0  0
   47.9430   28.3870   46.5540 H   0  0  0  0  0  0  0  0  0  0  0  0
   49.2960   29.4740   46.2790 H   0  0  0  0  0  0  0  0  0  0  0  0
   47.8540   28.8460   48.8320 H   0  0  0  0  0  0  0  0  0  0  0  0
   49.3280   29.4500   48.4690 H   0  0  0  0  0  0  0  0  0  0  0  0
   49.0840   31.6590   48.5940 H   0  0  0  0  0  0  0  0  0  0  0  0
   47.7520   31.1330   49.6490 H   0  0  0  0  0  0  0  0  0  0  0  0
   47.2130   32.8460   48.2790 H   0  0  0  0  0  0  0  0  0  0  0  0
   45.8260   31.2540   47.8710 N   0  0  0  0  0  0  0  0  0  0  0  0
   45.1460   30.6810   48.9600 C   0  0  0  0  0  0  0  0  0  0  0  0
   44.5670   31.3800   49.8680 O   0  0  0  0  0  0  0  0  0  0  0  0
   45.1390   29.2540   48.9760 N   0  0  0  0  0  0  0  0  0  0  0  0
   45.1990   31.0920   46.9950 H   0  0  0  0  0  0  0  0  0  0  0  0
   45.4550   28.3920   49.4650 H   0  0  0  0  0  0  0  0  0  0  0  0
   44.7290   28.5010   48.3740 H   0  0  0  0  0  0  0  0  0  0  0  0
   47.1520   34.0170   42.1050 C   0  0  0  0  0  0  0  0  0  0  0  0
   48.0430   35.0160   41.7800 C   0  0  0  0  0  0  0  0  0  0  0  0
   48.5130   35.2760   40.5190 C   0  0  0  0  0  0  0  0  0  0  0  0
   48.0100   34.4290   39.5430 C   0  0  0  0  0  0  0  0  0  0  0  0
   47.1200   33.4250   39.8410 C   0  0  0  0  0  0  0  0  0  0  0  0
   46.6890   33.2190   41.1300 N   0  0  0  0  0  0  0  0  0  0  0  0
   48.3930   35.6400   42.6000 H   0  0  0  0  0  0  0  0  0  0  0  0
   49.2130   36.0710   40.3060 H   0  0  0  0  0  0  0  0  0  0  0  0
   48.3300   34.5650   38.5160 H   0  0  0  0  0  0  0  0  0  0  0  0
   46.6060   32.5600   38.8380 N   0  0  0  0  0  0  0  0  0  0  0  0
   47.0490   31.1950   38.6770 C   0  0  0  0  0  2  0  0  0  0  0  0
   46.7720   30.6640   37.2920 C   0  0  0  0  0  2  0  0  0  0  0  0
   46.9450   31.7290   36.2340 C   0  0  0  0  0  3  0  0  0  0  0  0
   48.0270   31.9770   36.1040 H   0  0  0  0  0  0  0  0  0  0  0  0
   46.1850   32.9830   36.5090 C   0  0  0  0  0  2  0  0  0  0  0  0
   45.5930   32.9900   37.8980 C   0  0  0  0  0  2  0  0  0  0  0  0
  1  2  1  0  0  0  0
  1  9  1  0  0  0  0
  2  7  1  0  0  0  0
  3  8  1  0  0  0  0
  3  2  2  0  0  0  0
  4  3  1  0  0  0  0
  5  4  2  0  0  0  0
  5  6  1  0  0  0  0
  6  1  2  0  0  0  0
  9 15  1  1  0  0  0
  9 14  1  0  0  0  0
 10  9  1  0  0  0  0
 10 11  1  0  0  0  0
 11 12  1  0  0  0  0
 12 21  1  0  0  0  0
 12 13  1  0  0  0  0
 12 20  1  0  0  0  0
 13 23  1  0  0  0  0
 14 25  1  0  0  0  0
 14 24  1  1  0  0  0
 14 13  1  0  0  0  0
 16 10  1  0  0  0  0
 17 10  1  0  0  0  0
 18 11  1  0  0  0  0
 19 11  1  0  0  0  0
 22 13  1  0  0  0  0
 25 26  1  0  0  0  0
 26 28  1  0  0  0  0
 26 27  2  0  0  0  0
 28 30  1  0  0  0  0
 29 25  1  0  0  0  0
 31 28  1  0  0  0  0
 32  5  1  0  0  0  0
 33 32  1  0  0  0  0
 33 38  1  0  0  0  0
 34 33  2  0  0  0  0
 35 36  2  0  0  0  0
 35 34  1  0  0  0  0
 36 37  1  0  0  0  0
 37 32  2  0  0  0  0
 39 34  1  0  0  0  0
 40 35  1  0  0  0  0
 41 36  1  0  0  0  0
 42 41  1  0  0  0  0
 43 42  1  0  0  0  0
 44 46  1  0  0  0  0
 44 43  1  0  0  0  0
 45 44  1  0  0  0  0
 46 47  1  0  0  0  0
 47 41  1  0  0  0  0
M  END
>  <minimizedAffinity>
-6.45875835

>  <minimizedRMSD>
0.341812938

$$$$
