
 OpenBabel03242518273D

 43 47  0  0  1  0  0  0  0  0999 V2000
   32.3350   29.8310   34.8260 C   0  0  0  0  0  0  0  0  0  0  0  0
   31.2460   30.3360   35.5260 C   0  0  0  0  0  0  0  0  0  0  0  0
   31.1910   30.0860   36.8950 C   0  0  0  0  0  0  0  0  0  0  0  0
   32.1740   29.3760   37.4980 N   0  0  0  0  0  0  0  0  0  0  0  0
   33.2240   28.9020   36.7670 C   0  0  0  0  0  0  0  0  0  0  0  0
   33.3030   29.1260   35.4500 N   0  0  0  0  0  0  0  0  0  0  0  0
   32.4380   29.9880   33.7720 H   0  0  0  0  0  0  0  0  0  0  0  0
   30.3340   30.4880   37.4210 H   0  0  0  0  0  0  0  0  0  0  0  0
   30.2910   31.0590   34.7780 N   0  0  0  0  0  0  0  0  0  0  0  0
   29.7650   32.2620   35.3430 C   0  0  0  0  0  0  0  0  0  0  0  0
   28.6990   32.9030   34.5320 C   0  0  0  0  0  0  0  0  0  0  0  0
   29.0490   33.0110   33.1590 N   0  0  0  0  0  0  0  0  0  0  0  0
   29.7710   31.9540   32.5700 C   0  0  0  0  0  0  0  0  0  0  0  0
   29.7650   30.7250   33.4810 C   0  0  0  0  0  0  0  0  0  0  0  0
   30.6060   32.9960   35.4480 H   0  0  0  0  0  0  0  0  0  0  0  0
   29.3820   32.1310   36.3740 H   0  0  0  0  0  0  0  0  0  0  0  0
   27.7450   32.3290   34.6570 H   0  0  0  0  0  0  0  0  0  0  0  0
   28.5120   33.9090   34.9260 H   0  0  0  0  0  0  0  0  0  0  0  0
   28.3790   33.5190   32.5810 H   0  0  0  0  0  0  0  0  0  0  0  0
   30.8010   32.1690   32.2830 H   0  0  0  0  0  0  0  0  0  0  0  0
   29.2300   31.6320   31.6400 H   0  0  0  0  0  0  0  0  0  0  0  0
   28.7100   30.3940   33.5570 H   0  0  0  0  0  0  0  0  0  0  0  0
   30.3560   29.9250   32.9830 H   0  0  0  0  0  0  0  0  0  0  0  0
   34.6490   26.9070   37.0860 C   0  0  0  0  0  0  0  0  0  0  0  0
   34.2610   28.1350   37.4870 C   0  0  0  0  0  0  0  0  0  0  0  0
   34.8610   28.6890   38.6150 C   0  0  0  0  0  0  0  0  0  0  0  0
   35.8300   27.9840   39.2940 C   0  0  0  0  0  0  0  0  0  0  0  0
   36.2190   26.7100   38.8630 C   0  0  0  0  0  0  0  0  0  0  0  0
   35.6150   26.1600   37.7340 C   0  0  0  0  0  0  0  0  0  0  0  0
   37.2090   26.2520   39.7460 O   0  0  0  0  0  0  0  0  0  0  0  0
   37.1170   27.0610   40.9200 C   0  0  2  0  0  0  0  0  0  0  0  0
   36.5920   28.2630   40.4250 O   0  0  0  0  0  0  0  0  0  0  0  0
   34.1830   26.4740   36.2100 H   0  0  0  0  0  0  0  0  0  0  0  0
   34.5510   29.6800   38.9410 H   0  0  0  0  0  0  0  0  0  0  0  0
   35.9080   25.1780   37.3930 H   0  0  0  0  0  0  0  0  0  0  0  0
   36.3490   26.5900   41.5650 H   0  0  0  0  0  0  0  0  0  0  0  0
   38.3980   27.2280   41.5610 N   0  0  0  0  0  0  0  0  0  0  0  0
   38.4090   26.8140   42.9270 C   0  0  0  0  0  2  0  0  0  0  0  0
   37.4250   27.5870   43.7790 C   0  0  0  0  0  2  0  0  0  0  0  0
   37.7530   29.0580   43.6650 C   0  0  0  0  0  3  0  0  0  0  0  0
   36.8450   29.6470   43.4530 H   0  0  0  0  0  0  0  0  0  0  0  0
   38.8890   29.3410   42.7250 C   0  0  0  0  0  2  0  0  0  0  0  0
   38.7620   28.6270   41.3990 C   0  0  0  0  0  2  0  0  0  0  0  0
  1  6  2  0  0  0  0
  1  2  1  0  0  0  0
  2  3  2  0  0  0  0
  3  8  1  0  0  0  0
  3  4  1  0  0  0  0
  5 25  1  0  0  0  0
  5  4  2  0  0  0  0
  6  5  1  0  0  0  0
  7  1  1  0  0  0  0
  9 10  1  0  0  0  0
  9  2  1  0  0  0  0
 10 15  1  0  0  0  0
 10 16  1  0  0  0  0
 11 17  1  0  0  0  0
 11 18  1  0  0  0  0
 11 10  1  0  0  0  0
 12 11  1  0  0  0  0
 13 12  1  0  0  0  0
 13 14  1  0  0  0  0
 14 22  1  0  0  0  0
 14  9  1  0  0  0  0
 19 12  1  0  0  0  0
 20 13  1  0  0  0  0
 21 13  1  0  0  0  0
 23 14  1  0  0  0  0
 24 25  2  0  0  0  0
 24 29  1  0  0  0  0
 25 26  1  0  0  0  0
 26 34  1  0  0  0  0
 26 27  2  0  0  0  0
 27 32  1  0  0  0  0
 28 27  1  0  0  0  0
 28 30  1  0  0  0  0
 29 28  2  0  0  0  0
 30 31  1  0  0  0  0
 31 37  1  0  0  0  0
 31 36  1  1  0  0  0
 32 31  1  0  0  0  0
 33 24  1  0  0  0  0
 35 29  1  0  0  0  0
 37 38  1  0  0  0  0
 38 39  1  0  0  0  0
 40 39  1  0  0  0  0
 41 40  1  0  0  0  0
 42 40  1  0  0  0  0
 43 37  1  0  0  0  0
 43 42  1  0  0  0  0
M  END
>  <minimizedAffinity>
-6.02002287

$$$$

 OpenBabel03242518273D

 43 47  0  0  1  0  0  0  0  0999 V2000
   40.0930   31.1960   40.4960 C   0  0  0  0  0  0  0  0  0  0  0  0
   39.1460   32.2060   40.3770 C   0  0  0  0  0  0  0  0  0  0  0  0
   37.8070   31.8520   40.5380 C   0  0  0  0  0  0  0  0  0  0  0  0
   37.4690   30.5670   40.8000 N   0  0  0  0  0  0  0  0  0  0  0  0
   38.4370   29.6120   40.9080 C   0  0  0  0  0  0  0  0  0  0  0  0
   39.7300   29.9220   40.7570 N   0  0  0  0  0  0  0  0  0  0  0  0
   41.1380   31.4000   40.3840 H   0  0  0  0  0  0  0  0  0  0  0  0
   37.0860   32.6540   40.4420 H   0  0  0  0  0  0  0  0  0  0  0  0
   39.6310   33.5020   40.1020 N   0  0  0  0  0  0  0  0  0  0  0  0
   38.9160   34.6170   40.6400 C   0  0  0  0  0  0  0  0  0  0  0  0
   39.4410   35.9410   40.2210 C   0  0  0  0  0  0  0  0  0  0  0  0
   40.8520   36.0360   40.3580 N   0  0  0  0  0  0  0  0  0  0  0  0
   41.6290   34.9000   40.0570 C   0  0  0  0  0  0  0  0  0  0  0  0
   40.7900   33.8520   39.3230 C   0  0  0  0  0  0  0  0  0  0  0  0
   38.9720   34.5620   41.7580 H   0  0  0  0  0  0  0  0  0  0  0  0
   37.8310   34.5900   40.4170 H   0  0  0  0  0  0  0  0  0  0  0  0
   39.1290   36.1440   39.1640 H   0  0  0  0  0  0  0  0  0  0  0  0
   38.9760   36.7170   40.8390 H   0  0  0  0  0  0  0  0  0  0  0  0
   41.2450   36.9560   40.1590 H   0  0  0  0  0  0  0  0  0  0  0  0
   42.1310   34.4170   40.8960 H   0  0  0  0  0  0  0  0  0  0  0  0
   42.4270   35.2010   39.3250 H   0  0  0  0  0  0  0  0  0  0  0  0
   40.4920   34.3080   38.3570 H   0  0  0  0  0  0  0  0  0  0  0  0
   41.4380   32.9730   39.1190 H   0  0  0  0  0  0  0  0  0  0  0  0
   37.4680   27.8820   42.3860 C   0  0  0  0  0  0  0  0  0  0  0  0
   37.9980   28.2310   41.1950 C   0  0  0  0  0  0  0  0  0  0  0  0
   38.1340   27.2530   40.2140 C   0  0  0  0  0  0  0  0  0  0  0  0
   37.7290   25.9620   40.4700 C   0  0  0  0  0  0  0  0  0  0  0  0
   37.1800   25.6200   41.7110 C   0  0  0  0  0  0  0  0  0  0  0  0
   37.0470   26.6020   42.6910 C   0  0  0  0  0  0  0  0  0  0  0  0
   36.8680   24.2520   41.6700 O   0  0  0  0  0  0  0  0  0  0  0  0
   37.5970   23.6990   40.5730 C   0  0  2  0  0  0  0  0  0  0  0  0
   37.7350   24.7950   39.7110 O   0  0  0  0  0  0  0  0  0  0  0  0
   37.3620   28.6420   43.1510 H   0  0  0  0  0  0  0  0  0  0  0  0
   38.5610   27.5300   39.2520 H   0  0  0  0  0  0  0  0  0  0  0  0
   36.6250   26.3480   43.6520 H   0  0  0  0  0  0  0  0  0  0  0  0
   38.6020   23.4400   40.9630 H   0  0  0  0  0  0  0  0  0  0  0  0
   36.9010   22.5900   39.9680 N   0  0  0  0  0  0  0  0  0  0  0  0
   37.6880   21.4020   39.8800 C   0  0  0  0  0  2  0  0  0  0  0  0
   38.9420   21.5930   39.0560 C   0  0  0  0  0  2  0  0  0  0  0  0
   38.5360   22.0660   37.6790 C   0  0  0  0  0  3  0  0  0  0  0  0
   39.1330   22.9410   37.3720 H   0  0  0  0  0  0  0  0  0  0  0  0
   37.0560   22.2640   37.5330 C   0  0  0  0  0  2  0  0  0  0  0  0
   36.4410   23.0510   38.6670 C   0  0  0  0  0  2  0  0  0  0  0  0
  1  6  1  0  0  0  0
  2  1  2  0  0  0  0
  2  3  1  0  0  0  0
  3  4  2  0  0  0  0
  4  5  1  0  0  0  0
  5 25  1  0  0  0  0
  6  5  2  0  0  0  0
  7  1  1  0  0  0  0
  8  3  1  0  0  0  0
  9  2  1  0  0  0  0
  9 10  1  0  0  0  0
 10 15  1  0  0  0  0
 11 12  1  0  0  0  0
 11 10  1  0  0  0  0
 11 18  1  0  0  0  0
 13 12  1  0  0  0  0
 13 20  1  0  0  0  0
 14 13  1  0  0  0  0
 14  9  1  0  0  0  0
 16 10  1  0  0  0  0
 17 11  1  0  0  0  0
 19 12  1  0  0  0  0
 21 13  1  0  0  0  0
 22 14  1  0  0  0  0
 23 14  1  0  0  0  0
 24 29  1  0  0  0  0
 24 33  1  0  0  0  0
 25 24  2  0  0  0  0
 26 27  2  0  0  0  0
 26 25  1  0  0  0  0
 27 28  1  0  0  0  0
 28 29  2  0  0  0  0
 29 35  1  0  0  0  0
 30 28  1  0  0  0  0
 31 36  1  1  0  0  0
 31 30  1  0  0  0  0
 32 27  1  0  0  0  0
 32 31  1  0  0  0  0
 34 26  1  0  0  0  0
 37 31  1  0  0  0  0
 38 37  1  0  0  0  0
 39 38  1  0  0  0  0
 40 39  1  0  0  0  0
 41 40  1  0  0  0  0
 42 40  1  0  0  0  0
 42 43  1  0  0  0  0
 43 37  1  0  0  0  0
M  END
>  <minimizedAffinity>
-5.87449837

$$$$

 OpenBabel03242518273D

 43 47  0  0  1  0  0  0  0  0999 V2000
   32.0430   29.6460   36.6250 C   0  0  0  0  0  0  0  0  0  0  0  0
   32.4760   29.7140   35.3060 C   0  0  0  0  0  0  0  0  0  0  0  0
   33.7600   29.2480   35.0280 C   0  0  0  0  0  0  0  0  0  0  0  0
   34.5360   28.7530   36.0210 N   0  0  0  0  0  0  0  0  0  0  0  0
   34.0640   28.7070   37.3010 C   0  0  0  0  0  0  0  0  0  0  0  0
   32.8360   29.1480   37.5990 N   0  0  0  0  0  0  0  0  0  0  0  0
   31.0680   29.9870   36.9070 H   0  0  0  0  0  0  0  0  0  0  0  0
   34.0770   29.3100   33.9950 H   0  0  0  0  0  0  0  0  0  0  0  0
   31.5700   30.2520   34.3680 N   0  0  0  0  0  0  0  0  0  0  0  0
   30.8190   29.3440   33.5590 C   0  0  0  0  0  0  0  0  0  0  0  0
   29.9640   29.9980   32.5370 C   0  0  0  0  0  0  0  0  0  0  0  0
   29.1980   31.0680   33.0700 N   0  0  0  0  0  0  0  0  0  0  0  0
   29.7920   31.8900   34.0480 C   0  0  0  0  0  0  0  0  0  0  0  0
   31.3000   31.6430   34.1160 C   0  0  0  0  0  0  0  0  0  0  0  0
   30.1540   28.7440   34.2330 H   0  0  0  0  0  0  0  0  0  0  0  0
   31.4490   28.5880   33.0500 H   0  0  0  0  0  0  0  0  0  0  0  0
   30.6070   30.3510   31.6890 H   0  0  0  0  0  0  0  0  0  0  0  0
   29.2800   29.2500   32.1180 H   0  0  0  0  0  0  0  0  0  0  0  0
   28.5350   31.4910   32.4200 H   0  0  0  0  0  0  0  0  0  0  0  0
   29.3830   31.8210   35.0560 H   0  0  0  0  0  0  0  0  0  0  0  0
   29.6850   32.9600   33.7220 H   0  0  0  0  0  0  0  0  0  0  0  0
   31.7140   31.9540   33.1350 H   0  0  0  0  0  0  0  0  0  0  0  0
   31.7210   32.3010   34.9060 H   0  0  0  0  0  0  0  0  0  0  0  0
   35.6200   26.9900   38.1630 C   0  0  0  0  0  0  0  0  0  0  0  0
   34.9620   28.1550   38.3360 C   0  0  0  0  0  0  0  0  0  0  0  0
   35.1390   28.8510   39.5280 C   0  0  0  0  0  0  0  0  0  0  0  0
   35.9740   28.3460   40.5010 C   0  0  0  0  0  0  0  0  0  0  0  0
   36.6490   27.1360   40.3030 C   0  0  0  0  0  0  0  0  0  0  0  0
   36.4680   26.4430   39.1070 C   0  0  0  0  0  0  0  0  0  0  0  0
   37.4130   26.8880   41.4540 O   0  0  0  0  0  0  0  0  0  0  0  0
   36.8830   27.7230   42.4850 C   0  0  2  0  0  0  0  0  0  0  0  0
   36.3450   28.7980   41.7630 O   0  0  0  0  0  0  0  0  0  0  0  0
   35.4830   26.4470   37.2360 H   0  0  0  0  0  0  0  0  0  0  0  0
   34.6100   29.7910   39.6720 H   0  0  0  0  0  0  0  0  0  0  0  0
   36.9840   25.5080   38.9450 H   0  0  0  0  0  0  0  0  0  0  0  0
   36.0430   27.1620   42.9420 H   0  0  0  0  0  0  0  0  0  0  0  0
   37.8970   28.1270   43.4260 N   0  0  0  0  0  0  0  0  0  0  0  0
   38.4090   29.4380   43.1860 C   0  0  0  0  0  2  0  0  0  0  0  0
   39.0460   29.5740   41.8200 C   0  0  0  0  0  2  0  0  0  0  0  0
   40.1460   28.5440   41.7060 C   0  0  0  0  0  3  0  0  0  0  0  0
   40.0650   27.9870   40.7580 H   0  0  0  0  0  0  0  0  0  0  0  0
   40.2600   27.6620   42.9150 C   0  0  0  0  0  2  0  0  0  0  0  0
   38.9340   27.1070   43.3810 C   0  0  0  0  0  2  0  0  0  0  0  0
  1  7  1  0  0  0  0
  1  6  1  0  0  0  0
  2  1  2  0  0  0  0
  3  2  1  0  0  0  0
  3  4  2  0  0  0  0
  4  5  1  0  0  0  0
  5  6  2  0  0  0  0
  5 25  1  0  0  0  0
  8  3  1  0  0  0  0
  9  2  1  0  0  0  0
 10 15  1  0  0  0  0
 10  9  1  0  0  0  0
 11 12  1  0  0  0  0
 11 10  1  0  0  0  0
 12 13  1  0  0  0  0
 13 14  1  0  0  0  0
 13 20  1  0  0  0  0
 14  9  1  0  0  0  0
 14 23  1  0  0  0  0
 16 10  1  0  0  0  0
 17 11  1  0  0  0  0
 18 11  1  0  0  0  0
 19 12  1  0  0  0  0
 21 13  1  0  0  0  0
 22 14  1  0  0  0  0
 24 25  2  0  0  0  0
 24 29  1  0  0  0  0
 25 26  1  0  0  0  0
 26 34  1  0  0  0  0
 26 27  2  0  0  0  0
 27 32  1  0  0  0  0
 28 27  1  0  0  0  0
 28 30  1  0  0  0  0
 29 28  2  0  0  0  0
 30 31  1  0  0  0  0
 31 36  1  1  0  0  0
 31 37  1  0  0  0  0
 32 31  1  0  0  0  0
 33 24  1  0  0  0  0
 35 29  1  0  0  0  0
 38 37  1  0  0  0  0
 39 38  1  0  0  0  0
 40 39  1  0  0  0  0
 40 42  1  0  0  0  0
 41 40  1  0  0  0  0
 42 43  1  0  0  0  0
 43 37  1  0  0  0  0
M  END
>  <minimizedAffinity>
-5.75869036

$$$$

 OpenBabel03242518273D

 43 47  0  0  1  0  0  0  0  0999 V2000
   38.4930   26.8650   39.5720 C   0  0  0  0  0  0  0  0  0  0  0  0
   38.2320   27.1190   40.9130 C   0  0  0  0  0  0  0  0  0  0  0  0
   36.9960   27.6780   41.2320 C   0  0  0  0  0  0  0  0  0  0  0  0
   36.1010   27.9560   40.2550 N   0  0  0  0  0  0  0  0  0  0  0  0
   36.4040   27.6870   38.9510 C   0  0  0  0  0  0  0  0  0  0  0  0
   37.5830   27.1500   38.6150 N   0  0  0  0  0  0  0  0  0  0  0  0
   39.4220   26.4360   39.2590 H   0  0  0  0  0  0  0  0  0  0  0  0
   36.8140   27.8680   42.2820 H   0  0  0  0  0  0  0  0  0  0  0  0
   39.2500   26.7840   41.8320 N   0  0  0  0  0  0  0  0  0  0  0  0
   39.7250   27.8060   42.7110 C   0  0  0  0  0  0  0  0  0  0  0  0
   40.8590   27.3910   43.5750 C   0  0  0  0  0  0  0  0  0  0  0  0
   40.6330   26.1390   44.2090 N   0  0  0  0  0  0  0  0  0  0  0  0
   39.9640   25.1350   43.4810 C   0  0  0  0  0  0  0  0  0  0  0  0
   39.8880   25.5050   41.9980 C   0  0  0  0  0  0  0  0  0  0  0  0
   38.8790   28.1150   43.3780 H   0  0  0  0  0  0  0  0  0  0  0  0
   40.0150   28.7360   42.1850 H   0  0  0  0  0  0  0  0  0  0  0  0
   41.7980   27.3640   42.9640 H   0  0  0  0  0  0  0  0  0  0  0  0
   41.0120   28.1530   44.3480 H   0  0  0  0  0  0  0  0  0  0  0  0
   41.3510   25.8560   44.8750 H   0  0  0  0  0  0  0  0  0  0  0  0
   38.9640   24.8690   43.8250 H   0  0  0  0  0  0  0  0  0  0  0  0
   40.5850   24.1990   43.5180 H   0  0  0  0  0  0  0  0  0  0  0  0
   40.9320   25.5340   41.6270 H   0  0  0  0  0  0  0  0  0  0  0  0
   39.3430   24.6940   41.4690 H   0  0  0  0  0  0  0  0  0  0  0  0
   35.5540   27.7220   36.6300 C   0  0  0  0  0  0  0  0  0  0  0  0
   35.3820   28.0130   37.9360 C   0  0  0  0  0  0  0  0  0  0  0  0
   34.2040   28.6410   38.3300 C   0  0  0  0  0  0  0  0  0  0  0  0
   33.2440   28.9510   37.3920 C   0  0  0  0  0  0  0  0  0  0  0  0
   33.4400   28.6400   36.0410 C   0  0  0  0  0  0  0  0  0  0  0  0
   34.6230   28.0120   35.6520 C   0  0  0  0  0  0  0  0  0  0  0  0
   32.3030   29.0730   35.3410 O   0  0  0  0  0  0  0  0  0  0  0  0
   31.6230   29.9950   36.1940 C   0  0  2  0  0  0  0  0  0  0  0  0
   31.9970   29.5620   37.4740 O   0  0  0  0  0  0  0  0  0  0  0  0
   36.4710   27.2340   36.3210 H   0  0  0  0  0  0  0  0  0  0  0  0
   34.0610   28.8780   39.3830 H   0  0  0  0  0  0  0  0  0  0  0  0
   34.7830   27.7680   34.6120 H   0  0  0  0  0  0  0  0  0  0  0  0
   32.0880   30.9860   36.0170 H   0  0  0  0  0  0  0  0  0  0  0  0
   30.1970   29.9720   35.9850 N   0  0  0  0  0  0  0  0  0  0  0  0
   29.6510   31.2440   35.6380 C   0  0  0  0  0  2  0  0  0  0  0  0
   29.8870   32.2900   36.7050 C   0  0  0  0  0  2  0  0  0  0  0  0
   29.2900   31.7900   38.0000 C   0  0  0  0  0  3  0  0  0  0  0  0
   30.0080   31.8970   38.8300 H   0  0  0  0  0  0  0  0  0  0  0  0
   28.6990   30.4150   37.8870 C   0  0  0  0  0  2  0  0  0  0  0  0
   29.6100   29.4250   37.1980 C   0  0  0  0  0  2  0  0  0  0  0  0
  1  2  1  0  0  0  0
  2  3  2  0  0  0  0
  2  9  1  0  0  0  0
  3  8  1  0  0  0  0
  4  3  1  0  0  0  0
  5  4  2  0  0  0  0
  6  5  1  0  0  0  0
  6  1  2  0  0  0  0
  7  1  1  0  0  0  0
  9 14  1  0  0  0  0
  9 10  1  0  0  0  0
 10 15  1  0  0  0  0
 10 11  1  0  0  0  0
 11 12  1  0  0  0  0
 11 18  1  0  0  0  0
 12 19  1  0  0  0  0
 13 21  1  0  0  0  0
 13 20  1  0  0  0  0
 13 12  1  0  0  0  0
 14 13  1  0  0  0  0
 16 10  1  0  0  0  0
 17 11  1  0  0  0  0
 22 14  1  0  0  0  0
 23 14  1  0  0  0  0
 24 25  1  0  0  0  0
 25 26  2  0  0  0  0
 25  5  1  0  0  0  0
 26 34  1  0  0  0  0
 27 32  1  0  0  0  0
 27 26  1  0  0  0  0
 28 27  2  0  0  0  0
 29 28  1  0  0  0  0
 29 24  2  0  0  0  0
 30 28  1  0  0  0  0
 30 31  1  0  0  0  0
 31 36  1  6  0  0  0
 31 32  1  0  0  0  0
 33 24  1  0  0  0  0
 35 29  1  0  0  0  0
 37 31  1  0  0  0  0
 37 43  1  0  0  0  0
 38 37  1  0  0  0  0
 38 39  1  0  0  0  0
 39 40  1  0  0  0  0
 40 41  1  0  0  0  0
 42 40  1  0  0  0  0
 43 42  1  0  0  0  0
M  END
>  <minimizedAffinity>
-5.67235899

$$$$

 OpenBabel03242518273D

 43 47  0  0  1  0  0  0  0  0999 V2000
   38.6790   31.3670   39.4040 C   0  0  0  0  0  0  0  0  0  0  0  0
   39.2470   32.0610   40.4650 C   0  0  0  0  0  0  0  0  0  0  0  0
   39.3460   31.3980   41.6860 C   0  0  0  0  0  0  0  0  0  0  0  0
   38.8980   30.1260   41.8090 N   0  0  0  0  0  0  0  0  0  0  0  0
   38.3480   29.4860   40.7360 C   0  0  0  0  0  0  0  0  0  0  0  0
   38.2400   30.0980   39.5510 N   0  0  0  0  0  0  0  0  0  0  0  0
   38.5740   31.8180   38.4390 H   0  0  0  0  0  0  0  0  0  0  0  0
   39.7910   31.9570   42.4990 H   0  0  0  0  0  0  0  0  0  0  0  0
   39.6730   33.3810   40.2040 N   0  0  0  0  0  0  0  0  0  0  0  0
   38.7860   34.4520   40.5350 C   0  0  0  0  0  0  0  0  0  0  0  0
   39.2760   35.7970   40.1390 C   0  0  0  0  0  0  0  0  0  0  0  0
   40.6250   36.0210   40.5240 N   0  0  0  0  0  0  0  0  0  0  0  0
   41.5300   34.9450   40.4380 C   0  0  0  0  0  0  0  0  0  0  0  0
   40.9250   33.7960   39.6290 C   0  0  0  0  0  0  0  0  0  0  0  0
   38.6380   34.4530   41.6460 H   0  0  0  0  0  0  0  0  0  0  0  0
   37.7670   34.3210   40.1210 H   0  0  0  0  0  0  0  0  0  0  0  0
   39.1500   35.9240   39.0330 H   0  0  0  0  0  0  0  0  0  0  0  0
   38.6440   36.5570   40.6140 H   0  0  0  0  0  0  0  0  0  0  0  0
   40.9750   36.9620   40.3440 H   0  0  0  0  0  0  0  0  0  0  0  0
   41.9030   34.5460   41.3820 H   0  0  0  0  0  0  0  0  0  0  0  0
   42.4240   35.2810   39.8460 H   0  0  0  0  0  0  0  0  0  0  0  0
   40.7790   34.1790   38.5990 H   0  0  0  0  0  0  0  0  0  0  0  0
   41.6670   32.9680   39.6000 H   0  0  0  0  0  0  0  0  0  0  0  0
   37.9430   27.4940   42.1430 C   0  0  0  0  0  0  0  0  0  0  0  0
   37.8800   28.1000   40.9390 C   0  0  0  0  0  0  0  0  0  0  0  0
   37.3580   27.3900   39.8620 C   0  0  0  0  0  0  0  0  0  0  0  0
   36.9190   26.0970   40.0390 C   0  0  0  0  0  0  0  0  0  0  0  0
   36.9910   25.4850   41.2960 C   0  0  0  0  0  0  0  0  0  0  0  0
   37.5160   26.2000   42.3720 C   0  0  0  0  0  0  0  0  0  0  0  0
   36.4750   24.1860   41.1610 O   0  0  0  0  0  0  0  0  0  0  0  0
   36.4780   23.8870   39.7650 C   0  0  2  0  0  0  0  0  0  0  0  0
   36.3620   25.1560   39.1780 O   0  0  0  0  0  0  0  0  0  0  0  0
   38.3490   28.0440   42.9830 H   0  0  0  0  0  0  0  0  0  0  0  0
   37.3060   27.8760   38.8890 H   0  0  0  0  0  0  0  0  0  0  0  0
   37.5760   25.7370   43.3450 H   0  0  0  0  0  0  0  0  0  0  0  0
   37.4870   23.4920   39.5310 H   0  0  0  0  0  0  0  0  0  0  0  0
   35.4030   22.9980   39.4020 N   0  0  0  0  0  0  0  0  0  0  0  0
   35.8470   21.7110   38.9750 C   0  0  0  0  0  2  0  0  0  0  0  0
   36.7460   21.7770   37.7600 C   0  0  0  0  0  2  0  0  0  0  0  0
   35.9920   22.4750   36.6510 C   0  0  0  0  0  3  0  0  0  0  0  0
   36.6120   23.2630   36.1910 H   0  0  0  0  0  0  0  0  0  0  0  0
   34.6280   22.9450   37.0660 C   0  0  0  0  0  2  0  0  0  0  0  0
   34.6240   23.6860   38.3830 C   0  0  0  0  0  2  0  0  0  0  0  0
  1  6  2  0  0  0  0
  1  2  1  0  0  0  0
  2  3  2  0  0  0  0
  3  4  1  0  0  0  0
  3  8  1  0  0  0  0
  5 25  1  0  0  0  0
  5  4  2  0  0  0  0
  6  5  1  0  0  0  0
  7  1  1  0  0  0  0
  9  2  1  0  0  0  0
  9 10  1  0  0  0  0
 10 15  1  0  0  0  0
 11 12  1  0  0  0  0
 11 10  1  0  0  0  0
 11 18  1  0  0  0  0
 13 12  1  0  0  0  0
 13 20  1  0  0  0  0
 14  9  1  0  0  0  0
 14 13  1  0  0  0  0
 16 10  1  0  0  0  0
 17 11  1  0  0  0  0
 19 12  1  0  0  0  0
 21 13  1  0  0  0  0
 22 14  1  0  0  0  0
 23 14  1  0  0  0  0
 24 29  1  0  0  0  0
 24 33  1  0  0  0  0
 25 24  2  0  0  0  0
 26 27  2  0  0  0  0
 26 25  1  0  0  0  0
 27 28  1  0  0  0  0
 28 29  2  0  0  0  0
 29 35  1  0  0  0  0
 30 28  1  0  0  0  0
 31 36  1  6  0  0  0
 31 30  1  0  0  0  0
 32 31  1  0  0  0  0
 32 27  1  0  0  0  0
 34 26  1  0  0  0  0
 37 31  1  0  0  0  0
 38 37  1  0  0  0  0
 39 38  1  0  0  0  0
 40 42  1  0  0  0  0
 40 39  1  0  0  0  0
 41 40  1  0  0  0  0
 42 43  1  0  0  0  0
 43 37  1  0  0  0  0
M  END
>  <minimizedAffinity>
-5.579638

$$$$

 OpenBabel03242518273D

 43 47  0  0  1  0  0  0  0  0999 V2000
   35.3350   27.5860   38.0760 C   0  0  0  0  0  0  0  0  0  0  0  0
   34.3360   28.5460   38.1930 C   0  0  0  0  0  0  0  0  0  0  0  0
   34.2400   29.2270   39.4050 C   0  0  0  0  0  0  0  0  0  0  0  0
   35.0980   28.9460   40.4150 N   0  0  0  0  0  0  0  0  0  0  0  0
   36.0630   27.9950   40.2490 C   0  0  0  0  0  0  0  0  0  0  0  0
   36.1790   27.3240   39.0970 N   0  0  0  0  0  0  0  0  0  0  0  0
   35.4640   27.0280   37.1720 H   0  0  0  0  0  0  0  0  0  0  0  0
   33.4550   29.9690   39.4750 H   0  0  0  0  0  0  0  0  0  0  0  0
   33.5080   28.7410   37.0670 N   0  0  0  0  0  0  0  0  0  0  0  0
   32.2390   29.3670   37.2660 C   0  0  0  0  0  0  0  0  0  0  0  0
   31.3970   29.4440   36.0450 C   0  0  0  0  0  0  0  0  0  0  0  0
   32.1140   29.9300   34.9180 N   0  0  0  0  0  0  0  0  0  0  0  0
   33.4570   29.5350   34.7620 C   0  0  0  0  0  0  0  0  0  0  0  0
   33.7910   28.3760   35.7040 C   0  0  0  0  0  0  0  0  0  0  0  0
   32.4170   30.4120   37.6280 H   0  0  0  0  0  0  0  0  0  0  0  0
   31.6390   28.8960   38.0690 H   0  0  0  0  0  0  0  0  0  0  0  0
   30.9590   28.4340   35.8340 H   0  0  0  0  0  0  0  0  0  0  0  0
   30.5530   30.1160   36.2400 H   0  0  0  0  0  0  0  0  0  0  0  0
   31.5510   30.0770   34.0800 H   0  0  0  0  0  0  0  0  0  0  0  0
   34.2110   30.3130   34.8870 H   0  0  0  0  0  0  0  0  0  0  0  0
   33.5830   29.1170   33.7270 H   0  0  0  0  0  0  0  0  0  0  0  0
   33.1610   27.5210   35.3860 H   0  0  0  0  0  0  0  0  0  0  0  0
   34.8590   28.1090   35.5550 H   0  0  0  0  0  0  0  0  0  0  0  0
   36.5440   27.8260   42.6690 C   0  0  0  0  0  0  0  0  0  0  0  0
   36.9660   27.7390   41.3900 C   0  0  0  0  0  0  0  0  0  0  0  0
   38.2940   27.3970   41.1480 C   0  0  0  0  0  0  0  0  0  0  0  0
   39.1450   27.1560   42.2030 C   0  0  0  0  0  0  0  0  0  0  0  0
   38.6880   27.2520   43.5230 C   0  0  0  0  0  0  0  0  0  0  0  0
   37.3580   27.5950   43.7610 C   0  0  0  0  0  0  0  0  0  0  0  0
   39.7720   26.9540   44.3650 O   0  0  0  0  0  0  0  0  0  0  0  0
   40.9530   27.0840   43.5730 C   0  0  2  0  0  0  0  0  0  0  0  0
   40.4890   26.8050   42.2800 O   0  0  0  0  0  0  0  0  0  0  0  0
   35.5120   28.0930   42.8590 H   0  0  0  0  0  0  0  0  0  0  0  0
   38.6380   27.3260   40.1170 H   0  0  0  0  0  0  0  0  0  0  0  0
   36.9970   27.6710   44.7750 H   0  0  0  0  0  0  0  0  0  0  0  0
   41.2400   28.1540   43.6110 H   0  0  0  0  0  0  0  0  0  0  0  0
   41.9940   26.1840   44.0040 N   0  0  0  0  0  0  0  0  0  0  0  0
   42.8060   26.7110   45.0530 C   0  0  0  0  0  2  0  0  0  0  0  0
   43.5130   27.9880   44.6560 C   0  0  0  0  0  2  0  0  0  0  0  0
   44.3470   27.7050   43.4270 C   0  0  0  0  0  3  0  0  0  0  0  0
   44.1790   28.4720   42.6530 H   0  0  0  0  0  0  0  0  0  0  0  0
   44.2020   26.2990   42.9240 C   0  0  0  0  0  2  0  0  0  0  0  0
   42.7650   25.8440   42.8190 C   0  0  0  0  0  2  0  0  0  0  0  0
  1  2  2  0  0  0  0
  1  6  1  0  0  0  0
  2  3  1  0  0  0  0
  3  8  1  0  0  0  0
  3  4  2  0  0  0  0
  5  4  1  0  0  0  0
  5 25  1  0  0  0  0
  6  5  2  0  0  0  0
  7  1  1  0  0  0  0
  9 10  1  0  0  0  0
  9  2  1  0  0  0  0
 10 15  1  0  0  0  0
 10 16  1  0  0  0  0
 11 18  1  0  0  0  0
 11 10  1  0  0  0  0
 12 11  1  0  0  0  0
 13 20  1  0  0  0  0
 13 12  1  0  0  0  0
 13 14  1  0  0  0  0
 14  9  1  0  0  0  0
 17 11  1  0  0  0  0
 19 12  1  0  0  0  0
 21 13  1  0  0  0  0
 22 14  1  0  0  0  0
 23 14  1  0  0  0  0
 24 33  1  0  0  0  0
 24 29  1  0  0  0  0
 25 24  2  0  0  0  0
 26 25  1  0  0  0  0
 26 27  2  0  0  0  0
 27 32  1  0  0  0  0
 27 28  1  0  0  0  0
 28 29  2  0  0  0  0
 28 30  1  0  0  0  0
 29 35  1  0  0  0  0
 31 36  1  1  0  0  0
 31 37  1  0  0  0  0
 31 30  1  0  0  0  0
 32 31  1  0  0  0  0
 34 26  1  0  0  0  0
 37 38  1  0  0  0  0
 39 38  1  0  0  0  0
 40 39  1  0  0  0  0
 41 40  1  0  0  0  0
 42 40  1  0  0  0  0
 43 42  1  0  0  0  0
 43 37  1  0  0  0  0
M  END
>  <minimizedAffinity>
-5.49546957

$$$$

 OpenBabel03242518273D

 43 47  0  0  1  0  0  0  0  0999 V2000
   39.4410   27.8070   40.4770 C   0  0  0  0  0  0  0  0  0  0  0  0
   39.1940   27.9180   41.8400 C   0  0  0  0  0  0  0  0  0  0  0  0
   37.8640   27.9990   42.2470 C   0  0  0  0  0  0  0  0  0  0  0  0
   36.8670   27.9700   41.3300 N   0  0  0  0  0  0  0  0  0  0  0  0
   37.1620   27.8590   40.0020 C   0  0  0  0  0  0  0  0  0  0  0  0
   38.4300   27.7800   39.5810 N   0  0  0  0  0  0  0  0  0  0  0  0
   40.4390   27.7400   40.0980 H   0  0  0  0  0  0  0  0  0  0  0  0
   37.6940   28.0850   43.3130 H   0  0  0  0  0  0  0  0  0  0  0  0
   40.3210   27.9380   42.6890 N   0  0  0  0  0  0  0  0  0  0  0  0
   40.5350   26.8180   43.5510 C   0  0  0  0  0  0  0  0  0  0  0  0
   41.6870   26.9680   44.4740 C   0  0  0  0  0  0  0  0  0  0  0  0
   42.8600   27.4230   43.8140 N   0  0  0  0  0  0  0  0  0  0  0  0
   42.7180   28.3760   42.7870 C   0  0  0  0  0  0  0  0  0  0  0  0
   41.3110   28.9770   42.7990 C   0  0  0  0  0  0  0  0  0  0  0  0
   40.7200   25.9150   42.9120 H   0  0  0  0  0  0  0  0  0  0  0  0
   39.6430   26.5520   44.1520 H   0  0  0  0  0  0  0  0  0  0  0  0
   41.4040   27.6610   45.3080 H   0  0  0  0  0  0  0  0  0  0  0  0
   41.8990   25.9960   44.9350 H   0  0  0  0  0  0  0  0  0  0  0  0
   43.6970   27.4610   44.3970 H   0  0  0  0  0  0  0  0  0  0  0  0
   42.9430   28.0380   41.7740 H   0  0  0  0  0  0  0  0  0  0  0  0
   43.4060   29.2370   43.0060 H   0  0  0  0  0  0  0  0  0  0  0  0
   41.2080   29.5190   43.7610 H   0  0  0  0  0  0  0  0  0  0  0  0
   41.2420   29.7100   41.9670 H   0  0  0  0  0  0  0  0  0  0  0  0
   35.9790   26.9670   38.0220 C   0  0  0  0  0  0  0  0  0  0  0  0
   36.0280   27.8330   39.0560 C   0  0  0  0  0  0  0  0  0  0  0  0
   34.9730   28.7250   39.2280 C   0  0  0  0  0  0  0  0  0  0  0  0
   33.9100   28.7100   38.3520 C   0  0  0  0  0  0  0  0  0  0  0  0
   33.8780   27.8040   37.2850 C   0  0  0  0  0  0  0  0  0  0  0  0
   34.9370   26.9120   37.1170 C   0  0  0  0  0  0  0  0  0  0  0  0
   32.6850   28.0280   36.5800 O   0  0  0  0  0  0  0  0  0  0  0  0
   32.2140   29.3180   36.9720 C   0  0  2  0  0  0  0  0  0  0  0  0
   32.7400   29.4580   38.2640 O   0  0  0  0  0  0  0  0  0  0  0  0
   36.7990   26.2720   37.8860 H   0  0  0  0  0  0  0  0  0  0  0  0
   35.0080   29.4250   40.0610 H   0  0  0  0  0  0  0  0  0  0  0  0
   34.9210   26.2100   36.2980 H   0  0  0  0  0  0  0  0  0  0  0  0
   32.7210   30.0510   36.3140 H   0  0  0  0  0  0  0  0  0  0  0  0
   30.7740   29.3990   36.9380 N   0  0  0  0  0  0  0  0  0  0  0  0
   30.2620   29.9320   35.7180 C   0  0  0  0  0  2  0  0  0  0  0  0
   30.7530   31.3360   35.4430 C   0  0  0  0  0  2  0  0  0  0  0  0
   30.3640   32.2110   36.6120 C   0  0  0  0  0  3  0  0  0  0  0  0
   31.2230   32.8100   36.9570 H   0  0  0  0  0  0  0  0  0  0  0  0
   29.6710   31.4590   37.7100 C   0  0  0  0  0  2  0  0  0  0  0  0
   30.3770   30.1810   38.0990 C   0  0  0  0  0  2  0  0  0  0  0  0
  1  2  1  0  0  0  0
  2  3  2  0  0  0  0
  2  9  1  0  0  0  0
  3  8  1  0  0  0  0
  4  3  1  0  0  0  0
  5  4  2  0  0  0  0
  6  5  1  0  0  0  0
  6  1  2  0  0  0  0
  7  1  1  0  0  0  0
  9 14  1  0  0  0  0
  9 10  1  0  0  0  0
 10 16  1  0  0  0  0
 10 11  1  0  0  0  0
 11 18  1  0  0  0  0
 11 17  1  0  0  0  0
 12 19  1  0  0  0  0
 12 11  1  0  0  0  0
 13 14  1  0  0  0  0
 13 21  1  0  0  0  0
 13 12  1  0  0  0  0
 14 22  1  0  0  0  0
 15 10  1  0  0  0  0
 20 13  1  0  0  0  0
 23 14  1  0  0  0  0
 24 25  1  0  0  0  0
 25 26  2  0  0  0  0
 25  5  1  0  0  0  0
 26 34  1  0  0  0  0
 27 26  1  0  0  0  0
 28 27  2  0  0  0  0
 29 28  1  0  0  0  0
 29 24  2  0  0  0  0
 30 31  1  0  0  0  0
 30 28  1  0  0  0  0
 31 36  1  6  0  0  0
 31 32  1  0  0  0  0
 32 27  1  0  0  0  0
 33 24  1  0  0  0  0
 35 29  1  0  0  0  0
 37 31  1  0  0  0  0
 37 43  1  0  0  0  0
 38 37  1  0  0  0  0
 39 38  1  0  0  0  0
 39 40  1  0  0  0  0
 40 41  1  0  0  0  0
 40 42  1  0  0  0  0
 42 43  1  0  0  0  0
M  END
>  <minimizedAffinity>
-5.47240543

$$$$

 OpenBabel03242518273D

 43 47  0  0  1  0  0  0  0  0999 V2000
   38.7070   31.8510   38.0000 C   0  0  0  0  0  0  0  0  0  0  0  0
   38.3350   32.3960   39.2230 C   0  0  0  0  0  0  0  0  0  0  0  0
   37.2240   31.8460   39.8590 C   0  0  0  0  0  0  0  0  0  0  0  0
   36.5500   30.8200   39.2870 N   0  0  0  0  0  0  0  0  0  0  0  0
   36.9560   30.3190   38.0840 C   0  0  0  0  0  0  0  0  0  0  0  0
   38.0190   30.8280   37.4490 N   0  0  0  0  0  0  0  0  0  0  0  0
   39.5510   32.2270   37.4590 H   0  0  0  0  0  0  0  0  0  0  0  0
   36.9510   32.2850   40.8100 H   0  0  0  0  0  0  0  0  0  0  0  0
   39.1210   33.4630   39.7080 N   0  0  0  0  0  0  0  0  0  0  0  0
   40.4860   33.5380   39.2880 C   0  0  0  0  0  0  0  0  0  0  0  0
   41.2610   34.6350   39.9220 C   0  0  0  0  0  0  0  0  0  0  0  0
   40.5740   35.8780   39.8890 N   0  0  0  0  0  0  0  0  0  0  0  0
   39.1780   35.8730   40.0750 C   0  0  0  0  0  0  0  0  0  0  0  0
   38.7090   34.5140   40.6000 C   0  0  0  0  0  0  0  0  0  0  0  0
   40.5020   33.7010   38.1800 H   0  0  0  0  0  0  0  0  0  0  0  0
   41.0420   32.5920   39.4360 H   0  0  0  0  0  0  0  0  0  0  0  0
   41.5140   34.3470   40.9750 H   0  0  0  0  0  0  0  0  0  0  0  0
   42.2140   34.7460   39.3910 H   0  0  0  0  0  0  0  0  0  0  0  0
   41.1060   36.6750   40.2400 H   0  0  0  0  0  0  0  0  0  0  0  0
   38.5700   36.1400   39.2100 H   0  0  0  0  0  0  0  0  0  0  0  0
   38.9270   36.6040   40.8910 H   0  0  0  0  0  0  0  0  0  0  0  0
   39.1700   34.3870   41.6000 H   0  0  0  0  0  0  0  0  0  0  0  0
   37.6050   34.5540   40.7180 H   0  0  0  0  0  0  0  0  0  0  0  0
   35.4900   29.3210   36.3610 C   0  0  0  0  0  0  0  0  0  0  0  0
   36.1760   29.2000   37.5170 C   0  0  0  0  0  0  0  0  0  0  0  0
   36.1420   27.9810   38.1880 C   0  0  0  0  0  0  0  0  0  0  0  0
   35.4180   26.9310   37.6690 C   0  0  0  0  0  0  0  0  0  0  0  0
   34.7130   27.0750   36.4680 C   0  0  0  0  0  0  0  0  0  0  0  0
   34.7500   28.2980   35.8000 C   0  0  0  0  0  0  0  0  0  0  0  0
   34.0830   25.8500   36.2020 O   0  0  0  0  0  0  0  0  0  0  0  0
   34.0740   25.1180   37.4280 C   0  0  2  0  0  0  0  0  0  0  0  0
   35.1970   25.6250   38.0970 O   0  0  0  0  0  0  0  0  0  0  0  0
   35.5150   30.2690   35.8370 H   0  0  0  0  0  0  0  0  0  0  0  0
   36.6940   27.8800   39.1210 H   0  0  0  0  0  0  0  0  0  0  0  0
   34.2090   28.4190   34.8730 H   0  0  0  0  0  0  0  0  0  0  0  0
   33.1690   25.4430   37.9800 H   0  0  0  0  0  0  0  0  0  0  0  0
   34.1450   23.6950   37.2080 N   0  0  0  0  0  0  0  0  0  0  0  0
   32.8690   23.0810   37.0290 C   0  0  0  0  0  2  0  0  0  0  0  0
   31.9620   23.2610   38.2270 C   0  0  0  0  0  2  0  0  0  0  0  0
   32.6610   22.6920   39.4400 C   0  0  0  0  0  3  0  0  0  0  0  0
   32.6270   23.4030   40.2820 H   0  0  0  0  0  0  0  0  0  0  0  0
   34.0390   22.1760   39.1410 C   0  0  0  0  0  2  0  0  0  0  0  0
   34.8780   23.1380   38.3340 C   0  0  0  0  0  2  0  0  0  0  0  0
  1  2  1  0  0  0  0
  2  9  1  0  0  0  0
  2  3  2  0  0  0  0
  3  8  1  0  0  0  0
  4  3  1  0  0  0  0
  5  4  2  0  0  0  0
  6  1  2  0  0  0  0
  6  5  1  0  0  0  0
  7  1  1  0  0  0  0
  9 14  1  0  0  0  0
 10 16  1  0  0  0  0
 10  9  1  0  0  0  0
 10 11  1  0  0  0  0
 11 17  1  0  0  0  0
 12 11  1  0  0  0  0
 12 13  1  0  0  0  0
 12 19  1  0  0  0  0
 13 14  1  0  0  0  0
 13 21  1  0  0  0  0
 14 23  1  0  0  0  0
 14 22  1  0  0  0  0
 15 10  1  0  0  0  0
 18 11  1  0  0  0  0
 20 13  1  0  0  0  0
 24 25  1  0  0  0  0
 25  5  1  0  0  0  0
 25 26  2  0  0  0  0
 26 34  1  0  0  0  0
 27 32  1  0  0  0  0
 27 26  1  0  0  0  0
 28 27  2  0  0  0  0
 29 24  2  0  0  0  0
 29 28  1  0  0  0  0
 30 28  1  0  0  0  0
 30 31  1  0  0  0  0
 31 36  1  1  0  0  0
 31 32  1  0  0  0  0
 33 24  1  0  0  0  0
 35 29  1  0  0  0  0
 37 31  1  0  0  0  0
 37 43  1  0  0  0  0
 38 37  1  0  0  0  0
 38 39  1  0  0  0  0
 39 40  1  0  0  0  0
 40 41  1  0  0  0  0
 42 40  1  0  0  0  0
 43 42  1  0  0  0  0
M  END
>  <minimizedAffinity>
-5.45841408

$$$$

 OpenBabel03242518273D

 43 47  0  0  1  0  0  0  0  0999 V2000
   37.4650   32.1540   39.8570 C   0  0  0  0  0  0  0  0  0  0  0  0
   38.6400   32.3940   39.1560 C   0  0  0  0  0  0  0  0  0  0  0  0
   38.9560   31.5220   38.1150 C   0  0  0  0  0  0  0  0  0  0  0  0
   38.1320   30.4880   37.8190 N   0  0  0  0  0  0  0  0  0  0  0  0
   36.9880   30.2960   38.5370 C   0  0  0  0  0  0  0  0  0  0  0  0
   36.6600   31.1160   39.5420 N   0  0  0  0  0  0  0  0  0  0  0  0
   37.1640   32.7860   40.6670 H   0  0  0  0  0  0  0  0  0  0  0  0
   39.8750   31.7260   37.5820 H   0  0  0  0  0  0  0  0  0  0  0  0
   39.4090   33.5040   39.5660 N   0  0  0  0  0  0  0  0  0  0  0  0
   38.7630   34.5260   40.3270 C   0  0  0  0  0  0  0  0  0  0  0  0
   39.6220   35.6980   40.6320 C   0  0  0  0  0  0  0  0  0  0  0  0
   40.8980   35.3230   41.1310 N   0  0  0  0  0  0  0  0  0  0  0  0
   41.5190   34.1820   40.5840 C   0  0  0  0  0  0  0  0  0  0  0  0
   40.8040   33.7420   39.3050 C   0  0  0  0  0  0  0  0  0  0  0  0
   38.4290   34.0800   41.3000 H   0  0  0  0  0  0  0  0  0  0  0  0
   37.8290   34.8960   39.8600 H   0  0  0  0  0  0  0  0  0  0  0  0
   39.7230   36.3300   39.7130 H   0  0  0  0  0  0  0  0  0  0  0  0
   39.1200   36.3180   41.3840 H   0  0  0  0  0  0  0  0  0  0  0  0
   41.4900   36.0980   41.4310 H   0  0  0  0  0  0  0  0  0  0  0  0
   41.6160   33.3180   41.2430 H   0  0  0  0  0  0  0  0  0  0  0  0
   42.5560   34.4660   40.2580 H   0  0  0  0  0  0  0  0  0  0  0  0
   40.9340   34.5640   38.5730 H   0  0  0  0  0  0  0  0  0  0  0  0
   41.3190   32.8350   38.9190 H   0  0  0  0  0  0  0  0  0  0  0  0
   34.8700   29.3150   37.7230 C   0  0  0  0  0  0  0  0  0  0  0  0
   36.1350   29.1500   38.1610 C   0  0  0  0  0  0  0  0  0  0  0  0
   36.6440   27.8580   38.2590 C   0  0  0  0  0  0  0  0  0  0  0  0
   35.8580   26.7820   37.9110 C   0  0  0  0  0  0  0  0  0  0  0  0
   34.5470   26.9730   37.4590 C   0  0  0  0  0  0  0  0  0  0  0  0
   34.0420   28.2690   37.3630 C   0  0  0  0  0  0  0  0  0  0  0  0
   34.0090   25.7050   37.1860 O   0  0  0  0  0  0  0  0  0  0  0  0
   34.8380   24.7550   37.8560 C   0  0  2  0  0  0  0  0  0  0  0  0
   36.0780   25.4080   37.9020 O   0  0  0  0  0  0  0  0  0  0  0  0
   34.4710   30.3190   37.6460 H   0  0  0  0  0  0  0  0  0  0  0  0
   37.6650   27.7210   38.6120 H   0  0  0  0  0  0  0  0  0  0  0  0
   33.0320   28.4260   37.0150 H   0  0  0  0  0  0  0  0  0  0  0  0
   34.4520   24.6770   38.8920 H   0  0  0  0  0  0  0  0  0  0  0  0
   34.8900   23.4960   37.1550 N   0  0  0  0  0  0  0  0  0  0  0  0
   33.6160   22.8670   37.0170 C   0  0  0  0  0  2  0  0  0  0  0  0
   32.9690   22.5630   38.3500 C   0  0  0  0  0  2  0  0  0  0  0  0
   33.9110   21.6890   39.1450 C   0  0  0  0  0  3  0  0  0  0  0  0
   34.0350   22.0760   40.1700 H   0  0  0  0  0  0  0  0  0  0  0  0
   35.2080   21.4210   38.4400 C   0  0  0  0  0  2  0  0  0  0  0  0
   35.8480   22.6650   37.8680 C   0  0  0  0  0  2  0  0  0  0  0  0
  1  7  1  0  0  0  0
  2  9  1  0  0  0  0
  2  1  2  0  0  0  0
  3  2  1  0  0  0  0
  4  3  2  0  0  0  0
  4  5  1  0  0  0  0
  5  6  2  0  0  0  0
  6  1  1  0  0  0  0
  8  3  1  0  0  0  0
  9 10  1  0  0  0  0
 10 11  1  0  0  0  0
 10 15  1  0  0  0  0
 11 12  1  0  0  0  0
 11 18  1  0  0  0  0
 12 19  1  0  0  0  0
 13 12  1  0  0  0  0
 13 20  1  0  0  0  0
 14  9  1  0  0  0  0
 14 13  1  0  0  0  0
 16 10  1  0  0  0  0
 17 11  1  0  0  0  0
 21 13  1  0  0  0  0
 22 14  1  0  0  0  0
 23 14  1  0  0  0  0
 24 25  1  0  0  0  0
 25 26  2  0  0  0  0
 25  5  1  0  0  0  0
 26 34  1  0  0  0  0
 27 26  1  0  0  0  0
 28 27  2  0  0  0  0
 29 28  1  0  0  0  0
 29 24  2  0  0  0  0
 30 28  1  0  0  0  0
 30 31  1  0  0  0  0
 31 32  1  0  0  0  0
 31 36  1  1  0  0  0
 32 27  1  0  0  0  0
 33 24  1  0  0  0  0
 35 29  1  0  0  0  0
 37 31  1  0  0  0  0
 37 43  1  0  0  0  0
 38 37  1  0  0  0  0
 38 39  1  0  0  0  0
 39 40  1  0  0  0  0
 40 41  1  0  0  0  0
 42 40  1  0  0  0  0
 43 42  1  0  0  0  0
M  END
>  <minimizedAffinity>
-5.45572042

$$$$
