
 OpenBabel03252507343D

 47 50  0  0  1  0  0  0  0  0999 V2000
   37.8030   26.9690   41.7770 C   0  0  0  0  0  0  0  0  0  0  0  0
   37.3440   26.8720   43.0830 C   0  0  0  0  0  0  0  0  0  0  0  0
   37.1320   28.0510   43.8380 C   0  0  0  0  0  0  0  0  0  0  0  0
   37.4110   29.2560   43.1950 N   0  0  0  0  0  0  0  0  0  0  0  0
   37.8520   29.2760   41.9340 C   0  0  0  0  0  0  0  0  0  0  0  0
   38.0440   28.1560   41.2370 N   0  0  0  0  0  0  0  0  0  0  0  0
   37.1080   26.0820   43.7680 H   0  0  0  0  0  0  0  0  0  0  0  0
   36.7900   28.1720   44.8290 H   0  0  0  0  0  0  0  0  0  0  0  0
   37.9830   25.7340   41.0410 C   0  0  2  0  0  0  0  0  0  0  0  0
   37.2470   24.5450   41.7310 C   0  0  0  0  0  0  0  0  0  0  0  0
   37.3190   23.3480   40.8440 C   0  0  0  0  0  0  0  0  0  0  0  0
   38.6570   23.0620   40.2460 C   0  0  0  0  0  0  0  0  0  0  0  0
   39.3880   24.2350   39.8390 C   0  0  0  0  0  0  0  0  0  0  0  0
   39.3770   25.3720   40.8830 C   0  0  2  0  0  0  0  0  0  0  0  0
   37.4430   25.8000   40.0670 H   0  0  0  0  0  0  0  0  0  0  0  0
   36.2000   24.8990   41.8180 H   0  0  0  0  0  0  0  0  0  0  0  0
   37.5970   24.3950   42.7460 H   0  0  0  0  0  0  0  0  0  0  0  0
   37.0450   22.4430   41.4490 H   0  0  0  0  0  0  0  0  0  0  0  0
   36.4770   23.4550   40.1300 H   0  0  0  0  0  0  0  0  0  0  0  0
   39.1340   22.1110   40.4850 H   0  0  0  0  0  0  0  0  0  0  0  0
   38.3060   22.6900   39.2000 H   0  0  0  0  0  0  0  0  0  0  0  0
   39.1160   24.7390   38.8790 H   0  0  0  0  0  0  0  0  0  0  0  0
   40.4830   23.9890   39.7350 H   0  0  0  0  0  0  0  0  0  0  0  0
   40.0330   26.0990   40.4010 H   0  0  0  0  0  0  0  0  0  0  0  0
   39.9030   24.8470   42.1450 N   0  0  0  0  0  0  0  0  0  0  0  0
   40.8650   25.3540   43.0380 C   0  0  0  0  0  0  0  0  0  0  0  0
   40.6180   26.3050   43.8640 O   0  0  0  0  0  0  0  0  0  0  0  0
   42.1420   24.7210   42.9620 N   0  0  0  0  0  0  0  0  0  0  0  0
   39.6130   23.8680   42.5260 H   0  0  0  0  0  0  0  0  0  0  0  0
   43.1490   24.8280   42.7250 H   0  0  0  0  0  0  0  0  0  0  0  0
   42.5150   23.7630   43.1650 H   0  0  0  0  0  0  0  0  0  0  0  0
   38.1450   30.5780   41.3240 C   0  0  0  0  0  0  0  0  0  0  0  0
   37.1670   31.2980   40.6740 C   0  0  0  0  0  0  0  0  0  0  0  0
   37.3500   32.5180   40.0780 C   0  0  0  0  0  0  0  0  0  0  0  0
   38.6450   33.0060   40.1740 C   0  0  0  0  0  0  0  0  0  0  0  0
   39.6370   32.3060   40.8160 C   0  0  0  0  0  0  0  0  0  0  0  0
   39.3850   31.0850   41.3950 N   0  0  0  0  0  0  0  0  0  0  0  0
   36.1760   30.8510   40.6400 H   0  0  0  0  0  0  0  0  0  0  0  0
   36.5550   33.0520   39.5770 H   0  0  0  0  0  0  0  0  0  0  0  0
   38.8770   33.9660   39.7290 H   0  0  0  0  0  0  0  0  0  0  0  0
   40.9630   32.8080   40.9120 N   0  0  0  0  0  0  0  0  0  0  0  0
   41.3660   34.0730   40.3460 C   0  0  0  0  0  2  0  0  0  0  0  0
   42.8570   34.1480   40.1180 C   0  0  0  0  0  2  0  0  0  0  0  0
   43.4300   32.8170   39.6860 C   0  0  0  0  0  3  0  0  0  0  0  0
   43.1140   32.5780   38.6420 H   0  0  0  0  0  0  0  0  0  0  0  0
   43.0630   31.6820   40.5820 C   0  0  0  0  0  2  0  0  0  0  0  0
   42.0130   32.0780   41.5930 C   0  0  0  0  0  2  0  0  0  0  0  0
  1  2  1  0  0  0  0
  2  7  1  0  0  0  0
  2  3  2  0  0  0  0
  3  8  1  0  0  0  0
  4  3  1  0  0  0  0
  5  4  2  0  0  0  0
  6  1  2  0  0  0  0
  6  5  1  0  0  0  0
  9 15  1  6  0  0  0
  9 10  1  0  0  0  0
  9  1  1  0  0  0  0
 10 16  1  0  0  0  0
 10 17  1  0  0  0  0
 11 18  1  0  0  0  0
 11 10  1  0  0  0  0
 12 20  1  0  0  0  0
 12 11  1  0  0  0  0
 13 12  1  0  0  0  0
 13 14  1  0  0  0  0
 14 24  1  6  0  0  0
 14  9  1  0  0  0  0
 14 25  1  0  0  0  0
 19 11  1  0  0  0  0
 21 12  1  0  0  0  0
 22 13  1  0  0  0  0
 23 13  1  0  0  0  0
 25 29  1  0  0  0  0
 25 26  1  0  0  0  0
 26 27  2  0  0  0  0
 28 26  1  0  0  0  0
 28 31  1  0  0  0  0
 30 28  1  0  0  0  0
 32 37  1  0  0  0  0
 32  5  1  0  0  0  0
 33 32  2  0  0  0  0
 34 35  2  0  0  0  0
 34 33  1  0  0  0  0
 35 36  1  0  0  0  0
 36 41  1  0  0  0  0
 36 37  2  0  0  0  0
 38 33  1  0  0  0  0
 39 34  1  0  0  0  0
 40 35  1  0  0  0  0
 41 47  1  0  0  0  0
 42 41  1  0  0  0  0
 43 42  1  0  0  0  0
 44 43  1  0  0  0  0
 44 46  1  0  0  0  0
 45 44  1  0  0  0  0
 46 47  1  0  0  0  0
M  END
>  <minimizedAffinity>
-7.05408239

$$$$

 OpenBabel03252507343D

 47 50  0  0  1  0  0  0  0  0999 V2000
   40.7510   31.1450   41.8980 C   0  0  0  0  0  0  0  0  0  0  0  0
   41.9970   30.7990   42.4010 C   0  0  0  0  0  0  0  0  0  0  0  0
   42.1900   29.5160   42.9690 C   0  0  0  0  0  0  0  0  0  0  0  0
   41.0800   28.6740   42.9860 N   0  0  0  0  0  0  0  0  0  0  0  0
   39.9060   29.0730   42.4850 C   0  0  0  0  0  0  0  0  0  0  0  0
   39.7440   30.2830   41.9520 N   0  0  0  0  0  0  0  0  0  0  0  0
   42.9480   31.2800   42.5240 H   0  0  0  0  0  0  0  0  0  0  0  0
   43.0540   29.0830   43.3920 H   0  0  0  0  0  0  0  0  0  0  0  0
   40.6120   32.4610   41.3090 C   0  0  2  0  0  0  0  0  0  0  0  0
   39.1140   32.8740   41.1800 C   0  0  0  0  0  0  0  0  0  0  0  0
   39.0380   34.2960   40.7350 C   0  0  0  0  0  0  0  0  0  0  0  0
   39.9450   34.6740   39.6100 C   0  0  0  0  0  0  0  0  0  0  0  0
   41.2490   34.0650   39.6690 C   0  0  0  0  0  0  0  0  0  0  0  0
   41.2210   32.5570   39.9970 C   0  0  2  0  0  0  0  0  0  0  0  0
   40.9990   33.2290   42.0200 H   0  0  0  0  0  0  0  0  0  0  0  0
   38.7230   32.7710   42.2130 H   0  0  0  0  0  0  0  0  0  0  0  0
   38.5550   32.1660   40.5780 H   0  0  0  0  0  0  0  0  0  0  0  0
   37.9930   34.4990   40.3790 H   0  0  0  0  0  0  0  0  0  0  0  0
   39.1260   34.9030   41.6590 H   0  0  0  0  0  0  0  0  0  0  0  0
   39.4930   35.0360   38.6860 H   0  0  0  0  0  0  0  0  0  0  0  0
   40.2250   35.7470   39.9630 H   0  0  0  0  0  0  0  0  0  0  0  0
   42.0140   34.4850   40.3680 H   0  0  0  0  0  0  0  0  0  0  0  0
   41.7360   34.1010   38.6540 H   0  0  0  0  0  0  0  0  0  0  0  0
   42.2810   32.3090   39.9180 H   0  0  0  0  0  0  0  0  0  0  0  0
   40.3800   31.8830   39.0050 N   0  0  0  0  0  0  0  0  0  0  0  0
   40.6040   31.5650   37.6540 C   0  0  0  0  0  0  0  0  0  0  0  0
   41.3410   30.5820   37.2800 O   0  0  0  0  0  0  0  0  0  0  0  0
   39.9400   32.4170   36.7220 N   0  0  0  0  0  0  0  0  0  0  0  0
   39.3560   31.5850   39.2270 H   0  0  0  0  0  0  0  0  0  0  0  0
   40.0460   33.1300   35.9720 H   0  0  0  0  0  0  0  0  0  0  0  0
   38.9430   32.6160   36.4700 H   0  0  0  0  0  0  0  0  0  0  0  0
   38.7740   28.1430   42.5520 C   0  0  0  0  0  0  0  0  0  0  0  0
   37.8070   28.2640   43.5250 C   0  0  0  0  0  0  0  0  0  0  0  0
   36.7180   27.4430   43.6620 C   0  0  0  0  0  0  0  0  0  0  0  0
   36.6480   26.4330   42.7140 C   0  0  0  0  0  0  0  0  0  0  0  0
   37.6010   26.2910   41.7340 C   0  0  0  0  0  0  0  0  0  0  0  0
   38.6700   27.1520   41.6530 N   0  0  0  0  0  0  0  0  0  0  0  0
   37.9290   29.0810   44.2330 H   0  0  0  0  0  0  0  0  0  0  0  0
   35.9800   27.5730   44.4410 H   0  0  0  0  0  0  0  0  0  0  0  0
   35.8180   25.7380   42.7500 H   0  0  0  0  0  0  0  0  0  0  0  0
   37.5270   25.2550   40.7650 N   0  0  0  0  0  0  0  0  0  0  0  0
   36.4630   24.2810   40.7370 C   0  0  0  0  0  2  0  0  0  0  0  0
   36.8540   23.0270   39.9920 C   0  0  0  0  0  2  0  0  0  0  0  0
   38.3080   22.6730   40.2090 C   0  0  0  0  0  3  0  0  0  0  0  0
   38.4670   22.3030   41.2510 H   0  0  0  0  0  0  0  0  0  0  0  0
   39.2520   23.7960   39.9370 C   0  0  0  0  0  2  0  0  0  0  0  0
   38.5250   25.1030   39.7260 C   0  0  0  0  0  2  0  0  0  0  0  0
  1  6  2  0  0  0  0
  1  2  1  0  0  0  0
  2  7  1  0  0  0  0
  2  3  2  0  0  0  0
  3  4  1  0  0  0  0
  3  8  1  0  0  0  0
  5 32  1  0  0  0  0
  5  4  2  0  0  0  0
  6  5  1  0  0  0  0
  9  1  1  0  0  0  0
  9 15  1  1  0  0  0
 10  9  1  0  0  0  0
 10 16  1  0  0  0  0
 11 10  1  0  0  0  0
 11 19  1  0  0  0  0
 12 13  1  0  0  0  0
 12 21  1  0  0  0  0
 12 11  1  0  0  0  0
 13 14  1  0  0  0  0
 13 22  1  0  0  0  0
 14 24  1  1  0  0  0
 14  9  1  0  0  0  0
 17 10  1  0  0  0  0
 18 11  1  0  0  0  0
 20 12  1  0  0  0  0
 23 13  1  0  0  0  0
 25 29  1  0  0  0  0
 25 14  1  0  0  0  0
 26 25  1  0  0  0  0
 27 26  2  0  0  0  0
 28 26  1  0  0  0  0
 30 28  1  0  0  0  0
 31 28  1  0  0  0  0
 32 33  1  0  0  0  0
 33 34  2  0  0  0  0
 33 38  1  0  0  0  0
 34 39  1  0  0  0  0
 35 40  1  0  0  0  0
 35 34  1  0  0  0  0
 36 35  2  0  0  0  0
 37 36  1  0  0  0  0
 37 32  2  0  0  0  0
 41 36  1  0  0  0  0
 42 41  1  0  0  0  0
 43 44  1  0  0  0  0
 43 42  1  0  0  0  0
 44 45  1  0  0  0  0
 46 44  1  0  0  0  0
 47 46  1  0  0  0  0
 47 41  1  0  0  0  0
M  END
>  <minimizedAffinity>
-6.80743647

$$$$

 OpenBabel03252507343D

 47 50  0  0  1  0  0  0  0  0999 V2000
   40.6850   33.7200   39.9120 C   0  0  0  0  0  0  0  0  0  0  0  0
   39.9960   34.9060   40.1210 C   0  0  0  0  0  0  0  0  0  0  0  0
   38.5810   34.8960   40.1520 C   0  0  0  0  0  0  0  0  0  0  0  0
   37.9660   33.6600   39.9600 N   0  0  0  0  0  0  0  0  0  0  0  0
   38.6920   32.5550   39.7610 C   0  0  0  0  0  0  0  0  0  0  0  0
   40.0240   32.5830   39.7380 N   0  0  0  0  0  0  0  0  0  0  0  0
   40.2490   35.9400   40.2500 H   0  0  0  0  0  0  0  0  0  0  0  0
   37.8980   35.6880   40.2990 H   0  0  0  0  0  0  0  0  0  0  0  0
   42.1320   33.7800   39.9110 C   0  0  2  0  0  0  0  0  0  0  0  0
   42.7500   32.6800   38.9940 C   0  0  0  0  0  0  0  0  0  0  0  0
   44.2210   32.9000   38.8930 C   0  0  0  0  0  0  0  0  0  0  0  0
   44.9250   33.1860   40.1790 C   0  0  0  0  0  0  0  0  0  0  0  0
   44.1880   34.0300   41.0850 C   0  0  0  0  0  0  0  0  0  0  0  0
   42.7030   33.6380   41.2350 C   0  0  2  0  0  0  0  0  0  0  0  0
   42.4640   34.7140   39.3980 H   0  0  0  0  0  0  0  0  0  0  0  0
   42.2640   32.8530   38.0130 H   0  0  0  0  0  0  0  0  0  0  0  0
   42.4470   31.6860   39.3060 H   0  0  0  0  0  0  0  0  0  0  0  0
   44.6900   31.9690   38.4780 H   0  0  0  0  0  0  0  0  0  0  0  0
   44.3560   33.6480   38.0850 H   0  0  0  0  0  0  0  0  0  0  0  0
   45.7040   32.4950   40.5030 H   0  0  0  0  0  0  0  0  0  0  0  0
   45.6970   33.9640   39.7880 H   0  0  0  0  0  0  0  0  0  0  0  0
   44.1650   35.1330   40.9030 H   0  0  0  0  0  0  0  0  0  0  0  0
   44.5930   33.9180   42.1300 H   0  0  0  0  0  0  0  0  0  0  0  0
   42.3790   34.3460   41.9990 H   0  0  0  0  0  0  0  0  0  0  0  0
   42.6340   32.2370   41.6610 N   0  0  0  0  0  0  0  0  0  0  0  0
   41.9550   31.6190   42.7250 C   0  0  0  0  0  0  0  0  0  0  0  0
   40.6940   31.3790   42.7040 O   0  0  0  0  0  0  0  0  0  0  0  0
   42.7800   31.2670   43.8360 N   0  0  0  0  0  0  0  0  0  0  0  0
   43.2220   31.4600   41.1750 H   0  0  0  0  0  0  0  0  0  0  0  0
   43.0020   31.4360   44.8370 H   0  0  0  0  0  0  0  0  0  0  0  0
   43.5670   30.5960   43.9990 H   0  0  0  0  0  0  0  0  0  0  0  0
   37.9810   31.2900   39.5470 C   0  0  0  0  0  0  0  0  0  0  0  0
   37.1730   31.1020   38.4480 C   0  0  0  0  0  0  0  0  0  0  0  0
   36.4740   29.9570   38.1690 C   0  0  0  0  0  0  0  0  0  0  0  0
   36.6370   28.9510   39.1100 C   0  0  0  0  0  0  0  0  0  0  0  0
   37.4370   29.1150   40.2150 C   0  0  0  0  0  0  0  0  0  0  0  0
   38.1130   30.2910   40.4350 N   0  0  0  0  0  0  0  0  0  0  0  0
   37.0950   31.9360   37.7550 H   0  0  0  0  0  0  0  0  0  0  0  0
   35.8500   29.8490   37.2930 H   0  0  0  0  0  0  0  0  0  0  0  0
   36.1190   28.0100   38.9660 H   0  0  0  0  0  0  0  0  0  0  0  0
   37.6020   28.0820   41.1770 N   0  0  0  0  0  0  0  0  0  0  0  0
   36.9480   26.8000   41.0730 C   0  0  0  0  0  2  0  0  0  0  0  0
   36.8520   26.0970   42.4050 C   0  0  0  0  0  2  0  0  0  0  0  0
   36.6140   27.0680   43.5400 C   0  0  0  0  0  3  0  0  0  0  0  0
   35.5750   27.4760   43.4920 H   0  0  0  0  0  0  0  0  0  0  0  0
   37.5850   28.2010   43.5800 C   0  0  0  0  0  2  0  0  0  0  0  0
   38.4480   28.2470   42.3410 C   0  0  0  0  0  2  0  0  0  0  0  0
  1  2  1  0  0  0  0
  2  3  2  0  0  0  0
  2  7  1  0  0  0  0
  3  8  1  0  0  0  0
  4  3  1  0  0  0  0
  5  4  2  0  0  0  0
  6  5  1  0  0  0  0
  6  1  2  0  0  0  0
  9 15  1  6  0  0  0
  9  1  1  0  0  0  0
  9 14  1  0  0  0  0
 10 17  1  0  0  0  0
 10  9  1  0  0  0  0
 11 10  1  0  0  0  0
 11 12  1  0  0  0  0
 12 20  1  0  0  0  0
 12 13  1  0  0  0  0
 13 14  1  0  0  0  0
 13 23  1  0  0  0  0
 14 25  1  0  0  0  0
 14 24  1  1  0  0  0
 16 10  1  0  0  0  0
 18 11  1  0  0  0  0
 19 11  1  0  0  0  0
 21 12  1  0  0  0  0
 22 13  1  0  0  0  0
 25 26  1  0  0  0  0
 26 28  1  0  0  0  0
 27 26  2  0  0  0  0
 28 31  1  0  0  0  0
 28 30  1  0  0  0  0
 29 25  1  0  0  0  0
 32  5  1  0  0  0  0
 32 37  1  0  0  0  0
 33 32  2  0  0  0  0
 34 33  1  0  0  0  0
 34 35  2  0  0  0  0
 35 36  1  0  0  0  0
 36 37  2  0  0  0  0
 36 41  1  0  0  0  0
 38 33  1  0  0  0  0
 39 34  1  0  0  0  0
 40 35  1  0  0  0  0
 41 47  1  0  0  0  0
 42 41  1  0  0  0  0
 42 43  1  0  0  0  0
 43 44  1  0  0  0  0
 44 46  1  0  0  0  0
 45 44  1  0  0  0  0
 47 46  1  0  0  0  0
M  END
>  <minimizedAffinity>
-6.73140764

$$$$

 OpenBabel03252507343D

 47 50  0  0  1  0  0  0  0  0999 V2000
   37.5420   28.2830   41.8610 C   0  0  0  0  0  0  0  0  0  0  0  0
   36.2290   28.0420   41.4800 C   0  0  0  0  0  0  0  0  0  0  0  0
   35.5090   29.0440   40.7870 C   0  0  0  0  0  0  0  0  0  0  0  0
   36.1890   30.2330   40.5340 N   0  0  0  0  0  0  0  0  0  0  0  0
   37.4550   30.3990   40.9320 C   0  0  0  0  0  0  0  0  0  0  0  0
   38.1190   29.4440   41.5820 N   0  0  0  0  0  0  0  0  0  0  0  0
   35.5190   27.2480   41.5960 H   0  0  0  0  0  0  0  0  0  0  0  0
   34.5180   29.0400   40.4210 H   0  0  0  0  0  0  0  0  0  0  0  0
   38.2420   27.2170   42.5500 C   0  0  2  0  0  0  0  0  0  0  0  0
   39.5540   27.7330   43.2160 C   0  0  0  0  0  0  0  0  0  0  0  0
   40.1370   26.6430   44.0510 C   0  0  0  0  0  0  0  0  0  0  0  0
   40.1840   25.2930   43.4160 C   0  0  0  0  0  0  0  0  0  0  0  0
   39.0290   24.9720   42.6160 C   0  0  0  0  0  0  0  0  0  0  0  0
   38.5830   26.1120   41.6770 C   0  0  2  0  0  0  0  0  0  0  0  0
   37.6480   26.8960   43.4380 H   0  0  0  0  0  0  0  0  0  0  0  0
   39.2120   28.5710   43.8570 H   0  0  0  0  0  0  0  0  0  0  0  0
   40.2260   28.1710   42.4860 H   0  0  0  0  0  0  0  0  0  0  0  0
   41.1980   26.9140   44.2950 H   0  0  0  0  0  0  0  0  0  0  0  0
   39.6160   26.7060   45.0290 H   0  0  0  0  0  0  0  0  0  0  0  0
   41.1590   24.8250   43.2760 H   0  0  0  0  0  0  0  0  0  0  0  0
   39.9440   24.6480   44.3550 H   0  0  0  0  0  0  0  0  0  0  0  0
   38.0880   24.6500   43.1260 H   0  0  0  0  0  0  0  0  0  0  0  0
   39.2740   24.1320   41.9070 H   0  0  0  0  0  0  0  0  0  0  0  0
   37.7660   25.6280   41.1390 H   0  0  0  0  0  0  0  0  0  0  0  0
   39.7160   26.4800   40.8240 N   0  0  0  0  0  0  0  0  0  0  0  0
   39.8090   26.6950   39.4380 C   0  0  0  0  0  0  0  0  0  0  0  0
   39.3970   27.7700   38.8690 O   0  0  0  0  0  0  0  0  0  0  0  0
   40.4070   25.6260   38.7060 N   0  0  0  0  0  0  0  0  0  0  0  0
   40.7270   26.5690   41.2190 H   0  0  0  0  0  0  0  0  0  0  0  0
   40.2690   24.8780   37.9960 H   0  0  0  0  0  0  0  0  0  0  0  0
   41.3590   25.1900   38.6630 H   0  0  0  0  0  0  0  0  0  0  0  0
   38.1060   31.6830   40.6510 C   0  0  0  0  0  0  0  0  0  0  0  0
   37.3990   32.7420   40.1250 C   0  0  0  0  0  0  0  0  0  0  0  0
   37.9250   33.9730   39.8320 C   0  0  0  0  0  0  0  0  0  0  0  0
   39.2780   34.0920   40.1110 C   0  0  0  0  0  0  0  0  0  0  0  0
   40.0040   33.0500   40.6340 C   0  0  0  0  0  0  0  0  0  0  0  0
   39.4150   31.8390   40.9060 N   0  0  0  0  0  0  0  0  0  0  0  0
   36.3420   32.5730   39.9340 H   0  0  0  0  0  0  0  0  0  0  0  0
   37.3340   34.7800   39.4210 H   0  0  0  0  0  0  0  0  0  0  0  0
   39.7740   35.0340   39.9090 H   0  0  0  0  0  0  0  0  0  0  0  0
   41.3910   33.1740   40.9180 N   0  0  0  0  0  0  0  0  0  0  0  0
   42.1360   34.3870   40.6760 C   0  0  0  0  0  2  0  0  0  0  0  0
   43.6190   34.1330   40.5580 C   0  0  0  0  0  2  0  0  0  0  0  0
   43.9140   32.8180   39.8700 C   0  0  0  0  0  3  0  0  0  0  0  0
   43.6690   32.8850   38.7820 H   0  0  0  0  0  0  0  0  0  0  0  0
   43.1980   31.6510   40.4630 C   0  0  0  0  0  2  0  0  0  0  0  0
   42.1620   32.0820   41.4750 C   0  0  0  0  0  2  0  0  0  0  0  0
  1  9  1  0  0  0  0
  2  7  1  0  0  0  0
  2  1  2  0  0  0  0
  3  2  1  0  0  0  0
  4  3  2  0  0  0  0
  4  5  1  0  0  0  0
  5  6  2  0  0  0  0
  6  1  1  0  0  0  0
  8  3  1  0  0  0  0
  9 10  1  0  0  0  0
  9 15  1  1  0  0  0
 10 16  1  0  0  0  0
 10 11  1  0  0  0  0
 11 18  1  0  0  0  0
 11 19  1  0  0  0  0
 12 11  1  0  0  0  0
 12 21  1  0  0  0  0
 13 22  1  0  0  0  0
 13 12  1  0  0  0  0
 14 24  1  6  0  0  0
 14  9  1  0  0  0  0
 14 13  1  0  0  0  0
 17 10  1  0  0  0  0
 20 12  1  0  0  0  0
 23 13  1  0  0  0  0
 25 29  1  0  0  0  0
 25 14  1  0  0  0  0
 26 25  1  0  0  0  0
 27 26  2  0  0  0  0
 28 26  1  0  0  0  0
 30 28  1  0  0  0  0
 31 28  1  0  0  0  0
 32 37  1  0  0  0  0
 32  5  1  0  0  0  0
 33 32  2  0  0  0  0
 34 35  2  0  0  0  0
 34 33  1  0  0  0  0
 35 36  1  0  0  0  0
 36 37  2  0  0  0  0
 36 41  1  0  0  0  0
 38 33  1  0  0  0  0
 39 34  1  0  0  0  0
 40 35  1  0  0  0  0
 41 47  1  0  0  0  0
 42 41  1  0  0  0  0
 43 42  1  0  0  0  0
 44 46  1  0  0  0  0
 44 43  1  0  0  0  0
 45 44  1  0  0  0  0
 46 47  1  0  0  0  0
M  END
>  <minimizedAffinity>
-6.66369629

$$$$

 OpenBabel03252507343D

 47 50  0  0  1  0  0  0  0  0999 V2000
   38.0450   31.3700   40.9870 C   0  0  0  0  0  0  0  0  0  0  0  0
   36.7070   31.5650   40.6760 C   0  0  0  0  0  0  0  0  0  0  0  0
   35.8030   30.4800   40.7650 C   0  0  0  0  0  0  0  0  0  0  0  0
   36.3400   29.2590   41.1680 N   0  0  0  0  0  0  0  0  0  0  0  0
   37.6410   29.1400   41.4510 C   0  0  0  0  0  0  0  0  0  0  0  0
   38.4770   30.1740   41.3630 N   0  0  0  0  0  0  0  0  0  0  0  0
   36.1010   32.3760   40.3220 H   0  0  0  0  0  0  0  0  0  0  0  0
   34.7650   30.4410   40.5730 H   0  0  0  0  0  0  0  0  0  0  0  0
   38.9250   32.5180   40.9000 C   0  0  2  0  0  0  0  0  0  0  0  0
   38.2380   33.7090   40.1630 C   0  0  0  0  0  0  0  0  0  0  0  0
   39.1160   34.9110   40.2580 C   0  0  0  0  0  0  0  0  0  0  0  0
   40.5640   34.6810   39.9740 C   0  0  0  0  0  0  0  0  0  0  0  0
   41.0810   33.4390   40.4890 C   0  0  0  0  0  0  0  0  0  0  0  0
   40.1700   32.2230   40.2190 C   0  0  2  0  0  0  0  0  0  0  0  0
   39.0820   32.9430   41.9190 H   0  0  0  0  0  0  0  0  0  0  0  0
   37.3020   33.8670   40.7360 H   0  0  0  0  0  0  0  0  0  0  0  0
   37.9310   33.4330   39.1600 H   0  0  0  0  0  0  0  0  0  0  0  0
   38.7630   35.6650   39.5060 H   0  0  0  0  0  0  0  0  0  0  0  0
   38.8780   35.3780   41.2350 H   0  0  0  0  0  0  0  0  0  0  0  0
   41.0150   35.2170   39.1380 H   0  0  0  0  0  0  0  0  0  0  0  0
   41.0150   35.4110   40.7610 H   0  0  0  0  0  0  0  0  0  0  0  0
   41.3280   33.3630   41.5770 H   0  0  0  0  0  0  0  0  0  0  0  0
   42.0370   33.1700   39.9570 H   0  0  0  0  0  0  0  0  0  0  0  0
   40.7810   31.4140   40.6220 H   0  0  0  0  0  0  0  0  0  0  0  0
   39.9390   32.1280   38.7750 N   0  0  0  0  0  0  0  0  0  0  0  0
   39.9350   31.0260   37.9020 C   0  0  0  0  0  0  0  0  0  0  0  0
   38.9550   30.1990   37.8260 O   0  0  0  0  0  0  0  0  0  0  0  0
   41.1040   30.8980   37.0950 N   0  0  0  0  0  0  0  0  0  0  0  0
   39.7970   33.0130   38.1570 H   0  0  0  0  0  0  0  0  0  0  0  0
   41.9490   30.3320   36.8770 H   0  0  0  0  0  0  0  0  0  0  0  0
   41.5460   31.4560   36.3260 H   0  0  0  0  0  0  0  0  0  0  0  0
   38.1450   27.8210   41.8500 C   0  0  0  0  0  0  0  0  0  0  0  0
   38.9890   27.6760   42.9280 C   0  0  0  0  0  0  0  0  0  0  0  0
   39.5070   26.4860   43.3700 C   0  0  0  0  0  0  0  0  0  0  0  0
   39.1070   25.3850   42.6280 C   0  0  0  0  0  0  0  0  0  0  0  0
   38.2660   25.5040   41.5480 C   0  0  0  0  0  0  0  0  0  0  0  0
   37.7820   26.7300   41.1570 N   0  0  0  0  0  0  0  0  0  0  0  0
   39.2580   28.5850   43.4610 H   0  0  0  0  0  0  0  0  0  0  0  0
   40.1670   26.4140   44.2230 H   0  0  0  0  0  0  0  0  0  0  0  0
   39.4700   24.4030   42.9100 H   0  0  0  0  0  0  0  0  0  0  0  0
   37.8590   24.3740   40.7890 N   0  0  0  0  0  0  0  0  0  0  0  0
   38.2960   23.0310   41.0860 C   0  0  0  0  0  2  0  0  0  0  0  0
   38.1730   22.1130   39.8930 C   0  0  0  0  0  2  0  0  0  0  0  0
   38.4850   22.8270   38.5970 C   0  0  0  0  0  3  0  0  0  0  0  0
   39.5780   23.0470   38.5270 H   0  0  0  0  0  0  0  0  0  0  0  0
   37.7170   24.0920   38.4040 C   0  0  0  0  0  2  0  0  0  0  0  0
   36.9680   24.4930   39.6530 C   0  0  0  0  0  2  0  0  0  0  0  0
  1  6  1  0  0  0  0
  2  3  1  0  0  0  0
  2  1  2  0  0  0  0
  3  4  2  0  0  0  0
  4  5  1  0  0  0  0
  5 32  1  0  0  0  0
  6  5  2  0  0  0  0
  7  2  1  0  0  0  0
  8  3  1  0  0  0  0
  9  1  1  0  0  0  0
  9 15  1  1  0  0  0
 10 11  1  0  0  0  0
 10 16  1  0  0  0  0
 10  9  1  0  0  0  0
 11 19  1  0  0  0  0
 12 11  1  0  0  0  0
 12 13  1  0  0  0  0
 12 21  1  0  0  0  0
 13 22  1  0  0  0  0
 14 13  1  0  0  0  0
 14 24  1  1  0  0  0
 14  9  1  0  0  0  0
 17 10  1  0  0  0  0
 18 11  1  0  0  0  0
 20 12  1  0  0  0  0
 23 13  1  0  0  0  0
 25 14  1  0  0  0  0
 26 25  1  0  0  0  0
 27 26  2  0  0  0  0
 28 26  1  0  0  0  0
 29 25  1  0  0  0  0
 30 28  1  0  0  0  0
 31 28  1  0  0  0  0
 32 33  1  0  0  0  0
 33 34  2  0  0  0  0
 33 38  1  0  0  0  0
 34 39  1  0  0  0  0
 35 40  1  0  0  0  0
 35 34  1  0  0  0  0
 36 35  2  0  0  0  0
 37 36  1  0  0  0  0
 37 32  2  0  0  0  0
 41 42  1  0  0  0  0
 41 36  1  0  0  0  0
 43 42  1  0  0  0  0
 44 43  1  0  0  0  0
 45 44  1  0  0  0  0
 46 44  1  0  0  0  0
 46 47  1  0  0  0  0
 47 41  1  0  0  0  0
M  END
>  <minimizedAffinity>
-6.62957573

$$$$

 OpenBabel03252507343D

 47 50  0  0  1  0  0  0  0  0999 V2000
   39.0380   27.1550   40.1220 C   0  0  0  0  0  0  0  0  0  0  0  0
   38.7420   25.9810   39.4430 C   0  0  0  0  0  0  0  0  0  0  0  0
   39.2350   25.7910   38.1300 C   0  0  0  0  0  0  0  0  0  0  0  0
   40.0000   26.8280   37.5990 N   0  0  0  0  0  0  0  0  0  0  0  0
   40.2450   27.9340   38.3090 C   0  0  0  0  0  0  0  0  0  0  0  0
   39.7750   28.0950   39.5450 N   0  0  0  0  0  0  0  0  0  0  0  0
   38.1650   25.0980   39.6320 H   0  0  0  0  0  0  0  0  0  0  0  0
   39.1160   24.9750   37.4700 H   0  0  0  0  0  0  0  0  0  0  0  0
   38.5280   27.2910   41.4710 C   0  0  2  0  0  0  0  0  0  0  0  0
   37.2510   26.4230   41.6890 C   0  0  0  0  0  0  0  0  0  0  0  0
   36.8760   26.4640   43.1320 C   0  0  0  0  0  0  0  0  0  0  0  0
   36.8960   27.8140   43.7710 C   0  0  0  0  0  0  0  0  0  0  0  0
   37.9830   28.6570   43.3430 C   0  0  0  0  0  0  0  0  0  0  0  0
   38.2070   28.6610   41.8160 C   0  0  2  0  0  0  0  0  0  0  0  0
   39.2450   26.8240   42.1880 H   0  0  0  0  0  0  0  0  0  0  0  0
   37.5750   25.4020   41.4030 H   0  0  0  0  0  0  0  0  0  0  0  0
   36.4630   26.6920   40.9950 H   0  0  0  0  0  0  0  0  0  0  0  0
   35.8250   26.0830   43.2340 H   0  0  0  0  0  0  0  0  0  0  0  0
   37.4910   25.6820   43.6230 H   0  0  0  0  0  0  0  0  0  0  0  0
   35.9630   28.2010   44.1830 H   0  0  0  0  0  0  0  0  0  0  0  0
   37.3000   27.5070   44.8180 H   0  0  0  0  0  0  0  0  0  0  0  0
   39.0020   28.4880   43.7710 H   0  0  0  0  0  0  0  0  0  0  0  0
   37.7480   29.7340   43.5740 H   0  0  0  0  0  0  0  0  0  0  0  0
   39.0050   29.4000   41.7270 H   0  0  0  0  0  0  0  0  0  0  0  0
   36.9570   29.0600   41.1650 N   0  0  0  0  0  0  0  0  0  0  0  0
   36.5990   30.2300   40.4700 C   0  0  0  0  0  0  0  0  0  0  0  0
   36.9710   30.4670   39.2650 O   0  0  0  0  0  0  0  0  0  0  0  0
   35.7770   31.1340   41.2080 N   0  0  0  0  0  0  0  0  0  0  0  0
   36.0590   28.4450   41.2190 H   0  0  0  0  0  0  0  0  0  0  0  0
   35.7040   32.0710   41.6540 H   0  0  0  0  0  0  0  0  0  0  0  0
   34.8050   31.1130   41.5960 H   0  0  0  0  0  0  0  0  0  0  0  0
   41.0410   28.9950   37.6830 C   0  0  0  0  0  0  0  0  0  0  0  0
   41.9680   28.7100   36.7060 C   0  0  0  0  0  0  0  0  0  0  0  0
   42.7540   29.6350   36.0690 C   0  0  0  0  0  0  0  0  0  0  0  0
   42.5460   30.9390   36.4910 C   0  0  0  0  0  0  0  0  0  0  0  0
   41.6270   31.2490   37.4640 C   0  0  0  0  0  0  0  0  0  0  0  0
   40.8710   30.2710   38.0640 N   0  0  0  0  0  0  0  0  0  0  0  0
   42.0740   27.6640   36.4270 H   0  0  0  0  0  0  0  0  0  0  0  0
   43.4710   29.3690   35.3050 H   0  0  0  0  0  0  0  0  0  0  0  0
   43.1260   31.7350   36.0380 H   0  0  0  0  0  0  0  0  0  0  0  0
   41.4180   32.5870   37.8960 N   0  0  0  0  0  0  0  0  0  0  0  0
   42.1470   33.7090   37.3550 C   0  0  0  0  0  2  0  0  0  0  0  0
   42.1400   34.8970   38.2860 C   0  0  0  0  0  2  0  0  0  0  0  0
   42.2060   34.4770   39.7380 C   0  0  0  0  0  3  0  0  0  0  0  0
   43.2210   34.0800   39.9830 H   0  0  0  0  0  0  0  0  0  0  0  0
   41.1770   33.4670   40.1220 C   0  0  0  0  0  2  0  0  0  0  0  0
   40.4470   32.9210   38.9170 C   0  0  0  0  0  2  0  0  0  0  0  0
  1  9  1  0  0  0  0
  2  7  1  0  0  0  0
  2  1  2  0  0  0  0
  3  2  1  0  0  0  0
  4  3  2  0  0  0  0
  4  5  1  0  0  0  0
  5  6  2  0  0  0  0
  6  1  1  0  0  0  0
  8  3  1  0  0  0  0
  9 10  1  0  0  0  0
  9 14  1  0  0  0  0
  9 15  1  1  0  0  0
 10 11  1  0  0  0  0
 11 18  1  0  0  0  0
 11 19  1  0  0  0  0
 11 12  1  0  0  0  0
 12 20  1  0  0  0  0
 12 21  1  0  0  0  0
 13 23  1  0  0  0  0
 13 12  1  0  0  0  0
 13 22  1  0  0  0  0
 14 24  1  6  0  0  0
 14 13  1  0  0  0  0
 16 10  1  0  0  0  0
 17 10  1  0  0  0  0
 25 29  1  0  0  0  0
 25 14  1  0  0  0  0
 26 25  1  0  0  0  0
 26 28  1  0  0  0  0
 27 26  2  0  0  0  0
 28 31  1  0  0  0  0
 28 30  1  0  0  0  0
 32 37  1  0  0  0  0
 32  5  1  0  0  0  0
 33 32  2  0  0  0  0
 34 35  2  0  0  0  0
 34 33  1  0  0  0  0
 35 36  1  0  0  0  0
 36 41  1  0  0  0  0
 36 37  2  0  0  0  0
 38 33  1  0  0  0  0
 39 34  1  0  0  0  0
 40 35  1  0  0  0  0
 41 47  1  0  0  0  0
 42 41  1  0  0  0  0
 42 43  1  0  0  0  0
 43 44  1  0  0  0  0
 44 45  1  0  0  0  0
 44 46  1  0  0  0  0
 47 46  1  0  0  0  0
M  END
>  <minimizedAffinity>
-6.55487871

$$$$

 OpenBabel03252507343D

 47 50  0  0  1  0  0  0  0  0999 V2000
   38.9740   31.5520   39.0210 C   0  0  0  0  0  0  0  0  0  0  0  0
   38.0320   32.5710   39.0530 C   0  0  0  0  0  0  0  0  0  0  0  0
   36.9100   32.4580   39.9080 C   0  0  0  0  0  0  0  0  0  0  0  0
   36.8300   31.2970   40.6740 N   0  0  0  0  0  0  0  0  0  0  0  0
   37.7730   30.3530   40.5920 C   0  0  0  0  0  0  0  0  0  0  0  0
   38.8240   30.4770   39.7830 N   0  0  0  0  0  0  0  0  0  0  0  0
   37.8750   33.5010   38.5440 H   0  0  0  0  0  0  0  0  0  0  0  0
   36.1050   33.1230   40.0660 H   0  0  0  0  0  0  0  0  0  0  0  0
   40.1140   31.7250   38.1440 C   0  0  2  0  0  0  0  0  0  0  0  0
   40.9400   30.4080   38.0130 C   0  0  0  0  0  0  0  0  0  0  0  0
   41.9900   30.5940   36.9700 C   0  0  0  0  0  0  0  0  0  0  0  0
   42.7580   31.8730   37.0430 C   0  0  0  0  0  0  0  0  0  0  0  0
   41.9670   33.0220   37.4000 C   0  0  0  0  0  0  0  0  0  0  0  0
   41.0080   32.7770   38.5850 C   0  0  2  0  0  0  0  0  0  0  0  0
   39.7580   31.8740   37.0970 H   0  0  0  0  0  0  0  0  0  0  0  0
   40.1920   29.6610   37.6800 H   0  0  0  0  0  0  0  0  0  0  0  0
   41.2970   30.0640   38.9780 H   0  0  0  0  0  0  0  0  0  0  0  0
   42.7420   29.7680   37.0760 H   0  0  0  0  0  0  0  0  0  0  0  0
   41.4910   30.3780   36.0030 H   0  0  0  0  0  0  0  0  0  0  0  0
   43.8360   31.8160   37.1970 H   0  0  0  0  0  0  0  0  0  0  0  0
   42.8730   32.0740   35.9020 H   0  0  0  0  0  0  0  0  0  0  0  0
   41.3250   33.5040   36.6210 H   0  0  0  0  0  0  0  0  0  0  0  0
   42.6350   33.8480   37.7740 H   0  0  0  0  0  0  0  0  0  0  0  0
   40.5840   33.7730   38.7160 H   0  0  0  0  0  0  0  0  0  0  0  0
   41.7960   32.3150   39.7310 N   0  0  0  0  0  0  0  0  0  0  0  0
   41.6480   32.5310   41.1120 C   0  0  0  0  0  0  0  0  0  0  0  0
   40.7760   31.9150   41.8250 O   0  0  0  0  0  0  0  0  0  0  0  0
   42.5520   33.4850   41.6680 N   0  0  0  0  0  0  0  0  0  0  0  0
   42.7170   31.7480   39.6030 H   0  0  0  0  0  0  0  0  0  0  0  0
   42.6590   34.4150   42.1210 H   0  0  0  0  0  0  0  0  0  0  0  0
   43.5880   33.5390   41.8100 H   0  0  0  0  0  0  0  0  0  0  0  0
   37.6170   29.1460   41.4120 C   0  0  0  0  0  0  0  0  0  0  0  0
   37.5630   29.2190   42.7860 C   0  0  0  0  0  0  0  0  0  0  0  0
   37.4200   28.1470   43.6280 C   0  0  0  0  0  0  0  0  0  0  0  0
   37.3280   26.9260   42.9780 C   0  0  0  0  0  0  0  0  0  0  0  0
   37.3800   26.8270   41.6090 C   0  0  0  0  0  0  0  0  0  0  0  0
   37.5250   27.9440   40.8220 N   0  0  0  0  0  0  0  0  0  0  0  0
   37.6410   30.2120   43.2240 H   0  0  0  0  0  0  0  0  0  0  0  0
   37.3810   28.2470   44.7040 H   0  0  0  0  0  0  0  0  0  0  0  0
   37.2120   26.0250   43.5700 H   0  0  0  0  0  0  0  0  0  0  0  0
   37.2870   25.5740   40.9460 N   0  0  0  0  0  0  0  0  0  0  0  0
   37.1380   24.3230   41.6500 C   0  0  0  0  0  2  0  0  0  0  0  0
   37.5730   23.1420   40.8160 C   0  0  0  0  0  2  0  0  0  0  0  0
   38.7630   23.4750   39.9440 C   0  0  0  0  0  3  0  0  0  0  0  0
   39.6830   23.5870   40.5680 H   0  0  0  0  0  0  0  0  0  0  0  0
   38.5810   24.7020   39.1140 C   0  0  0  0  0  2  0  0  0  0  0  0
   37.3350   25.4640   39.5020 C   0  0  0  0  0  2  0  0  0  0  0  0
  1  2  2  0  0  0  0
  1  6  1  0  0  0  0
  2  3  1  0  0  0  0
  3  8  1  0  0  0  0
  3  4  2  0  0  0  0
  5  4  1  0  0  0  0
  5 32  1  0  0  0  0
  6  5  2  0  0  0  0
  7  2  1  0  0  0  0
  9 15  1  6  0  0  0
  9 14  1  0  0  0  0
  9  1  1  0  0  0  0
 10  9  1  0  0  0  0
 10 17  1  0  0  0  0
 11 12  1  0  0  0  0
 11 18  1  0  0  0  0
 11 10  1  0  0  0  0
 12 20  1  0  0  0  0
 12 13  1  0  0  0  0
 13 23  1  0  0  0  0
 13 14  1  0  0  0  0
 14 24  1  1  0  0  0
 14 25  1  0  0  0  0
 16 10  1  0  0  0  0
 19 11  1  0  0  0  0
 21 12  1  0  0  0  0
 22 13  1  0  0  0  0
 25 26  1  0  0  0  0
 26 28  1  0  0  0  0
 26 27  2  0  0  0  0
 28 31  1  0  0  0  0
 28 30  1  0  0  0  0
 29 25  1  0  0  0  0
 32 33  1  0  0  0  0
 33 38  1  0  0  0  0
 33 34  2  0  0  0  0
 34 39  1  0  0  0  0
 35 40  1  0  0  0  0
 35 34  1  0  0  0  0
 36 35  2  0  0  0  0
 37 32  2  0  0  0  0
 37 36  1  0  0  0  0
 41 36  1  0  0  0  0
 41 42  1  0  0  0  0
 43 42  1  0  0  0  0
 44 45  1  0  0  0  0
 44 43  1  0  0  0  0
 46 47  1  0  0  0  0
 46 44  1  0  0  0  0
 47 41  1  0  0  0  0
M  END
>  <minimizedAffinity>
-6.52742624

$$$$

 OpenBabel03252507343D

 47 50  0  0  1  0  0  0  0  0999 V2000
   40.7420   31.5740   40.7840 C   0  0  0  0  0  0  0  0  0  0  0  0
   42.0090   32.1300   40.8920 C   0  0  0  0  0  0  0  0  0  0  0  0
   43.0350   31.4060   41.5460 C   0  0  0  0  0  0  0  0  0  0  0  0
   42.6850   30.1560   42.0510 N   0  0  0  0  0  0  0  0  0  0  0  0
   41.4430   29.6820   41.9140 C   0  0  0  0  0  0  0  0  0  0  0  0
   40.4900   30.3750   41.2920 N   0  0  0  0  0  0  0  0  0  0  0  0
   42.4780   33.0550   40.6220 H   0  0  0  0  0  0  0  0  0  0  0  0
   44.0440   31.6640   41.7190 H   0  0  0  0  0  0  0  0  0  0  0  0
   39.7330   32.3450   40.0860 C   0  0  2  0  0  0  0  0  0  0  0  0
   39.2850   33.5860   40.9200 C   0  0  0  0  0  0  0  0  0  0  0  0
   38.3840   34.4320   40.0850 C   0  0  0  0  0  0  0  0  0  0  0  0
   37.3220   33.7030   39.3300 C   0  0  0  0  0  0  0  0  0  0  0  0
   37.7450   32.4410   38.7790 C   0  0  0  0  0  0  0  0  0  0  0  0
   38.5530   31.5680   39.7640 C   0  0  2  0  0  0  0  0  0  0  0  0
   40.1890   32.8280   39.1890 H   0  0  0  0  0  0  0  0  0  0  0  0
   40.2350   34.1190   41.1270 H   0  0  0  0  0  0  0  0  0  0  0  0
   38.8890   33.2950   41.8860 H   0  0  0  0  0  0  0  0  0  0  0  0
   37.8520   35.1530   40.7610 H   0  0  0  0  0  0  0  0  0  0  0  0
   39.0550   35.0790   39.4830 H   0  0  0  0  0  0  0  0  0  0  0  0
   36.2810   33.9430   39.5470 H   0  0  0  0  0  0  0  0  0  0  0  0
   37.3280   34.3410   38.3570 H   0  0  0  0  0  0  0  0  0  0  0  0
   38.3550   32.4340   37.8420 H   0  0  0  0  0  0  0  0  0  0  0  0
   36.8470   31.8030   38.5440 H   0  0  0  0  0  0  0  0  0  0  0  0
   38.6950   30.6650   39.1690 H   0  0  0  0  0  0  0  0  0  0  0  0
   37.7460   31.3620   40.9690 N   0  0  0  0  0  0  0  0  0  0  0  0
   36.8600   30.3320   41.3330 C   0  0  0  0  0  0  0  0  0  0  0  0
   37.2580   29.1820   41.7450 O   0  0  0  0  0  0  0  0  0  0  0  0
   35.4780   30.6650   41.2180 N   0  0  0  0  0  0  0  0  0  0  0  0
   37.6990   32.1050   41.7640 H   0  0  0  0  0  0  0  0  0  0  0  0
   34.5790   30.4770   40.7280 H   0  0  0  0  0  0  0  0  0  0  0  0
   34.8290   31.3370   41.6910 H   0  0  0  0  0  0  0  0  0  0  0  0
   41.1380   28.3660   42.4860 C   0  0  0  0  0  0  0  0  0  0  0  0
   41.7800   27.9130   43.6170 C   0  0  0  0  0  0  0  0  0  0  0  0
   41.5580   26.7020   44.2190 C   0  0  0  0  0  0  0  0  0  0  0  0
   40.6010   25.9230   43.5860 C   0  0  0  0  0  0  0  0  0  0  0  0
   39.9480   26.3520   42.4560 C   0  0  0  0  0  0  0  0  0  0  0  0
   40.2180   27.5810   41.9040 N   0  0  0  0  0  0  0  0  0  0  0  0
   42.5170   28.5800   44.0570 H   0  0  0  0  0  0  0  0  0  0  0  0
   42.0840   26.3830   45.1080 H   0  0  0  0  0  0  0  0  0  0  0  0
   40.3640   24.9480   43.9960 H   0  0  0  0  0  0  0  0  0  0  0  0
   38.9680   25.5510   41.8090 N   0  0  0  0  0  0  0  0  0  0  0  0
   38.5920   24.2400   42.2800 C   0  0  0  0  0  2  0  0  0  0  0  0
   37.9580   23.4030   41.1940 C   0  0  0  0  0  2  0  0  0  0  0  0
   38.5890   23.6590   39.8440 C   0  0  0  0  0  3  0  0  0  0  0  0
   39.6190   23.2270   39.8070 H   0  0  0  0  0  0  0  0  0  0  0  0
   38.6490   25.1020   39.4680 C   0  0  0  0  0  2  0  0  0  0  0  0
   38.2720   26.0010   40.6220 C   0  0  0  0  0  2  0  0  0  0  0  0
  1  2  2  0  0  0  0
  1  6  1  0  0  0  0
  2  3  1  0  0  0  0
  3  8  1  0  0  0  0
  3  4  2  0  0  0  0
  5  4  1  0  0  0  0
  5 32  1  0  0  0  0
  6  5  2  0  0  0  0
  7  2  1  0  0  0  0
  9 15  1  6  0  0  0
  9  1  1  0  0  0  0
  9 10  1  0  0  0  0
 10 16  1  0  0  0  0
 10 17  1  0  0  0  0
 11 18  1  0  0  0  0
 11 10  1  0  0  0  0
 12 20  1  0  0  0  0
 12 11  1  0  0  0  0
 13 12  1  0  0  0  0
 13 14  1  0  0  0  0
 14 24  1  6  0  0  0
 14  9  1  0  0  0  0
 14 25  1  0  0  0  0
 19 11  1  0  0  0  0
 21 12  1  0  0  0  0
 22 13  1  0  0  0  0
 23 13  1  0  0  0  0
 25 26  1  0  0  0  0
 25 29  1  0  0  0  0
 26 27  2  0  0  0  0
 28 26  1  0  0  0  0
 28 31  1  0  0  0  0
 30 28  1  0  0  0  0
 32 33  1  0  0  0  0
 33 38  1  0  0  0  0
 33 34  2  0  0  0  0
 34 39  1  0  0  0  0
 35 40  1  0  0  0  0
 35 34  1  0  0  0  0
 36 35  2  0  0  0  0
 37 36  1  0  0  0  0
 37 32  2  0  0  0  0
 41 42  1  0  0  0  0
 41 36  1  0  0  0  0
 43 42  1  0  0  0  0
 44 43  1  0  0  0  0
 45 44  1  0  0  0  0
 46 44  1  0  0  0  0
 46 47  1  0  0  0  0
 47 41  1  0  0  0  0
M  END
>  <minimizedAffinity>
-6.52459097

$$$$

 OpenBabel03252507343D

 47 50  0  0  1  0  0  0  0  0999 V2000
   37.9890   27.0490   38.8910 C   0  0  0  0  0  0  0  0  0  0  0  0
   37.9970   26.7210   37.5430 C   0  0  0  0  0  0  0  0  0  0  0  0
   38.1290   27.7460   36.5750 C   0  0  0  0  0  0  0  0  0  0  0  0
   38.2410   29.0470   37.0630 N   0  0  0  0  0  0  0  0  0  0  0  0
   38.2240   29.2920   38.3770 C   0  0  0  0  0  0  0  0  0  0  0  0
   38.1010   28.3140   39.2740 N   0  0  0  0  0  0  0  0  0  0  0  0
   37.8910   25.8280   36.9590 H   0  0  0  0  0  0  0  0  0  0  0  0
   38.1570   27.6870   35.5220 H   0  0  0  0  0  0  0  0  0  0  0  0
   37.8730   25.9610   39.8410 C   0  0  2  0  0  0  0  0  0  0  0  0
   36.4660   25.2900   39.7720 C   0  0  0  0  0  0  0  0  0  0  0  0
   36.4640   24.0760   40.6380 C   0  0  0  0  0  0  0  0  0  0  0  0
   37.0710   24.2420   41.9920 C   0  0  0  0  0  0  0  0  0  0  0  0
   38.2470   25.0730   42.0180 C   0  0  0  0  0  0  0  0  0  0  0  0
   38.1070   26.3800   41.2080 C   0  0  2  0  0  0  0  0  0  0  0  0
   38.5400   25.1230   39.5280 H   0  0  0  0  0  0  0  0  0  0  0  0
   36.3640   25.0050   38.7050 H   0  0  0  0  0  0  0  0  0  0  0  0
   35.6740   26.0040   39.9680 H   0  0  0  0  0  0  0  0  0  0  0  0
   35.3990   23.7640   40.8050 H   0  0  0  0  0  0  0  0  0  0  0  0
   36.8830   23.2620   40.0110 H   0  0  0  0  0  0  0  0  0  0  0  0
   36.4370   24.0730   42.8630 H   0  0  0  0  0  0  0  0  0  0  0  0
   37.5790   23.1990   42.0870 H   0  0  0  0  0  0  0  0  0  0  0  0
   39.2230   24.6440   41.6820 H   0  0  0  0  0  0  0  0  0  0  0  0
   38.4370   25.4370   43.0670 H   0  0  0  0  0  0  0  0  0  0  0  0
   39.0600   26.8620   41.4290 H   0  0  0  0  0  0  0  0  0  0  0  0
   36.9430   27.1140   41.7120 N   0  0  0  0  0  0  0  0  0  0  0  0
   36.8250   28.1150   42.6930 C   0  0  0  0  0  0  0  0  0  0  0  0
   37.1520   29.3390   42.4850 O   0  0  0  0  0  0  0  0  0  0  0  0
   36.3020   27.6670   43.9430 N   0  0  0  0  0  0  0  0  0  0  0  0
   35.9310   26.8830   41.3820 H   0  0  0  0  0  0  0  0  0  0  0  0
   36.4900   27.5080   44.9530 H   0  0  0  0  0  0  0  0  0  0  0  0
   35.3850   27.2860   44.2760 H   0  0  0  0  0  0  0  0  0  0  0  0
   38.3270   30.6860   38.8220 C   0  0  0  0  0  0  0  0  0  0  0  0
   37.2430   31.5340   38.7680 C   0  0  0  0  0  0  0  0  0  0  0  0
   37.2490   32.8470   39.1610 C   0  0  0  0  0  0  0  0  0  0  0  0
   38.4730   33.2890   39.6390 C   0  0  0  0  0  0  0  0  0  0  0  0
   39.5690   32.4630   39.7020 C   0  0  0  0  0  0  0  0  0  0  0  0
   39.4950   31.1530   39.2910 N   0  0  0  0  0  0  0  0  0  0  0  0
   36.3170   31.1150   38.3820 H   0  0  0  0  0  0  0  0  0  0  0  0
   36.3750   33.4810   39.1030 H   0  0  0  0  0  0  0  0  0  0  0  0
   38.5660   34.3170   39.9710 H   0  0  0  0  0  0  0  0  0  0  0  0
   40.8230   32.9190   40.1910 N   0  0  0  0  0  0  0  0  0  0  0  0
   41.0410   34.2700   40.6490 C   0  0  0  0  0  2  0  0  0  0  0  0
   42.5010   34.6530   40.6230 C   0  0  0  0  0  2  0  0  0  0  0  0
   43.2240   34.0420   39.4440 C   0  0  0  0  0  3  0  0  0  0  0  0
   42.9060   34.5350   38.4940 H   0  0  0  0  0  0  0  0  0  0  0  0
   43.0360   32.5670   39.3170 C   0  0  0  0  0  2  0  0  0  0  0  0
   41.9790   32.0510   40.2650 C   0  0  0  0  0  2  0  0  0  0  0  0
  1  6  1  0  0  0  0
  1  9  1  0  0  0  0
  2  1  2  0  0  0  0
  3  4  2  0  0  0  0
  3  2  1  0  0  0  0
  4  5  1  0  0  0  0
  5 32  1  0  0  0  0
  5  6  2  0  0  0  0
  7  2  1  0  0  0  0
  8  3  1  0  0  0  0
  9 15  1  6  0  0  0
  9 14  1  0  0  0  0
 10  9  1  0  0  0  0
 10 17  1  0  0  0  0
 10 11  1  0  0  0  0
 11 18  1  0  0  0  0
 11 12  1  0  0  0  0
 12 13  1  0  0  0  0
 12 21  1  0  0  0  0
 12 20  1  0  0  0  0
 13 23  1  0  0  0  0
 14 24  1  1  0  0  0
 14 25  1  0  0  0  0
 14 13  1  0  0  0  0
 16 10  1  0  0  0  0
 19 11  1  0  0  0  0
 22 13  1  0  0  0  0
 25 26  1  0  0  0  0
 26 28  1  0  0  0  0
 27 26  2  0  0  0  0
 28 31  1  0  0  0  0
 28 30  1  0  0  0  0
 29 25  1  0  0  0  0
 32 37  1  0  0  0  0
 33 32  2  0  0  0  0
 33 34  1  0  0  0  0
 34 35  2  0  0  0  0
 35 36  1  0  0  0  0
 35 40  1  0  0  0  0
 36 41  1  0  0  0  0
 37 36  2  0  0  0  0
 38 33  1  0  0  0  0
 39 34  1  0  0  0  0
 41 47  1  0  0  0  0
 41 42  1  0  0  0  0
 43 42  1  0  0  0  0
 44 43  1  0  0  0  0
 45 44  1  0  0  0  0
 46 44  1  0  0  0  0
 46 47  1  0  0  0  0
M  END
>  <minimizedAffinity>
-6.48702765

$$$$
