
 OpenBabel03252507313D

 47 50  0  0  1  0  0  0  0  0999 V2000
   46.9810   32.7640   45.5240 C   0  0  0  0  0  0  0  0  0  0  0  0
   45.8890   33.4480   46.0390 C   0  0  0  0  0  0  0  0  0  0  0  0
   45.2040   34.3840   45.2260 C   0  0  0  0  0  0  0  0  0  0  0  0
   45.6950   34.5560   43.9340 N   0  0  0  0  0  0  0  0  0  0  0  0
   46.7550   33.8650   43.5030 C   0  0  0  0  0  0  0  0  0  0  0  0
   47.3850   32.9860   44.2810 N   0  0  0  0  0  0  0  0  0  0  0  0
   45.3770   33.5020   46.9800 H   0  0  0  0  0  0  0  0  0  0  0  0
   44.3650   34.9870   45.4430 H   0  0  0  0  0  0  0  0  0  0  0  0
   47.6330   31.8020   46.3890 C   0  0  2  0  0  0  0  0  0  0  0  0
   47.4350   30.3440   45.8740 C   0  0  0  0  0  0  0  0  0  0  0  0
   48.2680   29.4190   46.6970 C   0  0  0  0  0  0  0  0  0  0  0  0
   48.2080   29.6310   48.1730 C   0  0  0  0  0  0  0  0  0  0  0  0
   48.1580   31.0140   48.5740 C   0  0  0  0  0  0  0  0  0  0  0  0
   47.1610   31.8650   47.7580 C   0  0  2  0  0  0  0  0  0  0  0  0
   48.7400   31.9220   46.3100 H   0  0  0  0  0  0  0  0  0  0  0  0
   47.8120   30.3800   44.8320 H   0  0  0  0  0  0  0  0  0  0  0  0
   46.3840   30.0850   45.8030 H   0  0  0  0  0  0  0  0  0  0  0  0
   47.9160   28.3700   46.5140 H   0  0  0  0  0  0  0  0  0  0  0  0
   49.2790   29.4430   46.2400 H   0  0  0  0  0  0  0  0  0  0  0  0
   47.8410   28.8140   48.7950 H   0  0  0  0  0  0  0  0  0  0  0  0
   49.3200   29.4040   48.4290 H   0  0  0  0  0  0  0  0  0  0  0  0
   49.1010   31.6150   48.5710 H   0  0  0  0  0  0  0  0  0  0  0  0
   47.7670   31.0960   49.6270 H   0  0  0  0  0  0  0  0  0  0  0  0
   47.2420   32.8250   48.2720 H   0  0  0  0  0  0  0  0  0  0  0  0
   45.8360   31.2500   47.8590 N   0  0  0  0  0  0  0  0  0  0  0  0
   45.1490   30.6870   48.9490 C   0  0  0  0  0  0  0  0  0  0  0  0
   44.5770   31.3950   49.8550 O   0  0  0  0  0  0  0  0  0  0  0  0
   45.1280   29.2600   48.9700 N   0  0  0  0  0  0  0  0  0  0  0  0
   45.2080   31.0920   46.9830 H   0  0  0  0  0  0  0  0  0  0  0  0
   45.4350   28.3970   49.4610 H   0  0  0  0  0  0  0  0  0  0  0  0
   44.7100   28.5100   48.3700 H   0  0  0  0  0  0  0  0  0  0  0  0
   47.2310   34.1090   42.1370 C   0  0  0  0  0  0  0  0  0  0  0  0
   48.1140   35.1290   41.8600 C   0  0  0  0  0  0  0  0  0  0  0  0
   48.6090   35.4280   40.6180 C   0  0  0  0  0  0  0  0  0  0  0  0
   48.1430   34.6000   39.6080 C   0  0  0  0  0  0  0  0  0  0  0  0
   47.2610   33.5760   39.8590 C   0  0  0  0  0  0  0  0  0  0  0  0
   46.8030   33.3300   41.1310 N   0  0  0  0  0  0  0  0  0  0  0  0
   48.4350   35.7350   42.7040 H   0  0  0  0  0  0  0  0  0  0  0  0
   49.3030   36.2380   40.4420 H   0  0  0  0  0  0  0  0  0  0  0  0
   48.4850   34.7670   38.5930 H   0  0  0  0  0  0  0  0  0  0  0  0
   46.7840   32.7300   38.8220 N   0  0  0  0  0  0  0  0  0  0  0  0
   47.6570   31.9200   38.0060 C   0  0  0  0  0  2  0  0  0  0  0  0
   47.0180   31.5340   36.6950 C   0  0  0  0  0  2  0  0  0  0  0  0
   46.1460   32.6400   36.1430 C   0  0  0  0  0  3  0  0  0  0  0  0
   46.7760   33.4890   35.7790 H   0  0  0  0  0  0  0  0  0  0  0  0
   45.1410   33.1590   37.1180 C   0  0  0  0  0  2  0  0  0  0  0  0
   45.3740   32.6190   38.5090 C   0  0  0  0  0  2  0  0  0  0  0  0
  1  2  1  0  0  0  0
  1  9  1  0  0  0  0
  2  7  1  0  0  0  0
  3  8  1  0  0  0  0
  3  2  2  0  0  0  0
  4  3  1  0  0  0  0
  5  4  2  0  0  0  0
  5  6  1  0  0  0  0
  6  1  2  0  0  0  0
  9 15  1  1  0  0  0
  9 14  1  0  0  0  0
 10  9  1  0  0  0  0
 10 11  1  0  0  0  0
 11 12  1  0  0  0  0
 12 21  1  0  0  0  0
 12 13  1  0  0  0  0
 12 20  1  0  0  0  0
 13 23  1  0  0  0  0
 14 25  1  0  0  0  0
 14 24  1  1  0  0  0
 14 13  1  0  0  0  0
 16 10  1  0  0  0  0
 17 10  1  0  0  0  0
 18 11  1  0  0  0  0
 19 11  1  0  0  0  0
 22 13  1  0  0  0  0
 25 26  1  0  0  0  0
 26 28  1  0  0  0  0
 26 27  2  0  0  0  0
 28 30  1  0  0  0  0
 29 25  1  0  0  0  0
 31 28  1  0  0  0  0
 32  5  1  0  0  0  0
 33 32  1  0  0  0  0
 33 38  1  0  0  0  0
 34 33  2  0  0  0  0
 35 36  2  0  0  0  0
 35 34  1  0  0  0  0
 36 37  1  0  0  0  0
 37 32  2  0  0  0  0
 39 34  1  0  0  0  0
 40 35  1  0  0  0  0
 41 36  1  0  0  0  0
 42 41  1  0  0  0  0
 43 42  1  0  0  0  0
 44 43  1  0  0  0  0
 44 46  1  0  0  0  0
 45 44  1  0  0  0  0
 46 47  1  0  0  0  0
 47 41  1  0  0  0  0
M  END
>  <minimizedAffinity>
-6.64805508

>  <minimizedRMSD>
0.284611404

$$$$
