
 OpenBabel03252502193D

 31 33  0  0  1  0  0  0  0  0999 V2000
   47.2360   34.2410   42.2560 N   0  0  0  0  0  0  0  0  0  0  0  0
   48.3820   35.0850   41.9210 C   0  0  0  0  0  0  0  0  0  0  0  0
   48.4590   35.0510   40.4040 C   0  0  0  0  0  0  0  0  0  0  0  0
   48.7320   33.6820   39.8900 C   0  0  0  0  0  0  0  0  0  0  0  0
   48.0760   32.5760   40.6560 C   0  0  0  0  0  0  0  0  0  0  0  0
   46.9890   33.0070   41.5880 C   0  0  2  0  0  0  0  0  0  0  0  0
   48.1670   36.0840   42.2930 H   0  0  0  0  0  0  0  0  0  0  0  0
   49.3340   34.6700   42.3190 H   0  0  0  0  0  0  0  0  0  0  0  0
   49.3380   35.7080   40.1250 H   0  0  0  0  0  0  0  0  0  0  0  0
   47.5520   35.5380   39.9830 H   0  0  0  0  0  0  0  0  0  0  0  0
   49.8320   33.5460   39.8270 H   0  0  0  0  0  0  0  0  0  0  0  0
   48.4180   33.6980   38.8030 H   0  0  0  0  0  0  0  0  0  0  0  0
   48.8820   31.9890   41.1440 H   0  0  0  0  0  0  0  0  0  0  0  0
   47.6230   31.8860   39.9120 H   0  0  0  0  0  0  0  0  0  0  0  0
   47.0850   32.2520   42.4500 H   0  0  0  0  0  0  0  0  0  0  0  0
   44.6630   36.0540   44.2670 C   0  0  0  0  0  0  0  0  0  0  0  0
   45.5230   35.7490   43.2170 C   0  0  0  0  0  0  0  0  0  0  0  0
   46.3430   34.6230   43.2840 C   0  0  0  0  0  0  0  0  0  0  0  0
   46.2290   33.8880   44.4190 N   0  0  0  0  0  0  0  0  0  0  0  0
   45.3920   34.1840   45.4430 C   0  0  0  0  0  0  0  0  0  0  0  0
   44.6110   35.2760   45.3520 N   0  0  0  0  0  0  0  0  0  0  0  0
   44.0290   36.9460   44.1860 H   0  0  0  0  0  0  0  0  0  0  0  0
   45.5360   36.3940   42.3790 H   0  0  0  0  0  0  0  0  0  0  0  0
   45.4390   33.4810   46.2660 H   0  0  0  0  0  0  0  0  0  0  0  0
   45.6760   32.7940   41.1200 N   0  0  0  0  0  0  0  0  0  0  0  0
   44.8120   31.9190   41.7720 C   0  0  0  0  0  0  0  0  0  0  0  0
   43.5500   32.5280   42.3350 C   0  0  0  0  0  0  0  0  0  0  0  0
   43.0110   33.6610   41.5390 C   0  0  0  0  0  0  0  0  0  0  0  0
   43.1580   34.6430   42.0750 H   0  0  0  0  0  0  0  0  0  0  0  0
   43.6330   33.7570   40.1810 C   0  0  0  0  0  0  0  0  0  0  0  0
   45.1100   33.8100   40.3040 C   0  0  0  0  0  0  0  0  0  0  0  0
  1 18  1  0  0  0  0
  2  1  1  0  0  0  0
  2  7  1  0  0  0  0
  2  8  1  0  0  0  0
  3  2  1  0  0  0  0
  4  3  1  0  0  0  0
  4  5  1  0  0  0  0
  5 13  1  0  0  0  0
  5  6  1  0  0  0  0
  6  1  1  0  0  0  0
  6 15  1  1  0  0  0
  9  3  1  0  0  0  0
 10  3  1  0  0  0  0
 11  4  1  0  0  0  0
 12  4  1  0  0  0  0
 14  5  1  0  0  0  0
 16 21  1  0  0  0  0
 17 18  1  0  0  0  0
 17 16  2  0  0  0  0
 18 19  2  0  0  0  0
 19 20  1  0  0  0  0
 20 24  1  0  0  0  0
 21 20  2  0  0  0  0
 22 16  1  0  0  0  0
 23 17  1  0  0  0  0
 25  6  1  0  0  0  0
 25 26  1  0  0  0  0
 26 27  1  0  0  0  0
 28 29  1  0  0  0  0
 28 27  1  0  0  0  0
 30 31  1  0  0  0  0
 30 28  1  0  0  0  0
 31 25  1  0  0  0  0
M  END
>  <minimizedAffinity>
-4.58815718

>  <minimizedRMSD>
1.78120828

$$$$
