
 OpenBabel03252500523D

 33 35  0  0  0  0  0  0  0  0999 V2000
   39.8610   32.2140   38.3730 C   0  0  0  0  0  0  0  0  0  0  0  0
   39.1550   32.9700   39.2750 C   0  0  0  0  0  0  0  0  0  0  0  0
   39.8050   33.9510   40.0650 C   0  0  0  0  0  0  0  0  0  0  0  0
   41.1550   34.0960   39.8790 N   0  0  0  0  0  0  0  0  0  0  0  0
   41.8170   33.3550   39.0010 C   0  0  0  0  0  0  0  0  0  0  0  0
   41.1800   32.4320   38.2620 N   0  0  0  0  0  0  0  0  0  0  0  0
   39.4120   31.4510   37.7440 H   0  0  0  0  0  0  0  0  0  0  0  0
   39.2350   34.5320   40.7650 H   0  0  0  0  0  0  0  0  0  0  0  0
   43.2480   33.5310   38.8240 C   0  0  0  0  0  0  0  0  0  0  0  0
   44.0640   33.9860   39.8140 C   0  0  0  0  0  0  0  0  0  0  0  0
   45.4120   34.1600   39.6740 C   0  0  0  0  0  0  0  0  0  0  0  0
   45.9400   33.8510   38.4630 N   0  0  0  0  0  0  0  0  0  0  0  0
   45.1460   33.4070   37.4980 C   0  0  0  0  0  0  0  0  0  0  0  0
   43.8170   33.2270   37.6120 N   0  0  0  0  0  0  0  0  0  0  0  0
   43.6720   34.2420   40.7940 H   0  0  0  0  0  0  0  0  0  0  0  0
   46.0380   34.5260   40.4810 H   0  0  0  0  0  0  0  0  0  0  0  0
   45.4940   33.1350   36.4900 H   0  0  0  0  0  0  0  0  0  0  0  0
   37.7180   32.7720   39.4170 C   0  0  0  0  0  0  0  0  0  0  0  0
   36.9900   33.7810   39.4240 O   0  0  0  0  0  0  0  0  0  0  0  0
   36.9490   31.6530   39.5510 O   0  0  0  0  0  0  0  0  0  0  0  0
   36.5600   31.1480   40.7870 C   0  0  0  0  0  0  0  0  0  0  0  0
   36.5300   32.0840   41.4520 H   0  0  0  0  0  0  0  0  0  0  0  0
   35.5380   30.7730   40.8850 H   0  0  0  0  0  0  0  0  0  0  0  0
   37.5980   30.2970   41.4380 C   0  0  0  0  0  0  0  0  0  0  0  0
   38.1580   29.7850   40.6110 H   0  0  0  0  0  0  0  0  0  0  0  0
   38.3470   30.8960   41.9990 H   0  0  0  0  0  0  0  0  0  0  0  0
   37.0030   29.3280   42.2970 N   0  0  0  0  0  0  0  0  0  0  0  0
   36.3040   28.3400   41.5200 C   0  0  0  0  0  2  0  0  0  0  0  0
   37.0460   27.0760   41.2580 C   0  0  0  0  0  2  0  0  0  0  0  0
   37.2560   26.4760   42.6580 C   0  0  0  0  0  3  0  0  0  0  0  0
   36.2920   26.4420   43.2030 H   0  0  0  0  0  0  0  0  0  0  0  0
   38.2540   27.4100   43.2930 C   0  0  0  0  0  2  0  0  0  0  0  0
   37.7880   28.8240   43.3590 C   0  0  0  0  0  2  0  0  0  0  0  0
  1  2  1  0  0  0  0
  2 18  1  0  0  0  0
  2  3  2  0  0  0  0
  3  8  1  0  0  0  0
  4  3  1  0  0  0  0
  5  4  2  0  0  0  0
  6  1  2  0  0  0  0
  6  5  1  0  0  0  0
  7  1  1  0  0  0  0
  9  5  1  0  0  0  0
  9 10  1  0  0  0  0
 10 15  1  0  0  0  0
 11 10  2  0  0  0  0
 11 16  1  0  0  0  0
 12 11  1  0  0  0  0
 13 14  1  0  0  0  0
 13 12  2  0  0  0  0
 14  9  2  0  0  0  0
 17 13  1  0  0  0  0
 18 19  2  0  0  0  0
 18 20  1  0  0  0  0
 20 21  1  0  0  0  0
 21 23  1  0  0  0  0
 21 24  1  0  0  0  0
 21 22  1  0  0  0  0
 24 26  1  0  0  0  0
 24 27  1  0  0  0  0
 25 24  1  0  0  0  0
 27 33  1  0  0  0  0
 28 27  1  0  0  0  0
 29 28  1  0  0  0  0
 29 30  1  0  0  0  0
 30 31  1  0  0  0  0
 30 32  1  0  0  0  0
 32 33  1  0  0  0  0
M  END
>  <minimizedAffinity>
-5.09300613

$$$$

 OpenBabel03252500523D

 33 35  0  0  0  0  0  0  0  0999 V2000
   40.0900   33.2490   39.3640 C   0  0  0  0  0  0  0  0  0  0  0  0
   39.1090   32.4580   38.8240 C   0  0  0  0  0  0  0  0  0  0  0  0
   39.4040   31.5460   37.7790 C   0  0  0  0  0  0  0  0  0  0  0  0
   40.7040   31.5030   37.3490 N   0  0  0  0  0  0  0  0  0  0  0  0
   41.6370   32.2770   37.8870 C   0  0  0  0  0  0  0  0  0  0  0  0
   41.3340   33.1330   38.8760 N   0  0  0  0  0  0  0  0  0  0  0  0
   39.9180   33.9620   40.1650 H   0  0  0  0  0  0  0  0  0  0  0  0
   38.6210   30.9360   37.3700 H   0  0  0  0  0  0  0  0  0  0  0  0
   43.0080   32.2100   37.4120 C   0  0  0  0  0  0  0  0  0  0  0  0
   43.9490   33.1400   37.7360 C   0  0  0  0  0  0  0  0  0  0  0  0
   45.2440   33.1000   37.3040 C   0  0  0  0  0  0  0  0  0  0  0  0
   45.5840   32.0580   36.5040 N   0  0  0  0  0  0  0  0  0  0  0  0
   44.6690   31.1510   36.1880 C   0  0  0  0  0  0  0  0  0  0  0  0
   43.3890   31.1690   36.6020 N   0  0  0  0  0  0  0  0  0  0  0  0
   43.7090   33.9850   38.3730 H   0  0  0  0  0  0  0  0  0  0  0  0
   45.9720   33.8560   37.5770 H   0  0  0  0  0  0  0  0  0  0  0  0
   44.8620   30.2780   35.5470 H   0  0  0  0  0  0  0  0  0  0  0  0
   37.7460   32.5460   39.3340 C   0  0  0  0  0  0  0  0  0  0  0  0
   37.3040   33.6740   39.6200 O   0  0  0  0  0  0  0  0  0  0  0  0
   36.7900   31.6050   39.5810 O   0  0  0  0  0  0  0  0  0  0  0  0
   36.5140   31.1250   40.8580 C   0  0  0  0  0  0  0  0  0  0  0  0
   36.5860   32.0690   41.5100 H   0  0  0  0  0  0  0  0  0  0  0  0
   35.4950   30.7890   41.0660 H   0  0  0  0  0  0  0  0  0  0  0  0
   37.5840   30.2440   41.4090 C   0  0  0  0  0  0  0  0  0  0  0  0
   38.0770   29.7510   40.5290 H   0  0  0  0  0  0  0  0  0  0  0  0
   38.3780   30.8170   41.9330 H   0  0  0  0  0  0  0  0  0  0  0  0
   37.0370   29.2570   42.2800 N   0  0  0  0  0  0  0  0  0  0  0  0
   36.2800   28.2950   41.5250 C   0  0  0  0  0  2  0  0  0  0  0  0
   36.9920   27.0340   41.1820 C   0  0  0  0  0  2  0  0  0  0  0  0
   37.2880   26.3950   42.5480 C   0  0  0  0  0  3  0  0  0  0  0  0
   36.3620   26.3530   43.1550 H   0  0  0  0  0  0  0  0  0  0  0  0
   38.3340   27.3040   43.1410 C   0  0  0  0  0  2  0  0  0  0  0  0
   37.8860   28.7200   43.2740 C   0  0  0  0  0  2  0  0  0  0  0  0
  1  7  1  0  0  0  0
  2 18  1  0  0  0  0
  2  1  2  0  0  0  0
  3  2  1  0  0  0  0
  4  3  2  0  0  0  0
  4  5  1  0  0  0  0
  5  6  2  0  0  0  0
  6  1  1  0  0  0  0
  8  3  1  0  0  0  0
  9 10  1  0  0  0  0
  9  5  1  0  0  0  0
 10 15  1  0  0  0  0
 11 16  1  0  0  0  0
 11 10  2  0  0  0  0
 12 11  1  0  0  0  0
 13 12  2  0  0  0  0
 13 14  1  0  0  0  0
 14  9  2  0  0  0  0
 17 13  1  0  0  0  0
 18 20  1  0  0  0  0
 18 19  2  0  0  0  0
 20 21  1  0  0  0  0
 21 23  1  0  0  0  0
 21 24  1  0  0  0  0
 21 22  1  0  0  0  0
 24 26  1  0  0  0  0
 24 27  1  0  0  0  0
 25 24  1  0  0  0  0
 27 33  1  0  0  0  0
 28 27  1  0  0  0  0
 29 28  1  0  0  0  0
 29 30  1  0  0  0  0
 30 32  1  0  0  0  0
 30 31  1  0  0  0  0
 32 33  1  0  0  0  0
M  END
>  <minimizedAffinity>
-5.0840826

$$$$

 OpenBabel03252500523D

 33 35  0  0  0  0  0  0  0  0999 V2000
   36.9270   30.0980   38.9330 C   0  0  0  0  0  0  0  0  0  0  0  0
   36.5060   29.8330   40.2110 C   0  0  0  0  0  0  0  0  0  0  0  0
   35.2380   29.2480   40.4520 C   0  0  0  0  0  0  0  0  0  0  0  0
   34.4710   28.9670   39.3520 N   0  0  0  0  0  0  0  0  0  0  0  0
   34.8980   29.2310   38.1250 C   0  0  0  0  0  0  0  0  0  0  0  0
   36.1030   29.7860   37.9210 N   0  0  0  0  0  0  0  0  0  0  0  0
   37.8880   30.5450   38.6930 H   0  0  0  0  0  0  0  0  0  0  0  0
   34.9280   29.0490   41.4610 H   0  0  0  0  0  0  0  0  0  0  0  0
   34.0630   28.9230   36.9770 C   0  0  0  0  0  0  0  0  0  0  0  0
   32.7100   29.0700   36.9860 C   0  0  0  0  0  0  0  0  0  0  0  0
   31.9020   28.7880   35.9210 C   0  0  0  0  0  0  0  0  0  0  0  0
   32.5160   28.3360   34.7990 N   0  0  0  0  0  0  0  0  0  0  0  0
   33.8340   28.1920   34.7880 C   0  0  0  0  0  0  0  0  0  0  0  0
   34.6490   28.4640   35.8230 N   0  0  0  0  0  0  0  0  0  0  0  0
   32.1890   29.4300   37.8680 H   0  0  0  0  0  0  0  0  0  0  0  0
   30.8250   28.9150   35.9580 H   0  0  0  0  0  0  0  0  0  0  0  0
   34.4070   27.8320   33.9210 H   0  0  0  0  0  0  0  0  0  0  0  0
   37.3760   30.1470   41.3380 C   0  0  0  0  0  0  0  0  0  0  0  0
   38.2300   31.0400   41.1830 O   0  0  0  0  0  0  0  0  0  0  0  0
   37.4650   29.6460   42.6040 O   0  0  0  0  0  0  0  0  0  0  0  0
   38.6100   29.0230   43.0910 C   0  0  0  0  0  0  0  0  0  0  0  0
   39.2920   28.9760   42.1680 H   0  0  0  0  0  0  0  0  0  0  0  0
   39.2300   29.5800   43.7980 H   0  0  0  0  0  0  0  0  0  0  0  0
   38.4050   27.5880   43.4410 C   0  0  0  0  0  0  0  0  0  0  0  0
   39.2590   27.2970   44.1090 H   0  0  0  0  0  0  0  0  0  0  0  0
   37.4770   27.4230   44.0280 H   0  0  0  0  0  0  0  0  0  0  0  0
   38.3980   26.7710   42.2730 N   0  0  0  0  0  0  0  0  0  0  0  0
   39.5270   25.8800   42.2850 C   0  0  0  0  0  2  0  0  0  0  0  0
   39.2610   24.5000   42.7760 C   0  0  0  0  0  2  0  0  0  0  0  0
   38.2580   23.9350   41.7570 C   0  0  0  0  0  3  0  0  0  0  0  0
   38.6390   24.0860   40.7270 H   0  0  0  0  0  0  0  0  0  0  0  0
   36.9990   24.7150   42.0340 C   0  0  0  0  0  2  0  0  0  0  0  0
   37.1680   26.1900   41.8900 C   0  0  0  0  0  2  0  0  0  0  0  0
  1  2  1  0  0  0  0
  2  3  2  0  0  0  0
  2 18  1  0  0  0  0
  3  8  1  0  0  0  0
  4  3  1  0  0  0  0
  5  4  2  0  0  0  0
  6  5  1  0  0  0  0
  6  1  2  0  0  0  0
  7  1  1  0  0  0  0
  9 10  1  0  0  0  0
  9  5  1  0  0  0  0
 10 15  1  0  0  0  0
 11 16  1  0  0  0  0
 11 10  2  0  0  0  0
 12 11  1  0  0  0  0
 13 12  2  0  0  0  0
 13 14  1  0  0  0  0
 14  9  2  0  0  0  0
 17 13  1  0  0  0  0
 18 20  1  0  0  0  0
 19 18  2  0  0  0  0
 20 21  1  0  0  0  0
 21 24  1  0  0  0  0
 21 23  1  0  0  0  0
 22 21  1  0  0  0  0
 24 26  1  0  0  0  0
 24 25  1  0  0  0  0
 27 28  1  0  0  0  0
 27 24  1  0  0  0  0
 28 29  1  0  0  0  0
 30 32  1  0  0  0  0
 30 29  1  0  0  0  0
 31 30  1  0  0  0  0
 33 32  1  0  0  0  0
 33 27  1  0  0  0  0
M  END
>  <minimizedAffinity>
-4.75022459

$$$$

 OpenBabel03252500523D

 33 35  0  0  0  0  0  0  0  0999 V2000
   37.0390   30.6370   38.3550 C   0  0  0  0  0  0  0  0  0  0  0  0
   36.8440   30.8560   39.6950 C   0  0  0  0  0  0  0  0  0  0  0  0
   35.8260   30.1700   40.4030 C   0  0  0  0  0  0  0  0  0  0  0  0
   35.0600   29.2920   39.6820 N   0  0  0  0  0  0  0  0  0  0  0  0
   35.2650   29.0960   38.3870 C   0  0  0  0  0  0  0  0  0  0  0  0
   36.2370   29.7560   37.7380 N   0  0  0  0  0  0  0  0  0  0  0  0
   37.8040   31.1350   37.7670 H   0  0  0  0  0  0  0  0  0  0  0  0
   35.6900   30.3570   41.4520 H   0  0  0  0  0  0  0  0  0  0  0  0
   34.4380   28.1580   37.6470 C   0  0  0  0  0  0  0  0  0  0  0  0
   33.3560   28.5450   36.9170 C   0  0  0  0  0  0  0  0  0  0  0  0
   32.5620   27.6850   36.2120 C   0  0  0  0  0  0  0  0  0  0  0  0
   32.8990   26.3710   36.2620 N   0  0  0  0  0  0  0  0  0  0  0  0
   33.9530   25.9930   36.9730 C   0  0  0  0  0  0  0  0  0  0  0  0
   34.7490   26.8220   37.6740 N   0  0  0  0  0  0  0  0  0  0  0  0
   33.0610   29.5880   36.8560 H   0  0  0  0  0  0  0  0  0  0  0  0
   31.7050   28.0210   35.6390 H   0  0  0  0  0  0  0  0  0  0  0  0
   34.2920   24.9510   37.0660 H   0  0  0  0  0  0  0  0  0  0  0  0
   37.7010   31.7970   40.4060 C   0  0  0  0  0  0  0  0  0  0  0  0
   37.4580   33.0120   40.2850 O   0  0  0  0  0  0  0  0  0  0  0  0
   38.7780   31.6270   41.2260 O   0  0  0  0  0  0  0  0  0  0  0  0
   39.3300   30.3800   41.4990 C   0  0  0  0  0  0  0  0  0  0  0  0
   38.8590   29.7060   40.6970 H   0  0  0  0  0  0  0  0  0  0  0  0
   40.3970   30.2420   41.3070 H   0  0  0  0  0  0  0  0  0  0  0  0
   38.8480   29.7800   42.7780 C   0  0  0  0  0  0  0  0  0  0  0  0
   39.5310   30.1560   43.5850 H   0  0  0  0  0  0  0  0  0  0  0  0
   37.8260   30.1220   43.0480 H   0  0  0  0  0  0  0  0  0  0  0  0
   38.8900   28.3570   42.7250 N   0  0  0  0  0  0  0  0  0  0  0  0
   37.9710   27.7980   43.6800 C   0  0  0  0  0  2  0  0  0  0  0  0
   36.6450   27.3880   43.1420 C   0  0  0  0  0  2  0  0  0  0  0  0
   36.9840   26.2700   42.1420 C   0  0  0  0  0  3  0  0  0  0  0  0
   37.6350   25.5160   42.6250 H   0  0  0  0  0  0  0  0  0  0  0  0
   37.6700   27.0010   41.0180 C   0  0  0  0  0  2  0  0  0  0  0  0
   38.8860   27.7500   41.4490 C   0  0  0  0  0  2  0  0  0  0  0  0
  1  2  1  0  0  0  0
  2  3  2  0  0  0  0
  2 18  1  0  0  0  0
  3  8  1  0  0  0  0
  4  3  1  0  0  0  0
  5  4  2  0  0  0  0
  6  1  2  0  0  0  0
  6  5  1  0  0  0  0
  7  1  1  0  0  0  0
  9 14  1  0  0  0  0
  9  5  1  0  0  0  0
 10  9  2  0  0  0  0
 11 12  2  0  0  0  0
 11 10  1  0  0  0  0
 12 13  1  0  0  0  0
 13 17  1  0  0  0  0
 13 14  2  0  0  0  0
 15 10  1  0  0  0  0
 16 11  1  0  0  0  0
 18 20  1  0  0  0  0
 19 18  2  0  0  0  0
 20 21  1  0  0  0  0
 21 24  1  0  0  0  0
 22 21  1  0  0  0  0
 23 21  1  0  0  0  0
 24 26  1  0  0  0  0
 24 25  1  0  0  0  0
 27 24  1  0  0  0  0
 27 28  1  0  0  0  0
 29 28  1  0  0  0  0
 30 31  1  0  0  0  0
 30 29  1  0  0  0  0
 32 33  1  0  0  0  0
 32 30  1  0  0  0  0
 33 27  1  0  0  0  0
M  END
>  <minimizedAffinity>
-4.74414253

$$$$

 OpenBabel03252500523D

 33 35  0  0  0  0  0  0  0  0999 V2000
   37.3100   29.9580   39.0510 C   0  0  0  0  0  0  0  0  0  0  0  0
   37.2270   30.8280   40.1090 C   0  0  0  0  0  0  0  0  0  0  0  0
   37.0310   30.3490   41.4290 C   0  0  0  0  0  0  0  0  0  0  0  0
   36.9310   28.9920   41.5830 N   0  0  0  0  0  0  0  0  0  0  0  0
   37.0140   28.1690   40.5460 C   0  0  0  0  0  0  0  0  0  0  0  0
   37.2010   28.6450   39.3040 N   0  0  0  0  0  0  0  0  0  0  0  0
   37.4600   30.2720   38.0220 H   0  0  0  0  0  0  0  0  0  0  0  0
   36.9690   31.0470   42.2430 H   0  0  0  0  0  0  0  0  0  0  0  0
   36.9050   26.7330   40.7380 C   0  0  0  0  0  0  0  0  0  0  0  0
   36.6860   25.8650   39.7130 C   0  0  0  0  0  0  0  0  0  0  0  0
   36.5790   24.5120   39.8660 C   0  0  0  0  0  0  0  0  0  0  0  0
   36.7050   24.0340   41.1300 N   0  0  0  0  0  0  0  0  0  0  0  0
   36.9180   24.8780   42.1290 C   0  0  0  0  0  0  0  0  0  0  0  0
   37.0280   26.2140   42.0030 N   0  0  0  0  0  0  0  0  0  0  0  0
   36.5810   26.2160   38.6900 H   0  0  0  0  0  0  0  0  0  0  0  0
   36.4040   23.8440   39.0290 H   0  0  0  0  0  0  0  0  0  0  0  0
   37.0310   24.5730   43.1810 H   0  0  0  0  0  0  0  0  0  0  0  0
   37.3520   32.2610   39.8780 C   0  0  0  0  0  0  0  0  0  0  0  0
   36.9410   32.7140   38.7930 O   0  0  0  0  0  0  0  0  0  0  0  0
   37.8510   33.2790   40.6370 O   0  0  0  0  0  0  0  0  0  0  0  0
   39.2060   33.4190   40.9160 C   0  0  0  0  0  0  0  0  0  0  0  0
   39.2150   34.1510   41.8020 H   0  0  0  0  0  0  0  0  0  0  0  0
   39.7310   32.5570   41.3350 H   0  0  0  0  0  0  0  0  0  0  0  0
   39.9620   34.1510   39.8580 C   0  0  0  0  0  0  0  0  0  0  0  0
   39.2810   34.2200   38.9680 H   0  0  0  0  0  0  0  0  0  0  0  0
   40.1990   35.1960   40.1530 H   0  0  0  0  0  0  0  0  0  0  0  0
   41.1560   33.4580   39.5080 N   0  0  0  0  0  0  0  0  0  0  0  0
   40.8420   32.1360   39.0380 C   0  0  0  0  0  2  0  0  0  0  0  0
   40.7780   31.9700   37.5600 C   0  0  0  0  0  2  0  0  0  0  0  0
   42.2100   32.2800   37.0930 C   0  0  0  0  0  3  0  0  0  0  0  0
   42.9360   31.6840   37.6800 H   0  0  0  0  0  0  0  0  0  0  0  0
   42.3420   33.7620   37.3310 C   0  0  0  0  0  2  0  0  0  0  0  0
   42.1220   34.1600   38.7510 C   0  0  0  0  0  2  0  0  0  0  0  0
  1  6  2  0  0  0  0
  1  2  1  0  0  0  0
  2  3  2  0  0  0  0
  3  4  1  0  0  0  0
  3  8  1  0  0  0  0
  5  9  1  0  0  0  0
  5  4  2  0  0  0  0
  6  5  1  0  0  0  0
  7  1  1  0  0  0  0
  9 14  1  0  0  0  0
 10 11  1  0  0  0  0
 10  9  2  0  0  0  0
 11 12  2  0  0  0  0
 12 13  1  0  0  0  0
 13 17  1  0  0  0  0
 14 13  2  0  0  0  0
 15 10  1  0  0  0  0
 16 11  1  0  0  0  0
 18  2  1  0  0  0  0
 18 20  1  0  0  0  0
 19 18  2  0  0  0  0
 20 21  1  0  0  0  0
 21 23  1  0  0  0  0
 21 22  1  0  0  0  0
 24 26  1  0  0  0  0
 24 21  1  0  0  0  0
 25 24  1  0  0  0  0
 27 24  1  0  0  0  0
 28 27  1  0  0  0  0
 29 28  1  0  0  0  0
 30 32  1  0  0  0  0
 30 29  1  0  0  0  0
 30 31  1  0  0  0  0
 32 33  1  0  0  0  0
 33 27  1  0  0  0  0
M  END
>  <minimizedAffinity>
-4.67504168

$$$$

 OpenBabel03252500523D

 33 35  0  0  0  0  0  0  0  0999 V2000
   39.9120   29.2640   40.5940 C   0  0  0  0  0  0  0  0  0  0  0  0
   39.7520   29.9700   41.7590 C   0  0  0  0  0  0  0  0  0  0  0  0
   38.8830   29.5040   42.7770 C   0  0  0  0  0  0  0  0  0  0  0  0
   38.2230   28.3290   42.5330 N   0  0  0  0  0  0  0  0  0  0  0  0
   38.3930   27.6620   41.3980 C   0  0  0  0  0  0  0  0  0  0  0  0
   39.2230   28.1220   40.4490 N   0  0  0  0  0  0  0  0  0  0  0  0
   40.5650   29.5760   39.7840 H   0  0  0  0  0  0  0  0  0  0  0  0
   38.7720   30.0720   43.6820 H   0  0  0  0  0  0  0  0  0  0  0  0
   37.6810   26.4180   41.1660 C   0  0  0  0  0  0  0  0  0  0  0  0
   37.1040   26.1090   39.9720 C   0  0  0  0  0  0  0  0  0  0  0  0
   36.4290   24.9460   39.7260 C   0  0  0  0  0  0  0  0  0  0  0  0
   36.3470   24.0660   40.7550 N   0  0  0  0  0  0  0  0  0  0  0  0
   36.9080   24.3650   41.9190 C   0  0  0  0  0  0  0  0  0  0  0  0
   37.5770   25.5020   42.1840 N   0  0  0  0  0  0  0  0  0  0  0  0
   37.1530   26.7920   39.1290 H   0  0  0  0  0  0  0  0  0  0  0  0
   35.9790   24.7270   38.7640 H   0  0  0  0  0  0  0  0  0  0  0  0
   36.8860   23.7080   42.8010 H   0  0  0  0  0  0  0  0  0  0  0  0
   40.4930   31.2090   41.9610 C   0  0  0  0  0  0  0  0  0  0  0  0
   41.2810   31.2660   42.9230 O   0  0  0  0  0  0  0  0  0  0  0  0
   40.5130   32.3940   41.2840 O   0  0  0  0  0  0  0  0  0  0  0  0
   39.3670   32.9830   40.7600 C   0  0  0  0  0  0  0  0  0  0  0  0
   38.5190   32.3970   41.2650 H   0  0  0  0  0  0  0  0  0  0  0  0
   39.1390   34.0090   41.0620 H   0  0  0  0  0  0  0  0  0  0  0  0
   39.1610   32.7040   39.3090 C   0  0  0  0  0  0  0  0  0  0  0  0
   39.5040   33.6180   38.7550 H   0  0  0  0  0  0  0  0  0  0  0  0
   39.7900   31.8630   38.9460 H   0  0  0  0  0  0  0  0  0  0  0  0
   37.7890   32.4460   39.0250 N   0  0  0  0  0  0  0  0  0  0  0  0
   37.6650   31.7190   37.7910 C   0  0  0  0  0  2  0  0  0  0  0  0
   37.5100   30.2440   37.9190 C   0  0  0  0  0  2  0  0  0  0  0  0
   36.1780   30.0790   38.6680 C   0  0  0  0  0  3  0  0  0  0  0  0
   35.3870   30.6710   38.1680 H   0  0  0  0  0  0  0  0  0  0  0  0
   36.4920   30.5760   40.0560 C   0  0  0  0  0  2  0  0  0  0  0  0
   36.9770   31.9860   40.0870 C   0  0  0  0  0  2  0  0  0  0  0  0
  1  2  1  0  0  0  0
  2 18  1  0  0  0  0
  2  3  2  0  0  0  0
  3  8  1  0  0  0  0
  4  3  1  0  0  0  0
  5  4  2  0  0  0  0
  6  1  2  0  0  0  0
  6  5  1  0  0  0  0
  7  1  1  0  0  0  0
  9  5  1  0  0  0  0
  9 14  1  0  0  0  0
 10  9  2  0  0  0  0
 11 10  1  0  0  0  0
 11 12  2  0  0  0  0
 12 13  1  0  0  0  0
 13 14  2  0  0  0  0
 13 17  1  0  0  0  0
 15 10  1  0  0  0  0
 16 11  1  0  0  0  0
 18 19  2  0  0  0  0
 20 18  1  0  0  0  0
 21 23  1  0  0  0  0
 21 22  1  0  0  0  0
 21 20  1  0  0  0  0
 24 21  1  0  0  0  0
 25 24  1  0  0  0  0
 26 24  1  0  0  0  0
 27 24  1  0  0  0  0
 27 33  1  0  0  0  0
 28 29  1  0  0  0  0
 28 27  1  0  0  0  0
 29 30  1  0  0  0  0
 30 32  1  0  0  0  0
 31 30  1  0  0  0  0
 32 33  1  0  0  0  0
M  END
>  <minimizedAffinity>
-4.59986019

$$$$

 OpenBabel03252500523D

 33 35  0  0  0  0  0  0  0  0999 V2000
   35.3710   29.6750   40.3880 C   0  0  0  0  0  0  0  0  0  0  0  0
   36.4510   30.3290   39.8530 C   0  0  0  0  0  0  0  0  0  0  0  0
   36.6870   30.3180   38.4550 C   0  0  0  0  0  0  0  0  0  0  0  0
   35.7880   29.6270   37.6850 N   0  0  0  0  0  0  0  0  0  0  0  0
   34.7500   29.0030   38.2250 C   0  0  0  0  0  0  0  0  0  0  0  0
   34.5460   29.0280   39.5510 N   0  0  0  0  0  0  0  0  0  0  0  0
   35.1450   29.6530   41.4510 H   0  0  0  0  0  0  0  0  0  0  0  0
   37.5390   30.8350   38.0560 H   0  0  0  0  0  0  0  0  0  0  0  0
   33.8120   28.2790   37.3840 C   0  0  0  0  0  0  0  0  0  0  0  0
   33.9540   26.9570   37.0870 C   0  0  0  0  0  0  0  0  0  0  0  0
   33.0870   26.2530   36.3010 C   0  0  0  0  0  0  0  0  0  0  0  0
   32.0300   26.9400   35.8000 N   0  0  0  0  0  0  0  0  0  0  0  0
   31.8900   28.2260   36.0880 C   0  0  0  0  0  0  0  0  0  0  0  0
   32.7290   28.9410   36.8600 N   0  0  0  0  0  0  0  0  0  0  0  0
   34.7890   26.3800   37.4730 H   0  0  0  0  0  0  0  0  0  0  0  0
   33.2260   25.2000   36.0800 H   0  0  0  0  0  0  0  0  0  0  0  0
   31.0630   28.8540   35.7220 H   0  0  0  0  0  0  0  0  0  0  0  0
   37.3650   31.0540   40.7270 C   0  0  0  0  0  0  0  0  0  0  0  0
   37.4060   32.2940   40.6250 O   0  0  0  0  0  0  0  0  0  0  0  0
   38.2370   30.6460   41.6930 O   0  0  0  0  0  0  0  0  0  0  0  0
   39.3400   29.8410   41.4240 C   0  0  0  0  0  0  0  0  0  0  0  0
   38.9040   29.0230   40.7450 H   0  0  0  0  0  0  0  0  0  0  0  0
   40.1300   30.2560   40.7930 H   0  0  0  0  0  0  0  0  0  0  0  0
   39.8280   29.0800   42.6100 C   0  0  0  0  0  0  0  0  0  0  0  0
   40.9480   29.1550   42.6000 H   0  0  0  0  0  0  0  0  0  0  0  0
   39.4920   29.5290   43.5700 H   0  0  0  0  0  0  0  0  0  0  0  0
   39.4290   27.7140   42.5430 N   0  0  0  0  0  0  0  0  0  0  0  0
   38.5070   27.4130   43.6060 C   0  0  0  0  0  2  0  0  0  0  0  0
   37.0640   27.4460   43.2430 C   0  0  0  0  0  2  0  0  0  0  0  0
   36.9220   26.3250   42.2010 C   0  0  0  0  0  3  0  0  0  0  0  0
   37.3680   25.3880   42.5900 H   0  0  0  0  0  0  0  0  0  0  0  0
   37.6550   26.8670   41.0010 C   0  0  0  0  0  2  0  0  0  0  0  0
   39.0840   27.1950   41.2750 C   0  0  0  0  0  2  0  0  0  0  0  0
  1  7  1  0  0  0  0
  2  1  1  0  0  0  0
  2 18  1  0  0  0  0
  3  2  2  0  0  0  0
  4  5  2  0  0  0  0
  4  3  1  0  0  0  0
  5  6  1  0  0  0  0
  6  1  2  0  0  0  0
  8  3  1  0  0  0  0
  9  5  1  0  0  0  0
 10  9  1  0  0  0  0
 10 15  1  0  0  0  0
 11 10  2  0  0  0  0
 12 13  2  0  0  0  0
 12 11  1  0  0  0  0
 13 14  1  0  0  0  0
 14  9  2  0  0  0  0
 16 11  1  0  0  0  0
 17 13  1  0  0  0  0
 18 20  1  0  0  0  0
 19 18  2  0  0  0  0
 21 20  1  0  0  0  0
 21 24  1  0  0  0  0
 22 21  1  0  0  0  0
 23 21  1  0  0  0  0
 24 26  1  0  0  0  0
 25 24  1  0  0  0  0
 27 24  1  0  0  0  0
 27 28  1  0  0  0  0
 29 28  1  0  0  0  0
 30 31  1  0  0  0  0
 30 29  1  0  0  0  0
 32 33  1  0  0  0  0
 32 30  1  0  0  0  0
 33 27  1  0  0  0  0
M  END
>  <minimizedAffinity>
-4.53177547

$$$$

 OpenBabel03252500523D

 33 35  0  0  0  0  0  0  0  0999 V2000
   35.3740   29.0260   40.7560 C   0  0  0  0  0  0  0  0  0  0  0  0
   36.3450   28.1080   41.0640 C   0  0  0  0  0  0  0  0  0  0  0  0
   36.7770   27.1580   40.1050 C   0  0  0  0  0  0  0  0  0  0  0  0
   36.1770   27.2100   38.8740 N   0  0  0  0  0  0  0  0  0  0  0  0
   35.2390   28.1060   38.5980 C   0  0  0  0  0  0  0  0  0  0  0  0
   34.8470   28.9970   39.5230 N   0  0  0  0  0  0  0  0  0  0  0  0
   35.0080   29.7750   41.4530 H   0  0  0  0  0  0  0  0  0  0  0  0
   37.5390   26.4480   40.3660 H   0  0  0  0  0  0  0  0  0  0  0  0
   34.6190   28.1380   37.2850 C   0  0  0  0  0  0  0  0  0  0  0  0
   34.9430   29.0610   36.3370 C   0  0  0  0  0  0  0  0  0  0  0  0
   34.3770   29.1130   35.0950 C   0  0  0  0  0  0  0  0  0  0  0  0
   33.4380   28.1740   34.8180 N   0  0  0  0  0  0  0  0  0  0  0  0
   33.1210   27.2740   35.7400 C   0  0  0  0  0  0  0  0  0  0  0  0
   33.6660   27.2030   36.9680 N   0  0  0  0  0  0  0  0  0  0  0  0
   35.6910   29.8250   36.5280 H   0  0  0  0  0  0  0  0  0  0  0  0
   34.6550   29.8610   34.3600 H   0  0  0  0  0  0  0  0  0  0  0  0
   32.3720   26.4820   35.5960 H   0  0  0  0  0  0  0  0  0  0  0  0
   36.9520   28.1140   42.3890 C   0  0  0  0  0  0  0  0  0  0  0  0
   36.3570   27.5130   43.3030 O   0  0  0  0  0  0  0  0  0  0  0  0
   38.0990   28.6670   42.8780 O   0  0  0  0  0  0  0  0  0  0  0  0
   38.5940   29.8910   42.4390 C   0  0  0  0  0  0  0  0  0  0  0  0
   37.6490   30.4410   42.0850 H   0  0  0  0  0  0  0  0  0  0  0  0
   38.9840   30.5810   43.1910 H   0  0  0  0  0  0  0  0  0  0  0  0
   39.4180   29.7930   41.1990 C   0  0  0  0  0  0  0  0  0  0  0  0
   40.4840   29.6790   41.5320 H   0  0  0  0  0  0  0  0  0  0  0  0
   39.1780   28.8880   40.6010 H   0  0  0  0  0  0  0  0  0  0  0  0
   39.2790   30.9610   40.3960 N   0  0  0  0  0  0  0  0  0  0  0  0
   39.3240   30.6130   39.0020 C   0  0  0  0  0  2  0  0  0  0  0  0
   38.0060   30.4670   38.3260 C   0  0  0  0  0  2  0  0  0  0  0  0
   37.3910   31.8730   38.4130 C   0  0  0  0  0  3  0  0  0  0  0  0
   38.1150   32.6260   38.0450 H   0  0  0  0  0  0  0  0  0  0  0  0
   37.0810   32.0290   39.8800 C   0  0  0  0  0  2  0  0  0  0  0  0
   38.2760   31.8890   40.7600 C   0  0  0  0  0  2  0  0  0  0  0  0
  1  2  1  0  0  0  0
  1  7  1  0  0  0  0
  2 18  1  0  0  0  0
  3  8  1  0  0  0  0
  3  2  2  0  0  0  0
  4  3  1  0  0  0  0
  5  4  2  0  0  0  0
  5  6  1  0  0  0  0
  6  1  2  0  0  0  0
  9  5  1  0  0  0  0
 10 15  1  0  0  0  0
 10  9  2  0  0  0  0
 11 10  1  0  0  0  0
 12 11  2  0  0  0  0
 12 13  1  0  0  0  0
 13 14  2  0  0  0  0
 14  9  1  0  0  0  0
 16 11  1  0  0  0  0
 17 13  1  0  0  0  0
 18 20  1  0  0  0  0
 18 19  2  0  0  0  0
 21 20  1  0  0  0  0
 21 23  1  0  0  0  0
 22 21  1  0  0  0  0
 24 25  1  0  0  0  0
 24 21  1  0  0  0  0
 26 24  1  0  0  0  0
 27 33  1  0  0  0  0
 27 24  1  0  0  0  0
 28 27  1  0  0  0  0
 29 30  1  0  0  0  0
 29 28  1  0  0  0  0
 30 32  1  0  0  0  0
 31 30  1  0  0  0  0
 32 33  1  0  0  0  0
M  END
>  <minimizedAffinity>
-4.50620127

$$$$

 OpenBabel03252500523D

 33 35  0  0  0  0  0  0  0  0999 V2000
   38.1940   28.1060   38.8760 C   0  0  0  0  0  0  0  0  0  0  0  0
   36.9180   27.7060   39.1780 C   0  0  0  0  0  0  0  0  0  0  0  0
   35.9890   28.6120   39.7490 C   0  0  0  0  0  0  0  0  0  0  0  0
   36.4350   29.8880   39.9770 N   0  0  0  0  0  0  0  0  0  0  0  0
   37.6740   30.2530   39.6770 C   0  0  0  0  0  0  0  0  0  0  0  0
   38.5360   29.3770   39.1360 N   0  0  0  0  0  0  0  0  0  0  0  0
   38.9440   27.4530   38.4380 H   0  0  0  0  0  0  0  0  0  0  0  0
   34.9940   28.2790   39.9780 H   0  0  0  0  0  0  0  0  0  0  0  0
   38.1190   31.6120   39.9300 C   0  0  0  0  0  0  0  0  0  0  0  0
   37.3460   32.7030   39.6720 C   0  0  0  0  0  0  0  0  0  0  0  0
   37.7400   33.9910   39.9000 C   0  0  0  0  0  0  0  0  0  0  0  0
   38.9830   34.1610   40.4170 N   0  0  0  0  0  0  0  0  0  0  0  0
   39.7370   33.1000   40.6690 C   0  0  0  0  0  0  0  0  0  0  0  0
   39.3710   31.8230   40.4530 N   0  0  0  0  0  0  0  0  0  0  0  0
   36.3470   32.6000   39.2590 H   0  0  0  0  0  0  0  0  0  0  0  0
   37.1020   34.8410   39.6840 H   0  0  0  0  0  0  0  0  0  0  0  0
   40.7540   33.1510   41.0860 H   0  0  0  0  0  0  0  0  0  0  0  0
   36.5040   26.3370   38.9000 C   0  0  0  0  0  0  0  0  0  0  0  0
   35.5290   26.1650   38.1450 O   0  0  0  0  0  0  0  0  0  0  0  0
   36.9810   25.1260   39.3110 O   0  0  0  0  0  0  0  0  0  0  0  0
   37.1320   24.7900   40.6520 C   0  0  0  0  0  0  0  0  0  0  0  0
   36.3610   25.4610   41.1770 H   0  0  0  0  0  0  0  0  0  0  0  0
   36.8100   23.7940   40.9670 H   0  0  0  0  0  0  0  0  0  0  0  0
   38.4300   25.2360   41.2380 C   0  0  0  0  0  0  0  0  0  0  0  0
   39.0870   24.3280   41.2900 H   0  0  0  0  0  0  0  0  0  0  0  0
   38.9580   25.9680   40.5900 H   0  0  0  0  0  0  0  0  0  0  0  0
   38.2440   25.7810   42.5410 N   0  0  0  0  0  0  0  0  0  0  0  0
   39.2480   26.7750   42.8110 C   0  0  0  0  0  2  0  0  0  0  0  0
   38.8380   28.1890   42.5880 C   0  0  0  0  0  2  0  0  0  0  0  0
   37.7090   28.4090   43.6080 C   0  0  0  0  0  3  0  0  0  0  0  0
   38.0410   28.0870   44.6150 H   0  0  0  0  0  0  0  0  0  0  0  0
   36.5810   27.5680   43.0680 C   0  0  0  0  0  2  0  0  0  0  0  0
   36.9280   26.1250   42.9250 C   0  0  0  0  0  2  0  0  0  0  0  0
  1  6  2  0  0  0  0
  1  2  1  0  0  0  0
  2  3  2  0  0  0  0
  3  4  1  0  0  0  0
  3  8  1  0  0  0  0
  5  9  1  0  0  0  0
  5  4  2  0  0  0  0
  6  5  1  0  0  0  0
  7  1  1  0  0  0  0
  9 14  1  0  0  0  0
 10 11  1  0  0  0  0
 10  9  2  0  0  0  0
 11 12  2  0  0  0  0
 12 13  1  0  0  0  0
 13 17  1  0  0  0  0
 14 13  2  0  0  0  0
 15 10  1  0  0  0  0
 16 11  1  0  0  0  0
 18  2  1  0  0  0  0
 18 20  1  0  0  0  0
 19 18  2  0  0  0  0
 20 21  1  0  0  0  0
 21 23  1  0  0  0  0
 21 22  1  0  0  0  0
 21 24  1  0  0  0  0
 24 25  1  0  0  0  0
 24 27  1  0  0  0  0
 26 24  1  0  0  0  0
 27 28  1  0  0  0  0
 27 33  1  0  0  0  0
 29 28  1  0  0  0  0
 29 30  1  0  0  0  0
 30 31  1  0  0  0  0
 32 30  1  0  0  0  0
 33 32  1  0  0  0  0
M  END
>  <minimizedAffinity>
-4.49882603

$$$$
