
 OpenBabel03252505093D

 41 44  0  0  1  0  0  0  0  0999 V2000
   37.3950   32.5190   39.9180 C   0  0  0  0  0  0  0  0  0  0  0  0
   37.0310   31.3730   40.6670 C   0  0  0  0  0  0  0  0  0  0  0  0
   38.0230   30.3840   40.8720 C   0  0  0  0  0  0  0  0  0  0  0  0
   39.2620   30.5780   40.3480 N   0  0  0  0  0  0  0  0  0  0  0  0
   39.5670   31.6810   39.6430 C   0  0  0  0  0  0  0  0  0  0  0  0
   38.6370   32.6580   39.4230 N   0  0  0  0  0  0  0  0  0  0  0  0
   36.6400   33.2610   39.7690 H   0  0  0  0  0  0  0  0  0  0  0  0
   36.0350   31.2520   41.0690 H   0  0  0  0  0  0  0  0  0  0  0  0
   37.6850   29.1930   41.6390 C   0  0  0  0  0  0  0  0  0  0  0  0
   37.6430   29.2810   42.9920 C   0  0  0  0  0  0  0  0  0  0  0  0
   37.3120   28.1050   43.6780 C   0  0  0  0  0  0  0  0  0  0  0  0
   37.0640   26.9790   42.9250 C   0  0  0  0  0  0  0  0  0  0  0  0
   37.1100   26.9040   41.5670 C   0  0  0  0  0  0  0  0  0  0  0  0
   37.4350   28.0690   40.9400 N   0  0  0  0  0  0  0  0  0  0  0  0
   37.8460   30.1890   43.5370 H   0  0  0  0  0  0  0  0  0  0  0  0
   37.2510   28.0640   44.7540 H   0  0  0  0  0  0  0  0  0  0  0  0
   36.8060   26.0640   43.4500 H   0  0  0  0  0  0  0  0  0  0  0  0
   36.8640   25.7770   40.7550 N   0  0  0  0  0  0  0  0  0  0  0  0
   36.6270   25.8870   39.3100 C   0  0  0  0  0  2  0  0  0  0  0  0
   37.7120   25.1410   38.5720 C   0  0  0  0  0  2  0  0  0  0  0  0
   37.4480   23.6600   38.8660 C   0  0  0  0  0  3  0  0  0  0  0  0
   36.4130   23.4460   38.5520 H   0  0  0  0  0  0  0  0  0  0  0  0
   37.6000   23.4530   40.3430 C   0  0  0  0  0  2  0  0  0  0  0  0
   36.8080   24.4190   41.1880 C   0  0  0  0  0  2  0  0  0  0  0  0
   40.9400   31.8350   39.0890 C   0  0  2  0  0  0  0  0  0  0  0  0
   41.7800   32.3570   40.2200 C   0  0  0  0  0  0  0  0  0  0  0  0
   42.1390   33.7840   40.1700 C   0  0  0  0  0  0  0  0  0  0  0  0
   42.8130   33.9900   38.8190 C   0  0  0  0  0  0  0  0  0  0  0  0
   41.8980   33.7680   37.6960 C   0  0  0  0  0  0  0  0  0  0  0  0
   40.9470   32.6390   37.8870 C   0  0  0  0  0  0  0  0  0  0  0  0
   41.2620   30.7980   38.8390 H   0  0  0  0  0  0  0  0  0  0  0  0
   42.7280   31.7720   40.2350 H   0  0  0  0  0  0  0  0  0  0  0  0
   41.3210   32.1490   41.2190 H   0  0  0  0  0  0  0  0  0  0  0  0
   42.9320   33.9570   40.9260 H   0  0  0  0  0  0  0  0  0  0  0  0
   41.2880   34.4570   40.3220 H   0  0  0  0  0  0  0  0  0  0  0  0
   43.7560   33.4490   38.7920 H   0  0  0  0  0  0  0  0  0  0  0  0
   43.0380   35.0850   38.7900 H   0  0  0  0  0  0  0  0  0  0  0  0
   41.7660   34.2450   36.7620 H   0  0  0  0  0  0  0  0  0  0  0  0
   39.9990   32.3180   36.8680 N   0  0  0  0  0  0  0  0  0  0  0  0
   40.2400   31.5680   36.1900 H   0  0  0  0  0  0  0  0  0  0  0  0
   39.0570   32.6480   36.5910 H   0  0  0  0  0  0  0  0  0  0  0  0
  1  2  1  0  0  0  0
  2  3  2  0  0  0  0
  2  8  1  0  0  0  0
  3  9  1  0  0  0  0
  4  3  1  0  0  0  0
  5  4  2  0  0  0  0
  6  5  1  0  0  0  0
  6  1  2  0  0  0  0
  7  1  1  0  0  0  0
  9 10  1  0  0  0  0
 10 15  1  0  0  0  0
 10 11  2  0  0  0  0
 11 16  1  0  0  0  0
 12 17  1  0  0  0  0
 12 11  1  0  0  0  0
 13 12  2  0  0  0  0
 14 13  1  0  0  0  0
 14  9  2  0  0  0  0
 18 24  1  0  0  0  0
 18 13  1  0  0  0  0
 19 18  1  0  0  0  0
 20 21  1  0  0  0  0
 20 19  1  0  0  0  0
 21 23  1  0  0  0  0
 22 21  1  0  0  0  0
 23 24  1  0  0  0  0
 25 31  1  6  0  0  0
 25  5  1  0  0  0  0
 25 26  1  0  0  0  0
 26 32  1  0  0  0  0
 26 33  1  0  0  0  0
 27 26  1  0  0  0  0
 27 35  1  0  0  0  0
 27 34  1  0  0  0  0
 28 27  1  0  0  0  0
 29 30  2  0  0  0  0
 29 28  1  0  0  0  0
 30 25  1  0  0  0  0
 36 28  1  0  0  0  0
 37 28  1  0  0  0  0
 38 29  1  0  0  0  0
 39 30  1  0  0  0  0
 40 39  1  0  0  0  0
 41 39  1  0  0  0  0
M  END
>  <minimizedAffinity>
-6.92419958

$$$$

 OpenBabel03252505093D

 41 44  0  0  1  0  0  0  0  0999 V2000
   40.3610   33.4650   40.3380 C   0  0  0  0  0  0  0  0  0  0  0  0
   40.8660   32.4070   41.1320 C   0  0  0  0  0  0  0  0  0  0  0  0
   40.1850   31.1670   41.0760 C   0  0  0  0  0  0  0  0  0  0  0  0
   39.0940   31.0520   40.2730 N   0  0  0  0  0  0  0  0  0  0  0  0
   38.6490   32.0830   39.5340 C   0  0  0  0  0  0  0  0  0  0  0  0
   39.2780   33.2960   39.5620 N   0  0  0  0  0  0  0  0  0  0  0  0
   40.8820   34.3980   40.3870 H   0  0  0  0  0  0  0  0  0  0  0  0
   41.7370   32.5340   41.7600 H   0  0  0  0  0  0  0  0  0  0  0  0
   40.6760   30.0540   41.8770 C   0  0  0  0  0  0  0  0  0  0  0  0
   41.9340   30.1210   42.3810 C   0  0  0  0  0  0  0  0  0  0  0  0
   42.3530   29.0220   43.1450 C   0  0  0  0  0  0  0  0  0  0  0  0
   41.4590   27.9870   43.3120 C   0  0  0  0  0  0  0  0  0  0  0  0
   40.1990   27.9330   42.8010 C   0  0  0  0  0  0  0  0  0  0  0  0
   39.8330   29.0200   42.0660 N   0  0  0  0  0  0  0  0  0  0  0  0
   42.5970   30.9550   42.2210 H   0  0  0  0  0  0  0  0  0  0  0  0
   43.3330   28.9720   43.5910 H   0  0  0  0  0  0  0  0  0  0  0  0
   41.7770   27.1330   43.9030 H   0  0  0  0  0  0  0  0  0  0  0  0
   39.2520   26.8990   42.9450 N   0  0  0  0  0  0  0  0  0  0  0  0
   37.8300   27.0860   42.6280 C   0  0  0  0  0  2  0  0  0  0  0  0
   37.4450   26.1490   41.5090 C   0  0  0  0  0  2  0  0  0  0  0  0
   37.4920   24.7470   42.1280 C   0  0  0  0  0  3  0  0  0  0  0  0
   36.8230   24.7570   43.0050 H   0  0  0  0  0  0  0  0  0  0  0  0
   38.9050   24.4820   42.5520 C   0  0  0  0  0  2  0  0  0  0  0  0
   39.5120   25.5720   43.4000 C   0  0  0  0  0  2  0  0  0  0  0  0
   37.4460   31.8990   38.6770 C   0  0  2  0  0  0  0  0  0  0  0  0
   36.5390   30.9750   39.4400 C   0  0  0  0  0  0  0  0  0  0  0  0
   36.4720   29.5810   38.9680 C   0  0  0  0  0  0  0  0  0  0  0  0
   36.0910   29.6650   37.4960 C   0  0  0  0  0  0  0  0  0  0  0  0
   37.1250   30.3120   36.6840 C   0  0  0  0  0  0  0  0  0  0  0  0
   37.7970   31.4640   37.3440 C   0  0  0  0  0  0  0  0  0  0  0  0
   36.9790   32.9090   38.6240 H   0  0  0  0  0  0  0  0  0  0  0  0
   35.5090   31.3960   39.3920 H   0  0  0  0  0  0  0  0  0  0  0  0
   36.7720   30.9600   40.5340 H   0  0  0  0  0  0  0  0  0  0  0  0
   35.6090   29.0980   39.4710 H   0  0  0  0  0  0  0  0  0  0  0  0
   37.3970   29.0170   39.1320 H   0  0  0  0  0  0  0  0  0  0  0  0
   35.0800   30.0560   37.3990 H   0  0  0  0  0  0  0  0  0  0  0  0
   36.0870   28.5990   37.1540 H   0  0  0  0  0  0  0  0  0  0  0  0
   37.5030   30.1330   35.7130 H   0  0  0  0  0  0  0  0  0  0  0  0
   38.8270   32.1820   36.6620 N   0  0  0  0  0  0  0  0  0  0  0  0
   38.5680   33.0490   36.1510 H   0  0  0  0  0  0  0  0  0  0  0  0
   39.8480   32.0750   36.5220 H   0  0  0  0  0  0  0  0  0  0  0  0
  1  7  1  0  0  0  0
  1  2  1  0  0  0  0
  2  8  1  0  0  0  0
  3  2  2  0  0  0  0
  3  9  1  0  0  0  0
  4  3  1  0  0  0  0
  5  6  1  0  0  0  0
  5  4  2  0  0  0  0
  6  1  2  0  0  0  0
  9 14  2  0  0  0  0
  9 10  1  0  0  0  0
 10 11  2  0  0  0  0
 11 12  1  0  0  0  0
 11 16  1  0  0  0  0
 12 17  1  0  0  0  0
 13 18  1  0  0  0  0
 13 12  2  0  0  0  0
 14 13  1  0  0  0  0
 15 10  1  0  0  0  0
 18 24  1  0  0  0  0
 19 18  1  0  0  0  0
 20 21  1  0  0  0  0
 20 19  1  0  0  0  0
 21 23  1  0  0  0  0
 21 22  1  0  0  0  0
 23 24  1  0  0  0  0
 25 31  1  6  0  0  0
 25 26  1  0  0  0  0
 25  5  1  0  0  0  0
 26 33  1  0  0  0  0
 27 35  1  0  0  0  0
 27 26  1  0  0  0  0
 27 34  1  0  0  0  0
 28 27  1  0  0  0  0
 29 30  2  0  0  0  0
 29 28  1  0  0  0  0
 30 25  1  0  0  0  0
 32 26  1  0  0  0  0
 36 28  1  0  0  0  0
 37 28  1  0  0  0  0
 38 29  1  0  0  0  0
 39 30  1  0  0  0  0
 40 39  1  0  0  0  0
 41 39  1  0  0  0  0
M  END
>  <minimizedAffinity>
-6.79229021

$$$$

 OpenBabel03252505093D

 41 44  0  0  1  0  0  0  0  0999 V2000
   37.7280   32.9370   40.4760 C   0  0  0  0  0  0  0  0  0  0  0  0
   36.9480   31.8030   40.1460 C   0  0  0  0  0  0  0  0  0  0  0  0
   37.5860   30.7540   39.4410 C   0  0  0  0  0  0  0  0  0  0  0  0
   38.9000   30.8830   39.1190 N   0  0  0  0  0  0  0  0  0  0  0  0
   39.6060   31.9780   39.4530 C   0  0  0  0  0  0  0  0  0  0  0  0
   39.0250   33.0120   40.1330 N   0  0  0  0  0  0  0  0  0  0  0  0
   37.2380   33.7250   41.0080 H   0  0  0  0  0  0  0  0  0  0  0  0
   35.9040   31.7340   40.4180 H   0  0  0  0  0  0  0  0  0  0  0  0
   36.8160   29.5700   39.0860 C   0  0  0  0  0  0  0  0  0  0  0  0
   35.7060   29.7220   38.3200 C   0  0  0  0  0  0  0  0  0  0  0  0
   35.0050   28.5480   38.0080 C   0  0  0  0  0  0  0  0  0  0  0  0
   35.5010   27.3620   38.5030 C   0  0  0  0  0  0  0  0  0  0  0  0
   36.6170   27.2240   39.2700 C   0  0  0  0  0  0  0  0  0  0  0  0
   37.2670   28.3880   39.5490 N   0  0  0  0  0  0  0  0  0  0  0  0
   35.3580   30.6750   37.9570 H   0  0  0  0  0  0  0  0  0  0  0  0
   34.1100   28.5560   37.4070 H   0  0  0  0  0  0  0  0  0  0  0  0
   34.9630   26.4490   38.2650 H   0  0  0  0  0  0  0  0  0  0  0  0
   37.1600   26.0340   39.7970 N   0  0  0  0  0  0  0  0  0  0  0  0
   38.5260   25.9660   40.3320 C   0  0  0  0  0  2  0  0  0  0  0  0
   38.4680   25.6010   41.7960 C   0  0  0  0  0  2  0  0  0  0  0  0
   37.9980   24.1420   41.8250 C   0  0  0  0  0  3  0  0  0  0  0  0
   38.7040   23.5610   41.2080 H   0  0  0  0  0  0  0  0  0  0  0  0
   36.6220   24.0930   41.2310 C   0  0  0  0  0  2  0  0  0  0  0  0
   36.5020   24.7720   39.8900 C   0  0  0  0  0  2  0  0  0  0  0  0
   41.0410   32.0650   39.0690 C   0  0  2  0  0  0  0  0  0  0  0  0
   41.7440   32.6660   40.2520 C   0  0  0  0  0  0  0  0  0  0  0  0
   42.1440   34.0790   40.1330 C   0  0  0  0  0  0  0  0  0  0  0  0
   42.9880   34.1600   38.8680 C   0  0  0  0  0  0  0  0  0  0  0  0
   42.2180   33.8590   37.6580 C   0  0  0  0  0  0  0  0  0  0  0  0
   41.2210   32.7650   37.8170 C   0  0  0  0  0  0  0  0  0  0  0  0
   41.3660   31.0050   38.9480 H   0  0  0  0  0  0  0  0  0  0  0  0
   42.6680   32.0710   40.4360 H   0  0  0  0  0  0  0  0  0  0  0  0
   41.1570   32.5500   41.1980 H   0  0  0  0  0  0  0  0  0  0  0  0
   42.8380   34.3030   40.9680 H   0  0  0  0  0  0  0  0  0  0  0  0
   41.2970   34.7750   40.1190 H   0  0  0  0  0  0  0  0  0  0  0  0
   43.9130   33.6050   39.0060 H   0  0  0  0  0  0  0  0  0  0  0  0
   43.2420   35.2460   38.7790 H   0  0  0  0  0  0  0  0  0  0  0  0
   42.2170   34.2580   36.6800 H   0  0  0  0  0  0  0  0  0  0  0  0
   40.4020   32.3730   36.7140 N   0  0  0  0  0  0  0  0  0  0  0  0
   40.7070   31.5660   36.1360 H   0  0  0  0  0  0  0  0  0  0  0  0
   39.5110   32.6930   36.2920 H   0  0  0  0  0  0  0  0  0  0  0  0
  1  7  1  0  0  0  0
  2  8  1  0  0  0  0
  2  1  1  0  0  0  0
  3  2  2  0  0  0  0
  4  3  1  0  0  0  0
  4  5  2  0  0  0  0
  5  6  1  0  0  0  0
  6  1  2  0  0  0  0
  9  3  1  0  0  0  0
  9 14  1  0  0  0  0
 10  9  2  0  0  0  0
 11 10  1  0  0  0  0
 11 12  2  0  0  0  0
 12 13  1  0  0  0  0
 13 14  2  0  0  0  0
 13 18  1  0  0  0  0
 15 10  1  0  0  0  0
 16 11  1  0  0  0  0
 17 12  1  0  0  0  0
 18 24  1  0  0  0  0
 18 19  1  0  0  0  0
 19 20  1  0  0  0  0
 20 21  1  0  0  0  0
 22 21  1  0  0  0  0
 23 21  1  0  0  0  0
 24 23  1  0  0  0  0
 25 31  1  6  0  0  0
 25  5  1  0  0  0  0
 25 26  1  0  0  0  0
 26 32  1  0  0  0  0
 26 33  1  0  0  0  0
 27 26  1  0  0  0  0
 27 34  1  0  0  0  0
 28 36  1  0  0  0  0
 28 27  1  0  0  0  0
 29 30  2  0  0  0  0
 29 28  1  0  0  0  0
 30 25  1  0  0  0  0
 35 27  1  0  0  0  0
 37 28  1  0  0  0  0
 38 29  1  0  0  0  0
 39 30  1  0  0  0  0
 40 39  1  0  0  0  0
 41 39  1  0  0  0  0
M  END
>  <minimizedAffinity>
-6.39291191

$$$$

 OpenBabel03252505093D

 41 44  0  0  1  0  0  0  0  0999 V2000
   34.0620   26.3410   36.7920 C   0  0  0  0  0  0  0  0  0  0  0  0
   35.0800   27.0780   37.4440 C   0  0  0  0  0  0  0  0  0  0  0  0
   34.8580   28.4610   37.6460 C   0  0  0  0  0  0  0  0  0  0  0  0
   33.6930   29.0100   37.2110 N   0  0  0  0  0  0  0  0  0  0  0  0
   32.7510   28.2740   36.5960 C   0  0  0  0  0  0  0  0  0  0  0  0
   32.9290   26.9350   36.3820 N   0  0  0  0  0  0  0  0  0  0  0  0
   34.2380   25.2970   36.6440 H   0  0  0  0  0  0  0  0  0  0  0  0
   35.9950   26.6080   37.7780 H   0  0  0  0  0  0  0  0  0  0  0  0
   35.8820   29.2520   38.3160 C   0  0  0  0  0  0  0  0  0  0  0  0
   36.4370   30.2950   37.6500 C   0  0  0  0  0  0  0  0  0  0  0  0
   37.4160   31.0210   38.3430 C   0  0  0  0  0  0  0  0  0  0  0  0
   37.7220   30.6120   39.6220 C   0  0  0  0  0  0  0  0  0  0  0  0
   37.1570   29.5620   40.2790 C   0  0  0  0  0  0  0  0  0  0  0  0
   36.2110   28.8850   39.5700 N   0  0  0  0  0  0  0  0  0  0  0  0
   36.1620   30.5750   36.6460 H   0  0  0  0  0  0  0  0  0  0  0  0
   37.9200   31.8680   37.9070 H   0  0  0  0  0  0  0  0  0  0  0  0
   38.4790   31.1700   40.1660 H   0  0  0  0  0  0  0  0  0  0  0  0
   37.4370   29.1080   41.5850 N   0  0  0  0  0  0  0  0  0  0  0  0
   36.5510   28.1810   42.3000 C   0  0  0  0  0  2  0  0  0  0  0  0
   37.3020   26.9050   42.5940 C   0  0  0  0  0  2  0  0  0  0  0  0
   38.3450   27.2900   43.6500 C   0  0  0  0  0  3  0  0  0  0  0  0
   37.8000   27.7390   44.4970 H   0  0  0  0  0  0  0  0  0  0  0  0
   39.2700   28.2960   43.0320 C   0  0  0  0  0  2  0  0  0  0  0  0
   38.5700   29.4610   42.3770 C   0  0  0  0  0  2  0  0  0  0  0  0
   31.4980   28.9310   36.1360 C   0  0  2  0  0  0  0  0  0  0  0  0
   31.7460   29.3330   34.7100 C   0  0  0  0  0  0  0  0  0  0  0  0
   31.9960   30.7640   34.4630 C   0  0  0  0  0  0  0  0  0  0  0  0
   30.8010   31.4960   35.0610 C   0  0  0  0  0  0  0  0  0  0  0  0
   30.7230   31.3500   36.5170 C   0  0  0  0  0  0  0  0  0  0  0  0
   31.0950   30.0000   37.0230 C   0  0  0  0  0  0  0  0  0  0  0  0
   30.7290   28.1240   36.1610 H   0  0  0  0  0  0  0  0  0  0  0  0
   30.8520   29.0400   34.1150 H   0  0  0  0  0  0  0  0  0  0  0  0
   32.5810   28.7510   34.2460 H   0  0  0  0  0  0  0  0  0  0  0  0
   31.9290   30.9310   33.3690 H   0  0  0  0  0  0  0  0  0  0  0  0
   32.9510   31.1190   34.8660 H   0  0  0  0  0  0  0  0  0  0  0  0
   29.9020   31.2540   34.4980 H   0  0  0  0  0  0  0  0  0  0  0  0
   31.0350   32.5780   34.8960 H   0  0  0  0  0  0  0  0  0  0  0  0
   30.4540   32.0070   37.2990 H   0  0  0  0  0  0  0  0  0  0  0  0
   31.0640   29.7240   38.4240 N   0  0  0  0  0  0  0  0  0  0  0  0
   30.2140   29.2770   38.8190 H   0  0  0  0  0  0  0  0  0  0  0  0
   31.7060   29.8540   39.2270 H   0  0  0  0  0  0  0  0  0  0  0  0
  1  2  1  0  0  0  0
  2  3  2  0  0  0  0
  2  8  1  0  0  0  0
  3  9  1  0  0  0  0
  4  3  1  0  0  0  0
  5  4  2  0  0  0  0
  6  5  1  0  0  0  0
  6  1  2  0  0  0  0
  7  1  1  0  0  0  0
  9 14  1  0  0  0  0
 10  9  2  0  0  0  0
 10 11  1  0  0  0  0
 11 12  2  0  0  0  0
 12 17  1  0  0  0  0
 12 13  1  0  0  0  0
 13 18  1  0  0  0  0
 14 13  2  0  0  0  0
 15 10  1  0  0  0  0
 16 11  1  0  0  0  0
 18 19  1  0  0  0  0
 18 24  1  0  0  0  0
 19 20  1  0  0  0  0
 20 21  1  0  0  0  0
 21 22  1  0  0  0  0
 23 21  1  0  0  0  0
 24 23  1  0  0  0  0
 25 31  1  1  0  0  0
 25  5  1  0  0  0  0
 25 30  1  0  0  0  0
 26 25  1  0  0  0  0
 27 26  1  0  0  0  0
 27 35  1  0  0  0  0
 27 28  1  0  0  0  0
 28 29  1  0  0  0  0
 29 30  2  0  0  0  0
 29 38  1  0  0  0  0
 30 39  1  0  0  0  0
 32 26  1  0  0  0  0
 33 26  1  0  0  0  0
 34 27  1  0  0  0  0
 36 28  1  0  0  0  0
 37 28  1  0  0  0  0
 39 40  1  0  0  0  0
 39 41  1  0  0  0  0
M  END
>  <minimizedAffinity>
-6.37259293

$$$$

 OpenBabel03252505093D

 41 44  0  0  1  0  0  0  0  0999 V2000
   35.9150   29.1470   37.8230 C   0  0  0  0  0  0  0  0  0  0  0  0
   36.1520   28.3740   38.9860 C   0  0  0  0  0  0  0  0  0  0  0  0
   37.0690   28.8860   39.9350 C   0  0  0  0  0  0  0  0  0  0  0  0
   37.6700   30.0800   39.6900 N   0  0  0  0  0  0  0  0  0  0  0  0
   37.4160   30.7830   38.5730 C   0  0  0  0  0  0  0  0  0  0  0  0
   36.5380   30.3220   37.6320 N   0  0  0  0  0  0  0  0  0  0  0  0
   35.2210   28.7520   37.1120 H   0  0  0  0  0  0  0  0  0  0  0  0
   35.6560   27.4270   39.1480 H   0  0  0  0  0  0  0  0  0  0  0  0
   37.3370   28.1200   41.1440 C   0  0  0  0  0  0  0  0  0  0  0  0
   36.4360   28.1680   42.1580 C   0  0  0  0  0  0  0  0  0  0  0  0
   36.7450   27.4110   43.2960 C   0  0  0  0  0  0  0  0  0  0  0  0
   37.9220   26.6950   43.2830 C   0  0  0  0  0  0  0  0  0  0  0  0
   38.8180   26.6560   42.2590 C   0  0  0  0  0  0  0  0  0  0  0  0
   38.4790   27.4050   41.1730 N   0  0  0  0  0  0  0  0  0  0  0  0
   35.5260   28.7460   42.1190 H   0  0  0  0  0  0  0  0  0  0  0  0
   36.0980   27.3790   44.1580 H   0  0  0  0  0  0  0  0  0  0  0  0
   38.1670   26.1060   44.1610 H   0  0  0  0  0  0  0  0  0  0  0  0
   40.0310   25.9410   42.2000 N   0  0  0  0  0  0  0  0  0  0  0  0
   40.7500   25.7160   40.9390 C   0  0  0  0  0  2  0  0  0  0  0  0
   42.1070   26.3720   41.0190 C   0  0  0  0  0  2  0  0  0  0  0  0
   42.8950   25.5360   42.0340 C   0  0  0  0  0  3  0  0  0  0  0  0
   42.8810   24.4930   41.6770 H   0  0  0  0  0  0  0  0  0  0  0  0
   42.1970   25.6460   43.3560 C   0  0  0  0  0  2  0  0  0  0  0  0
   40.7190   25.3510   43.3020 C   0  0  0  0  0  2  0  0  0  0  0  0
   38.1090   32.0830   38.3560 C   0  0  2  0  0  0  0  0  0  0  0  0
   39.4400   31.7400   37.7500 C   0  0  0  0  0  0  0  0  0  0  0  0
   40.6110   31.8340   38.6380 C   0  0  0  0  0  0  0  0  0  0  0  0
   40.5890   33.2510   39.1970 C   0  0  0  0  0  0  0  0  0  0  0  0
   39.4220   33.5010   40.0470 C   0  0  0  0  0  0  0  0  0  0  0  0
   38.1610   32.8720   39.5660 C   0  0  0  0  0  0  0  0  0  0  0  0
   37.4860   32.6130   37.5980 H   0  0  0  0  0  0  0  0  0  0  0  0
   39.6110   32.4320   36.8940 H   0  0  0  0  0  0  0  0  0  0  0  0
   39.4420   30.7250   37.2790 H   0  0  0  0  0  0  0  0  0  0  0  0
   41.5190   31.7800   38.0020 H   0  0  0  0  0  0  0  0  0  0  0  0
   40.6280   31.0720   39.4250 H   0  0  0  0  0  0  0  0  0  0  0  0
   40.7700   33.9650   38.3960 H   0  0  0  0  0  0  0  0  0  0  0  0
   41.4620   33.2820   39.8960 H   0  0  0  0  0  0  0  0  0  0  0  0
   39.2800   34.0420   40.9440 H   0  0  0  0  0  0  0  0  0  0  0  0
   36.9490   33.0360   40.3050 N   0  0  0  0  0  0  0  0  0  0  0  0
   36.2960   33.7910   40.0180 H   0  0  0  0  0  0  0  0  0  0  0  0
   36.4980   32.5740   41.1150 H   0  0  0  0  0  0  0  0  0  0  0  0
  1  2  1  0  0  0  0
  2  8  1  0  0  0  0
  2  3  2  0  0  0  0
  3  9  1  0  0  0  0
  4  3  1  0  0  0  0
  5  4  2  0  0  0  0
  6  1  2  0  0  0  0
  6  5  1  0  0  0  0
  7  1  1  0  0  0  0
  9 14  2  0  0  0  0
  9 10  1  0  0  0  0
 10 11  2  0  0  0  0
 11 16  1  0  0  0  0
 12 11  1  0  0  0  0
 12 17  1  0  0  0  0
 13 12  2  0  0  0  0
 14 13  1  0  0  0  0
 15 10  1  0  0  0  0
 18 13  1  0  0  0  0
 18 24  1  0  0  0  0
 19 20  1  0  0  0  0
 19 18  1  0  0  0  0
 20 21  1  0  0  0  0
 21 23  1  0  0  0  0
 22 21  1  0  0  0  0
 24 23  1  0  0  0  0
 25 31  1  6  0  0  0
 25  5  1  0  0  0  0
 25 30  1  0  0  0  0
 26 25  1  0  0  0  0
 26 27  1  0  0  0  0
 27 28  1  0  0  0  0
 27 35  1  0  0  0  0
 28 37  1  0  0  0  0
 28 29  1  0  0  0  0
 29 38  1  0  0  0  0
 30 29  2  0  0  0  0
 30 39  1  0  0  0  0
 32 26  1  0  0  0  0
 33 26  1  0  0  0  0
 34 27  1  0  0  0  0
 36 28  1  0  0  0  0
 39 41  1  0  0  0  0
 40 39  1  0  0  0  0
M  END
>  <minimizedAffinity>
-6.34978056

$$$$

 OpenBabel03252505093D

 41 44  0  0  1  0  0  0  0  0999 V2000
   35.5870   23.9790   38.8890 C   0  0  0  0  0  0  0  0  0  0  0  0
   35.6380   25.1820   38.1440 C   0  0  0  0  0  0  0  0  0  0  0  0
   36.2190   26.3120   38.7690 C   0  0  0  0  0  0  0  0  0  0  0  0
   36.6940   26.1900   40.0370 N   0  0  0  0  0  0  0  0  0  0  0  0
   36.6270   25.0270   40.7080 C   0  0  0  0  0  0  0  0  0  0  0  0
   36.0720   23.9150   40.1400 N   0  0  0  0  0  0  0  0  0  0  0  0
   35.1460   23.1300   38.4090 H   0  0  0  0  0  0  0  0  0  0  0  0
   35.2500   25.2430   37.1370 H   0  0  0  0  0  0  0  0  0  0  0  0
   36.2910   27.5670   38.0340 C   0  0  0  0  0  0  0  0  0  0  0  0
   36.0910   27.5480   36.6930 C   0  0  0  0  0  0  0  0  0  0  0  0
   36.1720   28.7840   36.0370 C   0  0  0  0  0  0  0  0  0  0  0  0
   36.4440   29.8940   36.8070 C   0  0  0  0  0  0  0  0  0  0  0  0
   36.6430   29.9000   38.1530 C   0  0  0  0  0  0  0  0  0  0  0  0
   36.5560   28.6780   38.7490 N   0  0  0  0  0  0  0  0  0  0  0  0
   35.8800   26.6500   36.1350 H   0  0  0  0  0  0  0  0  0  0  0  0
   36.0290   28.8820   34.9730 H   0  0  0  0  0  0  0  0  0  0  0  0
   36.5080   30.8550   36.3060 H   0  0  0  0  0  0  0  0  0  0  0  0
   36.9240   31.0070   38.9800 N   0  0  0  0  0  0  0  0  0  0  0  0
   36.8000   30.9460   40.4420 C   0  0  0  0  0  2  0  0  0  0  0  0
   38.1520   31.1980   41.0650 C   0  0  0  0  0  2  0  0  0  0  0  0
   38.4470   32.6780   40.7920 C   0  0  0  0  0  3  0  0  0  0  0  0
   37.6060   33.2580   41.2060 H   0  0  0  0  0  0  0  0  0  0  0  0
   38.5270   32.8610   39.3060 C   0  0  0  0  0  2  0  0  0  0  0  0
   37.3500   32.2980   38.5480 C   0  0  0  0  0  2  0  0  0  0  0  0
   37.1590   24.9550   42.0960 C   0  0  2  0  0  0  0  0  0  0  0  0
   37.1770   26.3700   42.6010 C   0  0  0  0  0  0  0  0  0  0  0  0
   38.4910   27.0310   42.6650 C   0  0  0  0  0  0  0  0  0  0  0  0
   39.3690   26.1150   43.5080 C   0  0  0  0  0  0  0  0  0  0  0  0
   39.6040   24.8180   42.8700 C   0  0  0  0  0  0  0  0  0  0  0  0
   38.4260   24.2610   42.1500 C   0  0  0  0  0  0  0  0  0  0  0  0
   36.3960   24.3730   42.6630 H   0  0  0  0  0  0  0  0  0  0  0  0
   36.7520   26.3680   43.6310 H   0  0  0  0  0  0  0  0  0  0  0  0
   36.4830   27.0340   42.0260 H   0  0  0  0  0  0  0  0  0  0  0  0
   38.3720   27.9590   43.2610 H   0  0  0  0  0  0  0  0  0  0  0  0
   38.9260   27.2400   41.6810 H   0  0  0  0  0  0  0  0  0  0  0  0
   39.0020   26.0940   44.5320 H   0  0  0  0  0  0  0  0  0  0  0  0
   40.3680   26.6180   43.5070 H   0  0  0  0  0  0  0  0  0  0  0  0
   40.4450   24.1800   42.8090 H   0  0  0  0  0  0  0  0  0  0  0  0
   38.5210   23.0020   41.4820 N   0  0  0  0  0  0  0  0  0  0  0  0
   38.2030   22.1510   41.9850 H   0  0  0  0  0  0  0  0  0  0  0  0
   38.8460   22.6690   40.5560 H   0  0  0  0  0  0  0  0  0  0  0  0
  1  6  1  0  0  0  0
  2  3  1  0  0  0  0
  2  1  2  0  0  0  0
  3  4  2  0  0  0  0
  4  5  1  0  0  0  0
  5 25  1  0  0  0  0
  6  5  2  0  0  0  0
  7  1  1  0  0  0  0
  8  2  1  0  0  0  0
  9 14  1  0  0  0  0
  9  3  1  0  0  0  0
 10  9  2  0  0  0  0
 11 10  1  0  0  0  0
 11 12  2  0  0  0  0
 12 13  1  0  0  0  0
 13 14  2  0  0  0  0
 13 18  1  0  0  0  0
 15 10  1  0  0  0  0
 16 11  1  0  0  0  0
 17 12  1  0  0  0  0
 18 19  1  0  0  0  0
 19 20  1  0  0  0  0
 21 20  1  0  0  0  0
 21 22  1  0  0  0  0
 23 21  1  0  0  0  0
 24 18  1  0  0  0  0
 24 23  1  0  0  0  0
 25 30  1  0  0  0  0
 25 26  1  0  0  0  0
 25 31  1  1  0  0  0
 26 27  1  0  0  0  0
 26 32  1  0  0  0  0
 27 34  1  0  0  0  0
 27 28  1  0  0  0  0
 28 36  1  0  0  0  0
 29 28  1  0  0  0  0
 30 29  2  0  0  0  0
 33 26  1  0  0  0  0
 35 27  1  0  0  0  0
 37 28  1  0  0  0  0
 38 29  1  0  0  0  0
 39 40  1  0  0  0  0
 39 30  1  0  0  0  0
 41 39  1  0  0  0  0
M  END
>  <minimizedAffinity>
-6.25933838

$$$$

 OpenBabel03252505093D

 41 44  0  0  1  0  0  0  0  0999 V2000
   37.7480   32.1120   40.1110 C   0  0  0  0  0  0  0  0  0  0  0  0
   36.9900   31.2770   39.2540 C   0  0  0  0  0  0  0  0  0  0  0  0
   36.9230   29.9000   39.5750 C   0  0  0  0  0  0  0  0  0  0  0  0
   37.5800   29.4500   40.6770 N   0  0  0  0  0  0  0  0  0  0  0  0
   38.2890   30.2770   41.4650 C   0  0  0  0  0  0  0  0  0  0  0  0
   38.3780   31.6130   41.1880 N   0  0  0  0  0  0  0  0  0  0  0  0
   37.7930   33.1510   39.8610 H   0  0  0  0  0  0  0  0  0  0  0  0
   36.4800   31.6700   38.3850 H   0  0  0  0  0  0  0  0  0  0  0  0
   36.1520   29.0110   38.7180 C   0  0  0  0  0  0  0  0  0  0  0  0
   35.2900   29.5560   37.8230 C   0  0  0  0  0  0  0  0  0  0  0  0
   34.5740   28.6540   37.0240 C   0  0  0  0  0  0  0  0  0  0  0  0
   34.8090   27.3100   37.2190 C   0  0  0  0  0  0  0  0  0  0  0  0
   35.6770   26.7760   38.1210 C   0  0  0  0  0  0  0  0  0  0  0  0
   36.3510   27.6880   38.8760 N   0  0  0  0  0  0  0  0  0  0  0  0
   35.1420   30.6180   37.7090 H   0  0  0  0  0  0  0  0  0  0  0  0
   33.8640   28.9800   36.2820 H   0  0  0  0  0  0  0  0  0  0  0  0
   34.2580   26.6050   36.6030 H   0  0  0  0  0  0  0  0  0  0  0  0
   35.9490   25.4120   38.3550 N   0  0  0  0  0  0  0  0  0  0  0  0
   37.1230   24.9650   39.1150 C   0  0  0  0  0  2  0  0  0  0  0  0
   36.6640   24.2240   40.3470 C   0  0  0  0  0  2  0  0  0  0  0  0
   36.0570   22.9170   39.8240 C   0  0  0  0  0  3  0  0  0  0  0  0
   36.8320   22.4190   39.2190 H   0  0  0  0  0  0  0  0  0  0  0  0
   34.8760   23.2710   38.9710 C   0  0  0  0  0  2  0  0  0  0  0  0
   35.1650   24.3060   37.9120 C   0  0  0  0  0  2  0  0  0  0  0  0
   38.9910   29.7250   42.6550 C   0  0  2  0  0  0  0  0  0  0  0  0
   40.3500   29.3060   42.1690 C   0  0  0  0  0  0  0  0  0  0  0  0
   40.5690   27.8600   41.9930 C   0  0  0  0  0  0  0  0  0  0  0  0
   40.2240   27.2270   43.3340 C   0  0  0  0  0  0  0  0  0  0  0  0
   38.8090   27.3780   43.6800 C   0  0  0  0  0  0  0  0  0  0  0  0
   38.2170   28.6910   43.3050 C   0  0  0  0  0  0  0  0  0  0  0  0
   39.1000   30.5920   43.3470 H   0  0  0  0  0  0  0  0  0  0  0  0
   41.1010   29.6720   42.9060 H   0  0  0  0  0  0  0  0  0  0  0  0
   40.6360   29.8190   41.2170 H   0  0  0  0  0  0  0  0  0  0  0  0
   41.6590   27.7000   41.8600 H   0  0  0  0  0  0  0  0  0  0  0  0
   39.9970   27.4270   41.1640 H   0  0  0  0  0  0  0  0  0  0  0  0
   40.9450   27.5430   44.0860 H   0  0  0  0  0  0  0  0  0  0  0  0
   40.3600   26.1300   43.1610 H   0  0  0  0  0  0  0  0  0  0  0  0
   38.1030   26.7430   44.1460 H   0  0  0  0  0  0  0  0  0  0  0  0
   36.8430   28.9670   43.5830 N   0  0  0  0  0  0  0  0  0  0  0  0
   36.6110   29.4810   44.4550 H   0  0  0  0  0  0  0  0  0  0  0  0
   35.9350   28.7840   43.1200 H   0  0  0  0  0  0  0  0  0  0  0  0
  1  6  1  0  0  0  0
  2  3  1  0  0  0  0
  2  1  2  0  0  0  0
  3  4  2  0  0  0  0
  4  5  1  0  0  0  0
  5 25  1  0  0  0  0
  6  5  2  0  0  0  0
  7  1  1  0  0  0  0
  8  2  1  0  0  0  0
  9 14  1  0  0  0  0
  9  3  1  0  0  0  0
 10  9  2  0  0  0  0
 11 12  2  0  0  0  0
 11 10  1  0  0  0  0
 12 13  1  0  0  0  0
 13 18  1  0  0  0  0
 13 14  2  0  0  0  0
 15 10  1  0  0  0  0
 16 11  1  0  0  0  0
 17 12  1  0  0  0  0
 18 19  1  0  0  0  0
 19 20  1  0  0  0  0
 21 20  1  0  0  0  0
 22 21  1  0  0  0  0
 23 21  1  0  0  0  0
 24 18  1  0  0  0  0
 24 23  1  0  0  0  0
 25 30  1  0  0  0  0
 25 31  1  1  0  0  0
 26 25  1  0  0  0  0
 26 32  1  0  0  0  0
 27 26  1  0  0  0  0
 27 28  1  0  0  0  0
 28 29  1  0  0  0  0
 28 36  1  0  0  0  0
 29 38  1  0  0  0  0
 30 39  1  0  0  0  0
 30 29  2  0  0  0  0
 33 26  1  0  0  0  0
 34 27  1  0  0  0  0
 35 27  1  0  0  0  0
 37 28  1  0  0  0  0
 39 40  1  0  0  0  0
 41 39  1  0  0  0  0
M  END
>  <minimizedAffinity>
-6.23101044

$$$$

 OpenBabel03252505093D

 41 44  0  0  1  0  0  0  0  0999 V2000
   36.9070   31.0910   38.0330 C   0  0  0  0  0  0  0  0  0  0  0  0
   36.8100   30.1110   39.0510 C   0  0  0  0  0  0  0  0  0  0  0  0
   37.7630   30.1600   40.0970 C   0  0  0  0  0  0  0  0  0  0  0  0
   38.7130   31.1320   40.0760 N   0  0  0  0  0  0  0  0  0  0  0  0
   38.7680   32.0450   39.0910 C   0  0  0  0  0  0  0  0  0  0  0  0
   37.8670   32.0310   38.0630 N   0  0  0  0  0  0  0  0  0  0  0  0
   36.1830   31.0470   37.2470 H   0  0  0  0  0  0  0  0  0  0  0  0
   36.0410   29.3520   39.0360 H   0  0  0  0  0  0  0  0  0  0  0  0
   37.6940   29.1700   41.1630 C   0  0  0  0  0  0  0  0  0  0  0  0
   37.8940   29.5760   42.4420 C   0  0  0  0  0  0  0  0  0  0  0  0
   37.8160   28.5810   43.4260 C   0  0  0  0  0  0  0  0  0  0  0  0
   37.5450   27.2960   43.0100 C   0  0  0  0  0  0  0  0  0  0  0  0
   37.3460   26.9020   41.7220 C   0  0  0  0  0  0  0  0  0  0  0  0
   37.4320   27.9000   40.7990 N   0  0  0  0  0  0  0  0  0  0  0  0
   38.1040   30.5970   42.7170 H   0  0  0  0  0  0  0  0  0  0  0  0
   37.9590   28.7950   44.4730 H   0  0  0  0  0  0  0  0  0  0  0  0
   37.4820   26.5200   43.7660 H   0  0  0  0  0  0  0  0  0  0  0  0
   37.0680   25.6030   41.2500 N   0  0  0  0  0  0  0  0  0  0  0  0
   36.5580   25.3520   39.8950 C   0  0  0  0  0  2  0  0  0  0  0  0
   37.5560   24.5110   39.1380 C   0  0  0  0  0  2  0  0  0  0  0  0
   37.5000   23.1300   39.8020 C   0  0  0  0  0  3  0  0  0  0  0  0
   36.4510   22.7930   39.7620 H   0  0  0  0  0  0  0  0  0  0  0  0
   37.9430   23.2900   41.2260 C   0  0  0  0  0  2  0  0  0  0  0  0
   37.2290   24.3860   41.9770 C   0  0  0  0  0  2  0  0  0  0  0  0
   39.8350   33.0830   39.1180 C   0  0  2  0  0  0  0  0  0  0  0  0
   40.9850   32.5090   38.3410 C   0  0  0  0  0  0  0  0  0  0  0  0
   42.1330   32.0230   39.1250 C   0  0  0  0  0  0  0  0  0  0  0  0
   42.5630   33.1990   39.9920 C   0  0  0  0  0  0  0  0  0  0  0  0
   41.5420   33.5790   40.9710 C   0  0  0  0  0  0  0  0  0  0  0  0
   40.1430   33.5000   40.4680 C   0  0  0  0  0  0  0  0  0  0  0  0
   39.4060   33.9440   38.5560 H   0  0  0  0  0  0  0  0  0  0  0  0
   41.3590   33.3020   37.6540 H   0  0  0  0  0  0  0  0  0  0  0  0
   40.6620   31.6870   37.6530 H   0  0  0  0  0  0  0  0  0  0  0  0
   42.9720   31.8510   38.4200 H   0  0  0  0  0  0  0  0  0  0  0  0
   41.9140   31.1240   39.7140 H   0  0  0  0  0  0  0  0  0  0  0  0
   42.9540   33.9960   39.3630 H   0  0  0  0  0  0  0  0  0  0  0  0
   43.4070   32.7920   40.6040 H   0  0  0  0  0  0  0  0  0  0  0  0
   41.5850   33.9020   41.9770 H   0  0  0  0  0  0  0  0  0  0  0  0
   39.0510   33.8410   41.3230 N   0  0  0  0  0  0  0  0  0  0  0  0
   38.6670   34.8050   41.2720 H   0  0  0  0  0  0  0  0  0  0  0  0
   38.4830   33.3560   42.0420 H   0  0  0  0  0  0  0  0  0  0  0  0
  1  6  2  0  0  0  0
  1  2  1  0  0  0  0
  2  3  2  0  0  0  0
  3  9  1  0  0  0  0
  4  3  1  0  0  0  0
  5 25  1  0  0  0  0
  5  4  2  0  0  0  0
  6  5  1  0  0  0  0
  7  1  1  0  0  0  0
  8  2  1  0  0  0  0
  9 10  1  0  0  0  0
 10 15  1  0  0  0  0
 10 11  2  0  0  0  0
 11 16  1  0  0  0  0
 12 11  1  0  0  0  0
 12 17  1  0  0  0  0
 13 12  2  0  0  0  0
 14  9  2  0  0  0  0
 14 13  1  0  0  0  0
 18 13  1  0  0  0  0
 18 24  1  0  0  0  0
 19 18  1  0  0  0  0
 20 21  1  0  0  0  0
 20 19  1  0  0  0  0
 21 23  1  0  0  0  0
 22 21  1  0  0  0  0
 23 24  1  0  0  0  0
 25 31  1  6  0  0  0
 25 30  1  0  0  0  0
 26 25  1  0  0  0  0
 26 27  1  0  0  0  0
 27 35  1  0  0  0  0
 27 28  1  0  0  0  0
 28 37  1  0  0  0  0
 28 29  1  0  0  0  0
 29 38  1  0  0  0  0
 30 29  2  0  0  0  0
 30 39  1  0  0  0  0
 32 26  1  0  0  0  0
 33 26  1  0  0  0  0
 34 27  1  0  0  0  0
 36 28  1  0  0  0  0
 39 41  1  0  0  0  0
 40 39  1  0  0  0  0
M  END
>  <minimizedAffinity>
-6.21536589

$$$$

 OpenBabel03252505093D

 41 44  0  0  1  0  0  0  0  0999 V2000
   36.2480   26.2310   39.5850 C   0  0  0  0  0  0  0  0  0  0  0  0
   37.3110   26.1380   40.5160 C   0  0  0  0  0  0  0  0  0  0  0  0
   37.9410   27.3420   40.9120 C   0  0  0  0  0  0  0  0  0  0  0  0
   37.5010   28.5170   40.3870 N   0  0  0  0  0  0  0  0  0  0  0  0
   36.4870   28.5610   39.5060 C   0  0  0  0  0  0  0  0  0  0  0  0
   35.8540   27.4200   39.0980 N   0  0  0  0  0  0  0  0  0  0  0  0
   35.7780   25.3170   39.2920 H   0  0  0  0  0  0  0  0  0  0  0  0
   37.6350   25.1860   40.9130 H   0  0  0  0  0  0  0  0  0  0  0  0
   39.0360   27.2860   41.8690 C   0  0  0  0  0  0  0  0  0  0  0  0
   39.0500   26.2830   42.7830 C   0  0  0  0  0  0  0  0  0  0  0  0
   40.1290   26.2780   43.6790 C   0  0  0  0  0  0  0  0  0  0  0  0
   41.0650   27.2800   43.5510 C   0  0  0  0  0  0  0  0  0  0  0  0
   41.0390   28.2810   42.6290 C   0  0  0  0  0  0  0  0  0  0  0  0
   39.9750   28.2480   41.7790 N   0  0  0  0  0  0  0  0  0  0  0  0
   38.2910   25.5200   42.8420 H   0  0  0  0  0  0  0  0  0  0  0  0
   40.2370   25.5270   44.4450 H   0  0  0  0  0  0  0  0  0  0  0  0
   41.9030   27.2820   44.2410 H   0  0  0  0  0  0  0  0  0  0  0  0
   41.9720   29.3250   42.4610 N   0  0  0  0  0  0  0  0  0  0  0  0
   42.0160   30.1500   41.2470 C   0  0  0  0  0  2  0  0  0  0  0  0
   41.7320   31.5860   41.6120 C   0  0  0  0  0  2  0  0  0  0  0  0
   42.9620   32.0470   42.4030 C   0  0  0  0  0  3  0  0  0  0  0  0
   43.8430   31.8750   41.7640 H   0  0  0  0  0  0  0  0  0  0  0  0
   43.0450   31.2120   43.6450 C   0  0  0  0  0  2  0  0  0  0  0  0
   42.9700   29.7260   43.3980 C   0  0  0  0  0  2  0  0  0  0  0  0
   36.0520   29.8770   38.9610 C   0  0  2  0  0  0  0  0  0  0  0  0
   36.7640   30.0300   37.6470 C   0  0  0  0  0  0  0  0  0  0  0  0
   37.9060   30.9600   37.6210 C   0  0  0  0  0  0  0  0  0  0  0  0
   37.3630   32.2880   38.1320 C   0  0  0  0  0  0  0  0  0  0  0  0
   36.9350   32.2190   39.5320 C   0  0  0  0  0  0  0  0  0  0  0  0
   36.2620   30.9470   39.9100 C   0  0  0  0  0  0  0  0  0  0  0  0
   34.9600   29.7590   38.7750 H   0  0  0  0  0  0  0  0  0  0  0  0
   36.0210   30.3890   36.8990 H   0  0  0  0  0  0  0  0  0  0  0  0
   37.1070   29.0480   37.2340 H   0  0  0  0  0  0  0  0  0  0  0  0
   38.1700   31.1370   36.5580 H   0  0  0  0  0  0  0  0  0  0  0  0
   38.7710   30.6100   38.1960 H   0  0  0  0  0  0  0  0  0  0  0  0
   36.6430   32.6890   37.4230 H   0  0  0  0  0  0  0  0  0  0  0  0
   38.2560   32.9630   38.1410 H   0  0  0  0  0  0  0  0  0  0  0  0
   37.0040   32.8900   40.3460 H   0  0  0  0  0  0  0  0  0  0  0  0
   35.7980   30.7490   41.2470 N   0  0  0  0  0  0  0  0  0  0  0  0
   34.8020   30.9560   41.4580 H   0  0  0  0  0  0  0  0  0  0  0  0
   36.2090   30.4280   42.1420 H   0  0  0  0  0  0  0  0  0  0  0  0
  1  2  1  0  0  0  0
  2  3  2  0  0  0  0
  2  8  1  0  0  0  0
  3  9  1  0  0  0  0
  4  3  1  0  0  0  0
  5  4  2  0  0  0  0
  6  5  1  0  0  0  0
  6  1  2  0  0  0  0
  7  1  1  0  0  0  0
  9 10  1  0  0  0  0
 10 15  1  0  0  0  0
 10 11  2  0  0  0  0
 11 16  1  0  0  0  0
 12 11  1  0  0  0  0
 12 17  1  0  0  0  0
 13 12  2  0  0  0  0
 14  9  2  0  0  0  0
 14 13  1  0  0  0  0
 18 13  1  0  0  0  0
 18 24  1  0  0  0  0
 19 20  1  0  0  0  0
 19 18  1  0  0  0  0
 20 21  1  0  0  0  0
 21 23  1  0  0  0  0
 22 21  1  0  0  0  0
 24 23  1  0  0  0  0
 25 31  1  6  0  0  0
 25  5  1  0  0  0  0
 25 30  1  0  0  0  0
 26 25  1  0  0  0  0
 27 26  1  0  0  0  0
 27 28  1  0  0  0  0
 27 35  1  0  0  0  0
 28 37  1  0  0  0  0
 28 29  1  0  0  0  0
 29 30  2  0  0  0  0
 29 38  1  0  0  0  0
 30 39  1  0  0  0  0
 32 26  1  0  0  0  0
 33 26  1  0  0  0  0
 34 27  1  0  0  0  0
 36 28  1  0  0  0  0
 39 40  1  0  0  0  0
 39 41  1  0  0  0  0
M  END
>  <minimizedAffinity>
-6.21301508

$$$$
