
 OpenBabel03242520113D

 27 29  0  0  0  0  0  0  0  0999 V2000
   39.0870   31.5730   39.1040 C   0  0  0  0  0  0  0  0  0  0  0  0
   38.1440   32.5510   39.1070 C   0  0  0  0  0  0  0  0  0  0  0  0
   37.0050   32.4200   39.8710 C   0  0  0  0  0  0  0  0  0  0  0  0
   36.8380   31.2690   40.6380 C   0  0  0  0  0  0  0  0  0  0  0  0
   37.8220   30.2770   40.6180 C   0  0  0  0  0  0  0  0  0  0  0  0
   38.8780   30.4770   39.8640 N   0  0  0  0  0  0  0  0  0  0  0  0
   38.3170   33.4270   38.4960 H   0  0  0  0  0  0  0  0  0  0  0  0
   36.2770   33.2180   39.8480 H   0  0  0  0  0  0  0  0  0  0  0  0
   35.9570   31.1660   41.2300 H   0  0  0  0  0  0  0  0  0  0  0  0
   37.6780   29.0760   41.3990 N   0  0  0  0  0  0  0  0  0  0  0  0
   38.1820   29.0730   42.7550 C   0  0  0  0  0  2  0  0  0  0  0  0
   37.3700   28.2120   43.6770 C   0  0  0  0  0  2  0  0  0  0  0  0
   36.7680   27.0110   43.0050 C   0  0  0  0  0  3  0  0  0  0  0  0
   36.8870   26.0700   43.5960 H   0  0  0  0  0  0  0  0  0  0  0  0
   37.3570   26.7460   41.6440 C   0  0  0  0  0  2  0  0  0  0  0  0
   37.0300   27.9340   40.7700 C   0  0  0  0  0  2  0  0  0  0  0  0
   41.9450   32.8970   37.2370 C   0  0  0  0  0  0  0  0  0  0  0  0
   42.6170   31.7190   36.8570 C   0  0  0  0  0  0  0  0  0  0  0  0
   42.0870   30.4870   37.2420 C   0  0  0  0  0  0  0  0  0  0  0  0
   40.9380   30.5070   37.9710 N   0  0  0  0  0  0  0  0  0  0  0  0
   40.3170   31.6450   38.3200 C   0  0  0  0  0  0  0  0  0  0  0  0
   40.8170   32.8380   37.9560 N   0  0  0  0  0  0  0  0  0  0  0  0
   42.4860   34.1600   36.8460 N   0  0  0  0  0  0  0  0  0  0  0  0
   43.5270   31.7330   36.2790 H   0  0  0  0  0  0  0  0  0  0  0  0
   42.5690   29.5570   36.9720 H   0  0  0  0  0  0  0  0  0  0  0  0
   42.7640   34.9900   37.4410 H   0  0  0  0  0  0  0  0  0  0  0  0
   42.5820   34.1750   35.7930 H   0  0  0  0  0  0  0  0  0  0  0  0
  1  2  2  0  0  0  0
  1  6  1  0  0  0  0
  2  3  1  0  0  0  0
  3  4  2  0  0  0  0
  4  9  1  0  0  0  0
  5  4  1  0  0  0  0
  5 10  1  0  0  0  0
  6  5  2  0  0  0  0
  7  2  1  0  0  0  0
  8  3  1  0  0  0  0
 10 11  1  0  0  0  0
 11 12  1  0  0  0  0
 13 14  1  0  0  0  0
 13 12  1  0  0  0  0
 15 13  1  0  0  0  0
 16 10  1  0  0  0  0
 16 15  1  0  0  0  0
 17 22  1  0  0  0  0
 18 17  2  0  0  0  0
 18 19  1  0  0  0  0
 19 20  2  0  0  0  0
 20 21  1  0  0  0  0
 21  1  1  0  0  0  0
 22 21  2  0  0  0  0
 23 17  1  0  0  0  0
 23 26  1  0  0  0  0
 24 18  1  0  0  0  0
 25 19  1  0  0  0  0
 27 23  1  0  0  0  0
M  END
>  <minimizedAffinity>
-6.29393053

$$$$

 OpenBabel03242520113D

 27 29  0  0  0  0  0  0  0  0999 V2000
   39.3050   32.2070   39.8730 C   0  0  0  0  0  0  0  0  0  0  0  0
   38.1460   32.7890   39.4690 C   0  0  0  0  0  0  0  0  0  0  0  0
   36.9320   32.2050   39.7640 C   0  0  0  0  0  0  0  0  0  0  0  0
   36.9170   31.0110   40.4820 C   0  0  0  0  0  0  0  0  0  0  0  0
   38.1230   30.4320   40.8860 C   0  0  0  0  0  0  0  0  0  0  0  0
   39.2370   31.0510   40.5660 N   0  0  0  0  0  0  0  0  0  0  0  0
   38.2060   33.7150   38.9140 H   0  0  0  0  0  0  0  0  0  0  0  0
   36.0310   32.6960   39.4270 H   0  0  0  0  0  0  0  0  0  0  0  0
   35.9790   30.5580   40.7110 H   0  0  0  0  0  0  0  0  0  0  0  0
   38.1410   29.1990   41.6280 N   0  0  0  0  0  0  0  0  0  0  0  0
   38.0800   29.2640   43.0720 C   0  0  0  0  0  2  0  0  0  0  0  0
   37.3500   28.1020   43.6780 C   0  0  0  0  0  2  0  0  0  0  0  0
   37.5040   26.8240   42.9020 C   0  0  0  0  0  3  0  0  0  0  0  0
   37.7240   25.9400   43.5500 H   0  0  0  0  0  0  0  0  0  0  0  0
   38.6030   26.8920   41.8740 C   0  0  0  0  0  2  0  0  0  0  0  0
   38.2180   27.9570   40.8720 C   0  0  0  0  0  2  0  0  0  0  0  0
   42.1430   33.7060   38.1110 C   0  0  0  0  0  0  0  0  0  0  0  0
   43.1010   33.8120   39.1380 C   0  0  0  0  0  0  0  0  0  0  0  0
   42.7690   33.3710   40.4190 C   0  0  0  0  0  0  0  0  0  0  0  0
   41.5200   32.8600   40.5930 N   0  0  0  0  0  0  0  0  0  0  0  0
   40.6240   32.7700   39.5960 C   0  0  0  0  0  0  0  0  0  0  0  0
   40.9320   33.1910   38.3580 N   0  0  0  0  0  0  0  0  0  0  0  0
   42.4810   34.1580   36.7980 N   0  0  0  0  0  0  0  0  0  0  0  0
   44.0840   34.2220   38.9710 H   0  0  0  0  0  0  0  0  0  0  0  0
   43.4730   33.4330   41.2370 H   0  0  0  0  0  0  0  0  0  0  0  0
   41.9990   34.8730   36.1840 H   0  0  0  0  0  0  0  0  0  0  0  0
   43.3480   33.6460   36.4780 H   0  0  0  0  0  0  0  0  0  0  0  0
  1  6  1  0  0  0  0
  2  3  1  0  0  0  0
  2  1  2  0  0  0  0
  3  4  2  0  0  0  0
  4  9  1  0  0  0  0
  4  5  1  0  0  0  0
  5 10  1  0  0  0  0
  6  5  2  0  0  0  0
  7  2  1  0  0  0  0
  8  3  1  0  0  0  0
 10 11  1  0  0  0  0
 11 12  1  0  0  0  0
 13 14  1  0  0  0  0
 13 12  1  0  0  0  0
 15 13  1  0  0  0  0
 16 10  1  0  0  0  0
 16 15  1  0  0  0  0
 17 22  2  0  0  0  0
 17 18  1  0  0  0  0
 18 19  2  0  0  0  0
 19 20  1  0  0  0  0
 19 25  1  0  0  0  0
 21  1  1  0  0  0  0
 21 20  2  0  0  0  0
 22 21  1  0  0  0  0
 23 17  1  0  0  0  0
 24 18  1  0  0  0  0
 26 23  1  0  0  0  0
 27 23  1  0  0  0  0
M  END
>  <minimizedAffinity>
-6.02829933

$$$$

 OpenBabel03242520113D

 27 29  0  0  0  0  0  0  0  0999 V2000
   38.0840   29.2430   41.9680 C   0  0  0  0  0  0  0  0  0  0  0  0
   37.7070   29.0320   43.2570 C   0  0  0  0  0  0  0  0  0  0  0  0
   37.3410   27.7710   43.6780 C   0  0  0  0  0  0  0  0  0  0  0  0
   37.3620   26.7220   42.7620 C   0  0  0  0  0  0  0  0  0  0  0  0
   37.7520   26.9660   41.4420 C   0  0  0  0  0  0  0  0  0  0  0  0
   38.0870   28.1940   41.1190 N   0  0  0  0  0  0  0  0  0  0  0  0
   37.7060   29.8760   43.9320 H   0  0  0  0  0  0  0  0  0  0  0  0
   37.0480   27.6410   44.7100 H   0  0  0  0  0  0  0  0  0  0  0  0
   37.0790   25.7470   43.0860 H   0  0  0  0  0  0  0  0  0  0  0  0
   37.7840   25.9040   40.4720 N   0  0  0  0  0  0  0  0  0  0  0  0
   39.0020   25.1350   40.3320 C   0  0  0  0  0  2  0  0  0  0  0  0
   38.7490   23.7030   39.9650 C   0  0  0  0  0  2  0  0  0  0  0  0
   37.5330   23.5070   39.1050 C   0  0  0  0  0  3  0  0  0  0  0  0
   37.7090   22.8180   38.2430 H   0  0  0  0  0  0  0  0  0  0  0  0
   37.0090   24.7980   38.5290 C   0  0  0  0  0  2  0  0  0  0  0  0
   36.5800   25.6680   39.6880 C   0  0  0  0  0  2  0  0  0  0  0  0
   37.9390   32.5820   40.4730 C   0  0  0  0  0  0  0  0  0  0  0  0
   39.2900   32.9780   40.5090 C   0  0  0  0  0  0  0  0  0  0  0  0
   40.2340   32.1010   41.0430 C   0  0  0  0  0  0  0  0  0  0  0  0
   39.7790   30.9030   41.5000 N   0  0  0  0  0  0  0  0  0  0  0  0
   38.4840   30.5500   41.4530 C   0  0  0  0  0  0  0  0  0  0  0  0
   37.5640   31.3850   40.9420 N   0  0  0  0  0  0  0  0  0  0  0  0
   36.9680   33.4780   39.9270 N   0  0  0  0  0  0  0  0  0  0  0  0
   39.6220   33.9340   40.1390 H   0  0  0  0  0  0  0  0  0  0  0  0
   41.2830   32.3620   41.0910 H   0  0  0  0  0  0  0  0  0  0  0  0
   36.0890   33.8720   40.3660 H   0  0  0  0  0  0  0  0  0  0  0  0
   37.2540   33.7250   38.9400 H   0  0  0  0  0  0  0  0  0  0  0  0
  1  2  1  0  0  0  0
  2  3  2  0  0  0  0
  2  7  1  0  0  0  0
  3  8  1  0  0  0  0
  4  9  1  0  0  0  0
  4  3  1  0  0  0  0
  5  4  2  0  0  0  0
  6  5  1  0  0  0  0
  6  1  2  0  0  0  0
 10  5  1  0  0  0  0
 11 10  1  0  0  0  0
 12 11  1  0  0  0  0
 13 12  1  0  0  0  0
 14 13  1  0  0  0  0
 15 13  1  0  0  0  0
 15 16  1  0  0  0  0
 16 10  1  0  0  0  0
 17 18  2  0  0  0  0
 17 22  1  0  0  0  0
 18 19  1  0  0  0  0
 19 25  1  0  0  0  0
 19 20  2  0  0  0  0
 21 20  1  0  0  0  0
 21  1  1  0  0  0  0
 22 21  2  0  0  0  0
 23 26  1  0  0  0  0
 23 17  1  0  0  0  0
 24 18  1  0  0  0  0
 27 23  1  0  0  0  0
M  END
>  <minimizedAffinity>
-5.57860756

$$$$

 OpenBabel03242520113D

 27 29  0  0  0  0  0  0  0  0999 V2000
   37.0980   28.6070   40.9400 C   0  0  0  0  0  0  0  0  0  0  0  0
   36.8780   28.7380   42.2740 C   0  0  0  0  0  0  0  0  0  0  0  0
   36.7960   27.6230   43.0810 C   0  0  0  0  0  0  0  0  0  0  0  0
   36.9430   26.3630   42.5040 C   0  0  0  0  0  0  0  0  0  0  0  0
   37.1680   26.2550   41.1290 C   0  0  0  0  0  0  0  0  0  0  0  0
   37.2330   27.3640   40.4300 N   0  0  0  0  0  0  0  0  0  0  0  0
   36.7710   29.7350   42.6780 H   0  0  0  0  0  0  0  0  0  0  0  0
   36.6210   27.7650   44.1370 H   0  0  0  0  0  0  0  0  0  0  0  0
   36.8800   25.4990   43.1270 H   0  0  0  0  0  0  0  0  0  0  0  0
   37.3220   24.9670   40.5030 N   0  0  0  0  0  0  0  0  0  0  0  0
   38.6490   24.3970   40.4220 C   0  0  0  0  0  2  0  0  0  0  0  0
   38.6460   22.8990   40.5130 C   0  0  0  0  0  2  0  0  0  0  0  0
   37.4230   22.2620   39.9180 C   0  0  0  0  0  3  0  0  0  0  0  0
   37.6560   21.3820   39.2700 H   0  0  0  0  0  0  0  0  0  0  0  0
   36.6160   23.2180   39.0770 C   0  0  0  0  0  2  0  0  0  0  0  0
   36.1250   24.3180   39.9890 C   0  0  0  0  0  2  0  0  0  0  0  0
   37.1500   32.0320   39.6490 C   0  0  0  0  0  0  0  0  0  0  0  0
   37.3910   31.8240   38.2770 C   0  0  0  0  0  0  0  0  0  0  0  0
   37.5330   30.5180   37.8080 C   0  0  0  0  0  0  0  0  0  0  0  0
   37.4270   29.5160   38.7240 N   0  0  0  0  0  0  0  0  0  0  0  0
   37.1960   29.7430   40.0270 C   0  0  0  0  0  0  0  0  0  0  0  0
   37.0580   30.9960   40.4920 N   0  0  0  0  0  0  0  0  0  0  0  0
   37.0050   33.3690   40.1320 N   0  0  0  0  0  0  0  0  0  0  0  0
   37.4700   32.6380   37.5750 H   0  0  0  0  0  0  0  0  0  0  0  0
   37.7190   30.3110   36.7640 H   0  0  0  0  0  0  0  0  0  0  0  0
   37.5420   33.8760   40.8910 H   0  0  0  0  0  0  0  0  0  0  0  0
   36.2240   33.8390   39.5970 H   0  0  0  0  0  0  0  0  0  0  0  0
  1  2  1  0  0  0  0
  2  7  1  0  0  0  0
  2  3  2  0  0  0  0
  3  8  1  0  0  0  0
  4  3  1  0  0  0  0
  4  9  1  0  0  0  0
  5  4  2  0  0  0  0
  6  1  2  0  0  0  0
  6  5  1  0  0  0  0
 10  5  1  0  0  0  0
 11 10  1  0  0  0  0
 11 12  1  0  0  0  0
 13 12  1  0  0  0  0
 14 13  1  0  0  0  0
 15 13  1  0  0  0  0
 15 16  1  0  0  0  0
 16 10  1  0  0  0  0
 17 23  1  0  0  0  0
 17 22  1  0  0  0  0
 18 17  2  0  0  0  0
 19 18  1  0  0  0  0
 19 20  2  0  0  0  0
 20 21  1  0  0  0  0
 21 22  2  0  0  0  0
 21  1  1  0  0  0  0
 23 26  1  0  0  0  0
 24 18  1  0  0  0  0
 25 19  1  0  0  0  0
 27 23  1  0  0  0  0
M  END
>  <minimizedAffinity>
-5.52945232

$$$$

 OpenBabel03242520113D

 27 29  0  0  0  0  0  0  0  0999 V2000
   37.3800   26.9240   41.5700 C   0  0  0  0  0  0  0  0  0  0  0  0
   37.3080   26.9580   42.9270 C   0  0  0  0  0  0  0  0  0  0  0  0
   37.5250   28.1370   43.6070 C   0  0  0  0  0  0  0  0  0  0  0  0
   37.8190   29.2890   42.8810 C   0  0  0  0  0  0  0  0  0  0  0  0
   37.8880   29.2280   41.4860 C   0  0  0  0  0  0  0  0  0  0  0  0
   37.6690   28.0670   40.9130 N   0  0  0  0  0  0  0  0  0  0  0  0
   37.0770   26.0400   43.4480 H   0  0  0  0  0  0  0  0  0  0  0  0
   37.4600   28.1260   44.6860 H   0  0  0  0  0  0  0  0  0  0  0  0
   37.9880   30.2020   43.4060 H   0  0  0  0  0  0  0  0  0  0  0  0
   38.1910   30.4000   40.7080 N   0  0  0  0  0  0  0  0  0  0  0  0
   37.0960   31.2420   40.2780 C   0  0  0  0  0  2  0  0  0  0  0  0
   37.4690   32.6930   40.2070 C   0  0  0  0  0  2  0  0  0  0  0  0
   38.9050   32.9280   39.8280 C   0  0  0  0  0  3  0  0  0  0  0  0
   39.0310   33.7240   39.0550 H   0  0  0  0  0  0  0  0  0  0  0  0
   39.5770   31.6910   39.2910 C   0  0  0  0  0  2  0  0  0  0  0  0
   39.5890   30.6650   40.4020 C   0  0  0  0  0  2  0  0  0  0  0  0
   37.4950   23.4390   40.4550 C   0  0  0  0  0  0  0  0  0  0  0  0
   36.7180   23.4810   39.2810 C   0  0  0  0  0  0  0  0  0  0  0  0
   36.1650   24.6980   38.8830 C   0  0  0  0  0  0  0  0  0  0  0  0
   36.4160   25.7800   39.6700 N   0  0  0  0  0  0  0  0  0  0  0  0
   37.1610   25.7120   40.7850 C   0  0  0  0  0  0  0  0  0  0  0  0
   37.7000   24.5460   41.1800 N   0  0  0  0  0  0  0  0  0  0  0  0
   38.0630   22.1930   40.8650 N   0  0  0  0  0  0  0  0  0  0  0  0
   36.5350   22.6080   38.6770 H   0  0  0  0  0  0  0  0  0  0  0  0
   35.5620   24.7780   37.9890 H   0  0  0  0  0  0  0  0  0  0  0  0
   37.9590   21.6720   41.7810 H   0  0  0  0  0  0  0  0  0  0  0  0
   38.6570   21.8170   40.0760 H   0  0  0  0  0  0  0  0  0  0  0  0
  1  2  1  0  0  0  0
  2  7  1  0  0  0  0
  2  3  2  0  0  0  0
  3  8  1  0  0  0  0
  4  9  1  0  0  0  0
  4  3  1  0  0  0  0
  5  4  2  0  0  0  0
  6  5  1  0  0  0  0
  6  1  2  0  0  0  0
 10  5  1  0  0  0  0
 11 10  1  0  0  0  0
 12 11  1  0  0  0  0
 13 12  1  0  0  0  0
 14 13  1  0  0  0  0
 15 13  1  0  0  0  0
 15 16  1  0  0  0  0
 16 10  1  0  0  0  0
 17 23  1  0  0  0  0
 17 22  1  0  0  0  0
 18 17  2  0  0  0  0
 19 18  1  0  0  0  0
 19 20  2  0  0  0  0
 20 21  1  0  0  0  0
 21 22  2  0  0  0  0
 21  1  1  0  0  0  0
 23 26  1  0  0  0  0
 24 18  1  0  0  0  0
 25 19  1  0  0  0  0
 27 23  1  0  0  0  0
M  END
>  <minimizedAffinity>
-5.38249731

$$$$

 OpenBabel03242520113D

 27 29  0  0  0  0  0  0  0  0999 V2000
   40.4430   30.3560   41.8570 C   0  0  0  0  0  0  0  0  0  0  0  0
   41.5850   30.2600   42.5870 C   0  0  0  0  0  0  0  0  0  0  0  0
   41.9620   29.0540   43.1370 C   0  0  0  0  0  0  0  0  0  0  0  0
   41.1530   27.9380   42.9330 C   0  0  0  0  0  0  0  0  0  0  0  0
   39.9820   28.0630   42.1800 C   0  0  0  0  0  0  0  0  0  0  0  0
   39.6930   29.2460   41.6890 N   0  0  0  0  0  0  0  0  0  0  0  0
   42.1820   31.1520   42.7190 H   0  0  0  0  0  0  0  0  0  0  0  0
   42.8770   29.0150   43.7110 H   0  0  0  0  0  0  0  0  0  0  0  0
   41.4430   27.0040   43.3590 H   0  0  0  0  0  0  0  0  0  0  0  0
   39.1250   26.9300   41.9520 N   0  0  0  0  0  0  0  0  0  0  0  0
   39.3770   26.0980   40.7960 C   0  0  0  0  0  2  0  0  0  0  0  0
   39.0400   24.6550   41.0310 C   0  0  0  0  0  2  0  0  0  0  0  0
   37.8880   24.4510   41.9750 C   0  0  0  0  0  3  0  0  0  0  0  0
   37.1530   23.6920   41.6130 H   0  0  0  0  0  0  0  0  0  0  0  0
   37.1130   25.7170   42.2330 C   0  0  0  0  0  2  0  0  0  0  0  0
   38.0510   26.6920   42.9070 C   0  0  0  0  0  2  0  0  0  0  0  0
   38.2660   32.9190   40.4100 C   0  0  0  0  0  0  0  0  0  0  0  0
   39.1830   33.9430   40.1050 C   0  0  0  0  0  0  0  0  0  0  0  0
   40.5330   33.7480   40.3970 C   0  0  0  0  0  0  0  0  0  0  0  0
   40.8780   32.5610   40.9660 N   0  0  0  0  0  0  0  0  0  0  0  0
   39.9830   31.6000   41.2460 C   0  0  0  0  0  0  0  0  0  0  0  0
   38.6800   31.7750   40.9700 N   0  0  0  0  0  0  0  0  0  0  0  0
   36.8820   33.1160   40.1130 N   0  0  0  0  0  0  0  0  0  0  0  0
   38.8800   34.8750   39.6550 H   0  0  0  0  0  0  0  0  0  0  0  0
   41.2720   34.5070   40.1810 H   0  0  0  0  0  0  0  0  0  0  0  0
   36.0400   33.0680   40.7520 H   0  0  0  0  0  0  0  0  0  0  0  0
   36.7850   33.3350   39.0830 H   0  0  0  0  0  0  0  0  0  0  0  0
  1  2  1  0  0  0  0
  2  7  1  0  0  0  0
  2  3  2  0  0  0  0
  3  8  1  0  0  0  0
  4  3  1  0  0  0  0
  4  9  1  0  0  0  0
  5  4  2  0  0  0  0
  6  1  2  0  0  0  0
  6  5  1  0  0  0  0
 10  5  1  0  0  0  0
 10 16  1  0  0  0  0
 11 12  1  0  0  0  0
 11 10  1  0  0  0  0
 12 13  1  0  0  0  0
 13 15  1  0  0  0  0
 14 13  1  0  0  0  0
 15 16  1  0  0  0  0
 17 22  1  0  0  0  0
 18 19  1  0  0  0  0
 18 17  2  0  0  0  0
 19 20  2  0  0  0  0
 20 21  1  0  0  0  0
 21  1  1  0  0  0  0
 22 21  2  0  0  0  0
 23 17  1  0  0  0  0
 23 26  1  0  0  0  0
 24 18  1  0  0  0  0
 25 19  1  0  0  0  0
 27 23  1  0  0  0  0
M  END
>  <minimizedAffinity>
-5.3694911

$$$$

 OpenBabel03242520113D

 27 29  0  0  0  0  0  0  0  0999 V2000
   39.3360   32.1980   40.3760 C   0  0  0  0  0  0  0  0  0  0  0  0
   38.2580   32.8340   39.8460 C   0  0  0  0  0  0  0  0  0  0  0  0
   37.0170   32.2340   39.8610 C   0  0  0  0  0  0  0  0  0  0  0  0
   36.8880   30.9680   40.4280 C   0  0  0  0  0  0  0  0  0  0  0  0
   38.0120   30.3350   40.9660 C   0  0  0  0  0  0  0  0  0  0  0  0
   39.1590   30.9720   40.9130 N   0  0  0  0  0  0  0  0  0  0  0  0
   38.4050   33.8150   39.4170 H   0  0  0  0  0  0  0  0  0  0  0  0
   36.1830   32.7700   39.4310 H   0  0  0  0  0  0  0  0  0  0  0  0
   35.9290   30.5020   40.4410 H   0  0  0  0  0  0  0  0  0  0  0  0
   37.9120   29.0270   41.5580 N   0  0  0  0  0  0  0  0  0  0  0  0
   37.6030   28.9310   42.9680 C   0  0  0  0  0  2  0  0  0  0  0  0
   36.7900   27.7160   43.3060 C   0  0  0  0  0  2  0  0  0  0  0  0
   37.0860   26.5310   42.4310 C   0  0  0  0  0  3  0  0  0  0  0  0
   37.1980   25.5790   43.0050 H   0  0  0  0  0  0  0  0  0  0  0  0
   38.3440   26.7020   41.6210 C   0  0  0  0  0  2  0  0  0  0  0  0
   38.1290   27.8750   40.6930 C   0  0  0  0  0  2  0  0  0  0  0  0
   42.6300   33.2970   41.5360 C   0  0  0  0  0  0  0  0  0  0  0  0
   43.1790   33.8590   40.3680 C   0  0  0  0  0  0  0  0  0  0  0  0
   42.4190   33.8580   39.1980 C   0  0  0  0  0  0  0  0  0  0  0  0
   41.1780   33.3030   39.2650 N   0  0  0  0  0  0  0  0  0  0  0  0
   40.6780   32.7730   40.3940 C   0  0  0  0  0  0  0  0  0  0  0  0
   41.3990   32.7680   41.5280 N   0  0  0  0  0  0  0  0  0  0  0  0
   43.4060   33.2970   42.7360 N   0  0  0  0  0  0  0  0  0  0  0  0
   44.1650   34.2920   40.3430 H   0  0  0  0  0  0  0  0  0  0  0  0
   42.7990   34.2790   38.2770 H   0  0  0  0  0  0  0  0  0  0  0  0
   43.6970   32.4870   43.3530 H   0  0  0  0  0  0  0  0  0  0  0  0
   43.6810   34.2920   42.9600 H   0  0  0  0  0  0  0  0  0  0  0  0
  1 21  1  0  0  0  0
  1  6  1  0  0  0  0
  2  3  1  0  0  0  0
  2  1  2  0  0  0  0
  3  4  2  0  0  0  0
  4  9  1  0  0  0  0
  4  5  1  0  0  0  0
  5 10  1  0  0  0  0
  6  5  2  0  0  0  0
  7  2  1  0  0  0  0
  8  3  1  0  0  0  0
 10 11  1  0  0  0  0
 11 12  1  0  0  0  0
 13 14  1  0  0  0  0
 13 12  1  0  0  0  0
 15 13  1  0  0  0  0
 16 10  1  0  0  0  0
 16 15  1  0  0  0  0
 17 23  1  0  0  0  0
 18 17  2  0  0  0  0
 19 20  2  0  0  0  0
 19 18  1  0  0  0  0
 20 21  1  0  0  0  0
 21 22  2  0  0  0  0
 22 17  1  0  0  0  0
 23 27  1  0  0  0  0
 23 26  1  0  0  0  0
 24 18  1  0  0  0  0
 25 19  1  0  0  0  0
M  END
>  <minimizedAffinity>
-5.35615396

$$$$

 OpenBabel03242520113D

 27 29  0  0  0  0  0  0  0  0999 V2000
   37.4940   29.9820   39.3560 C   0  0  0  0  0  0  0  0  0  0  0  0
   36.3010   30.0690   38.7120 C   0  0  0  0  0  0  0  0  0  0  0  0
   35.4730   28.9710   38.6270 C   0  0  0  0  0  0  0  0  0  0  0  0
   35.8800   27.7740   39.2110 C   0  0  0  0  0  0  0  0  0  0  0  0
   37.1120   27.7100   39.8670 C   0  0  0  0  0  0  0  0  0  0  0  0
   37.8440   28.8000   39.9050 N   0  0  0  0  0  0  0  0  0  0  0  0
   36.0260   31.0190   38.2740 H   0  0  0  0  0  0  0  0  0  0  0  0
   34.5310   29.0780   38.1070 H   0  0  0  0  0  0  0  0  0  0  0  0
   35.2400   26.9230   39.1460 H   0  0  0  0  0  0  0  0  0  0  0  0
   37.5620   26.4870   40.4800 N   0  0  0  0  0  0  0  0  0  0  0  0
   37.1990   26.2330   41.8570 C   0  0  0  0  0  2  0  0  0  0  0  0
   36.9970   24.7750   42.1480 C   0  0  0  0  0  2  0  0  0  0  0  0
   37.8810   23.8720   41.3340 C   0  0  0  0  0  3  0  0  0  0  0  0
   38.3590   23.0630   41.9400 H   0  0  0  0  0  0  0  0  0  0  0  0
   38.9950   24.6120   40.6410 C   0  0  0  0  0  2  0  0  0  0  0  0
   38.3590   25.5780   39.6680 C   0  0  0  0  0  2  0  0  0  0  0  0
   39.0280   33.1110   40.4800 C   0  0  0  0  0  0  0  0  0  0  0  0
   40.1860   33.1720   39.6820 C   0  0  0  0  0  0  0  0  0  0  0  0
   40.4310   32.1460   38.7700 C   0  0  0  0  0  0  0  0  0  0  0  0
   39.5180   31.1380   38.7120 N   0  0  0  0  0  0  0  0  0  0  0  0
   38.4210   31.1040   39.4850 C   0  0  0  0  0  0  0  0  0  0  0  0
   38.1730   32.0860   40.3680 N   0  0  0  0  0  0  0  0  0  0  0  0
   38.7740   34.1610   41.4170 N   0  0  0  0  0  0  0  0  0  0  0  0
   40.8920   33.9840   39.7500 H   0  0  0  0  0  0  0  0  0  0  0  0
   41.3070   32.1520   38.1360 H   0  0  0  0  0  0  0  0  0  0  0  0
   38.6200   34.1110   42.4630 H   0  0  0  0  0  0  0  0  0  0  0  0
   38.7540   35.0800   40.8960 H   0  0  0  0  0  0  0  0  0  0  0  0
  1 21  1  0  0  0  0
  1  6  1  0  0  0  0
  2  1  2  0  0  0  0
  3  2  1  0  0  0  0
  3  4  2  0  0  0  0
  4  5  1  0  0  0  0
  5  6  2  0  0  0  0
  5 10  1  0  0  0  0
  7  2  1  0  0  0  0
  8  3  1  0  0  0  0
  9  4  1  0  0  0  0
 10 11  1  0  0  0  0
 11 12  1  0  0  0  0
 13 14  1  0  0  0  0
 13 12  1  0  0  0  0
 15 13  1  0  0  0  0
 16 10  1  0  0  0  0
 16 15  1  0  0  0  0
 17 23  1  0  0  0  0
 18 24  1  0  0  0  0
 18 17  2  0  0  0  0
 19 18  1  0  0  0  0
 20 19  2  0  0  0  0
 20 21  1  0  0  0  0
 21 22  2  0  0  0  0
 22 17  1  0  0  0  0
 23 26  1  0  0  0  0
 25 19  1  0  0  0  0
 27 23  1  0  0  0  0
M  END
>  <minimizedAffinity>
-5.35357809

$$$$

 OpenBabel03242520113D

 27 29  0  0  0  0  0  0  0  0999 V2000
   38.0070   30.3990   40.3780 C   0  0  0  0  0  0  0  0  0  0  0  0
   36.8230   31.0320   40.5890 C   0  0  0  0  0  0  0  0  0  0  0  0
   35.6880   30.3090   40.8860 C   0  0  0  0  0  0  0  0  0  0  0  0
   35.7760   28.9200   40.9640 C   0  0  0  0  0  0  0  0  0  0  0  0
   37.0050   28.2930   40.7420 C   0  0  0  0  0  0  0  0  0  0  0  0
   38.0400   29.0520   40.4640 N   0  0  0  0  0  0  0  0  0  0  0  0
   36.8020   32.1110   40.5180 H   0  0  0  0  0  0  0  0  0  0  0  0
   34.7650   30.8460   41.0480 H   0  0  0  0  0  0  0  0  0  0  0  0
   34.8990   28.3590   41.1940 H   0  0  0  0  0  0  0  0  0  0  0  0
   37.1280   26.8610   40.8150 N   0  0  0  0  0  0  0  0  0  0  0  0
   37.4380   26.2610   42.0940 C   0  0  0  0  0  2  0  0  0  0  0  0
   36.8100   24.9100   42.2720 C   0  0  0  0  0  2  0  0  0  0  0  0
   36.6800   24.1330   40.9930 C   0  0  0  0  0  3  0  0  0  0  0  0
   36.9980   23.0660   41.0920 H   0  0  0  0  0  0  0  0  0  0  0  0
   37.4860   24.7240   39.8650 C   0  0  0  0  0  2  0  0  0  0  0  0
   36.9320   26.1020   39.5870 C   0  0  0  0  0  2  0  0  0  0  0  0
   40.5660   32.2810   38.5570 C   0  0  0  0  0  0  0  0  0  0  0  0
   41.5820   32.4030   39.5230 C   0  0  0  0  0  0  0  0  0  0  0  0
   41.3830   31.8410   40.7850 C   0  0  0  0  0  0  0  0  0  0  0  0
   40.2010   31.2040   41.0000 N   0  0  0  0  0  0  0  0  0  0  0  0
   39.2470   31.1010   40.0600 C   0  0  0  0  0  0  0  0  0  0  0  0
   39.4260   31.6380   38.8410 N   0  0  0  0  0  0  0  0  0  0  0  0
   40.7660   32.8550   37.2640 N   0  0  0  0  0  0  0  0  0  0  0  0
   42.5100   32.9140   39.3250 H   0  0  0  0  0  0  0  0  0  0  0  0
   42.1360   31.9100   41.5580 H   0  0  0  0  0  0  0  0  0  0  0  0
   40.1790   33.5640   36.7400 H   0  0  0  0  0  0  0  0  0  0  0  0
   41.6510   32.4520   36.8480 H   0  0  0  0  0  0  0  0  0  0  0  0
  1  6  2  0  0  0  0
  1  2  1  0  0  0  0
  2  3  2  0  0  0  0
  3  4  1  0  0  0  0
  3  8  1  0  0  0  0
  4  9  1  0  0  0  0
  5 10  1  0  0  0  0
  5  4  2  0  0  0  0
  6  5  1  0  0  0  0
  7  2  1  0  0  0  0
 10 11  1  0  0  0  0
 11 12  1  0  0  0  0
 13 14  1  0  0  0  0
 13 12  1  0  0  0  0
 15 13  1  0  0  0  0
 16 15  1  0  0  0  0
 16 10  1  0  0  0  0
 17 22  2  0  0  0  0
 17 18  1  0  0  0  0
 18 19  2  0  0  0  0
 19 20  1  0  0  0  0
 19 25  1  0  0  0  0
 21  1  1  0  0  0  0
 21 20  2  0  0  0  0
 22 21  1  0  0  0  0
 23 17  1  0  0  0  0
 24 18  1  0  0  0  0
 26 23  1  0  0  0  0
 27 23  1  0  0  0  0
M  END
>  <minimizedAffinity>
-5.33638048

$$$$
