REMARK  Name = 
REMARK  4 active torsions:
REMARK  status: ('A' for Active; 'I' for Inactive)
REMARK    1  A    between atoms: C_2  and  N_11
REMARK    2  A    between atoms: C_3  and  C_7
REMARK    3  A    between atoms: C_9  and  C_10
REMARK    4  A    between atoms: C_10  and  N_22
REMARK                            x       y       z     vdW  Elec       q    Type
REMARK                         _______ _______ _______ _____ _____    ______ ____
ROOT
ATOM      1  C   UNL     1      46.562  35.060  41.922  0.00  0.00    +0.000 C 
ATOM      2  C   UNL     1      48.102  35.292  41.926  0.00  0.00    +0.000 C 
ATOM      3  C   UNL     1      47.369  34.084  41.313  0.00  0.00    +0.000 C 
ATOM      4  H   UNL     1      46.019  35.840  41.365  0.00  0.00    +0.000 HD
ATOM      5  H   UNL     1      48.474  36.051  41.192  0.00  0.00    +0.000 HD
ATOM      6  H   UNL     1      48.656  35.190  42.850  0.00  0.00    +0.000 HD
ATOM      7  H   UNL     1      47.720  33.135  41.819  0.00  0.00    +0.000 HD
ENDROOT
BRANCH   1  10
ATOM      8  C   UNL     1      44.676  35.386  45.152  0.00  0.00    +0.000 A 
ATOM      9  C   UNL     1      45.131  35.692  43.842  0.00  0.00    +0.000 A 
ATOM     10  C   UNL     1      46.066  34.856  43.334  0.00  0.00    +0.000 A 
ATOM     11  N   UNL     1      46.548  33.775  44.048  0.00  0.00    +0.000 NA
ATOM     12  C   UNL     1      46.095  33.511  45.291  0.00  0.00    +0.000 A 
ATOM     13  N   UNL     1      45.149  34.326  45.848  0.00  0.00    +0.000 NA
ATOM     14  H   UNL     1      43.930  36.043  45.569  0.00  0.00    +0.000 HD
ATOM     15  H   UNL     1      46.499  32.660  45.809  0.00  0.00    +0.000 HD
BRANCH   9  16
ATOM     16  N   UNL     1      44.662  36.816  43.119  0.00  0.00    +0.000 N 
ATOM     17  H   UNL     1      43.678  37.164  43.005  0.00  0.00    +0.000 HD
ATOM     18  H   UNL     1      45.357  37.410  42.615  0.00  0.00    +0.000 HD
ENDBRANCH   9  16
ENDBRANCH   1  10
BRANCH   3  19
ATOM     19  C   UNL     1      47.399  33.908  39.812  0.00  0.00    +0.000 C 
ATOM     20  H   UNL     1      47.666  34.887  39.357  0.00  0.00    +0.000 HD
ATOM     21  H   UNL     1      48.152  33.175  39.481  0.00  0.00    +0.000 HD
BRANCH  19  22
ATOM     22  N   UNL     1      46.067  33.580  39.339  0.00  0.00    +0.000 NA
ATOM     23  C   UNL     1      45.675  32.276  39.786  0.00  0.00    +0.000 C 
ATOM     24  C   UNL     1      44.525  31.720  39.012  0.00  0.00    +0.000 C 
ATOM     25  C   UNL     1      43.877  32.828  38.183  0.00  0.00    +0.000 C 
ATOM     26  H   UNL     1      42.956  32.447  37.698  0.00  0.00    +0.000 HD
ATOM     27  C   UNL     1      44.925  33.221  37.171  0.00  0.00    +0.000 C 
ATOM     28  C   UNL     1      46.175  33.598  37.892  0.00  0.00    +0.000 C 
ENDBRANCH  19  22
ENDBRANCH   3  19
TORSDOF 4
