
 OpenBabel03252508243D

 46 49  0  0  0  0  0  0  0  0999 V2000
   36.4360   30.3780   38.9860 C   0  0  0  0  0  0  0  0  0  0  0  0
   35.7800   29.4450   38.2100 C   0  0  0  0  0  0  0  0  0  0  0  0
   35.9930   29.2680   36.8630 C   0  0  0  0  0  0  0  0  0  0  0  0
   36.9490   30.1130   36.2820 C   0  0  0  0  0  0  0  0  0  0  0  0
   37.6310   31.0600   37.0140 C   0  0  0  0  0  0  0  0  0  0  0  0
   37.3820   31.1960   38.3510 C   0  0  0  0  0  0  0  0  0  0  0  0
   35.0410   28.7520   38.5800 H   0  0  0  0  0  0  0  0  0  0  0  0
   35.5000   28.5560   36.2330 H   0  0  0  0  0  0  0  0  0  0  0  0
   37.1610   30.0190   35.2110 H   0  0  0  0  0  0  0  0  0  0  0  0
   38.3520   31.6690   36.4830 H   0  0  0  0  0  0  0  0  0  0  0  0
   38.1310   32.1870   39.0070 N   0  0  0  0  0  0  0  0  0  0  0  0
   37.6360   33.5040   39.3030 C   0  0  0  0  0  0  0  0  0  0  0  0
   38.4470   34.1610   40.3950 C   0  0  0  0  0  0  0  0  0  0  0  0
   38.8670   33.2820   41.4300 N   0  0  0  0  0  0  0  0  0  0  0  0
   39.5570   32.1250   40.9860 C   0  0  0  0  0  0  0  0  0  0  0  0
   39.5140   32.0360   39.4810 C   0  0  0  0  0  0  0  0  0  0  0  0
   37.8900   34.1000   38.3740 H   0  0  0  0  0  0  0  0  0  0  0  0
   36.5530   33.6130   39.3930 H   0  0  0  0  0  0  0  0  0  0  0  0
   39.2990   34.7730   40.0020 H   0  0  0  0  0  0  0  0  0  0  0  0
   37.7580   34.9290   40.8380 H   0  0  0  0  0  0  0  0  0  0  0  0
   39.3320   33.8350   42.1530 H   0  0  0  0  0  0  0  0  0  0  0  0
   40.5820   32.0860   41.3460 H   0  0  0  0  0  0  0  0  0  0  0  0
   39.0050   31.2400   41.3890 H   0  0  0  0  0  0  0  0  0  0  0  0
   39.9050   31.0280   39.1900 H   0  0  0  0  0  0  0  0  0  0  0  0
   40.1870   32.7920   39.0450 H   0  0  0  0  0  0  0  0  0  0  0  0
   36.2000   30.5690   40.4190 C   0  0  0  0  0  0  0  0  0  0  0  0
   35.6040   31.4460   40.6740 H   0  0  0  0  0  0  0  0  0  0  0  0
   37.2050   30.7440   40.9040 H   0  0  0  0  0  0  0  0  0  0  0  0
   35.5950   29.3290   41.0530 C   0  0  0  0  0  0  0  0  0  0  0  0
   34.8570   29.5080   41.8170 H   0  0  0  0  0  0  0  0  0  0  0  0
   35.0840   28.6950   40.2710 H   0  0  0  0  0  0  0  0  0  0  0  0
   38.5730   28.2730   43.1180 C   0  0  0  0  0  0  0  0  0  0  0  0
   37.5570   29.0870   42.5640 C   0  0  0  0  0  0  0  0  0  0  0  0
   36.6760   28.5080   41.6470 C   0  0  0  0  0  0  0  0  0  0  0  0
   36.8520   27.1880   41.3400 N   0  0  0  0  0  0  0  0  0  0  0  0
   37.8190   26.4430   41.8760 C   0  0  0  0  0  0  0  0  0  0  0  0
   38.6760   26.9820   42.7610 N   0  0  0  0  0  0  0  0  0  0  0  0
   39.2160   28.7920   43.8200 H   0  0  0  0  0  0  0  0  0  0  0  0
   37.4710   30.1250   42.8490 H   0  0  0  0  0  0  0  0  0  0  0  0
   38.0000   25.0660   41.5540 N   0  0  0  0  0  0  0  0  0  0  0  0
   39.2090   24.5500   40.9700 C   0  0  0  0  0  2  0  0  0  0  0  0
   38.8240   23.2530   40.2590 C   0  0  0  0  0  2  0  0  0  0  0  0
   37.5210   23.4560   39.4920 C   0  0  0  0  0  3  0  0  0  0  0  0
   37.3070   22.5230   38.9630 H   0  0  0  0  0  0  0  0  0  0  0  0
   36.3750   23.7600   40.4190 C   0  0  0  0  0  2  0  0  0  0  0  0
   36.9490   24.0830   41.8000 C   0  0  0  0  0  2  0  0  0  0  0  0
  1 26  1  0  0  0  0
  2  7  1  0  0  0  0
  2  1  2  0  0  0  0
  3  2  1  0  0  0  0
  4  3  2  0  0  0  0
  4  5  1  0  0  0  0
  5  6  2  0  0  0  0
  6  1  1  0  0  0  0
  6 11  1  0  0  0  0
  8  3  1  0  0  0  0
  9  4  1  0  0  0  0
 10  5  1  0  0  0  0
 11 12  1  0  0  0  0
 11 16  1  0  0  0  0
 12 18  1  0  0  0  0
 12 13  1  0  0  0  0
 13 20  1  0  0  0  0
 13 14  1  0  0  0  0
 14 21  1  0  0  0  0
 15 22  1  0  0  0  0
 15 23  1  0  0  0  0
 15 14  1  0  0  0  0
 16 15  1  0  0  0  0
 17 12  1  0  0  0  0
 19 13  1  0  0  0  0
 24 16  1  0  0  0  0
 25 16  1  0  0  0  0
 26 27  1  0  0  0  0
 26 28  1  0  0  0  0
 26 29  1  0  0  0  0
 29 34  1  0  0  0  0
 29 30  1  0  0  0  0
 31 29  1  0  0  0  0
 32 38  1  0  0  0  0
 33 39  1  0  0  0  0
 33 32  2  0  0  0  0
 34 33  1  0  0  0  0
 35 34  2  0  0  0  0
 35 36  1  0  0  0  0
 36 37  2  0  0  0  0
 37 32  1  0  0  0  0
 40 46  1  0  0  0  0
 40 36  1  0  0  0  0
 41 40  1  0  0  0  0
 42 41  1  0  0  0  0
 43 42  1  0  0  0  0
 43 45  1  0  0  0  0
 44 43  1  0  0  0  0
 45 46  1  0  0  0  0
M  END
>  <minimizedAffinity>
-6.38535547

$$$$

 OpenBabel03252508243D

 46 49  0  0  0  0  0  0  0  0999 V2000
   36.3680   27.8490   41.3360 C   0  0  0  0  0  0  0  0  0  0  0  0
   35.6000   28.9530   41.0240 C   0  0  0  0  0  0  0  0  0  0  0  0
   35.1630   29.2600   39.7560 C   0  0  0  0  0  0  0  0  0  0  0  0
   35.5460   28.3650   38.7470 C   0  0  0  0  0  0  0  0  0  0  0  0
   36.3110   27.2500   39.0080 C   0  0  0  0  0  0  0  0  0  0  0  0
   36.7200   26.9890   40.2860 C   0  0  0  0  0  0  0  0  0  0  0  0
   35.2550   29.6810   41.7400 H   0  0  0  0  0  0  0  0  0  0  0  0
   34.5690   30.1070   39.4800 H   0  0  0  0  0  0  0  0  0  0  0  0
   35.2270   28.5580   37.7160 H   0  0  0  0  0  0  0  0  0  0  0  0
   36.5590   26.6140   38.1670 H   0  0  0  0  0  0  0  0  0  0  0  0
   37.4930   25.8270   40.4470 N   0  0  0  0  0  0  0  0  0  0  0  0
   38.9300   25.8100   40.4320 C   0  0  0  0  0  0  0  0  0  0  0  0
   39.4690   24.5590   41.0860 C   0  0  0  0  0  0  0  0  0  0  0  0
   38.7390   24.1270   42.2270 N   0  0  0  0  0  0  0  0  0  0  0  0
   37.3460   23.9640   42.0160 C   0  0  0  0  0  0  0  0  0  0  0  0
   36.9610   24.4710   40.6490 C   0  0  0  0  0  0  0  0  0  0  0  0
   39.1850   25.6790   39.3360 H   0  0  0  0  0  0  0  0  0  0  0  0
   39.4360   26.7380   40.7070 H   0  0  0  0  0  0  0  0  0  0  0  0
   39.6380   23.7220   40.3620 H   0  0  0  0  0  0  0  0  0  0  0  0
   40.5090   24.8350   41.4120 H   0  0  0  0  0  0  0  0  0  0  0  0
   39.2290   23.3300   42.6400 H   0  0  0  0  0  0  0  0  0  0  0  0
   37.0200   22.9360   42.1510 H   0  0  0  0  0  0  0  0  0  0  0  0
   36.8230   24.6040   42.7690 H   0  0  0  0  0  0  0  0  0  0  0  0
   35.8430   24.4930   40.5980 H   0  0  0  0  0  0  0  0  0  0  0  0
   37.3160   23.7680   39.8780 H   0  0  0  0  0  0  0  0  0  0  0  0
   36.8390   27.5300   42.6860 C   0  0  0  0  0  0  0  0  0  0  0  0
   37.5500   26.7050   42.7410 H   0  0  0  0  0  0  0  0  0  0  0  0
   35.9430   27.1890   43.2810 H   0  0  0  0  0  0  0  0  0  0  0  0
   37.4100   28.7540   43.3790 C   0  0  0  0  0  0  0  0  0  0  0  0
   36.7490   29.6010   43.4510 H   0  0  0  0  0  0  0  0  0  0  0  0
   37.7100   28.5050   44.4390 H   0  0  0  0  0  0  0  0  0  0  0  0
   40.9630   28.8960   42.1120 C   0  0  0  0  0  0  0  0  0  0  0  0
   39.8130   28.4560   42.8110 C   0  0  0  0  0  0  0  0  0  0  0  0
   38.6350   29.1910   42.6670 C   0  0  0  0  0  0  0  0  0  0  0  0
   38.6640   30.2930   41.8610 N   0  0  0  0  0  0  0  0  0  0  0  0
   39.7610   30.6870   41.2140 C   0  0  0  0  0  0  0  0  0  0  0  0
   40.9060   29.9920   41.3380 N   0  0  0  0  0  0  0  0  0  0  0  0
   41.8370   28.2760   42.2730 H   0  0  0  0  0  0  0  0  0  0  0  0
   39.8560   27.5750   43.4330 H   0  0  0  0  0  0  0  0  0  0  0  0
   39.7890   31.8380   40.3730 N   0  0  0  0  0  0  0  0  0  0  0  0
   40.6560   32.9610   40.6090 C   0  0  0  0  0  2  0  0  0  0  0  0
   40.0100   34.1580   39.9130 C   0  0  0  0  0  2  0  0  0  0  0  0
   38.5090   34.1610   40.1860 C   0  0  0  0  0  3  0  0  0  0  0  0
   38.0950   35.0550   39.7110 H   0  0  0  0  0  0  0  0  0  0  0  0
   37.8380   32.9480   39.6030 C   0  0  0  0  0  2  0  0  0  0  0  0
   38.9230   31.9450   39.2030 C   0  0  0  0  0  2  0  0  0  0  0  0
  1 26  1  0  0  0  0
  2  1  1  0  0  0  0
  2  7  1  0  0  0  0
  3  2  2  0  0  0  0
  4  5  2  0  0  0  0
  4  3  1  0  0  0  0
  5  6  1  0  0  0  0
  6 11  1  0  0  0  0
  6  1  2  0  0  0  0
  8  3  1  0  0  0  0
  9  4  1  0  0  0  0
 10  5  1  0  0  0  0
 11 16  1  0  0  0  0
 12 11  1  0  0  0  0
 12 18  1  0  0  0  0
 12 13  1  0  0  0  0
 13 20  1  0  0  0  0
 13 14  1  0  0  0  0
 14 21  1  0  0  0  0
 15 22  1  0  0  0  0
 15 14  1  0  0  0  0
 15 23  1  0  0  0  0
 16 15  1  0  0  0  0
 17 12  1  0  0  0  0
 19 13  1  0  0  0  0
 24 16  1  0  0  0  0
 25 16  1  0  0  0  0
 26 27  1  0  0  0  0
 26 28  1  0  0  0  0
 26 29  1  0  0  0  0
 29 30  1  0  0  0  0
 29 31  1  0  0  0  0
 32 38  1  0  0  0  0
 32 33  1  0  0  0  0
 33 39  1  0  0  0  0
 34 33  2  0  0  0  0
 34 29  1  0  0  0  0
 35 34  1  0  0  0  0
 36 37  1  0  0  0  0
 36 35  2  0  0  0  0
 37 32  2  0  0  0  0
 40 41  1  0  0  0  0
 40 36  1  0  0  0  0
 42 43  1  0  0  0  0
 42 41  1  0  0  0  0
 44 43  1  0  0  0  0
 45 43  1  0  0  0  0
 46 45  1  0  0  0  0
 46 40  1  0  0  0  0
M  END
>  <minimizedAffinity>
-6.34466887

$$$$

 OpenBabel03252508243D

 46 49  0  0  0  0  0  0  0  0999 V2000
   36.8480   28.9200   41.0080 C   0  0  0  0  0  0  0  0  0  0  0  0
   36.4730   27.9610   41.9260 C   0  0  0  0  0  0  0  0  0  0  0  0
   36.9970   27.8530   43.1930 C   0  0  0  0  0  0  0  0  0  0  0  0
   37.9730   28.8010   43.5310 C   0  0  0  0  0  0  0  0  0  0  0  0
   38.3810   29.7780   42.6500 C   0  0  0  0  0  0  0  0  0  0  0  0
   37.8290   29.8420   41.4010 C   0  0  0  0  0  0  0  0  0  0  0  0
   35.7250   27.2040   41.7510 H   0  0  0  0  0  0  0  0  0  0  0  0
   36.7300   27.1210   43.9280 H   0  0  0  0  0  0  0  0  0  0  0  0
   38.4270   28.7650   44.5270 H   0  0  0  0  0  0  0  0  0  0  0  0
   39.1400   30.4680   42.9960 H   0  0  0  0  0  0  0  0  0  0  0  0
   38.3100   30.8760   40.5800 N   0  0  0  0  0  0  0  0  0  0  0  0
   39.3610   30.7100   39.6130 C   0  0  0  0  0  0  0  0  0  0  0  0
   39.3350   31.8150   38.5830 C   0  0  0  0  0  0  0  0  0  0  0  0
   38.0330   32.2300   38.1930 N   0  0  0  0  0  0  0  0  0  0  0  0
   37.1760   32.5890   39.2640 C   0  0  0  0  0  0  0  0  0  0  0  0
   37.8260   32.2640   40.5850 C   0  0  0  0  0  0  0  0  0  0  0  0
   40.3050   30.9080   40.2060 H   0  0  0  0  0  0  0  0  0  0  0  0
   39.5090   29.7030   39.2160 H   0  0  0  0  0  0  0  0  0  0  0  0
   39.9820   32.6870   38.8580 H   0  0  0  0  0  0  0  0  0  0  0  0
   39.8530   31.3800   37.6860 H   0  0  0  0  0  0  0  0  0  0  0  0
   38.1250   32.9160   37.4400 H   0  0  0  0  0  0  0  0  0  0  0  0
   36.8770   33.6330   39.2280 H   0  0  0  0  0  0  0  0  0  0  0  0
   36.2590   31.9540   39.1780 H   0  0  0  0  0  0  0  0  0  0  0  0
   37.0530   32.3910   41.3850 H   0  0  0  0  0  0  0  0  0  0  0  0
   38.6350   32.9840   40.7890 H   0  0  0  0  0  0  0  0  0  0  0  0
   36.2930   29.0270   39.6560 C   0  0  0  0  0  0  0  0  0  0  0  0
   36.5970   28.2340   38.9710 H   0  0  0  0  0  0  0  0  0  0  0  0
   36.6960   29.9790   39.2030 H   0  0  0  0  0  0  0  0  0  0  0  0
   34.7800   29.1370   39.6840 C   0  0  0  0  0  0  0  0  0  0  0  0
   34.2840   28.5650   40.4510 H   0  0  0  0  0  0  0  0  0  0  0  0
   34.4640   30.2090   39.8450 H   0  0  0  0  0  0  0  0  0  0  0  0
   34.2330   27.2130   36.4830 C   0  0  0  0  0  0  0  0  0  0  0  0
   34.7810   27.5980   37.7290 C   0  0  0  0  0  0  0  0  0  0  0  0
   34.2350   28.7100   38.3730 C   0  0  0  0  0  0  0  0  0  0  0  0
   33.2020   29.3610   37.7580 N   0  0  0  0  0  0  0  0  0  0  0  0
   32.7050   28.9780   36.5820 C   0  0  0  0  0  0  0  0  0  0  0  0
   33.2160   27.9090   35.9470 N   0  0  0  0  0  0  0  0  0  0  0  0
   34.7090   26.3430   36.0450 H   0  0  0  0  0  0  0  0  0  0  0  0
   35.5980   27.0410   38.1630 H   0  0  0  0  0  0  0  0  0  0  0  0
   31.6270   29.6580   35.9420 N   0  0  0  0  0  0  0  0  0  0  0  0
   31.7430   30.2620   34.6420 C   0  0  0  0  0  2  0  0  0  0  0  0
   30.6620   31.3380   34.5680 C   0  0  0  0  0  2  0  0  0  0  0  0
   30.6280   32.1210   35.8770 C   0  0  0  0  0  3  0  0  0  0  0  0
   29.8760   32.9080   35.7650 H   0  0  0  0  0  0  0  0  0  0  0  0
   30.2440   31.2450   37.0370 C   0  0  0  0  0  2  0  0  0  0  0  0
   30.3220   29.7850   36.5820 C   0  0  0  0  0  2  0  0  0  0  0  0
  1  6  2  0  0  0  0
  1  2  1  0  0  0  0
  2  3  2  0  0  0  0
  3  4  1  0  0  0  0
  3  8  1  0  0  0  0
  4  9  1  0  0  0  0
  5 10  1  0  0  0  0
  5  4  2  0  0  0  0
  6  5  1  0  0  0  0
  7  2  1  0  0  0  0
 11 16  1  0  0  0  0
 11  6  1  0  0  0  0
 12 17  1  0  0  0  0
 12 11  1  0  0  0  0
 13 19  1  0  0  0  0
 13 12  1  0  0  0  0
 14 13  1  0  0  0  0
 14 15  1  0  0  0  0
 15 16  1  0  0  0  0
 16 25  1  0  0  0  0
 16 24  1  0  0  0  0
 18 12  1  0  0  0  0
 20 13  1  0  0  0  0
 21 14  1  0  0  0  0
 22 15  1  0  0  0  0
 23 15  1  0  0  0  0
 26 29  1  0  0  0  0
 26  1  1  0  0  0  0
 27 26  1  0  0  0  0
 28 26  1  0  0  0  0
 29 31  1  0  0  0  0
 29 30  1  0  0  0  0
 32 33  1  0  0  0  0
 33 39  1  0  0  0  0
 33 34  2  0  0  0  0
 34 29  1  0  0  0  0
 35 34  1  0  0  0  0
 36 35  2  0  0  0  0
 37 32  2  0  0  0  0
 37 36  1  0  0  0  0
 38 32  1  0  0  0  0
 40 46  1  0  0  0  0
 40 36  1  0  0  0  0
 41 40  1  0  0  0  0
 42 41  1  0  0  0  0
 42 43  1  0  0  0  0
 43 45  1  0  0  0  0
 44 43  1  0  0  0  0
 46 45  1  0  0  0  0
M  END
>  <minimizedAffinity>
-6.32426643

$$$$

 OpenBabel03252508243D

 46 49  0  0  0  0  0  0  0  0999 V2000
   38.4410   26.6250   42.6180 C   0  0  0  0  0  0  0  0  0  0  0  0
   37.1440   26.1690   42.5010 C   0  0  0  0  0  0  0  0  0  0  0  0
   36.8040   24.8780   42.1720 C   0  0  0  0  0  0  0  0  0  0  0  0
   37.8760   24.0020   41.9510 C   0  0  0  0  0  0  0  0  0  0  0  0
   39.1880   24.4100   42.0560 C   0  0  0  0  0  0  0  0  0  0  0  0
   39.4740   25.7050   42.3850 C   0  0  0  0  0  0  0  0  0  0  0  0
   36.2660   26.7720   42.6650 H   0  0  0  0  0  0  0  0  0  0  0  0
   35.8090   24.4920   42.0720 H   0  0  0  0  0  0  0  0  0  0  0  0
   37.6660   22.9600   41.6860 H   0  0  0  0  0  0  0  0  0  0  0  0
   39.9520   23.6660   41.8680 H   0  0  0  0  0  0  0  0  0  0  0  0
   40.8410   26.0190   42.4700 N   0  0  0  0  0  0  0  0  0  0  0  0
   41.6140   25.9180   43.6780 C   0  0  0  0  0  0  0  0  0  0  0  0
   43.0930   25.8530   43.3750 C   0  0  0  0  0  0  0  0  0  0  0  0
   43.4280   25.0960   42.2200 N   0  0  0  0  0  0  0  0  0  0  0  0
   42.7410   25.4740   41.0390 C   0  0  0  0  0  0  0  0  0  0  0  0
   41.6770   26.4940   41.3580 C   0  0  0  0  0  0  0  0  0  0  0  0
   41.4780   26.9290   44.1680 H   0  0  0  0  0  0  0  0  0  0  0  0
   41.2590   25.2130   44.4320 H   0  0  0  0  0  0  0  0  0  0  0  0
   43.5850   26.8590   43.3670 H   0  0  0  0  0  0  0  0  0  0  0  0
   43.5450   25.3510   44.2740 H   0  0  0  0  0  0  0  0  0  0  0  0
   44.4470   25.0450   42.1520 H   0  0  0  0  0  0  0  0  0  0  0  0
   43.4100   25.8440   40.2670 H   0  0  0  0  0  0  0  0  0  0  0  0
   42.2230   24.5610   40.6540 H   0  0  0  0  0  0  0  0  0  0  0  0
   41.0470   26.6250   40.4420 H   0  0  0  0  0  0  0  0  0  0  0  0
   42.1470   27.4660   41.5800 H   0  0  0  0  0  0  0  0  0  0  0  0
   38.8010   28.0040   42.9600 C   0  0  0  0  0  0  0  0  0  0  0  0
   39.4950   28.4830   42.2680 H   0  0  0  0  0  0  0  0  0  0  0  0
   39.3430   27.9730   43.9490 H   0  0  0  0  0  0  0  0  0  0  0  0
   37.5680   28.8710   43.1400 C   0  0  0  0  0  0  0  0  0  0  0  0
   36.6690   28.3510   43.4270 H   0  0  0  0  0  0  0  0  0  0  0  0
   37.7440   29.6480   43.9410 H   0  0  0  0  0  0  0  0  0  0  0  0
   35.8370   30.1160   40.0250 C   0  0  0  0  0  0  0  0  0  0  0  0
   36.0720   29.4030   41.2250 C   0  0  0  0  0  0  0  0  0  0  0  0
   37.2920   29.5960   41.8770 C   0  0  0  0  0  0  0  0  0  0  0  0
   38.1860   30.4630   41.3150 N   0  0  0  0  0  0  0  0  0  0  0  0
   37.9400   31.1220   40.1820 C   0  0  0  0  0  0  0  0  0  0  0  0
   36.7710   30.9510   39.5400 N   0  0  0  0  0  0  0  0  0  0  0  0
   34.8710   29.9140   39.5780 H   0  0  0  0  0  0  0  0  0  0  0  0
   35.3230   28.7320   41.6180 H   0  0  0  0  0  0  0  0  0  0  0  0
   38.8750   32.0260   39.5980 N   0  0  0  0  0  0  0  0  0  0  0  0
   39.4200   31.8460   38.2790 C   0  0  0  0  0  2  0  0  0  0  0  0
   40.7410   32.6130   38.2510 C   0  0  0  0  0  2  0  0  0  0  0  0
   41.5130   32.3530   39.5410 C   0  0  0  0  0  3  0  0  0  0  0  0
   42.4680   32.8800   39.4590 H   0  0  0  0  0  0  0  0  0  0  0  0
   40.7740   32.8720   40.7430 C   0  0  0  0  0  2  0  0  0  0  0  0
   39.3420   33.2070   40.3170 C   0  0  0  0  0  2  0  0  0  0  0  0
  1 26  1  0  0  0  0
  2  1  1  0  0  0  0
  2  7  1  0  0  0  0
  3  2  2  0  0  0  0
  4  5  2  0  0  0  0
  4  3  1  0  0  0  0
  5  6  1  0  0  0  0
  6 11  1  0  0  0  0
  6  1  2  0  0  0  0
  8  3  1  0  0  0  0
  9  4  1  0  0  0  0
 10  5  1  0  0  0  0
 11 12  1  0  0  0  0
 12 17  1  0  0  0  0
 12 18  1  0  0  0  0
 13 12  1  0  0  0  0
 13 20  1  0  0  0  0
 14 13  1  0  0  0  0
 15 16  1  0  0  0  0
 15 14  1  0  0  0  0
 16 25  1  0  0  0  0
 16 11  1  0  0  0  0
 19 13  1  0  0  0  0
 21 14  1  0  0  0  0
 22 15  1  0  0  0  0
 23 15  1  0  0  0  0
 24 16  1  0  0  0  0
 26 29  1  0  0  0  0
 26 28  1  0  0  0  0
 27 26  1  0  0  0  0
 29 30  1  0  0  0  0
 29 31  1  0  0  0  0
 32 33  1  0  0  0  0
 33 39  1  0  0  0  0
 33 34  2  0  0  0  0
 34 29  1  0  0  0  0
 35 34  1  0  0  0  0
 36 35  2  0  0  0  0
 37 32  2  0  0  0  0
 37 36  1  0  0  0  0
 38 32  1  0  0  0  0
 40 36  1  0  0  0  0
 40 46  1  0  0  0  0
 41 40  1  0  0  0  0
 42 41  1  0  0  0  0
 42 43  1  0  0  0  0
 43 45  1  0  0  0  0
 44 43  1  0  0  0  0
 46 45  1  0  0  0  0
M  END
>  <minimizedAffinity>
-6.13782167

$$$$

 OpenBabel03252508243D

 46 49  0  0  0  0  0  0  0  0999 V2000
   36.8520   27.0330   41.7730 C   0  0  0  0  0  0  0  0  0  0  0  0
   37.1300   25.8080   42.3440 C   0  0  0  0  0  0  0  0  0  0  0  0
   37.1530   24.6180   41.6550 C   0  0  0  0  0  0  0  0  0  0  0  0
   36.8700   24.7040   40.2840 C   0  0  0  0  0  0  0  0  0  0  0  0
   36.5870   25.9020   39.6670 C   0  0  0  0  0  0  0  0  0  0  0  0
   36.5770   27.0580   40.3980 C   0  0  0  0  0  0  0  0  0  0  0  0
   37.3670   25.6570   43.3850 H   0  0  0  0  0  0  0  0  0  0  0  0
   37.3630   23.6530   42.0670 H   0  0  0  0  0  0  0  0  0  0  0  0
   36.8740   23.7880   39.6820 H   0  0  0  0  0  0  0  0  0  0  0  0
   36.3810   25.8740   38.6050 H   0  0  0  0  0  0  0  0  0  0  0  0
   36.2800   28.2260   39.6770 N   0  0  0  0  0  0  0  0  0  0  0  0
   37.2290   28.9220   38.8510 C   0  0  0  0  0  0  0  0  0  0  0  0
   36.5330   29.8220   37.8570 C   0  0  0  0  0  0  0  0  0  0  0  0
   35.3350   29.2860   37.3120 N   0  0  0  0  0  0  0  0  0  0  0  0
   34.3860   28.8500   38.2710 C   0  0  0  0  0  0  0  0  0  0  0  0
   34.9780   28.9090   39.6570 C   0  0  0  0  0  0  0  0  0  0  0  0
   37.7320   29.6400   39.5670 H   0  0  0  0  0  0  0  0  0  0  0  0
   38.0570   28.3330   38.4490 H   0  0  0  0  0  0  0  0  0  0  0  0
   36.3830   30.8650   38.2390 H   0  0  0  0  0  0  0  0  0  0  0  0
   37.2750   29.9550   37.0240 H   0  0  0  0  0  0  0  0  0  0  0  0
   34.9900   29.9310   36.5970 H   0  0  0  0  0  0  0  0  0  0  0  0
   33.4570   29.4130   38.2250 H   0  0  0  0  0  0  0  0  0  0  0  0
   34.1630   27.7780   38.0480 H   0  0  0  0  0  0  0  0  0  0  0  0
   34.2700   28.3900   40.3510 H   0  0  0  0  0  0  0  0  0  0  0  0
   35.0560   29.9580   39.9840 H   0  0  0  0  0  0  0  0  0  0  0  0
   36.8200   28.2980   42.5130 C   0  0  0  0  0  0  0  0  0  0  0  0
   35.9130   28.4660   43.0950 H   0  0  0  0  0  0  0  0  0  0  0  0
   36.8430   29.1310   41.7520 H   0  0  0  0  0  0  0  0  0  0  0  0
   38.0420   28.4530   43.4000 C   0  0  0  0  0  0  0  0  0  0  0  0
   37.9250   29.1110   44.2450 H   0  0  0  0  0  0  0  0  0  0  0  0
   38.3510   27.4540   43.8260 H   0  0  0  0  0  0  0  0  0  0  0  0
   41.4120   28.7050   41.7190 C   0  0  0  0  0  0  0  0  0  0  0  0
   40.3510   28.2030   42.5100 C   0  0  0  0  0  0  0  0  0  0  0  0
   39.1760   28.9530   42.5870 C   0  0  0  0  0  0  0  0  0  0  0  0
   39.1220   30.1290   41.8930 N   0  0  0  0  0  0  0  0  0  0  0  0
   40.1370   30.5800   41.1560 C   0  0  0  0  0  0  0  0  0  0  0  0
   41.2770   29.8730   41.0680 N   0  0  0  0  0  0  0  0  0  0  0  0
   42.2900   28.0700   41.7090 H   0  0  0  0  0  0  0  0  0  0  0  0
   40.4570   27.2660   43.0340 H   0  0  0  0  0  0  0  0  0  0  0  0
   40.0780   31.8080   40.4320 N   0  0  0  0  0  0  0  0  0  0  0  0
   40.9850   32.9000   40.6660 C   0  0  0  0  0  2  0  0  0  0  0  0
   40.2770   34.1610   40.1750 C   0  0  0  0  0  2  0  0  0  0  0  0
   38.8220   34.1430   40.6320 C   0  0  0  0  0  3  0  0  0  0  0  0
   38.3660   35.0800   40.3010 H   0  0  0  0  0  0  0  0  0  0  0  0
   38.0650   32.9940   40.0230 C   0  0  0  0  0  2  0  0  0  0  0  0
   39.0760   32.0320   39.3960 C   0  0  0  0  0  2  0  0  0  0  0  0
  1  2  1  0  0  0  0
  1 26  1  0  0  0  0
  2  7  1  0  0  0  0
  3  8  1  0  0  0  0
  3  2  2  0  0  0  0
  4  3  1  0  0  0  0
  5  4  2  0  0  0  0
  5  6  1  0  0  0  0
  6  1  2  0  0  0  0
  9  4  1  0  0  0  0
 10  5  1  0  0  0  0
 11  6  1  0  0  0  0
 12 17  1  0  0  0  0
 12 11  1  0  0  0  0
 13 19  1  0  0  0  0
 13 12  1  0  0  0  0
 14 13  1  0  0  0  0
 14 15  1  0  0  0  0
 15 16  1  0  0  0  0
 16 11  1  0  0  0  0
 16 25  1  0  0  0  0
 16 24  1  0  0  0  0
 18 12  1  0  0  0  0
 20 13  1  0  0  0  0
 21 14  1  0  0  0  0
 22 15  1  0  0  0  0
 23 15  1  0  0  0  0
 26 27  1  0  0  0  0
 26 29  1  0  0  0  0
 28 26  1  0  0  0  0
 29 31  1  0  0  0  0
 29 30  1  0  0  0  0
 32 33  1  0  0  0  0
 33 34  2  0  0  0  0
 33 39  1  0  0  0  0
 34 29  1  0  0  0  0
 35 34  1  0  0  0  0
 36 35  2  0  0  0  0
 37 36  1  0  0  0  0
 37 32  2  0  0  0  0
 38 32  1  0  0  0  0
 40 41  1  0  0  0  0
 40 36  1  0  0  0  0
 42 43  1  0  0  0  0
 42 41  1  0  0  0  0
 44 43  1  0  0  0  0
 45 43  1  0  0  0  0
 46 45  1  0  0  0  0
 46 40  1  0  0  0  0
M  END
>  <minimizedAffinity>
-6.05679417

$$$$

 OpenBabel03252508243D

 46 49  0  0  0  0  0  0  0  0999 V2000
   36.6940   29.5110   40.9450 C   0  0  0  0  0  0  0  0  0  0  0  0
   35.5470   28.8000   40.6600 C   0  0  0  0  0  0  0  0  0  0  0  0
   34.8840   28.8480   39.4560 C   0  0  0  0  0  0  0  0  0  0  0  0
   35.4470   29.6870   38.4840 C   0  0  0  0  0  0  0  0  0  0  0  0
   36.5920   30.4160   38.7200 C   0  0  0  0  0  0  0  0  0  0  0  0
   37.2130   30.3330   39.9340 C   0  0  0  0  0  0  0  0  0  0  0  0
   35.0570   28.1270   41.3460 H   0  0  0  0  0  0  0  0  0  0  0  0
   33.9920   28.3120   39.2040 H   0  0  0  0  0  0  0  0  0  0  0  0
   34.9630   29.7650   37.5040 H   0  0  0  0  0  0  0  0  0  0  0  0
   36.9560   31.0370   37.9110 H   0  0  0  0  0  0  0  0  0  0  0  0
   38.3730   31.1130   40.0730 N   0  0  0  0  0  0  0  0  0  0  0  0
   39.6650   30.7260   39.5740 C   0  0  0  0  0  0  0  0  0  0  0  0
   40.5810   31.9200   39.4420 C   0  0  0  0  0  0  0  0  0  0  0  0
   39.9420   33.1080   38.9920 N   0  0  0  0  0  0  0  0  0  0  0  0
   38.8010   33.4920   39.7410 C   0  0  0  0  0  0  0  0  0  0  0  0
   38.4470   32.4210   40.7410 C   0  0  0  0  0  0  0  0  0  0  0  0
   40.1130   30.1290   40.4260 H   0  0  0  0  0  0  0  0  0  0  0  0
   39.6790   30.0290   38.7330 H   0  0  0  0  0  0  0  0  0  0  0  0
   41.1970   32.1050   40.3590 H   0  0  0  0  0  0  0  0  0  0  0  0
   41.3410   31.6120   38.6740 H   0  0  0  0  0  0  0  0  0  0  0  0
   40.6570   33.8270   38.8570 H   0  0  0  0  0  0  0  0  0  0  0  0
   38.9290   34.4520   40.2340 H   0  0  0  0  0  0  0  0  0  0  0  0
   37.9490   33.5730   39.0220 H   0  0  0  0  0  0  0  0  0  0  0  0
   37.4490   32.6790   41.1760 H   0  0  0  0  0  0  0  0  0  0  0  0
   39.1790   32.4240   41.5650 H   0  0  0  0  0  0  0  0  0  0  0  0
   37.3930   29.4640   42.2320 C   0  0  0  0  0  0  0  0  0  0  0  0
   37.3100   30.3710   42.8330 H   0  0  0  0  0  0  0  0  0  0  0  0
   38.4950   29.3560   42.0110 H   0  0  0  0  0  0  0  0  0  0  0  0
   36.9700   28.2580   43.0510 C   0  0  0  0  0  0  0  0  0  0  0  0
   36.8670   28.4250   44.1100 H   0  0  0  0  0  0  0  0  0  0  0  0
   35.9670   27.8740   42.7000 H   0  0  0  0  0  0  0  0  0  0  0  0
   39.9920   26.0360   43.4710 C   0  0  0  0  0  0  0  0  0  0  0  0
   39.0770   27.0960   43.6800 C   0  0  0  0  0  0  0  0  0  0  0  0
   37.9520   27.1650   42.8550 C   0  0  0  0  0  0  0  0  0  0  0  0
   37.8040   26.2050   41.8950 N   0  0  0  0  0  0  0  0  0  0  0  0
   38.6810   25.2170   41.7190 C   0  0  0  0  0  0  0  0  0  0  0  0
   39.7700   25.1310   42.5030 N   0  0  0  0  0  0  0  0  0  0  0  0
   40.8380   26.0480   44.1480 H   0  0  0  0  0  0  0  0  0  0  0  0
   39.2520   27.8240   44.4570 H   0  0  0  0  0  0  0  0  0  0  0  0
   38.5240   24.2150   40.7160 N   0  0  0  0  0  0  0  0  0  0  0  0
   39.4830   23.9990   39.6670 C   0  0  0  0  0  2  0  0  0  0  0  0
   38.7290   23.3170   38.5270 C   0  0  0  0  0  2  0  0  0  0  0  0
   37.3790   23.9970   38.3260 C   0  0  0  0  0  3  0  0  0  0  0  0
   36.8940   23.5110   37.4750 H   0  0  0  0  0  0  0  0  0  0  0  0
   36.4980   23.8470   39.5370 C   0  0  0  0  0  2  0  0  0  0  0  0
   37.3580   23.3370   40.6950 C   0  0  0  0  0  2  0  0  0  0  0  0
  1 26  1  0  0  0  0
  2  1  1  0  0  0  0
  2  7  1  0  0  0  0
  3  2  2  0  0  0  0
  4  5  2  0  0  0  0
  4  3  1  0  0  0  0
  5  6  1  0  0  0  0
  6 11  1  0  0  0  0
  6  1  2  0  0  0  0
  8  3  1  0  0  0  0
  9  4  1  0  0  0  0
 10  5  1  0  0  0  0
 11 16  1  0  0  0  0
 12 11  1  0  0  0  0
 12 17  1  0  0  0  0
 13 12  1  0  0  0  0
 13 19  1  0  0  0  0
 14 13  1  0  0  0  0
 14 15  1  0  0  0  0
 15 22  1  0  0  0  0
 15 16  1  0  0  0  0
 16 24  1  0  0  0  0
 16 25  1  0  0  0  0
 18 12  1  0  0  0  0
 20 13  1  0  0  0  0
 21 14  1  0  0  0  0
 23 15  1  0  0  0  0
 26 27  1  0  0  0  0
 26 29  1  0  0  0  0
 28 26  1  0  0  0  0
 29 30  1  0  0  0  0
 31 29  1  0  0  0  0
 32 33  1  0  0  0  0
 32 38  1  0  0  0  0
 33 39  1  0  0  0  0
 34 29  1  0  0  0  0
 34 33  2  0  0  0  0
 35 34  1  0  0  0  0
 36 35  2  0  0  0  0
 36 37  1  0  0  0  0
 37 32  2  0  0  0  0
 40 36  1  0  0  0  0
 41 40  1  0  0  0  0
 42 41  1  0  0  0  0
 43 42  1  0  0  0  0
 43 45  1  0  0  0  0
 44 43  1  0  0  0  0
 45 46  1  0  0  0  0
 46 40  1  0  0  0  0
M  END
>  <minimizedAffinity>
-5.97937822

$$$$

 OpenBabel03252508243D

 46 49  0  0  0  0  0  0  0  0999 V2000
   37.1660   26.3350   39.9680 C   0  0  0  0  0  0  0  0  0  0  0  0
   36.4690   25.4970   39.1220 C   0  0  0  0  0  0  0  0  0  0  0  0
   35.9720   24.2670   39.4860 C   0  0  0  0  0  0  0  0  0  0  0  0
   36.2110   23.8830   40.8130 C   0  0  0  0  0  0  0  0  0  0  0  0
   36.9000   24.6840   41.6950 C   0  0  0  0  0  0  0  0  0  0  0  0
   37.3750   25.8980   41.2830 C   0  0  0  0  0  0  0  0  0  0  0  0
   36.2350   25.7210   38.0940 H   0  0  0  0  0  0  0  0  0  0  0  0
   35.4290   23.5930   38.8550 H   0  0  0  0  0  0  0  0  0  0  0  0
   35.8370   22.9130   41.1600 H   0  0  0  0  0  0  0  0  0  0  0  0
   37.0370   24.3070   42.7000 H   0  0  0  0  0  0  0  0  0  0  0  0
   38.0610   26.6400   42.2590 N   0  0  0  0  0  0  0  0  0  0  0  0
   39.4940   26.7050   42.3580 C   0  0  0  0  0  0  0  0  0  0  0  0
   39.9330   27.9100   43.1570 C   0  0  0  0  0  0  0  0  0  0  0  0
   39.1550   29.0790   42.9400 N   0  0  0  0  0  0  0  0  0  0  0  0
   37.7580   28.9070   43.1100 C   0  0  0  0  0  0  0  0  0  0  0  0
   37.4330   27.4480   43.3140 C   0  0  0  0  0  0  0  0  0  0  0  0
   39.7570   25.8250   43.0200 H   0  0  0  0  0  0  0  0  0  0  0  0
   40.0590   26.5200   41.4410 H   0  0  0  0  0  0  0  0  0  0  0  0
   40.0550   27.6920   44.2490 H   0  0  0  0  0  0  0  0  0  0  0  0
   40.9840   28.1120   42.8140 H   0  0  0  0  0  0  0  0  0  0  0  0
   39.5810   29.8510   43.4590 H   0  0  0  0  0  0  0  0  0  0  0  0
   37.3590   29.5080   43.9230 H   0  0  0  0  0  0  0  0  0  0  0  0
   37.2690   29.2280   42.1580 H   0  0  0  0  0  0  0  0  0  0  0  0
   36.3200   27.3390   43.2610 H   0  0  0  0  0  0  0  0  0  0  0  0
   37.7500   27.1340   44.3210 H   0  0  0  0  0  0  0  0  0  0  0  0
   37.7030   27.6410   39.5740 C   0  0  0  0  0  0  0  0  0  0  0  0
   38.1770   27.6650   38.5920 H   0  0  0  0  0  0  0  0  0  0  0  0
   38.5220   27.9010   40.3050 H   0  0  0  0  0  0  0  0  0  0  0  0
   36.6450   28.7260   39.6650 C   0  0  0  0  0  0  0  0  0  0  0  0
   35.8920   28.7110   38.8950 H   0  0  0  0  0  0  0  0  0  0  0  0
   36.0870   28.6540   40.6440 H   0  0  0  0  0  0  0  0  0  0  0  0
   37.2700   32.4290   40.0470 C   0  0  0  0  0  0  0  0  0  0  0  0
   36.6100   31.1770   40.0860 C   0  0  0  0  0  0  0  0  0  0  0  0
   37.3040   30.0530   39.6320 C   0  0  0  0  0  0  0  0  0  0  0  0
   38.5800   30.2320   39.1760 N   0  0  0  0  0  0  0  0  0  0  0  0
   39.1780   31.4220   39.1500 C   0  0  0  0  0  0  0  0  0  0  0  0
   38.5280   32.5160   39.5840 N   0  0  0  0  0  0  0  0  0  0  0  0
   36.6690   33.2530   40.4150 H   0  0  0  0  0  0  0  0  0  0  0  0
   35.6000   31.1040   40.4580 H   0  0  0  0  0  0  0  0  0  0  0  0
   40.5100   31.6050   38.6740 N   0  0  0  0  0  0  0  0  0  0  0  0
   40.8350   32.4590   37.5630 C   0  0  0  0  0  2  0  0  0  0  0  0
   42.1660   31.9560   37.0080 C   0  0  0  0  0  2  0  0  0  0  0  0
   42.1520   30.4320   36.9420 C   0  0  0  0  0  3  0  0  0  0  0  0
   43.1000   30.1170   36.4980 H   0  0  0  0  0  0  0  0  0  0  0  0
   42.0300   29.8200   38.3110 C   0  0  0  0  0  2  0  0  0  0  0  0
   41.6400   30.9240   39.2970 C   0  0  0  0  0  2  0  0  0  0  0  0
  1  6  1  0  0  0  0
  2  3  1  0  0  0  0
  2  1  2  0  0  0  0
  3  4  2  0  0  0  0
  4  9  1  0  0  0  0
  4  5  1  0  0  0  0
  5 10  1  0  0  0  0
  6  5  2  0  0  0  0
  6 11  1  0  0  0  0
  7  2  1  0  0  0  0
  8  3  1  0  0  0  0
 11 12  1  0  0  0  0
 11 16  1  0  0  0  0
 12 17  1  0  0  0  0
 12 13  1  0  0  0  0
 13 19  1  0  0  0  0
 14 15  1  0  0  0  0
 14 13  1  0  0  0  0
 14 21  1  0  0  0  0
 15 16  1  0  0  0  0
 15 22  1  0  0  0  0
 16 25  1  0  0  0  0
 18 12  1  0  0  0  0
 20 13  1  0  0  0  0
 23 15  1  0  0  0  0
 24 16  1  0  0  0  0
 26 29  1  0  0  0  0
 26  1  1  0  0  0  0
 26 28  1  0  0  0  0
 27 26  1  0  0  0  0
 29 31  1  0  0  0  0
 30 29  1  0  0  0  0
 32 33  1  0  0  0  0
 32 38  1  0  0  0  0
 33 39  1  0  0  0  0
 34 29  1  0  0  0  0
 34 33  2  0  0  0  0
 35 34  1  0  0  0  0
 36 35  2  0  0  0  0
 36 37  1  0  0  0  0
 37 32  2  0  0  0  0
 40 36  1  0  0  0  0
 40 46  1  0  0  0  0
 41 40  1  0  0  0  0
 42 41  1  0  0  0  0
 43 42  1  0  0  0  0
 43 45  1  0  0  0  0
 44 43  1  0  0  0  0
 45 46  1  0  0  0  0
M  END
>  <minimizedAffinity>
-5.79070139

$$$$

 OpenBabel03252508243D

 46 49  0  0  0  0  0  0  0  0999 V2000
   36.7250   26.7320   39.7710 C   0  0  0  0  0  0  0  0  0  0  0  0
   36.3380   25.4250   39.5520 C   0  0  0  0  0  0  0  0  0  0  0  0
   36.6110   24.3830   40.4070 C   0  0  0  0  0  0  0  0  0  0  0  0
   37.3310   24.7150   41.5630 C   0  0  0  0  0  0  0  0  0  0  0  0
   37.7390   26.0040   41.8270 C   0  0  0  0  0  0  0  0  0  0  0  0
   37.4420   27.0050   40.9450 C   0  0  0  0  0  0  0  0  0  0  0  0
   35.7740   25.0890   38.6970 H   0  0  0  0  0  0  0  0  0  0  0  0
   36.3270   23.3590   40.2660 H   0  0  0  0  0  0  0  0  0  0  0  0
   37.5780   23.9250   42.2810 H   0  0  0  0  0  0  0  0  0  0  0  0
   38.2900   26.1690   42.7440 H   0  0  0  0  0  0  0  0  0  0  0  0
   37.9000   28.2830   41.3060 N   0  0  0  0  0  0  0  0  0  0  0  0
   39.1360   28.8540   40.8440 C   0  0  0  0  0  0  0  0  0  0  0  0
   39.1350   30.3570   40.9960 C   0  0  0  0  0  0  0  0  0  0  0  0
   37.8870   30.9780   40.7180 N   0  0  0  0  0  0  0  0  0  0  0  0
   36.7840   30.4500   41.4360 C   0  0  0  0  0  0  0  0  0  0  0  0
   37.2010   29.2180   42.2000 C   0  0  0  0  0  0  0  0  0  0  0  0
   39.8950   28.5020   41.6070 H   0  0  0  0  0  0  0  0  0  0  0  0
   39.5270   28.4790   39.8960 H   0  0  0  0  0  0  0  0  0  0  0  0
   39.5580   30.7010   41.9740 H   0  0  0  0  0  0  0  0  0  0  0  0
   39.8880   30.7190   40.2450 H   0  0  0  0  0  0  0  0  0  0  0  0
   38.0130   31.9920   40.7680 H   0  0  0  0  0  0  0  0  0  0  0  0
   36.3300   31.1800   42.1010 H   0  0  0  0  0  0  0  0  0  0  0  0
   36.0230   30.1330   40.6820 H   0  0  0  0  0  0  0  0  0  0  0  0
   36.2720   28.7360   42.5990 H   0  0  0  0  0  0  0  0  0  0  0  0
   37.8210   29.5080   43.0640 H   0  0  0  0  0  0  0  0  0  0  0  0
   36.4390   27.8390   38.8550 C   0  0  0  0  0  0  0  0  0  0  0  0
   36.5470   27.5980   37.7960 H   0  0  0  0  0  0  0  0  0  0  0  0
   37.2040   28.6440   39.0540 H   0  0  0  0  0  0  0  0  0  0  0  0
   35.0680   28.4350   39.1140 C   0  0  0  0  0  0  0  0  0  0  0  0
   34.4270   27.8660   39.7670 H   0  0  0  0  0  0  0  0  0  0  0  0
   35.1630   29.4560   39.5870 H   0  0  0  0  0  0  0  0  0  0  0  0
   34.2290   28.2970   35.4360 C   0  0  0  0  0  0  0  0  0  0  0  0
   34.9340   28.1170   36.6510 C   0  0  0  0  0  0  0  0  0  0  0  0
   34.3610   28.6130   37.8240 C   0  0  0  0  0  0  0  0  0  0  0  0
   33.1530   29.2440   37.7270 N   0  0  0  0  0  0  0  0  0  0  0  0
   32.5100   29.4020   36.5690 C   0  0  0  0  0  0  0  0  0  0  0  0
   33.0440   28.9300   35.4290 N   0  0  0  0  0  0  0  0  0  0  0  0
   34.7360   27.8860   34.5710 H   0  0  0  0  0  0  0  0  0  0  0  0
   35.8860   27.6080   36.6600 H   0  0  0  0  0  0  0  0  0  0  0  0
   31.2490   30.0610   36.4710 N   0  0  0  0  0  0  0  0  0  0  0  0
   31.0410   31.2400   35.6750 C   0  0  0  0  0  2  0  0  0  0  0  0
   29.8230   31.9490   36.2640 C   0  0  0  0  0  2  0  0  0  0  0  0
   29.9160   31.9480   37.7870 C   0  0  0  0  0  3  0  0  0  0  0  0
   29.0530   32.5030   38.1650 H   0  0  0  0  0  0  0  0  0  0  0  0
   29.8760   30.5510   38.3430 C   0  0  0  0  0  2  0  0  0  0  0  0
   30.0760   29.5690   37.1870 C   0  0  0  0  0  2  0  0  0  0  0  0
  1  6  1  0  0  0  0
  2  1  2  0  0  0  0
  2  3  1  0  0  0  0
  3  4  2  0  0  0  0
  4  5  1  0  0  0  0
  4  9  1  0  0  0  0
  5 10  1  0  0  0  0
  6 11  1  0  0  0  0
  6  5  2  0  0  0  0
  7  2  1  0  0  0  0
  8  3  1  0  0  0  0
 11 16  1  0  0  0  0
 12 13  1  0  0  0  0
 12 11  1  0  0  0  0
 12 17  1  0  0  0  0
 13 19  1  0  0  0  0
 14 21  1  0  0  0  0
 14 13  1  0  0  0  0
 14 15  1  0  0  0  0
 15 22  1  0  0  0  0
 15 16  1  0  0  0  0
 16 24  1  0  0  0  0
 16 25  1  0  0  0  0
 18 12  1  0  0  0  0
 20 13  1  0  0  0  0
 23 15  1  0  0  0  0
 26 28  1  0  0  0  0
 26 29  1  0  0  0  0
 26  1  1  0  0  0  0
 27 26  1  0  0  0  0
 29 31  1  0  0  0  0
 29 30  1  0  0  0  0
 32 33  1  0  0  0  0
 33 39  1  0  0  0  0
 33 34  2  0  0  0  0
 34 29  1  0  0  0  0
 35 34  1  0  0  0  0
 36 35  2  0  0  0  0
 37 32  2  0  0  0  0
 37 36  1  0  0  0  0
 38 32  1  0  0  0  0
 40 36  1  0  0  0  0
 40 46  1  0  0  0  0
 41 42  1  0  0  0  0
 41 40  1  0  0  0  0
 42 43  1  0  0  0  0
 43 44  1  0  0  0  0
 43 45  1  0  0  0  0
 46 45  1  0  0  0  0
M  END
>  <minimizedAffinity>
-5.78890276

$$$$

 OpenBabel03252508243D

 46 49  0  0  0  0  0  0  0  0999 V2000
   36.2790   30.0400   38.7350 C   0  0  0  0  0  0  0  0  0  0  0  0
   36.9890   31.1540   39.1310 C   0  0  0  0  0  0  0  0  0  0  0  0
   37.7200   31.9500   38.2810 C   0  0  0  0  0  0  0  0  0  0  0  0
   37.7140   31.5660   36.9320 C   0  0  0  0  0  0  0  0  0  0  0  0
   37.0210   30.4630   36.4870 C   0  0  0  0  0  0  0  0  0  0  0  0
   36.3090   29.7040   37.3740 C   0  0  0  0  0  0  0  0  0  0  0  0
   37.0360   31.5220   40.1440 H   0  0  0  0  0  0  0  0  0  0  0  0
   38.2830   32.8190   38.5550 H   0  0  0  0  0  0  0  0  0  0  0  0
   38.2800   32.1630   36.2080 H   0  0  0  0  0  0  0  0  0  0  0  0
   37.0720   30.2420   35.4290 H   0  0  0  0  0  0  0  0  0  0  0  0
   35.6350   28.6030   36.8200 N   0  0  0  0  0  0  0  0  0  0  0  0
   36.0790   27.2410   36.9480 C   0  0  0  0  0  0  0  0  0  0  0  0
   34.9520   26.2710   36.6840 C   0  0  0  0  0  0  0  0  0  0  0  0
   33.6870   26.6830   37.1840 N   0  0  0  0  0  0  0  0  0  0  0  0
   33.2770   27.9770   36.7740 C   0  0  0  0  0  0  0  0  0  0  0  0
   34.3940   28.6700   36.0350 C   0  0  0  0  0  0  0  0  0  0  0  0
   36.7750   27.1030   36.0660 H   0  0  0  0  0  0  0  0  0  0  0  0
   36.7060   27.0080   37.8130 H   0  0  0  0  0  0  0  0  0  0  0  0
   34.8890   25.9520   35.6120 H   0  0  0  0  0  0  0  0  0  0  0  0
   35.2560   25.3300   37.2180 H   0  0  0  0  0  0  0  0  0  0  0  0
   33.0170   25.9260   37.0280 H   0  0  0  0  0  0  0  0  0  0  0  0
   32.3710   27.9570   36.1730 H   0  0  0  0  0  0  0  0  0  0  0  0
   33.0740   28.5670   37.7020 H   0  0  0  0  0  0  0  0  0  0  0  0
   34.0940   29.7390   35.8930 H   0  0  0  0  0  0  0  0  0  0  0  0
   34.5120   28.2220   35.0350 H   0  0  0  0  0  0  0  0  0  0  0  0
   35.5070   29.1890   39.6450 C   0  0  0  0  0  0  0  0  0  0  0  0
   35.6700   28.1170   39.5220 H   0  0  0  0  0  0  0  0  0  0  0  0
   34.4150   29.3510   39.4110 H   0  0  0  0  0  0  0  0  0  0  0  0
   35.7280   29.5830   41.0940 C   0  0  0  0  0  0  0  0  0  0  0  0
   36.0340   30.6030   41.2600 H   0  0  0  0  0  0  0  0  0  0  0  0
   34.7800   29.4440   41.6920 H   0  0  0  0  0  0  0  0  0  0  0  0
   38.6090   28.3390   43.1920 C   0  0  0  0  0  0  0  0  0  0  0  0
   37.6440   29.2130   42.6370 C   0  0  0  0  0  0  0  0  0  0  0  0
   36.7560   28.6970   41.6900 C   0  0  0  0  0  0  0  0  0  0  0  0
   36.8750   27.3770   41.3560 N   0  0  0  0  0  0  0  0  0  0  0  0
   37.7940   26.5750   41.8930 C   0  0  0  0  0  0  0  0  0  0  0  0
   38.6570   27.0520   42.8080 N   0  0  0  0  0  0  0  0  0  0  0  0
   39.2610   28.8100   43.9190 H   0  0  0  0  0  0  0  0  0  0  0  0
   37.6020   30.2470   42.9450 H   0  0  0  0  0  0  0  0  0  0  0  0
   37.9150   25.1980   41.5430 N   0  0  0  0  0  0  0  0  0  0  0  0
   39.1100   24.6380   40.9710 C   0  0  0  0  0  2  0  0  0  0  0  0
   38.6790   23.3770   40.2230 C   0  0  0  0  0  2  0  0  0  0  0  0
   37.4030   23.6600   39.4360 C   0  0  0  0  0  3  0  0  0  0  0  0
   37.1560   22.7500   38.8810 H   0  0  0  0  0  0  0  0  0  0  0  0
   36.2550   23.9980   40.3470 C   0  0  0  0  0  2  0  0  0  0  0  0
   36.8150   24.2620   41.7470 C   0  0  0  0  0  2  0  0  0  0  0  0
  1  2  1  0  0  0  0
  1 26  1  0  0  0  0
  2  7  1  0  0  0  0
  3  8  1  0  0  0  0
  3  2  2  0  0  0  0
  4  3  1  0  0  0  0
  5  4  2  0  0  0  0
  5  6  1  0  0  0  0
  6  1  2  0  0  0  0
  9  4  1  0  0  0  0
 10  5  1  0  0  0  0
 11 12  1  0  0  0  0
 11  6  1  0  0  0  0
 12 18  1  0  0  0  0
 13 12  1  0  0  0  0
 13 14  1  0  0  0  0
 13 20  1  0  0  0  0
 15 14  1  0  0  0  0
 15 23  1  0  0  0  0
 16 15  1  0  0  0  0
 16 11  1  0  0  0  0
 17 12  1  0  0  0  0
 19 13  1  0  0  0  0
 21 14  1  0  0  0  0
 22 15  1  0  0  0  0
 24 16  1  0  0  0  0
 25 16  1  0  0  0  0
 26 29  1  0  0  0  0
 27 26  1  0  0  0  0
 28 26  1  0  0  0  0
 29 30  1  0  0  0  0
 29 34  1  0  0  0  0
 29 31  1  0  0  0  0
 32 38  1  0  0  0  0
 33 39  1  0  0  0  0
 33 32  2  0  0  0  0
 34 33  1  0  0  0  0
 35 34  2  0  0  0  0
 35 36  1  0  0  0  0
 36 37  2  0  0  0  0
 37 32  1  0  0  0  0
 40 46  1  0  0  0  0
 40 36  1  0  0  0  0
 41 40  1  0  0  0  0
 42 41  1  0  0  0  0
 43 42  1  0  0  0  0
 43 45  1  0  0  0  0
 44 43  1  0  0  0  0
 45 46  1  0  0  0  0
M  END
>  <minimizedAffinity>
-5.77967501

$$$$
