
 OpenBabel03252500503D

 33 35  0  0  0  0  0  0  0  0999 V2000
   44.9010   35.0060   44.5960 C   0  0  0  0  0  0  0  0  0  0  0  0
   44.9760   34.2930   43.4270 C   0  0  0  0  0  0  0  0  0  0  0  0
   45.4190   32.9460   43.4250 C   0  0  0  0  0  0  0  0  0  0  0  0
   45.7630   32.4100   44.6380 N   0  0  0  0  0  0  0  0  0  0  0  0
   45.6820   33.1180   45.7560 C   0  0  0  0  0  0  0  0  0  0  0  0
   45.2580   34.3920   45.7340 N   0  0  0  0  0  0  0  0  0  0  0  0
   44.5680   36.0380   44.6530 H   0  0  0  0  0  0  0  0  0  0  0  0
   45.4710   32.4060   42.4980 H   0  0  0  0  0  0  0  0  0  0  0  0
   46.0530   32.5230   47.0290 C   0  0  0  0  0  0  0  0  0  0  0  0
   47.3410   32.2350   47.3620 C   0  0  0  0  0  0  0  0  0  0  0  0
   47.7160   31.6770   48.5520 C   0  0  0  0  0  0  0  0  0  0  0  0
   46.7220   31.4050   49.4330 N   0  0  0  0  0  0  0  0  0  0  0  0
   45.4670   31.6850   49.1100 C   0  0  0  0  0  0  0  0  0  0  0  0
   45.0730   32.2350   47.9460 N   0  0  0  0  0  0  0  0  0  0  0  0
   48.1590   32.4410   46.6790 H   0  0  0  0  0  0  0  0  0  0  0  0
   48.7520   31.4580   48.7900 H   0  0  0  0  0  0  0  0  0  0  0  0
   44.6040   31.4960   49.7660 H   0  0  0  0  0  0  0  0  0  0  0  0
   44.5860   34.9200   42.1700 C   0  0  0  0  0  0  0  0  0  0  0  0
   45.3970   34.8860   41.2270 O   0  0  0  0  0  0  0  0  0  0  0  0
   43.4560   35.5760   41.7780 O   0  0  0  0  0  0  0  0  0  0  0  0
   42.8200   35.3250   40.5660 C   0  0  0  0  0  0  0  0  0  0  0  0
   42.8910   36.3350   40.0220 H   0  0  0  0  0  0  0  0  0  0  0  0
   43.3170   34.6560   39.8590 H   0  0  0  0  0  0  0  0  0  0  0  0
   41.3500   35.1080   40.6970 C   0  0  0  0  0  0  0  0  0  0  0  0
   41.1640   34.8090   41.7630 H   0  0  0  0  0  0  0  0  0  0  0  0
   40.7670   36.0380   40.5260 H   0  0  0  0  0  0  0  0  0  0  0  0
   40.9020   34.0810   39.8160 N   0  0  0  0  0  0  0  0  0  0  0  0
   39.7000   33.4790   40.3270 C   0  0  0  0  0  0  0  0  0  0  0  0
   38.4250   33.9870   39.7510 C   0  0  0  0  0  0  0  0  0  0  0  0
   38.5160   33.6070   38.2640 C   0  0  0  0  0  0  0  0  0  0  0  0
   38.7740   32.5340   38.1630 H   0  0  0  0  0  0  0  0  0  0  0  0
   39.5930   34.5190   37.7350 C   0  0  0  0  0  0  0  0  0  0  0  0
   40.9020   34.3620   38.4310 C   0  0  0  0  0  0  0  0  0  0  0  0
  1  7  1  0  0  0  0
  1  6  1  0  0  0  0
  2  1  2  0  0  0  0
  3  2  1  0  0  0  0
  3  4  2  0  0  0  0
  4  5  1  0  0  0  0
  5  9  1  0  0  0  0
  6  5  2  0  0  0  0
  8  3  1  0  0  0  0
  9 10  2  0  0  0  0
  9 14  1  0  0  0  0
 10 11  1  0  0  0  0
 11 16  1  0  0  0  0
 11 12  2  0  0  0  0
 13 12  1  0  0  0  0
 13 17  1  0  0  0  0
 14 13  2  0  0  0  0
 15 10  1  0  0  0  0
 18  2  1  0  0  0  0
 19 18  2  0  0  0  0
 20 18  1  0  0  0  0
 21 24  1  0  0  0  0
 21 20  1  0  0  0  0
 22 21  1  0  0  0  0
 23 21  1  0  0  0  0
 24 25  1  0  0  0  0
 26 24  1  0  0  0  0
 27 28  1  0  0  0  0
 27 24  1  0  0  0  0
 29 28  1  0  0  0  0
 30 29  1  0  0  0  0
 31 30  1  0  0  0  0
 32 30  1  0  0  0  0
 32 33  1  0  0  0  0
 33 27  1  0  0  0  0
M  END
>  <minimizedAffinity>
-5.90307093

>  <minimizedRMSD>
2.25963378

$$$$
