
 OpenBabel03252509253D

 28 30  0  0  1  0  0  0  0  0999 V2000
   46.5900   35.0850   41.9320 C   0  0  1  0  0  0  0  0  0  0  0  0
   48.1180   35.3840   41.9630 C   0  0  0  0  0  0  0  0  0  0  0  0
   47.4500   34.1430   41.3430 C   0  0  2  0  0  0  0  0  0  0  0  0
   46.0240   35.8380   41.3620 H   0  0  0  0  0  0  0  0  0  0  0  0
   48.4700   36.1560   41.2320 H   0  0  0  0  0  0  0  0  0  0  0  0
   48.6590   35.3100   42.8980 H   0  0  0  0  0  0  0  0  0  0  0  0
   47.8330   33.2120   41.8600 H   0  0  0  0  0  0  0  0  0  0  0  0
   44.6690   35.3780   45.1450 C   0  0  0  0  0  0  0  0  0  0  0  0
   45.1390   35.6980   43.8440 C   0  0  0  0  0  0  0  0  0  0  0  0
   46.0770   34.8650   43.3360 C   0  0  0  0  0  0  0  0  0  0  0  0
   46.5480   33.7740   44.0420 N   0  0  0  0  0  0  0  0  0  0  0  0
   46.0800   33.4970   45.2770 C   0  0  0  0  0  0  0  0  0  0  0  0
   45.1300   34.3080   45.8330 N   0  0  0  0  0  0  0  0  0  0  0  0
   43.9200   36.0320   45.5610 H   0  0  0  0  0  0  0  0  0  0  0  0
   46.4760   32.6380   45.7890 H   0  0  0  0  0  0  0  0  0  0  0  0
   44.6820   36.8320   43.1290 N   0  0  0  0  0  0  0  0  0  0  0  0
   43.7000   37.1850   43.0080 H   0  0  0  0  0  0  0  0  0  0  0  0
   45.3840   37.4300   42.6400 H   0  0  0  0  0  0  0  0  0  0  0  0
   47.5150   33.9620   39.8440 C   0  0  0  0  0  0  0  0  0  0  0  0
   46.8860   34.7500   39.3750 H   0  0  0  0  0  0  0  0  0  0  0  0
   48.5350   34.0740   39.4420 H   0  0  0  0  0  0  0  0  0  0  0  0
   46.9200   32.6880   39.4860 N   0  0  0  0  0  0  0  0  0  0  0  0
   47.6500   32.0660   38.4210 C   0  0  0  0  0  2  0  0  0  0  0  0
   46.8740   30.9870   37.7390 C   0  0  0  0  0  2  0  0  0  0  0  0
   45.6480   30.6250   38.5780 C   0  0  0  0  0  3  0  0  0  0  0  0
   45.1340   29.7490   38.1340 H   0  0  0  0  0  0  0  0  0  0  0  0
   44.7800   31.8600   38.5530 C   0  0  0  0  0  2  0  0  0  0  0  0
   45.5790   33.0200   39.0410 C   0  0  0  0  0  2  0  0  0  0  0  0
  1  4  1  6  0  0  0
  1  2  1  0  0  0  0
  1 10  1  0  0  0  0
  2  6  1  0  0  0  0
  3  7  1  1  0  0  0
  3  1  1  0  0  0  0
  3  2  1  0  0  0  0
  5  2  1  0  0  0  0
  8 14  1  0  0  0  0
  8 13  1  0  0  0  0
  9  8  2  0  0  0  0
 10  9  1  0  0  0  0
 10 11  2  0  0  0  0
 11 12  1  0  0  0  0
 12 15  1  0  0  0  0
 12 13  2  0  0  0  0
 16  9  1  0  0  0  0
 17 16  1  0  0  0  0
 18 16  1  0  0  0  0
 19  3  1  0  0  0  0
 20 19  1  0  0  0  0
 21 19  1  0  0  0  0
 22 19  1  0  0  0  0
 23 22  1  0  0  0  0
 24 23  1  0  0  0  0
 24 25  1  0  0  0  0
 26 25  1  0  0  0  0
 27 25  1  0  0  0  0
 27 28  1  0  0  0  0
 28 22  1  0  0  0  0
M  END
>  <minimizedAffinity>
-4.38050032

>  <minimizedRMSD>
1.47262609

$$$$
