
 OpenBabel03252508193D

 45 49  0  0  1  0  0  0  0  0999 V2000
   36.7900   29.9070   39.6350 C   0  0  0  0  0  0  0  0  0  0  0  0
   36.1250   30.2860   40.4680 H   0  0  0  0  0  0  0  0  0  0  0  0
   37.2090   28.9860   39.9850 H   0  0  0  0  0  0  0  0  0  0  0  0
   37.6930   31.0390   39.2950 C   0  0  1  0  0  0  0  0  0  0  0  0
   37.3490   32.3410   39.9350 C   0  0  0  0  0  0  0  0  0  0  0  0
   38.5690   31.6360   40.3180 C   0  0  1  0  0  0  0  0  0  0  0  0
   37.8330   31.1970   38.1870 H   0  0  0  0  0  0  0  0  0  0  0  0
   36.4910   32.3680   40.6500 H   0  0  0  0  0  0  0  0  0  0  0  0
   37.4430   33.3050   39.3960 H   0  0  0  0  0  0  0  0  0  0  0  0
   39.5240   32.0600   39.9450 H   0  0  0  0  0  0  0  0  0  0  0  0
   38.6940   30.9240   41.6270 C   0  0  2  0  0  0  0  0  0  0  0  0
   40.1130   30.9850   42.2490 C   0  0  0  0  0  0  0  0  0  0  0  0
   39.6440   29.7250   41.6850 C   0  0  1  0  0  0  0  0  0  0  0  0
   37.9400   30.9990   42.4180 H   0  0  0  0  0  0  0  0  0  0  0  0
   40.8960   31.5490   41.6600 H   0  0  0  0  0  0  0  0  0  0  0  0
   40.2360   31.1920   43.3090 H   0  0  0  0  0  0  0  0  0  0  0  0
   40.0590   29.4140   40.7020 H   0  0  0  0  0  0  0  0  0  0  0  0
   39.1320   28.6290   42.4400 N   0  0  0  0  0  0  0  0  0  0  0  0
   39.1720   27.3490   41.8450 C   0  0  0  0  0  2  0  0  0  0  0  0
   37.7960   26.8060   41.4910 C   0  0  0  0  0  2  0  0  0  0  0  0
   36.9310   26.6570   42.7210 C   0  0  0  0  0  3  0  0  0  0  0  0
   37.1130   25.6830   43.2500 H   0  0  0  0  0  0  0  0  0  0  0  0
   37.1940   27.7790   43.6800 C   0  0  0  0  0  2  0  0  0  0  0  0
   37.8560   28.9580   43.0120 C   0  0  0  0  0  2  0  0  0  0  0  0
   34.9840   28.7060   38.7170 C   0  0  0  0  0  3  0  0  0  0  0  0
   35.7990   29.6540   38.5200 C   0  0  0  0  0  3  0  0  0  0  0  0
   33.0430   26.8680   36.1760 C   0  0  0  0  0  0  0  0  0  0  0  0
   32.2350   27.8580   35.6270 C   0  0  0  0  0  0  0  0  0  0  0  0
   32.3790   29.1180   36.1420 C   0  0  0  0  0  0  0  0  0  0  0  0
   33.2790   29.3420   37.1350 N   0  0  0  0  0  0  0  0  0  0  0  0
   34.0480   28.3590   37.6440 C   0  0  0  0  0  0  0  0  0  0  0  0
   33.9080   27.1440   37.1480 N   0  0  0  0  0  0  0  0  0  0  0  0
   32.9530   25.8530   35.7900 H   0  0  0  0  0  0  0  0  0  0  0  0
   31.5260   27.6520   34.8380 H   0  0  0  0  0  0  0  0  0  0  0  0
   31.6010   30.2510   35.6660 C   0  0  0  0  0  0  0  0  0  0  0  0
   31.5930   30.6950   34.3750 C   0  0  0  0  0  0  0  0  0  0  0  0
   30.8490   31.7760   33.9390 C   0  0  0  0  0  0  0  0  0  0  0  0
   30.0600   32.4650   34.8330 C   0  0  0  0  0  0  0  0  0  0  0  0
   30.0310   32.0590   36.1470 C   0  0  0  0  0  0  0  0  0  0  0  0
   30.7950   30.9740   36.5200 C   0  0  0  0  0  0  0  0  0  0  0  0
   32.2060   30.1740   33.6330 H   0  0  0  0  0  0  0  0  0  0  0  0
   30.9130   32.0530   32.8790 H   0  0  0  0  0  0  0  0  0  0  0  0
   29.5090   33.3000   34.4080 H   0  0  0  0  0  0  0  0  0  0  0  0
   29.4060   32.6130   36.8280 H   0  0  0  0  0  0  0  0  0  0  0  0
   30.7070   30.7300   37.5750 H   0  0  0  0  0  0  0  0  0  0  0  0
  1  3  1  0  0  0  0
  1  2  1  0  0  0  0
  4  7  1  6  0  0  0
  4  1  1  0  0  0  0
  4  5  1  0  0  0  0
  4  6  1  0  0  0  0
  5  6  1  0  0  0  0
  5  8  1  0  0  0  0
  6 10  1  6  0  0  0
  6 11  1  0  0  0  0
  9  5  1  0  0  0  0
 11 13  1  0  0  0  0
 11 12  1  0  0  0  0
 11 14  1  1  0  0  0
 12 16  1  0  0  0  0
 13 17  1  6  0  0  0
 13 12  1  0  0  0  0
 13 18  1  0  0  0  0
 15 12  1  0  0  0  0
 18 24  1  0  0  0  0
 19 18  1  0  0  0  0
 20 19  1  0  0  0  0
 20 21  1  0  0  0  0
 21 22  1  0  0  0  0
 21 23  1  0  0  0  0
 24 23  1  0  0  0  0
 26 25  2  0  0  0  0
 26  1  1  0  0  0  0
 27 32  1  0  0  0  0
 28 29  1  0  0  0  0
 28 27  2  0  0  0  0
 29 30  2  0  0  0  0
 30 31  1  0  0  0  0
 31 25  1  0  0  0  0
 32 31  2  0  0  0  0
 33 27  1  0  0  0  0
 34 28  1  0  0  0  0
 35 29  1  0  0  0  0
 35 40  1  0  0  0  0
 36 35  2  0  0  0  0
 37 36  1  0  0  0  0
 37 38  2  0  0  0  0
 38 39  1  0  0  0  0
 39 40  2  0  0  0  0
 39 44  1  0  0  0  0
 40 45  1  0  0  0  0
 41 36  1  0  0  0  0
 42 37  1  0  0  0  0
 43 38  1  0  0  0  0
M  END
>  <minimizedAffinity>
-6.11816883

$$$$

 OpenBabel03252508193D

 45 49  0  0  1  0  0  0  0  0999 V2000
   37.1680   26.9890   39.0250 C   0  0  0  0  0  0  0  0  0  0  0  0
   37.9710   26.3710   38.5230 H   0  0  0  0  0  0  0  0  0  0  0  0
   37.5600   27.9830   39.0950 H   0  0  0  0  0  0  0  0  0  0  0  0
   36.8120   26.2540   40.2670 C   0  0  1  0  0  0  0  0  0  0  0  0
   37.9460   25.5610   40.9430 C   0  0  0  0  0  0  0  0  0  0  0  0
   37.3070   26.7090   41.5790 C   0  0  1  0  0  0  0  0  0  0  0  0
   35.9560   25.5290   40.1420 H   0  0  0  0  0  0  0  0  0  0  0  0
   38.9700   25.6790   40.5130 H   0  0  0  0  0  0  0  0  0  0  0  0
   37.8300   24.5640   41.4130 H   0  0  0  0  0  0  0  0  0  0  0  0
   36.6450   26.4920   42.4430 H   0  0  0  0  0  0  0  0  0  0  0  0
   37.9690   28.0480   41.6450 C   0  0  2  0  0  0  0  0  0  0  0  0
   38.2720   28.5350   43.0860 C   0  0  0  0  0  0  0  0  0  0  0  0
   37.2000   29.1770   42.3360 C   0  0  1  0  0  0  0  0  0  0  0  0
   38.7850   28.3400   40.9770 H   0  0  0  0  0  0  0  0  0  0  0  0
   37.9660   27.8410   43.9250 H   0  0  0  0  0  0  0  0  0  0  0  0
   39.2340   28.9850   43.3180 H   0  0  0  0  0  0  0  0  0  0  0  0
   36.1540   28.9240   42.6140 H   0  0  0  0  0  0  0  0  0  0  0  0
   37.3060   30.4320   41.6660 N   0  0  0  0  0  0  0  0  0  0  0  0
   36.2540   30.8010   40.7990 C   0  0  0  0  0  2  0  0  0  0  0  0
   36.6550   30.8060   39.3320 C   0  0  0  0  0  2  0  0  0  0  0  0
   37.7650   31.7960   39.0700 C   0  0  0  0  0  3  0  0  0  0  0  0
   37.3750   32.8350   38.9040 H   0  0  0  0  0  0  0  0  0  0  0  0
   38.7220   31.8210   40.2240 C   0  0  0  0  0  2  0  0  0  0  0  0
   38.6110   30.5880   41.0850 C   0  0  0  0  0  2  0  0  0  0  0  0
   35.1180   27.7830   38.1790 C   0  0  0  0  0  3  0  0  0  0  0  0
   36.0390   26.9290   38.0200 C   0  0  0  0  0  3  0  0  0  0  0  0
   32.5230   26.6440   35.8200 C   0  0  0  0  0  0  0  0  0  0  0  0
   31.7410   27.7810   35.6460 C   0  0  0  0  0  0  0  0  0  0  0  0
   32.1250   28.8970   36.3380 C   0  0  0  0  0  0  0  0  0  0  0  0
   33.2210   28.8490   37.1400 N   0  0  0  0  0  0  0  0  0  0  0  0
   33.9570   27.7300   37.2860 C   0  0  0  0  0  0  0  0  0  0  0  0
   33.5870   26.6530   36.6180 N   0  0  0  0  0  0  0  0  0  0  0  0
   32.2450   25.7370   35.2830 H   0  0  0  0  0  0  0  0  0  0  0  0
   30.8730   27.7910   35.0020 H   0  0  0  0  0  0  0  0  0  0  0  0
   31.4030   30.1560   36.2540 C   0  0  0  0  0  0  0  0  0  0  0  0
   30.6830   30.7040   37.2760 C   0  0  0  0  0  0  0  0  0  0  0  0
   29.9990   31.9020   37.1790 C   0  0  0  0  0  0  0  0  0  0  0  0
   30.0250   32.6080   35.9970 C   0  0  0  0  0  0  0  0  0  0  0  0
   30.7360   32.1000   34.9340 C   0  0  0  0  0  0  0  0  0  0  0  0
   31.3970   30.9010   35.0930 C   0  0  0  0  0  0  0  0  0  0  0  0
   30.6370   30.1750   38.2330 H   0  0  0  0  0  0  0  0  0  0  0  0
   29.4490   32.2560   38.0610 H   0  0  0  0  0  0  0  0  0  0  0  0
   29.4620   33.5370   36.0060 H   0  0  0  0  0  0  0  0  0  0  0  0
   30.7430   32.6700   34.0190 H   0  0  0  0  0  0  0  0  0  0  0  0
   31.9290   30.5820   34.2010 H   0  0  0  0  0  0  0  0  0  0  0  0
  1  3  1  0  0  0  0
  1  4  1  0  0  0  0
  2  1  1  0  0  0  0
  4  7  1  6  0  0  0
  4  5  1  0  0  0  0
  4  6  1  0  0  0  0
  5  9  1  0  0  0  0
  5  6  1  0  0  0  0
  6 11  1  0  0  0  0
  6 10  1  1  0  0  0
  8  5  1  0  0  0  0
 11 14  1  6  0  0  0
 11 13  1  0  0  0  0
 11 12  1  0  0  0  0
 12 16  1  0  0  0  0
 12 15  1  0  0  0  0
 13 17  1  1  0  0  0
 13 12  1  0  0  0  0
 18 13  1  0  0  0  0
 19 18  1  0  0  0  0
 20 19  1  0  0  0  0
 21 20  1  0  0  0  0
 21 23  1  0  0  0  0
 22 21  1  0  0  0  0
 23 24  1  0  0  0  0
 24 18  1  0  0  0  0
 26 25  2  0  0  0  0
 26  1  1  0  0  0  0
 27 32  1  0  0  0  0
 28 27  2  0  0  0  0
 28 29  1  0  0  0  0
 29 30  2  0  0  0  0
 30 31  1  0  0  0  0
 31 25  1  0  0  0  0
 32 31  2  0  0  0  0
 33 27  1  0  0  0  0
 34 28  1  0  0  0  0
 35 29  1  0  0  0  0
 35 36  1  0  0  0  0
 36 41  1  0  0  0  0
 37 36  2  0  0  0  0
 37 42  1  0  0  0  0
 38 43  1  0  0  0  0
 38 37  1  0  0  0  0
 39 40  1  0  0  0  0
 39 38  2  0  0  0  0
 40 35  2  0  0  0  0
 44 39  1  0  0  0  0
 45 40  1  0  0  0  0
M  END
>  <minimizedAffinity>
-5.97761059

$$$$

 OpenBabel03252508193D

 45 49  0  0  1  0  0  0  0  0999 V2000
   41.5630   29.6250   42.9300 C   0  0  0  0  0  0  0  0  0  0  0  0
   42.1380   30.5480   43.2410 H   0  0  0  0  0  0  0  0  0  0  0  0
   41.0590   29.2800   43.8090 H   0  0  0  0  0  0  0  0  0  0  0  0
   42.5550   28.7400   42.2610 C   0  0  1  0  0  0  0  0  0  0  0  0
   43.5260   28.0720   43.1720 C   0  0  0  0  0  0  0  0  0  0  0  0
   42.5210   27.2820   42.4680 C   0  0  1  0  0  0  0  0  0  0  0  0
   43.1170   29.2370   41.4190 H   0  0  0  0  0  0  0  0  0  0  0  0
   43.4170   28.2320   44.2720 H   0  0  0  0  0  0  0  0  0  0  0  0
   44.5920   27.9360   42.8990 H   0  0  0  0  0  0  0  0  0  0  0  0
   42.8810   26.6680   41.6160 H   0  0  0  0  0  0  0  0  0  0  0  0
   41.3330   26.7060   43.1690 C   0  0  2  0  0  0  0  0  0  0  0  0
   41.3140   25.1560   43.2170 C   0  0  0  0  0  0  0  0  0  0  0  0
   40.3780   25.8450   42.3370 C   0  0  1  0  0  0  0  0  0  0  0  0
   40.9450   27.1100   44.1090 H   0  0  0  0  0  0  0  0  0  0  0  0
   42.1850   24.6280   42.7260 H   0  0  0  0  0  0  0  0  0  0  0  0
   41.0500   24.6430   44.1390 H   0  0  0  0  0  0  0  0  0  0  0  0
   40.5930   25.8340   41.2470 H   0  0  0  0  0  0  0  0  0  0  0  0
   39.0010   26.0780   42.6270 N   0  0  0  0  0  0  0  0  0  0  0  0
   38.0920   26.0510   41.5470 C   0  0  0  0  0  2  0  0  0  0  0  0
   37.5050   27.4150   41.2180 C   0  0  0  0  0  2  0  0  0  0  0  0
   36.7310   27.9760   42.3880 C   0  0  0  0  0  3  0  0  0  0  0  0
   35.6750   27.5950   42.4180 H   0  0  0  0  0  0  0  0  0  0  0  0
   37.4070   27.6170   43.6770 C   0  0  0  0  0  2  0  0  0  0  0  0
   38.8490   27.2260   43.4780 C   0  0  0  0  0  2  0  0  0  0  0  0
   40.2330   31.3860   42.1080 C   0  0  0  0  0  3  0  0  0  0  0  0
   40.5740   30.1800   41.9290 C   0  0  0  0  0  3  0  0  0  0  0  0
   38.2040   33.7310   40.1110 C   0  0  0  0  0  0  0  0  0  0  0  0
   37.2600   32.8980   39.5200 C   0  0  0  0  0  0  0  0  0  0  0  0
   37.3470   31.5660   39.8220 C   0  0  0  0  0  0  0  0  0  0  0  0
   38.3200   31.1270   40.6630 N   0  0  0  0  0  0  0  0  0  0  0  0
   39.2200   31.9620   41.2190 C   0  0  0  0  0  0  0  0  0  0  0  0
   39.1360   33.2470   40.9270 N   0  0  0  0  0  0  0  0  0  0  0  0
   38.1640   34.7970   39.8910 H   0  0  0  0  0  0  0  0  0  0  0  0
   36.4960   33.2730   38.8540 H   0  0  0  0  0  0  0  0  0  0  0  0
   36.4280   30.5790   39.2770 C   0  0  0  0  0  0  0  0  0  0  0  0
   36.4900   30.0840   38.0070 C   0  0  0  0  0  0  0  0  0  0  0  0
   35.6060   29.1470   37.5030 C   0  0  0  0  0  0  0  0  0  0  0  0
   34.5940   28.6660   38.3030 C   0  0  0  0  0  0  0  0  0  0  0  0
   34.4850   29.1320   39.5920 C   0  0  0  0  0  0  0  0  0  0  0  0
   35.3970   30.0660   40.0370 C   0  0  0  0  0  0  0  0  0  0  0  0
   37.2800   30.4390   37.3390 H   0  0  0  0  0  0  0  0  0  0  0  0
   35.7440   28.8130   36.4660 H   0  0  0  0  0  0  0  0  0  0  0  0
   33.9450   27.9340   37.8300 H   0  0  0  0  0  0  0  0  0  0  0  0
   33.6850   28.7420   40.2000 H   0  0  0  0  0  0  0  0  0  0  0  0
   35.2300   30.3730   41.0650 H   0  0  0  0  0  0  0  0  0  0  0  0
  1  2  1  0  0  0  0
  1  3  1  0  0  0  0
  4  7  1  6  0  0  0
  4  6  1  0  0  0  0
  4  1  1  0  0  0  0
  4  5  1  0  0  0  0
  5  8  1  0  0  0  0
  6 10  1  6  0  0  0
  6 11  1  0  0  0  0
  6  5  1  0  0  0  0
  9  5  1  0  0  0  0
 11 12  1  0  0  0  0
 11 14  1  1  0  0  0
 12 16  1  0  0  0  0
 13 17  1  6  0  0  0
 13 18  1  0  0  0  0
 13 11  1  0  0  0  0
 13 12  1  0  0  0  0
 15 12  1  0  0  0  0
 18 24  1  0  0  0  0
 19 18  1  0  0  0  0
 20 19  1  0  0  0  0
 20 21  1  0  0  0  0
 21 22  1  0  0  0  0
 21 23  1  0  0  0  0
 24 23  1  0  0  0  0
 26 25  2  0  0  0  0
 26  1  1  0  0  0  0
 27 32  1  0  0  0  0
 28 29  1  0  0  0  0
 28 27  2  0  0  0  0
 29 30  2  0  0  0  0
 30 31  1  0  0  0  0
 31 25  1  0  0  0  0
 32 31  2  0  0  0  0
 33 27  1  0  0  0  0
 34 28  1  0  0  0  0
 35 29  1  0  0  0  0
 35 40  1  0  0  0  0
 36 35  2  0  0  0  0
 37 36  1  0  0  0  0
 37 38  2  0  0  0  0
 38 39  1  0  0  0  0
 39 40  2  0  0  0  0
 39 44  1  0  0  0  0
 40 45  1  0  0  0  0
 41 36  1  0  0  0  0
 42 37  1  0  0  0  0
 43 38  1  0  0  0  0
M  END
>  <minimizedAffinity>
-5.94132185

$$$$

 OpenBabel03252508193D

 45 49  0  0  1  0  0  0  0  0999 V2000
   37.2520   29.7220   39.0570 C   0  0  0  0  0  0  0  0  0  0  0  0
   36.9050   30.0060   38.0180 H   0  0  0  0  0  0  0  0  0  0  0  0
   37.5840   28.7060   38.9900 H   0  0  0  0  0  0  0  0  0  0  0  0
   36.1270   30.0670   39.9650 C   0  0  1  0  0  0  0  0  0  0  0  0
   34.9510   29.1530   39.8970 C   0  0  0  0  0  0  0  0  0  0  0  0
   35.7790   29.1910   41.0980 C   0  0  1  0  0  0  0  0  0  0  0  0
   35.7730   31.1340   39.8720 H   0  0  0  0  0  0  0  0  0  0  0  0
   35.0120   28.2630   39.2250 H   0  0  0  0  0  0  0  0  0  0  0  0
   33.9100   29.5280   39.9600 H   0  0  0  0  0  0  0  0  0  0  0  0
   35.3450   29.7010   41.9830 H   0  0  0  0  0  0  0  0  0  0  0  0
   36.7290   28.0890   41.4420 C   0  0  2  0  0  0  0  0  0  0  0  0
   36.5850   27.5550   42.8900 C   0  0  0  0  0  0  0  0  0  0  0  0
   37.7500   28.3630   42.5500 C   0  0  1  0  0  0  0  0  0  0  0  0
   36.9450   27.2590   40.7620 H   0  0  0  0  0  0  0  0  0  0  0  0
   35.7910   28.0460   43.5300 H   0  0  0  0  0  0  0  0  0  0  0  0
   36.5940   26.4850   43.0810 H   0  0  0  0  0  0  0  0  0  0  0  0
   37.7720   29.4130   42.9110 H   0  0  0  0  0  0  0  0  0  0  0  0
   39.0490   27.8470   42.2670 N   0  0  0  0  0  0  0  0  0  0  0  0
   39.2780   26.4760   42.5170 C   0  0  0  0  0  2  0  0  0  0  0  0
   40.2250   26.2250   43.6800 C   0  0  0  0  0  2  0  0  0  0  0  0
   41.5870   26.8240   43.4170 C   0  0  0  0  0  3  0  0  0  0  0  0
   42.2410   26.1380   42.8150 H   0  0  0  0  0  0  0  0  0  0  0  0
   41.4500   28.1240   42.6830 C   0  0  0  0  0  2  0  0  0  0  0  0
   40.0660   28.7070   42.8070 C   0  0  0  0  0  2  0  0  0  0  0  0
   38.9370   31.1400   38.2220 C   0  0  0  0  0  3  0  0  0  0  0  0
   38.4250   30.6530   39.2720 C   0  0  0  0  0  3  0  0  0  0  0  0
   41.2660   33.8330   39.1850 C   0  0  0  0  0  0  0  0  0  0  0  0
   42.4360   33.4840   38.5190 C   0  0  0  0  0  0  0  0  0  0  0  0
   42.3920   32.3430   37.7650 C   0  0  0  0  0  0  0  0  0  0  0  0
   41.2410   31.6230   37.6980 N   0  0  0  0  0  0  0  0  0  0  0  0
   40.1240   31.9900   38.3570 C   0  0  0  0  0  0  0  0  0  0  0  0
   40.1670   33.0900   39.0850 N   0  0  0  0  0  0  0  0  0  0  0  0
   41.2680   34.7350   39.7960 H   0  0  0  0  0  0  0  0  0  0  0  0
   43.3380   34.0750   38.5890 H   0  0  0  0  0  0  0  0  0  0  0  0
   43.5390   31.8570   37.0140 C   0  0  0  0  0  0  0  0  0  0  0  0
   44.7960   32.3810   37.0990 C   0  0  0  0  0  0  0  0  0  0  0  0
   45.8760   31.9080   36.3770 C   0  0  0  0  0  0  0  0  0  0  0  0
   45.7070   30.8490   35.5130 C   0  0  0  0  0  0  0  0  0  0  0  0
   44.4590   30.2840   35.3880 C   0  0  0  0  0  0  0  0  0  0  0  0
   43.4220   30.8000   36.1360 C   0  0  0  0  0  0  0  0  0  0  0  0
   44.9730   33.2230   37.7750 H   0  0  0  0  0  0  0  0  0  0  0  0
   46.8470   32.4000   36.5180 H   0  0  0  0  0  0  0  0  0  0  0  0
   46.6050   30.5410   34.9840 H   0  0  0  0  0  0  0  0  0  0  0  0
   44.3500   29.4560   34.7070 H   0  0  0  0  0  0  0  0  0  0  0  0
   42.4780   30.2890   35.9700 H   0  0  0  0  0  0  0  0  0  0  0  0
  1 26  1  0  0  0  0
  1  4  1  0  0  0  0
  2  1  1  0  0  0  0
  3  1  1  0  0  0  0
  4  7  1  1  0  0  0
  4  6  1  0  0  0  0
  5  9  1  0  0  0  0
  5  4  1  0  0  0  0
  5  6  1  0  0  0  0
  6 11  1  0  0  0  0
  6 10  1  1  0  0  0
  8  5  1  0  0  0  0
 11 14  1  6  0  0  0
 11 13  1  0  0  0  0
 11 12  1  0  0  0  0
 12 16  1  0  0  0  0
 12 15  1  0  0  0  0
 13 12  1  0  0  0  0
 13 17  1  1  0  0  0
 18 19  1  0  0  0  0
 18 13  1  0  0  0  0
 18 24  1  0  0  0  0
 19 20  1  0  0  0  0
 21 20  1  0  0  0  0
 22 21  1  0  0  0  0
 23 24  1  0  0  0  0
 23 21  1  0  0  0  0
 25 31  1  0  0  0  0
 25 26  2  0  0  0  0
 27 33  1  0  0  0  0
 28 34  1  0  0  0  0
 28 27  2  0  0  0  0
 29 28  1  0  0  0  0
 30 29  2  0  0  0  0
 30 31  1  0  0  0  0
 31 32  2  0  0  0  0
 32 27  1  0  0  0  0
 35 36  1  0  0  0  0
 35 29  1  0  0  0  0
 36 41  1  0  0  0  0
 37 42  1  0  0  0  0
 37 36  2  0  0  0  0
 38 37  1  0  0  0  0
 39 38  2  0  0  0  0
 39 40  1  0  0  0  0
 40 35  2  0  0  0  0
 43 38  1  0  0  0  0
 44 39  1  0  0  0  0
 45 40  1  0  0  0  0
M  END
>  <minimizedAffinity>
-5.65639782

$$$$

 OpenBabel03252508193D

 45 49  0  0  1  0  0  0  0  0999 V2000
   36.2150   30.8480   40.2260 C   0  0  0  0  0  0  0  0  0  0  0  0
   35.3250   31.3480   39.7380 H   0  0  0  0  0  0  0  0  0  0  0  0
   36.0430   30.9040   41.2820 H   0  0  0  0  0  0  0  0  0  0  0  0
   37.4150   31.5060   39.6440 C   0  0  1  0  0  0  0  0  0  0  0  0
   37.7560   32.8350   40.2250 C   0  0  0  0  0  0  0  0  0  0  0  0
   38.6350   31.6920   40.4490 C   0  0  1  0  0  0  0  0  0  0  0  0
   37.3920   31.5880   38.5190 H   0  0  0  0  0  0  0  0  0  0  0  0
   37.1360   33.2170   41.0730 H   0  0  0  0  0  0  0  0  0  0  0  0
   38.1270   33.6730   39.6010 H   0  0  0  0  0  0  0  0  0  0  0  0
   39.5900   31.6820   39.8820 H   0  0  0  0  0  0  0  0  0  0  0  0
   38.7100   30.9960   41.7700 C   0  0  2  0  0  0  0  0  0  0  0  0
   40.0980   31.0810   42.4540 C   0  0  0  0  0  0  0  0  0  0  0  0
   39.6710   29.8090   41.8840 C   0  0  1  0  0  0  0  0  0  0  0  0
   37.9200   31.0690   42.5240 H   0  0  0  0  0  0  0  0  0  0  0  0
   40.9000   31.6500   41.8950 H   0  0  0  0  0  0  0  0  0  0  0  0
   40.1700   31.3020   43.5170 H   0  0  0  0  0  0  0  0  0  0  0  0
   40.1340   29.4930   40.9250 H   0  0  0  0  0  0  0  0  0  0  0  0
   39.1390   28.7150   42.6280 N   0  0  0  0  0  0  0  0  0  0  0  0
   39.3200   27.4170   42.1020 C   0  0  0  0  0  2  0  0  0  0  0  0
   38.0270   26.7760   41.6220 C   0  0  0  0  0  2  0  0  0  0  0  0
   37.0370   26.6230   42.7520 C   0  0  0  0  0  3  0  0  0  0  0  0
   37.2110   25.6850   43.3440 H   0  0  0  0  0  0  0  0  0  0  0  0
   37.1220   27.7980   43.6800 C   0  0  0  0  0  2  0  0  0  0  0  0
   37.7880   28.9870   43.0360 C   0  0  0  0  0  2  0  0  0  0  0  0
   35.3460   29.2490   38.7310 C   0  0  0  0  0  3  0  0  0  0  0  0
   36.0920   29.4210   39.7390 C   0  0  0  0  0  3  0  0  0  0  0  0
   34.0250   26.2890   36.9720 C   0  0  0  0  0  0  0  0  0  0  0  0
   34.8300   25.2590   37.4490 C   0  0  0  0  0  0  0  0  0  0  0  0
   35.7950   25.6090   38.3540 C   0  0  0  0  0  0  0  0  0  0  0  0
   35.9210   26.9070   38.7380 N   0  0  0  0  0  0  0  0  0  0  0  0
   35.1240   27.8800   38.2560 C   0  0  0  0  0  0  0  0  0  0  0  0
   34.1930   27.5430   37.3820 N   0  0  0  0  0  0  0  0  0  0  0  0
   33.2470   26.0440   36.2500 H   0  0  0  0  0  0  0  0  0  0  0  0
   34.7090   24.2350   37.1270 H   0  0  0  0  0  0  0  0  0  0  0  0
   36.7090   24.6400   38.9370 C   0  0  0  0  0  0  0  0  0  0  0  0
   36.4340   23.8870   40.0420 C   0  0  0  0  0  0  0  0  0  0  0  0
   37.3160   22.9700   40.5860 C   0  0  0  0  0  0  0  0  0  0  0  0
   38.5490   22.7830   40.0030 C   0  0  0  0  0  0  0  0  0  0  0  0
   38.8770   23.5170   38.8870 C   0  0  0  0  0  0  0  0  0  0  0  0
   37.9560   24.4140   38.3920 C   0  0  0  0  0  0  0  0  0  0  0  0
   35.4650   24.0050   40.5350 H   0  0  0  0  0  0  0  0  0  0  0  0
   36.9980   22.4140   41.4770 H   0  0  0  0  0  0  0  0  0  0  0  0
   39.1800   22.0450   40.4930 H   0  0  0  0  0  0  0  0  0  0  0  0
   39.8480   23.3530   38.4480 H   0  0  0  0  0  0  0  0  0  0  0  0
   38.3050   24.9460   37.5110 H   0  0  0  0  0  0  0  0  0  0  0  0
  1  3  1  0  0  0  0
  2  1  1  0  0  0  0
  4  7  1  6  0  0  0
  4  5  1  0  0  0  0
  4  1  1  0  0  0  0
  4  6  1  0  0  0  0
  5  6  1  0  0  0  0
  5  8  1  0  0  0  0
  6 10  1  6  0  0  0
  6 11  1  0  0  0  0
  9  5  1  0  0  0  0
 11 13  1  0  0  0  0
 11 12  1  0  0  0  0
 11 14  1  1  0  0  0
 12 16  1  0  0  0  0
 13 17  1  6  0  0  0
 13 12  1  0  0  0  0
 13 18  1  0  0  0  0
 15 12  1  0  0  0  0
 18 24  1  0  0  0  0
 19 18  1  0  0  0  0
 20 19  1  0  0  0  0
 20 21  1  0  0  0  0
 21 22  1  0  0  0  0
 21 23  1  0  0  0  0
 24 23  1  0  0  0  0
 25 26  2  0  0  0  0
 26  1  1  0  0  0  0
 27 32  2  0  0  0  0
 27 28  1  0  0  0  0
 28 29  2  0  0  0  0
 29 30  1  0  0  0  0
 29 35  1  0  0  0  0
 31 25  1  0  0  0  0
 31 30  2  0  0  0  0
 32 31  1  0  0  0  0
 33 27  1  0  0  0  0
 34 28  1  0  0  0  0
 35 36  1  0  0  0  0
 36 41  1  0  0  0  0
 36 37  2  0  0  0  0
 37 42  1  0  0  0  0
 38 43  1  0  0  0  0
 38 37  1  0  0  0  0
 39 38  2  0  0  0  0
 40 39  1  0  0  0  0
 40 35  2  0  0  0  0
 44 39  1  0  0  0  0
 45 40  1  0  0  0  0
M  END
>  <minimizedAffinity>
-5.57343197

$$$$

 OpenBabel03252508193D

 45 49  0  0  1  0  0  0  0  0999 V2000
   38.4500   27.3000   43.6070 C   0  0  0  0  0  0  0  0  0  0  0  0
   38.6810   27.8770   44.5530 H   0  0  0  0  0  0  0  0  0  0  0  0
   37.7250   26.5610   43.8810 H   0  0  0  0  0  0  0  0  0  0  0  0
   39.7670   26.8680   43.0680 C   0  0  1  0  0  0  0  0  0  0  0  0
   40.3300   25.6310   43.6790 C   0  0  0  0  0  0  0  0  0  0  0  0
   39.8880   25.6240   42.2870 C   0  0  1  0  0  0  0  0  0  0  0  0
   40.5530   27.6770   43.0760 H   0  0  0  0  0  0  0  0  0  0  0  0
   39.7190   25.0940   44.4440 H   0  0  0  0  0  0  0  0  0  0  0  0
   41.4120   25.5190   43.8900 H   0  0  0  0  0  0  0  0  0  0  0  0
   40.6850   25.6180   41.5150 H   0  0  0  0  0  0  0  0  0  0  0  0
   38.6270   24.9450   41.8600 C   0  0  2  0  0  0  0  0  0  0  0  0
   38.8490   23.6100   41.1030 C   0  0  0  0  0  0  0  0  0  0  0  0
   38.3970   24.7770   40.3550 C   0  0  1  0  0  0  0  0  0  0  0  0
   37.7490   24.8610   42.5090 H   0  0  0  0  0  0  0  0  0  0  0  0
   39.9240   23.2910   40.9530 H   0  0  0  0  0  0  0  0  0  0  0  0
   38.2420   22.7410   41.3410 H   0  0  0  0  0  0  0  0  0  0  0  0
   39.1390   25.2960   39.7110 H   0  0  0  0  0  0  0  0  0  0  0  0
   37.0500   25.0210   39.9540 N   0  0  0  0  0  0  0  0  0  0  0  0
   36.1080   23.9900   40.1630 C   0  0  0  0  0  2  0  0  0  0  0  0
   35.6120   23.3560   38.8730 C   0  0  0  0  0  2  0  0  0  0  0  0
   34.9160   24.3700   37.9950 C   0  0  0  0  0  3  0  0  0  0  0  0
   33.8370   24.5030   38.2750 H   0  0  0  0  0  0  0  0  0  0  0  0
   35.6040   25.6990   38.0930 C   0  0  0  0  0  2  0  0  0  0  0  0
   37.0070   25.5790   38.6300 C   0  0  0  0  0  2  0  0  0  0  0  0
   38.5080   28.7000   41.7150 C   0  0  0  0  0  3  0  0  0  0  0  0
   37.8270   28.3600   42.7260 C   0  0  0  0  0  3  0  0  0  0  0  0
   37.6310   32.0100   40.3440 C   0  0  0  0  0  0  0  0  0  0  0  0
   36.9880   31.6910   39.1520 C   0  0  0  0  0  0  0  0  0  0  0  0
   36.8750   30.3600   38.8560 C   0  0  0  0  0  0  0  0  0  0  0  0
   37.3790   29.4340   39.7140 N   0  0  0  0  0  0  0  0  0  0  0  0
   37.9960   29.7770   40.8620 C   0  0  0  0  0  0  0  0  0  0  0  0
   38.1050   31.0610   41.1470 N   0  0  0  0  0  0  0  0  0  0  0  0
   37.7380   33.0610   40.6090 H   0  0  0  0  0  0  0  0  0  0  0  0
   36.5970   32.4480   38.4870 H   0  0  0  0  0  0  0  0  0  0  0  0
   36.2280   29.8800   37.6450 C   0  0  0  0  0  0  0  0  0  0  0  0
   36.7750   29.9520   36.3970 C   0  0  0  0  0  0  0  0  0  0  0  0
   36.1460   29.4930   35.2550 C   0  0  0  0  0  0  0  0  0  0  0  0
   34.8940   28.9260   35.3470 C   0  0  0  0  0  0  0  0  0  0  0  0
   34.2970   28.8290   36.5830 C   0  0  0  0  0  0  0  0  0  0  0  0
   34.9760   29.3040   37.6840 C   0  0  0  0  0  0  0  0  0  0  0  0
   37.7690   30.3960   36.2800 H   0  0  0  0  0  0  0  0  0  0  0  0
   36.6720   29.5980   34.2970 H   0  0  0  0  0  0  0  0  0  0  0  0
   34.4720   28.5920   34.4040 H   0  0  0  0  0  0  0  0  0  0  0  0
   33.3180   28.3800   36.6310 H   0  0  0  0  0  0  0  0  0  0  0  0
   34.4250   29.1840   38.6130 H   0  0  0  0  0  0  0  0  0  0  0  0
  1  3  1  0  0  0  0
  1  2  1  0  0  0  0
  4  7  1  6  0  0  0
  4  1  1  0  0  0  0
  4  5  1  0  0  0  0
  5  9  1  0  0  0  0
  5  8  1  0  0  0  0
  6 10  1  6  0  0  0
  6  4  1  0  0  0  0
  6  5  1  0  0  0  0
 11  6  1  0  0  0  0
 11 14  1  1  0  0  0
 12 16  1  0  0  0  0
 12 11  1  0  0  0  0
 13 17  1  6  0  0  0
 13 12  1  0  0  0  0
 13 11  1  0  0  0  0
 15 12  1  0  0  0  0
 18 19  1  0  0  0  0
 18 13  1  0  0  0  0
 20 19  1  0  0  0  0
 21 23  1  0  0  0  0
 21 22  1  0  0  0  0
 21 20  1  0  0  0  0
 23 24  1  0  0  0  0
 24 18  1  0  0  0  0
 25 26  2  0  0  0  0
 26  1  1  0  0  0  0
 27 33  1  0  0  0  0
 27 32  1  0  0  0  0
 28 27  2  0  0  0  0
 29 28  1  0  0  0  0
 29 30  2  0  0  0  0
 30 31  1  0  0  0  0
 31 32  2  0  0  0  0
 31 25  1  0  0  0  0
 34 28  1  0  0  0  0
 35 40  1  0  0  0  0
 35 29  1  0  0  0  0
 36 35  2  0  0  0  0
 37 38  2  0  0  0  0
 37 36  1  0  0  0  0
 38 39  1  0  0  0  0
 39 44  1  0  0  0  0
 39 40  2  0  0  0  0
 40 45  1  0  0  0  0
 41 36  1  0  0  0  0
 42 37  1  0  0  0  0
 43 38  1  0  0  0  0
M  END
>  <minimizedAffinity>
-5.56230593

$$$$

 OpenBabel03252508193D

 45 49  0  0  1  0  0  0  0  0999 V2000
   38.8350   28.3840   43.0680 C   0  0  0  0  0  0  0  0  0  0  0  0
   39.3890   27.5350   42.5670 H   0  0  0  0  0  0  0  0  0  0  0  0
   39.5500   28.8760   43.6950 H   0  0  0  0  0  0  0  0  0  0  0  0
   37.6250   27.7700   43.6770 C   0  0  1  0  0  0  0  0  0  0  0  0
   36.3940   27.8220   42.8390 C   0  0  0  0  0  0  0  0  0  0  0  0
   37.0400   26.5420   43.1130 C   0  0  1  0  0  0  0  0  0  0  0  0
   37.3860   28.1560   44.7110 H   0  0  0  0  0  0  0  0  0  0  0  0
   36.4710   28.2590   41.8140 H   0  0  0  0  0  0  0  0  0  0  0  0
   35.3930   28.0130   43.2740 H   0  0  0  0  0  0  0  0  0  0  0  0
   36.5290   25.8750   43.8400 H   0  0  0  0  0  0  0  0  0  0  0  0
   37.8260   25.8110   42.0720 C   0  0  2  0  0  0  0  0  0  0  0  0
   37.4290   24.3220   41.9060 C   0  0  0  0  0  0  0  0  0  0  0  0
   38.7000   24.6460   42.5430 C   0  0  1  0  0  0  0  0  0  0  0  0
   38.0590   26.2430   41.0930 H   0  0  0  0  0  0  0  0  0  0  0  0
   36.6010   23.9440   42.5780 H   0  0  0  0  0  0  0  0  0  0  0  0
   37.3140   23.8950   40.9130 H   0  0  0  0  0  0  0  0  0  0  0  0
   38.7670   24.5320   43.6460 H   0  0  0  0  0  0  0  0  0  0  0  0
   39.9740   24.5940   41.9030 N   0  0  0  0  0  0  0  0  0  0  0  0
   41.0950   25.0330   42.6420 C   0  0  0  0  0  2  0  0  0  0  0  0
   41.6930   26.3280   42.1160 C   0  0  0  0  0  2  0  0  0  0  0  0
   42.1780   26.1720   40.6940 C   0  0  0  0  0  3  0  0  0  0  0  0
   43.2150   25.7440   40.6450 H   0  0  0  0  0  0  0  0  0  0  0  0
   41.2530   25.2780   39.9250 C   0  0  0  0  0  2  0  0  0  0  0  0
   39.9010   25.1540   40.5810 C   0  0  0  0  0  2  0  0  0  0  0  0
   39.1210   29.0670   40.8320 C   0  0  0  0  0  3  0  0  0  0  0  0
   38.4600   29.2620   41.8930 C   0  0  0  0  0  3  0  0  0  0  0  0
   39.2680   31.8030   38.3630 C   0  0  0  0  0  0  0  0  0  0  0  0
   38.2580   31.4670   37.4670 C   0  0  0  0  0  0  0  0  0  0  0  0
   37.5620   30.3200   37.7350 C   0  0  0  0  0  0  0  0  0  0  0  0
   37.8750   29.5810   38.8320 N   0  0  0  0  0  0  0  0  0  0  0  0
   38.8600   29.9360   39.6800 C   0  0  0  0  0  0  0  0  0  0  0  0
   39.5320   31.0430   39.4220 N   0  0  0  0  0  0  0  0  0  0  0  0
   39.8430   32.7100   38.1790 H   0  0  0  0  0  0  0  0  0  0  0  0
   38.0300   32.0720   36.6020 H   0  0  0  0  0  0  0  0  0  0  0  0
   36.4810   29.8450   36.8860 C   0  0  0  0  0  0  0  0  0  0  0  0
   36.4820   29.9140   35.5230 C   0  0  0  0  0  0  0  0  0  0  0  0
   35.4440   29.4610   34.7300 C   0  0  0  0  0  0  0  0  0  0  0  0
   34.3310   28.9020   35.3180 C   0  0  0  0  0  0  0  0  0  0  0  0
   34.2780   28.8090   36.6890 C   0  0  0  0  0  0  0  0  0  0  0  0
   35.3450   29.2790   37.4250 C   0  0  0  0  0  0  0  0  0  0  0  0
   37.3480   30.3510   35.0160 H   0  0  0  0  0  0  0  0  0  0  0  0
   35.5430   29.5620   33.6420 H   0  0  0  0  0  0  0  0  0  0  0  0
   33.5630   28.5720   34.6240 H   0  0  0  0  0  0  0  0  0  0  0  0
   33.3970   28.3680   37.1280 H   0  0  0  0  0  0  0  0  0  0  0  0
   35.2110   29.1620   38.4970 H   0  0  0  0  0  0  0  0  0  0  0  0
  1  4  1  0  0  0  0
  1  3  1  0  0  0  0
  2  1  1  0  0  0  0
  4  7  1  1  0  0  0
  5  6  1  0  0  0  0
  5  9  1  0  0  0  0
  5  4  1  0  0  0  0
  6  4  1  0  0  0  0
  6 10  1  1  0  0  0
  8  5  1  0  0  0  0
 11 14  1  6  0  0  0
 11 13  1  0  0  0  0
 11  6  1  0  0  0  0
 12 11  1  0  0  0  0
 12 13  1  0  0  0  0
 12 15  1  0  0  0  0
 13 17  1  1  0  0  0
 16 12  1  0  0  0  0
 18 13  1  0  0  0  0
 18 19  1  0  0  0  0
 20 19  1  0  0  0  0
 21 20  1  0  0  0  0
 22 21  1  0  0  0  0
 23 24  1  0  0  0  0
 23 21  1  0  0  0  0
 24 18  1  0  0  0  0
 25 26  2  0  0  0  0
 26  1  1  0  0  0  0
 27 32  1  0  0  0  0
 28 29  1  0  0  0  0
 28 27  2  0  0  0  0
 29 30  2  0  0  0  0
 30 31  1  0  0  0  0
 31 25  1  0  0  0  0
 32 31  2  0  0  0  0
 33 27  1  0  0  0  0
 34 28  1  0  0  0  0
 35 40  1  0  0  0  0
 35 29  1  0  0  0  0
 36 35  2  0  0  0  0
 37 38  2  0  0  0  0
 37 36  1  0  0  0  0
 38 39  1  0  0  0  0
 39 44  1  0  0  0  0
 39 40  2  0  0  0  0
 40 45  1  0  0  0  0
 41 36  1  0  0  0  0
 42 37  1  0  0  0  0
 43 38  1  0  0  0  0
M  END
>  <minimizedAffinity>
-5.53640175

$$$$

 OpenBabel03252508193D

 45 49  0  0  1  0  0  0  0  0999 V2000
   37.2630   32.4730   39.5220 C   0  0  0  0  0  0  0  0  0  0  0  0
   36.6040   33.1640   38.9140 H   0  0  0  0  0  0  0  0  0  0  0  0
   36.7500   32.3150   40.4480 H   0  0  0  0  0  0  0  0  0  0  0  0
   38.6090   33.1040   39.5280 C   0  0  1  0  0  0  0  0  0  0  0  0
   38.8470   34.0840   40.6250 C   0  0  0  0  0  0  0  0  0  0  0  0
   39.5700   32.8160   40.6080 C   0  0  1  0  0  0  0  0  0  0  0  0
   38.9020   33.5710   38.5430 H   0  0  0  0  0  0  0  0  0  0  0  0
   38.0390   34.2370   41.3810 H   0  0  0  0  0  0  0  0  0  0  0  0
   39.4190   35.0200   40.4640 H   0  0  0  0  0  0  0  0  0  0  0  0
   40.6410   32.8590   40.3220 H   0  0  0  0  0  0  0  0  0  0  0  0
   39.2410   31.7040   41.5520 C   0  0  2  0  0  0  0  0  0  0  0  0
   40.4600   31.1620   42.3420 C   0  0  0  0  0  0  0  0  0  0  0  0
   39.8860   30.3410   41.2820 C   0  0  1  0  0  0  0  0  0  0  0  0
   38.3570   31.7160   42.1980 H   0  0  0  0  0  0  0  0  0  0  0  0
   41.4570   31.6520   42.1270 H   0  0  0  0  0  0  0  0  0  0  0  0
   40.3750   30.9630   43.4080 H   0  0  0  0  0  0  0  0  0  0  0  0
   40.4440   30.2740   40.3240 H   0  0  0  0  0  0  0  0  0  0  0  0
   39.0010   29.2420   41.4860 N   0  0  0  0  0  0  0  0  0  0  0  0
   37.8180   29.4810   42.2200 C   0  0  0  0  0  2  0  0  0  0  0  0
   37.8070   28.8040   43.5810 C   0  0  0  0  0  2  0  0  0  0  0  0
   37.9070   27.3030   43.4490 C   0  0  0  0  0  3  0  0  0  0  0  0
   36.9060   26.8260   43.2710 H   0  0  0  0  0  0  0  0  0  0  0  0
   38.8190   26.9410   42.3150 C   0  0  0  0  0  2  0  0  0  0  0  0
   39.7250   28.0810   41.9250 C   0  0  0  0  0  2  0  0  0  0  0  0
   36.4480   30.3130   39.0550 C   0  0  0  0  0  3  0  0  0  0  0  0
   37.2620   31.2100   38.6880 C   0  0  0  0  0  3  0  0  0  0  0  0
   36.1160   27.7180   36.4550 C   0  0  0  0  0  0  0  0  0  0  0  0
   36.5170   26.5620   37.1170 C   0  0  0  0  0  0  0  0  0  0  0  0
   36.8870   26.7070   38.4270 C   0  0  0  0  0  0  0  0  0  0  0  0
   36.8460   27.9350   39.0080 N   0  0  0  0  0  0  0  0  0  0  0  0
   36.4520   29.0350   38.3370 C   0  0  0  0  0  0  0  0  0  0  0  0
   36.0950   28.8950   37.0730 N   0  0  0  0  0  0  0  0  0  0  0  0
   35.8160   27.6380   35.4110 H   0  0  0  0  0  0  0  0  0  0  0  0
   36.5410   25.5970   36.6310 H   0  0  0  0  0  0  0  0  0  0  0  0
   37.3290   25.5870   39.2430 C   0  0  0  0  0  0  0  0  0  0  0  0
   38.5530   24.9930   39.1420 C   0  0  0  0  0  0  0  0  0  0  0  0
   38.9570   23.9270   39.9240 C   0  0  0  0  0  0  0  0  0  0  0  0
   38.0980   23.4100   40.8680 C   0  0  0  0  0  0  0  0  0  0  0  0
   36.8510   23.9720   41.0110 C   0  0  0  0  0  0  0  0  0  0  0  0
   36.5070   25.0330   40.2020 C   0  0  0  0  0  0  0  0  0  0  0  0
   39.2660   25.3740   38.4040 H   0  0  0  0  0  0  0  0  0  0  0  0
   39.9650   23.5210   39.7630 H   0  0  0  0  0  0  0  0  0  0  0  0
   38.4940   22.5740   41.4390 H   0  0  0  0  0  0  0  0  0  0  0  0
   36.1950   23.5510   41.7570 H   0  0  0  0  0  0  0  0  0  0  0  0
   35.5040   25.4080   40.3890 H   0  0  0  0  0  0  0  0  0  0  0  0
  1  4  1  0  0  0  0
  1  3  1  0  0  0  0
  2  1  1  0  0  0  0
  4  7  1  6  0  0  0
  4  6  1  0  0  0  0
  4  5  1  0  0  0  0
  5  8  1  0  0  0  0
  6 10  1  6  0  0  0
  6  5  1  0  0  0  0
  6 11  1  0  0  0  0
  9  5  1  0  0  0  0
 11 14  1  1  0  0  0
 11 12  1  0  0  0  0
 12 16  1  0  0  0  0
 13 17  1  6  0  0  0
 13 18  1  0  0  0  0
 13 11  1  0  0  0  0
 13 12  1  0  0  0  0
 15 12  1  0  0  0  0
 18 24  1  0  0  0  0
 18 19  1  0  0  0  0
 19 20  1  0  0  0  0
 21 20  1  0  0  0  0
 22 21  1  0  0  0  0
 23 21  1  0  0  0  0
 24 23  1  0  0  0  0
 26 25  2  0  0  0  0
 26  1  1  0  0  0  0
 27 32  2  0  0  0  0
 27 28  1  0  0  0  0
 28 29  2  0  0  0  0
 29 30  1  0  0  0  0
 29 35  1  0  0  0  0
 31 30  2  0  0  0  0
 31 25  1  0  0  0  0
 32 31  1  0  0  0  0
 33 27  1  0  0  0  0
 34 28  1  0  0  0  0
 35 40  1  0  0  0  0
 36 35  2  0  0  0  0
 36 37  1  0  0  0  0
 37 38  2  0  0  0  0
 38 39  1  0  0  0  0
 38 43  1  0  0  0  0
 39 44  1  0  0  0  0
 40 45  1  0  0  0  0
 40 39  2  0  0  0  0
 41 36  1  0  0  0  0
 42 37  1  0  0  0  0
M  END
>  <minimizedAffinity>
-5.50360441

$$$$

 OpenBabel03252508193D

 45 49  0  0  1  0  0  0  0  0999 V2000
   40.3990   30.3220   38.6360 C   0  0  0  0  0  0  0  0  0  0  0  0
   41.3780   29.9530   38.2070 H   0  0  0  0  0  0  0  0  0  0  0  0
   39.7220   30.3940   37.8100 H   0  0  0  0  0  0  0  0  0  0  0  0
   40.7360   31.5430   39.4140 C   0  0  1  0  0  0  0  0  0  0  0  0
   40.8380   32.7980   38.6160 C   0  0  0  0  0  0  0  0  0  0  0  0
   39.7520   32.6280   39.5770 C   0  0  1  0  0  0  0  0  0  0  0  0
   41.6570   31.4370   40.0570 H   0  0  0  0  0  0  0  0  0  0  0  0
   40.6090   32.7500   37.5240 H   0  0  0  0  0  0  0  0  0  0  0  0
   41.6100   33.5660   38.8230 H   0  0  0  0  0  0  0  0  0  0  0  0
   39.8290   33.2090   40.5190 H   0  0  0  0  0  0  0  0  0  0  0  0
   38.3460   32.3610   39.1430 C   0  0  2  0  0  0  0  0  0  0  0  0
   37.3380   33.4690   39.5430 C   0  0  0  0  0  0  0  0  0  0  0  0
   37.2940   32.1920   40.2430 C   0  0  1  0  0  0  0  0  0  0  0  0
   38.0950   31.9720   38.1520 H   0  0  0  0  0  0  0  0  0  0  0  0
   37.7600   34.3510   40.1120 H   0  0  0  0  0  0  0  0  0  0  0  0
   36.6000   33.8200   38.8250 H   0  0  0  0  0  0  0  0  0  0  0  0
   37.7030   32.1560   41.2760 H   0  0  0  0  0  0  0  0  0  0  0  0
   36.3600   31.1460   39.9820 N   0  0  0  0  0  0  0  0  0  0  0  0
   36.0520   30.2640   41.0410 C   0  0  0  0  0  2  0  0  0  0  0  0
   36.5850   28.8560   40.8270 C   0  0  0  0  0  2  0  0  0  0  0  0
   35.9920   28.2270   39.5880 C   0  0  0  0  0  3  0  0  0  0  0  0
   34.9930   27.7540   39.7900 H   0  0  0  0  0  0  0  0  0  0  0  0
   35.8250   29.2570   38.5120 C   0  0  0  0  0  2  0  0  0  0  0  0
   36.6790   30.4760   38.7500 C   0  0  0  0  0  2  0  0  0  0  0  0
   40.5140   29.2170   40.7130 C   0  0  0  0  0  3  0  0  0  0  0  0
   40.0010   29.1880   39.5560 C   0  0  0  0  0  3  0  0  0  0  0  0
   40.3660   27.0320   43.6800 C   0  0  0  0  0  0  0  0  0  0  0  0
   39.6100   25.9520   43.2320 C   0  0  0  0  0  0  0  0  0  0  0  0
   39.1780   26.0070   41.9350 C   0  0  0  0  0  0  0  0  0  0  0  0
   39.4960   27.0780   41.1620 N   0  0  0  0  0  0  0  0  0  0  0  0
   40.2310   28.1070   41.6270 C   0  0  0  0  0  0  0  0  0  0  0  0
   40.6480   28.0550   42.8790 N   0  0  0  0  0  0  0  0  0  0  0  0
   40.7250   27.0210   44.7080 H   0  0  0  0  0  0  0  0  0  0  0  0
   39.3710   25.1130   43.8690 H   0  0  0  0  0  0  0  0  0  0  0  0
   38.3790   24.9510   41.3320 C   0  0  0  0  0  0  0  0  0  0  0  0
   37.0210   24.9850   41.2080 C   0  0  0  0  0  0  0  0  0  0  0  0
   36.2760   23.9710   40.6340 C   0  0  0  0  0  0  0  0  0  0  0  0
   36.9100   22.8480   40.1520 C   0  0  0  0  0  0  0  0  0  0  0  0
   38.2790   22.7620   40.2530 C   0  0  0  0  0  0  0  0  0  0  0  0
   38.9660   23.8060   40.8340 C   0  0  0  0  0  0  0  0  0  0  0  0
   36.4780   25.8600   41.5780 H   0  0  0  0  0  0  0  0  0  0  0  0
   35.1860   24.0970   40.5820 H   0  0  0  0  0  0  0  0  0  0  0  0
   36.2520   22.1010   39.7170 H   0  0  0  0  0  0  0  0  0  0  0  0
   38.7550   21.8740   39.8680 H   0  0  0  0  0  0  0  0  0  0  0  0
   40.0400   23.6470   40.8690 H   0  0  0  0  0  0  0  0  0  0  0  0
  1  4  1  0  0  0  0
  1 26  1  0  0  0  0
  2  1  1  0  0  0  0
  3  1  1  0  0  0  0
  4  6  1  0  0  0  0
  4  7  1  1  0  0  0
  5  9  1  0  0  0  0
  5  4  1  0  0  0  0
  5  6  1  0  0  0  0
  6 10  1  1  0  0  0
  8  5  1  0  0  0  0
 11 14  1  6  0  0  0
 11 12  1  0  0  0  0
 11  6  1  0  0  0  0
 11 13  1  0  0  0  0
 12 15  1  0  0  0  0
 12 13  1  0  0  0  0
 13 17  1  1  0  0  0
 16 12  1  0  0  0  0
 18 13  1  0  0  0  0
 18 19  1  0  0  0  0
 20 19  1  0  0  0  0
 21 22  1  0  0  0  0
 21 20  1  0  0  0  0
 23 24  1  0  0  0  0
 23 21  1  0  0  0  0
 24 18  1  0  0  0  0
 25 31  1  0  0  0  0
 26 25  2  0  0  0  0
 27 33  1  0  0  0  0
 28 27  1  0  0  0  0
 28 34  1  0  0  0  0
 29 28  2  0  0  0  0
 30 31  2  0  0  0  0
 30 29  1  0  0  0  0
 31 32  1  0  0  0  0
 32 27  2  0  0  0  0
 35 29  1  0  0  0  0
 36 35  1  0  0  0  0
 36 41  1  0  0  0  0
 37 36  2  0  0  0  0
 38 39  2  0  0  0  0
 38 37  1  0  0  0  0
 39 40  1  0  0  0  0
 40 45  1  0  0  0  0
 40 35  2  0  0  0  0
 42 37  1  0  0  0  0
 43 38  1  0  0  0  0
 44 39  1  0  0  0  0
M  END
>  <minimizedAffinity>
-5.49973345

$$$$
