
 OpenBabel03252509253D

 28 30  0  0  1  0  0  0  0  0999 V2000
   46.9080   34.9570   41.8310 C   0  0  1  0  0  0  0  0  0  0  0  0
   48.3470   35.5440   41.9340 C   0  0  0  0  0  0  0  0  0  0  0  0
   47.9710   34.1620   41.3670 C   0  0  2  0  0  0  0  0  0  0  0  0
   46.2560   35.5510   41.1730 H   0  0  0  0  0  0  0  0  0  0  0  0
   48.6020   36.3230   41.1710 H   0  0  0  0  0  0  0  0  0  0  0  0
   48.8210   35.6330   42.9030 H   0  0  0  0  0  0  0  0  0  0  0  0
   48.4810   33.3560   41.9740 H   0  0  0  0  0  0  0  0  0  0  0  0
   44.8140   35.1780   44.9400 C   0  0  0  0  0  0  0  0  0  0  0  0
   45.3260   35.5050   43.6560 C   0  0  0  0  0  0  0  0  0  0  0  0
   46.3430   34.7290   43.2130 C   0  0  0  0  0  0  0  0  0  0  0  0
   46.8510   33.6870   43.9660 N   0  0  0  0  0  0  0  0  0  0  0  0
   46.3420   33.4020   45.1820 C   0  0  0  0  0  0  0  0  0  0  0  0
   45.3130   34.1560   45.6730 N   0  0  0  0  0  0  0  0  0  0  0  0
   44.0030   35.7870   45.3050 H   0  0  0  0  0  0  0  0  0  0  0  0
   46.7690   32.5820   45.7320 H   0  0  0  0  0  0  0  0  0  0  0  0
   44.8290   36.5910   42.8950 N   0  0  0  0  0  0  0  0  0  0  0  0
   43.8330   36.8730   42.7190 H   0  0  0  0  0  0  0  0  0  0  0  0
   45.5130   37.2270   42.4270 H   0  0  0  0  0  0  0  0  0  0  0  0
   48.1800   33.9060   39.8920 C   0  0  0  0  0  0  0  0  0  0  0  0
   48.4730   34.8670   39.4150 H   0  0  0  0  0  0  0  0  0  0  0  0
   48.9850   33.1810   39.6930 H   0  0  0  0  0  0  0  0  0  0  0  0
   46.9210   33.5100   39.2890 N   0  0  0  0  0  0  0  0  0  0  0  0
   46.5830   32.1640   39.6510 C   0  0  0  0  0  2  0  0  0  0  0  0
   45.5490   31.5670   38.7560 C   0  0  0  0  0  2  0  0  0  0  0  0
   44.8990   32.6640   37.9130 C   0  0  0  0  0  3  0  0  0  0  0  0
   44.0540   32.2430   37.3330 H   0  0  0  0  0  0  0  0  0  0  0  0
   46.0030   33.1680   37.0160 C   0  0  0  0  0  2  0  0  0  0  0  0
   47.1540   33.5960   37.8600 C   0  0  0  0  0  2  0  0  0  0  0  0
  1  4  1  6  0  0  0
  1  2  1  0  0  0  0
  1 10  1  0  0  0  0
  2  6  1  0  0  0  0
  3  1  1  0  0  0  0
  3  2  1  0  0  0  0
  3  7  1  1  0  0  0
  5  2  1  0  0  0  0
  8 14  1  0  0  0  0
  8 13  1  0  0  0  0
  9  8  2  0  0  0  0
 10  9  1  0  0  0  0
 10 11  2  0  0  0  0
 11 12  1  0  0  0  0
 12 13  2  0  0  0  0
 12 15  1  0  0  0  0
 16  9  1  0  0  0  0
 17 16  1  0  0  0  0
 18 16  1  0  0  0  0
 19  3  1  0  0  0  0
 20 19  1  0  0  0  0
 21 19  1  0  0  0  0
 22 23  1  0  0  0  0
 22 19  1  0  0  0  0
 24 23  1  0  0  0  0
 25 24  1  0  0  0  0
 26 25  1  0  0  0  0
 27 28  1  0  0  0  0
 27 25  1  0  0  0  0
 28 22  1  0  0  0  0
M  END
>  <minimizedAffinity>
-4.59277344

>  <minimizedRMSD>
1.23066449

$$$$
