
 OpenBabel03252507273D

 25 27  0  0  0  0  0  0  0  0999 V2000
   37.9190   28.1020   41.5890 C   0  0  0  0  0  0  0  0  0  0  0  0
   36.5740   27.7600   41.4470 C   0  0  0  0  0  0  0  0  0  0  0  0
   35.6860   28.7710   41.0070 C   0  0  0  0  0  0  0  0  0  0  0  0
   36.1870   30.0230   40.7440 N   0  0  0  0  0  0  0  0  0  0  0  0
   37.4970   30.2760   40.9040 C   0  0  0  0  0  0  0  0  0  0  0  0
   38.3470   29.3440   41.3150 N   0  0  0  0  0  0  0  0  0  0  0  0
   36.2090   26.7660   41.6610 H   0  0  0  0  0  0  0  0  0  0  0  0
   34.6500   28.5380   40.8890 H   0  0  0  0  0  0  0  0  0  0  0  0
   37.9880   31.6220   40.6120 C   0  0  0  0  0  0  0  0  0  0  0  0
   37.2200   32.5380   39.9450 C   0  0  0  0  0  0  0  0  0  0  0  0
   37.5860   33.8210   39.6220 C   0  0  0  0  0  0  0  0  0  0  0  0
   38.8700   34.1610   40.0380 C   0  0  0  0  0  0  0  0  0  0  0  0
   39.6790   33.2620   40.7160 C   0  0  0  0  0  0  0  0  0  0  0  0
   39.2330   31.9990   40.9980 N   0  0  0  0  0  0  0  0  0  0  0  0
   36.2130   32.2170   39.6380 H   0  0  0  0  0  0  0  0  0  0  0  0
   36.9210   34.4890   39.0910 H   0  0  0  0  0  0  0  0  0  0  0  0
   39.2390   35.1570   39.8240 H   0  0  0  0  0  0  0  0  0  0  0  0
   40.6800   33.5610   41.0290 H   0  0  0  0  0  0  0  0  0  0  0  0
   38.8800   27.1530   42.0240 N   0  0  0  0  0  0  0  0  0  0  0  0
   39.6050   26.2040   41.2130 C   0  0  0  0  0  2  0  0  0  0  0  0
   39.1740   24.8250   41.7140 C   0  0  0  0  0  2  0  0  0  0  0  0
   39.8230   24.6210   43.0510 C   0  0  0  0  0  3  0  0  0  0  0  0
   39.1100   24.0700   43.6970 H   0  0  0  0  0  0  0  0  0  0  0  0
   40.2200   25.9380   43.6800 C   0  0  0  0  0  2  0  0  0  0  0  0
   39.2510   27.0320   43.4020 C   0  0  0  0  0  2  0  0  0  0  0  0
  1 19  1  0  0  0  0
  2  1  1  0  0  0  0
  2  7  1  0  0  0  0
  3  2  2  0  0  0  0
  4  5  2  0  0  0  0
  4  3  1  0  0  0  0
  5  6  1  0  0  0  0
  6  1  2  0  0  0  0
  8  3  1  0  0  0  0
  9  5  1  0  0  0  0
  9 14  1  0  0  0  0
 10  9  2  0  0  0  0
 11 10  1  0  0  0  0
 11 12  2  0  0  0  0
 12 13  1  0  0  0  0
 13 14  2  0  0  0  0
 13 18  1  0  0  0  0
 15 10  1  0  0  0  0
 16 11  1  0  0  0  0
 17 12  1  0  0  0  0
 19 25  1  0  0  0  0
 20 21  1  0  0  0  0
 20 19  1  0  0  0  0
 21 22  1  0  0  0  0
 22 24  1  0  0  0  0
 22 23  1  0  0  0  0
 25 24  1  0  0  0  0
M  END
>  <minimizedAffinity>
-5.17536926

$$$$

 OpenBabel03252507273D

 25 27  0  0  0  0  0  0  0  0999 V2000
   37.2260   26.9850   41.7860 C   0  0  0  0  0  0  0  0  0  0  0  0
   37.3970   27.2670   43.1410 C   0  0  0  0  0  0  0  0  0  0  0  0
   37.5660   28.6230   43.5100 C   0  0  0  0  0  0  0  0  0  0  0  0
   37.5540   29.5830   42.5260 N   0  0  0  0  0  0  0  0  0  0  0  0
   37.3840   29.2320   41.2400 C   0  0  0  0  0  0  0  0  0  0  0  0
   37.2230   27.9680   40.8730 N   0  0  0  0  0  0  0  0  0  0  0  0
   37.4020   26.4910   43.8930 H   0  0  0  0  0  0  0  0  0  0  0  0
   37.6990   28.8690   44.5410 H   0  0  0  0  0  0  0  0  0  0  0  0
   37.3760   30.2860   40.2260 C   0  0  0  0  0  0  0  0  0  0  0  0
   37.2990   31.6090   40.5650 C   0  0  0  0  0  0  0  0  0  0  0  0
   37.2840   32.6700   39.6940 C   0  0  0  0  0  0  0  0  0  0  0  0
   37.3550   32.2970   38.3540 C   0  0  0  0  0  0  0  0  0  0  0  0
   37.4340   30.9680   37.9700 C   0  0  0  0  0  0  0  0  0  0  0  0
   37.4430   29.9710   38.9080 N   0  0  0  0  0  0  0  0  0  0  0  0
   37.2440   31.8480   41.6380 H   0  0  0  0  0  0  0  0  0  0  0  0
   37.2210   33.6930   40.0390 H   0  0  0  0  0  0  0  0  0  0  0  0
   37.3490   33.0740   37.5990 H   0  0  0  0  0  0  0  0  0  0  0  0
   37.4890   30.7110   36.9110 H   0  0  0  0  0  0  0  0  0  0  0  0
   37.0490   25.6550   41.3260 N   0  0  0  0  0  0  0  0  0  0  0  0
   37.2450   24.4350   42.0730 C   0  0  0  0  0  2  0  0  0  0  0  0
   38.3760   23.6940   41.3580 C   0  0  0  0  0  2  0  0  0  0  0  0
   37.8110   23.1620   40.0750 C   0  0  0  0  0  3  0  0  0  0  0  0
   38.5980   23.2370   39.2970 H   0  0  0  0  0  0  0  0  0  0  0  0
   36.5670   23.9170   39.6630 C   0  0  0  0  0  2  0  0  0  0  0  0
   36.6320   25.3680   39.9860 C   0  0  0  0  0  2  0  0  0  0  0  0
  1  2  1  0  0  0  0
  2  3  2  0  0  0  0
  2  7  1  0  0  0  0
  3  8  1  0  0  0  0
  4  3  1  0  0  0  0
  5  4  2  0  0  0  0
  6  5  1  0  0  0  0
  6  1  2  0  0  0  0
  9 10  1  0  0  0  0
  9  5  1  0  0  0  0
 10 15  1  0  0  0  0
 11 16  1  0  0  0  0
 11 10  2  0  0  0  0
 12 11  1  0  0  0  0
 13 12  2  0  0  0  0
 13 14  1  0  0  0  0
 14  9  2  0  0  0  0
 17 12  1  0  0  0  0
 18 13  1  0  0  0  0
 19  1  1  0  0  0  0
 19 20  1  0  0  0  0
 21 20  1  0  0  0  0
 22 21  1  0  0  0  0
 23 22  1  0  0  0  0
 24 25  1  0  0  0  0
 24 22  1  0  0  0  0
 25 19  1  0  0  0  0
M  END
>  <minimizedAffinity>
-5.09660721

$$$$

 OpenBabel03252507273D

 25 27  0  0  0  0  0  0  0  0999 V2000
   37.1760   28.4670   41.5780 C   0  0  0  0  0  0  0  0  0  0  0  0
   35.8790   28.4450   41.0670 C   0  0  0  0  0  0  0  0  0  0  0  0
   35.4250   29.6010   40.3880 C   0  0  0  0  0  0  0  0  0  0  0  0
   36.2750   30.6740   40.2680 N   0  0  0  0  0  0  0  0  0  0  0  0
   37.5130   30.6200   40.7880 C   0  0  0  0  0  0  0  0  0  0  0  0
   37.9580   29.5470   41.4280 N   0  0  0  0  0  0  0  0  0  0  0  0
   35.2330   27.5860   41.1760 H   0  0  0  0  0  0  0  0  0  0  0  0
   34.4360   29.6130   39.9860 H   0  0  0  0  0  0  0  0  0  0  0  0
   38.3840   31.7840   40.6360 C   0  0  0  0  0  0  0  0  0  0  0  0
   37.8920   33.0070   40.2670 C   0  0  0  0  0  0  0  0  0  0  0  0
   38.6230   34.1570   40.0970 C   0  0  0  0  0  0  0  0  0  0  0  0
   39.9850   33.9970   40.3360 C   0  0  0  0  0  0  0  0  0  0  0  0
   40.5220   32.7760   40.7110 C   0  0  0  0  0  0  0  0  0  0  0  0
   39.7190   31.6770   40.8590 N   0  0  0  0  0  0  0  0  0  0  0  0
   36.8080   33.0770   40.0910 H   0  0  0  0  0  0  0  0  0  0  0  0
   38.1620   35.0890   39.8030 H   0  0  0  0  0  0  0  0  0  0  0  0
   40.6360   34.8560   40.2240 H   0  0  0  0  0  0  0  0  0  0  0  0
   41.5950   32.6850   40.8910 H   0  0  0  0  0  0  0  0  0  0  0  0
   37.7150   27.3530   42.2730 N   0  0  0  0  0  0  0  0  0  0  0  0
   38.1380   27.3010   43.6530 C   0  0  0  0  0  2  0  0  0  0  0  0
   39.6360   26.9990   43.6100 C   0  0  0  0  0  2  0  0  0  0  0  0
   39.7840   25.5620   43.2050 C   0  0  0  0  0  3  0  0  0  0  0  0
   40.6760   25.4800   42.5530 H   0  0  0  0  0  0  0  0  0  0  0  0
   38.5460   25.0570   42.4980 C   0  0  0  0  0  2  0  0  0  0  0  0
   37.9070   26.0850   41.6340 C   0  0  0  0  0  2  0  0  0  0  0  0
  1 19  1  0  0  0  0
  2  7  1  0  0  0  0
  2  1  2  0  0  0  0
  3  2  1  0  0  0  0
  4  3  2  0  0  0  0
  4  5  1  0  0  0  0
  5  6  2  0  0  0  0
  6  1  1  0  0  0  0
  8  3  1  0  0  0  0
  9  5  1  0  0  0  0
  9 14  1  0  0  0  0
 10  9  2  0  0  0  0
 11 10  1  0  0  0  0
 11 12  2  0  0  0  0
 12 13  1  0  0  0  0
 13 14  2  0  0  0  0
 13 18  1  0  0  0  0
 15 10  1  0  0  0  0
 16 11  1  0  0  0  0
 17 12  1  0  0  0  0
 19 20  1  0  0  0  0
 21 20  1  0  0  0  0
 22 21  1  0  0  0  0
 23 22  1  0  0  0  0
 24 22  1  0  0  0  0
 25 19  1  0  0  0  0
 25 24  1  0  0  0  0
M  END
>  <minimizedAffinity>
-5.08421993

$$$$

 OpenBabel03252507273D

 25 27  0  0  0  0  0  0  0  0999 V2000
   37.9430   29.5620   41.4600 C   0  0  0  0  0  0  0  0  0  0  0  0
   38.2160   29.5220   42.8270 C   0  0  0  0  0  0  0  0  0  0  0  0
   38.0440   28.2850   43.4920 C   0  0  0  0  0  0  0  0  0  0  0  0
   37.6220   27.1970   42.7660 N   0  0  0  0  0  0  0  0  0  0  0  0
   37.3800   27.3140   41.4490 C   0  0  0  0  0  0  0  0  0  0  0  0
   37.5350   28.4640   40.8060 N   0  0  0  0  0  0  0  0  0  0  0  0
   38.5470   30.3950   43.3720 H   0  0  0  0  0  0  0  0  0  0  0  0
   38.2450   28.2250   44.5390 H   0  0  0  0  0  0  0  0  0  0  0  0
   36.9340   26.1300   40.7150 C   0  0  0  0  0  0  0  0  0  0  0  0
   36.9830   24.8800   41.2690 C   0  0  0  0  0  0  0  0  0  0  0  0
   36.5910   23.7100   40.6660 C   0  0  0  0  0  0  0  0  0  0  0  0
   36.1100   23.8800   39.3710 C   0  0  0  0  0  0  0  0  0  0  0  0
   36.0450   25.1290   38.7740 C   0  0  0  0  0  0  0  0  0  0  0  0
   36.4570   26.2460   39.4490 N   0  0  0  0  0  0  0  0  0  0  0  0
   37.3730   24.8030   42.2950 H   0  0  0  0  0  0  0  0  0  0  0  0
   36.6600   22.7560   41.1700 H   0  0  0  0  0  0  0  0  0  0  0  0
   35.7790   23.0060   38.8220 H   0  0  0  0  0  0  0  0  0  0  0  0
   35.6610   25.2270   37.7570 H   0  0  0  0  0  0  0  0  0  0  0  0
   38.0890   30.7600   40.7130 N   0  0  0  0  0  0  0  0  0  0  0  0
   39.3100   31.3200   40.1840 C   0  0  0  0  0  2  0  0  0  0  0  0
   39.4790   32.6680   40.8870 C   0  0  0  0  0  2  0  0  0  0  0  0
   38.4560   33.5980   40.3060 C   0  0  0  0  0  3  0  0  0  0  0  0
   38.0850   34.2510   41.1210 H   0  0  0  0  0  0  0  0  0  0  0  0
   37.3190   32.8370   39.6610 C   0  0  0  0  0  2  0  0  0  0  0  0
   36.9670   31.5890   40.3880 C   0  0  0  0  0  2  0  0  0  0  0  0
  1  2  1  0  0  0  0
  2  7  1  0  0  0  0
  2  3  2  0  0  0  0
  3  8  1  0  0  0  0
  4  3  1  0  0  0  0
  5  4  2  0  0  0  0
  6  5  1  0  0  0  0
  6  1  2  0  0  0  0
  9 10  1  0  0  0  0
  9  5  1  0  0  0  0
 10 15  1  0  0  0  0
 11 16  1  0  0  0  0
 11 10  2  0  0  0  0
 12 11  1  0  0  0  0
 13 12  2  0  0  0  0
 13 14  1  0  0  0  0
 14  9  2  0  0  0  0
 17 12  1  0  0  0  0
 18 13  1  0  0  0  0
 19  1  1  0  0  0  0
 20 19  1  0  0  0  0
 20 21  1  0  0  0  0
 22 21  1  0  0  0  0
 22 23  1  0  0  0  0
 24 22  1  0  0  0  0
 24 25  1  0  0  0  0
 25 19  1  0  0  0  0
M  END
>  <minimizedAffinity>
-5.01264048

$$$$

 OpenBabel03252507273D

 25 27  0  0  0  0  0  0  0  0999 V2000
   37.7320   30.6180   41.2030 C   0  0  0  0  0  0  0  0  0  0  0  0
   36.6740   31.1260   40.4490 C   0  0  0  0  0  0  0  0  0  0  0  0
   36.9440   32.2270   39.6020 C   0  0  0  0  0  0  0  0  0  0  0  0
   38.2210   32.7360   39.5650 N   0  0  0  0  0  0  0  0  0  0  0  0
   39.1890   32.1910   40.3220 C   0  0  0  0  0  0  0  0  0  0  0  0
   38.9580   31.1590   41.1220 N   0  0  0  0  0  0  0  0  0  0  0  0
   35.6800   30.7050   40.4980 H   0  0  0  0  0  0  0  0  0  0  0  0
   36.1530   32.6370   39.0130 H   0  0  0  0  0  0  0  0  0  0  0  0
   40.5330   32.7630   40.2510 C   0  0  0  0  0  0  0  0  0  0  0  0
   40.9140   33.5780   39.2190 C   0  0  0  0  0  0  0  0  0  0  0  0
   42.1470   34.1610   39.0600 C   0  0  0  0  0  0  0  0  0  0  0  0
   43.0480   33.8560   40.0760 C   0  0  0  0  0  0  0  0  0  0  0  0
   42.7010   33.0350   41.1370 C   0  0  0  0  0  0  0  0  0  0  0  0
   41.4460   32.4930   41.2180 N   0  0  0  0  0  0  0  0  0  0  0  0
   40.1620   33.7860   38.4440 H   0  0  0  0  0  0  0  0  0  0  0  0
   42.3740   34.7960   38.2150 H   0  0  0  0  0  0  0  0  0  0  0  0
   44.0460   34.2760   40.0280 H   0  0  0  0  0  0  0  0  0  0  0  0
   43.4320   32.8160   41.9170 H   0  0  0  0  0  0  0  0  0  0  0  0
   37.5530   29.5160   42.0780 N   0  0  0  0  0  0  0  0  0  0  0  0
   38.2690   29.2420   43.3020 C   0  0  0  0  0  2  0  0  0  0  0  0
   39.0020   27.9210   43.0600 C   0  0  0  0  0  2  0  0  0  0  0  0
   37.9670   26.8350   43.0790 C   0  0  0  0  0  3  0  0  0  0  0  0
   38.2510   26.0790   42.3200 H   0  0  0  0  0  0  0  0  0  0  0  0
   36.5840   27.3840   42.8070 C   0  0  0  0  0  2  0  0  0  0  0  0
   36.5810   28.4950   41.8180 C   0  0  0  0  0  2  0  0  0  0  0  0
  1 19  1  0  0  0  0
  2  7  1  0  0  0  0
  2  1  2  0  0  0  0
  3  2  1  0  0  0  0
  4  3  2  0  0  0  0
  4  5  1  0  0  0  0
  5  6  2  0  0  0  0
  6  1  1  0  0  0  0
  8  3  1  0  0  0  0
  9  5  1  0  0  0  0
  9 14  1  0  0  0  0
 10  9  2  0  0  0  0
 11 10  1  0  0  0  0
 11 12  2  0  0  0  0
 12 13  1  0  0  0  0
 13 14  2  0  0  0  0
 13 18  1  0  0  0  0
 15 10  1  0  0  0  0
 16 11  1  0  0  0  0
 17 12  1  0  0  0  0
 19 20  1  0  0  0  0
 21 22  1  0  0  0  0
 21 20  1  0  0  0  0
 23 22  1  0  0  0  0
 24 22  1  0  0  0  0
 25 19  1  0  0  0  0
 25 24  1  0  0  0  0
M  END
>  <minimizedAffinity>
-4.93706942

$$$$

 OpenBabel03252507273D

 25 27  0  0  0  0  0  0  0  0999 V2000
   37.7970   30.3650   40.7660 C   0  0  0  0  0  0  0  0  0  0  0  0
   36.9410   31.4460   40.5630 C   0  0  0  0  0  0  0  0  0  0  0  0
   37.2300   32.3170   39.4850 C   0  0  0  0  0  0  0  0  0  0  0  0
   38.3280   32.0560   38.7010 N   0  0  0  0  0  0  0  0  0  0  0  0
   39.1080   30.9920   38.9600 C   0  0  0  0  0  0  0  0  0  0  0  0
   38.8540   30.1640   39.9640 N   0  0  0  0  0  0  0  0  0  0  0  0
   36.0840   31.6270   41.1960 H   0  0  0  0  0  0  0  0  0  0  0  0
   36.5910   33.1540   39.3060 H   0  0  0  0  0  0  0  0  0  0  0  0
   40.2660   30.7510   38.0990 C   0  0  0  0  0  0  0  0  0  0  0  0
   40.6200   29.4890   37.7070 C   0  0  0  0  0  0  0  0  0  0  0  0
   41.6840   29.1580   36.9050 C   0  0  0  0  0  0  0  0  0  0  0  0
   42.4330   30.2530   36.4860 C   0  0  0  0  0  0  0  0  0  0  0  0
   42.1080   31.5470   36.8610 C   0  0  0  0  0  0  0  0  0  0  0  0
   41.0260   31.7880   37.6650 N   0  0  0  0  0  0  0  0  0  0  0  0
   39.9930   28.6590   38.0680 H   0  0  0  0  0  0  0  0  0  0  0  0
   41.9010   28.1330   36.6370 H   0  0  0  0  0  0  0  0  0  0  0  0
   43.2930   30.0810   35.8490 H   0  0  0  0  0  0  0  0  0  0  0  0
   42.7160   32.3840   36.5140 H   0  0  0  0  0  0  0  0  0  0  0  0
   37.5840   29.4410   41.8210 N   0  0  0  0  0  0  0  0  0  0  0  0
   38.2710   29.3850   43.0900 C   0  0  0  0  0  2  0  0  0  0  0  0
   38.9870   28.0340   43.1080 C   0  0  0  0  0  2  0  0  0  0  0  0
   37.9350   26.9820   43.2990 C   0  0  0  0  0  3  0  0  0  0  0  0
   38.2230   26.0970   42.6960 H   0  0  0  0  0  0  0  0  0  0  0  0
   36.5670   27.4890   42.9020 C   0  0  0  0  0  2  0  0  0  0  0  0
   36.6010   28.4030   41.7290 C   0  0  0  0  0  2  0  0  0  0  0  0
  1 19  1  0  0  0  0
  2  1  1  0  0  0  0
  2  7  1  0  0  0  0
  3  2  2  0  0  0  0
  4  5  2  0  0  0  0
  4  3  1  0  0  0  0
  5  6  1  0  0  0  0
  6  1  2  0  0  0  0
  8  3  1  0  0  0  0
  9  5  1  0  0  0  0
 10 15  1  0  0  0  0
 10  9  1  0  0  0  0
 11 10  2  0  0  0  0
 12 13  2  0  0  0  0
 12 11  1  0  0  0  0
 13 14  1  0  0  0  0
 14  9  2  0  0  0  0
 16 11  1  0  0  0  0
 17 12  1  0  0  0  0
 18 13  1  0  0  0  0
 19 20  1  0  0  0  0
 20 21  1  0  0  0  0
 21 22  1  0  0  0  0
 23 22  1  0  0  0  0
 24 22  1  0  0  0  0
 25 19  1  0  0  0  0
 25 24  1  0  0  0  0
M  END
>  <minimizedAffinity>
-4.84644556

$$$$

 OpenBabel03252507273D

 25 27  0  0  0  0  0  0  0  0999 V2000
   39.3050   31.9330   39.5280 C   0  0  0  0  0  0  0  0  0  0  0  0
   38.1520   32.6640   39.2410 C   0  0  0  0  0  0  0  0  0  0  0  0
   36.9530   32.2710   39.8830 C   0  0  0  0  0  0  0  0  0  0  0  0
   36.9850   31.2030   40.7470 N   0  0  0  0  0  0  0  0  0  0  0  0
   38.1370   30.5480   40.9720 C   0  0  0  0  0  0  0  0  0  0  0  0
   39.2710   30.8990   40.3820 N   0  0  0  0  0  0  0  0  0  0  0  0
   38.1570   33.5000   38.5580 H   0  0  0  0  0  0  0  0  0  0  0  0
   36.0540   32.8120   39.6830 H   0  0  0  0  0  0  0  0  0  0  0  0
   38.1250   29.4170   41.9000 C   0  0  0  0  0  0  0  0  0  0  0  0
   39.2790   28.9160   42.4380 C   0  0  0  0  0  0  0  0  0  0  0  0
   39.3750   27.8630   43.3130 C   0  0  0  0  0  0  0  0  0  0  0  0
   38.1490   27.2940   43.6440 C   0  0  0  0  0  0  0  0  0  0  0  0
   36.9580   27.7710   43.1200 C   0  0  0  0  0  0  0  0  0  0  0  0
   36.9530   28.8300   42.2520 N   0  0  0  0  0  0  0  0  0  0  0  0
   40.2210   29.4040   42.1420 H   0  0  0  0  0  0  0  0  0  0  0  0
   40.3280   27.5230   43.6970 H   0  0  0  0  0  0  0  0  0  0  0  0
   38.1340   26.4550   44.3300 H   0  0  0  0  0  0  0  0  0  0  0  0
   36.0140   27.3020   43.4010 H   0  0  0  0  0  0  0  0  0  0  0  0
   40.5510   32.2560   38.9310 N   0  0  0  0  0  0  0  0  0  0  0  0
   41.7240   32.7890   39.5830 C   0  0  0  0  0  2  0  0  0  0  0  0
   41.9580   34.1600   38.9480 C   0  0  0  0  0  2  0  0  0  0  0  0
   42.4790   33.9200   37.5620 C   0  0  0  0  0  3  0  0  0  0  0  0
   42.0540   34.6990   36.8970 H   0  0  0  0  0  0  0  0  0  0  0  0
   42.1250   32.5340   37.0710 C   0  0  0  0  0  2  0  0  0  0  0  0
   40.7860   32.0770   37.5290 C   0  0  0  0  0  2  0  0  0  0  0  0
  1  6  1  0  0  0  0
  2  1  2  0  0  0  0
  2  3  1  0  0  0  0
  3  4  2  0  0  0  0
  4  5  1  0  0  0  0
  5  9  1  0  0  0  0
  6  5  2  0  0  0  0
  7  2  1  0  0  0  0
  8  3  1  0  0  0  0
  9 14  2  0  0  0  0
  9 10  1  0  0  0  0
 10 11  2  0  0  0  0
 11 12  1  0  0  0  0
 11 16  1  0  0  0  0
 12 17  1  0  0  0  0
 13 18  1  0  0  0  0
 13 12  2  0  0  0  0
 14 13  1  0  0  0  0
 15 10  1  0  0  0  0
 19  1  1  0  0  0  0
 19 20  1  0  0  0  0
 21 20  1  0  0  0  0
 22 21  1  0  0  0  0
 23 22  1  0  0  0  0
 24 25  1  0  0  0  0
 24 22  1  0  0  0  0
 25 19  1  0  0  0  0
M  END
>  <minimizedAffinity>
-4.83493996

$$$$

 OpenBabel03252507273D

 25 27  0  0  0  0  0  0  0  0999 V2000
   37.5790   28.6300   41.7140 C   0  0  0  0  0  0  0  0  0  0  0  0
   38.2120   28.6860   42.9560 C   0  0  0  0  0  0  0  0  0  0  0  0
   38.6080   27.4610   43.5440 C   0  0  0  0  0  0  0  0  0  0  0  0
   38.3530   26.2910   42.8690 N   0  0  0  0  0  0  0  0  0  0  0  0
   37.7380   26.3180   41.6740 C   0  0  0  0  0  0  0  0  0  0  0  0
   37.3590   27.4540   41.1060 N   0  0  0  0  0  0  0  0  0  0  0  0
   38.4000   29.6210   43.4630 H   0  0  0  0  0  0  0  0  0  0  0  0
   39.0950   27.4730   44.4940 H   0  0  0  0  0  0  0  0  0  0  0  0
   37.4880   25.0490   40.9910 C   0  0  0  0  0  0  0  0  0  0  0  0
   36.4640   24.9060   40.0930 C   0  0  0  0  0  0  0  0  0  0  0  0
   36.1470   23.7630   39.4030 C   0  0  0  0  0  0  0  0  0  0  0  0
   36.9800   22.6840   39.6870 C   0  0  0  0  0  0  0  0  0  0  0  0
   38.0270   22.7890   40.5890 C   0  0  0  0  0  0  0  0  0  0  0  0
   38.2740   23.9700   41.2350 N   0  0  0  0  0  0  0  0  0  0  0  0
   35.8360   25.7900   39.9060 H   0  0  0  0  0  0  0  0  0  0  0  0
   35.3190   23.7260   38.7070 H   0  0  0  0  0  0  0  0  0  0  0  0
   36.7980   21.7420   39.1840 H   0  0  0  0  0  0  0  0  0  0  0  0
   38.6610   21.9240   40.7890 H   0  0  0  0  0  0  0  0  0  0  0  0
   37.1480   29.8080   41.0510 N   0  0  0  0  0  0  0  0  0  0  0  0
   35.9720   29.9710   40.2300 C   0  0  0  0  0  2  0  0  0  0  0  0
   36.4930   30.3230   38.8350 C   0  0  0  0  0  2  0  0  0  0  0  0
   37.0030   31.7320   38.8990 C   0  0  0  0  0  3  0  0  0  0  0  0
   37.9020   31.8010   38.2550 H   0  0  0  0  0  0  0  0  0  0  0  0
   37.3190   32.1420   40.3200 C   0  0  0  0  0  2  0  0  0  0  0  0
   37.8840   31.0340   41.1350 C   0  0  0  0  0  2  0  0  0  0  0  0
  1  2  1  0  0  0  0
  2  7  1  0  0  0  0
  2  3  2  0  0  0  0
  3  8  1  0  0  0  0
  4  3  1  0  0  0  0
  5  4  2  0  0  0  0
  6  5  1  0  0  0  0
  6  1  2  0  0  0  0
  9 14  1  0  0  0  0
  9  5  1  0  0  0  0
 10  9  2  0  0  0  0
 11 12  2  0  0  0  0
 11 10  1  0  0  0  0
 12 13  1  0  0  0  0
 13 18  1  0  0  0  0
 13 14  2  0  0  0  0
 15 10  1  0  0  0  0
 16 11  1  0  0  0  0
 17 12  1  0  0  0  0
 19 25  1  0  0  0  0
 19  1  1  0  0  0  0
 20 19  1  0  0  0  0
 21 22  1  0  0  0  0
 21 20  1  0  0  0  0
 22 24  1  0  0  0  0
 23 22  1  0  0  0  0
 24 25  1  0  0  0  0
M  END
>  <minimizedAffinity>
-4.8035903

$$$$

 OpenBabel03252507273D

 25 27  0  0  0  0  0  0  0  0999 V2000
   37.0670   28.3590   39.6730 C   0  0  0  0  0  0  0  0  0  0  0  0
   36.1390   28.2630   38.6360 C   0  0  0  0  0  0  0  0  0  0  0  0
   35.9230   29.4160   37.8440 C   0  0  0  0  0  0  0  0  0  0  0  0
   36.6300   30.5590   38.1320 N   0  0  0  0  0  0  0  0  0  0  0  0
   37.5090   30.5730   39.1500 C   0  0  0  0  0  0  0  0  0  0  0  0
   37.7260   29.5040   39.9040 N   0  0  0  0  0  0  0  0  0  0  0  0
   35.5980   27.3510   38.4320 H   0  0  0  0  0  0  0  0  0  0  0  0
   35.2180   29.3720   37.0420 H   0  0  0  0  0  0  0  0  0  0  0  0
   38.2400   31.8100   39.4210 C   0  0  0  0  0  0  0  0  0  0  0  0
   37.6030   32.9440   39.8470 C   0  0  0  0  0  0  0  0  0  0  0  0
   38.1960   34.1500   40.1270 C   0  0  0  0  0  0  0  0  0  0  0  0
   39.5750   34.1560   39.9380 C   0  0  0  0  0  0  0  0  0  0  0  0
   40.2570   33.0280   39.5080 C   0  0  0  0  0  0  0  0  0  0  0  0
   39.5860   31.8630   39.2510 N   0  0  0  0  0  0  0  0  0  0  0  0
   36.5120   32.8840   39.9790 H   0  0  0  0  0  0  0  0  0  0  0  0
   37.6230   35.0040   40.4610 H   0  0  0  0  0  0  0  0  0  0  0  0
   40.1220   35.0690   40.1370 H   0  0  0  0  0  0  0  0  0  0  0  0
   41.3390   33.0670   39.3710 H   0  0  0  0  0  0  0  0  0  0  0  0
   37.3470   27.2530   40.5170 N   0  0  0  0  0  0  0  0  0  0  0  0
   38.0460   26.0390   40.1680 C   0  0  0  0  0  2  0  0  0  0  0  0
   37.0270   24.9130   40.3510 C   0  0  0  0  0  2  0  0  0  0  0  0
   36.8380   24.7270   41.8280 C   0  0  0  0  0  3  0  0  0  0  0  0
   35.7710   24.4870   42.0090 H   0  0  0  0  0  0  0  0  0  0  0  0
   37.2560   25.9590   42.5980 C   0  0  0  0  0  2  0  0  0  0  0  0
   36.9370   27.2270   41.8890 C   0  0  0  0  0  2  0  0  0  0  0  0
  1  6  1  0  0  0  0
  1 19  1  0  0  0  0
  2  1  2  0  0  0  0
  3  4  2  0  0  0  0
  3  2  1  0  0  0  0
  4  5  1  0  0  0  0
  5  9  1  0  0  0  0
  5  6  2  0  0  0  0
  7  2  1  0  0  0  0
  8  3  1  0  0  0  0
  9 10  1  0  0  0  0
 10 15  1  0  0  0  0
 10 11  2  0  0  0  0
 11 16  1  0  0  0  0
 12 11  1  0  0  0  0
 12 17  1  0  0  0  0
 13 12  2  0  0  0  0
 14  9  2  0  0  0  0
 14 13  1  0  0  0  0
 18 13  1  0  0  0  0
 19 25  1  0  0  0  0
 20 21  1  0  0  0  0
 20 19  1  0  0  0  0
 21 22  1  0  0  0  0
 22 23  1  0  0  0  0
 22 24  1  0  0  0  0
 25 24  1  0  0  0  0
M  END
>  <minimizedAffinity>
-4.70876026

$$$$
