
 OpenBabel03252505243D

 41 44  0  0  1  0  0  0  0  0999 V2000
   46.7230   33.3660   44.7070 F   0  0  0  0  0  0  0  0  0  0  0  0
   47.3780   32.1870   44.5080 C   0  0  0  0  0  0  0  0  0  0  0  0
   48.1980   32.0780   43.4010 C   0  0  0  0  0  0  0  0  0  0  0  0
   48.8540   30.8870   43.2080 C   0  0  0  0  0  0  0  0  0  0  0  0
   48.6760   29.8520   44.1100 C   0  0  0  0  0  0  0  0  0  0  0  0
   47.8600   29.9650   45.2070 C   0  0  0  0  0  0  0  0  0  0  0  0
   47.1940   31.1840   45.3980 C   0  0  0  0  0  0  0  0  0  0  0  0
   49.4910   30.8240   42.3350 H   0  0  0  0  0  0  0  0  0  0  0  0
   49.2020   28.9210   43.9370 H   0  0  0  0  0  0  0  0  0  0  0  0
   47.7410   29.1320   45.8970 H   0  0  0  0  0  0  0  0  0  0  0  0
   46.3610   31.2480   46.5500 N   0  0  0  0  0  0  0  0  0  0  0  0
   45.2800   30.3970   46.9800 C   0  0  0  0  0  0  0  0  0  0  0  0
   45.6560   30.1120   48.4430 C   0  0  0  0  0  0  0  0  0  0  0  0
   46.5280   31.2840   48.8250 C   0  0  0  0  0  0  0  0  0  0  0  0
   46.3570   32.2050   47.6480 C   0  0  2  0  0  0  0  0  0  0  0  0
   45.2530   29.4940   46.3720 H   0  0  0  0  0  0  0  0  0  0  0  0
   44.2880   30.8970   46.9720 H   0  0  0  0  0  0  0  0  0  0  0  0
   44.7710   29.9780   49.0790 H   0  0  0  0  0  0  0  0  0  0  0  0
   46.3140   29.2120   48.3890 H   0  0  0  0  0  0  0  0  0  0  0  0
   46.0680   31.7830   49.7110 H   0  0  0  0  0  0  0  0  0  0  0  0
   47.5590   31.0060   49.0440 H   0  0  0  0  0  0  0  0  0  0  0  0
   47.3160   32.7970   47.5880 H   0  0  0  0  0  0  0  0  0  0  0  0
   45.1340   33.0420   47.7090 C   0  0  0  0  0  0  0  0  0  0  0  0
   44.5070   33.0100   46.8060 H   0  0  0  0  0  0  0  0  0  0  0  0
   44.5670   32.8000   48.6350 H   0  0  0  0  0  0  0  0  0  0  0  0
   45.4560   34.1070   47.8220 H   0  0  0  0  0  0  0  0  0  0  0  0
   49.0430   35.3710   42.0570 C   0  0  0  0  0  0  0  0  0  0  0  0
   48.6260   35.3070   40.7220 C   0  0  0  0  0  0  0  0  0  0  0  0
   48.0570   34.0960   40.3370 C   0  0  0  0  0  0  0  0  0  0  0  0
   47.9440   33.0920   41.2360 N   0  0  0  0  0  0  0  0  0  0  0  0
   48.3500   33.1950   42.4860 C   0  0  0  0  0  0  0  0  0  0  0  0
   48.9030   34.3410   42.9010 N   0  0  0  0  0  0  0  0  0  0  0  0
   49.4900   36.3090   42.3770 H   0  0  0  0  0  0  0  0  0  0  0  0
   48.7070   36.0900   39.9950 H   0  0  0  0  0  0  0  0  0  0  0  0
   47.5720   33.8380   39.0200 N   0  0  0  0  0  0  0  0  0  0  0  0
   46.3740   33.0920   38.6920 C   0  0  0  0  0  0  0  0  0  0  0  0
   46.7900   31.9060   37.8400 C   0  0  0  0  0  0  0  0  0  0  0  0
   47.7460   32.2650   36.7450 C   0  0  0  0  0  0  0  0  0  0  0  0
   47.4230   31.8830   35.7370 H   0  0  0  0  0  0  0  0  0  0  0  0
   47.8820   33.7700   36.6080 C   0  0  0  0  0  0  0  0  0  0  0  0
   48.3330   34.3620   37.9010 C   0  0  0  0  0  0  0  0  0  0  0  0
  2  1  1  0  0  0  0
  2  7  1  0  0  0  0
  3  2  2  0  0  0  0
  4  3  1  0  0  0  0
  4  5  2  0  0  0  0
  5  6  1  0  0  0  0
  6  7  2  0  0  0  0
  6 10  1  0  0  0  0
  7 11  1  0  0  0  0
  8  4  1  0  0  0  0
  9  5  1  0  0  0  0
 11 12  1  0  0  0  0
 11 15  1  0  0  0  0
 12 13  1  0  0  0  0
 13 14  1  0  0  0  0
 13 18  1  0  0  0  0
 14 21  1  0  0  0  0
 14 20  1  0  0  0  0
 15 22  1  6  0  0  0
 15 23  1  0  0  0  0
 15 14  1  0  0  0  0
 16 12  1  0  0  0  0
 17 12  1  0  0  0  0
 19 13  1  0  0  0  0
 23 26  1  0  0  0  0
 23 25  1  0  0  0  0
 24 23  1  0  0  0  0
 27 33  1  0  0  0  0
 27 32  1  0  0  0  0
 28 27  2  0  0  0  0
 29 28  1  0  0  0  0
 29 30  2  0  0  0  0
 30 31  1  0  0  0  0
 31 32  2  0  0  0  0
 31  3  1  0  0  0  0
 34 28  1  0  0  0  0
 35 29  1  0  0  0  0
 36 35  1  0  0  0  0
 37 36  1  0  0  0  0
 38 37  1  0  0  0  0
 39 38  1  0  0  0  0
 40 38  1  0  0  0  0
 40 41  1  0  0  0  0
 41 35  1  0  0  0  0
M  END
>  <minimizedAffinity>
-5.61237431

>  <minimizedRMSD>
1.14983916

$$$$
