
 OpenBabel03252509253D

 28 30  0  0  1  0  0  0  0  0999 V2000
   46.5510   35.0540   41.9280 C   0  0  1  0  0  0  0  0  0  0  0  0
   48.0770   35.3680   41.9450 C   0  0  0  0  0  0  0  0  0  0  0  0
   47.4170   34.1080   41.3550 C   0  0  2  0  0  0  0  0  0  0  0  0
   45.9750   35.7900   41.3450 H   0  0  0  0  0  0  0  0  0  0  0  0
   48.4180   36.1270   41.1970 H   0  0  0  0  0  0  0  0  0  0  0  0
   48.6230   35.3190   42.8780 H   0  0  0  0  0  0  0  0  0  0  0  0
   47.8110   33.1920   41.8890 H   0  0  0  0  0  0  0  0  0  0  0  0
   44.6600   35.4130   45.1520 C   0  0  0  0  0  0  0  0  0  0  0  0
   45.1240   35.7110   43.8430 C   0  0  0  0  0  0  0  0  0  0  0  0
   46.0480   34.8600   43.3390 C   0  0  0  0  0  0  0  0  0  0  0  0
   46.5110   33.7720   44.0560 N   0  0  0  0  0  0  0  0  0  0  0  0
   46.0500   33.5170   45.2980 C   0  0  0  0  0  0  0  0  0  0  0  0
   45.1150   34.3470   45.8510 N   0  0  0  0  0  0  0  0  0  0  0  0
   43.9230   36.0820   45.5660 H   0  0  0  0  0  0  0  0  0  0  0  0
   46.4390   32.6600   45.8180 H   0  0  0  0  0  0  0  0  0  0  0  0
   44.6750   36.8410   43.1170 N   0  0  0  0  0  0  0  0  0  0  0  0
   43.6970   37.2040   43.0000 H   0  0  0  0  0  0  0  0  0  0  0  0
   45.3810   37.4240   42.6150 H   0  0  0  0  0  0  0  0  0  0  0  0
   47.4770   33.8960   39.8590 C   0  0  0  0  0  0  0  0  0  0  0  0
   46.6800   34.5160   39.3930 H   0  0  0  0  0  0  0  0  0  0  0  0
   48.4370   34.2090   39.4200 H   0  0  0  0  0  0  0  0  0  0  0  0
   47.1580   32.5130   39.5560 N   0  0  0  0  0  0  0  0  0  0  0  0
   45.7380   32.3180   39.5050 C   0  0  0  0  0  2  0  0  0  0  0  0
   45.3480   30.8800   39.6110 C   0  0  0  0  0  2  0  0  0  0  0  0
   46.5780   29.9950   39.4110 C   0  0  0  0  0  3  0  0  0  0  0  0
   46.2740   28.9300   39.3740 H   0  0  0  0  0  0  0  0  0  0  0  0
   47.4650   30.2880   40.5970 C   0  0  0  0  0  2  0  0  0  0  0  0
   47.7240   31.7540   40.6540 C   0  0  0  0  0  2  0  0  0  0  0  0
  1  4  1  6  0  0  0
  1  2  1  0  0  0  0
  1 10  1  0  0  0  0
  2  6  1  0  0  0  0
  3  7  1  1  0  0  0
  3  1  1  0  0  0  0
  3  2  1  0  0  0  0
  5  2  1  0  0  0  0
  8 14  1  0  0  0  0
  8 13  1  0  0  0  0
  9  8  2  0  0  0  0
 10  9  1  0  0  0  0
 10 11  2  0  0  0  0
 11 12  1  0  0  0  0
 12 15  1  0  0  0  0
 12 13  2  0  0  0  0
 16  9  1  0  0  0  0
 17 16  1  0  0  0  0
 18 16  1  0  0  0  0
 19  3  1  0  0  0  0
 20 19  1  0  0  0  0
 21 19  1  0  0  0  0
 22 19  1  0  0  0  0
 22 28  1  0  0  0  0
 23 22  1  0  0  0  0
 23 24  1  0  0  0  0
 25 24  1  0  0  0  0
 25 27  1  0  0  0  0
 26 25  1  0  0  0  0
 27 28  1  0  0  0  0
M  END
>  <minimizedAffinity>
-4.23545933

>  <minimizedRMSD>
1.78181934

$$$$
