
     RDKit          3D

 28 29  0  0  0  0  0  0  0  0999 V2000
   44.5642   36.0047   44.4960 C   0  0  0  0  0  0  0  0  0  0  0  0
   45.3047   35.9236   43.2956 C   0  0  0  0  0  0  0  0  0  0  0  0
   46.1944   34.8552   43.1744 C   0  0  0  0  0  0  0  0  0  0  0  0
   46.3006   33.9666   44.1954 N   0  0  0  0  0  0  0  0  0  0  0  0
   45.5695   34.0862   45.3267 C   0  0  0  0  0  0  0  0  0  0  0  0
   44.7111   35.1018   45.4643 N   0  0  0  0  0  0  0  0  0  0  0  0
   46.9574   34.7769   41.9304 C   0  0  0  0  0  0  0  0  0  0  0  0
   43.8677   36.8416   44.5902 H   0  0  0  0  0  0  0  0  0  0  0  0
   45.1991   36.6414   42.5058 H   0  0  0  0  0  0  0  0  0  0  0  0
   45.6208   33.4116   46.1539 H   0  0  0  0  0  0  0  0  0  0  0  0
   47.9799   34.3412   42.1189 H   0  0  0  0  0  0  0  0  0  0  0  0
   47.1378   35.7721   41.5051 H   0  0  0  0  0  0  0  0  0  0  0  0
   46.2621   34.0030   40.9343 N   0  0  0  0  0  0  0  0  0  0  0  0
   46.5090   34.3750   39.5818 C   0  0  0  0  0  0  0  0  0  0  0  0
   46.3208   33.1103   38.7488 C   0  0  0  0  0  0  0  0  0  0  0  0
   44.9210   32.6363   38.9917 C   0  0  0  0  0  0  0  0  0  0  0  0
   44.8729   31.5914   39.4155 H   0  0  0  0  0  0  0  0  0  0  0  0
   44.1194   33.5202   39.9108 C   0  0  0  0  0  0  0  0  0  0  0  0
   44.8516   33.9144   41.1603 C   0  0  0  0  0  0  0  0  0  0  0  0
   45.7748   35.1338   39.1899 H   0  0  0  0  0  0  0  0  0  0  0  0
   47.4935   34.7853   39.3592 H   0  0  0  0  0  0  0  0  0  0  0  0
   47.0300   32.3507   39.1807 H   0  0  0  0  0  0  0  0  0  0  0  0
   46.5324   33.2744   37.6829 H   0  0  0  0  0  0  0  0  0  0  0  0
   44.3409   32.5578   38.0424 H   0  0  0  0  0  0  0  0  0  0  0  0
   43.2309   32.9107   40.2270 H   0  0  0  0  0  0  0  0  0  0  0  0
   43.7207   34.4096   39.3774 H   0  0  0  0  0  0  0  0  0  0  0  0
   44.6448   33.1545   41.9700 H   0  0  0  0  0  0  0  0  0  0  0  0
   44.4419   34.8645   41.5562 H   0  0  0  0  0  0  0  0  0  0  0  0
  1  6  2  0
  2  1  1  0
  3  2  2  0
  3  4  1  0
  4  5  2  0
  5  6  1  0
  7  3  1  0
  1  8  1  0
  2  9  1  0
  5 10  1  0
  7 11  1  0
  7 12  1  0
 13 14  1  0
 14 15  1  0
 15 16  1  0
 16 17  1  0
 16 18  1  0
 18 19  1  0
 19 13  1  0
 14 20  1  0
 14 21  1  0
 15 22  1  0
 15 23  1  0
 16 24  1  0
 18 25  1  0
 18 26  1  0
 19 27  1  0
 19 28  1  0
  7 13  1  0
M  ISO  6   8  14   9  14  10  14  11   8  12   8  17  15
M  END
>  <DihAtoms>  (1) 
2,6,12,13

>  <DihDeg>  (1) 
-60.007504061029564

$$$$
