
 OpenBabel03252509283D

 19 20  0  0  0  0  0  0  0  0999 V2000
   46.7060   35.0650   41.9460 C   0  0  0  0  0  0  0  0  0  0  0  0
   47.8260   35.0530   42.0760 H   0  0  0  0  0  0  0  0  0  0  0  0
   46.4810   36.0080   41.4330 H   0  0  0  0  0  0  0  0  0  0  0  0
   44.5040   35.9510   44.8070 C   0  0  0  0  0  0  0  0  0  0  0  0
   45.1530   36.0210   43.5550 C   0  0  0  0  0  0  0  0  0  0  0  0
   46.0380   34.9860   43.2440 C   0  0  0  0  0  0  0  0  0  0  0  0
   46.2260   33.9880   44.1430 N   0  0  0  0  0  0  0  0  0  0  0  0
   45.5800   33.9640   45.3320 C   0  0  0  0  0  0  0  0  0  0  0  0
   44.7280   34.9440   45.6500 N   0  0  0  0  0  0  0  0  0  0  0  0
   43.8110   36.7610   45.0490 H   0  0  0  0  0  0  0  0  0  0  0  0
   44.9840   36.8230   42.8640 H   0  0  0  0  0  0  0  0  0  0  0  0
   45.6980   33.1990   46.0690 H   0  0  0  0  0  0  0  0  0  0  0  0
   46.2950   33.9930   41.0770 N   0  0  0  0  0  0  0  0  0  0  0  0
   47.1170   33.7760   39.9350 C   0  0  0  0  0  2  0  0  0  0  0  0
   46.9900   32.2940   39.5900 C   0  0  0  0  0  2  0  0  0  0  0  0
   45.5360   32.0320   39.3400 C   0  0  0  0  0  3  0  0  0  0  0  0
   45.1010   31.2500   40.0270 H   0  0  0  0  0  0  0  0  0  0  0  0
   44.6600   33.2520   39.4500 C   0  0  0  0  0  2  0  0  0  0  0  0
   44.9240   34.0760   40.6750 C   0  0  0  0  0  2  0  0  0  0  0  0
  1  2  1  0  0  0  0
  1  6  1  0  0  0  0
  3  1  1  0  0  0  0
  4 10  1  0  0  0  0
  4  9  1  0  0  0  0
  5  4  2  0  0  0  0
  6  5  1  0  0  0  0
  6  7  2  0  0  0  0
  7  8  1  0  0  0  0
  8  9  2  0  0  0  0
  8 12  1  0  0  0  0
 11  5  1  0  0  0  0
 13  1  1  0  0  0  0
 14 13  1  0  0  0  0
 15 14  1  0  0  0  0
 16 18  1  0  0  0  0
 16 15  1  0  0  0  0
 16 17  1  0  0  0  0
 18 19  1  0  0  0  0
 19 13  1  0  0  0  0
M  END
>  <minimizedAffinity>
-3.62179065

>  <minimizedRMSD>
0.462007225

$$$$
