
 OpenBabel03252501293D

 36 38  0  0  0  0  0  0  0  0999 V2000
   46.3260   31.8060   46.4400 C   0  0  0  0  0  0  0  0  0  0  0  0
   45.8230   33.0790   46.3170 C   0  0  0  0  0  0  0  0  0  0  0  0
   46.1070   33.9130   45.2770 C   0  0  0  0  0  0  0  0  0  0  0  0
   46.9310   33.4750   44.3050 C   0  0  0  0  0  0  0  0  0  0  0  0
   47.4580   32.1990   44.3920 C   0  0  0  0  0  0  0  0  0  0  0  0
   47.1570   31.3540   45.4620 C   0  0  0  0  0  0  0  0  0  0  0  0
   45.1610   33.3440   47.1610 H   0  0  0  0  0  0  0  0  0  0  0  0
   45.6070   34.8650   45.3710 H   0  0  0  0  0  0  0  0  0  0  0  0
   48.1130   31.9770   43.5300 H   0  0  0  0  0  0  0  0  0  0  0  0
   47.2310   34.3630   43.2240 N   0  0  0  0  0  0  0  0  0  0  0  0
   48.5490   34.5820   42.6700 C   0  0  0  0  0  0  0  0  0  0  0  0
   48.4100   35.0010   41.2130 C   0  0  0  0  0  0  0  0  0  0  0  0
   47.2910   34.2800   40.5070 C   0  0  0  0  0  0  0  0  0  0  0  0
   47.5700   33.2270   40.3230 H   0  0  0  0  0  0  0  0  0  0  0  0
   45.9720   34.4200   41.2350 C   0  0  0  0  0  0  0  0  0  0  0  0
   46.2380   35.1650   42.5540 C   0  0  0  0  0  0  0  0  0  0  0  0
   47.1360   29.1740   44.4190 C   0  0  0  0  0  0  0  0  0  0  0  0
   45.9890   29.0230   43.8540 O   0  0  0  0  0  0  0  0  0  0  0  0
   47.8530   30.1340   45.2070 N   0  0  0  0  0  0  0  0  0  0  0  0
   47.5100   28.1940   44.0840 H   0  0  0  0  0  0  0  0  0  0  0  0
   48.7680   29.7540   45.4530 H   0  0  0  0  0  0  0  0  0  0  0  0
   46.1200   30.8220   47.5060 C   0  0  0  0  0  0  0  0  0  0  0  0
   46.5440   29.8160   47.2480 H   0  0  0  0  0  0  0  0  0  0  0  0
   45.0250   30.6530   47.5940 H   0  0  0  0  0  0  0  0  0  0  0  0
   46.7390   31.2660   48.8030 C   0  0  0  0  0  0  0  0  0  0  0  0
   46.1960   30.7480   49.6340 H   0  0  0  0  0  0  0  0  0  0  0  0
   46.6290   32.3740   48.9410 H   0  0  0  0  0  0  0  0  0  0  0  0
   49.7730   29.2610   48.3870 C   0  0  0  0  0  0  0  0  0  0  0  0
   50.7710   30.0830   48.9530 C   0  0  0  0  0  0  0  0  0  0  0  0
   50.3480   31.3100   49.4580 C   0  0  0  0  0  0  0  0  0  0  0  0
   49.0510   31.6620   49.3930 N   0  0  0  0  0  0  0  0  0  0  0  0
   48.1450   30.8250   48.8370 C   0  0  0  0  0  0  0  0  0  0  0  0
   48.4780   29.6570   48.3440 N   0  0  0  0  0  0  0  0  0  0  0  0
   49.9990   28.2720   47.9600 H   0  0  0  0  0  0  0  0  0  0  0  0
   51.7800   29.7420   48.9720 H   0  0  0  0  0  0  0  0  0  0  0  0
   51.1030   31.9680   49.9020 H   0  0  0  0  0  0  0  0  0  0  0  0
  1 22  1  0  0  0  0
  2  1  1  0  0  0  0
  2  7  1  0  0  0  0
  3  8  1  0  0  0  0
  3  2  2  0  0  0  0
  4  5  2  0  0  0  0
  4  3  1  0  0  0  0
  5  6  1  0  0  0  0
  6  1  2  0  0  0  0
  9  5  1  0  0  0  0
 10  4  1  0  0  0  0
 11 10  1  0  0  0  0
 12 11  1  0  0  0  0
 13 12  1  0  0  0  0
 13 15  1  0  0  0  0
 14 13  1  0  0  0  0
 15 16  1  0  0  0  0
 16 10  1  0  0  0  0
 17 19  1  0  0  0  0
 18 17  2  0  0  0  0
 19 21  1  0  0  0  0
 19  6  1  0  0  0  0
 20 17  1  0  0  0  0
 22 24  1  0  0  0  0
 22 25  1  0  0  0  0
 23 22  1  0  0  0  0
 25 32  1  0  0  0  0
 25 27  1  0  0  0  0
 25 26  1  0  0  0  0
 28 29  1  0  0  0  0
 29 35  1  0  0  0  0
 29 30  2  0  0  0  0
 30 36  1  0  0  0  0
 31 30  1  0  0  0  0
 32 31  2  0  0  0  0
 33 28  2  0  0  0  0
 33 32  1  0  0  0  0
 34 28  1  0  0  0  0
M  END
>  <minimizedAffinity>
-5.12466955

>  <minimizedRMSD>
7.66103172

$$$$
