
 OpenBabel03242521503D

 18 19  0  0  0  0  0  0  0  0999 V2000
   37.9560   30.2840   38.4240 C   0  0  0  0  0  0  0  0  0  0  0  0
   37.6000   31.6440   38.4940 C   0  0  0  0  0  0  0  0  0  0  0  0
   37.2250   32.1600   39.7290 C   0  0  0  0  0  0  0  0  0  0  0  0
   37.2230   31.3180   40.8090 N   0  0  0  0  0  0  0  0  0  0  0  0
   37.5670   30.0280   40.7060 C   0  0  0  0  0  0  0  0  0  0  0  0
   37.9290   29.5170   39.5310 N   0  0  0  0  0  0  0  0  0  0  0  0
   38.2390   29.9410   37.4380 H   0  0  0  0  0  0  0  0  0  0  0  0
   37.6240   32.2560   37.6010 H   0  0  0  0  0  0  0  0  0  0  0  0
   37.5320   29.2340   41.8890 N   0  0  0  0  0  0  0  0  0  0  0  0
   36.4510   28.2820   42.0810 C   0  0  0  0  0  2  0  0  0  0  0  0
   37.1020   26.9290   42.0950 C   0  0  0  0  0  2  0  0  0  0  0  0
   38.3180   26.7970   42.9270 C   0  0  0  0  0  3  0  0  0  0  0  0
   38.0410   26.2620   43.8840 H   0  0  0  0  0  0  0  0  0  0  0  0
   39.1380   27.9930   43.1810 C   0  0  0  0  0  2  0  0  0  0  0  0
   38.5350   29.3270   42.9290 C   0  0  0  0  0  2  0  0  0  0  0  0
   36.8630   33.5120   39.8480 N   0  0  0  0  0  0  0  0  0  0  0  0
   37.2640   34.2830   40.4440 H   0  0  0  0  0  0  0  0  0  0  0  0
   36.0690   33.7880   39.2480 H   0  0  0  0  0  0  0  0  0  0  0  0
  1  2  2  0  0  0  0
  1  6  1  0  0  0  0
  2  3  1  0  0  0  0
  3 16  1  0  0  0  0
  3  4  2  0  0  0  0
  5  4  1  0  0  0  0
  5  9  1  0  0  0  0
  6  5  2  0  0  0  0
  7  1  1  0  0  0  0
  8  2  1  0  0  0  0
  9 10  1  0  0  0  0
  9 15  1  0  0  0  0
 10 11  1  0  0  0  0
 11 12  1  0  0  0  0
 12 14  1  0  0  0  0
 12 13  1  0  0  0  0
 15 14  1  0  0  0  0
 16 17  1  0  0  0  0
 18 16  1  0  0  0  0
M  END
>  <minimizedAffinity>
-4.7518177

$$$$

 OpenBabel03242521503D

 18 19  0  0  0  0  0  0  0  0999 V2000
   38.2100   28.8840   39.4550 C   0  0  0  0  0  0  0  0  0  0  0  0
   37.3000   29.9080   39.7750 C   0  0  0  0  0  0  0  0  0  0  0  0
   36.6550   29.8520   41.0050 C   0  0  0  0  0  0  0  0  0  0  0  0
   36.9410   28.8030   41.8390 N   0  0  0  0  0  0  0  0  0  0  0  0
   37.8140   27.8450   41.5020 C   0  0  0  0  0  0  0  0  0  0  0  0
   38.4400   27.8840   40.3280 N   0  0  0  0  0  0  0  0  0  0  0  0
   38.6810   28.9820   38.4860 H   0  0  0  0  0  0  0  0  0  0  0  0
   37.1190   30.7110   39.0690 H   0  0  0  0  0  0  0  0  0  0  0  0
   38.0430   26.7960   42.4390 N   0  0  0  0  0  0  0  0  0  0  0  0
   37.4670   25.4830   42.2000 C   0  0  0  0  0  2  0  0  0  0  0  0
   38.6350   24.5580   42.0170 C   0  0  0  0  0  2  0  0  0  0  0  0
   39.7280   24.6810   43.0060 C   0  0  0  0  0  3  0  0  0  0  0  0
   39.6430   23.8280   43.7420 H   0  0  0  0  0  0  0  0  0  0  0  0
   39.9330   25.9740   43.6790 C   0  0  0  0  0  2  0  0  0  0  0  0
   38.8330   26.9720   43.6390 C   0  0  0  0  0  2  0  0  0  0  0  0
   35.7380   30.8530   41.3670 N   0  0  0  0  0  0  0  0  0  0  0  0
   35.7260   31.5100   42.1900 H   0  0  0  0  0  0  0  0  0  0  0  0
   34.9460   30.9530   40.7120 H   0  0  0  0  0  0  0  0  0  0  0  0
  1  2  2  0  0  0  0
  1  6  1  0  0  0  0
  2  3  1  0  0  0  0
  3 16  1  0  0  0  0
  3  4  2  0  0  0  0
  5  4  1  0  0  0  0
  5  9  1  0  0  0  0
  6  5  2  0  0  0  0
  7  1  1  0  0  0  0
  8  2  1  0  0  0  0
  9 15  1  0  0  0  0
 10  9  1  0  0  0  0
 11 10  1  0  0  0  0
 11 12  1  0  0  0  0
 12 14  1  0  0  0  0
 12 13  1  0  0  0  0
 15 14  1  0  0  0  0
 16 17  1  0  0  0  0
 18 16  1  0  0  0  0
M  END
>  <minimizedAffinity>
-4.71943521

$$$$

 OpenBabel03242521503D

 18 19  0  0  0  0  0  0  0  0999 V2000
   37.2230   32.2640   40.0270 C   0  0  0  0  0  0  0  0  0  0  0  0
   37.2740   32.1540   38.6250 C   0  0  0  0  0  0  0  0  0  0  0  0
   37.5080   30.9000   38.0740 C   0  0  0  0  0  0  0  0  0  0  0  0
   37.6760   29.8390   38.9250 N   0  0  0  0  0  0  0  0  0  0  0  0
   37.6220   29.9800   40.2560 C   0  0  0  0  0  0  0  0  0  0  0  0
   37.3980   31.1750   40.8000 N   0  0  0  0  0  0  0  0  0  0  0  0
   37.0370   33.2640   40.3960 H   0  0  0  0  0  0  0  0  0  0  0  0
   37.1320   33.0330   38.0080 H   0  0  0  0  0  0  0  0  0  0  0  0
   37.8090   28.8160   41.0560 N   0  0  0  0  0  0  0  0  0  0  0  0
   39.0680   28.6230   41.7560 C   0  0  0  0  0  2  0  0  0  0  0  0
   38.7250   28.6560   43.2180 C   0  0  0  0  0  2  0  0  0  0  0  0
   37.5540   27.8530   43.6330 C   0  0  0  0  0  3  0  0  0  0  0  0
   37.9250   26.9030   44.1220 H   0  0  0  0  0  0  0  0  0  0  0  0
   36.4900   27.5890   42.6500 C   0  0  0  0  0  2  0  0  0  0  0  0
   36.7930   27.7960   41.2110 C   0  0  0  0  0  2  0  0  0  0  0  0
   37.5670   30.7410   36.6800 N   0  0  0  0  0  0  0  0  0  0  0  0
   36.9990   30.1360   36.0310 H   0  0  0  0  0  0  0  0  0  0  0  0
   38.2920   31.3170   36.2220 H   0  0  0  0  0  0  0  0  0  0  0  0
  1  7  1  0  0  0  0
  1  6  1  0  0  0  0
  2  1  2  0  0  0  0
  3  2  1  0  0  0  0
  3  4  2  0  0  0  0
  4  5  1  0  0  0  0
  5  6  2  0  0  0  0
  5  9  1  0  0  0  0
  8  2  1  0  0  0  0
  9 15  1  0  0  0  0
  9 10  1  0  0  0  0
 10 11  1  0  0  0  0
 11 12  1  0  0  0  0
 12 13  1  0  0  0  0
 14 12  1  0  0  0  0
 15 14  1  0  0  0  0
 16  3  1  0  0  0  0
 17 16  1  0  0  0  0
 18 16  1  0  0  0  0
M  END
>  <minimizedAffinity>
-4.40865946

$$$$

 OpenBabel03242521503D

 18 19  0  0  0  0  0  0  0  0999 V2000
   39.3550   28.8790   42.4520 C   0  0  0  0  0  0  0  0  0  0  0  0
   38.4650   28.1260   43.2410 C   0  0  0  0  0  0  0  0  0  0  0  0
   37.1140   28.1580   42.9160 C   0  0  0  0  0  0  0  0  0  0  0  0
   36.7220   28.9200   41.8470 N   0  0  0  0  0  0  0  0  0  0  0  0
   37.5970   29.6250   41.1170 C   0  0  0  0  0  0  0  0  0  0  0  0
   38.8950   29.6040   41.4140 N   0  0  0  0  0  0  0  0  0  0  0  0
   40.3920   28.8140   42.7520 H   0  0  0  0  0  0  0  0  0  0  0  0
   38.8400   27.5440   44.0730 H   0  0  0  0  0  0  0  0  0  0  0  0
   37.0900   30.3860   40.0250 N   0  0  0  0  0  0  0  0  0  0  0  0
   36.9830   31.8300   40.1450 C   0  0  0  0  0  2  0  0  0  0  0  0
   37.9280   32.3910   39.1220 C   0  0  0  0  0  2  0  0  0  0  0  0
   37.8640   31.7870   37.7730 C   0  0  0  0  0  3  0  0  0  0  0  0
   37.2970   32.4900   37.0920 H   0  0  0  0  0  0  0  0  0  0  0  0
   37.4020   30.3960   37.6390 C   0  0  0  0  0  2  0  0  0  0  0  0
   36.6670   29.7850   38.7770 C   0  0  0  0  0  2  0  0  0  0  0  0
   36.1890   27.4230   43.6760 N   0  0  0  0  0  0  0  0  0  0  0  0
   35.5110   26.6680   43.3910 H   0  0  0  0  0  0  0  0  0  0  0  0
   36.1760   27.6710   44.6780 H   0  0  0  0  0  0  0  0  0  0  0  0
  1  7  1  0  0  0  0
  1  2  1  0  0  0  0
  2  8  1  0  0  0  0
  3  2  2  0  0  0  0
  3 16  1  0  0  0  0
  4  3  1  0  0  0  0
  5  6  1  0  0  0  0
  5  4  2  0  0  0  0
  6  1  2  0  0  0  0
  9 10  1  0  0  0  0
  9  5  1  0  0  0  0
 11 10  1  0  0  0  0
 12 11  1  0  0  0  0
 13 12  1  0  0  0  0
 14 12  1  0  0  0  0
 14 15  1  0  0  0  0
 15  9  1  0  0  0  0
 16 18  1  0  0  0  0
 17 16  1  0  0  0  0
M  END
>  <minimizedAffinity>
-4.2499299

$$$$

 OpenBabel03242521503D

 18 19  0  0  0  0  0  0  0  0999 V2000
   41.7340   30.4850   37.4260 C   0  0  0  0  0  0  0  0  0  0  0  0
   42.5010   31.5980   37.0360 C   0  0  0  0  0  0  0  0  0  0  0  0
   41.9400   32.8620   37.1760 C   0  0  0  0  0  0  0  0  0  0  0  0
   40.6720   32.9550   37.6850 N   0  0  0  0  0  0  0  0  0  0  0  0
   39.9700   31.8730   38.0470 C   0  0  0  0  0  0  0  0  0  0  0  0
   40.4930   30.6550   37.9200 N   0  0  0  0  0  0  0  0  0  0  0  0
   42.2240   29.5290   37.2950 H   0  0  0  0  0  0  0  0  0  0  0  0
   43.5000   31.4550   36.6410 H   0  0  0  0  0  0  0  0  0  0  0  0
   38.6580   32.0750   38.5660 N   0  0  0  0  0  0  0  0  0  0  0  0
   37.5040   31.7740   37.7360 C   0  0  0  0  0  2  0  0  0  0  0  0
   36.7920   30.6480   38.4280 C   0  0  0  0  0  2  0  0  0  0  0  0
   36.5940   30.7990   39.8870 C   0  0  0  0  0  3  0  0  0  0  0  0
   35.5210   31.0990   40.0740 H   0  0  0  0  0  0  0  0  0  0  0  0
   37.5420   31.6280   40.6490 C   0  0  0  0  0  2  0  0  0  0  0  0
   38.4100   32.5740   39.9030 C   0  0  0  0  0  2  0  0  0  0  0  0
   42.6690   34.0020   36.8000 N   0  0  0  0  0  0  0  0  0  0  0  0
   42.9590   34.8480   37.3570 H   0  0  0  0  0  0  0  0  0  0  0  0
   42.9640   34.0050   35.8100 H   0  0  0  0  0  0  0  0  0  0  0  0
  1  6  1  0  0  0  0
  2  3  1  0  0  0  0
  2  1  2  0  0  0  0
  3  4  2  0  0  0  0
  4  5  1  0  0  0  0
  5  9  1  0  0  0  0
  6  5  2  0  0  0  0
  7  1  1  0  0  0  0
  8  2  1  0  0  0  0
  9 15  1  0  0  0  0
 10 11  1  0  0  0  0
 10  9  1  0  0  0  0
 11 12  1  0  0  0  0
 12 13  1  0  0  0  0
 12 14  1  0  0  0  0
 15 14  1  0  0  0  0
 16  3  1  0  0  0  0
 16 17  1  0  0  0  0
 18 16  1  0  0  0  0
M  END
>  <minimizedAffinity>
-4.24405146

$$$$

 OpenBabel03242521503D

 18 19  0  0  0  0  0  0  0  0999 V2000
   36.8490   30.5320   38.4290 C   0  0  0  0  0  0  0  0  0  0  0  0
   37.5650   31.2860   37.4810 C   0  0  0  0  0  0  0  0  0  0  0  0
   38.9090   31.5400   37.7260 C   0  0  0  0  0  0  0  0  0  0  0  0
   39.4630   31.0440   38.8770 N   0  0  0  0  0  0  0  0  0  0  0  0
   38.7500   30.3300   39.7580 C   0  0  0  0  0  0  0  0  0  0  0  0
   37.4620   30.0760   39.5380 N   0  0  0  0  0  0  0  0  0  0  0  0
   35.8080   30.3660   38.1820 H   0  0  0  0  0  0  0  0  0  0  0  0
   37.0670   31.6490   36.5900 H   0  0  0  0  0  0  0  0  0  0  0  0
   39.4180   29.8580   40.9250 N   0  0  0  0  0  0  0  0  0  0  0  0
   39.1740   30.5060   42.2020 C   0  0  0  0  0  2  0  0  0  0  0  0
   38.5240   29.4640   43.0660 C   0  0  0  0  0  2  0  0  0  0  0  0
   39.1540   28.1260   43.0620 C   0  0  0  0  0  3  0  0  0  0  0  0
   39.7530   28.0080   44.0130 H   0  0  0  0  0  0  0  0  0  0  0  0
   39.9150   27.7040   41.8740 C   0  0  0  0  0  2  0  0  0  0  0  0
   40.3450   28.7450   40.9050 C   0  0  0  0  0  2  0  0  0  0  0  0
   39.6650   32.2880   36.8080 N   0  0  0  0  0  0  0  0  0  0  0  0
   40.5400   32.0430   36.2760 H   0  0  0  0  0  0  0  0  0  0  0  0
   39.2940   33.2350   36.6320 H   0  0  0  0  0  0  0  0  0  0  0  0
  1  6  1  0  0  0  0
  2  3  1  0  0  0  0
  2  1  2  0  0  0  0
  3  4  2  0  0  0  0
  4  5  1  0  0  0  0
  5  9  1  0  0  0  0
  6  5  2  0  0  0  0
  7  1  1  0  0  0  0
  8  2  1  0  0  0  0
  9 10  1  0  0  0  0
 10 11  1  0  0  0  0
 12 11  1  0  0  0  0
 12 13  1  0  0  0  0
 14 12  1  0  0  0  0
 15  9  1  0  0  0  0
 15 14  1  0  0  0  0
 16  3  1  0  0  0  0
 17 16  1  0  0  0  0
 18 16  1  0  0  0  0
M  END
>  <minimizedAffinity>
-4.19690609

$$$$

 OpenBabel03242521503D

 18 19  0  0  0  0  0  0  0  0999 V2000
   39.9680   31.3740   38.6920 C   0  0  0  0  0  0  0  0  0  0  0  0
   40.6270   32.5040   39.2130 C   0  0  0  0  0  0  0  0  0  0  0  0
   40.2840   32.9310   40.4900 C   0  0  0  0  0  0  0  0  0  0  0  0
   39.3240   32.2290   41.1720 N   0  0  0  0  0  0  0  0  0  0  0  0
   38.7180   31.1580   40.6450 C   0  0  0  0  0  0  0  0  0  0  0  0
   39.0350   30.7350   39.4230 N   0  0  0  0  0  0  0  0  0  0  0  0
   40.2780   31.0900   37.6950 H   0  0  0  0  0  0  0  0  0  0  0  0
   41.3780   33.0130   38.6210 H   0  0  0  0  0  0  0  0  0  0  0  0
   37.7330   30.4970   41.4340 N   0  0  0  0  0  0  0  0  0  0  0  0
   36.3260   30.6690   41.1170 C   0  0  0  0  0  2  0  0  0  0  0  0
   35.8330   29.3100   40.7140 C   0  0  0  0  0  2  0  0  0  0  0  0
   36.2270   28.1850   41.5910 C   0  0  0  0  0  3  0  0  0  0  0  0
   35.3420   27.9060   42.2360 H   0  0  0  0  0  0  0  0  0  0  0  0
   37.4680   28.2980   42.3740 C   0  0  0  0  0  2  0  0  0  0  0  0
   38.0660   29.6450   42.5580 C   0  0  0  0  0  2  0  0  0  0  0  0
   40.9140   34.0530   41.0520 N   0  0  0  0  0  0  0  0  0  0  0  0
   41.4750   34.1560   41.9380 H   0  0  0  0  0  0  0  0  0  0  0  0
   40.8040   34.9170   40.4990 H   0  0  0  0  0  0  0  0  0  0  0  0
  1  2  2  0  0  0  0
  1  6  1  0  0  0  0
  2  3  1  0  0  0  0
  3 16  1  0  0  0  0
  3  4  2  0  0  0  0
  5  4  1  0  0  0  0
  5  9  1  0  0  0  0
  6  5  2  0  0  0  0
  7  1  1  0  0  0  0
  8  2  1  0  0  0  0
  9 15  1  0  0  0  0
 10  9  1  0  0  0  0
 11 10  1  0  0  0  0
 11 12  1  0  0  0  0
 12 13  1  0  0  0  0
 12 14  1  0  0  0  0
 14 15  1  0  0  0  0
 16 17  1  0  0  0  0
 18 16  1  0  0  0  0
M  END
>  <minimizedAffinity>
-4.16140127

$$$$

 OpenBabel03242521503D

 18 19  0  0  0  0  0  0  0  0999 V2000
   42.3380   28.4980   43.3900 C   0  0  0  0  0  0  0  0  0  0  0  0
   42.7340   29.8440   43.2790 C   0  0  0  0  0  0  0  0  0  0  0  0
   41.7840   30.7760   42.8780 C   0  0  0  0  0  0  0  0  0  0  0  0
   40.5140   30.3330   42.6150 N   0  0  0  0  0  0  0  0  0  0  0  0
   40.1710   29.0440   42.7310 C   0  0  0  0  0  0  0  0  0  0  0  0
   41.0690   28.1390   43.1140 N   0  0  0  0  0  0  0  0  0  0  0  0
   43.1200   27.8210   43.7070 H   0  0  0  0  0  0  0  0  0  0  0  0
   43.7550   30.1280   43.5030 H   0  0  0  0  0  0  0  0  0  0  0  0
   38.8250   28.6840   42.4340 N   0  0  0  0  0  0  0  0  0  0  0  0
   38.5240   28.0030   41.1860 C   0  0  0  0  0  2  0  0  0  0  0  0
   38.0060   26.6500   41.5800 C   0  0  0  0  0  2  0  0  0  0  0  0
   36.9960   26.6260   42.6610 C   0  0  0  0  0  3  0  0  0  0  0  0
   35.9770   26.4700   42.1970 H   0  0  0  0  0  0  0  0  0  0  0  0
   36.9910   27.7150   43.6520 C   0  0  0  0  0  2  0  0  0  0  0  0
   37.7200   28.9680   43.3260 C   0  0  0  0  0  2  0  0  0  0  0  0
   42.1330   32.1300   42.7530 N   0  0  0  0  0  0  0  0  0  0  0  0
   41.7410   32.9880   43.2220 H   0  0  0  0  0  0  0  0  0  0  0  0
   42.9020   32.3060   42.0860 H   0  0  0  0  0  0  0  0  0  0  0  0
  1  7  1  0  0  0  0
  2  1  1  0  0  0  0
  2  8  1  0  0  0  0
  3  2  2  0  0  0  0
  4  5  2  0  0  0  0
  4  3  1  0  0  0  0
  5  6  1  0  0  0  0
  6  1  2  0  0  0  0
  9  5  1  0  0  0  0
  9 15  1  0  0  0  0
 10 11  1  0  0  0  0
 10  9  1  0  0  0  0
 11 12  1  0  0  0  0
 12 14  1  0  0  0  0
 13 12  1  0  0  0  0
 15 14  1  0  0  0  0
 16  3  1  0  0  0  0
 16 17  1  0  0  0  0
 18 16  1  0  0  0  0
M  END
>  <minimizedAffinity>
-4.10952377

$$$$

 OpenBabel03242521503D

 18 19  0  0  0  0  0  0  0  0999 V2000
   37.9430   27.3130   40.5030 C   0  0  0  0  0  0  0  0  0  0  0  0
   37.2120   26.9140   41.6370 C   0  0  0  0  0  0  0  0  0  0  0  0
   36.8050   27.8960   42.5330 C   0  0  0  0  0  0  0  0  0  0  0  0
   37.1380   29.1970   42.2620 N   0  0  0  0  0  0  0  0  0  0  0  0
   37.8350   29.5410   41.1720 C   0  0  0  0  0  0  0  0  0  0  0  0
   38.2320   28.6130   40.3030 N   0  0  0  0  0  0  0  0  0  0  0  0
   38.2300   26.5050   39.8430 H   0  0  0  0  0  0  0  0  0  0  0  0
   36.9820   25.8670   41.7920 H   0  0  0  0  0  0  0  0  0  0  0  0
   38.1310   30.9220   40.9800 N   0  0  0  0  0  0  0  0  0  0  0  0
   39.4770   31.4080   41.2280 C   0  0  0  0  0  2  0  0  0  0  0  0
   39.9840   31.8870   39.8980 C   0  0  0  0  0  2  0  0  0  0  0  0
   39.0600   32.7340   39.1130 C   0  0  0  0  0  3  0  0  0  0  0  0
   39.3910   33.8110   39.2090 H   0  0  0  0  0  0  0  0  0  0  0  0
   37.6100   32.5810   39.3180 C   0  0  0  0  0  2  0  0  0  0  0  0
   37.1410   31.8850   40.5430 C   0  0  0  0  0  2  0  0  0  0  0  0
   36.0740   27.5450   43.6790 N   0  0  0  0  0  0  0  0  0  0  0  0
   35.1210   27.8530   44.0080 H   0  0  0  0  0  0  0  0  0  0  0  0
   36.5580   26.8760   44.2980 H   0  0  0  0  0  0  0  0  0  0  0  0
  1  2  1  0  0  0  0
  2  8  1  0  0  0  0
  2  3  2  0  0  0  0
  3 16  1  0  0  0  0
  4  3  1  0  0  0  0
  5  4  2  0  0  0  0
  6  1  2  0  0  0  0
  6  5  1  0  0  0  0
  7  1  1  0  0  0  0
  9  5  1  0  0  0  0
  9 10  1  0  0  0  0
 11 10  1  0  0  0  0
 12 13  1  0  0  0  0
 12 14  1  0  0  0  0
 12 11  1  0  0  0  0
 14 15  1  0  0  0  0
 15  9  1  0  0  0  0
 16 17  1  0  0  0  0
 16 18  1  0  0  0  0
M  END
>  <minimizedAffinity>
-4.07019043

$$$$
