
 OpenBabel03252509283D

 19 20  0  0  0  0  0  0  0  0999 V2000
   46.8450   35.1350   41.9520 C   0  0  0  0  0  0  0  0  0  0  0  0
   47.9450   35.3120   42.1250 H   0  0  0  0  0  0  0  0  0  0  0  0
   46.4970   36.0030   41.3780 H   0  0  0  0  0  0  0  0  0  0  0  0
   44.5140   35.8990   44.7460 C   0  0  0  0  0  0  0  0  0  0  0  0
   45.2020   36.0090   43.5170 C   0  0  0  0  0  0  0  0  0  0  0  0
   46.1370   35.0150   43.2250 C   0  0  0  0  0  0  0  0  0  0  0  0
   46.3360   34.0150   44.1200 N   0  0  0  0  0  0  0  0  0  0  0  0
   45.6520   33.9510   45.2860 C   0  0  0  0  0  0  0  0  0  0  0  0
   44.7510   34.8920   45.5850 N   0  0  0  0  0  0  0  0  0  0  0  0
   43.7820   36.6780   44.9730 H   0  0  0  0  0  0  0  0  0  0  0  0
   45.0230   36.8120   42.8290 H   0  0  0  0  0  0  0  0  0  0  0  0
   45.7770   33.1830   46.0190 H   0  0  0  0  0  0  0  0  0  0  0  0
   46.6500   33.9690   41.1300 N   0  0  0  0  0  0  0  0  0  0  0  0
   47.6370   33.7510   40.1260 C   0  0  0  0  0  2  0  0  0  0  0  0
   47.6860   32.2440   39.8940 C   0  0  0  0  0  2  0  0  0  0  0  0
   46.3090   31.8240   39.4800 C   0  0  0  0  0  3  0  0  0  0  0  0
   45.8530   31.0540   40.1680 H   0  0  0  0  0  0  0  0  0  0  0  0
   45.3230   32.9580   39.3740 C   0  0  0  0  0  2  0  0  0  0  0  0
   45.3450   33.8900   40.5490 C   0  0  0  0  0  2  0  0  0  0  0  0
  1  2  1  0  0  0  0
  1  6  1  0  0  0  0
  3  1  1  0  0  0  0
  4 10  1  0  0  0  0
  4  9  1  0  0  0  0
  5  4  2  0  0  0  0
  6  5  1  0  0  0  0
  6  7  2  0  0  0  0
  7  8  1  0  0  0  0
  8  9  2  0  0  0  0
  8 12  1  0  0  0  0
 11  5  1  0  0  0  0
 13  1  1  0  0  0  0
 14 13  1  0  0  0  0
 15 14  1  0  0  0  0
 16 15  1  0  0  0  0
 16 17  1  0  0  0  0
 18 16  1  0  0  0  0
 18 19  1  0  0  0  0
 19 13  1  0  0  0  0
M  END
>  <minimizedAffinity>
-3.55601072

>  <minimizedRMSD>
0.837712049

$$$$
