
 OpenBabel03252506163D

 21 22  0  0  0  0  0  0  0  0999 V2000
   45.0440   34.8940   44.3930 C   0  0  0  0  0  0  0  0  0  0  0  0
   44.9720   34.1670   43.1730 C   0  0  0  0  0  0  0  0  0  0  0  0
   45.2740   32.7950   43.2220 C   0  0  0  0  0  0  0  0  0  0  0  0
   45.6160   32.2480   44.4270 N   0  0  0  0  0  0  0  0  0  0  0  0
   45.6730   32.9790   45.5630 C   0  0  0  0  0  0  0  0  0  0  0  0
   45.3840   34.2990   45.5280 N   0  0  0  0  0  0  0  0  0  0  0  0
   44.7010   34.6000   42.2270 H   0  0  0  0  0  0  0  0  0  0  0  0
   45.2310   32.2070   42.3240 H   0  0  0  0  0  0  0  0  0  0  0  0
   46.0320   32.3820   46.8040 N   0  0  0  0  0  0  0  0  0  0  0  0
   45.2940   32.6550   48.0180 C   0  0  0  0  0  0  0  0  0  0  0  0
   45.0040   31.3790   48.7840 C   0  0  0  0  0  0  0  0  0  0  0  0
   46.3510   30.7970   49.1520 C   0  0  0  0  0  0  0  0  0  0  0  0
   46.2200   29.8910   49.7740 H   0  0  0  0  0  0  0  0  0  0  0  0
   47.0090   30.3740   47.8630 C   0  0  0  0  0  0  0  0  0  0  0  0
   47.1620   31.4750   46.8710 C   0  0  0  0  0  0  0  0  0  0  0  0
   44.7290   36.3140   44.3360 C   0  0  0  0  0  0  0  0  0  0  0  0
   45.3860   37.0960   43.5040 C   0  0  0  0  0  0  0  0  0  0  0  0
   45.1190   38.5450   43.3910 C   0  0  0  0  0  0  0  0  0  0  0  0
   45.0870   39.0570   44.3730 H   0  0  0  0  0  0  0  0  0  0  0  0
   45.9120   38.9510   42.7160 H   0  0  0  0  0  0  0  0  0  0  0  0
   44.1510   38.6680   42.8620 H   0  0  0  0  0  0  0  0  0  0  0  0
  1  6  1  0  0  0  0
  2  3  1  0  0  0  0
  2  1  2  0  0  0  0
  3  4  2  0  0  0  0
  4  5  1  0  0  0  0
  5  9  1  0  0  0  0
  6  5  2  0  0  0  0
  7  2  1  0  0  0  0
  8  3  1  0  0  0  0
  9 15  1  0  0  0  0
  9 10  1  0  0  0  0
 10 11  1  0  0  0  0
 11 12  1  0  0  0  0
 12 13  1  0  0  0  0
 14 12  1  0  0  0  0
 15 14  1  0  0  0  0
 16  1  1  0  0  0  0
 17 16  2  0  0  0  0
 18 17  1  0  0  0  0
 18 19  1  0  0  0  0
 20 18  1  0  0  0  0
 21 18  1  0  0  0  0
M  END
>  <minimizedAffinity>
-4.1359024

>  <minimizedRMSD>
2.47584677

$$$$
