
 OpenBabel03252506533D

 29 32  0  0  0  0  0  0  0  0999 V2000
   36.8900   30.4010   39.3940 C   0  0  0  0  0  0  0  0  0  0  0  0
   35.9570   29.3710   39.3160 C   0  0  0  0  0  0  0  0  0  0  0  0
   35.7170   28.4900   40.3500 C   0  0  0  0  0  0  0  0  0  0  0  0
   36.4300   28.6150   41.5420 C   0  0  0  0  0  0  0  0  0  0  0  0
   36.4680   27.9630   42.7330 N   0  0  0  0  0  0  0  0  0  0  0  0
   37.3880   28.5560   43.5300 C   0  0  0  0  0  0  0  0  0  0  0  0
   37.9110   29.5740   42.8190 N   0  0  0  0  0  0  0  0  0  0  0  0
   37.3460   29.6360   41.6010 C   0  0  0  0  0  0  0  0  0  0  0  0
   37.6070   30.5310   40.5830 C   0  0  0  0  0  0  0  0  0  0  0  0
   37.0110   31.0440   38.5300 H   0  0  0  0  0  0  0  0  0  0  0  0
   34.9990   27.6920   40.3020 H   0  0  0  0  0  0  0  0  0  0  0  0
   35.8480   27.1260   42.9400 H   0  0  0  0  0  0  0  0  0  0  0  0
   37.6110   28.2170   44.5480 H   0  0  0  0  0  0  0  0  0  0  0  0
   35.0710   29.1480   35.7530 C   0  0  0  0  0  0  0  0  0  0  0  0
   33.6830   28.8840   35.8090 C   0  0  0  0  0  0  0  0  0  0  0  0
   33.0660   28.7830   37.0620 C   0  0  0  0  0  0  0  0  0  0  0  0
   33.8790   28.9550   38.1430 N   0  0  0  0  0  0  0  0  0  0  0  0
   35.1890   29.2050   38.0860 C   0  0  0  0  0  0  0  0  0  0  0  0
   35.7850   29.3030   36.8940 N   0  0  0  0  0  0  0  0  0  0  0  0
   35.5000   29.2160   34.7790 H   0  0  0  0  0  0  0  0  0  0  0  0
   33.0400   28.7480   34.9750 H   0  0  0  0  0  0  0  0  0  0  0  0
   32.0110   28.5830   37.1820 H   0  0  0  0  0  0  0  0  0  0  0  0
   38.5390   31.5780   40.6300 N   0  0  0  0  0  0  0  0  0  0  0  0
   39.9700   31.5950   40.8920 C   0  0  0  0  0  2  0  0  0  0  0  0
   40.6110   32.3710   39.7510 C   0  0  0  0  0  2  0  0  0  0  0  0
   40.0750   33.7600   39.6580 C   0  0  0  0  0  3  0  0  0  0  0  0
   40.8470   34.5240   39.8920 H   0  0  0  0  0  0  0  0  0  0  0  0
   38.9090   33.9940   40.5930 C   0  0  0  0  0  2  0  0  0  0  0  0
   37.9090   32.8680   40.3600 C   0  0  0  0  0  2  0  0  0  0  0  0
  1  9  1  0  0  0  0
  2  1  2  0  0  0  0
  2  3  1  0  0  0  0
  3  4  2  0  0  0  0
  4  8  1  0  0  0  0
  4  5  1  0  0  0  0
  5 12  1  0  0  0  0
  5  6  1  0  0  0  0
  6 13  1  0  0  0  0
  7  6  2  0  0  0  0
  8  7  1  0  0  0  0
  9 23  1  0  0  0  0
  9  8  2  0  0  0  0
 10  1  1  0  0  0  0
 11  3  1  0  0  0  0
 14 15  2  0  0  0  0
 14 19  1  0  0  0  0
 15 16  1  0  0  0  0
 16 22  1  0  0  0  0
 16 17  2  0  0  0  0
 18 17  1  0  0  0  0
 18  2  1  0  0  0  0
 19 18  2  0  0  0  0
 20 14  1  0  0  0  0
 21 15  1  0  0  0  0
 23 24  1  0  0  0  0
 25 24  1  0  0  0  0
 26 25  1  0  0  0  0
 26 27  1  0  0  0  0
 26 28  1  0  0  0  0
 29 28  1  0  0  0  0
 29 23  1  0  0  0  0
M  END
>  <minimizedAffinity>
-5.56971884

$$$$

 OpenBabel03252506533D

 29 32  0  0  0  0  0  0  0  0999 V2000
   37.1190   29.5330   39.8570 C   0  0  0  0  0  0  0  0  0  0  0  0
   36.7450   30.2600   38.7300 C   0  0  0  0  0  0  0  0  0  0  0  0
   37.1570   31.5550   38.4970 C   0  0  0  0  0  0  0  0  0  0  0  0
   37.9880   32.1910   39.4200 C   0  0  0  0  0  0  0  0  0  0  0  0
   38.5750   33.4110   39.5300 N   0  0  0  0  0  0  0  0  0  0  0  0
   39.2900   33.4540   40.6800 C   0  0  0  0  0  0  0  0  0  0  0  0
   39.1360   32.2520   41.2690 N   0  0  0  0  0  0  0  0  0  0  0  0
   38.3460   31.4590   40.5240 C   0  0  0  0  0  0  0  0  0  0  0  0
   37.9490   30.1630   40.7830 C   0  0  0  0  0  0  0  0  0  0  0  0
   36.7460   28.5200   39.9550 H   0  0  0  0  0  0  0  0  0  0  0  0
   36.8760   32.1270   37.6320 H   0  0  0  0  0  0  0  0  0  0  0  0
   38.4510   34.1680   38.7950 H   0  0  0  0  0  0  0  0  0  0  0  0
   39.8600   34.3320   41.0030 H   0  0  0  0  0  0  0  0  0  0  0  0
   35.3840   29.0780   35.5240 C   0  0  0  0  0  0  0  0  0  0  0  0
   34.1940   28.4310   35.9280 C   0  0  0  0  0  0  0  0  0  0  0  0
   33.8700   28.4050   37.2900 C   0  0  0  0  0  0  0  0  0  0  0  0
   34.7530   29.0230   38.1250 N   0  0  0  0  0  0  0  0  0  0  0  0
   35.8760   29.6320   37.7400 C   0  0  0  0  0  0  0  0  0  0  0  0
   36.1920   29.6610   36.4420 N   0  0  0  0  0  0  0  0  0  0  0  0
   35.5930   29.0740   34.4780 H   0  0  0  0  0  0  0  0  0  0  0  0
   33.4990   27.9480   35.2880 H   0  0  0  0  0  0  0  0  0  0  0  0
   32.9770   27.9310   37.6710 H   0  0  0  0  0  0  0  0  0  0  0  0
   38.3080   29.4040   41.9070 N   0  0  0  0  0  0  0  0  0  0  0  0
   37.7150   29.2860   43.2300 C   0  0  0  0  0  2  0  0  0  0  0  0
   37.5290   27.7990   43.4920 C   0  0  0  0  0  2  0  0  0  0  0  0
   38.8240   27.0610   43.4260 C   0  0  0  0  0  3  0  0  0  0  0  0
   39.1200   26.6450   44.4130 H   0  0  0  0  0  0  0  0  0  0  0  0
   39.9620   27.9300   42.9400 C   0  0  0  0  0  2  0  0  0  0  0  0
   39.5010   28.6010   41.6510 C   0  0  0  0  0  2  0  0  0  0  0  0
  1 10  1  0  0  0  0
  1  9  1  0  0  0  0
  2  1  2  0  0  0  0
  3  2  1  0  0  0  0
  3  4  2  0  0  0  0
  4  5  1  0  0  0  0
  4  8  1  0  0  0  0
  5  6  1  0  0  0  0
  6 13  1  0  0  0  0
  6  7  2  0  0  0  0
  8  9  2  0  0  0  0
  8  7  1  0  0  0  0
  9 23  1  0  0  0  0
 11  3  1  0  0  0  0
 12  5  1  0  0  0  0
 14 15  2  0  0  0  0
 14 19  1  0  0  0  0
 15 16  1  0  0  0  0
 16 22  1  0  0  0  0
 16 17  2  0  0  0  0
 18 17  1  0  0  0  0
 18  2  1  0  0  0  0
 19 18  2  0  0  0  0
 20 14  1  0  0  0  0
 21 15  1  0  0  0  0
 23 24  1  0  0  0  0
 24 25  1  0  0  0  0
 26 25  1  0  0  0  0
 26 27  1  0  0  0  0
 28 26  1  0  0  0  0
 29 23  1  0  0  0  0
 29 28  1  0  0  0  0
M  END
>  <minimizedAffinity>
-5.4775548

$$$$

 OpenBabel03252506533D

 29 32  0  0  0  0  0  0  0  0999 V2000
   40.0000   31.5230   40.9940 C   0  0  0  0  0  0  0  0  0  0  0  0
   40.8630   32.2510   40.1800 C   0  0  0  0  0  0  0  0  0  0  0  0
   40.6130   32.4960   38.8460 C   0  0  0  0  0  0  0  0  0  0  0  0
   39.4480   32.0030   38.2600 C   0  0  0  0  0  0  0  0  0  0  0  0
   38.8820   32.0390   37.0250 N   0  0  0  0  0  0  0  0  0  0  0  0
   37.7090   31.3620   37.0590 C   0  0  0  0  0  0  0  0  0  0  0  0
   37.5630   30.9130   38.3210 N   0  0  0  0  0  0  0  0  0  0  0  0
   38.6090   31.2890   39.0780 C   0  0  0  0  0  0  0  0  0  0  0  0
   38.8330   31.0280   40.4150 C   0  0  0  0  0  0  0  0  0  0  0  0
   40.2790   31.3810   42.0320 H   0  0  0  0  0  0  0  0  0  0  0  0
   41.2720   33.0560   38.2070 H   0  0  0  0  0  0  0  0  0  0  0  0
   39.3400   32.5370   36.2060 H   0  0  0  0  0  0  0  0  0  0  0  0
   37.0570   31.2430   36.1870 H   0  0  0  0  0  0  0  0  0  0  0  0
   43.9780   34.1610   40.6080 C   0  0  0  0  0  0  0  0  0  0  0  0
   44.4040   33.7480   41.8910 C   0  0  0  0  0  0  0  0  0  0  0  0
   43.6230   32.8230   42.5960 C   0  0  0  0  0  0  0  0  0  0  0  0
   42.4940   32.3920   41.9650 N   0  0  0  0  0  0  0  0  0  0  0  0
   42.0950   32.7850   40.7530 C   0  0  0  0  0  0  0  0  0  0  0  0
   42.8340   33.6660   40.0740 N   0  0  0  0  0  0  0  0  0  0  0  0
   44.6010   34.8650   40.1070 H   0  0  0  0  0  0  0  0  0  0  0  0
   45.2800   34.0760   42.3920 H   0  0  0  0  0  0  0  0  0  0  0  0
   43.8870   32.4630   43.5790 H   0  0  0  0  0  0  0  0  0  0  0  0
   37.9840   30.3000   41.2620 N   0  0  0  0  0  0  0  0  0  0  0  0
   36.5340   30.2100   41.3420 C   0  0  0  0  0  2  0  0  0  0  0  0
   36.1890   28.7280   41.3230 C   0  0  0  0  0  2  0  0  0  0  0  0
   36.8270   27.9980   42.4580 C   0  0  0  0  0  3  0  0  0  0  0  0
   36.0780   27.6090   43.1800 H   0  0  0  0  0  0  0  0  0  0  0  0
   37.7960   28.8640   43.2310 C   0  0  0  0  0  2  0  0  0  0  0  0
   38.7430   29.5000   42.2200 C   0  0  0  0  0  2  0  0  0  0  0  0
  1 10  1  0  0  0  0
  2 18  1  0  0  0  0
  2  1  2  0  0  0  0
  3  2  1  0  0  0  0
  4  3  2  0  0  0  0
  4  8  1  0  0  0  0
  5  6  1  0  0  0  0
  5  4  1  0  0  0  0
  6  7  2  0  0  0  0
  7  8  1  0  0  0  0
  8  9  2  0  0  0  0
  9  1  1  0  0  0  0
  9 23  1  0  0  0  0
 11  3  1  0  0  0  0
 12  5  1  0  0  0  0
 13  6  1  0  0  0  0
 14 15  1  0  0  0  0
 15 21  1  0  0  0  0
 15 16  2  0  0  0  0
 16 22  1  0  0  0  0
 17 16  1  0  0  0  0
 18 17  2  0  0  0  0
 19 14  2  0  0  0  0
 19 18  1  0  0  0  0
 20 14  1  0  0  0  0
 23 24  1  0  0  0  0
 23 29  1  0  0  0  0
 25 24  1  0  0  0  0
 25 26  1  0  0  0  0
 26 27  1  0  0  0  0
 26 28  1  0  0  0  0
 29 28  1  0  0  0  0
M  END
>  <minimizedAffinity>
-5.40670681

$$$$

 OpenBabel03252506533D

 29 32  0  0  0  0  0  0  0  0999 V2000
   36.2820   27.0100   39.4310 C   0  0  0  0  0  0  0  0  0  0  0  0
   35.6710   28.2580   39.3470 C   0  0  0  0  0  0  0  0  0  0  0  0
   35.7710   29.2150   40.3350 C   0  0  0  0  0  0  0  0  0  0  0  0
   36.5130   28.9440   41.4850 C   0  0  0  0  0  0  0  0  0  0  0  0
   36.8270   29.6100   42.6260 N   0  0  0  0  0  0  0  0  0  0  0  0
   37.6040   28.8150   43.4000 C   0  0  0  0  0  0  0  0  0  0  0  0
   37.7630   27.6610   42.7230 N   0  0  0  0  0  0  0  0  0  0  0  0
   37.1080   27.7090   41.5500 C   0  0  0  0  0  0  0  0  0  0  0  0
   37.0260   26.7340   40.5770 C   0  0  0  0  0  0  0  0  0  0  0  0
   36.1490   26.3220   38.6040 H   0  0  0  0  0  0  0  0  0  0  0  0
   35.3040   30.1810   40.2820 H   0  0  0  0  0  0  0  0  0  0  0  0
   36.4830   30.5960   42.8200 H   0  0  0  0  0  0  0  0  0  0  0  0
   37.9930   29.1200   44.3780 H   0  0  0  0  0  0  0  0  0  0  0  0
   32.8470   29.1320   37.1580 C   0  0  0  0  0  0  0  0  0  0  0  0
   33.4620   29.1820   35.8870 C   0  0  0  0  0  0  0  0  0  0  0  0
   34.8340   28.9170   35.7910 C   0  0  0  0  0  0  0  0  0  0  0  0
   35.4690   28.6270   36.9610 N   0  0  0  0  0  0  0  0  0  0  0  0
   34.8850   28.5810   38.1610 C   0  0  0  0  0  0  0  0  0  0  0  0
   33.5760   28.8320   38.2600 N   0  0  0  0  0  0  0  0  0  0  0  0
   31.8020   29.3400   37.1860 H   0  0  0  0  0  0  0  0  0  0  0  0
   32.9790   29.4060   34.9680 H   0  0  0  0  0  0  0  0  0  0  0  0
   35.3710   28.9360   34.8530 H   0  0  0  0  0  0  0  0  0  0  0  0
   37.6300   25.4680   40.6310 N   0  0  0  0  0  0  0  0  0  0  0  0
   37.3180   24.2740   41.4010 C   0  0  0  0  0  2  0  0  0  0  0  0
   37.2420   23.1240   40.4080 C   0  0  0  0  0  2  0  0  0  0  0  0
   38.5240   22.9530   39.6640 C   0  0  0  0  0  3  0  0  0  0  0  0
   39.0270   21.9930   39.9110 H   0  0  0  0  0  0  0  0  0  0  0  0
   39.5090   24.0650   39.9440 C   0  0  0  0  0  2  0  0  0  0  0  0
   38.7760   25.3840   39.7300 C   0  0  0  0  0  2  0  0  0  0  0  0
  1  9  1  0  0  0  0
  2  1  2  0  0  0  0
  2  3  1  0  0  0  0
  3  4  2  0  0  0  0
  4  8  1  0  0  0  0
  4  5  1  0  0  0  0
  5 12  1  0  0  0  0
  5  6  1  0  0  0  0
  6 13  1  0  0  0  0
  7  6  2  0  0  0  0
  8  7  1  0  0  0  0
  9 23  1  0  0  0  0
  9  8  2  0  0  0  0
 10  1  1  0  0  0  0
 11  3  1  0  0  0  0
 14 20  1  0  0  0  0
 14 19  1  0  0  0  0
 15 14  2  0  0  0  0
 16 15  1  0  0  0  0
 16 17  2  0  0  0  0
 17 18  1  0  0  0  0
 18 19  2  0  0  0  0
 18  2  1  0  0  0  0
 21 15  1  0  0  0  0
 22 16  1  0  0  0  0
 23 24  1  0  0  0  0
 25 24  1  0  0  0  0
 26 27  1  0  0  0  0
 26 28  1  0  0  0  0
 26 25  1  0  0  0  0
 29 28  1  0  0  0  0
 29 23  1  0  0  0  0
M  END
>  <minimizedAffinity>
-5.25839901

$$$$

 OpenBabel03252506533D

 29 32  0  0  0  0  0  0  0  0999 V2000
   37.4960   29.6790   39.1750 C   0  0  0  0  0  0  0  0  0  0  0  0
   37.0080   30.0640   37.9300 C   0  0  0  0  0  0  0  0  0  0  0  0
   37.6670   30.9470   37.1010 C   0  0  0  0  0  0  0  0  0  0  0  0
   38.8840   31.4960   37.5060 C   0  0  0  0  0  0  0  0  0  0  0  0
   39.7880   32.3650   36.9840 N   0  0  0  0  0  0  0  0  0  0  0  0
   40.8060   32.5230   37.8630 C   0  0  0  0  0  0  0  0  0  0  0  0
   40.5170   31.7450   38.9250 N   0  0  0  0  0  0  0  0  0  0  0  0
   39.3490   31.1050   38.7360 C   0  0  0  0  0  0  0  0  0  0  0  0
   38.7110   30.2240   39.5860 C   0  0  0  0  0  0  0  0  0  0  0  0
   36.9080   28.9780   39.7570 H   0  0  0  0  0  0  0  0  0  0  0  0
   37.3010   31.2520   36.1370 H   0  0  0  0  0  0  0  0  0  0  0  0
   39.6560   32.8150   36.0300 H   0  0  0  0  0  0  0  0  0  0  0  0
   41.6660   33.1750   37.6780 H   0  0  0  0  0  0  0  0  0  0  0  0
   33.5970   28.6860   37.9080 C   0  0  0  0  0  0  0  0  0  0  0  0
   33.3710   28.4770   36.5290 C   0  0  0  0  0  0  0  0  0  0  0  0
   34.3840   28.8090   35.6220 C   0  0  0  0  0  0  0  0  0  0  0  0
   35.5280   29.3160   36.1640 N   0  0  0  0  0  0  0  0  0  0  0  0
   35.7380   29.5130   37.4670 C   0  0  0  0  0  0  0  0  0  0  0  0
   34.7750   29.1980   38.3390 N   0  0  0  0  0  0  0  0  0  0  0  0
   32.8000   28.4200   38.5640 H   0  0  0  0  0  0  0  0  0  0  0  0
   32.4860   28.0830   36.0950 H   0  0  0  0  0  0  0  0  0  0  0  0
   34.2830   28.6770   34.5540 H   0  0  0  0  0  0  0  0  0  0  0  0
   39.1770   29.8160   40.8450 N   0  0  0  0  0  0  0  0  0  0  0  0
   39.0370   30.4010   42.1700 C   0  0  0  0  0  2  0  0  0  0  0  0
   38.5200   29.2960   43.0800 C   0  0  0  0  0  2  0  0  0  0  0  0
   39.4500   28.1290   43.1130 C   0  0  0  0  0  3  0  0  0  0  0  0
   39.9150   27.9920   44.1130 H   0  0  0  0  0  0  0  0  0  0  0  0
   40.5710   28.2530   42.1050 C   0  0  0  0  0  2  0  0  0  0  0  0
   39.9350   28.5700   40.7570 C   0  0  0  0  0  2  0  0  0  0  0  0
  1  9  1  0  0  0  0
  1 10  1  0  0  0  0
  2  1  2  0  0  0  0
  3  4  2  0  0  0  0
  3  2  1  0  0  0  0
  4  8  1  0  0  0  0
  5  4  1  0  0  0  0
  5  6  1  0  0  0  0
  6  7  2  0  0  0  0
  8  7  1  0  0  0  0
  8  9  2  0  0  0  0
  9 23  1  0  0  0  0
 11  3  1  0  0  0  0
 12  5  1  0  0  0  0
 13  6  1  0  0  0  0
 14 19  1  0  0  0  0
 14 20  1  0  0  0  0
 15 14  2  0  0  0  0
 16 17  2  0  0  0  0
 16 15  1  0  0  0  0
 17 18  1  0  0  0  0
 18  2  1  0  0  0  0
 18 19  2  0  0  0  0
 21 15  1  0  0  0  0
 22 16  1  0  0  0  0
 23 24  1  0  0  0  0
 24 25  1  0  0  0  0
 25 26  1  0  0  0  0
 26 27  1  0  0  0  0
 28 26  1  0  0  0  0
 29 23  1  0  0  0  0
 29 28  1  0  0  0  0
M  END
>  <minimizedAffinity>
-5.22717619

$$$$

 OpenBabel03252506533D

 29 32  0  0  0  0  0  0  0  0999 V2000
   37.5220   28.8820   40.4120 C   0  0  0  0  0  0  0  0  0  0  0  0
   38.4480   29.2000   41.4010 C   0  0  0  0  0  0  0  0  0  0  0  0
   38.8520   30.4910   41.6690 C   0  0  0  0  0  0  0  0  0  0  0  0
   38.3220   31.5480   40.9290 C   0  0  0  0  0  0  0  0  0  0  0  0
   38.4720   32.8980   40.9050 N   0  0  0  0  0  0  0  0  0  0  0  0
   37.6720   33.4120   39.9390 C   0  0  0  0  0  0  0  0  0  0  0  0
   37.0350   32.3670   39.3760 N   0  0  0  0  0  0  0  0  0  0  0  0
   37.4110   31.2150   39.9580 C   0  0  0  0  0  0  0  0  0  0  0  0
   36.9890   29.9330   39.6680 C   0  0  0  0  0  0  0  0  0  0  0  0
   37.2650   27.8380   40.2720 H   0  0  0  0  0  0  0  0  0  0  0  0
   39.5660   30.7490   42.4300 H   0  0  0  0  0  0  0  0  0  0  0  0
   39.1290   33.4070   41.5660 H   0  0  0  0  0  0  0  0  0  0  0  0
   37.6090   34.4820   39.7170 H   0  0  0  0  0  0  0  0  0  0  0  0
   40.6590   27.3360   43.6750 C   0  0  0  0  0  0  0  0  0  0  0  0
   40.0670   26.0530   43.6760 C   0  0  0  0  0  0  0  0  0  0  0  0
   38.9200   25.8380   42.9020 C   0  0  0  0  0  0  0  0  0  0  0  0
   38.4660   26.9120   42.1970 N   0  0  0  0  0  0  0  0  0  0  0  0
   39.0270   28.1240   42.1990 C   0  0  0  0  0  0  0  0  0  0  0  0
   40.1220   28.3370   42.9350 N   0  0  0  0  0  0  0  0  0  0  0  0
   41.5290   27.4560   44.2780 H   0  0  0  0  0  0  0  0  0  0  0  0
   40.4110   25.2080   44.2200 H   0  0  0  0  0  0  0  0  0  0  0  0
   38.4160   24.8830   42.8540 H   0  0  0  0  0  0  0  0  0  0  0  0
   36.0580   29.5810   38.6790 N   0  0  0  0  0  0  0  0  0  0  0  0
   36.1290   29.5970   37.2260 C   0  0  0  0  0  2  0  0  0  0  0  0
   35.6970   28.2170   36.7540 C   0  0  0  0  0  2  0  0  0  0  0  0
   34.3160   27.8850   37.2120 C   0  0  0  0  0  3  0  0  0  0  0  0
   33.6020   27.8040   36.3640 H   0  0  0  0  0  0  0  0  0  0  0  0
   33.7620   28.9120   38.1730 C   0  0  0  0  0  2  0  0  0  0  0  0
   34.8030   29.1170   39.2670 C   0  0  0  0  0  2  0  0  0  0  0  0
  1  2  1  0  0  0  0
  2  3  2  0  0  0  0
  2 18  1  0  0  0  0
  3 11  1  0  0  0  0
  4  3  1  0  0  0  0
  5  4  1  0  0  0  0
  5 12  1  0  0  0  0
  6  5  1  0  0  0  0
  7  6  2  0  0  0  0
  7  8  1  0  0  0  0
  8  4  2  0  0  0  0
  9  8  1  0  0  0  0
  9  1  2  0  0  0  0
 10  1  1  0  0  0  0
 13  6  1  0  0  0  0
 14 15  1  0  0  0  0
 14 20  1  0  0  0  0
 15 21  1  0  0  0  0
 16 15  2  0  0  0  0
 17 18  2  0  0  0  0
 17 16  1  0  0  0  0
 18 19  1  0  0  0  0
 19 14  2  0  0  0  0
 22 16  1  0  0  0  0
 23 29  1  0  0  0  0
 23  9  1  0  0  0  0
 24 23  1  0  0  0  0
 25 26  1  0  0  0  0
 25 24  1  0  0  0  0
 26 28  1  0  0  0  0
 27 26  1  0  0  0  0
 28 29  1  0  0  0  0
M  END
>  <minimizedAffinity>
-5.16627932

$$$$

 OpenBabel03252506533D

 29 32  0  0  0  0  0  0  0  0999 V2000
   39.6390   29.7840   39.4870 C   0  0  0  0  0  0  0  0  0  0  0  0
   40.4720   30.3960   38.5550 C   0  0  0  0  0  0  0  0  0  0  0  0
   40.5460   31.7630   38.3920 C   0  0  0  0  0  0  0  0  0  0  0  0
   39.7580   32.5960   39.1860 C   0  0  0  0  0  0  0  0  0  0  0  0
   39.5650   33.9350   39.3100 N   0  0  0  0  0  0  0  0  0  0  0  0
   38.6470   34.1600   40.2800 C   0  0  0  0  0  0  0  0  0  0  0  0
   38.2820   32.9500   40.7470 N   0  0  0  0  0  0  0  0  0  0  0  0
   38.9430   31.9750   40.0990 C   0  0  0  0  0  0  0  0  0  0  0  0
   38.8490   30.6100   40.2830 C   0  0  0  0  0  0  0  0  0  0  0  0
   39.6480   28.7010   39.5440 H   0  0  0  0  0  0  0  0  0  0  0  0
   41.1860   32.2470   37.6760 H   0  0  0  0  0  0  0  0  0  0  0  0
   40.0850   34.6400   38.7080 H   0  0  0  0  0  0  0  0  0  0  0  0
   38.3150   35.1610   40.5740 H   0  0  0  0  0  0  0  0  0  0  0  0
   42.1280   27.4610   37.0780 C   0  0  0  0  0  0  0  0  0  0  0  0
   42.9230   28.0480   36.0670 C   0  0  0  0  0  0  0  0  0  0  0  0
   42.8840   29.4370   35.9000 C   0  0  0  0  0  0  0  0  0  0  0  0
   42.0640   30.1180   36.7500 N   0  0  0  0  0  0  0  0  0  0  0  0
   41.3140   29.5600   37.7030 C   0  0  0  0  0  0  0  0  0  0  0  0
   41.3460   28.2350   37.8690 N   0  0  0  0  0  0  0  0  0  0  0  0
   42.1870   26.4010   37.1700 H   0  0  0  0  0  0  0  0  0  0  0  0
   43.5650   27.5290   35.4000 H   0  0  0  0  0  0  0  0  0  0  0  0
   43.4650   29.9540   35.1490 H   0  0  0  0  0  0  0  0  0  0  0  0
   38.0200   29.9640   41.2130 N   0  0  0  0  0  0  0  0  0  0  0  0
   36.5780   29.7730   41.2630 C   0  0  0  0  0  2  0  0  0  0  0  0
   36.3450   28.2840   41.4780 C   0  0  0  0  0  2  0  0  0  0  0  0
   36.9850   27.8020   42.7360 C   0  0  0  0  0  3  0  0  0  0  0  0
   36.2360   27.4770   43.4900 H   0  0  0  0  0  0  0  0  0  0  0  0
   37.8530   28.8570   43.3850 C   0  0  0  0  0  2  0  0  0  0  0  0
   38.7940   29.3930   42.3120 C   0  0  0  0  0  2  0  0  0  0  0  0
  1 10  1  0  0  0  0
  1  9  1  0  0  0  0
  2  1  2  0  0  0  0
  3  2  1  0  0  0  0
  3  4  2  0  0  0  0
  4  5  1  0  0  0  0
  4  8  1  0  0  0  0
  5  6  1  0  0  0  0
  6 13  1  0  0  0  0
  6  7  2  0  0  0  0
  8  9  2  0  0  0  0
  8  7  1  0  0  0  0
  9 23  1  0  0  0  0
 11  3  1  0  0  0  0
 12  5  1  0  0  0  0
 14 20  1  0  0  0  0
 14 19  1  0  0  0  0
 15 14  2  0  0  0  0
 16 15  1  0  0  0  0
 16 17  2  0  0  0  0
 17 18  1  0  0  0  0
 18 19  2  0  0  0  0
 18  2  1  0  0  0  0
 21 15  1  0  0  0  0
 22 16  1  0  0  0  0
 23 24  1  0  0  0  0
 23 29  1  0  0  0  0
 24 25  1  0  0  0  0
 25 26  1  0  0  0  0
 26 28  1  0  0  0  0
 26 27  1  0  0  0  0
 29 28  1  0  0  0  0
M  END
>  <minimizedAffinity>
-5.13692236

$$$$

 OpenBabel03252506533D

 29 32  0  0  0  0  0  0  0  0999 V2000
   39.6270   30.1610   41.2130 C   0  0  0  0  0  0  0  0  0  0  0  0
   38.2670   29.8690   41.2660 C   0  0  0  0  0  0  0  0  0  0  0  0
   37.2870   30.7810   40.9360 C   0  0  0  0  0  0  0  0  0  0  0  0
   37.6480   32.0650   40.5280 C   0  0  0  0  0  0  0  0  0  0  0  0
   36.9920   33.1890   40.1400 N   0  0  0  0  0  0  0  0  0  0  0  0
   37.9010   34.1530   39.8540 C   0  0  0  0  0  0  0  0  0  0  0  0
   39.1140   33.6080   40.0700 N   0  0  0  0  0  0  0  0  0  0  0  0
   38.9930   32.3340   40.4820 C   0  0  0  0  0  0  0  0  0  0  0  0
   39.9950   31.4420   40.8060 C   0  0  0  0  0  0  0  0  0  0  0  0
   40.3260   29.3800   41.4910 H   0  0  0  0  0  0  0  0  0  0  0  0
   36.2340   30.5680   40.9730 H   0  0  0  0  0  0  0  0  0  0  0  0
   35.9320   33.2380   40.0910 H   0  0  0  0  0  0  0  0  0  0  0  0
   37.6270   35.1580   39.5170 H   0  0  0  0  0  0  0  0  0  0  0  0
   37.8380   26.2180   41.4000 C   0  0  0  0  0  0  0  0  0  0  0  0
   37.0150   26.0590   42.5370 C   0  0  0  0  0  0  0  0  0  0  0  0
   36.6160   27.1980   43.2470 C   0  0  0  0  0  0  0  0  0  0  0  0
   37.0680   28.3900   42.7630 N   0  0  0  0  0  0  0  0  0  0  0  0
   37.8460   28.5370   41.6880 C   0  0  0  0  0  0  0  0  0  0  0  0
   38.2300   27.4540   41.0060 N   0  0  0  0  0  0  0  0  0  0  0  0
   38.1180   25.3250   40.8900 H   0  0  0  0  0  0  0  0  0  0  0  0
   36.6560   25.1370   42.9240 H   0  0  0  0  0  0  0  0  0  0  0  0
   35.9880   27.1530   44.1240 H   0  0  0  0  0  0  0  0  0  0  0  0
   41.3730   31.7050   40.7630 N   0  0  0  0  0  0  0  0  0  0  0  0
   42.2260   32.5560   41.5780 C   0  0  0  0  0  2  0  0  0  0  0  0
   43.3900   31.6910   42.0380 C   0  0  0  0  0  2  0  0  0  0  0  0
   44.1510   31.1300   40.8840 C   0  0  0  0  0  3  0  0  0  0  0  0
   45.1830   31.5380   40.8240 H   0  0  0  0  0  0  0  0  0  0  0  0
   43.4780   31.4050   39.5580 C   0  0  0  0  0  2  0  0  0  0  0  0
   42.0250   30.9630   39.6860 C   0  0  0  0  0  2  0  0  0  0  0  0
  1  2  1  0  0  0  0
  1 10  1  0  0  0  0
  2 18  1  0  0  0  0
  3 11  1  0  0  0  0
  3  2  2  0  0  0  0
  4  3  1  0  0  0  0
  5  4  1  0  0  0  0
  6  7  2  0  0  0  0
  6  5  1  0  0  0  0
  7  8  1  0  0  0  0
  8  4  2  0  0  0  0
  8  9  1  0  0  0  0
  9  1  2  0  0  0  0
 12  5  1  0  0  0  0
 13  6  1  0  0  0  0
 14 15  1  0  0  0  0
 15 21  1  0  0  0  0
 15 16  2  0  0  0  0
 16 22  1  0  0  0  0
 17 16  1  0  0  0  0
 18 17  2  0  0  0  0
 19 14  2  0  0  0  0
 19 18  1  0  0  0  0
 20 14  1  0  0  0  0
 23  9  1  0  0  0  0
 23 24  1  0  0  0  0
 24 25  1  0  0  0  0
 26 25  1  0  0  0  0
 27 26  1  0  0  0  0
 28 29  1  0  0  0  0
 28 26  1  0  0  0  0
 29 23  1  0  0  0  0
M  END
>  <minimizedAffinity>
-5.11258364

$$$$

 OpenBabel03252506533D

 29 32  0  0  0  0  0  0  0  0999 V2000
   39.5270   30.2500   38.1880 C   0  0  0  0  0  0  0  0  0  0  0  0
   40.6100   31.0800   37.9100 C   0  0  0  0  0  0  0  0  0  0  0  0
   40.6770   32.3950   38.3180 C   0  0  0  0  0  0  0  0  0  0  0  0
   39.6220   32.9470   39.0450 C   0  0  0  0  0  0  0  0  0  0  0  0
   39.3400   34.1560   39.5950 N   0  0  0  0  0  0  0  0  0  0  0  0
   38.1270   34.0940   40.1970 C   0  0  0  0  0  0  0  0  0  0  0  0
   37.6730   32.8390   40.0100 N   0  0  0  0  0  0  0  0  0  0  0  0
   38.5630   32.1150   39.3100 C   0  0  0  0  0  0  0  0  0  0  0  0
   38.4700   30.7950   38.9150 C   0  0  0  0  0  0  0  0  0  0  0  0
   39.5630   29.2290   37.8270 H   0  0  0  0  0  0  0  0  0  0  0  0
   41.5070   33.0450   38.1090 H   0  0  0  0  0  0  0  0  0  0  0  0
   40.0070   34.9790   39.5280 H   0  0  0  0  0  0  0  0  0  0  0  0
   37.6680   34.9410   40.7170 H   0  0  0  0  0  0  0  0  0  0  0  0
   42.7690   28.7790   36.0180 C   0  0  0  0  0  0  0  0  0  0  0  0
   43.8870   29.5940   35.7290 C   0  0  0  0  0  0  0  0  0  0  0  0
   43.8920   30.9180   36.1830 C   0  0  0  0  0  0  0  0  0  0  0  0
   42.7900   31.3140   36.8810 N   0  0  0  0  0  0  0  0  0  0  0  0
   41.7350   30.5420   37.1510 C   0  0  0  0  0  0  0  0  0  0  0  0
   41.7230   29.2770   36.7220 N   0  0  0  0  0  0  0  0  0  0  0  0
   42.8060   27.7780   35.6540 H   0  0  0  0  0  0  0  0  0  0  0  0
   44.7510   29.2980   35.1870 H   0  0  0  0  0  0  0  0  0  0  0  0
   44.7120   31.5980   36.0000 H   0  0  0  0  0  0  0  0  0  0  0  0
   37.3940   29.9340   39.1790 N   0  0  0  0  0  0  0  0  0  0  0  0
   37.1100   29.0480   40.2970 C   0  0  0  0  0  2  0  0  0  0  0  0
   35.7010   29.3780   40.7670 C   0  0  0  0  0  2  0  0  0  0  0  0
   34.6990   29.1920   39.6780 C   0  0  0  0  0  3  0  0  0  0  0  0
   33.9930   28.3610   39.8950 H   0  0  0  0  0  0  0  0  0  0  0  0
   35.3430   28.9020   38.3410 C   0  0  0  0  0  2  0  0  0  0  0  0
   36.4030   29.9720   38.1070 C   0  0  0  0  0  2  0  0  0  0  0  0
  1  9  1  0  0  0  0
  2  1  2  0  0  0  0
  2  3  1  0  0  0  0
  3  4  2  0  0  0  0
  4  8  1  0  0  0  0
  4  5  1  0  0  0  0
  5  6  1  0  0  0  0
  6 13  1  0  0  0  0
  7  6  2  0  0  0  0
  8  7  1  0  0  0  0
  9 23  1  0  0  0  0
  9  8  2  0  0  0  0
 10  1  1  0  0  0  0
 11  3  1  0  0  0  0
 12  5  1  0  0  0  0
 14 19  1  0  0  0  0
 15 14  2  0  0  0  0
 15 16  1  0  0  0  0
 16 17  2  0  0  0  0
 17 18  1  0  0  0  0
 18  2  1  0  0  0  0
 19 18  2  0  0  0  0
 20 14  1  0  0  0  0
 21 15  1  0  0  0  0
 22 16  1  0  0  0  0
 23 24  1  0  0  0  0
 24 25  1  0  0  0  0
 26 27  1  0  0  0  0
 26 25  1  0  0  0  0
 28 26  1  0  0  0  0
 29 28  1  0  0  0  0
 29 23  1  0  0  0  0
M  END
>  <minimizedAffinity>
-5.09886265

$$$$
