
 OpenBabel03252509283D

 19 20  0  0  0  0  0  0  0  0999 V2000
   47.2620   34.2820   42.2830 C   0  0  0  0  0  0  0  0  0  0  0  0
   47.9730   33.4620   42.5910 H   0  0  0  0  0  0  0  0  0  0  0  0
   47.8990   35.1370   42.0240 H   0  0  0  0  0  0  0  0  0  0  0  0
   44.6440   36.0420   44.2490 C   0  0  0  0  0  0  0  0  0  0  0  0
   45.5310   35.7240   43.1970 C   0  0  0  0  0  0  0  0  0  0  0  0
   46.3470   34.6060   43.3760 C   0  0  0  0  0  0  0  0  0  0  0  0
   46.2510   33.8970   44.5290 N   0  0  0  0  0  0  0  0  0  0  0  0
   45.3840   34.2400   45.5100 C   0  0  0  0  0  0  0  0  0  0  0  0
   44.5930   35.3070   45.3590 N   0  0  0  0  0  0  0  0  0  0  0  0
   44.0050   36.9170   44.1080 H   0  0  0  0  0  0  0  0  0  0  0  0
   45.5850   36.3030   42.2960 H   0  0  0  0  0  0  0  0  0  0  0  0
   45.2750   33.7120   46.4320 H   0  0  0  0  0  0  0  0  0  0  0  0
   46.5470   33.9010   41.0930 N   0  0  0  0  0  0  0  0  0  0  0  0
   45.9130   32.6260   41.1360 C   0  0  0  0  0  2  0  0  0  0  0  0
   44.7100   32.7140   40.2020 C   0  0  0  0  0  2  0  0  0  0  0  0
   45.2380   33.0730   38.8480 C   0  0  0  0  0  3  0  0  0  0  0  0
   44.8090   34.0360   38.4440 H   0  0  0  0  0  0  0  0  0  0  0  0
   46.7370   33.1980   38.7820 C   0  0  0  0  0  2  0  0  0  0  0  0
   47.3250   34.0120   39.8970 C   0  0  0  0  0  2  0  0  0  0  0  0
  1  2  1  0  0  0  0
  1  6  1  0  0  0  0
  3  1  1  0  0  0  0
  4  9  1  0  0  0  0
  5  6  1  0  0  0  0
  5  4  2  0  0  0  0
  6  7  2  0  0  0  0
  7  8  1  0  0  0  0
  8 12  1  0  0  0  0
  9  8  2  0  0  0  0
 10  4  1  0  0  0  0
 11  5  1  0  0  0  0
 13 14  1  0  0  0  0
 13  1  1  0  0  0  0
 15 14  1  0  0  0  0
 16 15  1  0  0  0  0
 17 16  1  0  0  0  0
 18 16  1  0  0  0  0
 18 19  1  0  0  0  0
 19 13  1  0  0  0  0
M  END
>  <minimizedAffinity>
-3.55668163

>  <minimizedRMSD>
0.446319878

$$$$
