
 OpenBabel03252500303D

 41 44  0  0  1  0  0  0  0  0999 V2000
   46.4480   31.5370   46.3470 N   0  0  0  0  0  0  0  0  0  0  0  0
   46.3950   32.3950   47.4660 C   0  0  0  0  0  0  0  0  0  0  0  0
   47.6870   32.3560   48.2840 C   0  0  0  0  0  0  0  0  0  0  0  0
   47.7520   30.9670   48.8780 C   0  0  0  0  0  0  0  0  0  0  0  0
   47.8740   30.0260   47.6960 C   0  0  0  0  0  0  0  0  0  0  0  0
   46.8360   30.2220   46.6440 C   0  0  1  0  0  0  0  0  0  0  0  0
   45.6440   31.8920   48.1550 H   0  0  0  0  0  0  0  0  0  0  0  0
   45.9620   33.3730   47.3410 H   0  0  0  0  0  0  0  0  0  0  0  0
   48.5340   32.4880   47.5490 H   0  0  0  0  0  0  0  0  0  0  0  0
   47.7230   33.1380   49.0390 H   0  0  0  0  0  0  0  0  0  0  0  0
   48.5940   30.7940   49.5430 H   0  0  0  0  0  0  0  0  0  0  0  0
   46.7570   30.7890   49.3350 H   0  0  0  0  0  0  0  0  0  0  0  0
   47.8730   28.9930   48.0550 H   0  0  0  0  0  0  0  0  0  0  0  0
   48.8770   30.1950   47.2450 H   0  0  0  0  0  0  0  0  0  0  0  0
   47.2340   29.7460   45.7170 H   0  0  0  0  0  0  0  0  0  0  0  0
   45.5970   29.4870   46.9440 N   0  0  0  0  0  0  0  0  0  0  0  0
   44.8920   29.2490   45.7150 C   0  0  0  0  0  0  0  0  0  0  0  0
   45.1220   27.8800   45.1300 C   0  0  0  0  0  0  0  0  0  0  0  0
   44.3440   26.9110   46.0110 C   0  0  0  0  0  0  0  0  0  0  0  0
   44.6410   25.8730   45.8550 H   0  0  0  0  0  0  0  0  0  0  0  0
   44.5800   27.3960   47.4380 C   0  0  0  0  0  0  0  0  0  0  0  0
   45.8620   28.2010   47.5540 C   0  0  0  0  0  0  0  0  0  0  0  0
   46.9180   32.1290   45.1310 C   0  0  0  0  0  0  0  0  0  0  0  0
   48.0180   32.3380   45.2840 H   0  0  0  0  0  0  0  0  0  0  0  0
   46.8410   31.4680   44.2710 H   0  0  0  0  0  0  0  0  0  0  0  0
   46.5020   34.2900   43.7270 C   0  0  1  0  0  0  0  0  0  0  0  0
   45.2450   33.6740   43.9420 C   0  0  0  0  0  0  0  0  0  0  0  0
   46.2650   33.4570   45.0040 C   0  0  1  0  0  0  0  0  0  0  0  0
   46.6150   35.3940   43.8700 H   0  0  0  0  0  0  0  0  0  0  0  0
   44.9350   32.7330   43.4000 H   0  0  0  0  0  0  0  0  0  0  0  0
   44.3480   34.2660   44.2100 H   0  0  0  0  0  0  0  0  0  0  0  0
   46.3620   34.1090   45.8840 H   0  0  0  0  0  0  0  0  0  0  0  0
   47.1440   32.9270   41.7380 C   0  0  0  0  0  0  0  0  0  0  0  0
   47.5510   33.7980   42.7880 C   0  0  0  0  0  0  0  0  0  0  0  0
   48.8730   34.1470   42.9030 C   0  0  0  0  0  0  0  0  0  0  0  0
   49.7450   33.6310   41.9830 N   0  0  0  0  0  0  0  0  0  0  0  0
   49.3360   32.7970   40.9830 C   0  0  0  0  0  0  0  0  0  0  0  0
   48.0260   32.4290   40.8410 N   0  0  0  0  0  0  0  0  0  0  0  0
   46.1050   32.6390   41.6310 H   0  0  0  0  0  0  0  0  0  0  0  0
   49.1690   34.7950   43.6870 H   0  0  0  0  0  0  0  0  0  0  0  0
   50.0800   32.4360   40.3060 H   0  0  0  0  0  0  0  0  0  0  0  0
  1  6  1  0  0  0  0
  1  2  1  0  0  0  0
  2  7  1  0  0  0  0
  2  3  1  0  0  0  0
  3  4  1  0  0  0  0
  3 10  1  0  0  0  0
  4 12  1  0  0  0  0
  4 11  1  0  0  0  0
  5 13  1  0  0  0  0
  5  4  1  0  0  0  0
  6 15  1  6  0  0  0
  6 16  1  0  0  0  0
  6  5  1  0  0  0  0
  8  2  1  0  0  0  0
  9  3  1  0  0  0  0
 14  5  1  0  0  0  0
 16 22  1  0  0  0  0
 17 16  1  0  0  0  0
 18 17  1  0  0  0  0
 18 19  1  0  0  0  0
 19 21  1  0  0  0  0
 20 19  1  0  0  0  0
 21 22  1  0  0  0  0
 23 24  1  0  0  0  0
 23  1  1  0  0  0  0
 25 23  1  0  0  0  0
 26 29  1  1  0  0  0
 26 27  1  0  0  0  0
 26 28  1  0  0  0  0
 27 31  1  0  0  0  0
 27 28  1  0  0  0  0
 28 23  1  0  0  0  0
 28 32  1  1  0  0  0
 30 27  1  0  0  0  0
 33 34  1  0  0  0  0
 34 35  2  0  0  0  0
 34 26  1  0  0  0  0
 35 40  1  0  0  0  0
 36 35  1  0  0  0  0
 37 36  2  0  0  0  0
 38 37  1  0  0  0  0
 38 33  2  0  0  0  0
 39 33  1  0  0  0  0
 41 37  1  0  0  0  0
M  END
>  <minimizedAffinity>
-4.53884411

>  <minimizedRMSD>
2.2993753

$$$$
