
 OpenBabel03252506243D

 43 47  0  0  0  0  0  0  0  0999 V2000
   45.9310   30.2340   48.4150 C   0  0  0  0  0  0  0  0  0  0  0  0
   46.0920   29.9440   49.4940 H   0  0  0  0  0  0  0  0  0  0  0  0
   45.3020   31.1450   48.4830 H   0  0  0  0  0  0  0  0  0  0  0  0
   45.2240   27.7740   48.0920 C   0  0  0  0  0  0  0  0  0  0  0  0
   45.2110   29.1260   47.8000 C   0  0  0  0  0  0  0  0  0  0  0  0
   44.3810   29.5160   46.7540 C   0  0  0  0  0  0  0  0  0  0  0  0
   43.6150   28.6200   46.0430 C   0  0  0  0  0  0  0  0  0  0  0  0
   42.7490   28.6880   45.0180 N   0  0  0  0  0  0  0  0  0  0  0  0
   42.2580   27.4850   44.6910 C   0  0  0  0  0  0  0  0  0  0  0  0
   42.8230   26.5450   45.5420 C   0  0  0  0  0  0  0  0  0  0  0  0
   43.6450   27.2760   46.3520 C   0  0  0  0  0  0  0  0  0  0  0  0
   44.4570   26.8730   47.3810 C   0  0  0  0  0  0  0  0  0  0  0  0
   45.8970   27.5350   48.9240 H   0  0  0  0  0  0  0  0  0  0  0  0
   44.2610   30.5340   46.4050 H   0  0  0  0  0  0  0  0  0  0  0  0
   42.4760   29.5730   44.5200 H   0  0  0  0  0  0  0  0  0  0  0  0
   41.5380   27.2610   43.8960 H   0  0  0  0  0  0  0  0  0  0  0  0
   42.6470   25.4780   45.5530 H   0  0  0  0  0  0  0  0  0  0  0  0
   44.6020   25.5280   47.8240 N   0  0  0  0  0  0  0  0  0  0  0  0
   45.1700   25.1450   49.1020 C   0  0  0  0  0  0  0  0  0  0  0  0
   45.8490   23.8160   49.0530 C   0  0  0  0  0  0  0  0  0  0  0  0
   46.4300   23.6330   47.6670 C   0  0  0  0  0  0  0  0  0  0  0  0
   47.0330   24.5170   47.4000 H   0  0  0  0  0  0  0  0  0  0  0  0
   45.2550   23.4260   46.7380 C   0  0  0  0  0  0  0  0  0  0  0  0
   44.1650   24.4430   46.9680 C   0  0  0  0  0  0  0  0  0  0  0  0
   47.2650   30.5530   47.8440 C   0  0  0  0  0  0  0  0  0  0  0  0
   47.8440   31.1520   48.5950 H   0  0  0  0  0  0  0  0  0  0  0  0
   47.8260   29.6330   47.7010 H   0  0  0  0  0  0  0  0  0  0  0  0
   46.5250   32.8310   45.1910 C   0  0  0  0  0  0  0  0  0  0  0  0
   47.2210   31.8070   44.5110 C   0  0  0  0  0  0  0  0  0  0  0  0
   47.5740   30.8520   45.4070 C   0  0  0  0  0  0  0  0  0  0  0  0
   47.1180   31.2630   46.5920 N   0  0  0  0  0  0  0  0  0  0  0  0
   46.4880   32.4490   46.4730 N   0  0  0  0  0  0  0  0  0  0  0  0
   47.4290   31.8090   43.4400 H   0  0  0  0  0  0  0  0  0  0  0  0
   48.1220   29.9180   45.2380 H   0  0  0  0  0  0  0  0  0  0  0  0
   44.5530   35.8370   44.6030 C   0  0  0  0  0  0  0  0  0  0  0  0
   44.9830   36.2700   43.3540 C   0  0  0  0  0  0  0  0  0  0  0  0
   45.9590   35.5150   42.7170 C   0  0  0  0  0  0  0  0  0  0  0  0
   46.4170   34.4200   43.3580 N   0  0  0  0  0  0  0  0  0  0  0  0
   45.9970   34.0150   44.5540 C   0  0  0  0  0  0  0  0  0  0  0  0
   45.0550   34.7380   45.1750 N   0  0  0  0  0  0  0  0  0  0  0  0
   43.7900   36.4380   45.0850 H   0  0  0  0  0  0  0  0  0  0  0  0
   44.5800   37.1580   42.8870 H   0  0  0  0  0  0  0  0  0  0  0  0
   46.3290   35.8170   41.7330 H   0  0  0  0  0  0  0  0  0  0  0  0
  1  3  1  0  0  0  0
  1  2  1  0  0  0  0
  4 13  1  0  0  0  0
  5  4  1  0  0  0  0
  5  1  1  0  0  0  0
  6  5  2  0  0  0  0
  7 11  2  0  0  0  0
  7  6  1  0  0  0  0
  8  7  1  0  0  0  0
  9  8  1  0  0  0  0
  9 10  2  0  0  0  0
 10 17  1  0  0  0  0
 10 11  1  0  0  0  0
 11 12  1  0  0  0  0
 12 18  1  0  0  0  0
 12  4  2  0  0  0  0
 14  6  1  0  0  0  0
 15  8  1  0  0  0  0
 16  9  1  0  0  0  0
 18 19  1  0  0  0  0
 20 19  1  0  0  0  0
 21 20  1  0  0  0  0
 22 21  1  0  0  0  0
 23 24  1  0  0  0  0
 23 21  1  0  0  0  0
 24 18  1  0  0  0  0
 25  1  1  0  0  0  0
 25 26  1  0  0  0  0
 27 25  1  0  0  0  0
 28 32  2  0  0  0  0
 29 28  1  0  0  0  0
 29 30  2  0  0  0  0
 30 31  1  0  0  0  0
 31 25  1  0  0  0  0
 32 31  1  0  0  0  0
 33 29  1  0  0  0  0
 34 30  1  0  0  0  0
 35 41  1  0  0  0  0
 35 40  1  0  0  0  0
 36 35  2  0  0  0  0
 37 36  1  0  0  0  0
 37 38  2  0  0  0  0
 38 39  1  0  0  0  0
 39 40  2  0  0  0  0
 39 28  1  0  0  0  0
 42 36  1  0  0  0  0
 43 37  1  0  0  0  0
M  END
>  <minimizedAffinity>
-5.67321968

>  <minimizedRMSD>
0.556180477

$$$$
