REMARK  Name = 
REMARK  3 active torsions:
REMARK  status: ('A' for Active; 'I' for Inactive)
REMARK    1  A    between atoms: C_1  and  C_9
REMARK    2  A    between atoms: C_2  and  C_13
REMARK    3  A    between atoms: C_13  and  N_23
REMARK                            x       y       z     vdW  Elec       q    Type
REMARK                         _______ _______ _______ _____ _____    ______ ____
ROOT
ATOM      1  C   UNL     1      46.606  34.412  41.455  0.00  0.00    +0.000 A 
ATOM      2  C   UNL     1      47.889  34.909  41.236  0.00  0.00    +0.000 A 
ATOM      3  C   UNL     1      48.518  34.658  40.039  0.00  0.00    +0.000 A 
ATOM      4  C   UNL     1      47.868  33.925  39.091  0.00  0.00    +0.000 A 
ATOM      5  C   UNL     1      46.614  33.417  39.256  0.00  0.00    +0.000 A 
ATOM      6  C   UNL     1      46.013  33.697  40.486  0.00  0.00    +0.000 A 
ATOM      7  H   UNL     1      49.516  35.032  39.840  0.00  0.00    +0.000 HD
ATOM      8  H   UNL     1      48.354  33.716  38.132  0.00  0.00    +0.000 HD
ATOM      9  H   UNL     1      46.064  32.828  38.522  0.00  0.00    +0.000 HD
ATOM     10  H   UNL     1      45.018  33.350  40.741  0.00  0.00    +0.000 HD
ENDROOT
BRANCH   1  13
ATOM     11  C   UNL     1      44.691  36.061  44.266  0.00  0.00    +0.000 A 
ATOM     12  C   UNL     1      45.231  35.866  42.975  0.00  0.00    +0.000 A 
ATOM     13  C   UNL     1      45.999  34.715  42.743  0.00  0.00    +0.000 A 
ATOM     14  N   UNL     1      46.181  33.854  43.765  0.00  0.00    +0.000 NA
ATOM     15  C   UNL     1      45.648  34.068  44.999  0.00  0.00    +0.000 A 
ATOM     16  N   UNL     1      44.905  35.172  45.243  0.00  0.00    +0.000 NA
ATOM     17  H   UNL     1      44.136  36.991  44.251  0.00  0.00    +0.000 HD
ATOM     18  H   UNL     1      45.137  36.489  42.119  0.00  0.00    +0.000 HD
ATOM     19  H   UNL     1      45.781  33.395  45.824  0.00  0.00    +0.000 HD
ENDBRANCH   1  13
BRANCH   2  20
ATOM     20  C   UNL     1      48.566  35.712  42.315  0.00  0.00    +0.000 C 
ATOM     21  H   UNL     1      49.391  36.258  41.816  0.00  0.00    +0.000 HD
ATOM     22  H   UNL     1      47.819  36.409  42.742  0.00  0.00    +0.000 HD
BRANCH  20  23
ATOM     23  N   UNL     1      49.045  34.857  43.370  0.00  0.00    +0.000 NA
ATOM     24  C   UNL     1      48.483  35.106  44.644  0.00  0.00    +0.000 C 
ATOM     25  C   UNL     1      47.948  33.911  45.365  0.00  0.00    +0.000 C 
ATOM     26  C   UNL     1      48.745  32.658  45.188  0.00  0.00    +0.000 C 
ATOM     27  H   UNL     1      49.316  32.383  46.106  0.00  0.00    +0.000 HD
ATOM     28  C   UNL     1      49.739  32.724  44.058  0.00  0.00    +0.000 C 
ATOM     29  C   UNL     1      49.013  33.487  42.940  0.00  0.00    +0.000 C 
ENDBRANCH  20  23
ENDBRANCH   2  20
TORSDOF 3
