
 OpenBabel03252505553D

 34 36  0  0  0  0  0  0  0  0999 V2000
   44.9100   35.0560   45.1890 C   0  0  0  0  0  0  0  0  0  0  0  0
   45.5980   34.7210   44.0280 C   0  0  0  0  0  0  0  0  0  0  0  0
   46.4010   33.5780   44.0830 C   0  0  0  0  0  0  0  0  0  0  0  0
   46.4780   32.8640   45.2230 N   0  0  0  0  0  0  0  0  0  0  0  0
   45.7800   33.2430   46.3260 C   0  0  0  0  0  0  0  0  0  0  0  0
   45.0080   34.3240   46.3050 N   0  0  0  0  0  0  0  0  0  0  0  0
   44.2910   35.9330   45.1540 H   0  0  0  0  0  0  0  0  0  0  0  0
   47.1430   33.1060   42.9680 N   0  0  0  0  0  0  0  0  0  0  0  0
   46.7660   32.3400   41.7950 C   0  0  0  0  0  2  0  0  0  0  0  0
   47.5250   32.6740   40.5590 C   0  0  0  0  0  2  0  0  0  0  0  0
   48.9200   33.1510   40.7690 C   0  0  0  0  0  3  0  0  0  0  0  0
   49.6290   32.6710   40.0600 H   0  0  0  0  0  0  0  0  0  0  0  0
   49.4380   32.9020   42.1520 C   0  0  0  0  0  2  0  0  0  0  0  0
   48.5250   33.5560   43.1910 C   0  0  0  0  0  2  0  0  0  0  0  0
   45.4630   35.5690   42.8110 C   0  0  0  0  0  0  0  0  0  0  0  0
   44.7900   36.6940   43.2690 F   0  0  0  0  0  0  0  0  0  0  0  0
   44.6300   34.8840   41.9370 F   0  0  0  0  0  0  0  0  0  0  0  0
   46.6790   35.8640   42.3130 F   0  0  0  0  0  0  0  0  0  0  0  0
   45.8360   32.5330   47.5070 O   0  0  0  0  0  0  0  0  0  0  0  0
   45.3780   31.1990   47.5720 C   0  0  0  0  0  0  0  0  0  0  0  0
   44.6050   31.0300   48.3450 H   0  0  0  0  0  0  0  0  0  0  0  0
   44.8870   30.9450   46.6060 H   0  0  0  0  0  0  0  0  0  0  0  0
   46.5590   30.3280   47.7150 C   0  0  0  0  0  0  0  0  0  0  0  0
   46.8030   29.0650   47.1990 C   0  0  0  0  0  0  0  0  0  0  0  0
   47.9960   28.4800   47.4900 C   0  0  0  0  0  0  0  0  0  0  0  0
   48.9200   29.0730   48.2410 N   0  0  0  0  0  0  0  0  0  0  0  0
   48.6730   30.2960   48.7350 C   0  0  0  0  0  0  0  0  0  0  0  0
   47.4930   30.9390   48.4800 N   0  0  0  0  0  0  0  0  0  0  0  0
   45.9850   28.7020   46.6150 H   0  0  0  0  0  0  0  0  0  0  0  0
   48.1460   27.4930   47.0670 H   0  0  0  0  0  0  0  0  0  0  0  0
   49.7580   30.8770   49.5590 C   0  0  0  0  0  0  0  0  0  0  0  0
   49.7210   32.2460   49.5450 F   0  0  0  0  0  0  0  0  0  0  0  0
   51.0040   30.4590   49.0740 F   0  0  0  0  0  0  0  0  0  0  0  0
   49.6810   30.4620   50.8730 F   0  0  0  0  0  0  0  0  0  0  0  0
  1  6  1  0  0  0  0
  2  3  1  0  0  0  0
  2  1  2  0  0  0  0
  3  4  2  0  0  0  0
  4  5  1  0  0  0  0
  5 19  1  0  0  0  0
  6  5  2  0  0  0  0
  7  1  1  0  0  0  0
  8 14  1  0  0  0  0
  8  3  1  0  0  0  0
  9  8  1  0  0  0  0
 10 11  1  0  0  0  0
 10  9  1  0  0  0  0
 11 13  1  0  0  0  0
 12 11  1  0  0  0  0
 13 14  1  0  0  0  0
 15 16  1  0  0  0  0
 15  2  1  0  0  0  0
 17 15  1  0  0  0  0
 18 15  1  0  0  0  0
 19 20  1  0  0  0  0
 20 23  1  0  0  0  0
 20 21  1  0  0  0  0
 22 20  1  0  0  0  0
 23 28  1  0  0  0  0
 24 25  1  0  0  0  0
 24 23  2  0  0  0  0
 25 26  2  0  0  0  0
 26 27  1  0  0  0  0
 27 31  1  0  0  0  0
 28 27  2  0  0  0  0
 29 24  1  0  0  0  0
 30 25  1  0  0  0  0
 31 34  1  0  0  0  0
 32 31  1  0  0  0  0
 33 31  1  0  0  0  0
M  END
>  <minimizedAffinity>
-5.83443928

>  <minimizedRMSD>
0.515234649

$$$$
