
     RDKit          3D

 38 40  0  0  0  0  0  0  0  0999 V2000
   46.6057   34.4116   41.4546 C   0  0  0  0  0  0  0  0  0  0  0  0
   47.8894   34.9090   41.2359 C   0  0  0  0  0  0  0  0  0  0  0  0
   48.5184   34.6579   40.0395 C   0  0  0  0  0  0  0  0  0  0  0  0
   47.8683   33.9247   39.0908 C   0  0  0  0  0  0  0  0  0  0  0  0
   46.6144   33.4170   39.2560 C   0  0  0  0  0  0  0  0  0  0  0  0
   46.0132   33.6966   40.4865 C   0  0  0  0  0  0  0  0  0  0  0  0
   44.6905   36.0613   44.2655 C   0  0  0  0  0  0  0  0  0  0  0  0
   45.2309   35.8659   42.9751 C   0  0  0  0  0  0  0  0  0  0  0  0
   45.9986   34.7154   42.7431 C   0  0  0  0  0  0  0  0  0  0  0  0
   46.1811   33.8541   43.7649 N   0  0  0  0  0  0  0  0  0  0  0  0
   45.6480   34.0679   44.9987 C   0  0  0  0  0  0  0  0  0  0  0  0
   44.9048   35.1716   45.2427 N   0  0  0  0  0  0  0  0  0  0  0  0
   48.5657   35.7119   42.3147 C   0  0  0  0  0  0  0  0  0  0  0  0
   49.5155   35.0316   39.8404 H   0  0  0  0  0  0  0  0  0  0  0  0
   48.3543   33.7158   38.1320 H   0  0  0  0  0  0  0  0  0  0  0  0
   46.0644   32.8282   38.5218 H   0  0  0  0  0  0  0  0  0  0  0  0
   45.0182   33.3498   40.7410 H   0  0  0  0  0  0  0  0  0  0  0  0
   44.1363   36.9909   44.2514 H   0  0  0  0  0  0  0  0  0  0  0  0
   45.1366   36.4894   42.1192 H   0  0  0  0  0  0  0  0  0  0  0  0
   45.7814   33.3949   45.8242 H   0  0  0  0  0  0  0  0  0  0  0  0
   49.3911   36.2577   41.8162 H   0  0  0  0  0  0  0  0  0  0  0  0
   47.8188   36.4091   42.7416 H   0  0  0  0  0  0  0  0  0  0  0  0
   49.0453   34.8567   43.3702 N   0  0  0  0  0  0  0  0  0  0  0  0
   48.7518   35.3017   44.6807 C   0  0  0  0  0  0  0  0  0  0  0  0
   48.1317   34.2901   45.5886 C   0  0  0  0  0  0  0  0  0  0  0  0
   48.6463   32.8953   45.4252 C   0  0  0  0  0  0  0  0  0  0  0  0
   49.2988   32.5792   46.2732 H   0  0  0  0  0  0  0  0  0  0  0  0
   49.4390   32.6843   44.1615 C   0  0  0  0  0  0  0  0  0  0  0  0
   48.6935   33.4925   43.0898 C   0  0  0  0  0  0  0  0  0  0  0  0
   48.0805   36.1822   44.6244 H   0  0  0  0  0  0  0  0  0  0  0  0
   49.7167   35.6935   45.1150 H   0  0  0  0  0  0  0  0  0  0  0  0
   48.3517   34.6109   46.6321 H   0  0  0  0  0  0  0  0  0  0  0  0
   47.0175   34.2997   45.5005 H   0  0  0  0  0  0  0  0  0  0  0  0
   47.8012   32.1740   45.3994 H   0  0  0  0  0  0  0  0  0  0  0  0
   49.4448   31.6421   43.8280 H   0  0  0  0  0  0  0  0  0  0  0  0
   50.4506   33.1148   44.3281 H   0  0  0  0  0  0  0  0  0  0  0  0
   49.0818   33.2152   42.0902 H   0  0  0  0  0  0  0  0  0  0  0  0
   47.6225   33.3133   43.2345 H   0  0  0  0  0  0  0  0  0  0  0  0
  1  9  1  0
  2  1  1  0
  2 13  1  0
  3  2  2  0
  4  5  2  0
  4  3  1  0
  5  6  1  0
  6  1  2  0
  7 12  2  0
  8  7  1  0
  9  8  2  0
  9 10  1  0
 10 11  2  0
 11 12  1  0
  3 14  1  0
  4 15  1  0
  5 16  1  0
  6 17  1  0
  7 18  1  0
  8 19  1  0
 11 20  1  0
 13 21  1  0
 13 22  1  0
 23 24  1  0
 24 25  1  0
 25 26  1  0
 26 27  1  0
 26 28  1  0
 28 29  1  0
 29 23  1  0
 24 30  1  0
 24 31  1  0
 25 32  1  0
 25 33  1  0
 26 34  1  0
 28 35  1  0
 28 36  1  0
 29 37  1  0
 29 38  1  0
 13 23  1  0
M  ISO  8  14  14  15  14  16  14  17  14  18  14  19  14  20  14  21   8
M  ISO  2  22   8  27  15
M  END
>  <DihAtoms>  (1) 
1,12,22,23

>  <DihDeg>  (1) 
61.069508842299385

$$$$
