
 OpenBabel03242510073D

 26 28  0  0  0  0  0  0  0  0999 V2000
   44.6570   33.0050   41.1840 Br  0  0  0  0  0  0  0  0  0  0  0  0
   46.3180   33.9150   40.9170 C   0  0  0  0  0  0  0  0  0  0  0  0
   46.8350   34.7100   41.8990 C   0  0  0  0  0  0  0  0  0  0  0  0
   48.0550   35.3870   41.7190 C   0  0  0  0  0  0  0  0  0  0  0  0
   48.6990   35.2170   40.5240 C   0  0  0  0  0  0  0  0  0  0  0  0
   48.1440   34.4080   39.5610 C   0  0  0  0  0  0  0  0  0  0  0  0
   46.9600   33.7400   39.7150 C   0  0  0  0  0  0  0  0  0  0  0  0
   48.4410   36.0110   42.5140 H   0  0  0  0  0  0  0  0  0  0  0  0
   49.6420   35.7300   40.3640 H   0  0  0  0  0  0  0  0  0  0  0  0
   48.6800   34.2960   38.6280 H   0  0  0  0  0  0  0  0  0  0  0  0
   45.6180   34.0570   45.2890 C   0  0  0  0  0  0  0  0  0  0  0  0
   44.7100   35.1120   45.5300 C   0  0  0  0  0  0  0  0  0  0  0  0
   44.5410   36.0350   44.4990 C   0  0  0  0  0  0  0  0  0  0  0  0
   45.2370   35.8790   43.3450 N   0  0  0  0  0  0  0  0  0  0  0  0
   46.1050   34.8510   43.1450 C   0  0  0  0  0  0  0  0  0  0  0  0
   46.2820   33.9460   44.1330 N   0  0  0  0  0  0  0  0  0  0  0  0
   45.7950   33.3020   46.0570 H   0  0  0  0  0  0  0  0  0  0  0  0
   44.1880   35.1770   46.4730 H   0  0  0  0  0  0  0  0  0  0  0  0
   43.8550   36.8590   44.6440 H   0  0  0  0  0  0  0  0  0  0  0  0
   46.4830   32.9290   38.6470 N   0  0  0  0  0  0  0  0  0  0  0  0
   45.5350   33.2890   37.6090 C   0  0  0  0  0  0  0  0  0  0  0  0
   44.8740   32.0020   37.1600 C   0  0  0  0  0  0  0  0  0  0  0  0
   45.8780   31.1760   36.3730 C   0  0  0  0  0  0  0  0  0  0  0  0
   45.8880   31.5460   35.3400 H   0  0  0  0  0  0  0  0  0  0  0  0
   47.2080   31.2630   37.0750 C   0  0  0  0  0  0  0  0  0  0  0  0
   47.0000   31.5550   38.5650 C   0  0  0  0  0  0  0  0  0  0  0  0
  2  1  1  0  0  0  0
  2  3  1  0  0  0  0
  3 15  1  0  0  0  0
  4  3  2  0  0  0  0
  4  8  1  0  0  0  0
  5  4  1  0  0  0  0
  6  7  1  0  0  0  0
  6  5  2  0  0  0  0
  7  2  2  0  0  0  0
  9  5  1  0  0  0  0
 10  6  1  0  0  0  0
 11 12  1  0  0  0  0
 11 17  1  0  0  0  0
 12 18  1  0  0  0  0
 13 19  1  0  0  0  0
 13 12  2  0  0  0  0
 14 13  1  0  0  0  0
 15 14  2  0  0  0  0
 15 16  1  0  0  0  0
 16 11  2  0  0  0  0
 20  7  1  0  0  0  0
 21 20  1  0  0  0  0
 22 21  1  0  0  0  0
 23 25  1  0  0  0  0
 23 22  1  0  0  0  0
 24 23  1  0  0  0  0
 25 26  1  0  0  0  0
 26 20  1  0  0  0  0
M  END
>  <minimizedAffinity>
-5.36761379

>  <minimizedRMSD>
0.873958111

$$$$
