
 OpenBabel03252504123D

 23 24  0  0  0  0  0  0  0  0999 V2000
   37.4890   26.8330   41.5660 C   0  0  0  0  0  0  0  0  0  0  0  0
   36.9550   25.8390   40.7370 C   0  0  0  0  0  0  0  0  0  0  0  0
   36.3350   26.2350   39.5460 C   0  0  0  0  0  0  0  0  0  0  0  0
   36.2810   27.5570   39.2530 N   0  0  0  0  0  0  0  0  0  0  0  0
   36.8080   28.4860   40.0790 C   0  0  0  0  0  0  0  0  0  0  0  0
   37.4090   28.1310   41.2290 N   0  0  0  0  0  0  0  0  0  0  0  0
   35.9160   25.4680   38.8900 H   0  0  0  0  0  0  0  0  0  0  0  0
   36.7060   29.8520   39.6940 N   0  0  0  0  0  0  0  0  0  0  0  0
   36.3570   30.1660   38.3200 C   0  0  0  0  0  2  0  0  0  0  0  0
   37.3990   31.1210   37.8050 C   0  0  0  0  0  2  0  0  0  0  0  0
   37.6020   32.3070   38.6830 C   0  0  0  0  0  3  0  0  0  0  0  0
   38.6780   32.5670   38.7710 H   0  0  0  0  0  0  0  0  0  0  0  0
   36.9720   32.2470   40.0290 C   0  0  0  0  0  2  0  0  0  0  0  0
   36.9470   30.8910   40.6500 C   0  0  0  0  0  2  0  0  0  0  0  0
   37.0630   24.4170   41.1520 C   0  0  0  0  0  0  0  0  0  0  0  0
   36.5980   24.2550   42.4370 F   0  0  0  0  0  0  0  0  0  0  0  0
   36.2220   23.6740   40.3300 F   0  0  0  0  0  0  0  0  0  0  0  0
   38.3130   23.8970   41.1060 F   0  0  0  0  0  0  0  0  0  0  0  0
   38.0820   26.4350   42.7070 O   0  0  0  0  0  0  0  0  0  0  0  0
   39.4610   26.4330   42.9850 C   0  0  0  0  0  0  0  0  0  0  0  0
   40.1300   26.3220   41.7700 F   0  0  0  0  0  0  0  0  0  0  0  0
   39.7990   27.5640   43.6800 F   0  0  0  0  0  0  0  0  0  0  0  0
   39.7940   25.2750   43.6800 F   0  0  0  0  0  0  0  0  0  0  0  0
  1 19  1  0  0  0  0
  2 15  1  0  0  0  0
  2  1  2  0  0  0  0
  3  2  1  0  0  0  0
  4  3  2  0  0  0  0
  4  5  1  0  0  0  0
  5  6  2  0  0  0  0
  6  1  1  0  0  0  0
  7  3  1  0  0  0  0
  8  5  1  0  0  0  0
  8 14  1  0  0  0  0
  9  8  1  0  0  0  0
 10  9  1  0  0  0  0
 10 11  1  0  0  0  0
 11 12  1  0  0  0  0
 11 13  1  0  0  0  0
 13 14  1  0  0  0  0
 15 16  1  0  0  0  0
 17 15  1  0  0  0  0
 18 15  1  0  0  0  0
 19 20  1  0  0  0  0
 20 22  1  0  0  0  0
 20 23  1  0  0  0  0
 21 20  1  0  0  0  0
M  END
>  <minimizedAffinity>
-5.23528385

$$$$

 OpenBabel03252504123D

 23 24  0  0  0  0  0  0  0  0999 V2000
   38.3600   29.2730   41.1920 C   0  0  0  0  0  0  0  0  0  0  0  0
   37.0220   29.6250   40.9780 C   0  0  0  0  0  0  0  0  0  0  0  0
   36.7260   30.9690   40.7210 C   0  0  0  0  0  0  0  0  0  0  0  0
   37.7440   31.8620   40.6920 N   0  0  0  0  0  0  0  0  0  0  0  0
   39.0230   31.4840   40.9030 C   0  0  0  0  0  0  0  0  0  0  0  0
   39.3330   30.1980   41.1520 N   0  0  0  0  0  0  0  0  0  0  0  0
   35.6850   31.2550   40.5520 H   0  0  0  0  0  0  0  0  0  0  0  0
   40.0300   32.4880   40.8560 N   0  0  0  0  0  0  0  0  0  0  0  0
   39.7050   33.7750   40.2680 C   0  0  0  0  0  2  0  0  0  0  0  0
   40.7540   34.0650   39.2290 C   0  0  0  0  0  2  0  0  0  0  0  0
   42.1470   33.9480   39.7430 C   0  0  0  0  0  3  0  0  0  0  0  0
   42.8130   33.4550   39.0030 H   0  0  0  0  0  0  0  0  0  0  0  0
   42.3050   33.3190   41.0810 C   0  0  0  0  0  2  0  0  0  0  0  0
   41.3370   32.2230   41.3780 C   0  0  0  0  0  2  0  0  0  0  0  0
   35.9790   28.5700   41.0360 C   0  0  0  0  0  0  0  0  0  0  0  0
   35.8550   28.0870   42.3190 F   0  0  0  0  0  0  0  0  0  0  0  0
   34.7630   29.1620   40.7160 F   0  0  0  0  0  0  0  0  0  0  0  0
   36.1900   27.5070   40.2230 F   0  0  0  0  0  0  0  0  0  0  0  0
   38.6280   27.9770   41.4380 O   0  0  0  0  0  0  0  0  0  0  0  0
   38.9810   27.4080   42.6750 C   0  0  0  0  0  0  0  0  0  0  0  0
   38.5690   28.2890   43.6700 F   0  0  0  0  0  0  0  0  0  0  0  0
   38.4190   26.1650   42.7950 F   0  0  0  0  0  0  0  0  0  0  0  0
   40.3670   27.3680   42.7910 F   0  0  0  0  0  0  0  0  0  0  0  0
  1 19  1  0  0  0  0
  2 15  1  0  0  0  0
  2  1  2  0  0  0  0
  3  2  1  0  0  0  0
  4  3  2  0  0  0  0
  4  5  1  0  0  0  0
  5  6  2  0  0  0  0
  6  1  1  0  0  0  0
  7  3  1  0  0  0  0
  8  5  1  0  0  0  0
  8 14  1  0  0  0  0
  9  8  1  0  0  0  0
 10 11  1  0  0  0  0
 10  9  1  0  0  0  0
 11 13  1  0  0  0  0
 12 11  1  0  0  0  0
 13 14  1  0  0  0  0
 15 16  1  0  0  0  0
 17 15  1  0  0  0  0
 18 15  1  0  0  0  0
 19 20  1  0  0  0  0
 20 23  1  0  0  0  0
 20 22  1  0  0  0  0
 20 21  1  0  0  0  0
M  END
>  <minimizedAffinity>
-5.22449207

$$$$

 OpenBabel03252504123D

 23 24  0  0  0  0  0  0  0  0999 V2000
   38.6170   30.1510   40.4470 C   0  0  0  0  0  0  0  0  0  0  0  0
   39.5460   30.8680   41.2110 C   0  0  0  0  0  0  0  0  0  0  0  0
   40.0660   30.2590   42.3600 C   0  0  0  0  0  0  0  0  0  0  0  0
   39.6470   29.0100   42.6770 N   0  0  0  0  0  0  0  0  0  0  0  0
   38.7500   28.3510   41.9130 C   0  0  0  0  0  0  0  0  0  0  0  0
   38.2350   28.9140   40.8050 N   0  0  0  0  0  0  0  0  0  0  0  0
   40.7920   30.8100   42.9640 H   0  0  0  0  0  0  0  0  0  0  0  0
   38.3650   27.0430   42.3200 N   0  0  0  0  0  0  0  0  0  0  0  0
   39.1720   26.3540   43.3110 C   0  0  0  0  0  2  0  0  0  0  0  0
   39.5210   25.0060   42.7400 C   0  0  0  0  0  2  0  0  0  0  0  0
   38.3370   24.2420   42.2600 C   0  0  0  0  0  3  0  0  0  0  0  0
   38.5520   23.7190   41.3030 H   0  0  0  0  0  0  0  0  0  0  0  0
   37.0590   24.9970   42.1620 C   0  0  0  0  0  2  0  0  0  0  0  0
   37.2040   26.4240   41.7540 C   0  0  0  0  0  2  0  0  0  0  0  0
   39.9360   32.2350   40.7810 C   0  0  0  0  0  0  0  0  0  0  0  0
   38.9490   33.1400   41.1040 F   0  0  0  0  0  0  0  0  0  0  0  0
   41.0630   32.6000   41.5080 F   0  0  0  0  0  0  0  0  0  0  0  0
   40.1890   32.3700   39.4570 F   0  0  0  0  0  0  0  0  0  0  0  0
   38.1270   30.7500   39.3460 O   0  0  0  0  0  0  0  0  0  0  0  0
   36.8400   31.2950   39.1840 C   0  0  0  0  0  0  0  0  0  0  0  0
   36.9950   32.5920   38.7050 F   0  0  0  0  0  0  0  0  0  0  0  0
   36.0990   30.5020   38.3500 F   0  0  0  0  0  0  0  0  0  0  0  0
   36.2390   31.4480   40.4290 F   0  0  0  0  0  0  0  0  0  0  0  0
  1  6  2  0  0  0  0
  1  2  1  0  0  0  0
  2  3  2  0  0  0  0
  3  4  1  0  0  0  0
  3  7  1  0  0  0  0
  5  8  1  0  0  0  0
  5  4  2  0  0  0  0
  6  5  1  0  0  0  0
  8  9  1  0  0  0  0
 10  9  1  0  0  0  0
 11 10  1  0  0  0  0
 12 11  1  0  0  0  0
 13 11  1  0  0  0  0
 14 13  1  0  0  0  0
 14  8  1  0  0  0  0
 15 16  1  0  0  0  0
 15  2  1  0  0  0  0
 15 17  1  0  0  0  0
 18 15  1  0  0  0  0
 19  1  1  0  0  0  0
 20 19  1  0  0  0  0
 20 23  1  0  0  0  0
 21 20  1  0  0  0  0
 22 20  1  0  0  0  0
M  END
>  <minimizedAffinity>
-5.1722784

$$$$

 OpenBabel03252504123D

 23 24  0  0  0  0  0  0  0  0999 V2000
   39.4320   26.8630   41.7520 C   0  0  0  0  0  0  0  0  0  0  0  0
   38.3270   26.0690   42.0800 C   0  0  0  0  0  0  0  0  0  0  0  0
   37.0730   26.6860   42.1660 C   0  0  0  0  0  0  0  0  0  0  0  0
   36.9890   28.0170   41.9300 N   0  0  0  0  0  0  0  0  0  0  0  0
   38.0790   28.7490   41.6160 C   0  0  0  0  0  0  0  0  0  0  0  0
   39.2950   28.1800   41.5270 N   0  0  0  0  0  0  0  0  0  0  0  0
   36.2030   26.0750   42.4210 H   0  0  0  0  0  0  0  0  0  0  0  0
   37.9000   30.1420   41.3840 N   0  0  0  0  0  0  0  0  0  0  0  0
   36.5560   30.6460   41.1660 C   0  0  0  0  0  2  0  0  0  0  0  0
   36.5830   31.4400   39.8880 C   0  0  0  0  0  2  0  0  0  0  0  0
   37.6510   32.4770   39.8560 C   0  0  0  0  0  3  0  0  0  0  0  0
   38.1400   32.5270   38.8600 H   0  0  0  0  0  0  0  0  0  0  0  0
   38.6740   32.4030   40.9330 C   0  0  0  0  0  2  0  0  0  0  0  0
   39.0300   31.0210   41.3650 C   0  0  0  0  0  2  0  0  0  0  0  0
   38.5270   24.6180   42.3260 C   0  0  0  0  0  0  0  0  0  0  0  0
   39.2650   24.4220   43.4710 F   0  0  0  0  0  0  0  0  0  0  0  0
   37.2770   24.0550   42.5590 F   0  0  0  0  0  0  0  0  0  0  0  0
   39.1450   23.9450   41.3260 F   0  0  0  0  0  0  0  0  0  0  0  0
   40.6310   26.2550   41.6730 O   0  0  0  0  0  0  0  0  0  0  0  0
   41.7190   26.4190   42.5490 C   0  0  0  0  0  0  0  0  0  0  0  0
   42.0680   25.1580   43.0200 F   0  0  0  0  0  0  0  0  0  0  0  0
   42.7470   27.0520   41.9020 F   0  0  0  0  0  0  0  0  0  0  0  0
   41.3070   27.1180   43.6790 F   0  0  0  0  0  0  0  0  0  0  0  0
  1  2  1  0  0  0  0
  2  3  2  0  0  0  0
  2 15  1  0  0  0  0
  3  7  1  0  0  0  0
  4  3  1  0  0  0  0
  5  4  2  0  0  0  0
  6  5  1  0  0  0  0
  6  1  2  0  0  0  0
  8  5  1  0  0  0  0
  9  8  1  0  0  0  0
 10  9  1  0  0  0  0
 11 10  1  0  0  0  0
 11 13  1  0  0  0  0
 12 11  1  0  0  0  0
 13 14  1  0  0  0  0
 14  8  1  0  0  0  0
 15 17  1  0  0  0  0
 15 16  1  0  0  0  0
 18 15  1  0  0  0  0
 19  1  1  0  0  0  0
 19 20  1  0  0  0  0
 20 21  1  0  0  0  0
 20 23  1  0  0  0  0
 22 20  1  0  0  0  0
M  END
>  <minimizedAffinity>
-4.91061687

$$$$

 OpenBabel03252504123D

 23 24  0  0  0  0  0  0  0  0999 V2000
   37.7510   29.5960   39.2310 C   0  0  0  0  0  0  0  0  0  0  0  0
   37.7100   30.5150   40.2850 C   0  0  0  0  0  0  0  0  0  0  0  0
   37.4340   30.0340   41.5710 C   0  0  0  0  0  0  0  0  0  0  0  0
   37.2220   28.7050   41.7320 N   0  0  0  0  0  0  0  0  0  0  0  0
   37.2710   27.8500   40.6900 C   0  0  0  0  0  0  0  0  0  0  0  0
   37.5340   28.2880   39.4450 N   0  0  0  0  0  0  0  0  0  0  0  0
   37.4000   30.7430   42.4020 H   0  0  0  0  0  0  0  0  0  0  0  0
   37.0360   26.4710   40.9490 N   0  0  0  0  0  0  0  0  0  0  0  0
   37.0860   26.0010   42.3220 C   0  0  0  0  0  2  0  0  0  0  0  0
   38.0330   24.8310   42.3560 C   0  0  0  0  0  2  0  0  0  0  0  0
   37.7150   23.7820   41.3480 C   0  0  0  0  0  3  0  0  0  0  0  0
   38.6370   23.3810   40.8750 H   0  0  0  0  0  0  0  0  0  0  0  0
   36.7160   24.1460   40.3090 C   0  0  0  0  0  2  0  0  0  0  0  0
   36.7570   25.5710   39.8700 C   0  0  0  0  0  2  0  0  0  0  0  0
   37.9520   31.9530   40.0020 C   0  0  0  0  0  0  0  0  0  0  0  0
   39.0320   32.1010   39.1610 F   0  0  0  0  0  0  0  0  0  0  0  0
   36.8450   32.4390   39.3150 F   0  0  0  0  0  0  0  0  0  0  0  0
   38.1800   32.7240   41.0920 F   0  0  0  0  0  0  0  0  0  0  0  0
   38.0170   30.0750   38.0010 O   0  0  0  0  0  0  0  0  0  0  0  0
   37.1120   30.2030   36.9320 C   0  0  0  0  0  0  0  0  0  0  0  0
   35.8300   30.0550   37.4520 F   0  0  0  0  0  0  0  0  0  0  0  0
   37.2980   31.4050   36.3030 F   0  0  0  0  0  0  0  0  0  0  0  0
   37.2660   29.1290   36.0600 F   0  0  0  0  0  0  0  0  0  0  0  0
  1  6  2  0  0  0  0
  1  2  1  0  0  0  0
  2  3  2  0  0  0  0
  3  4  1  0  0  0  0
  3  7  1  0  0  0  0
  5  8  1  0  0  0  0
  5  4  2  0  0  0  0
  6  5  1  0  0  0  0
  8  9  1  0  0  0  0
  9 10  1  0  0  0  0
 11 10  1  0  0  0  0
 12 11  1  0  0  0  0
 13 11  1  0  0  0  0
 14 13  1  0  0  0  0
 14  8  1  0  0  0  0
 15  2  1  0  0  0  0
 15 18  1  0  0  0  0
 16 15  1  0  0  0  0
 17 15  1  0  0  0  0
 19  1  1  0  0  0  0
 20 21  1  0  0  0  0
 20 19  1  0  0  0  0
 22 20  1  0  0  0  0
 23 20  1  0  0  0  0
M  END
>  <minimizedAffinity>
-4.90800762

$$$$

 OpenBabel03252504123D

 23 24  0  0  0  0  0  0  0  0999 V2000
   37.1820   30.2690   40.4960 C   0  0  0  0  0  0  0  0  0  0  0  0
   36.5710   29.9540   39.2770 C   0  0  0  0  0  0  0  0  0  0  0  0
   37.1210   30.4880   38.1050 C   0  0  0  0  0  0  0  0  0  0  0  0
   38.2140   31.2830   38.2070 N   0  0  0  0  0  0  0  0  0  0  0  0
   38.7750   31.5630   39.4020 C   0  0  0  0  0  0  0  0  0  0  0  0
   38.2660   31.0620   40.5420 N   0  0  0  0  0  0  0  0  0  0  0  0
   36.6530   30.2480   37.1470 H   0  0  0  0  0  0  0  0  0  0  0  0
   39.9210   32.4070   39.4170 N   0  0  0  0  0  0  0  0  0  0  0  0
   40.6240   32.6510   38.1710 C   0  0  0  0  0  2  0  0  0  0  0  0
   42.0750   32.3330   38.4110 C   0  0  0  0  0  2  0  0  0  0  0  0
   42.6470   33.0290   39.5970 C   0  0  0  0  0  3  0  0  0  0  0  0
   43.3170   32.3600   40.1770 H   0  0  0  0  0  0  0  0  0  0  0  0
   41.6740   33.6990   40.5000 C   0  0  0  0  0  2  0  0  0  0  0  0
   40.3660   32.9980   40.6440 C   0  0  0  0  0  2  0  0  0  0  0  0
   35.3720   29.0770   39.2740 C   0  0  0  0  0  0  0  0  0  0  0  0
   34.4340   29.5450   40.1660 F   0  0  0  0  0  0  0  0  0  0  0  0
   34.7960   29.1580   38.0120 F   0  0  0  0  0  0  0  0  0  0  0  0
   35.6090   27.7790   39.5800 F   0  0  0  0  0  0  0  0  0  0  0  0
   36.6420   29.7480   41.6130 O   0  0  0  0  0  0  0  0  0  0  0  0
   37.1580   28.6920   42.3870 C   0  0  0  0  0  0  0  0  0  0  0  0
   38.0390   27.9780   41.5810 F   0  0  0  0  0  0  0  0  0  0  0  0
   37.7510   29.1890   43.5170 F   0  0  0  0  0  0  0  0  0  0  0  0
   36.1410   27.7920   42.6850 F   0  0  0  0  0  0  0  0  0  0  0  0
  1  6  1  0  0  0  0
  1 19  1  0  0  0  0
  2  1  2  0  0  0  0
  3  4  2  0  0  0  0
  3  2  1  0  0  0  0
  4  5  1  0  0  0  0
  5  8  1  0  0  0  0
  5  6  2  0  0  0  0
  7  3  1  0  0  0  0
  8 14  1  0  0  0  0
  9 10  1  0  0  0  0
  9  8  1  0  0  0  0
 10 11  1  0  0  0  0
 11 12  1  0  0  0  0
 11 13  1  0  0  0  0
 13 14  1  0  0  0  0
 15  2  1  0  0  0  0
 15 18  1  0  0  0  0
 15 16  1  0  0  0  0
 17 15  1  0  0  0  0
 19 20  1  0  0  0  0
 20 23  1  0  0  0  0
 20 22  1  0  0  0  0
 21 20  1  0  0  0  0
M  END
>  <minimizedAffinity>
-4.89952612

$$$$

 OpenBabel03252504123D

 23 24  0  0  0  0  0  0  0  0999 V2000
   38.0530   29.4480   39.8160 C   0  0  0  0  0  0  0  0  0  0  0  0
   38.1870   30.6130   40.5800 C   0  0  0  0  0  0  0  0  0  0  0  0
   38.4460   30.4780   41.9500 C   0  0  0  0  0  0  0  0  0  0  0  0
   38.5540   29.2320   42.4680 N   0  0  0  0  0  0  0  0  0  0  0  0
   38.4190   28.1310   41.6980 C   0  0  0  0  0  0  0  0  0  0  0  0
   38.1700   28.2340   40.3800 N   0  0  0  0  0  0  0  0  0  0  0  0
   38.5530   31.3820   42.5560 H   0  0  0  0  0  0  0  0  0  0  0  0
   38.5480   26.8610   42.3250 N   0  0  0  0  0  0  0  0  0  0  0  0
   39.1340   26.7930   43.6510 C   0  0  0  0  0  2  0  0  0  0  0  0
   40.2430   25.7770   43.5950 C   0  0  0  0  0  2  0  0  0  0  0  0
   39.8170   24.4650   43.0340 C   0  0  0  0  0  3  0  0  0  0  0  0
   40.5900   24.0430   42.3570 H   0  0  0  0  0  0  0  0  0  0  0  0
   38.4820   24.4300   42.3800 C   0  0  0  0  0  2  0  0  0  0  0  0
   38.1060   25.6760   41.6520 C   0  0  0  0  0  2  0  0  0  0  0  0
   38.0450   31.9340   39.9160 C   0  0  0  0  0  0  0  0  0  0  0  0
   38.2900   32.9500   40.8120 F   0  0  0  0  0  0  0  0  0  0  0  0
   39.0300   32.0210   38.9390 F   0  0  0  0  0  0  0  0  0  0  0  0
   36.8340   32.1700   39.3580 F   0  0  0  0  0  0  0  0  0  0  0  0
   37.8050   29.5940   38.5010 O   0  0  0  0  0  0  0  0  0  0  0  0
   36.6050   29.2910   37.8310 C   0  0  0  0  0  0  0  0  0  0  0  0
   36.4620   30.2120   36.7980 F   0  0  0  0  0  0  0  0  0  0  0  0
   36.6310   27.9950   37.3910 F   0  0  0  0  0  0  0  0  0  0  0  0
   35.5260   29.5350   38.6740 F   0  0  0  0  0  0  0  0  0  0  0  0
  1  6  2  0  0  0  0
  1  2  1  0  0  0  0
  2  3  2  0  0  0  0
  3  4  1  0  0  0  0
  3  7  1  0  0  0  0
  5  8  1  0  0  0  0
  5  4  2  0  0  0  0
  6  5  1  0  0  0  0
  8  9  1  0  0  0  0
 10  9  1  0  0  0  0
 11 10  1  0  0  0  0
 12 11  1  0  0  0  0
 13 11  1  0  0  0  0
 14  8  1  0  0  0  0
 14 13  1  0  0  0  0
 15  2  1  0  0  0  0
 15 16  1  0  0  0  0
 17 15  1  0  0  0  0
 18 15  1  0  0  0  0
 19  1  1  0  0  0  0
 20 19  1  0  0  0  0
 20 23  1  0  0  0  0
 21 20  1  0  0  0  0
 22 20  1  0  0  0  0
M  END
>  <minimizedAffinity>
-4.87713909

$$$$

 OpenBabel03252504123D

 23 24  0  0  0  0  0  0  0  0999 V2000
   37.7700   28.9570   40.5270 C   0  0  0  0  0  0  0  0  0  0  0  0
   38.2970   28.4120   41.7040 C   0  0  0  0  0  0  0  0  0  0  0  0
   39.6070   28.7540   42.0610 C   0  0  0  0  0  0  0  0  0  0  0  0
   40.3000   29.5920   41.2530 N   0  0  0  0  0  0  0  0  0  0  0  0
   39.7560   30.0980   40.1260 C   0  0  0  0  0  0  0  0  0  0  0  0
   38.4990   29.7850   39.7610 N   0  0  0  0  0  0  0  0  0  0  0  0
   40.0290   28.3340   42.9780 H   0  0  0  0  0  0  0  0  0  0  0  0
   40.5550   30.9710   39.3360 N   0  0  0  0  0  0  0  0  0  0  0  0
   41.7580   31.5360   39.9200 C   0  0  0  0  0  2  0  0  0  0  0  0
   41.6860   33.0270   39.7260 C   0  0  0  0  0  2  0  0  0  0  0  0
   41.4290   33.4300   38.3160 C   0  0  0  0  0  3  0  0  0  0  0  0
   40.7130   34.2770   38.2590 H   0  0  0  0  0  0  0  0  0  0  0  0
   41.0230   32.3440   37.3840 C   0  0  0  0  0  2  0  0  0  0  0  0
   40.1710   31.2820   37.9920 C   0  0  0  0  0  2  0  0  0  0  0  0
   37.4550   27.4970   42.5170 C   0  0  0  0  0  0  0  0  0  0  0  0
   37.2330   26.3200   41.8400 F   0  0  0  0  0  0  0  0  0  0  0  0
   38.1760   27.1680   43.6600 F   0  0  0  0  0  0  0  0  0  0  0  0
   36.2460   27.9930   42.8740 F   0  0  0  0  0  0  0  0  0  0  0  0
   36.5090   28.6190   40.1980 O   0  0  0  0  0  0  0  0  0  0  0  0
   35.4330   29.4960   39.9680 C   0  0  0  0  0  0  0  0  0  0  0  0
   35.6460   30.6290   40.7470 F   0  0  0  0  0  0  0  0  0  0  0  0
   35.3380   29.7770   38.6310 F   0  0  0  0  0  0  0  0  0  0  0  0
   34.2620   28.9370   40.4690 F   0  0  0  0  0  0  0  0  0  0  0  0
  1  2  1  0  0  0  0
  2  3  2  0  0  0  0
  2 15  1  0  0  0  0
  3  7  1  0  0  0  0
  4  3  1  0  0  0  0
  5  4  2  0  0  0  0
  6  5  1  0  0  0  0
  6  1  2  0  0  0  0
  8  9  1  0  0  0  0
  8  5  1  0  0  0  0
 10  9  1  0  0  0  0
 11 10  1  0  0  0  0
 12 11  1  0  0  0  0
 13 14  1  0  0  0  0
 13 11  1  0  0  0  0
 14  8  1  0  0  0  0
 15 18  1  0  0  0  0
 15 17  1  0  0  0  0
 16 15  1  0  0  0  0
 19  1  1  0  0  0  0
 20 19  1  0  0  0  0
 20 23  1  0  0  0  0
 20 21  1  0  0  0  0
 22 20  1  0  0  0  0
M  END
>  <minimizedAffinity>
-4.83460379

$$$$

 OpenBabel03252504123D

 23 24  0  0  0  0  0  0  0  0999 V2000
   37.1190   26.7540   40.6990 C   0  0  0  0  0  0  0  0  0  0  0  0
   36.7420   27.7740   41.5800 C   0  0  0  0  0  0  0  0  0  0  0  0
   35.9190   28.7970   41.0920 C   0  0  0  0  0  0  0  0  0  0  0  0
   35.5280   28.7500   39.7960 N   0  0  0  0  0  0  0  0  0  0  0  0
   35.9130   27.7480   38.9770 C   0  0  0  0  0  0  0  0  0  0  0  0
   36.7030   26.7540   39.4220 N   0  0  0  0  0  0  0  0  0  0  0  0
   35.6180   29.5980   41.7710 H   0  0  0  0  0  0  0  0  0  0  0  0
   35.4560   27.7780   37.6300 N   0  0  0  0  0  0  0  0  0  0  0  0
   34.3600   28.6640   37.2840 C   0  0  0  0  0  2  0  0  0  0  0  0
   33.3230   27.8310   36.5800 C   0  0  0  0  0  2  0  0  0  0  0  0
   33.8690   27.0410   35.4420 C   0  0  0  0  0  3  0  0  0  0  0  0
   33.4330   26.0200   35.4090 H   0  0  0  0  0  0  0  0  0  0  0  0
   35.3510   26.9750   35.3360 C   0  0  0  0  0  2  0  0  0  0  0  0
   36.0720   26.9440   36.6410 C   0  0  0  0  0  2  0  0  0  0  0  0
   37.2290   27.7360   42.9830 C   0  0  0  0  0  0  0  0  0  0  0  0
   37.0530   28.9610   43.5850 F   0  0  0  0  0  0  0  0  0  0  0  0
   36.4340   26.8330   43.6800 F   0  0  0  0  0  0  0  0  0  0  0  0
   38.5320   27.3960   43.1300 F   0  0  0  0  0  0  0  0  0  0  0  0
   37.9100   25.7780   41.1830 O   0  0  0  0  0  0  0  0  0  0  0  0
   37.5320   24.4580   41.4890 C   0  0  0  0  0  0  0  0  0  0  0  0
   36.1900   24.4850   41.8560 F   0  0  0  0  0  0  0  0  0  0  0  0
   37.7760   23.6430   40.4170 F   0  0  0  0  0  0  0  0  0  0  0  0
   38.2030   24.0340   42.6310 F   0  0  0  0  0  0  0  0  0  0  0  0
  1 19  1  0  0  0  0
  1  2  1  0  0  0  0
  2 15  1  0  0  0  0
  3  2  2  0  0  0  0
  3  7  1  0  0  0  0
  4  3  1  0  0  0  0
  5  6  1  0  0  0  0
  5  4  2  0  0  0  0
  6  1  2  0  0  0  0
  8  5  1  0  0  0  0
  9  8  1  0  0  0  0
 10  9  1  0  0  0  0
 11 10  1  0  0  0  0
 12 11  1  0  0  0  0
 13 11  1  0  0  0  0
 13 14  1  0  0  0  0
 14  8  1  0  0  0  0
 15 18  1  0  0  0  0
 15 16  1  0  0  0  0
 15 17  1  0  0  0  0
 19 20  1  0  0  0  0
 20 21  1  0  0  0  0
 20 23  1  0  0  0  0
 22 20  1  0  0  0  0
M  END
>  <minimizedAffinity>
-4.81506777

$$$$
