
 OpenBabel03252504093D

 23 24  0  0  0  0  0  0  0  0999 V2000
   47.0580   34.2310   43.0520 C   0  0  0  0  0  0  0  0  0  0  0  0
   45.8670   34.6210   43.6760 C   0  0  0  0  0  0  0  0  0  0  0  0
   45.2910   33.7460   44.6040 C   0  0  0  0  0  0  0  0  0  0  0  0
   45.9100   32.5670   44.8530 N   0  0  0  0  0  0  0  0  0  0  0  0
   47.0580   32.2260   44.2300 C   0  0  0  0  0  0  0  0  0  0  0  0
   47.6320   33.0490   43.3340 N   0  0  0  0  0  0  0  0  0  0  0  0
   44.3610   34.0410   45.0990 H   0  0  0  0  0  0  0  0  0  0  0  0
   47.6400   30.9670   44.5510 N   0  0  0  0  0  0  0  0  0  0  0  0
   47.1830   30.2700   45.7390 C   0  0  0  0  0  0  0  0  0  0  0  0
   48.4040   29.9310   46.5510 C   0  0  0  0  0  0  0  0  0  0  0  0
   49.4540   29.2170   45.7730 C   0  0  0  0  0  0  0  0  0  0  0  0
   50.4710   29.5840   46.0300 H   0  0  0  0  0  0  0  0  0  0  0  0
   49.2730   29.1830   44.2970 C   0  0  0  0  0  0  0  0  0  0  0  0
   48.6580   30.4090   43.7120 C   0  0  0  0  0  0  0  0  0  0  0  0
   45.2650   35.9340   43.3300 C   0  0  0  0  0  0  0  0  0  0  0  0
   46.2500   36.8510   43.0380 F   0  0  0  0  0  0  0  0  0  0  0  0
   44.5240   35.7630   42.1660 F   0  0  0  0  0  0  0  0  0  0  0  0
   44.4790   36.4770   44.2900 F   0  0  0  0  0  0  0  0  0  0  0  0
   47.5990   35.0830   42.1620 O   0  0  0  0  0  0  0  0  0  0  0  0
   48.9560   35.1790   41.8030 C   0  0  0  0  0  0  0  0  0  0  0  0
   49.6900   35.3030   42.9790 F   0  0  0  0  0  0  0  0  0  0  0  0
   49.3200   34.0880   41.0590 F   0  0  0  0  0  0  0  0  0  0  0  0
   49.1750   36.3720   41.1220 F   0  0  0  0  0  0  0  0  0  0  0  0
  1  6  2  0  0  0  0
  1  2  1  0  0  0  0
  2  3  2  0  0  0  0
  3  4  1  0  0  0  0
  3  7  1  0  0  0  0
  5  8  1  0  0  0  0
  5  4  2  0  0  0  0
  6  5  1  0  0  0  0
  8  9  1  0  0  0  0
  9 10  1  0  0  0  0
 11 12  1  0  0  0  0
 11 10  1  0  0  0  0
 13 11  1  0  0  0  0
 14 13  1  0  0  0  0
 14  8  1  0  0  0  0
 15  2  1  0  0  0  0
 15 18  1  0  0  0  0
 16 15  1  0  0  0  0
 17 15  1  0  0  0  0
 19  1  1  0  0  0  0
 20 19  1  0  0  0  0
 20 21  1  0  0  0  0
 22 20  1  0  0  0  0
 23 20  1  0  0  0  0
M  END
>  <minimizedAffinity>
-5.28504944

>  <minimizedRMSD>
0.882177114

$$$$
