
     RDKit          3D

 43 45  0  0  0  0  0  0  0  0999 V2000
   45.4044   31.3500   47.7332 C   0  0  0  0  0  0  0  0  0  0  0  0
   46.5939   30.4903   47.8607 C   0  0  0  0  0  0  0  0  0  0  0  0
   46.8297   29.2152   47.3729 C   0  0  0  0  0  0  0  0  0  0  0  0
   48.0354   28.6443   47.6406 C   0  0  0  0  0  0  0  0  0  0  0  0
   48.9786   29.2631   48.3447 N   0  0  0  0  0  0  0  0  0  0  0  0
   48.7404   30.4985   48.8131 C   0  0  0  0  0  0  0  0  0  0  0  0
   47.5491   31.1274   48.5787 N   0  0  0  0  0  0  0  0  0  0  0  0
   49.8483   31.1071   49.5851 C   0  0  0  0  0  0  0  0  0  0  0  0
   49.8379   32.4729   49.4844 F   0  0  0  0  0  0  0  0  0  0  0  0
   51.0790   30.6331   49.1116 F   0  0  0  0  0  0  0  0  0  0  0  0
   49.7800   30.7782   50.9234 F   0  0  0  0  0  0  0  0  0  0  0  0
   45.8513   32.6850   47.6224 O   0  0  0  0  0  0  0  0  0  0  0  0
   44.9124   34.9774   45.0788 C   0  0  0  0  0  0  0  0  0  0  0  0
   45.7634   34.6782   44.0214 C   0  0  0  0  0  0  0  0  0  0  0  0
   46.6811   33.6438   44.2270 C   0  0  0  0  0  0  0  0  0  0  0  0
   46.7078   32.9938   45.4064 N   0  0  0  0  0  0  0  0  0  0  0  0
   45.8495   33.3317   46.4043 C   0  0  0  0  0  0  0  0  0  0  0  0
   44.9655   34.3103   46.2392 N   0  0  0  0  0  0  0  0  0  0  0  0
   45.6722   35.4508   42.7512 C   0  0  0  0  0  0  0  0  0  0  0  0
   45.2775   36.7174   43.1656 F   0  0  0  0  0  0  0  0  0  0  0  0
   44.6392   34.8886   42.0142 F   0  0  0  0  0  0  0  0  0  0  0  0
   46.8653   35.4628   42.1272 F   0  0  0  0  0  0  0  0  0  0  0  0
   44.6558   31.1959   48.5334 H   0  0  0  0  0  0  0  0  0  0  0  0
   44.8855   31.0704   46.7887 H   0  0  0  0  0  0  0  0  0  0  0  0
   45.9951   28.8309   46.8258 H   0  0  0  0  0  0  0  0  0  0  0  0
   48.1774   27.6472   47.2404 H   0  0  0  0  0  0  0  0  0  0  0  0
   44.2054   35.7703   44.9276 H   0  0  0  0  0  0  0  0  0  0  0  0
   47.5958   33.2183   43.2266 N   0  0  0  0  0  0  0  0  0  0  0  0
   48.7680   33.8421   42.6430 C   0  0  0  0  0  0  0  0  0  0  0  0
   49.8482   32.8986   42.2486 C   0  0  0  0  0  0  0  0  0  0  0  0
   49.3978   31.5384   41.8401 C   0  0  0  0  0  0  0  0  0  0  0  0
   49.9203   31.1919   40.9224 H   0  0  0  0  0  0  0  0  0  0  0  0
   47.9261   31.4475   41.5753 C   0  0  0  0  0  0  0  0  0  0  0  0
   47.1332   31.8867   42.8061 C   0  0  0  0  0  0  0  0  0  0  0  0
   49.1587   34.5657   43.4045 H   0  0  0  0  0  0  0  0  0  0  0  0
   48.4042   34.4695   41.7988 H   0  0  0  0  0  0  0  0  0  0  0  0
   50.3630   33.3644   41.3626 H   0  0  0  0  0  0  0  0  0  0  0  0
   50.5781   32.8288   43.0945 H   0  0  0  0  0  0  0  0  0  0  0  0
   49.6226   30.8025   42.6611 H   0  0  0  0  0  0  0  0  0  0  0  0
   47.6720   30.3807   41.4022 H   0  0  0  0  0  0  0  0  0  0  0  0
   47.6076   32.0047   40.6758 H   0  0  0  0  0  0  0  0  0  0  0  0
   47.2743   31.1196   43.5705 H   0  0  0  0  0  0  0  0  0  0  0  0
   46.0708   31.8899   42.5013 H   0  0  0  0  0  0  0  0  0  0  0  0
  1  2  1  0
  2  7  2  0
  3  4  2  0
  3  2  1  0
  4  5  1  0
  5  6  2  0
  6  8  1  0
  7  6  1  0
  8 11  1  0
  9  8  1  0
 10  8  1  0
 12  1  1  0
 13 18  2  0
 14 15  2  0
 14 13  1  0
 15 16  1  0
 16 17  2  0
 17 12  1  0
 18 17  1  0
 19 20  1  0
 19 14  1  0
 21 19  1  0
 22 19  1  0
  1 23  1  0
  1 24  1  0
  3 25  1  0
  4 26  1  0
 13 27  1  0
 28 29  1  0
 29 30  1  0
 30 31  1  0
 31 32  1  0
 31 33  1  0
 33 34  1  0
 34 28  1  0
 29 35  1  0
 29 36  1  0
 30 37  1  0
 30 38  1  0
 31 39  1  0
 33 40  1  0
 33 41  1  0
 34 42  1  0
 34 43  1  0
 15 28  1  0
M  ISO  6  23   8  24   8  25  14  26  14  27  14  32  15
M  END
>  <DihAtoms>  (1) 
13,14,27,28

>  <DihDeg>  (1) 
-64.9422013658406

$$$$
