
 OpenBabel03252508193D

 32 34  0  0  0  0  0  0  0  0999 V2000
   45.6910   33.7600   40.7140 C   0  0  0  0  0  0  0  0  0  0  0  0
   46.1720   33.4470   39.4520 C   0  0  0  0  0  0  0  0  0  0  0  0
   47.4120   33.7690   38.9520 C   0  0  0  0  0  0  0  0  0  0  0  0
   48.2420   34.4840   39.8390 C   0  0  0  0  0  0  0  0  0  0  0  0
   47.8070   34.8170   41.1020 C   0  0  0  0  0  0  0  0  0  0  0  0
   46.5490   34.4670   41.5510 C   0  0  0  0  0  0  0  0  0  0  0  0
   45.4700   32.8950   38.8300 H   0  0  0  0  0  0  0  0  0  0  0  0
   47.6940   33.4760   37.9480 H   0  0  0  0  0  0  0  0  0  0  0  0
   49.2250   34.7410   39.4520 H   0  0  0  0  0  0  0  0  0  0  0  0
   48.5210   35.3700   41.7150 H   0  0  0  0  0  0  0  0  0  0  0  0
   46.2480   34.8740   42.8570 N   0  0  0  0  0  0  0  0  0  0  0  0
   45.5230   36.0990   43.1420 C   0  0  0  0  0  0  0  0  0  0  0  0
   44.2830   35.8200   44.0010 C   0  0  0  0  0  0  0  0  0  0  0  0
   44.7410   35.1870   45.2800 C   0  0  0  0  0  0  0  0  0  0  0  0
   45.4180   35.8610   45.8580 H   0  0  0  0  0  0  0  0  0  0  0  0
   45.4790   33.9160   44.9840 C   0  0  0  0  0  0  0  0  0  0  0  0
   46.6270   34.1210   44.0160 C   0  0  0  0  0  0  0  0  0  0  0  0
   44.3640   33.4060   41.2210 C   0  0  0  0  0  0  0  0  0  0  0  0
   43.9010   34.2040   41.8350 H   0  0  0  0  0  0  0  0  0  0  0  0
   44.3940   32.4130   41.7360 H   0  0  0  0  0  0  0  0  0  0  0  0
   43.3900   33.1930   40.0570 C   0  0  0  0  0  0  0  0  0  0  0  0
   43.0160   32.1620   40.1310 H   0  0  0  0  0  0  0  0  0  0  0  0
   43.9260   33.3240   39.1100 H   0  0  0  0  0  0  0  0  0  0  0  0
   40.2220   35.0970   39.3510 C   0  0  0  0  0  0  0  0  0  0  0  0
   41.3180   34.2130   39.2270 C   0  0  0  0  0  0  0  0  0  0  0  0
   42.2640   34.1310   40.2330 C   0  0  0  0  0  0  0  0  0  0  0  0
   42.0590   34.9400   41.3120 N   0  0  0  0  0  0  0  0  0  0  0  0
   41.0250   35.7670   41.4180 C   0  0  0  0  0  0  0  0  0  0  0  0
   40.1000   35.8590   40.4510 N   0  0  0  0  0  0  0  0  0  0  0  0
   39.5270   35.0920   38.5040 H   0  0  0  0  0  0  0  0  0  0  0  0
   41.4110   33.6030   38.3410 H   0  0  0  0  0  0  0  0  0  0  0  0
   40.9610   36.3640   42.3180 H   0  0  0  0  0  0  0  0  0  0  0  0
  1 18  1  0  0  0  0
  1  6  1  0  0  0  0
  2  1  2  0  0  0  0
  3  2  1  0  0  0  0
  3  4  2  0  0  0  0
  4  5  1  0  0  0  0
  5  6  2  0  0  0  0
  5 10  1  0  0  0  0
  6 11  1  0  0  0  0
  7  2  1  0  0  0  0
  8  3  1  0  0  0  0
  9  4  1  0  0  0  0
 11 12  1  0  0  0  0
 11 17  1  0  0  0  0
 12 13  1  0  0  0  0
 13 14  1  0  0  0  0
 14 15  1  0  0  0  0
 16 14  1  0  0  0  0
 17 16  1  0  0  0  0
 18 20  1  0  0  0  0
 18 19  1  0  0  0  0
 21 22  1  0  0  0  0
 21 26  1  0  0  0  0
 21 18  1  0  0  0  0
 23 21  1  0  0  0  0
 24 29  1  0  0  0  0
 25 24  2  0  0  0  0
 25 26  1  0  0  0  0
 26 27  2  0  0  0  0
 27 28  1  0  0  0  0
 28 32  1  0  0  0  0
 29 28  2  0  0  0  0
 30 24  1  0  0  0  0
 31 25  1  0  0  0  0
M  END
>  <minimizedAffinity>
-5.49858189

>  <minimizedRMSD>
1.64519584

$$$$
