
 OpenBabel03252501023D

 23 25  0  0  1  0  0  0  0  0999 V2000
   35.5210   29.9770   40.1740 C   0  0  1  0  0  0  0  0  0  0  0  0
   35.5440   28.6390   39.4760 C   0  0  0  0  0  0  0  0  0  0  0  0
   35.8230   28.8130   40.9950 C   0  0  1  0  0  0  0  0  0  0  0  0
   34.4990   30.4520   40.2780 H   0  0  0  0  0  0  0  0  0  0  0  0
   34.5530   28.2260   39.1830 H   0  0  0  0  0  0  0  0  0  0  0  0
   36.3600   28.4100   38.8030 H   0  0  0  0  0  0  0  0  0  0  0  0
   35.0180   28.3170   41.6040 H   0  0  0  0  0  0  0  0  0  0  0  0
   38.2860   31.6980   38.2670 C   0  0  0  0  0  0  0  0  0  0  0  0
   37.2850   30.7520   38.5440 C   0  0  0  0  0  0  0  0  0  0  0  0
   36.6130   30.8900   39.7490 C   0  0  0  0  0  0  0  0  0  0  0  0
   36.9530   31.9110   40.5740 N   0  0  0  0  0  0  0  0  0  0  0  0
   37.9190   32.8180   40.2980 C   0  0  0  0  0  0  0  0  0  0  0  0
   38.5870   32.6980   39.1260 N   0  0  0  0  0  0  0  0  0  0  0  0
   38.8310   31.6110   37.3270 H   0  0  0  0  0  0  0  0  0  0  0  0
   37.0260   29.9450   37.8740 H   0  0  0  0  0  0  0  0  0  0  0  0
   38.0870   33.5750   41.0400 H   0  0  0  0  0  0  0  0  0  0  0  0
   37.1450   28.3630   41.3230 N   0  0  0  0  0  0  0  0  0  0  0  0
   37.3280   26.9660   41.4760 C   0  0  0  0  0  2  0  0  0  0  0  0
   38.7080   26.6880   42.0930 C   0  0  0  0  0  2  0  0  0  0  0  0
   38.5910   27.0380   43.5590 C   0  0  0  0  0  3  0  0  0  0  0  0
   38.0720   26.1860   44.0640 H   0  0  0  0  0  0  0  0  0  0  0  0
   37.7000   28.2410   43.6800 C   0  0  0  0  0  2  0  0  0  0  0  0
   37.7300   29.0830   42.4260 C   0  0  0  0  0  2  0  0  0  0  0  0
  1  4  1  1  0  0  0
  1  3  1  0  0  0  0
  2  1  1  0  0  0  0
  2  3  1  0  0  0  0
  3 17  1  0  0  0  0
  3  7  1  1  0  0  0
  5  2  1  0  0  0  0
  6  2  1  0  0  0  0
  8  9  2  0  0  0  0
  8 13  1  0  0  0  0
  9 10  1  0  0  0  0
 10  1  1  0  0  0  0
 10 11  2  0  0  0  0
 12 11  1  0  0  0  0
 12 16  1  0  0  0  0
 13 12  2  0  0  0  0
 14  8  1  0  0  0  0
 15  9  1  0  0  0  0
 17 18  1  0  0  0  0
 17 23  1  0  0  0  0
 18 19  1  0  0  0  0
 19 20  1  0  0  0  0
 20 22  1  0  0  0  0
 20 21  1  0  0  0  0
 23 22  1  0  0  0  0
M  END
>  <minimizedAffinity>
-4.47748375

$$$$

 OpenBabel03252501023D

 23 25  0  0  1  0  0  0  0  0999 V2000
   35.5720   29.9500   39.9370 C   0  0  1  0  0  0  0  0  0  0  0  0
   35.5970   28.5550   39.3620 C   0  0  0  0  0  0  0  0  0  0  0  0
   35.8170   28.8600   40.8700 C   0  0  1  0  0  0  0  0  0  0  0  0
   34.5560   30.4500   39.9560 H   0  0  0  0  0  0  0  0  0  0  0  0
   34.6100   28.1340   39.0650 H   0  0  0  0  0  0  0  0  0  0  0  0
   36.4350   28.2540   38.7470 H   0  0  0  0  0  0  0  0  0  0  0  0
   34.9770   28.4340   41.4860 H   0  0  0  0  0  0  0  0  0  0  0  0
   38.1550   32.6790   39.5840 C   0  0  0  0  0  0  0  0  0  0  0  0
   37.0600   31.9800   40.1200 C   0  0  0  0  0  0  0  0  0  0  0  0
   36.6980   30.8040   39.4800 C   0  0  0  0  0  0  0  0  0  0  0  0
   37.4080   30.4040   38.3970 N   0  0  0  0  0  0  0  0  0  0  0  0
   38.4620   31.0840   37.8880 C   0  0  0  0  0  0  0  0  0  0  0  0
   38.8300   32.2350   38.5000 N   0  0  0  0  0  0  0  0  0  0  0  0
   38.4600   33.6060   40.0670 H   0  0  0  0  0  0  0  0  0  0  0  0
   36.5060   32.3130   40.9850 H   0  0  0  0  0  0  0  0  0  0  0  0
   38.9340   30.6540   37.0260 H   0  0  0  0  0  0  0  0  0  0  0  0
   37.1150   28.4190   41.2920 N   0  0  0  0  0  0  0  0  0  0  0  0
   37.2780   27.0300   41.5240 C   0  0  0  0  0  2  0  0  0  0  0  0
   38.6180   26.7750   42.2300 C   0  0  0  0  0  2  0  0  0  0  0  0
   38.4240   27.1980   43.6680 C   0  0  0  0  0  3  0  0  0  0  0  0
   37.8710   26.3760   44.1850 H   0  0  0  0  0  0  0  0  0  0  0  0
   37.5380   28.4120   43.6790 C   0  0  0  0  0  2  0  0  0  0  0  0
   37.6440   29.1900   42.3890 C   0  0  0  0  0  2  0  0  0  0  0  0
  1  4  1  1  0  0  0
  1  3  1  0  0  0  0
  2  1  1  0  0  0  0
  2  3  1  0  0  0  0
  3 17  1  0  0  0  0
  3  7  1  1  0  0  0
  5  2  1  0  0  0  0
  6  2  1  0  0  0  0
  8 14  1  0  0  0  0
  8  9  1  0  0  0  0
  9 15  1  0  0  0  0
 10  1  1  0  0  0  0
 10  9  2  0  0  0  0
 11 10  1  0  0  0  0
 12 11  2  0  0  0  0
 12 13  1  0  0  0  0
 13  8  2  0  0  0  0
 16 12  1  0  0  0  0
 17 18  1  0  0  0  0
 17 23  1  0  0  0  0
 18 19  1  0  0  0  0
 19 20  1  0  0  0  0
 20 22  1  0  0  0  0
 20 21  1  0  0  0  0
 23 22  1  0  0  0  0
M  END
>  <minimizedAffinity>
-4.34911299

$$$$

 OpenBabel03252501023D

 23 25  0  0  1  0  0  0  0  0999 V2000
   36.6330   31.5030   40.3630 C   0  0  1  0  0  0  0  0  0  0  0  0
   36.2060   30.3120   39.5410 C   0  0  0  0  0  0  0  0  0  0  0  0
   36.4570   30.2440   41.0730 C   0  0  1  0  0  0  0  0  0  0  0  0
   35.8460   32.3060   40.4980 H   0  0  0  0  0  0  0  0  0  0  0  0
   35.1480   30.3130   39.1960 H   0  0  0  0  0  0  0  0  0  0  0  0
   36.9160   29.8600   38.8590 H   0  0  0  0  0  0  0  0  0  0  0  0
   35.4980   30.0250   41.6200 H   0  0  0  0  0  0  0  0  0  0  0  0
   40.0010   33.2030   40.4550 C   0  0  0  0  0  0  0  0  0  0  0  0
   38.7140   32.8340   40.8800 C   0  0  0  0  0  0  0  0  0  0  0  0
   37.9990   31.9910   40.0430 C   0  0  0  0  0  0  0  0  0  0  0  0
   38.5720   31.5790   38.8850 N   0  0  0  0  0  0  0  0  0  0  0  0
   39.8130   31.9410   38.4840 C   0  0  0  0  0  0  0  0  0  0  0  0
   40.5260   32.7640   39.2890 N   0  0  0  0  0  0  0  0  0  0  0  0
   40.5840   33.8650   41.0940 H   0  0  0  0  0  0  0  0  0  0  0  0
   38.2730   33.1700   41.8070 H   0  0  0  0  0  0  0  0  0  0  0  0
   40.1440   31.5430   37.5440 H   0  0  0  0  0  0  0  0  0  0  0  0
   37.5110   29.3200   41.3740 N   0  0  0  0  0  0  0  0  0  0  0  0
   37.2140   27.9400   41.2370 C   0  0  0  0  0  2  0  0  0  0  0  0
   38.3410   27.1020   41.8610 C   0  0  0  0  0  2  0  0  0  0  0  0
   38.1580   27.2000   43.3580 C   0  0  0  0  0  3  0  0  0  0  0  0
   37.3340   26.5000   43.6390 H   0  0  0  0  0  0  0  0  0  0  0  0
   37.6940   28.5920   43.6800 C   0  0  0  0  0  2  0  0  0  0  0  0
   38.1520   29.5850   42.6370 C   0  0  0  0  0  2  0  0  0  0  0  0
  1  4  1  1  0  0  0
  1  3  1  0  0  0  0
  2  1  1  0  0  0  0
  2  3  1  0  0  0  0
  3 17  1  0  0  0  0
  3  7  1  1  0  0  0
  5  2  1  0  0  0  0
  6  2  1  0  0  0  0
  8  9  1  0  0  0  0
  8 14  1  0  0  0  0
  9 15  1  0  0  0  0
 10  1  1  0  0  0  0
 10  9  2  0  0  0  0
 11 10  1  0  0  0  0
 12 11  2  0  0  0  0
 12 13  1  0  0  0  0
 13  8  2  0  0  0  0
 16 12  1  0  0  0  0
 17 23  1  0  0  0  0
 18 17  1  0  0  0  0
 18 19  1  0  0  0  0
 19 20  1  0  0  0  0
 20 21  1  0  0  0  0
 20 22  1  0  0  0  0
 23 22  1  0  0  0  0
M  END
>  <minimizedAffinity>
-4.31155014

$$$$

 OpenBabel03252501023D

 23 25  0  0  1  0  0  0  0  0999 V2000
   38.2370   28.5640   42.9780 C   0  0  1  0  0  0  0  0  0  0  0  0
   37.0800   27.8950   43.6790 C   0  0  0  0  0  0  0  0  0  0  0  0
   38.2380   27.1080   43.0040 C   0  0  1  0  0  0  0  0  0  0  0  0
   38.9630   29.1100   43.6530 H   0  0  0  0  0  0  0  0  0  0  0  0
   37.0840   27.9560   44.7900 H   0  0  0  0  0  0  0  0  0  0  0  0
   36.1020   27.9130   43.2160 H   0  0  0  0  0  0  0  0  0  0  0  0
   38.8380   26.5500   43.7750 H   0  0  0  0  0  0  0  0  0  0  0  0
   38.2330   30.2530   39.6020 C   0  0  0  0  0  0  0  0  0  0  0  0
   38.7460   29.5780   40.7230 C   0  0  0  0  0  0  0  0  0  0  0  0
   37.8470   29.2840   41.7380 C   0  0  0  0  0  0  0  0  0  0  0  0
   36.5520   29.6570   41.5930 N   0  0  0  0  0  0  0  0  0  0  0  0
   36.0680   30.3070   40.5080 C   0  0  0  0  0  0  0  0  0  0  0  0
   36.9310   30.6020   39.5070 N   0  0  0  0  0  0  0  0  0  0  0  0
   38.9180   30.4960   38.7910 H   0  0  0  0  0  0  0  0  0  0  0  0
   39.7820   29.2870   40.8230 H   0  0  0  0  0  0  0  0  0  0  0  0
   35.0210   30.5430   40.5240 H   0  0  0  0  0  0  0  0  0  0  0  0
   37.7370   26.2700   41.9530 N   0  0  0  0  0  0  0  0  0  0  0  0
   36.9460   25.1590   42.3410 C   0  0  0  0  0  2  0  0  0  0  0  0
   36.7360   24.2270   41.1370 C   0  0  0  0  0  2  0  0  0  0  0  0
   38.0410   23.4880   40.9450 C   0  0  0  0  0  3  0  0  0  0  0  0
   38.0770   22.6730   41.7080 H   0  0  0  0  0  0  0  0  0  0  0  0
   39.1630   24.4400   41.2490 C   0  0  0  0  0  2  0  0  0  0  0  0
   38.7540   25.8740   41.0120 C   0  0  0  0  0  2  0  0  0  0  0  0
  1  3  1  0  0  0  0
  1  4  1  1  0  0  0
  1  2  1  0  0  0  0
  2  5  1  0  0  0  0
  3  2  1  0  0  0  0
  3  7  1  1  0  0  0
  6  2  1  0  0  0  0
  8  9  1  0  0  0  0
  9 15  1  0  0  0  0
  9 10  2  0  0  0  0
 10  1  1  0  0  0  0
 11 10  1  0  0  0  0
 12 16  1  0  0  0  0
 12 11  2  0  0  0  0
 13  8  2  0  0  0  0
 13 12  1  0  0  0  0
 14  8  1  0  0  0  0
 17 18  1  0  0  0  0
 17  3  1  0  0  0  0
 19 18  1  0  0  0  0
 20 19  1  0  0  0  0
 20 22  1  0  0  0  0
 20 21  1  0  0  0  0
 23 22  1  0  0  0  0
 23 17  1  0  0  0  0
M  END
>  <minimizedAffinity>
-4.26754761

$$$$

 OpenBabel03252501023D

 23 25  0  0  1  0  0  0  0  0999 V2000
   39.4140   29.8460   42.8910 C   0  0  1  0  0  0  0  0  0  0  0  0
   40.5250   29.8190   41.8700 C   0  0  0  0  0  0  0  0  0  0  0  0
   39.3490   30.8330   41.8230 C   0  0  1  0  0  0  0  0  0  0  0  0
   39.7130   30.1970   43.9250 H   0  0  0  0  0  0  0  0  0  0  0  0
   41.5130   30.1980   42.2170 H   0  0  0  0  0  0  0  0  0  0  0  0
   40.5640   29.0070   41.1560 H   0  0  0  0  0  0  0  0  0  0  0  0
   39.7240   31.8810   41.9890 H   0  0  0  0  0  0  0  0  0  0  0  0
   36.5930   27.3860   43.3780 C   0  0  0  0  0  0  0  0  0  0  0  0
   37.3240   28.5780   43.5190 C   0  0  0  0  0  0  0  0  0  0  0  0
   38.5370   28.6470   42.8500 C   0  0  0  0  0  0  0  0  0  0  0  0
   38.9400   27.5830   42.1140 N   0  0  0  0  0  0  0  0  0  0  0  0
   38.2280   26.4380   41.9860 C   0  0  0  0  0  0  0  0  0  0  0  0
   37.0410   26.3520   42.6310 N   0  0  0  0  0  0  0  0  0  0  0  0
   35.6370   27.3050   43.8940 H   0  0  0  0  0  0  0  0  0  0  0  0
   36.9870   29.4180   44.1090 H   0  0  0  0  0  0  0  0  0  0  0  0
   38.6650   25.6730   41.3720 H   0  0  0  0  0  0  0  0  0  0  0  0
   38.5960   30.6800   40.6120 N   0  0  0  0  0  0  0  0  0  0  0  0
   39.2190   31.1040   39.4110 C   0  0  0  0  0  2  0  0  0  0  0  0
   38.1860   31.1340   38.2740 C   0  0  0  0  0  2  0  0  0  0  0  0
   37.3390   32.3640   38.5070 C   0  0  0  0  0  3  0  0  0  0  0  0
   37.9240   33.2450   38.1450 H   0  0  0  0  0  0  0  0  0  0  0  0
   37.1530   32.5260   39.9880 C   0  0  0  0  0  2  0  0  0  0  0  0
   37.2560   31.2030   40.7100 C   0  0  0  0  0  2  0  0  0  0  0  0
  1  4  1  1  0  0  0
  2  5  1  0  0  0  0
  2  1  1  0  0  0  0
  3  2  1  0  0  0  0
  3  7  1  1  0  0  0
  3  1  1  0  0  0  0
  6  2  1  0  0  0  0
  8  9  1  0  0  0  0
  8 14  1  0  0  0  0
  9 15  1  0  0  0  0
 10  1  1  0  0  0  0
 10  9  2  0  0  0  0
 11 10  1  0  0  0  0
 12 11  2  0  0  0  0
 12 13  1  0  0  0  0
 13  8  2  0  0  0  0
 16 12  1  0  0  0  0
 17 23  1  0  0  0  0
 17  3  1  0  0  0  0
 18 17  1  0  0  0  0
 19 20  1  0  0  0  0
 19 18  1  0  0  0  0
 20 22  1  0  0  0  0
 21 20  1  0  0  0  0
 22 23  1  0  0  0  0
M  END
>  <minimizedAffinity>
-4.26261425

$$$$

 OpenBabel03252501023D

 23 25  0  0  1  0  0  0  0  0999 V2000
   36.9850   27.2370   43.0220 C   0  0  1  0  0  0  0  0  0  0  0  0
   37.8990   28.4350   43.1070 C   0  0  0  0  0  0  0  0  0  0  0  0
   36.6560   28.3760   42.1770 C   0  0  1  0  0  0  0  0  0  0  0  0
   36.3450   27.0490   43.9370 H   0  0  0  0  0  0  0  0  0  0  0  0
   37.8150   29.0460   44.0330 H   0  0  0  0  0  0  0  0  0  0  0  0
   38.8920   28.3710   42.6820 H   0  0  0  0  0  0  0  0  0  0  0  0
   35.8830   29.1250   42.5020 H   0  0  0  0  0  0  0  0  0  0  0  0
   37.6550   23.8640   41.4680 C   0  0  0  0  0  0  0  0  0  0  0  0
   36.9140   24.9220   42.0200 C   0  0  0  0  0  0  0  0  0  0  0  0
   37.6300   26.0360   42.4330 C   0  0  0  0  0  0  0  0  0  0  0  0
   38.9770   26.0400   42.2820 N   0  0  0  0  0  0  0  0  0  0  0  0
   39.6820   25.0140   41.7480 C   0  0  0  0  0  0  0  0  0  0  0  0
   39.0000   23.9180   41.3400 N   0  0  0  0  0  0  0  0  0  0  0  0
   37.1170   22.9760   41.1360 H   0  0  0  0  0  0  0  0  0  0  0  0
   35.8390   24.9030   42.1320 H   0  0  0  0  0  0  0  0  0  0  0  0
   40.7450   25.1490   41.6880 H   0  0  0  0  0  0  0  0  0  0  0  0
   37.0430   28.5140   40.8030 N   0  0  0  0  0  0  0  0  0  0  0  0
   37.3800   29.8180   40.3590 C   0  0  0  0  0  2  0  0  0  0  0  0
   37.4920   29.8320   38.8270 C   0  0  0  0  0  2  0  0  0  0  0  0
   36.0750   29.8000   38.3020 C   0  0  0  0  0  3  0  0  0  0  0  0
   35.6640   30.8350   38.3900 H   0  0  0  0  0  0  0  0  0  0  0  0
   35.2640   28.9160   39.2060 C   0  0  0  0  0  2  0  0  0  0  0  0
   36.1260   27.8810   39.8900 C   0  0  0  0  0  2  0  0  0  0  0  0
  1  2  1  0  0  0  0
  1  4  1  1  0  0  0
  2  5  1  0  0  0  0
  3  7  1  1  0  0  0
  3  1  1  0  0  0  0
  3  2  1  0  0  0  0
  6  2  1  0  0  0  0
  8  9  1  0  0  0  0
  9 15  1  0  0  0  0
  9 10  2  0  0  0  0
 10  1  1  0  0  0  0
 11 10  1  0  0  0  0
 12 11  2  0  0  0  0
 13  8  2  0  0  0  0
 13 12  1  0  0  0  0
 14  8  1  0  0  0  0
 16 12  1  0  0  0  0
 17  3  1  0  0  0  0
 18 17  1  0  0  0  0
 19 18  1  0  0  0  0
 20 21  1  0  0  0  0
 20 19  1  0  0  0  0
 20 22  1  0  0  0  0
 22 23  1  0  0  0  0
 23 17  1  0  0  0  0
M  END
>  <minimizedAffinity>
-4.25380421

$$$$

 OpenBabel03252501023D

 23 25  0  0  1  0  0  0  0  0999 V2000
   38.7380   30.1630   38.7350 C   0  0  1  0  0  0  0  0  0  0  0  0
   39.9840   29.5360   39.3120 C   0  0  0  0  0  0  0  0  0  0  0  0
   38.5480   29.0620   39.6690 C   0  0  1  0  0  0  0  0  0  0  0  0
   38.5600   29.9650   37.6350 H   0  0  0  0  0  0  0  0  0  0  0  0
   40.5730   28.8970   38.6160 H   0  0  0  0  0  0  0  0  0  0  0  0
   40.5640   30.0890   40.0380 H   0  0  0  0  0  0  0  0  0  0  0  0
   38.3720   28.0170   39.2940 H   0  0  0  0  0  0  0  0  0  0  0  0
   37.2300   33.5350   39.5100 C   0  0  0  0  0  0  0  0  0  0  0  0
   37.3010   32.2160   39.0300 C   0  0  0  0  0  0  0  0  0  0  0  0
   38.5150   31.5620   39.1800 C   0  0  0  0  0  0  0  0  0  0  0  0
   39.5430   32.2200   39.7700 N   0  0  0  0  0  0  0  0  0  0  0  0
   39.4650   33.4910   40.2290 C   0  0  0  0  0  0  0  0  0  0  0  0
   38.2870   34.1460   40.0910 N   0  0  0  0  0  0  0  0  0  0  0  0
   36.2880   34.0710   39.4040 H   0  0  0  0  0  0  0  0  0  0  0  0
   36.4700   31.7060   38.5630 H   0  0  0  0  0  0  0  0  0  0  0  0
   40.3560   33.8910   40.6740 H   0  0  0  0  0  0  0  0  0  0  0  0
   38.2990   29.2150   41.0740 N   0  0  0  0  0  0  0  0  0  0  0  0
   38.9260   28.2850   41.9410 C   0  0  0  0  0  2  0  0  0  0  0  0
   38.3360   28.4140   43.3540 C   0  0  0  0  0  2  0  0  0  0  0  0
   36.9750   27.7580   43.3040 C   0  0  0  0  0  3  0  0  0  0  0  0
   37.1370   26.6530   43.3550 H   0  0  0  0  0  0  0  0  0  0  0  0
   36.3620   28.0610   41.9670 C   0  0  0  0  0  2  0  0  0  0  0  0
   36.8990   29.3500   41.3890 C   0  0  0  0  0  2  0  0  0  0  0  0
  1  4  1  6  0  0  0
  1 10  1  0  0  0  0
  1  2  1  0  0  0  0
  1  3  1  0  0  0  0
  2  3  1  0  0  0  0
  2  6  1  0  0  0  0
  3  7  1  6  0  0  0
  3 17  1  0  0  0  0
  5  2  1  0  0  0  0
  8 13  1  0  0  0  0
  9 10  1  0  0  0  0
  9  8  2  0  0  0  0
 10 11  2  0  0  0  0
 11 12  1  0  0  0  0
 12 16  1  0  0  0  0
 13 12  2  0  0  0  0
 14  8  1  0  0  0  0
 15  9  1  0  0  0  0
 17 23  1  0  0  0  0
 17 18  1  0  0  0  0
 18 19  1  0  0  0  0
 20 19  1  0  0  0  0
 20 21  1  0  0  0  0
 22 20  1  0  0  0  0
 23 22  1  0  0  0  0
M  END
>  <minimizedAffinity>
-4.2296114

$$$$

 OpenBabel03252501023D

 23 25  0  0  1  0  0  0  0  0999 V2000
   40.0990   30.5300   41.2210 C   0  0  1  0  0  0  0  0  0  0  0  0
   39.7730   30.8000   42.6700 C   0  0  0  0  0  0  0  0  0  0  0  0
   39.7080   29.3850   42.0310 C   0  0  1  0  0  0  0  0  0  0  0  0
   41.1910   30.6380   40.9410 H   0  0  0  0  0  0  0  0  0  0  0  0
   40.6400   31.0230   43.3300 H   0  0  0  0  0  0  0  0  0  0  0  0
   38.8560   31.3220   42.9150 H   0  0  0  0  0  0  0  0  0  0  0  0
   40.4870   28.7120   42.4840 H   0  0  0  0  0  0  0  0  0  0  0  0
   38.0970   31.4230   38.1490 C   0  0  0  0  0  0  0  0  0  0  0  0
   39.0730   30.7810   38.9290 C   0  0  0  0  0  0  0  0  0  0  0  0
   39.1310   31.1330   40.2690 C   0  0  0  0  0  0  0  0  0  0  0  0
   38.2590   32.0580   40.7410 N   0  0  0  0  0  0  0  0  0  0  0  0
   37.3220   32.6710   39.9800 C   0  0  0  0  0  0  0  0  0  0  0  0
   37.2510   32.3400   38.6690 N   0  0  0  0  0  0  0  0  0  0  0  0
   38.0310   31.1650   37.0930 H   0  0  0  0  0  0  0  0  0  0  0  0
   39.7600   30.0440   38.5370 H   0  0  0  0  0  0  0  0  0  0  0  0
   36.6960   33.3850   40.4810 H   0  0  0  0  0  0  0  0  0  0  0  0
   38.3780   28.8540   42.1090 N   0  0  0  0  0  0  0  0  0  0  0  0
   37.9670   28.3340   43.3620 C   0  0  0  0  0  2  0  0  0  0  0  0
   36.6480   27.5630   43.1970 C   0  0  0  0  0  2  0  0  0  0  0  0
   37.0080   26.2500   42.5410 C   0  0  0  0  0  3  0  0  0  0  0  0
   37.4230   25.5840   43.3360 H   0  0  0  0  0  0  0  0  0  0  0  0
   38.1080   26.5100   41.5530 C   0  0  0  0  0  2  0  0  0  0  0  0
   38.0740   27.9320   41.0440 C   0  0  0  0  0  2  0  0  0  0  0  0
  1  4  1  6  0  0  0
  1  3  1  0  0  0  0
  1  2  1  0  0  0  0
  2  6  1  0  0  0  0
  2  5  1  0  0  0  0
  3 17  1  0  0  0  0
  3  7  1  1  0  0  0
  3  2  1  0  0  0  0
  8 13  2  0  0  0  0
  8  9  1  0  0  0  0
  9 10  2  0  0  0  0
 10 11  1  0  0  0  0
 10  1  1  0  0  0  0
 12 16  1  0  0  0  0
 12 11  2  0  0  0  0
 13 12  1  0  0  0  0
 14  8  1  0  0  0  0
 15  9  1  0  0  0  0
 17 18  1  0  0  0  0
 19 18  1  0  0  0  0
 20 19  1  0  0  0  0
 20 21  1  0  0  0  0
 22 20  1  0  0  0  0
 23 22  1  0  0  0  0
 23 17  1  0  0  0  0
M  END
>  <minimizedAffinity>
-4.13073397

$$$$

 OpenBabel03252501023D

 23 25  0  0  1  0  0  0  0  0999 V2000
   36.8320   27.6840   42.8720 C   0  0  1  0  0  0  0  0  0  0  0  0
   37.0780   26.2490   42.4760 C   0  0  0  0  0  0  0  0  0  0  0  0
   38.1650   27.1540   43.1190 C   0  0  1  0  0  0  0  0  0  0  0  0
   36.1450   27.8330   43.7590 H   0  0  0  0  0  0  0  0  0  0  0  0
   36.6060   25.4780   43.1260 H   0  0  0  0  0  0  0  0  0  0  0  0
   37.1410   25.9960   41.4260 H   0  0  0  0  0  0  0  0  0  0  0  0
   38.4490   26.7680   44.1370 H   0  0  0  0  0  0  0  0  0  0  0  0
   35.9600   29.1070   39.4870 C   0  0  0  0  0  0  0  0  0  0  0  0
   36.1560   28.1360   40.4830 C   0  0  0  0  0  0  0  0  0  0  0  0
   36.5940   28.5890   41.7180 C   0  0  0  0  0  0  0  0  0  0  0  0
   36.8030   29.9180   41.8910 N   0  0  0  0  0  0  0  0  0  0  0  0
   36.6110   30.8460   40.9240 C   0  0  0  0  0  0  0  0  0  0  0  0
   36.1840   30.4220   39.7110 N   0  0  0  0  0  0  0  0  0  0  0  0
   35.6170   28.7780   38.5070 H   0  0  0  0  0  0  0  0  0  0  0  0
   35.9830   27.0800   40.3290 H   0  0  0  0  0  0  0  0  0  0  0  0
   36.8150   31.8640   41.1960 H   0  0  0  0  0  0  0  0  0  0  0  0
   39.2840   27.3070   42.2340 N   0  0  0  0  0  0  0  0  0  0  0  0
   40.1170   26.1750   42.0490 C   0  0  0  0  0  2  0  0  0  0  0  0
   41.4000   26.5890   41.3130 C   0  0  0  0  0  2  0  0  0  0  0  0
   42.2570   27.3050   42.3310 C   0  0  0  0  0  3  0  0  0  0  0  0
   42.7430   26.5240   42.9660 H   0  0  0  0  0  0  0  0  0  0  0  0
   41.3500   28.1060   43.2210 C   0  0  0  0  0  2  0  0  0  0  0  0
   40.0690   28.4830   42.5140 C   0  0  0  0  0  2  0  0  0  0  0  0
  1  3  1  0  0  0  0
  1  4  1  1  0  0  0
  2  1  1  0  0  0  0
  2  3  1  0  0  0  0
  2  5  1  0  0  0  0
  3  7  1  1  0  0  0
  6  2  1  0  0  0  0
  8 13  2  0  0  0  0
  8  9  1  0  0  0  0
  9 10  2  0  0  0  0
 10 11  1  0  0  0  0
 10  1  1  0  0  0  0
 12 16  1  0  0  0  0
 12 11  2  0  0  0  0
 13 12  1  0  0  0  0
 14  8  1  0  0  0  0
 15  9  1  0  0  0  0
 17 23  1  0  0  0  0
 17  3  1  0  0  0  0
 18 17  1  0  0  0  0
 19 18  1  0  0  0  0
 19 20  1  0  0  0  0
 20 21  1  0  0  0  0
 20 22  1  0  0  0  0
 23 22  1  0  0  0  0
M  END
>  <minimizedAffinity>
-3.95277643

$$$$
