
 OpenBabel03252509353D

 42 44  0  0  1  0  0  0  0  0999 V2000
   44.5230   35.4790   44.1330 O   0  0  0  0  0  0  0  0  0  0  0  0
   45.3760   34.2490   44.3730 P   0  0  1  0  0  0  0  0  0  0  0  0
   44.6830   32.8820   43.6520 O   0  0  0  0  0  0  0  0  0  0  0  0
   44.4400   33.1190   42.7350 H   0  0  0  0  0  0  0  0  0  0  0  0
   46.8880   34.5320   43.7230 O   0  0  0  0  0  0  0  0  0  0  0  0
   47.0180   33.8370   42.5140 C   0  0  1  0  0  0  0  0  0  0  0  0
   46.4370   34.6740   41.3710 C   0  0  0  0  0  0  0  0  0  0  0  0
   46.9510   33.9080   40.1780 C   0  0  0  0  0  0  0  0  0  0  0  0
   48.2360   33.2370   40.6310 C   0  0  0  0  0  0  0  0  0  0  0  0
   48.4360   33.6990   42.0560 C   0  0  1  0  0  0  0  0  0  0  0  0
   46.4970   32.8830   42.5000 H   0  0  0  0  0  0  0  0  0  0  0  0
   46.7070   35.7230   41.4100 H   0  0  0  0  0  0  0  0  0  0  0  0
   45.3340   34.6170   41.4550 H   0  0  0  0  0  0  0  0  0  0  0  0
   46.1700   33.1440   39.8960 H   0  0  0  0  0  0  0  0  0  0  0  0
   47.1250   34.5340   39.3020 H   0  0  0  0  0  0  0  0  0  0  0  0
   48.0740   32.1300   40.6050 H   0  0  0  0  0  0  0  0  0  0  0  0
   49.0880   33.4870   39.9790 H   0  0  0  0  0  0  0  0  0  0  0  0
   48.9580   32.8760   42.6190 H   0  0  0  0  0  0  0  0  0  0  0  0
   49.2030   34.9930   42.1170 C   0  0  0  0  0  0  0  0  0  0  0  0
   49.8160   35.0550   41.1760 H   0  0  0  0  0  0  0  0  0  0  0  0
   48.5750   35.8980   42.1110 H   0  0  0  0  0  0  0  0  0  0  0  0
   50.0120   35.0750   43.2290 O   0  0  0  0  0  0  0  0  0  0  0  0
   50.0440   34.2190   43.7160 H   0  0  0  0  0  0  0  0  0  0  0  0
   45.4830   33.9160   46.0050 O   0  0  0  0  0  0  0  0  0  0  0  0
   46.4140   32.9470   46.2020 C   0  0  0  0  0  0  0  0  0  0  0  0
   47.3140   33.4630   46.6520 H   0  0  0  0  0  0  0  0  0  0  0  0
   46.8040   32.4160   45.3380 H   0  0  0  0  0  0  0  0  0  0  0  0
   45.3090   31.4620   49.4300 C   0  0  0  0  0  0  0  0  0  0  0  0
   45.6890   32.4280   48.4920 C   0  0  0  0  0  0  0  0  0  0  0  0
   46.0060   31.9540   47.2120 C   0  0  0  0  0  0  0  0  0  0  0  0
   45.9290   30.6200   46.9570 N   0  0  0  0  0  0  0  0  0  0  0  0
   45.5590   29.7150   47.8870 C   0  0  0  0  0  0  0  0  0  0  0  0
   45.2540   30.1340   49.1060 N   0  0  0  0  0  0  0  0  0  0  0  0
   45.0570   31.7920   50.4310 H   0  0  0  0  0  0  0  0  0  0  0  0
   45.7200   33.4550   48.7860 H   0  0  0  0  0  0  0  0  0  0  0  0
   45.5110   28.3390   47.5220 N   0  0  0  0  0  0  0  0  0  0  0  0
   44.5680   27.4430   48.1660 C   0  0  0  0  0  2  0  0  0  0  0  0
   44.1750   26.3180   47.2300 C   0  0  0  0  0  2  0  0  0  0  0  0
   44.1400   26.9260   45.8400 C   0  0  0  0  0  3  0  0  0  0  0  0
   43.6870   26.1910   45.1580 H   0  0  0  0  0  0  0  0  0  0  0  0
   45.5010   27.3760   45.3610 C   0  0  0  0  0  2  0  0  0  0  0  0
   46.3980   27.8080   46.5040 C   0  0  0  0  0  2  0  0  0  0  0  0
  2  1  2  6  0  0  0
  2 24  1  0  0  0  0
  3  2  1  0  0  0  0
  4  3  1  0  0  0  0
  5  2  1  0  0  0  0
  6 11  1  1  0  0  0
  6  5  1  0  0  0  0
  7 12  1  0  0  0  0
  7 13  1  0  0  0  0
  7  6  1  0  0  0  0
  8  9  1  0  0  0  0
  8  7  1  0  0  0  0
  9 10  1  0  0  0  0
 10 19  1  0  0  0  0
 10  6  1  0  0  0  0
 10 18  1  1  0  0  0
 14  8  1  0  0  0  0
 15  8  1  0  0  0  0
 16  9  1  0  0  0  0
 17  9  1  0  0  0  0
 19 22  1  0  0  0  0
 20 19  1  0  0  0  0
 21 19  1  0  0  0  0
 22 23  1  0  0  0  0
 24 25  1  0  0  0  0
 25 26  1  0  0  0  0
 25 30  1  0  0  0  0
 27 25  1  0  0  0  0
 28 34  1  0  0  0  0
 29 35  1  0  0  0  0
 29 28  2  0  0  0  0
 30 29  1  0  0  0  0
 31 30  2  0  0  0  0
 31 32  1  0  0  0  0
 32 33  2  0  0  0  0
 33 28  1  0  0  0  0
 36 32  1  0  0  0  0
 36 37  1  0  0  0  0
 38 37  1  0  0  0  0
 39 38  1  0  0  0  0
 40 39  1  0  0  0  0
 41 39  1  0  0  0  0
 41 42  1  0  0  0  0
 42 36  1  0  0  0  0
M  END
>  <minimizedAffinity>
-6.08854008

>  <minimizedRMSD>
1.05359578

$$$$
