
 OpenBabel03242513233D

 43 46  0  0  1  0  0  0  0  0999 V2000
   46.1000   30.4810   47.4510 C   0  0  2  0  0  0  0  0  0  0  0  0
   44.8500   31.1520   47.9960 C   0  0  0  0  0  0  0  0  0  0  0  0
   45.4540   31.6700   49.3000 C   0  0  0  0  0  0  0  0  0  0  0  0
   46.7000   32.1240   48.9470 O   0  0  0  0  0  0  0  0  0  0  0  0
   47.1100   31.5210   47.8000 C   0  0  1  0  0  0  0  0  0  0  0  0
   46.2070   29.5410   48.0090 H   0  0  0  0  0  0  0  0  0  0  0  0
   44.0940   30.3530   48.1750 H   0  0  0  0  0  0  0  0  0  0  0  0
   44.4730   31.9570   47.3540 H   0  0  0  0  0  0  0  0  0  0  0  0
   45.5640   30.7970   49.9780 H   0  0  0  0  0  0  0  0  0  0  0  0
   44.7740   32.4360   49.7020 H   0  0  0  0  0  0  0  0  0  0  0  0
   47.2200   32.2610   47.0000 H   0  0  0  0  0  0  0  0  0  0  0  0
   48.4560   30.9060   48.0330 C   0  0  1  0  0  0  0  0  0  0  0  0
   49.0840   31.4010   49.3290 C   0  0  0  0  0  0  0  0  0  0  0  0
   49.6610   30.1290   49.8970 C   0  0  0  0  0  0  0  0  0  0  0  0
   49.6290   29.1920   48.8660 O   0  0  0  0  0  0  0  0  0  0  0  0
   48.3560   29.4160   48.3360 C   0  0  0  0  0  0  0  0  0  0  0  0
   49.1470   30.9820   47.1730 H   0  0  0  0  0  0  0  0  0  0  0  0
   49.8410   32.1640   49.1020 H   0  0  0  0  0  0  0  0  0  0  0  0
   48.2890   31.8390   49.9690 H   0  0  0  0  0  0  0  0  0  0  0  0
   49.0530   29.7970   50.7680 H   0  0  0  0  0  0  0  0  0  0  0  0
   50.6870   30.3540   50.2510 H   0  0  0  0  0  0  0  0  0  0  0  0
   48.1220   28.8130   47.4580 H   0  0  0  0  0  0  0  0  0  0  0  0
   47.6700   29.2400   49.2130 H   0  0  0  0  0  0  0  0  0  0  0  0
   45.9940   30.1600   45.9970 C   0  0  0  0  0  0  0  0  0  0  0  0
   46.4710   29.1920   45.7630 H   0  0  0  0  0  0  0  0  0  0  0  0
   44.9200   30.0910   45.7410 H   0  0  0  0  0  0  0  0  0  0  0  0
   47.3020   30.9400   44.0910 C   0  0  0  0  0  0  0  0  0  0  0  0
   46.5730   31.2220   45.1300 C   0  0  0  0  0  0  0  0  0  0  0  0
   48.3390   34.2170   42.8670 C   0  0  0  0  0  0  0  0  0  0  0  0
   48.9400   33.9080   41.6080 C   0  0  0  0  0  0  0  0  0  0  0  0
   48.9550   32.5620   41.2430 C   0  0  0  0  0  0  0  0  0  0  0  0
   48.4150   31.6480   42.0780 N   0  0  0  0  0  0  0  0  0  0  0  0
   47.8550   31.9720   43.2610 C   0  0  0  0  0  0  0  0  0  0  0  0
   47.8080   33.2430   43.6700 N   0  0  0  0  0  0  0  0  0  0  0  0
   48.2900   35.2290   43.2150 H   0  0  0  0  0  0  0  0  0  0  0  0
   49.3440   34.6890   41.0080 H   0  0  0  0  0  0  0  0  0  0  0  0
   49.5260   32.1750   40.0230 N   0  0  0  0  0  0  0  0  0  0  0  0
   50.7400   31.3830   39.9990 C   0  0  0  0  0  0  0  0  0  0  0  0
   51.3420   31.5530   38.6040 C   0  0  0  0  0  0  0  0  0  0  0  0
   50.3800   30.8680   37.6400 C   0  0  0  0  0  0  0  0  0  0  0  0
   50.8020   30.9220   36.6130 H   0  0  0  0  0  0  0  0  0  0  0  0
   49.0030   31.4390   37.7740 C   0  0  0  0  0  0  0  0  0  0  0  0
   48.9080   32.5630   38.7710 C   0  0  0  0  0  0  0  0  0  0  0  0
  1  5  1  0  0  0  0
  1  2  1  0  0  0  0
  1  6  1  1  0  0  0
  2  7  1  0  0  0  0
  2  3  1  0  0  0  0
  3 10  1  0  0  0  0
  3  9  1  0  0  0  0
  4  3  1  0  0  0  0
  5 11  1  6  0  0  0
  5 12  1  0  0  0  0
  5  4  1  0  0  0  0
  8  2  1  0  0  0  0
 12 17  1  6  0  0  0
 12 16  1  0  0  0  0
 12 13  1  0  0  0  0
 13 14  1  0  0  0  0
 13 19  1  0  0  0  0
 14 21  1  0  0  0  0
 14 20  1  0  0  0  0
 15 14  1  0  0  0  0
 16 15  1  0  0  0  0
 16 23  1  0  0  0  0
 18 13  1  0  0  0  0
 22 16  1  0  0  0  0
 24  1  1  0  0  0  0
 25 24  1  0  0  0  0
 26 24  1  0  0  0  0
 27 28  2  0  0  0  0
 28 24  1  0  0  0  0
 29 35  1  0  0  0  0
 29 34  1  0  0  0  0
 30 29  2  0  0  0  0
 31 30  1  0  0  0  0
 31 32  2  0  0  0  0
 32 33  1  0  0  0  0
 33 34  2  0  0  0  0
 33 27  1  0  0  0  0
 36 30  1  0  0  0  0
 37 31  1  0  0  0  0
 38 37  1  0  0  0  0
 39 38  1  0  0  0  0
 40 42  1  0  0  0  0
 40 39  1  0  0  0  0
 41 40  1  0  0  0  0
 42 43  1  0  0  0  0
 43 37  1  0  0  0  0
M  END
>  <minimizedAffinity>
-4.64854383

>  <minimizedRMSD>
2.52513409

$$$$
