
     RDKit          3D

 41 43  0  0  0  0  0  0  0  0999 V2000
   43.8528   33.6452   40.6084 C   0  0  0  0  0  0  0  0  0  0  0  0
   40.3818   34.8083   41.4795 C   0  0  0  0  0  0  0  0  0  0  0  0
   41.7436   34.7990   41.0997 C   0  0  0  0  0  0  0  0  0  0  0  0
   42.4329   33.6027   41.0088 C   0  0  0  0  0  0  0  0  0  0  0  0
   41.7188   32.4781   41.3040 N   0  0  0  0  0  0  0  0  0  0  0  0
   40.4395   32.4993   41.6597 C   0  0  0  0  0  0  0  0  0  0  0  0
   39.7572   33.6495   41.7526 N   0  0  0  0  0  0  0  0  0  0  0  0
   44.6794   34.0192   41.8441 C   0  0  0  0  0  0  0  0  0  0  0  0
   46.0448   34.3754   41.4535 C   0  0  0  0  0  0  0  0  0  0  0  0
   46.6467   34.0259   40.2535 C   0  0  0  0  0  0  0  0  0  0  0  0
   47.9261   34.3481   39.8642 C   0  0  0  0  0  0  0  0  0  0  0  0
   48.6600   35.1038   40.7995 C   0  0  0  0  0  0  0  0  0  0  0  0
   48.1025   35.4733   42.0040 C   0  0  0  0  0  0  0  0  0  0  0  0
   46.8108   35.1211   42.3425 C   0  0  0  0  0  0  0  0  0  0  0  0
   44.1711   32.6401   40.2971 H   0  0  0  0  0  0  0  0  0  0  0  0
   44.0607   34.3628   39.8053 H   0  0  0  0  0  0  0  0  0  0  0  0
   39.9219   35.8016   41.5236 H   0  0  0  0  0  0  0  0  0  0  0  0
   42.2409   35.7321   40.8814 H   0  0  0  0  0  0  0  0  0  0  0  0
   39.9706   31.5473   41.8717 H   0  0  0  0  0  0  0  0  0  0  0  0
   44.1241   34.8574   42.3117 H   0  0  0  0  0  0  0  0  0  0  0  0
   44.6787   33.0876   42.4632 H   0  0  0  0  0  0  0  0  0  0  0  0
   46.0137   33.4437   39.5880 H   0  0  0  0  0  0  0  0  0  0  0  0
   48.3047   34.0262   38.9022 H   0  0  0  0  0  0  0  0  0  0  0  0
   49.6716   35.3620   40.4986 H   0  0  0  0  0  0  0  0  0  0  0  0
   48.7488   36.0571   42.6619 H   0  0  0  0  0  0  0  0  0  0  0  0
   46.3818   35.5677   43.5987 N   0  0  0  0  0  0  0  0  0  0  0  0
   47.2336   36.3449   44.4818 C   0  0  0  0  0  0  0  0  0  0  0  0
   46.5583   37.6626   44.8816 C   0  0  0  0  0  0  0  0  0  0  0  0
   45.2728   37.3290   45.5751 C   0  0  0  0  0  0  0  0  0  0  0  0
   45.4432   36.7328   46.5029 H   0  0  0  0  0  0  0  0  0  0  0  0
   44.3889   36.5380   44.6578 C   0  0  0  0  0  0  0  0  0  0  0  0
   45.0732   35.2980   44.1179 C   0  0  0  0  0  0  0  0  0  0  0  0
   47.3526   35.7684   45.4216 H   0  0  0  0  0  0  0  0  0  0  0  0
   48.2119   36.5810   44.0133 H   0  0  0  0  0  0  0  0  0  0  0  0
   47.2691   38.1791   45.5487 H   0  0  0  0  0  0  0  0  0  0  0  0
   46.3449   38.2915   44.0105 H   0  0  0  0  0  0  0  0  0  0  0  0
   44.7366   38.2763   45.7930 H   0  0  0  0  0  0  0  0  0  0  0  0
   43.5226   36.1379   45.2617 H   0  0  0  0  0  0  0  0  0  0  0  0
   43.9622   37.1536   43.8462 H   0  0  0  0  0  0  0  0  0  0  0  0
   45.2345   34.6453   45.0251 H   0  0  0  0  0  0  0  0  0  0  0  0
   44.3710   34.8372   43.3940 H   0  0  0  0  0  0  0  0  0  0  0  0
  1  4  1  0
  1  8  1  0
  2  7  2  0
  3  2  1  0
  4  3  2  0
  4  5  1  0
  5  6  2  0
  6  7  1  0
  9  8  1  0
  9 14  1  0
 10  9  2  0
 11 10  1  0
 11 12  2  0
 12 13  1  0
 13 14  2  0
  1 15  1  0
  1 16  1  0
  2 17  1  0
  3 18  1  0
  6 19  1  0
  8 20  1  0
  8 21  1  0
 10 22  1  0
 11 23  1  0
 12 24  1  0
 13 25  1  0
 26 27  1  0
 27 28  1  0
 28 29  1  0
 29 30  1  0
 29 31  1  0
 31 32  1  0
 32 26  1  0
 27 33  1  0
 27 34  1  0
 28 35  1  0
 28 36  1  0
 29 37  1  0
 31 38  1  0
 31 39  1  0
 32 40  1  0
 32 41  1  0
 14 26  1  0
M  ISO  8  15   8  16   8  17  14  18  14  19  14  20   8  21   8  22  14
M  ISO  4  23  14  24  14  25  14  30  15
M  END
>  <DihAtoms>  (1) 
8,13,25,26

>  <DihDeg>  (1) 
59.99813985111978

$$$$
