
 OpenBabel03252509353D

 42 44  0  0  1  0  0  0  0  0999 V2000
   44.5150   35.4710   44.0960 O   0  0  0  0  0  0  0  0  0  0  0  0
   45.3690   34.2490   44.3670 P   0  0  1  0  0  0  0  0  0  0  0  0
   44.6870   32.8670   43.6640 O   0  0  0  0  0  0  0  0  0  0  0  0
   44.4520   33.0860   42.7400 H   0  0  0  0  0  0  0  0  0  0  0  0
   46.8860   34.5250   43.7260 O   0  0  0  0  0  0  0  0  0  0  0  0
   47.0200   33.8320   42.5170 C   0  0  1  0  0  0  0  0  0  0  0  0
   46.4390   34.6690   41.3730 C   0  0  0  0  0  0  0  0  0  0  0  0
   46.9570   33.9050   40.1810 C   0  0  0  0  0  0  0  0  0  0  0  0
   48.2420   33.2360   40.6350 C   0  0  0  0  0  0  0  0  0  0  0  0
   48.4390   33.6970   42.0610 C   0  0  1  0  0  0  0  0  0  0  0  0
   46.5010   32.8770   42.5010 H   0  0  0  0  0  0  0  0  0  0  0  0
   46.7070   35.7180   41.4140 H   0  0  0  0  0  0  0  0  0  0  0  0
   45.3360   34.6090   41.4560 H   0  0  0  0  0  0  0  0  0  0  0  0
   46.1780   33.1400   39.8970 H   0  0  0  0  0  0  0  0  0  0  0  0
   47.1310   34.5330   39.3060 H   0  0  0  0  0  0  0  0  0  0  0  0
   48.0830   32.1290   40.6080 H   0  0  0  0  0  0  0  0  0  0  0  0
   49.0950   33.4890   39.9850 H   0  0  0  0  0  0  0  0  0  0  0  0
   48.9620   32.8740   42.6240 H   0  0  0  0  0  0  0  0  0  0  0  0
   49.2040   34.9920   42.1240 C   0  0  0  0  0  0  0  0  0  0  0  0
   49.8130   35.0600   41.1820 H   0  0  0  0  0  0  0  0  0  0  0  0
   48.5730   35.8970   42.1250 H   0  0  0  0  0  0  0  0  0  0  0  0
   50.0160   35.0720   43.2340 O   0  0  0  0  0  0  0  0  0  0  0  0
   50.0520   34.2140   43.7170 H   0  0  0  0  0  0  0  0  0  0  0  0
   45.4610   33.9450   46.0050 O   0  0  0  0  0  0  0  0  0  0  0  0
   46.4040   32.9950   46.2300 C   0  0  0  0  0  0  0  0  0  0  0  0
   47.2720   33.5240   46.7260 H   0  0  0  0  0  0  0  0  0  0  0  0
   46.8440   32.4840   45.3770 H   0  0  0  0  0  0  0  0  0  0  0  0
   45.3110   31.4250   49.4210 C   0  0  0  0  0  0  0  0  0  0  0  0
   45.7110   32.4120   48.5140 C   0  0  0  0  0  0  0  0  0  0  0  0
   45.9760   31.9790   47.2080 C   0  0  0  0  0  0  0  0  0  0  0  0
   45.8330   30.6620   46.9010 N   0  0  0  0  0  0  0  0  0  0  0  0
   45.4440   29.7350   47.8020 C   0  0  0  0  0  0  0  0  0  0  0  0
   45.1880   30.1160   49.0450 N   0  0  0  0  0  0  0  0  0  0  0  0
   45.0970   31.7230   50.4410 H   0  0  0  0  0  0  0  0  0  0  0  0
   45.7950   33.4230   48.8500 H   0  0  0  0  0  0  0  0  0  0  0  0
   45.3250   28.3790   47.3820 N   0  0  0  0  0  0  0  0  0  0  0  0
   44.6120   27.4190   48.2030 C   0  0  0  0  0  2  0  0  0  0  0  0
   44.0000   26.3320   47.3420 C   0  0  0  0  0  2  0  0  0  0  0  0
   43.5750   27.0080   46.0530 C   0  0  0  0  0  3  0  0  0  0  0  0
   42.9670   26.2960   45.4760 H   0  0  0  0  0  0  0  0  0  0  0  0
   44.7460   27.5300   45.2510 C   0  0  0  0  0  2  0  0  0  0  0  0
   45.9110   27.9340   46.1310 C   0  0  0  0  0  2  0  0  0  0  0  0
  2  1  2  6  0  0  0
  2 24  1  0  0  0  0
  3  2  1  0  0  0  0
  4  3  1  0  0  0  0
  5  2  1  0  0  0  0
  6 11  1  1  0  0  0
  6  5  1  0  0  0  0
  7 12  1  0  0  0  0
  7 13  1  0  0  0  0
  7  6  1  0  0  0  0
  8  9  1  0  0  0  0
  8  7  1  0  0  0  0
  9 10  1  0  0  0  0
 10 19  1  0  0  0  0
 10  6  1  0  0  0  0
 10 18  1  1  0  0  0
 14  8  1  0  0  0  0
 15  8  1  0  0  0  0
 16  9  1  0  0  0  0
 17  9  1  0  0  0  0
 19 21  1  0  0  0  0
 19 22  1  0  0  0  0
 20 19  1  0  0  0  0
 22 23  1  0  0  0  0
 24 25  1  0  0  0  0
 25 26  1  0  0  0  0
 25 30  1  0  0  0  0
 27 25  1  0  0  0  0
 28 34  1  0  0  0  0
 29 35  1  0  0  0  0
 29 28  2  0  0  0  0
 30 29  1  0  0  0  0
 31 30  2  0  0  0  0
 31 32  1  0  0  0  0
 32 33  2  0  0  0  0
 33 28  1  0  0  0  0
 36 32  1  0  0  0  0
 36 37  1  0  0  0  0
 38 37  1  0  0  0  0
 39 38  1  0  0  0  0
 40 39  1  0  0  0  0
 41 39  1  0  0  0  0
 41 42  1  0  0  0  0
 42 36  1  0  0  0  0
M  END
>  <minimizedAffinity>
-6.24818373

>  <minimizedRMSD>
1.05633652

$$$$
