
 OpenBabel03242517093D

 32 34  0  0  1  0  0  0  0  0999 V2000
   37.2550   26.6870   41.4220 C   0  0  2  0  0  0  0  0  0  0  0  0
   38.1560   27.8570   41.3000 C   0  0  2  0  0  0  0  0  0  0  0  0
   38.7100   28.2770   42.6540 C   0  0  0  0  0  0  0  0  0  0  0  0
   37.6490   28.5490   43.6790 C   0  0  0  0  0  0  0  0  0  0  0  0
   36.5300   27.5330   43.6560 C   0  0  0  0  0  0  0  0  0  0  0  0
   36.9160   26.3120   42.8540 C   0  0  0  0  0  0  0  0  0  0  0  0
   36.2660   26.7670   40.9250 H   0  0  0  0  0  0  0  0  0  0  0  0
   39.0820   27.5140   40.7410 H   0  0  0  0  0  0  0  0  0  0  0  0
   39.4290   27.5790   43.1010 H   0  0  0  0  0  0  0  0  0  0  0  0
   39.2640   29.2180   42.5160 H   0  0  0  0  0  0  0  0  0  0  0  0
   38.1270   28.4680   44.6990 H   0  0  0  0  0  0  0  0  0  0  0  0
   37.2560   29.5830   43.6200 H   0  0  0  0  0  0  0  0  0  0  0  0
   35.6130   28.0100   43.2770 H   0  0  0  0  0  0  0  0  0  0  0  0
   36.2780   27.1660   44.6720 H   0  0  0  0  0  0  0  0  0  0  0  0
   36.0540   25.6170   42.8520 H   0  0  0  0  0  0  0  0  0  0  0  0
   37.7720   25.8220   43.3340 H   0  0  0  0  0  0  0  0  0  0  0  0
   37.8620   25.4620   40.8040 C   0  0  0  0  0  0  0  0  0  0  0  0
   37.3690   24.2240   41.2240 C   0  0  0  0  0  0  0  0  0  0  0  0
   37.9010   23.0580   40.6830 C   0  0  0  0  0  0  0  0  0  0  0  0
   38.8930   23.1950   39.7570 N   0  0  0  0  0  0  0  0  0  0  0  0
   39.3570   24.4100   39.3650 C   0  0  0  0  0  0  0  0  0  0  0  0
   38.8450   25.5250   39.8830 N   0  0  0  0  0  0  0  0  0  0  0  0
   36.6170   24.0370   41.9220 H   0  0  0  0  0  0  0  0  0  0  0  0
   37.5870   22.0720   40.9440 H   0  0  0  0  0  0  0  0  0  0  0  0
   40.1450   24.5060   38.6280 H   0  0  0  0  0  0  0  0  0  0  0  0
   37.7200   29.0080   40.6460 N   0  0  0  0  0  0  0  0  0  0  0  0
   38.6670   29.9280   40.1570 C   0  0  0  0  0  2  0  0  0  0  0  0
   38.4810   31.2730   40.8090 C   0  0  0  0  0  2  0  0  0  0  0  0
   37.1080   31.7510   40.3130 C   0  0  0  0  0  3  0  0  0  0  0  0
   36.9330   32.7010   40.8090 H   0  0  0  0  0  0  0  0  0  0  0  0
   36.1110   30.7640   40.8170 C   0  0  0  0  0  2  0  0  0  0  0  0
   36.4050   29.3220   40.3580 C   0  0  0  0  0  2  0  0  0  0  0  0
  1  7  1  6  0  0  0
  1  6  1  0  0  0  0
  2  8  1  6  0  0  0
  2  1  1  0  0  0  0
  2  3  1  0  0  0  0
  3  9  1  0  0  0  0
  3  4  1  0  0  0  0
  4 11  1  0  0  0  0
  5  4  1  0  0  0  0
  5 14  1  0  0  0  0
  6 16  1  0  0  0  0
  6  5  1  0  0  0  0
 10  3  1  0  0  0  0
 12  4  1  0  0  0  0
 13  5  1  0  0  0  0
 15  6  1  0  0  0  0
 17 18  1  0  0  0  0
 17  1  1  0  0  0  0
 18 23  1  0  0  0  0
 19 24  1  0  0  0  0
 19 18  2  0  0  0  0
 20 19  1  0  0  0  0
 21 20  2  0  0  0  0
 21 22  1  0  0  0  0
 22 17  2  0  0  0  0
 25 21  1  0  0  0  0
 26  2  1  0  0  0  0
 27 26  1  0  0  0  0
 27 28  1  0  0  0  0
 29 30  1  0  0  0  0
 29 28  1  0  0  0  0
 29 31  1  0  0  0  0
 32 26  1  0  0  0  0
 32 31  1  0  0  0  0
M  END
>  <minimizedAffinity>
-5.10691643

$$$$

 OpenBabel03242517093D

 32 34  0  0  1  0  0  0  0  0999 V2000
   38.1050   28.9530   41.1630 C   0  0  2  0  0  0  0  0  0  0  0  0
   37.1870   27.7980   41.0290 C   0  0  2  0  0  0  0  0  0  0  0  0
   36.2290   27.7070   42.2080 C   0  0  0  0  0  0  0  0  0  0  0  0
   36.9200   27.6640   43.5410 C   0  0  0  0  0  0  0  0  0  0  0  0
   38.0760   28.6330   43.6390 C   0  0  0  0  0  0  0  0  0  0  0  0
   38.0410   29.6430   42.5150 C   0  0  0  0  0  0  0  0  0  0  0  0
   39.1860   28.7480   41.0180 H   0  0  0  0  0  0  0  0  0  0  0  0
   36.4940   28.0150   40.1560 H   0  0  0  0  0  0  0  0  0  0  0  0
   35.4710   28.4990   42.2560 H   0  0  0  0  0  0  0  0  0  0  0  0
   35.6660   26.7660   42.1160 H   0  0  0  0  0  0  0  0  0  0  0  0
   36.1740   27.9830   44.3250 H   0  0  0  0  0  0  0  0  0  0  0  0
   37.2270   26.6390   43.8270 H   0  0  0  0  0  0  0  0  0  0  0  0
   39.0220   28.0700   43.6660 H   0  0  0  0  0  0  0  0  0  0  0  0
   38.0500   29.2200   44.5800 H   0  0  0  0  0  0  0  0  0  0  0  0
   38.9200   30.3070   42.6240 H   0  0  0  0  0  0  0  0  0  0  0  0
   37.1260   30.2410   42.5960 H   0  0  0  0  0  0  0  0  0  0  0  0
   37.8060   30.0120   40.1420 C   0  0  0  0  0  0  0  0  0  0  0  0
   37.5040   31.2900   40.6180 C   0  0  0  0  0  0  0  0  0  0  0  0
   37.2170   32.3050   39.7110 C   0  0  0  0  0  0  0  0  0  0  0  0
   37.2470   31.9870   38.3860 N   0  0  0  0  0  0  0  0  0  0  0  0
   37.5440   30.7360   37.9470 C   0  0  0  0  0  0  0  0  0  0  0  0
   37.8190   29.7650   38.8160 N   0  0  0  0  0  0  0  0  0  0  0  0
   37.4620   31.6110   41.6090 H   0  0  0  0  0  0  0  0  0  0  0  0
   36.9760   33.3080   39.9850 H   0  0  0  0  0  0  0  0  0  0  0  0
   37.5660   30.4950   36.8910 H   0  0  0  0  0  0  0  0  0  0  0  0
   37.6990   26.5220   40.8000 N   0  0  0  0  0  0  0  0  0  0  0  0
   36.8310   25.4880   40.3980 C   0  0  0  0  0  2  0  0  0  0  0  0
   36.8420   24.3690   41.4070 C   0  0  0  0  0  2  0  0  0  0  0  0
   38.2670   23.8010   41.3310 C   0  0  0  0  0  3  0  0  0  0  0  0
   38.3090   23.0210   42.0860 H   0  0  0  0  0  0  0  0  0  0  0  0
   39.1830   24.9040   41.7400 C   0  0  0  0  0  2  0  0  0  0  0  0
   39.0330   26.1660   40.8680 C   0  0  0  0  0  2  0  0  0  0  0  0
  1  7  1  6  0  0  0
  1  6  1  0  0  0  0
  2  8  1  6  0  0  0
  2  1  1  0  0  0  0
  2  3  1  0  0  0  0
  3  9  1  0  0  0  0
  3  4  1  0  0  0  0
  4  5  1  0  0  0  0
  4 12  1  0  0  0  0
  4 11  1  0  0  0  0
  5 13  1  0  0  0  0
  5 14  1  0  0  0  0
  6 16  1  0  0  0  0
  6 15  1  0  0  0  0
  6  5  1  0  0  0  0
 10  3  1  0  0  0  0
 17 18  1  0  0  0  0
 17  1  1  0  0  0  0
 18 23  1  0  0  0  0
 19 24  1  0  0  0  0
 19 18  2  0  0  0  0
 20 19  1  0  0  0  0
 21 20  2  0  0  0  0
 21 22  1  0  0  0  0
 22 17  2  0  0  0  0
 25 21  1  0  0  0  0
 26 32  1  0  0  0  0
 26  2  1  0  0  0  0
 27 26  1  0  0  0  0
 27 28  1  0  0  0  0
 29 28  1  0  0  0  0
 29 31  1  0  0  0  0
 29 30  1  0  0  0  0
 32 31  1  0  0  0  0
M  END
>  <minimizedAffinity>
-5.05624151

$$$$

 OpenBabel03242517093D

 32 34  0  0  1  0  0  0  0  0999 V2000
   37.6690   29.7200   39.0020 C   0  0  2  0  0  0  0  0  0  0  0  0
   36.9090   28.8790   39.9560 C   0  0  2  0  0  0  0  0  0  0  0  0
   35.7310   29.6350   40.5520 C   0  0  0  0  0  0  0  0  0  0  0  0
   36.1190   30.9310   41.2040 C   0  0  0  0  0  0  0  0  0  0  0  0
   37.1340   31.7150   40.4050 C   0  0  0  0  0  0  0  0  0  0  0  0
   37.2520   31.1810   38.9960 C   0  0  0  0  0  0  0  0  0  0  0  0
   38.7700   29.7560   39.1390 H   0  0  0  0  0  0  0  0  0  0  0  0
   36.4050   28.0570   39.3550 H   0  0  0  0  0  0  0  0  0  0  0  0
   34.9130   29.8500   39.8540 H   0  0  0  0  0  0  0  0  0  0  0  0
   35.2880   29.0070   41.3390 H   0  0  0  0  0  0  0  0  0  0  0  0
   35.1950   31.5770   41.2600 H   0  0  0  0  0  0  0  0  0  0  0  0
   36.4470   30.7960   42.2530 H   0  0  0  0  0  0  0  0  0  0  0  0
   38.0980   31.7110   40.9360 H   0  0  0  0  0  0  0  0  0  0  0  0
   36.8520   32.7830   40.3050 H   0  0  0  0  0  0  0  0  0  0  0  0
   38.0240   31.7750   38.4680 H   0  0  0  0  0  0  0  0  0  0  0  0
   36.2910   31.3020   38.4830 H   0  0  0  0  0  0  0  0  0  0  0  0
   37.5040   29.2350   37.5920 C   0  0  0  0  0  0  0  0  0  0  0  0
   36.6990   30.0000   36.7440 C   0  0  0  0  0  0  0  0  0  0  0  0
   36.5130   29.5910   35.4270 C   0  0  0  0  0  0  0  0  0  0  0  0
   37.1380   28.4440   35.0340 N   0  0  0  0  0  0  0  0  0  0  0  0
   37.9160   27.7170   35.8780 C   0  0  0  0  0  0  0  0  0  0  0  0
   38.0940   28.1110   37.1380 N   0  0  0  0  0  0  0  0  0  0  0  0
   36.1910   30.8830   36.9670 H   0  0  0  0  0  0  0  0  0  0  0  0
   35.9160   30.1110   34.7120 H   0  0  0  0  0  0  0  0  0  0  0  0
   38.4090   26.8090   35.5540 H   0  0  0  0  0  0  0  0  0  0  0  0
   37.5710   28.2350   41.0000 N   0  0  0  0  0  0  0  0  0  0  0  0
   36.9600   27.1380   41.6380 C   0  0  0  0  0  2  0  0  0  0  0  0
   36.7500   27.4290   43.1010 C   0  0  0  0  0  2  0  0  0  0  0  0
   38.1700   27.5350   43.6760 C   0  0  0  0  0  3  0  0  0  0  0  0
   38.0420   27.7910   44.7240 H   0  0  0  0  0  0  0  0  0  0  0  0
   38.8190   28.6860   42.9860 C   0  0  0  0  0  2  0  0  0  0  0  0
   38.8430   28.5330   41.4520 C   0  0  0  0  0  2  0  0  0  0  0  0
  1  7  1  1  0  0  0
  1  2  1  0  0  0  0
  2  8  1  6  0  0  0
  2  3  1  0  0  0  0
  2 26  1  0  0  0  0
  3  4  1  0  0  0  0
  3 10  1  0  0  0  0
  4 11  1  0  0  0  0
  4 12  1  0  0  0  0
  5 13  1  0  0  0  0
  5  4  1  0  0  0  0
  6  1  1  0  0  0  0
  6  5  1  0  0  0  0
  9  3  1  0  0  0  0
 14  5  1  0  0  0  0
 15  6  1  0  0  0  0
 16  6  1  0  0  0  0
 17  1  1  0  0  0  0
 18 23  1  0  0  0  0
 18 17  2  0  0  0  0
 19 18  1  0  0  0  0
 20 19  2  0  0  0  0
 20 21  1  0  0  0  0
 21 22  2  0  0  0  0
 22 17  1  0  0  0  0
 24 19  1  0  0  0  0
 25 21  1  0  0  0  0
 26 32  1  0  0  0  0
 26 27  1  0  0  0  0
 27 28  1  0  0  0  0
 28 29  1  0  0  0  0
 29 30  1  0  0  0  0
 31 29  1  0  0  0  0
 32 31  1  0  0  0  0
M  END
>  <minimizedAffinity>
-4.97960949

$$$$

 OpenBabel03242517093D

 32 34  0  0  1  0  0  0  0  0999 V2000
   37.2670   27.9900   40.7380 C   0  0  2  0  0  0  0  0  0  0  0  0
   37.3980   26.7030   41.4600 C   0  0  2  0  0  0  0  0  0  0  0  0
   36.8760   26.8060   42.8850 C   0  0  0  0  0  0  0  0  0  0  0  0
   37.5140   27.9090   43.6790 C   0  0  0  0  0  0  0  0  0  0  0  0
   37.6790   29.1870   42.8900 C   0  0  0  0  0  0  0  0  0  0  0  0
   36.8580   29.1560   41.6220 C   0  0  0  0  0  0  0  0  0  0  0  0
   38.1700   28.3580   40.2090 H   0  0  0  0  0  0  0  0  0  0  0  0
   36.6780   25.9690   40.9780 H   0  0  0  0  0  0  0  0  0  0  0  0
   35.7890   26.9210   42.9770 H   0  0  0  0  0  0  0  0  0  0  0  0
   37.1170   25.8650   43.4030 H   0  0  0  0  0  0  0  0  0  0  0  0
   36.8260   28.1560   44.5390 H   0  0  0  0  0  0  0  0  0  0  0  0
   38.4690   27.5970   44.1470 H   0  0  0  0  0  0  0  0  0  0  0  0
   38.7480   29.3580   42.6920 H   0  0  0  0  0  0  0  0  0  0  0  0
   37.3330   30.0760   43.4570 H   0  0  0  0  0  0  0  0  0  0  0  0
   37.0360   30.1040   41.0750 H   0  0  0  0  0  0  0  0  0  0  0  0
   35.7950   29.0850   41.8810 H   0  0  0  0  0  0  0  0  0  0  0  0
   36.2320   27.9080   39.6540 C   0  0  0  0  0  0  0  0  0  0  0  0
   35.2430   28.8940   39.6400 C   0  0  0  0  0  0  0  0  0  0  0  0
   34.2590   28.8590   38.6570 C   0  0  0  0  0  0  0  0  0  0  0  0
   34.3190   27.8440   37.7480 N   0  0  0  0  0  0  0  0  0  0  0  0
   35.2910   26.8970   37.7830 C   0  0  0  0  0  0  0  0  0  0  0  0
   36.2330   26.9310   38.7240 N   0  0  0  0  0  0  0  0  0  0  0  0
   35.1300   29.6970   40.2950 H   0  0  0  0  0  0  0  0  0  0  0  0
   33.4670   29.5690   38.5700 H   0  0  0  0  0  0  0  0  0  0  0  0
   35.3290   26.0960   37.0540 H   0  0  0  0  0  0  0  0  0  0  0  0
   38.6300   26.0520   41.5050 N   0  0  0  0  0  0  0  0  0  0  0  0
   38.6950   24.7230   41.9700 C   0  0  0  0  0  2  0  0  0  0  0  0
   39.5780   24.6340   43.1870 C   0  0  0  0  0  2  0  0  0  0  0  0
   40.9800   24.9870   42.6680 C   0  0  0  0  0  3  0  0  0  0  0  0
   41.6260   24.9730   43.5410 H   0  0  0  0  0  0  0  0  0  0  0  0
   40.9020   26.3860   42.1610 C   0  0  0  0  0  2  0  0  0  0  0  0
   39.8330   26.5720   41.0660 C   0  0  0  0  0  2  0  0  0  0  0  0
  1  7  1  6  0  0  0
  1  2  1  0  0  0  0
  1  6  1  0  0  0  0
  2  8  1  6  0  0  0
  2 26  1  0  0  0  0
  2  3  1  0  0  0  0
  3  9  1  0  0  0  0
  3 10  1  0  0  0  0
  3  4  1  0  0  0  0
  4 12  1  0  0  0  0
  4 11  1  0  0  0  0
  5 14  1  0  0  0  0
  5  4  1  0  0  0  0
  6 16  1  0  0  0  0
  6  5  1  0  0  0  0
 13  5  1  0  0  0  0
 15  6  1  0  0  0  0
 17  1  1  0  0  0  0
 18 17  1  0  0  0  0
 18 23  1  0  0  0  0
 19 18  2  0  0  0  0
 20 21  2  0  0  0  0
 20 19  1  0  0  0  0
 21 22  1  0  0  0  0
 22 17  2  0  0  0  0
 24 19  1  0  0  0  0
 25 21  1  0  0  0  0
 26 27  1  0  0  0  0
 27 28  1  0  0  0  0
 29 28  1  0  0  0  0
 29 30  1  0  0  0  0
 31 29  1  0  0  0  0
 32 26  1  0  0  0  0
 32 31  1  0  0  0  0
M  END
>  <minimizedAffinity>
-4.85696411

$$$$

 OpenBabel03242517093D

 32 34  0  0  1  0  0  0  0  0999 V2000
   36.8390   29.1440   39.1080 C   0  0  2  0  0  0  0  0  0  0  0  0
   36.5480   29.2690   40.5550 C   0  0  2  0  0  0  0  0  0  0  0  0
   36.1020   30.6790   40.9150 C   0  0  0  0  0  0  0  0  0  0  0  0
   37.0740   31.7420   40.4920 C   0  0  0  0  0  0  0  0  0  0  0  0
   37.6420   31.5080   39.1120 C   0  0  0  0  0  0  0  0  0  0  0  0
   36.8450   30.4670   38.3610 C   0  0  0  0  0  0  0  0  0  0  0  0
   37.8080   28.6780   38.8340 H   0  0  0  0  0  0  0  0  0  0  0  0
   35.6210   28.6470   40.7690 H   0  0  0  0  0  0  0  0  0  0  0  0
   35.1140   30.9670   40.5360 H   0  0  0  0  0  0  0  0  0  0  0  0
   36.0250   30.7410   42.0120 H   0  0  0  0  0  0  0  0  0  0  0  0
   36.5130   32.7200   40.4420 H   0  0  0  0  0  0  0  0  0  0  0  0
   37.8780   31.9020   41.2380 H   0  0  0  0  0  0  0  0  0  0  0  0
   38.7060   31.2400   39.1950 H   0  0  0  0  0  0  0  0  0  0  0  0
   37.6130   32.4250   38.4870 H   0  0  0  0  0  0  0  0  0  0  0  0
   37.3190   30.3210   37.3700 H   0  0  0  0  0  0  0  0  0  0  0  0
   35.8200   30.8300   38.2190 H   0  0  0  0  0  0  0  0  0  0  0  0
   35.8250   28.2810   38.4170 C   0  0  0  0  0  0  0  0  0  0  0  0
   34.6710   28.9090   37.9400 C   0  0  0  0  0  0  0  0  0  0  0  0
   33.6990   28.1510   37.2950 C   0  0  0  0  0  0  0  0  0  0  0  0
   33.9340   26.8140   37.1630 N   0  0  0  0  0  0  0  0  0  0  0  0
   35.0630   26.2270   37.6350 C   0  0  0  0  0  0  0  0  0  0  0  0
   35.9940   26.9530   38.2530 N   0  0  0  0  0  0  0  0  0  0  0  0
   34.4200   29.9190   38.0010 H   0  0  0  0  0  0  0  0  0  0  0  0
   32.7890   28.5450   36.9010 H   0  0  0  0  0  0  0  0  0  0  0  0
   35.2390   25.1630   37.5240 H   0  0  0  0  0  0  0  0  0  0  0  0
   37.4970   28.8720   41.4950 N   0  0  0  0  0  0  0  0  0  0  0  0
   38.6700   28.2210   41.0630 C   0  0  0  0  0  2  0  0  0  0  0  0
   38.7610   26.8440   41.6670 C   0  0  0  0  0  2  0  0  0  0  0  0
   38.9290   27.0980   43.1720 C   0  0  0  0  0  3  0  0  0  0  0  0
   38.9510   26.1140   43.6330 H   0  0  0  0  0  0  0  0  0  0  0  0
   37.6950   27.8020   43.6210 C   0  0  0  0  0  2  0  0  0  0  0  0
   37.4370   29.1140   42.8550 C   0  0  0  0  0  2  0  0  0  0  0  0
  1  7  1  6  0  0  0
  1  2  1  0  0  0  0
  2  8  1  1  0  0  0
  2  3  1  0  0  0  0
  2 26  1  0  0  0  0
  3 10  1  0  0  0  0
  4  3  1  0  0  0  0
  4 12  1  0  0  0  0
  5 13  1  0  0  0  0
  5  4  1  0  0  0  0
  6  1  1  0  0  0  0
  6  5  1  0  0  0  0
  9  3  1  0  0  0  0
 11  4  1  0  0  0  0
 14  5  1  0  0  0  0
 15  6  1  0  0  0  0
 16  6  1  0  0  0  0
 17  1  1  0  0  0  0
 18 23  1  0  0  0  0
 18 17  2  0  0  0  0
 19 18  1  0  0  0  0
 20 19  2  0  0  0  0
 20 21  1  0  0  0  0
 21 22  2  0  0  0  0
 22 17  1  0  0  0  0
 24 19  1  0  0  0  0
 25 21  1  0  0  0  0
 26 32  1  0  0  0  0
 27 26  1  0  0  0  0
 27 28  1  0  0  0  0
 28 29  1  0  0  0  0
 29 31  1  0  0  0  0
 29 30  1  0  0  0  0
 32 31  1  0  0  0  0
M  END
>  <minimizedAffinity>
-4.81407022

$$$$

 OpenBabel03242517093D

 32 34  0  0  1  0  0  0  0  0999 V2000
   37.2050   30.2970   40.8670 C   0  0  2  0  0  0  0  0  0  0  0  0
   37.9010   29.0820   40.3830 C   0  0  2  0  0  0  0  0  0  0  0  0
   37.2460   28.5260   39.1270 C   0  0  0  0  0  0  0  0  0  0  0  0
   35.7800   28.2490   39.2880 C   0  0  0  0  0  0  0  0  0  0  0  0
   35.0520   29.3360   40.0450 C   0  0  0  0  0  0  0  0  0  0  0  0
   35.8950   30.5860   40.1530 C   0  0  0  0  0  0  0  0  0  0  0  0
   36.9350   30.3200   41.9430 H   0  0  0  0  0  0  0  0  0  0  0  0
   38.9260   29.4030   40.0140 H   0  0  0  0  0  0  0  0  0  0  0  0
   37.3690   29.1390   38.2260 H   0  0  0  0  0  0  0  0  0  0  0  0
   37.7240   27.5620   38.8940 H   0  0  0  0  0  0  0  0  0  0  0  0
   35.3210   28.2220   38.2570 H   0  0  0  0  0  0  0  0  0  0  0  0
   35.5810   27.2510   39.7250 H   0  0  0  0  0  0  0  0  0  0  0  0
   34.7450   28.9520   41.0290 H   0  0  0  0  0  0  0  0  0  0  0  0
   34.1140   29.6430   39.5380 H   0  0  0  0  0  0  0  0  0  0  0  0
   35.3240   31.3350   40.7350 H   0  0  0  0  0  0  0  0  0  0  0  0
   36.0860   30.9800   39.1480 H   0  0  0  0  0  0  0  0  0  0  0  0
   38.0530   31.5220   40.6890 C   0  0  0  0  0  0  0  0  0  0  0  0
   37.4290   32.6630   40.1780 C   0  0  0  0  0  0  0  0  0  0  0  0
   38.1740   33.8230   39.9920 C   0  0  0  0  0  0  0  0  0  0  0  0
   39.4950   33.7770   40.3250 N   0  0  0  0  0  0  0  0  0  0  0  0
   40.0800   32.6560   40.8200 C   0  0  0  0  0  0  0  0  0  0  0  0
   39.3660   31.5460   40.9980 N   0  0  0  0  0  0  0  0  0  0  0  0
   36.4300   32.7760   39.9020 H   0  0  0  0  0  0  0  0  0  0  0  0
   37.7810   34.7370   39.6070 H   0  0  0  0  0  0  0  0  0  0  0  0
   41.1310   32.6330   41.0820 H   0  0  0  0  0  0  0  0  0  0  0  0
   38.1260   28.0150   41.2520 N   0  0  0  0  0  0  0  0  0  0  0  0
   38.9820   26.9680   40.8560 C   0  0  0  0  0  2  0  0  0  0  0  0
   38.2360   25.6600   40.8270 C   0  0  0  0  0  2  0  0  0  0  0  0
   37.8690   25.3970   42.2950 C   0  0  0  0  0  3  0  0  0  0  0  0
   37.2880   24.4790   42.2900 H   0  0  0  0  0  0  0  0  0  0  0  0
   36.9780   26.5160   42.7140 C   0  0  0  0  0  2  0  0  0  0  0  0
   37.6280   27.9030   42.5360 C   0  0  0  0  0  2  0  0  0  0  0  0
  1  7  1  1  0  0  0
  2  8  1  6  0  0  0
  2  1  1  0  0  0  0
  2 26  1  0  0  0  0
  3  4  1  0  0  0  0
  3  2  1  0  0  0  0
  4 12  1  0  0  0  0
  4  5  1  0  0  0  0
  5  6  1  0  0  0  0
  5 13  1  0  0  0  0
  6 15  1  0  0  0  0
  6  1  1  0  0  0  0
  9  3  1  0  0  0  0
 10  3  1  0  0  0  0
 11  4  1  0  0  0  0
 14  5  1  0  0  0  0
 16  6  1  0  0  0  0
 17  1  1  0  0  0  0
 17 22  1  0  0  0  0
 18 17  2  0  0  0  0
 19 18  1  0  0  0  0
 19 20  2  0  0  0  0
 20 21  1  0  0  0  0
 21 22  2  0  0  0  0
 21 25  1  0  0  0  0
 23 18  1  0  0  0  0
 24 19  1  0  0  0  0
 26 32  1  0  0  0  0
 27 26  1  0  0  0  0
 28 27  1  0  0  0  0
 28 29  1  0  0  0  0
 29 31  1  0  0  0  0
 30 29  1  0  0  0  0
 32 31  1  0  0  0  0
M  END
>  <minimizedAffinity>
-4.8109026

$$$$

 OpenBabel03242517093D

 32 34  0  0  1  0  0  0  0  0999 V2000
   38.4990   30.6360   40.4570 C   0  0  2  0  0  0  0  0  0  0  0  0
   39.4950   31.7130   40.6600 C   0  0  2  0  0  0  0  0  0  0  0  0
   38.8240   33.0440   40.9650 C   0  0  0  0  0  0  0  0  0  0  0  0
   37.8200   33.4610   39.9300 C   0  0  0  0  0  0  0  0  0  0  0  0
   36.9490   32.3200   39.4580 C   0  0  0  0  0  0  0  0  0  0  0  0
   37.0630   31.1280   40.3790 C   0  0  0  0  0  0  0  0  0  0  0  0
   38.6180   30.0130   39.5470 H   0  0  0  0  0  0  0  0  0  0  0  0
   40.0520   31.4830   41.6230 H   0  0  0  0  0  0  0  0  0  0  0  0
   38.3330   33.1060   41.9440 H   0  0  0  0  0  0  0  0  0  0  0  0
   39.6040   33.8220   40.9780 H   0  0  0  0  0  0  0  0  0  0  0  0
   37.1250   34.2110   40.4080 H   0  0  0  0  0  0  0  0  0  0  0  0
   38.2860   33.9930   39.0770 H   0  0  0  0  0  0  0  0  0  0  0  0
   37.2070   32.0710   38.4170 H   0  0  0  0  0  0  0  0  0  0  0  0
   35.8740   32.5940   39.4420 H   0  0  0  0  0  0  0  0  0  0  0  0
   36.4250   30.3180   39.9720 H   0  0  0  0  0  0  0  0  0  0  0  0
   36.6990   31.4050   41.3750 H   0  0  0  0  0  0  0  0  0  0  0  0
   38.5350   29.6370   41.5760 C   0  0  0  0  0  0  0  0  0  0  0  0
   37.3410   29.4040   42.2630 C   0  0  0  0  0  0  0  0  0  0  0  0
   37.3240   28.4890   43.3110 C   0  0  0  0  0  0  0  0  0  0  0  0
   38.4970   27.8620   43.6120 N   0  0  0  0  0  0  0  0  0  0  0  0
   39.6460   28.1060   42.9300 C   0  0  0  0  0  0  0  0  0  0  0  0
   39.6600   28.9810   41.9260 N   0  0  0  0  0  0  0  0  0  0  0  0
   36.4090   29.8400   42.0940 H   0  0  0  0  0  0  0  0  0  0  0  0
   36.4600   28.2490   43.8900 H   0  0  0  0  0  0  0  0  0  0  0  0
   40.5710   27.6000   43.1770 H   0  0  0  0  0  0  0  0  0  0  0  0
   40.4780   31.9440   39.6990 N   0  0  0  0  0  0  0  0  0  0  0  0
   41.4890   32.8920   39.9540 C   0  0  0  0  0  2  0  0  0  0  0  0
   41.4480   33.9940   38.9280 C   0  0  0  0  0  2  0  0  0  0  0  0
   41.8200   33.3000   37.6090 C   0  0  0  0  0  3  0  0  0  0  0  0
   41.7520   34.0700   36.8460 H   0  0  0  0  0  0  0  0  0  0  0  0
   40.7590   32.2860   37.3520 C   0  0  0  0  0  2  0  0  0  0  0  0
   40.6070   31.2690   38.5000 C   0  0  0  0  0  2  0  0  0  0  0  0
  1  7  1  6  0  0  0
  1  2  1  0  0  0  0
  1 17  1  0  0  0  0
  2  3  1  0  0  0  0
  2  8  1  1  0  0  0
  3 10  1  0  0  0  0
  3  9  1  0  0  0  0
  4 11  1  0  0  0  0
  4  3  1  0  0  0  0
  5  4  1  0  0  0  0
  5  6  1  0  0  0  0
  6  1  1  0  0  0  0
  6 16  1  0  0  0  0
 12  4  1  0  0  0  0
 13  5  1  0  0  0  0
 14  5  1  0  0  0  0
 15  6  1  0  0  0  0
 17 22  2  0  0  0  0
 17 18  1  0  0  0  0
 18 19  2  0  0  0  0
 19 20  1  0  0  0  0
 19 24  1  0  0  0  0
 21 25  1  0  0  0  0
 21 20  2  0  0  0  0
 22 21  1  0  0  0  0
 23 18  1  0  0  0  0
 26 27  1  0  0  0  0
 26  2  1  0  0  0  0
 28 27  1  0  0  0  0
 29 28  1  0  0  0  0
 30 29  1  0  0  0  0
 31 29  1  0  0  0  0
 31 32  1  0  0  0  0
 32 26  1  0  0  0  0
M  END
>  <minimizedAffinity>
-4.80436611

$$$$

 OpenBabel03242517093D

 32 34  0  0  1  0  0  0  0  0999 V2000
   37.4160   27.1800   41.5680 C   0  0  2  0  0  0  0  0  0  0  0  0
   38.4080   28.0760   40.9290 C   0  0  2  0  0  0  0  0  0  0  0  0
   39.8090   27.8340   41.4700 C   0  0  0  0  0  0  0  0  0  0  0  0
   39.9020   27.9450   42.9640 C   0  0  0  0  0  0  0  0  0  0  0  0
   38.7440   27.2910   43.6790 C   0  0  0  0  0  0  0  0  0  0  0  0
   37.9620   26.3940   42.7480 C   0  0  0  0  0  0  0  0  0  0  0  0
   36.4980   27.6580   41.9660 H   0  0  0  0  0  0  0  0  0  0  0  0
   38.4980   27.7610   39.8410 H   0  0  0  0  0  0  0  0  0  0  0  0
   40.2620   26.8780   41.1830 H   0  0  0  0  0  0  0  0  0  0  0  0
   40.4710   28.6090   41.0550 H   0  0  0  0  0  0  0  0  0  0  0  0
   40.8290   27.3910   43.2930 H   0  0  0  0  0  0  0  0  0  0  0  0
   40.0480   28.9900   43.3040 H   0  0  0  0  0  0  0  0  0  0  0  0
   38.1130   28.0670   44.1390 H   0  0  0  0  0  0  0  0  0  0  0  0
   39.0800   26.6440   44.5160 H   0  0  0  0  0  0  0  0  0  0  0  0
   37.1150   25.9620   43.3170 H   0  0  0  0  0  0  0  0  0  0  0  0
   38.6110   25.5820   42.3990 H   0  0  0  0  0  0  0  0  0  0  0  0
   36.8930   26.1610   40.5970 C   0  0  0  0  0  0  0  0  0  0  0  0
   36.8620   24.8310   41.0220 C   0  0  0  0  0  0  0  0  0  0  0  0
   36.3880   23.8490   40.1580 C   0  0  0  0  0  0  0  0  0  0  0  0
   35.9730   24.2510   38.9230 N   0  0  0  0  0  0  0  0  0  0  0  0
   36.0130   25.5510   38.5320 C   0  0  0  0  0  0  0  0  0  0  0  0
   36.4670   26.4900   39.3610 N   0  0  0  0  0  0  0  0  0  0  0  0
   37.1580   24.4470   41.9450 H   0  0  0  0  0  0  0  0  0  0  0  0
   36.3290   22.8110   40.3970 H   0  0  0  0  0  0  0  0  0  0  0  0
   35.6800   25.8590   37.5480 H   0  0  0  0  0  0  0  0  0  0  0  0
   38.1920   29.4530   40.9090 N   0  0  0  0  0  0  0  0  0  0  0  0
   37.1060   29.9940   41.6240 C   0  0  0  0  0  2  0  0  0  0  0  0
   36.1630   30.7060   40.6890 C   0  0  0  0  0  2  0  0  0  0  0  0
   36.9770   31.8960   40.1590 C   0  0  0  0  0  3  0  0  0  0  0  0
   36.3290   32.3980   39.4460 H   0  0  0  0  0  0  0  0  0  0  0  0
   38.1350   31.3190   39.4200 C   0  0  0  0  0  2  0  0  0  0  0  0
   39.0010   30.3870   40.2890 C   0  0  0  0  0  2  0  0  0  0  0  0
  1  7  1  1  0  0  0
  1  6  1  0  0  0  0
  2  8  1  6  0  0  0
  2  3  1  0  0  0  0
  2  1  1  0  0  0  0
  3  4  1  0  0  0  0
  4 11  1  0  0  0  0
  4 12  1  0  0  0  0
  4  5  1  0  0  0  0
  5 13  1  0  0  0  0
  5 14  1  0  0  0  0
  6 15  1  0  0  0  0
  6  5  1  0  0  0  0
  9  3  1  0  0  0  0
 10  3  1  0  0  0  0
 16  6  1  0  0  0  0
 17 18  1  0  0  0  0
 17  1  1  0  0  0  0
 18 23  1  0  0  0  0
 19 24  1  0  0  0  0
 19 18  2  0  0  0  0
 20 19  1  0  0  0  0
 21 20  2  0  0  0  0
 21 22  1  0  0  0  0
 22 17  2  0  0  0  0
 25 21  1  0  0  0  0
 26  2  1  0  0  0  0
 26 27  1  0  0  0  0
 28 27  1  0  0  0  0
 29 28  1  0  0  0  0
 30 29  1  0  0  0  0
 31 29  1  0  0  0  0
 31 32  1  0  0  0  0
 32 26  1  0  0  0  0
M  END
>  <minimizedAffinity>
-4.77637291

$$$$

 OpenBabel03242517093D

 32 34  0  0  1  0  0  0  0  0999 V2000
   37.8480   28.2750   40.7420 C   0  0  2  0  0  0  0  0  0  0  0  0
   37.0860   27.1830   41.3910 C   0  0  2  0  0  0  0  0  0  0  0  0
   36.5270   27.6170   42.7380 C   0  0  0  0  0  0  0  0  0  0  0  0
   37.5700   28.1460   43.6790 C   0  0  0  0  0  0  0  0  0  0  0  0
   38.5710   29.0530   43.0010 C   0  0  0  0  0  0  0  0  0  0  0  0
   38.0860   29.4800   41.6360 C   0  0  0  0  0  0  0  0  0  0  0  0
   38.8590   28.0190   40.3630 H   0  0  0  0  0  0  0  0  0  0  0  0
   36.1500   27.0080   40.7720 H   0  0  0  0  0  0  0  0  0  0  0  0
   35.7190   28.3580   42.6920 H   0  0  0  0  0  0  0  0  0  0  0  0
   36.0860   26.7320   43.2230 H   0  0  0  0  0  0  0  0  0  0  0  0
   37.0460   28.7780   44.4530 H   0  0  0  0  0  0  0  0  0  0  0  0
   38.0760   27.3410   44.2490 H   0  0  0  0  0  0  0  0  0  0  0  0
   39.5490   28.5500   42.9590 H   0  0  0  0  0  0  0  0  0  0  0  0
   38.7410   29.9890   43.5730 H   0  0  0  0  0  0  0  0  0  0  0  0
   38.8660   30.1200   41.1790 H   0  0  0  0  0  0  0  0  0  0  0  0
   37.1630   30.0620   41.7460 H   0  0  0  0  0  0  0  0  0  0  0  0
   37.1350   28.7930   39.5270 C   0  0  0  0  0  0  0  0  0  0  0  0
   36.0380   28.0600   39.0690 C   0  0  0  0  0  0  0  0  0  0  0  0
   35.3460   28.4980   37.9450 C   0  0  0  0  0  0  0  0  0  0  0  0
   35.7880   29.6400   37.3440 N   0  0  0  0  0  0  0  0  0  0  0  0
   36.8580   30.3360   37.8080 C   0  0  0  0  0  0  0  0  0  0  0  0
   37.5190   29.9150   38.8850 N   0  0  0  0  0  0  0  0  0  0  0  0
   35.6400   27.1840   39.4710 H   0  0  0  0  0  0  0  0  0  0  0  0
   34.4990   28.0020   37.5250 H   0  0  0  0  0  0  0  0  0  0  0  0
   37.1990   31.2420   37.3230 H   0  0  0  0  0  0  0  0  0  0  0  0
   37.6710   25.9290   41.5590 N   0  0  0  0  0  0  0  0  0  0  0  0
   39.0400   25.7590   41.2730 C   0  0  0  0  0  2  0  0  0  0  0  0
   39.2270   24.7410   40.1780 C   0  0  0  0  0  2  0  0  0  0  0  0
   38.7400   23.4220   40.7950 C   0  0  0  0  0  3  0  0  0  0  0  0
   38.8230   22.6820   40.0040 H   0  0  0  0  0  0  0  0  0  0  0  0
   37.2960   23.6130   41.1120 C   0  0  0  0  0  2  0  0  0  0  0  0
   37.0380   24.8040   42.0560 C   0  0  0  0  0  2  0  0  0  0  0  0
  1  7  1  6  0  0  0
  1  2  1  0  0  0  0
  1  6  1  0  0  0  0
  2  8  1  6  0  0  0
  2 26  1  0  0  0  0
  2  3  1  0  0  0  0
  3 10  1  0  0  0  0
  3  4  1  0  0  0  0
  4 12  1  0  0  0  0
  4 11  1  0  0  0  0
  5 14  1  0  0  0  0
  5  4  1  0  0  0  0
  6 16  1  0  0  0  0
  6  5  1  0  0  0  0
  9  3  1  0  0  0  0
 13  5  1  0  0  0  0
 15  6  1  0  0  0  0
 17  1  1  0  0  0  0
 18 23  1  0  0  0  0
 18 17  1  0  0  0  0
 19 18  2  0  0  0  0
 20 21  2  0  0  0  0
 20 19  1  0  0  0  0
 21 22  1  0  0  0  0
 22 17  2  0  0  0  0
 24 19  1  0  0  0  0
 25 21  1  0  0  0  0
 26 32  1  0  0  0  0
 27 26  1  0  0  0  0
 28 29  1  0  0  0  0
 28 27  1  0  0  0  0
 29 31  1  0  0  0  0
 30 29  1  0  0  0  0
 31 32  1  0  0  0  0
M  END
>  <minimizedAffinity>
-4.76767588

$$$$
