
 OpenBabel03252505353D

 28 30  0  0  0  0  0  0  0  0999 V2000
   37.4010   30.1010   39.2490 C   0  0  0  0  0  0  0  0  0  0  0  0
   36.8230   30.3940   38.0440 C   0  0  0  0  0  0  0  0  0  0  0  0
   35.7630   29.6550   37.5200 C   0  0  0  0  0  0  0  0  0  0  0  0
   35.2640   28.5850   38.2280 C   0  0  0  0  0  0  0  0  0  0  0  0
   35.8560   28.3080   39.4300 C   0  0  0  0  0  0  0  0  0  0  0  0
   36.9120   29.0270   39.9760 C   0  0  0  0  0  0  0  0  0  0  0  0
   37.1650   31.2310   37.4230 H   0  0  0  0  0  0  0  0  0  0  0  0
   35.3040   29.8830   36.5680 H   0  0  0  0  0  0  0  0  0  0  0  0
   34.4430   27.9840   37.8590 H   0  0  0  0  0  0  0  0  0  0  0  0
   35.4490   27.4590   39.9760 H   0  0  0  0  0  0  0  0  0  0  0  0
   40.8150   31.4960   40.0230 C   0  0  0  0  0  0  0  0  0  0  0  0
   39.8400   30.5940   39.5330 C   0  0  0  0  0  0  0  0  0  0  0  0
   38.4940   30.9300   39.7000 C   0  0  0  0  0  0  0  0  0  0  0  0
   38.2050   32.0920   40.3180 N   0  0  0  0  0  0  0  0  0  0  0  0
   39.1520   32.9370   40.7780 C   0  0  0  0  0  0  0  0  0  0  0  0
   40.4580   32.6310   40.6260 N   0  0  0  0  0  0  0  0  0  0  0  0
   38.8270   34.1610   41.4280 N   0  0  0  0  0  0  0  0  0  0  0  0
   41.8200   31.1680   39.8560 H   0  0  0  0  0  0  0  0  0  0  0  0
   40.0070   29.6650   39.0380 H   0  0  0  0  0  0  0  0  0  0  0  0
   38.4790   34.7110   40.6170 H   0  0  0  0  0  0  0  0  0  0  0  0
   38.9460   34.3530   42.4570 H   0  0  0  0  0  0  0  0  0  0  0  0
   37.4980   28.7060   41.2300 N   0  0  0  0  0  0  0  0  0  0  0  0
   37.3260   29.3820   42.4950 C   0  0  0  0  0  2  0  0  0  0  0  0
   37.3240   28.4830   43.6770 C   0  0  0  0  0  2  0  0  0  0  0  0
   37.0390   27.0350   43.3830 C   0  0  0  0  0  3  0  0  0  0  0  0
   37.4880   26.4750   44.2560 H   0  0  0  0  0  0  0  0  0  0  0  0
   37.6630   26.5040   42.1410 C   0  0  0  0  0  2  0  0  0  0  0  0
   38.3970   27.5830   41.3850 C   0  0  0  0  0  2  0  0  0  0  0  0
  1 13  1  0  0  0  0
  1  6  1  0  0  0  0
  2  1  2  0  0  0  0
  3  2  1  0  0  0  0
  3  4  2  0  0  0  0
  4  5  1  0  0  0  0
  5  6  2  0  0  0  0
  5 10  1  0  0  0  0
  6 22  1  0  0  0  0
  7  2  1  0  0  0  0
  8  3  1  0  0  0  0
  9  4  1  0  0  0  0
 11 16  1  0  0  0  0
 12 13  1  0  0  0  0
 12 11  2  0  0  0  0
 13 14  2  0  0  0  0
 14 15  1  0  0  0  0
 15 17  1  0  0  0  0
 16 15  2  0  0  0  0
 17 21  1  0  0  0  0
 18 11  1  0  0  0  0
 19 12  1  0  0  0  0
 20 17  1  0  0  0  0
 22 28  1  0  0  0  0
 22 23  1  0  0  0  0
 23 24  1  0  0  0  0
 25 24  1  0  0  0  0
 25 26  1  0  0  0  0
 27 25  1  0  0  0  0
 28 27  1  0  0  0  0
M  END
>  <minimizedAffinity>
-5.52778816

$$$$

 OpenBabel03252505353D

 28 30  0  0  0  0  0  0  0  0999 V2000
   37.7720   29.4380   41.6490 C   0  0  0  0  0  0  0  0  0  0  0  0
   37.8970   29.2860   43.0020 C   0  0  0  0  0  0  0  0  0  0  0  0
   37.4180   28.1660   43.6800 C   0  0  0  0  0  0  0  0  0  0  0  0
   36.7920   27.1610   42.9760 C   0  0  0  0  0  0  0  0  0  0  0  0
   36.6780   27.3320   41.6230 C   0  0  0  0  0  0  0  0  0  0  0  0
   37.1450   28.4380   40.9230 C   0  0  0  0  0  0  0  0  0  0  0  0
   38.3830   30.0430   43.6300 H   0  0  0  0  0  0  0  0  0  0  0  0
   37.5140   28.0420   44.7490 H   0  0  0  0  0  0  0  0  0  0  0  0
   36.4060   26.2740   43.4610 H   0  0  0  0  0  0  0  0  0  0  0  0
   36.1810   26.5280   41.0820 H   0  0  0  0  0  0  0  0  0  0  0  0
   40.0520   32.0700   40.2040 C   0  0  0  0  0  0  0  0  0  0  0  0
   39.6640   30.8470   40.8030 C   0  0  0  0  0  0  0  0  0  0  0  0
   38.3030   30.6390   41.0450 C   0  0  0  0  0  0  0  0  0  0  0  0
   37.4420   31.6140   40.6950 N   0  0  0  0  0  0  0  0  0  0  0  0
   37.8360   32.7740   40.1250 C   0  0  0  0  0  0  0  0  0  0  0  0
   39.1450   32.9940   39.8830 N   0  0  0  0  0  0  0  0  0  0  0  0
   36.9110   33.7930   39.7620 N   0  0  0  0  0  0  0  0  0  0  0  0
   41.1080   32.1530   40.0520 H   0  0  0  0  0  0  0  0  0  0  0  0
   40.2950   30.0410   41.1010 H   0  0  0  0  0  0  0  0  0  0  0  0
   36.4540   33.3410   38.9440 H   0  0  0  0  0  0  0  0  0  0  0  0
   36.8010   34.7180   40.2540 H   0  0  0  0  0  0  0  0  0  0  0  0
   37.0060   28.5760   39.5150 N   0  0  0  0  0  0  0  0  0  0  0  0
   36.0350   29.3600   38.7870 C   0  0  0  0  0  2  0  0  0  0  0  0
   36.5540   29.9740   37.5380 C   0  0  0  0  0  2  0  0  0  0  0  0
   38.0510   30.0860   37.4500 C   0  0  0  0  0  3  0  0  0  0  0  0
   38.2660   30.1510   36.3430 H   0  0  0  0  0  0  0  0  0  0  0  0
   38.8080   28.9220   37.9870 C   0  0  0  0  0  2  0  0  0  0  0  0
   37.8870   27.8940   38.5920 C   0  0  0  0  0  2  0  0  0  0  0  0
  1  2  1  0  0  0  0
  2  7  1  0  0  0  0
  2  3  2  0  0  0  0
  3  8  1  0  0  0  0
  4  9  1  0  0  0  0
  4  3  1  0  0  0  0
  5  4  2  0  0  0  0
  6  5  1  0  0  0  0
  6  1  2  0  0  0  0
 10  5  1  0  0  0  0
 11 12  1  0  0  0  0
 12 13  2  0  0  0  0
 12 19  1  0  0  0  0
 13  1  1  0  0  0  0
 14 13  1  0  0  0  0
 15 14  2  0  0  0  0
 16 15  1  0  0  0  0
 16 11  2  0  0  0  0
 17 15  1  0  0  0  0
 17 21  1  0  0  0  0
 18 11  1  0  0  0  0
 20 17  1  0  0  0  0
 22  6  1  0  0  0  0
 23 22  1  0  0  0  0
 24 23  1  0  0  0  0
 25 24  1  0  0  0  0
 25 27  1  0  0  0  0
 26 25  1  0  0  0  0
 27 28  1  0  0  0  0
 28 22  1  0  0  0  0
M  END
>  <minimizedAffinity>
-5.51366186

$$$$

 OpenBabel03252505353D

 28 30  0  0  0  0  0  0  0  0999 V2000
   37.3220   26.4480   40.4770 C   0  0  0  0  0  0  0  0  0  0  0  0
   36.5190   25.6010   39.7630 C   0  0  0  0  0  0  0  0  0  0  0  0
   36.4320   24.2370   40.0400 C   0  0  0  0  0  0  0  0  0  0  0  0
   37.1760   23.7020   41.0680 C   0  0  0  0  0  0  0  0  0  0  0  0
   37.9720   24.5660   41.7690 C   0  0  0  0  0  0  0  0  0  0  0  0
   38.0780   25.9290   41.5160 C   0  0  0  0  0  0  0  0  0  0  0  0
   35.8980   25.9520   38.9300 H   0  0  0  0  0  0  0  0  0  0  0  0
   35.7990   23.5640   39.4790 H   0  0  0  0  0  0  0  0  0  0  0  0
   37.1390   22.6500   41.3180 H   0  0  0  0  0  0  0  0  0  0  0  0
   38.5530   24.1270   42.5790 H   0  0  0  0  0  0  0  0  0  0  0  0
   38.0760   29.7580   38.8410 C   0  0  0  0  0  0  0  0  0  0  0  0
   38.1560   28.3700   39.1040 C   0  0  0  0  0  0  0  0  0  0  0  0
   37.3390   27.8440   40.1080 C   0  0  0  0  0  0  0  0  0  0  0  0
   36.5230   28.6910   40.7660 N   0  0  0  0  0  0  0  0  0  0  0  0
   36.4630   30.0130   40.4980 C   0  0  0  0  0  0  0  0  0  0  0  0
   37.2440   30.5400   39.5310 N   0  0  0  0  0  0  0  0  0  0  0  0
   35.5940   30.8920   41.2040 N   0  0  0  0  0  0  0  0  0  0  0  0
   38.7310   30.0820   38.0600 H   0  0  0  0  0  0  0  0  0  0  0  0
   38.7790   27.6530   38.6190 H   0  0  0  0  0  0  0  0  0  0  0  0
   34.6770   30.5920   40.8150 H   0  0  0  0  0  0  0  0  0  0  0  0
   35.9000   31.6140   41.9060 H   0  0  0  0  0  0  0  0  0  0  0  0
   38.9190   26.7920   42.2700 N   0  0  0  0  0  0  0  0  0  0  0  0
   40.1850   27.3670   41.8810 C   0  0  0  0  0  2  0  0  0  0  0  0
   40.4190   28.7410   42.3970 C   0  0  0  0  0  2  0  0  0  0  0  0
   39.1850   29.4850   42.8270 C   0  0  0  0  0  3  0  0  0  0  0  0
   39.5630   30.2670   43.5500 H   0  0  0  0  0  0  0  0  0  0  0  0
   38.1670   28.6680   43.5420 C   0  0  0  0  0  2  0  0  0  0  0  0
   38.5690   27.2160   43.6080 C   0  0  0  0  0  2  0  0  0  0  0  0
  1  6  1  0  0  0  0
  2  3  1  0  0  0  0
  2  1  2  0  0  0  0
  3  4  2  0  0  0  0
  4  9  1  0  0  0  0
  4  5  1  0  0  0  0
  5 10  1  0  0  0  0
  6  5  2  0  0  0  0
  6 22  1  0  0  0  0
  7  2  1  0  0  0  0
  8  3  1  0  0  0  0
 11 12  2  0  0  0  0
 11 16  1  0  0  0  0
 12 13  1  0  0  0  0
 13  1  1  0  0  0  0
 13 14  2  0  0  0  0
 15 14  1  0  0  0  0
 15 17  1  0  0  0  0
 16 15  2  0  0  0  0
 17 21  1  0  0  0  0
 18 11  1  0  0  0  0
 19 12  1  0  0  0  0
 20 17  1  0  0  0  0
 22 28  1  0  0  0  0
 23 22  1  0  0  0  0
 23 24  1  0  0  0  0
 24 25  1  0  0  0  0
 25 27  1  0  0  0  0
 25 26  1  0  0  0  0
 27 28  1  0  0  0  0
M  END
>  <minimizedAffinity>
-5.43836641

$$$$

 OpenBabel03252505353D

 28 30  0  0  0  0  0  0  0  0999 V2000
   36.7810   26.6600   39.6670 C   0  0  0  0  0  0  0  0  0  0  0  0
   36.1990   26.3600   38.4670 C   0  0  0  0  0  0  0  0  0  0  0  0
   35.7620   25.0750   38.1440 C   0  0  0  0  0  0  0  0  0  0  0  0
   35.9140   24.0560   39.0570 C   0  0  0  0  0  0  0  0  0  0  0  0
   36.4980   24.3770   40.2510 C   0  0  0  0  0  0  0  0  0  0  0  0
   36.9430   25.6470   40.5990 C   0  0  0  0  0  0  0  0  0  0  0  0
   36.0440   27.1180   37.6890 H   0  0  0  0  0  0  0  0  0  0  0  0
   35.3020   24.8340   37.1970 H   0  0  0  0  0  0  0  0  0  0  0  0
   35.5890   23.0440   38.8490 H   0  0  0  0  0  0  0  0  0  0  0  0
   36.6100   23.5590   40.9610 H   0  0  0  0  0  0  0  0  0  0  0  0
   38.7540   29.8650   39.8680 C   0  0  0  0  0  0  0  0  0  0  0  0
   38.4720   28.5060   39.5880 C   0  0  0  0  0  0  0  0  0  0  0  0
   37.1990   28.0230   39.9010 C   0  0  0  0  0  0  0  0  0  0  0  0
   36.3160   28.8780   40.4510 N   0  0  0  0  0  0  0  0  0  0  0  0
   36.6070   30.1710   40.7100 C   0  0  0  0  0  0  0  0  0  0  0  0
   37.8310   30.6580   40.4150 N   0  0  0  0  0  0  0  0  0  0  0  0
   35.6600   31.0610   41.2930 N   0  0  0  0  0  0  0  0  0  0  0  0
   39.7470   30.1580   39.6000 H   0  0  0  0  0  0  0  0  0  0  0  0
   39.1270   27.7840   39.1550 H   0  0  0  0  0  0  0  0  0  0  0  0
   35.0100   31.1840   40.4900 H   0  0  0  0  0  0  0  0  0  0  0  0
   35.7010   31.4330   42.2770 H   0  0  0  0  0  0  0  0  0  0  0  0
   37.5460   25.9380   41.8530 N   0  0  0  0  0  0  0  0  0  0  0  0
   38.9430   26.1610   42.1400 C   0  0  0  0  0  2  0  0  0  0  0  0
   39.1990   27.1760   43.1950 C   0  0  0  0  0  2  0  0  0  0  0  0
   38.0600   28.1210   43.4670 C   0  0  0  0  0  3  0  0  0  0  0  0
   38.2480   28.4970   44.5160 H   0  0  0  0  0  0  0  0  0  0  0  0
   36.7050   27.5060   43.4460 C   0  0  0  0  0  2  0  0  0  0  0  0
   36.7650   26.0480   43.0660 C   0  0  0  0  0  2  0  0  0  0  0  0
  1 13  1  0  0  0  0
  1  6  1  0  0  0  0
  2  1  2  0  0  0  0
  3  2  1  0  0  0  0
  3  4  2  0  0  0  0
  4  5  1  0  0  0  0
  5  6  2  0  0  0  0
  5 10  1  0  0  0  0
  6 22  1  0  0  0  0
  7  2  1  0  0  0  0
  8  3  1  0  0  0  0
  9  4  1  0  0  0  0
 11 16  1  0  0  0  0
 12 11  2  0  0  0  0
 12 13  1  0  0  0  0
 13 14  2  0  0  0  0
 14 15  1  0  0  0  0
 15 17  1  0  0  0  0
 16 15  2  0  0  0  0
 17 21  1  0  0  0  0
 18 11  1  0  0  0  0
 19 12  1  0  0  0  0
 20 17  1  0  0  0  0
 22 23  1  0  0  0  0
 22 28  1  0  0  0  0
 23 24  1  0  0  0  0
 24 25  1  0  0  0  0
 25 26  1  0  0  0  0
 27 25  1  0  0  0  0
 28 27  1  0  0  0  0
M  END
>  <minimizedAffinity>
-5.3595233

$$$$

 OpenBabel03252505353D

 28 30  0  0  0  0  0  0  0  0999 V2000
   36.9190   28.8080   40.4800 C   0  0  0  0  0  0  0  0  0  0  0  0
   36.6080   27.6970   41.2160 C   0  0  0  0  0  0  0  0  0  0  0  0
   36.9420   27.5720   42.5640 C   0  0  0  0  0  0  0  0  0  0  0  0
   37.6110   28.5950   43.1980 C   0  0  0  0  0  0  0  0  0  0  0  0
   37.9120   29.6960   42.4440 C   0  0  0  0  0  0  0  0  0  0  0  0
   37.5920   29.8480   41.1010 C   0  0  0  0  0  0  0  0  0  0  0  0
   36.0770   26.8410   40.7820 H   0  0  0  0  0  0  0  0  0  0  0  0
   36.6980   26.6960   43.1490 H   0  0  0  0  0  0  0  0  0  0  0  0
   37.8890   28.5400   44.2420 H   0  0  0  0  0  0  0  0  0  0  0  0
   38.4410   30.4960   42.9610 H   0  0  0  0  0  0  0  0  0  0  0  0
   34.9720   29.0860   37.2650 C   0  0  0  0  0  0  0  0  0  0  0  0
   35.2220   29.0860   38.6590 C   0  0  0  0  0  0  0  0  0  0  0  0
   36.5270   28.8370   39.0900 C   0  0  0  0  0  0  0  0  0  0  0  0
   37.4700   28.6100   38.1550 N   0  0  0  0  0  0  0  0  0  0  0  0
   37.2080   28.6150   36.8300 C   0  0  0  0  0  0  0  0  0  0  0  0
   35.9540   28.8540   36.3930 N   0  0  0  0  0  0  0  0  0  0  0  0
   38.2180   28.3730   35.8550 N   0  0  0  0  0  0  0  0  0  0  0  0
   33.9500   29.2850   37.0160 H   0  0  0  0  0  0  0  0  0  0  0  0
   34.5210   29.2580   39.4430 H   0  0  0  0  0  0  0  0  0  0  0  0
   38.7580   29.2590   35.9310 H   0  0  0  0  0  0  0  0  0  0  0  0
   38.3020   27.5020   35.2710 H   0  0  0  0  0  0  0  0  0  0  0  0
   37.9250   31.0120   40.3540 N   0  0  0  0  0  0  0  0  0  0  0  0
   37.0490   32.0790   39.9280 C   0  0  0  0  0  2  0  0  0  0  0  0
   37.6760   33.4260   39.9330 C   0  0  0  0  0  2  0  0  0  0  0  0
   38.9100   33.5570   40.7830 C   0  0  0  0  0  3  0  0  0  0  0  0
   39.4610   34.4430   40.3470 H   0  0  0  0  0  0  0  0  0  0  0  0
   39.8340   32.3910   40.7460 C   0  0  0  0  0  2  0  0  0  0  0  0
   39.2760   31.2690   39.9080 C   0  0  0  0  0  2  0  0  0  0  0  0
  1  6  2  0  0  0  0
  1  2  1  0  0  0  0
  2  3  2  0  0  0  0
  3  8  1  0  0  0  0
  3  4  1  0  0  0  0
  4  9  1  0  0  0  0
  5 10  1  0  0  0  0
  5  4  2  0  0  0  0
  6  5  1  0  0  0  0
  7  2  1  0  0  0  0
 11 12  1  0  0  0  0
 12 13  2  0  0  0  0
 12 19  1  0  0  0  0
 13  1  1  0  0  0  0
 14 13  1  0  0  0  0
 15 14  2  0  0  0  0
 16 15  1  0  0  0  0
 16 11  2  0  0  0  0
 17 20  1  0  0  0  0
 17 15  1  0  0  0  0
 18 11  1  0  0  0  0
 21 17  1  0  0  0  0
 22  6  1  0  0  0  0
 23 24  1  0  0  0  0
 23 22  1  0  0  0  0
 24 25  1  0  0  0  0
 26 25  1  0  0  0  0
 27 25  1  0  0  0  0
 28 22  1  0  0  0  0
 28 27  1  0  0  0  0
M  END
>  <minimizedAffinity>
-5.24467373

$$$$

 OpenBabel03252505353D

 28 30  0  0  0  0  0  0  0  0999 V2000
   36.5290   27.4690   39.6890 C   0  0  0  0  0  0  0  0  0  0  0  0
   35.8530   27.3690   38.5030 C   0  0  0  0  0  0  0  0  0  0  0  0
   34.7560   28.1720   38.1950 C   0  0  0  0  0  0  0  0  0  0  0  0
   34.3200   29.1080   39.1060 C   0  0  0  0  0  0  0  0  0  0  0  0
   35.0090   29.1910   40.2840 C   0  0  0  0  0  0  0  0  0  0  0  0
   36.1050   28.4050   40.6180 C   0  0  0  0  0  0  0  0  0  0  0  0
   36.1410   26.6470   37.7290 H   0  0  0  0  0  0  0  0  0  0  0  0
   34.2190   28.0960   37.2600 H   0  0  0  0  0  0  0  0  0  0  0  0
   33.4730   29.7520   38.9080 H   0  0  0  0  0  0  0  0  0  0  0  0
   34.6510   29.9370   40.9930 H   0  0  0  0  0  0  0  0  0  0  0  0
   39.9630   25.9150   39.7500 C   0  0  0  0  0  0  0  0  0  0  0  0
   38.9500   26.8640   39.4680 C   0  0  0  0  0  0  0  0  0  0  0  0
   37.6530   26.5880   39.9090 C   0  0  0  0  0  0  0  0  0  0  0  0
   37.4440   25.4370   40.5760 N   0  0  0  0  0  0  0  0  0  0  0  0
   38.4260   24.5460   40.8340 C   0  0  0  0  0  0  0  0  0  0  0  0
   39.6850   24.7940   40.4170 N   0  0  0  0  0  0  0  0  0  0  0  0
   38.1850   23.3340   41.5410 N   0  0  0  0  0  0  0  0  0  0  0  0
   40.9260   26.1990   39.3800 H   0  0  0  0  0  0  0  0  0  0  0  0
   39.0540   27.7880   38.9470 H   0  0  0  0  0  0  0  0  0  0  0  0
   38.0330   23.7100   42.4990 H   0  0  0  0  0  0  0  0  0  0  0  0
   38.1860   22.3720   41.1150 H   0  0  0  0  0  0  0  0  0  0  0  0
   36.7930   28.5250   41.8560 N   0  0  0  0  0  0  0  0  0  0  0  0
   36.8080   27.5960   42.9620 C   0  0  0  0  0  2  0  0  0  0  0  0
   38.1070   27.5150   43.6790 C   0  0  0  0  0  2  0  0  0  0  0  0
   39.2980   28.0210   42.9110 C   0  0  0  0  0  3  0  0  0  0  0  0
   40.0580   28.2820   43.7060 H   0  0  0  0  0  0  0  0  0  0  0  0
   39.0570   29.2460   42.1010 C   0  0  0  0  0  2  0  0  0  0  0  0
   37.6140   29.6760   42.1630 C   0  0  0  0  0  2  0  0  0  0  0  0
  1 13  1  0  0  0  0
  1  6  1  0  0  0  0
  2  1  2  0  0  0  0
  3  2  1  0  0  0  0
  3  4  2  0  0  0  0
  4  5  1  0  0  0  0
  5  6  2  0  0  0  0
  5 10  1  0  0  0  0
  6 22  1  0  0  0  0
  7  2  1  0  0  0  0
  8  3  1  0  0  0  0
  9  4  1  0  0  0  0
 11 16  1  0  0  0  0
 12 11  2  0  0  0  0
 12 13  1  0  0  0  0
 13 14  2  0  0  0  0
 14 15  1  0  0  0  0
 15 17  1  0  0  0  0
 16 15  2  0  0  0  0
 17 20  1  0  0  0  0
 18 11  1  0  0  0  0
 19 12  1  0  0  0  0
 21 17  1  0  0  0  0
 22 28  1  0  0  0  0
 22 23  1  0  0  0  0
 23 24  1  0  0  0  0
 25 24  1  0  0  0  0
 25 26  1  0  0  0  0
 27 28  1  0  0  0  0
 27 25  1  0  0  0  0
M  END
>  <minimizedAffinity>
-5.22205687

$$$$

 OpenBabel03252505353D

 28 30  0  0  0  0  0  0  0  0999 V2000
   36.8100   28.3970   41.0330 C   0  0  0  0  0  0  0  0  0  0  0  0
   36.5940   27.3650   41.9050 C   0  0  0  0  0  0  0  0  0  0  0  0
   37.0550   27.3840   43.2210 C   0  0  0  0  0  0  0  0  0  0  0  0
   37.7590   28.4750   43.6800 C   0  0  0  0  0  0  0  0  0  0  0  0
   37.9650   29.4960   42.7920 C   0  0  0  0  0  0  0  0  0  0  0  0
   37.5170   29.5040   41.4770 C   0  0  0  0  0  0  0  0  0  0  0  0
   36.0420   26.4630   41.6130 H   0  0  0  0  0  0  0  0  0  0  0  0
   36.8870   26.5710   43.9120 H   0  0  0  0  0  0  0  0  0  0  0  0
   38.1360   28.5320   44.6920 H   0  0  0  0  0  0  0  0  0  0  0  0
   38.5220   30.3510   43.1720 H   0  0  0  0  0  0  0  0  0  0  0  0
   36.4100   27.7470   37.3420 C   0  0  0  0  0  0  0  0  0  0  0  0
   37.0420   27.8160   38.6080 C   0  0  0  0  0  0  0  0  0  0  0  0
   36.2890   28.2770   39.6910 C   0  0  0  0  0  0  0  0  0  0  0  0
   35.0080   28.6280   39.4670 N   0  0  0  0  0  0  0  0  0  0  0  0
   34.4260   28.5530   38.2510 C   0  0  0  0  0  0  0  0  0  0  0  0
   35.1360   28.1110   37.1920 N   0  0  0  0  0  0  0  0  0  0  0  0
   33.0700   28.9290   38.0340 N   0  0  0  0  0  0  0  0  0  0  0  0
   37.0510   27.3840   36.5660 H   0  0  0  0  0  0  0  0  0  0  0  0
   38.0470   27.5530   38.8460 H   0  0  0  0  0  0  0  0  0  0  0  0
   32.5850   28.1410   38.5100 H   0  0  0  0  0  0  0  0  0  0  0  0
   32.7530   29.7900   37.5180 H   0  0  0  0  0  0  0  0  0  0  0  0
   37.7530   30.5870   40.5870 N   0  0  0  0  0  0  0  0  0  0  0  0
   36.8530   31.6580   40.2270 C   0  0  0  0  0  2  0  0  0  0  0  0
   37.5150   32.9700   40.0090 C   0  0  0  0  0  2  0  0  0  0  0  0
   38.8830   33.1090   40.6200 C   0  0  0  0  0  3  0  0  0  0  0  0
   39.3790   33.9290   40.0210 H   0  0  0  0  0  0  0  0  0  0  0  0
   39.7460   31.9000   40.5260 C   0  0  0  0  0  2  0  0  0  0  0  0
   39.0140   30.7430   39.8950 C   0  0  0  0  0  2  0  0  0  0  0  0
  1  6  2  0  0  0  0
  1  2  1  0  0  0  0
  2  3  2  0  0  0  0
  3  4  1  0  0  0  0
  3  8  1  0  0  0  0
  4  9  1  0  0  0  0
  5 10  1  0  0  0  0
  5  4  2  0  0  0  0
  6  5  1  0  0  0  0
  7  2  1  0  0  0  0
 11 12  1  0  0  0  0
 12 19  1  0  0  0  0
 12 13  2  0  0  0  0
 13  1  1  0  0  0  0
 14 13  1  0  0  0  0
 15 14  2  0  0  0  0
 16 11  2  0  0  0  0
 16 15  1  0  0  0  0
 17 15  1  0  0  0  0
 17 20  1  0  0  0  0
 18 11  1  0  0  0  0
 21 17  1  0  0  0  0
 22  6  1  0  0  0  0
 23 22  1  0  0  0  0
 24 23  1  0  0  0  0
 24 25  1  0  0  0  0
 26 25  1  0  0  0  0
 27 25  1  0  0  0  0
 28 27  1  0  0  0  0
 28 22  1  0  0  0  0
M  END
>  <minimizedAffinity>
-5.2145071

$$$$

 OpenBabel03252505353D

 28 30  0  0  0  0  0  0  0  0999 V2000
   39.6700   28.3410   41.9390 C   0  0  0  0  0  0  0  0  0  0  0  0
   40.7050   28.9030   42.6350 C   0  0  0  0  0  0  0  0  0  0  0  0
   41.5230   28.1650   43.4900 C   0  0  0  0  0  0  0  0  0  0  0  0
   41.2960   26.8170   43.6530 C   0  0  0  0  0  0  0  0  0  0  0  0
   40.2570   26.2750   42.9480 C   0  0  0  0  0  0  0  0  0  0  0  0
   39.4260   26.9850   42.0900 C   0  0  0  0  0  0  0  0  0  0  0  0
   40.9470   29.9700   42.5580 H   0  0  0  0  0  0  0  0  0  0  0  0
   42.3410   28.6050   44.0420 H   0  0  0  0  0  0  0  0  0  0  0  0
   41.9060   26.2060   44.3060 H   0  0  0  0  0  0  0  0  0  0  0  0
   40.0920   25.2080   43.0880 H   0  0  0  0  0  0  0  0  0  0  0  0
   38.3990   30.3970   39.0460 C   0  0  0  0  0  0  0  0  0  0  0  0
   39.2640   29.5520   39.7840 C   0  0  0  0  0  0  0  0  0  0  0  0
   38.8820   29.1950   41.0800 C   0  0  0  0  0  0  0  0  0  0  0  0
   37.7160   29.6770   41.5510 N   0  0  0  0  0  0  0  0  0  0  0  0
   36.9070   30.4830   40.8290 C   0  0  0  0  0  0  0  0  0  0  0  0
   37.2570   30.8380   39.5750 N   0  0  0  0  0  0  0  0  0  0  0  0
   35.6770   30.9820   41.3440 N   0  0  0  0  0  0  0  0  0  0  0  0
   38.7610   30.6230   38.0650 H   0  0  0  0  0  0  0  0  0  0  0  0
   40.1950   29.1410   39.4660 H   0  0  0  0  0  0  0  0  0  0  0  0
   35.1100   30.1100   41.3360 H   0  0  0  0  0  0  0  0  0  0  0  0
   35.4970   31.9810   41.6240 H   0  0  0  0  0  0  0  0  0  0  0  0
   38.3560   26.3820   41.3750 N   0  0  0  0  0  0  0  0  0  0  0  0
   38.3480   25.9110   40.0100 C   0  0  0  0  0  2  0  0  0  0  0  0
   37.5310   24.6910   39.7850 C   0  0  0  0  0  2  0  0  0  0  0  0
   37.2290   23.8840   41.0190 C   0  0  0  0  0  3  0  0  0  0  0  0
   36.3010   23.2960   40.7520 H   0  0  0  0  0  0  0  0  0  0  0  0
   36.9210   24.6790   42.2380 C   0  0  0  0  0  2  0  0  0  0  0  0
   37.0630   26.1590   41.9850 C   0  0  0  0  0  2  0  0  0  0  0  0
  1  6  2  0  0  0  0
  1  2  1  0  0  0  0
  2  3  2  0  0  0  0
  3  4  1  0  0  0  0
  3  8  1  0  0  0  0
  4  9  1  0  0  0  0
  5 10  1  0  0  0  0
  5  4  2  0  0  0  0
  6  5  1  0  0  0  0
  7  2  1  0  0  0  0
 11 16  2  0  0  0  0
 11 12  1  0  0  0  0
 12 13  2  0  0  0  0
 13 14  1  0  0  0  0
 13  1  1  0  0  0  0
 15 17  1  0  0  0  0
 15 14  2  0  0  0  0
 16 15  1  0  0  0  0
 17 21  1  0  0  0  0
 18 11  1  0  0  0  0
 19 12  1  0  0  0  0
 20 17  1  0  0  0  0
 22 28  1  0  0  0  0
 22  6  1  0  0  0  0
 23 22  1  0  0  0  0
 24 23  1  0  0  0  0
 24 25  1  0  0  0  0
 25 27  1  0  0  0  0
 26 25  1  0  0  0  0
 28 27  1  0  0  0  0
M  END
>  <minimizedAffinity>
-5.16894102

$$$$

 OpenBabel03252505353D

 28 30  0  0  0  0  0  0  0  0999 V2000
   36.4940   27.3750   39.5790 C   0  0  0  0  0  0  0  0  0  0  0  0
   35.8320   27.1630   38.4010 C   0  0  0  0  0  0  0  0  0  0  0  0
   35.5500   25.8850   37.9180 C   0  0  0  0  0  0  0  0  0  0  0  0
   35.9450   24.7820   38.6410 C   0  0  0  0  0  0  0  0  0  0  0  0
   36.6060   25.0160   39.8150 C   0  0  0  0  0  0  0  0  0  0  0  0
   36.9000   26.2770   40.3200 C   0  0  0  0  0  0  0  0  0  0  0  0
   35.4860   27.9910   37.7700 H   0  0  0  0  0  0  0  0  0  0  0  0
   35.0270   25.7130   36.9880 H   0  0  0  0  0  0  0  0  0  0  0  0
   35.7470   23.7730   38.3040 H   0  0  0  0  0  0  0  0  0  0  0  0
   36.9100   24.1330   40.3740 H   0  0  0  0  0  0  0  0  0  0  0  0
   36.1740   30.8370   41.0360 C   0  0  0  0  0  0  0  0  0  0  0  0
   35.8110   29.5110   40.6950 C   0  0  0  0  0  0  0  0  0  0  0  0
   36.7360   28.7390   39.9880 C   0  0  0  0  0  0  0  0  0  0  0  0
   37.9190   29.3020   39.6730 N   0  0  0  0  0  0  0  0  0  0  0  0
   38.2440   30.5690   40.0080 C   0  0  0  0  0  0  0  0  0  0  0  0
   37.3640   31.3310   40.6920 N   0  0  0  0  0  0  0  0  0  0  0  0
   39.4990   31.1470   39.6660 N   0  0  0  0  0  0  0  0  0  0  0  0
   35.4130   31.3610   41.5760 H   0  0  0  0  0  0  0  0  0  0  0  0
   34.8940   29.0130   40.9160 H   0  0  0  0  0  0  0  0  0  0  0  0
   40.1220   30.6280   40.3180 H   0  0  0  0  0  0  0  0  0  0  0  0
   39.6470   31.8930   38.9380 H   0  0  0  0  0  0  0  0  0  0  0  0
   37.5890   26.4760   41.5470 N   0  0  0  0  0  0  0  0  0  0  0  0
   38.9500   26.9180   41.7440 C   0  0  0  0  0  2  0  0  0  0  0  0
   39.1490   27.7820   42.9360 C   0  0  0  0  0  2  0  0  0  0  0  0
   37.9040   28.4330   43.4730 C   0  0  0  0  0  3  0  0  0  0  0  0
   38.1480   28.6660   44.5520 H   0  0  0  0  0  0  0  0  0  0  0  0
   36.6860   27.5780   43.4630 C   0  0  0  0  0  2  0  0  0  0  0  0
   36.9540   26.2390   42.8250 C   0  0  0  0  0  2  0  0  0  0  0  0
  1 13  1  0  0  0  0
  1  6  1  0  0  0  0
  2  1  2  0  0  0  0
  3  2  1  0  0  0  0
  3  4  2  0  0  0  0
  4  5  1  0  0  0  0
  5  6  2  0  0  0  0
  5 10  1  0  0  0  0
  6 22  1  0  0  0  0
  7  2  1  0  0  0  0
  8  3  1  0  0  0  0
  9  4  1  0  0  0  0
 11 18  1  0  0  0  0
 12 19  1  0  0  0  0
 12 11  1  0  0  0  0
 13 12  2  0  0  0  0
 14 13  1  0  0  0  0
 14 15  2  0  0  0  0
 15 16  1  0  0  0  0
 16 11  2  0  0  0  0
 17 15  1  0  0  0  0
 17 20  1  0  0  0  0
 21 17  1  0  0  0  0
 22 23  1  0  0  0  0
 22 28  1  0  0  0  0
 23 24  1  0  0  0  0
 24 25  1  0  0  0  0
 25 26  1  0  0  0  0
 27 25  1  0  0  0  0
 28 27  1  0  0  0  0
M  END
>  <minimizedAffinity>
-5.1410141

$$$$
