
     RDKit          3D

 38 40  0  0  0  0  0  0  0  0999 V2000
   46.6057   34.4116   41.4546 C   0  0  0  0  0  0  0  0  0  0  0  0
   47.8894   34.9090   41.2359 C   0  0  0  0  0  0  0  0  0  0  0  0
   48.5184   34.6579   40.0395 C   0  0  0  0  0  0  0  0  0  0  0  0
   47.8683   33.9247   39.0908 C   0  0  0  0  0  0  0  0  0  0  0  0
   46.6144   33.4170   39.2560 C   0  0  0  0  0  0  0  0  0  0  0  0
   46.0132   33.6966   40.4865 C   0  0  0  0  0  0  0  0  0  0  0  0
   44.6905   36.0613   44.2655 C   0  0  0  0  0  0  0  0  0  0  0  0
   45.2309   35.8659   42.9751 C   0  0  0  0  0  0  0  0  0  0  0  0
   45.9986   34.7154   42.7431 C   0  0  0  0  0  0  0  0  0  0  0  0
   46.1811   33.8541   43.7649 N   0  0  0  0  0  0  0  0  0  0  0  0
   45.6480   34.0679   44.9987 C   0  0  0  0  0  0  0  0  0  0  0  0
   44.9048   35.1716   45.2427 N   0  0  0  0  0  0  0  0  0  0  0  0
   48.5657   35.7119   42.3147 C   0  0  0  0  0  0  0  0  0  0  0  0
   49.5155   35.0316   39.8404 H   0  0  0  0  0  0  0  0  0  0  0  0
   48.3543   33.7158   38.1320 H   0  0  0  0  0  0  0  0  0  0  0  0
   46.0644   32.8282   38.5218 H   0  0  0  0  0  0  0  0  0  0  0  0
   45.0182   33.3498   40.7410 H   0  0  0  0  0  0  0  0  0  0  0  0
   44.1363   36.9909   44.2514 H   0  0  0  0  0  0  0  0  0  0  0  0
   45.1366   36.4894   42.1192 H   0  0  0  0  0  0  0  0  0  0  0  0
   45.7814   33.3949   45.8242 H   0  0  0  0  0  0  0  0  0  0  0  0
   49.3911   36.2577   41.8162 H   0  0  0  0  0  0  0  0  0  0  0  0
   47.8188   36.4091   42.7416 H   0  0  0  0  0  0  0  0  0  0  0  0
   49.0453   34.8567   43.3702 N   0  0  0  0  0  0  0  0  0  0  0  0
   48.4828   35.1059   44.6443 C   0  0  0  0  0  0  0  0  0  0  0  0
   47.9483   33.9115   45.3652 C   0  0  0  0  0  0  0  0  0  0  0  0
   48.7449   32.6581   45.1882 C   0  0  0  0  0  0  0  0  0  0  0  0
   49.3164   32.3827   46.1060 H   0  0  0  0  0  0  0  0  0  0  0  0
   49.7387   32.7243   44.0577 C   0  0  0  0  0  0  0  0  0  0  0  0
   49.0128   33.4866   42.9399 C   0  0  0  0  0  0  0  0  0  0  0  0
   47.6672   35.8498   44.5429 H   0  0  0  0  0  0  0  0  0  0  0  0
   49.2785   35.6216   45.2559 H   0  0  0  0  0  0  0  0  0  0  0  0
   47.9469   34.1600   46.4507 H   0  0  0  0  0  0  0  0  0  0  0  0
   46.8787   33.7260   45.0987 H   0  0  0  0  0  0  0  0  0  0  0  0
   48.0708   31.8008   44.9745 H   0  0  0  0  0  0  0  0  0  0  0  0
   49.9973   31.7398   43.6562 H   0  0  0  0  0  0  0  0  0  0  0  0
   50.6109   33.3136   44.4163 H   0  0  0  0  0  0  0  0  0  0  0  0
   49.5890   33.3873   41.9992 H   0  0  0  0  0  0  0  0  0  0  0  0
   47.9884   33.1008   42.8961 H   0  0  0  0  0  0  0  0  0  0  0  0
  1  9  1  0
  2  1  1  0
  2 13  1  0
  3  2  2  0
  4  5  2  0
  4  3  1  0
  5  6  1  0
  6  1  2  0
  7 12  2  0
  8  7  1  0
  9  8  2  0
  9 10  1  0
 10 11  2  0
 11 12  1  0
  3 14  1  0
  4 15  1  0
  5 16  1  0
  6 17  1  0
  7 18  1  0
  8 19  1  0
 11 20  1  0
 13 21  1  0
 13 22  1  0
 23 24  1  0
 24 25  1  0
 25 26  1  0
 26 27  1  0
 26 28  1  0
 28 29  1  0
 29 23  1  0
 24 30  1  0
 24 31  1  0
 25 32  1  0
 25 33  1  0
 26 34  1  0
 28 35  1  0
 28 36  1  0
 29 37  1  0
 29 38  1  0
 13 23  1  0
M  ISO  8  14  14  15  14  16  14  17  14  18  14  19  14  20  14  21   8
M  ISO  2  22   8  27  15
M  END
>  <DihAtoms>  (1) 
1,12,22,23

>  <DihDeg>  (1) 
61.069508842299385

$$$$
