
     RDKit          3D

 51 53  0  0  0  0  0  0  0  0999 V2000
   46.5760   34.9093   43.2492 O   0  0  0  0  0  0  0  0  0  0  0  0
   46.8017   33.9760   42.2299 C   0  0  1  0  0  0  0  0  0  0  0  0
   46.0731   34.4136   40.9561 C   0  0  0  0  0  0  0  0  0  0  0  0
   46.6888   33.4773   39.9478 C   0  0  0  0  0  0  0  0  0  0  0  0
   48.0735   33.1440   40.4749 C   0  0  0  0  0  0  0  0  0  0  0  0
   48.2163   33.9584   41.7410 C   0  0  1  0  0  0  0  0  0  0  0  0
   48.7594   35.3326   41.4579 C   0  0  0  0  0  0  0  0  0  0  0  0
   49.6572   35.7531   42.4138 O   0  0  0  0  0  0  0  0  0  0  0  0
   44.7331   35.3519   44.9987 O   0  0  0  0  0  0  0  0  0  0  0  0
   45.5811   34.2407   44.4123 P   0  0  1  0  0  0  0  0  0  0  0  0
   44.6080   33.0393   43.7203 O   0  0  0  0  0  0  0  0  0  0  0  0
   46.4768   33.4907   45.6027 O   0  0  0  0  0  0  0  0  0  0  0  0
   46.2331   32.1560   45.5709 C   0  0  0  0  0  0  0  0  0  0  0  0
   45.6372   31.9068   49.2351 C   0  0  0  0  0  0  0  0  0  0  0  0
   45.9734   32.4612   47.9950 C   0  0  0  0  0  0  0  0  0  0  0  0
   45.8820   31.6031   46.8912 C   0  0  0  0  0  0  0  0  0  0  0  0
   45.4833   30.3160   47.0785 N   0  0  0  0  0  0  0  0  0  0  0  0
   45.1664   29.8136   48.2897 C   0  0  0  0  0  0  0  0  0  0  0  0
   45.2437   30.6024   49.3520 N   0  0  0  0  0  0  0  0  0  0  0  0
   46.4459   32.9757   42.4659 H   0  0  0  0  0  0  0  0  0  0  0  0
   46.1664   35.4711   40.7356 H   0  0  0  0  0  0  0  0  0  0  0  0
   44.9958   34.2053   41.1112 H   0  0  0  0  0  0  0  0  0  0  0  0
   46.0423   32.5554   39.8937 H   0  0  0  0  0  0  0  0  0  0  0  0
   46.7440   33.8958   38.9427 H   0  0  0  0  0  0  0  0  0  0  0  0
   48.0977   32.0519   40.7157 H   0  0  0  0  0  0  0  0  0  0  0  0
   48.8633   33.3634   39.7378 H   0  0  0  0  0  0  0  0  0  0  0  0
   48.8763   33.3845   42.4512 H   0  0  0  0  0  0  0  0  0  0  0  0
   49.2484   35.2915   40.4457 H   0  0  0  0  0  0  0  0  0  0  0  0
   47.9925   36.1198   41.3738 H   0  0  0  0  0  0  0  0  0  0  0  0
   49.8842   35.0261   43.0397 H   0  0  0  0  0  0  0  0  0  0  0  0
   43.9461   33.4810   43.1516 H   0  0  0  0  0  0  0  0  0  0  0  0
   47.2149   31.6627   45.3040 H   0  0  0  0  0  0  0  0  0  0  0  0
   45.5253   31.7735   44.8404 H   0  0  0  0  0  0  0  0  0  0  0  0
   45.6960   32.5411   50.1118 H   0  0  0  0  0  0  0  0  0  0  0  0
   46.2759   33.4847   47.9477 H   0  0  0  0  0  0  0  0  0  0  0  0
   44.7599   28.4519   48.3819 N   0  0  0  0  0  0  0  0  0  0  0  0
   44.3769   27.7195   47.1891 C   0  0  0  0  0  0  0  0  0  0  0  0
   44.6704   26.2415   47.3534 C   0  0  0  0  0  0  0  0  0  0  0  0
   45.9418   26.1571   48.1752 C   0  0  0  0  0  0  0  0  0  0  0  0
   46.2869   25.1124   48.1652 H   0  0  0  0  0  0  0  0  0  0  0  0
   45.7669   26.6797   49.5832 C   0  0  0  0  0  0  0  0  0  0  0  0
   44.7207   27.7729   49.6643 C   0  0  0  0  0  0  0  0  0  0  0  0
   43.3324   27.9178   46.8872 H   0  0  0  0  0  0  0  0  0  0  0  0
   45.0242   28.0822   46.3636 H   0  0  0  0  0  0  0  0  0  0  0  0
   43.8724   25.6901   47.8904 H   0  0  0  0  0  0  0  0  0  0  0  0
   44.9071   25.8306   46.3641 H   0  0  0  0  0  0  0  0  0  0  0  0
   46.7312   26.7486   47.6523 H   0  0  0  0  0  0  0  0  0  0  0  0
   45.5502   25.8554   50.2938 H   0  0  0  0  0  0  0  0  0  0  0  0
   46.7451   27.1314   49.8985 H   0  0  0  0  0  0  0  0  0  0  0  0
   43.7196   27.3117   49.8387 H   0  0  0  0  0  0  0  0  0  0  0  0
   45.0135   28.4514   50.4829 H   0  0  0  0  0  0  0  0  0  0  0  0
 10  1  1  6
  2  1  1  0
  3  2  1  0
  4  5  1  0
  4  3  1  0
  5  6  1  0
  6  2  1  0
  7  6  1  0
  7  8  1  0
 10  9  2  0
 10 12  1  0
 11 10  1  0
 13 12  1  0
 13 16  1  0
 14 19  2  0
 15 14  1  0
 16 17  1  0
 16 15  2  0
 17 18  2  0
 18 19  1  0
  2 20  1  1
  3 21  1  0
  3 22  1  0
  4 23  1  0
  4 24  1  0
  5 25  1  0
  5 26  1  0
  6 27  1  1
  7 28  1  0
  7 29  1  0
  8 30  1  0
 11 31  1  0
 13 32  1  0
 13 33  1  0
 14 34  1  0
 15 35  1  0
 36 37  1  0
 37 38  1  0
 38 39  1  0
 39 40  1  0
 39 41  1  0
 41 42  1  0
 42 36  1  0
 37 43  1  0
 37 44  1  0
 38 45  1  0
 38 46  1  0
 39 47  1  0
 41 48  1  0
 41 49  1  0
 42 50  1  0
 42 51  1  0
 18 36  1  0
M  ISO  8  20  13  21  13  22  13  23  13  24  13  25  13  26  13  27  13
M  ISO  8  28   8  29   8  30   3  31   3  32   8  33   8  34  14  35  14
M  ISO  1  40  15
M  END
>  <DihAtoms>  (1) 
16,17,35,36

>  <DihDeg>  (1) 
0.0025181682593020394

$$$$
