
 OpenBabel03252505563D

 34 36  0  0  0  0  0  0  0  0999 V2000
   45.0870   34.7910   44.6910 C   0  0  0  0  0  0  0  0  0  0  0  0
   46.0390   34.5560   43.7050 C   0  0  0  0  0  0  0  0  0  0  0  0
   47.0560   33.6490   44.0180 C   0  0  0  0  0  0  0  0  0  0  0  0
   47.0780   33.0540   45.2260 N   0  0  0  0  0  0  0  0  0  0  0  0
   46.1180   33.3250   46.1500 C   0  0  0  0  0  0  0  0  0  0  0  0
   45.1390   34.1820   45.8820 N   0  0  0  0  0  0  0  0  0  0  0  0
   44.3040   35.4860   44.4580 H   0  0  0  0  0  0  0  0  0  0  0  0
   48.0820   33.2980   43.1000 N   0  0  0  0  0  0  0  0  0  0  0  0
   49.3070   33.9630   42.7000 C   0  0  0  0  0  2  0  0  0  0  0  0
   50.4320   33.0510   42.3630 C   0  0  0  0  0  2  0  0  0  0  0  0
   50.0420   31.7240   41.8060 C   0  0  0  0  0  3  0  0  0  0  0  0
   50.6670   31.4460   40.9310 H   0  0  0  0  0  0  0  0  0  0  0  0
   48.6100   31.6540   41.3700 C   0  0  0  0  0  2  0  0  0  0  0  0
   47.6800   32.0020   42.5320 C   0  0  0  0  0  2  0  0  0  0  0  0
   45.9450   35.2610   42.3960 C   0  0  0  0  0  0  0  0  0  0  0  0
   44.8670   36.1210   42.5650 F   0  0  0  0  0  0  0  0  0  0  0  0
   45.6010   34.3050   41.4510 F   0  0  0  0  0  0  0  0  0  0  0  0
   47.0910   35.9180   42.1390 F   0  0  0  0  0  0  0  0  0  0  0  0
   46.1130   32.7320   47.3950 O   0  0  0  0  0  0  0  0  0  0  0  0
   45.6820   31.3970   47.5580 C   0  0  0  0  0  0  0  0  0  0  0  0
   44.9040   31.2720   48.3340 H   0  0  0  0  0  0  0  0  0  0  0  0
   45.2080   31.0590   46.6100 H   0  0  0  0  0  0  0  0  0  0  0  0
   46.8790   30.5660   47.7800 C   0  0  0  0  0  0  0  0  0  0  0  0
   47.1580   29.2750   47.3610 C   0  0  0  0  0  0  0  0  0  0  0  0
   48.3580   28.7390   47.7100 C   0  0  0  0  0  0  0  0  0  0  0  0
   49.2580   29.4060   48.4280 N   0  0  0  0  0  0  0  0  0  0  0  0
   48.9770   30.6560   48.8290 C   0  0  0  0  0  0  0  0  0  0  0  0
   47.7880   31.2520   48.5120 N   0  0  0  0  0  0  0  0  0  0  0  0
   46.3560   28.8520   46.7940 H   0  0  0  0  0  0  0  0  0  0  0  0
   48.5350   27.7280   47.3620 H   0  0  0  0  0  0  0  0  0  0  0  0
   50.0370   31.3190   49.6230 C   0  0  0  0  0  0  0  0  0  0  0  0
   49.9740   32.6820   49.5050 F   0  0  0  0  0  0  0  0  0  0  0  0
   51.2990   30.8910   49.1890 F   0  0  0  0  0  0  0  0  0  0  0  0
   49.9460   31.0020   50.9620 F   0  0  0  0  0  0  0  0  0  0  0  0
  1  6  1  0  0  0  0
  2  3  1  0  0  0  0
  2  1  2  0  0  0  0
  3  4  2  0  0  0  0
  4  5  1  0  0  0  0
  5 19  1  0  0  0  0
  6  5  2  0  0  0  0
  7  1  1  0  0  0  0
  8  3  1  0  0  0  0
  9  8  1  0  0  0  0
 10  9  1  0  0  0  0
 11 10  1  0  0  0  0
 12 11  1  0  0  0  0
 13 11  1  0  0  0  0
 13 14  1  0  0  0  0
 14  8  1  0  0  0  0
 15 16  1  0  0  0  0
 15  2  1  0  0  0  0
 17 15  1  0  0  0  0
 18 15  1  0  0  0  0
 19 20  1  0  0  0  0
 20 23  1  0  0  0  0
 20 21  1  0  0  0  0
 22 20  1  0  0  0  0
 23 28  1  0  0  0  0
 24 25  1  0  0  0  0
 24 23  2  0  0  0  0
 25 26  2  0  0  0  0
 26 27  1  0  0  0  0
 27 31  1  0  0  0  0
 28 27  2  0  0  0  0
 29 24  1  0  0  0  0
 30 25  1  0  0  0  0
 31 34  1  0  0  0  0
 32 31  1  0  0  0  0
 33 31  1  0  0  0  0
M  END
>  <minimizedAffinity>
-5.98821306

>  <minimizedRMSD>
0.518840015

$$$$
