
 OpenBabel03242516553D

 43 46  0  0  1  0  0  0  0  0999 V2000
   38.9650   24.8840   40.9190 C   0  0  1  0  0  0  0  0  0  0  0  0
   38.3150   23.7670   41.6020 C   0  0  0  0  0  0  0  0  0  0  0  0
   37.4070   23.1130   40.5630 C   0  0  0  0  0  0  0  0  0  0  0  0
   36.2690   24.0900   40.3060 C   0  0  0  0  0  0  0  0  0  0  0  0
   36.7220   25.4590   39.9000 C   0  0  0  0  0  0  0  0  0  0  0  0
   37.9660   25.9660   40.4930 C   0  0  1  0  0  0  0  0  0  0  0  0
   39.3500   24.5110   39.9190 H   0  0  0  0  0  0  0  0  0  0  0  0
   39.0430   23.0650   42.0040 H   0  0  0  0  0  0  0  0  0  0  0  0
   37.6090   24.0790   42.4210 H   0  0  0  0  0  0  0  0  0  0  0  0
   36.9690   22.1840   40.9180 H   0  0  0  0  0  0  0  0  0  0  0  0
   37.9630   23.0180   39.6110 H   0  0  0  0  0  0  0  0  0  0  0  0
   35.5890   23.6860   39.5460 H   0  0  0  0  0  0  0  0  0  0  0  0
   35.6910   24.1410   41.2640 H   0  0  0  0  0  0  0  0  0  0  0  0
   35.8820   26.1590   40.1840 H   0  0  0  0  0  0  0  0  0  0  0  0
   36.7350   25.4880   38.7880 H   0  0  0  0  0  0  0  0  0  0  0  0
   38.5200   26.5530   39.7000 H   0  0  0  0  0  0  0  0  0  0  0  0
   41.3530   25.8640   43.6790 C   0  0  0  0  0  0  0  0  0  0  0  0
   40.2970   25.2980   42.9530 C   0  0  0  0  0  0  0  0  0  0  0  0
   40.0890   25.5050   41.5870 C   0  0  0  0  0  0  0  0  0  0  0  0
   40.9760   26.2970   40.9860 N   0  0  0  0  0  0  0  0  0  0  0  0
   42.0080   26.8560   41.6720 C   0  0  0  0  0  0  0  0  0  0  0  0
   42.2020   26.6550   42.9740 N   0  0  0  0  0  0  0  0  0  0  0  0
   41.3980   25.6200   44.7360 H   0  0  0  0  0  0  0  0  0  0  0  0
   39.5870   24.6570   43.4650 H   0  0  0  0  0  0  0  0  0  0  0  0
   42.7030   27.5000   41.1170 H   0  0  0  0  0  0  0  0  0  0  0  0
   37.7320   26.9350   41.5640 C   0  0  0  0  0  0  0  0  0  0  0  0
   37.0720   26.6780   42.7720 C   0  0  0  0  0  0  0  0  0  0  0  0
   36.9800   27.7570   43.6570 C   0  0  0  0  0  0  0  0  0  0  0  0
   37.5360   28.9630   43.2740 C   0  0  0  0  0  0  0  0  0  0  0  0
   38.1850   29.1940   42.0720 C   0  0  0  0  0  0  0  0  0  0  0  0
   38.2660   28.1340   41.2210 N   0  0  0  0  0  0  0  0  0  0  0  0
   36.7010   25.6990   42.9170 H   0  0  0  0  0  0  0  0  0  0  0  0
   36.4840   27.5830   44.5770 H   0  0  0  0  0  0  0  0  0  0  0  0
   37.4730   29.8140   43.9510 H   0  0  0  0  0  0  0  0  0  0  0  0
   38.7400   30.5050   41.7650 C   0  0  0  0  0  0  0  0  0  0  0  0
   39.6240   30.9840   42.5200 O   0  0  0  0  0  0  0  0  0  0  0  0
   38.4570   31.3980   40.7160 N   0  0  0  0  0  0  0  0  0  0  0  0
   39.6060   31.9940   40.0630 C   0  0  0  0  0  2  0  0  0  0  0  0
   39.6660   33.4510   40.5010 C   0  0  0  0  0  2  0  0  0  0  0  0
   38.3290   34.0900   40.2710 C   0  0  0  0  0  3  0  0  0  0  0  0
   37.8840   34.5030   41.1890 H   0  0  0  0  0  0  0  0  0  0  0  0
   37.3540   33.2080   39.5220 C   0  0  0  0  0  2  0  0  0  0  0  0
   37.1850   31.8540   40.1390 C   0  0  0  0  0  2  0  0  0  0  0  0
  1  7  1  6  0  0  0
  1 19  1  0  0  0  0
  1  2  1  0  0  0  0
  2  8  1  0  0  0  0
  2  9  1  0  0  0  0
  3 10  1  0  0  0  0
  3  2  1  0  0  0  0
  4  3  1  0  0  0  0
  4 13  1  0  0  0  0
  5 14  1  0  0  0  0
  5  4  1  0  0  0  0
  5  6  1  0  0  0  0
  6 16  1  6  0  0  0
  6  1  1  0  0  0  0
  6 26  1  0  0  0  0
 11  3  1  0  0  0  0
 12  4  1  0  0  0  0
 15  5  1  0  0  0  0
 17 23  1  0  0  0  0
 18 24  1  0  0  0  0
 18 17  2  0  0  0  0
 19 18  1  0  0  0  0
 20 19  2  0  0  0  0
 20 21  1  0  0  0  0
 21 22  2  0  0  0  0
 22 17  1  0  0  0  0
 25 21  1  0  0  0  0
 26 27  1  0  0  0  0
 27 32  1  0  0  0  0
 27 28  2  0  0  0  0
 28 33  1  0  0  0  0
 29 28  1  0  0  0  0
 29 34  1  0  0  0  0
 30 29  2  0  0  0  0
 31 26  2  0  0  0  0
 31 30  1  0  0  0  0
 35 30  1  0  0  0  0
 35 36  2  0  0  0  0
 37 35  1  0  0  0  0
 38 39  1  0  0  0  0
 38 37  1  0  0  0  0
 40 39  1  0  0  0  0
 40 41  1  0  0  0  0
 42 43  1  0  0  0  0
 42 40  1  0  0  0  0
 43 37  1  0  0  0  0
M  END
>  <minimizedAffinity>
-6.69694471

$$$$

 OpenBabel03242516553D

 43 46  0  0  1  0  0  0  0  0999 V2000
   36.5550   30.5920   38.9950 C   0  0  1  0  0  0  0  0  0  0  0  0
   36.7560   29.6440   37.9000 C   0  0  0  0  0  0  0  0  0  0  0  0
   35.3600   29.2740   37.4050 C   0  0  0  0  0  0  0  0  0  0  0  0
   34.7220   28.4310   38.4990 C   0  0  0  0  0  0  0  0  0  0  0  0
   34.7040   29.0900   39.8440 C   0  0  0  0  0  0  0  0  0  0  0  0
   35.8400   29.9540   40.1920 C   0  0  1  0  0  0  0  0  0  0  0  0
   35.8010   31.3690   38.6560 H   0  0  0  0  0  0  0  0  0  0  0  0
   37.3680   30.0710   37.1080 H   0  0  0  0  0  0  0  0  0  0  0  0
   37.2000   28.6610   38.2210 H   0  0  0  0  0  0  0  0  0  0  0  0
   35.3840   28.6740   36.4990 H   0  0  0  0  0  0  0  0  0  0  0  0
   34.7530   30.1960   37.3230 H   0  0  0  0  0  0  0  0  0  0  0  0
   33.7010   28.1500   38.2130 H   0  0  0  0  0  0  0  0  0  0  0  0
   35.3200   27.4840   38.5400 H   0  0  0  0  0  0  0  0  0  0  0  0
   34.6520   28.2520   40.6000 H   0  0  0  0  0  0  0  0  0  0  0  0
   33.7250   29.6090   39.9470 H   0  0  0  0  0  0  0  0  0  0  0  0
   35.4430   30.8390   40.7770 H   0  0  0  0  0  0  0  0  0  0  0  0
   38.6310   33.3480   40.5380 C   0  0  0  0  0  0  0  0  0  0  0  0
   37.5640   32.5720   40.0640 C   0  0  0  0  0  0  0  0  0  0  0  0
   37.7140   31.3210   39.4620 C   0  0  0  0  0  0  0  0  0  0  0  0
   38.9690   30.8840   39.3550 N   0  0  0  0  0  0  0  0  0  0  0  0
   40.0180   31.6200   39.8080 C   0  0  0  0  0  0  0  0  0  0  0  0
   39.8690   32.8120   40.3820 N   0  0  0  0  0  0  0  0  0  0  0  0
   38.3720   34.3020   40.9860 H   0  0  0  0  0  0  0  0  0  0  0  0
   36.5520   32.9500   40.1630 H   0  0  0  0  0  0  0  0  0  0  0  0
   41.0270   31.2020   39.6890 H   0  0  0  0  0  0  0  0  0  0  0  0
   36.7860   29.3110   41.1040 C   0  0  0  0  0  0  0  0  0  0  0  0
   37.3340   29.8870   42.2570 C   0  0  0  0  0  0  0  0  0  0  0  0
   38.2080   29.0750   42.9860 C   0  0  0  0  0  0  0  0  0  0  0  0
   38.4530   27.7970   42.5200 C   0  0  0  0  0  0  0  0  0  0  0  0
   37.8980   27.2480   41.3750 C   0  0  0  0  0  0  0  0  0  0  0  0
   37.0500   28.0520   40.6750 N   0  0  0  0  0  0  0  0  0  0  0  0
   37.0470   30.8790   42.4800 H   0  0  0  0  0  0  0  0  0  0  0  0
   38.6340   29.4920   43.8620 H   0  0  0  0  0  0  0  0  0  0  0  0
   39.1310   27.1510   43.0760 H   0  0  0  0  0  0  0  0  0  0  0  0
   38.2200   25.8870   40.9700 C   0  0  0  0  0  0  0  0  0  0  0  0
   39.4250   25.5280   40.9490 O   0  0  0  0  0  0  0  0  0  0  0  0
   37.3870   24.8270   40.5710 N   0  0  0  0  0  0  0  0  0  0  0  0
   37.6820   23.5330   41.1560 C   0  0  0  0  0  2  0  0  0  0  0  0
   38.3060   22.6780   40.0610 C   0  0  0  0  0  2  0  0  0  0  0  0
   37.4220   22.7060   38.8490 C   0  0  0  0  0  3  0  0  0  0  0  0
   37.9320   23.0840   37.9510 H   0  0  0  0  0  0  0  0  0  0  0  0
   36.0980   23.4010   39.0790 C   0  0  0  0  0  2  0  0  0  0  0  0
   36.2430   24.7780   39.6500 C   0  0  0  0  0  2  0  0  0  0  0  0
  1  7  1  6  0  0  0
  1 19  1  0  0  0  0
  1  6  1  0  0  0  0
  2  9  1  0  0  0  0
  2  1  1  0  0  0  0
  3  2  1  0  0  0  0
  3  4  1  0  0  0  0
  4 13  1  0  0  0  0
  4  5  1  0  0  0  0
  5 15  1  0  0  0  0
  5  6  1  0  0  0  0
  5 14  1  0  0  0  0
  6 16  1  1  0  0  0
  6 26  1  0  0  0  0
  8  2  1  0  0  0  0
 10  3  1  0  0  0  0
 11  3  1  0  0  0  0
 12  4  1  0  0  0  0
 17 23  1  0  0  0  0
 18 24  1  0  0  0  0
 18 17  2  0  0  0  0
 19 18  1  0  0  0  0
 20 19  2  0  0  0  0
 20 21  1  0  0  0  0
 21 22  2  0  0  0  0
 22 17  1  0  0  0  0
 25 21  1  0  0  0  0
 26 27  1  0  0  0  0
 27 32  1  0  0  0  0
 27 28  2  0  0  0  0
 28 33  1  0  0  0  0
 29 28  1  0  0  0  0
 29 34  1  0  0  0  0
 30 29  2  0  0  0  0
 31 26  2  0  0  0  0
 31 30  1  0  0  0  0
 35 30  1  0  0  0  0
 36 35  2  0  0  0  0
 37 35  1  0  0  0  0
 37 38  1  0  0  0  0
 39 38  1  0  0  0  0
 40 42  1  0  0  0  0
 40 39  1  0  0  0  0
 41 40  1  0  0  0  0
 42 43  1  0  0  0  0
 43 37  1  0  0  0  0
M  END
>  <minimizedAffinity>
-6.30967617

$$$$

 OpenBabel03242516553D

 43 46  0  0  1  0  0  0  0  0999 V2000
   36.6870   30.3790   39.2270 C   0  0  1  0  0  0  0  0  0  0  0  0
   36.8120   29.4320   38.1200 C   0  0  0  0  0  0  0  0  0  0  0  0
   35.4160   29.3130   37.5120 C   0  0  0  0  0  0  0  0  0  0  0  0
   34.5630   28.5690   38.5280 C   0  0  0  0  0  0  0  0  0  0  0  0
   34.5500   29.1960   39.8890 C   0  0  0  0  0  0  0  0  0  0  0  0
   35.7840   29.8480   40.3470 C   0  0  1  0  0  0  0  0  0  0  0  0
   36.1020   31.2780   38.8580 H   0  0  0  0  0  0  0  0  0  0  0  0
   37.5460   29.7650   37.3890 H   0  0  0  0  0  0  0  0  0  0  0  0
   37.0580   28.3820   38.4410 H   0  0  0  0  0  0  0  0  0  0  0  0
   35.4100   28.7350   36.5910 H   0  0  0  0  0  0  0  0  0  0  0  0
   34.9800   30.3260   37.4140 H   0  0  0  0  0  0  0  0  0  0  0  0
   33.5350   28.4710   38.1580 H   0  0  0  0  0  0  0  0  0  0  0  0
   34.9890   27.5340   38.5820 H   0  0  0  0  0  0  0  0  0  0  0  0
   34.3000   28.3640   40.6110 H   0  0  0  0  0  0  0  0  0  0  0  0
   33.6670   29.8710   39.9350 H   0  0  0  0  0  0  0  0  0  0  0  0
   35.4970   30.7760   40.9290 H   0  0  0  0  0  0  0  0  0  0  0  0
   39.0690   32.7170   41.0000 C   0  0  0  0  0  0  0  0  0  0  0  0
   37.9280   32.1420   40.4250 C   0  0  0  0  0  0  0  0  0  0  0  0
   37.9120   30.8920   39.8010 C   0  0  0  0  0  0  0  0  0  0  0  0
   39.0790   30.2490   39.7780 N   0  0  0  0  0  0  0  0  0  0  0  0
   40.1980   30.7880   40.3300 C   0  0  0  0  0  0  0  0  0  0  0  0
   40.2070   31.9800   40.9240 N   0  0  0  0  0  0  0  0  0  0  0  0
   38.9410   33.6950   41.4530 H   0  0  0  0  0  0  0  0  0  0  0  0
   36.9900   32.6860   40.4550 H   0  0  0  0  0  0  0  0  0  0  0  0
   41.1270   30.2050   40.2770 H   0  0  0  0  0  0  0  0  0  0  0  0
   36.5350   29.0370   41.3050 C   0  0  0  0  0  0  0  0  0  0  0  0
   37.1600   29.5080   42.4660 C   0  0  0  0  0  0  0  0  0  0  0  0
   37.8090   28.5430   43.2420 C   0  0  0  0  0  0  0  0  0  0  0  0
   37.7810   27.2310   42.8090 C   0  0  0  0  0  0  0  0  0  0  0  0
   37.1550   26.7880   41.6550 C   0  0  0  0  0  0  0  0  0  0  0  0
   36.5280   27.7390   40.9090 N   0  0  0  0  0  0  0  0  0  0  0  0
   37.0920   30.5450   42.6600 H   0  0  0  0  0  0  0  0  0  0  0  0
   38.2880   28.8790   44.1260 H   0  0  0  0  0  0  0  0  0  0  0  0
   38.2810   26.4660   43.4020 H   0  0  0  0  0  0  0  0  0  0  0  0
   37.1820   25.3790   41.2870 C   0  0  0  0  0  0  0  0  0  0  0  0
   36.7800   24.5250   42.1180 O   0  0  0  0  0  0  0  0  0  0  0  0
   37.5990   24.7480   40.1020 N   0  0  0  0  0  0  0  0  0  0  0  0
   36.7200   23.7160   39.5890 C   0  0  0  0  0  2  0  0  0  0  0  0
   37.4010   22.3770   39.8460 C   0  0  0  0  0  2  0  0  0  0  0  0
   38.8010   22.4260   39.3100 C   0  0  0  0  0  3  0  0  0  0  0  0
   39.5640   22.2310   40.0770 H   0  0  0  0  0  0  0  0  0  0  0  0
   39.1060   23.6790   38.5190 C   0  0  0  0  0  2  0  0  0  0  0  0
   38.7900   24.9400   39.2610 C   0  0  0  0  0  2  0  0  0  0  0  0
  1  7  1  6  0  0  0
  1 19  1  0  0  0  0
  1  6  1  0  0  0  0
  2  9  1  0  0  0  0
  2  1  1  0  0  0  0
  3  2  1  0  0  0  0
  3  4  1  0  0  0  0
  4 13  1  0  0  0  0
  4  5  1  0  0  0  0
  5 15  1  0  0  0  0
  5  6  1  0  0  0  0
  5 14  1  0  0  0  0
  6 16  1  1  0  0  0
  6 26  1  0  0  0  0
  8  2  1  0  0  0  0
 10  3  1  0  0  0  0
 11  3  1  0  0  0  0
 12  4  1  0  0  0  0
 17 23  1  0  0  0  0
 18 24  1  0  0  0  0
 18 17  2  0  0  0  0
 19 18  1  0  0  0  0
 20 19  2  0  0  0  0
 20 21  1  0  0  0  0
 21 22  2  0  0  0  0
 22 17  1  0  0  0  0
 25 21  1  0  0  0  0
 26 27  1  0  0  0  0
 27 32  1  0  0  0  0
 27 28  2  0  0  0  0
 28 33  1  0  0  0  0
 29 28  1  0  0  0  0
 29 34  1  0  0  0  0
 30 29  2  0  0  0  0
 31 26  2  0  0  0  0
 31 30  1  0  0  0  0
 35 30  1  0  0  0  0
 35 36  2  0  0  0  0
 37 35  1  0  0  0  0
 38 39  1  0  0  0  0
 38 37  1  0  0  0  0
 40 39  1  0  0  0  0
 40 41  1  0  0  0  0
 42 43  1  0  0  0  0
 42 40  1  0  0  0  0
 43 37  1  0  0  0  0
M  END
>  <minimizedAffinity>
-6.28917313

$$$$

 OpenBabel03242516553D

 43 46  0  0  1  0  0  0  0  0999 V2000
   40.6210   25.6030   41.7080 C   0  0  1  0  0  0  0  0  0  0  0  0
   41.5060   26.3650   40.8270 C   0  0  0  0  0  0  0  0  0  0  0  0
   42.8940   26.2830   41.4580 C   0  0  0  0  0  0  0  0  0  0  0  0
   42.8430   27.1180   42.7280 C   0  0  0  0  0  0  0  0  0  0  0  0
   41.7520   26.7210   43.6750 C   0  0  0  0  0  0  0  0  0  0  0  0
   40.4900   26.2430   43.0950 C   0  0  1  0  0  0  0  0  0  0  0  0
   41.1250   24.6160   41.9480 H   0  0  0  0  0  0  0  0  0  0  0  0
   41.4970   25.9710   39.8130 H   0  0  0  0  0  0  0  0  0  0  0  0
   41.2860   27.4680   40.7990 H   0  0  0  0  0  0  0  0  0  0  0  0
   43.6680   26.7020   40.8190 H   0  0  0  0  0  0  0  0  0  0  0  0
   43.0830   25.2390   41.7740 H   0  0  0  0  0  0  0  0  0  0  0  0
   43.8100   27.0810   43.2440 H   0  0  0  0  0  0  0  0  0  0  0  0
   42.6970   28.1760   42.3890 H   0  0  0  0  0  0  0  0  0  0  0  0
   41.5310   27.6400   44.2950 H   0  0  0  0  0  0  0  0  0  0  0  0
   42.1890   26.0010   44.4020 H   0  0  0  0  0  0  0  0  0  0  0  0
   40.1000   25.4040   43.7470 H   0  0  0  0  0  0  0  0  0  0  0  0
   37.3240   23.8040   41.2880 C   0  0  0  0  0  0  0  0  0  0  0  0
   38.5990   24.1910   41.7220 C   0  0  0  0  0  0  0  0  0  0  0  0
   39.3040   25.2800   41.2030 C   0  0  0  0  0  0  0  0  0  0  0  0
   38.6810   25.9580   40.2390 N   0  0  0  0  0  0  0  0  0  0  0  0
   37.4450   25.5990   39.8030 C   0  0  0  0  0  0  0  0  0  0  0  0
   36.7770   24.5610   40.3020 N   0  0  0  0  0  0  0  0  0  0  0  0
   36.8900   22.9380   41.7780 H   0  0  0  0  0  0  0  0  0  0  0  0
   39.0850   23.6230   42.5080 H   0  0  0  0  0  0  0  0  0  0  0  0
   36.9880   26.2000   39.0060 H   0  0  0  0  0  0  0  0  0  0  0  0
   39.4310   27.2500   43.1270 C   0  0  0  0  0  0  0  0  0  0  0  0
   38.1510   27.0780   43.6670 C   0  0  0  0  0  0  0  0  0  0  0  0
   37.3060   28.1910   43.5990 C   0  0  0  0  0  0  0  0  0  0  0  0
   37.7940   29.3450   43.0170 C   0  0  0  0  0  0  0  0  0  0  0  0
   39.0670   29.4920   42.4880 C   0  0  0  0  0  0  0  0  0  0  0  0
   39.8760   28.4000   42.5610 N   0  0  0  0  0  0  0  0  0  0  0  0
   37.9280   26.1310   44.0790 H   0  0  0  0  0  0  0  0  0  0  0  0
   36.3330   28.0800   44.0030 H   0  0  0  0  0  0  0  0  0  0  0  0
   37.1500   30.2210   42.9560 H   0  0  0  0  0  0  0  0  0  0  0  0
   39.4850   30.7550   41.8960 C   0  0  0  0  0  0  0  0  0  0  0  0
   40.5190   31.3200   42.3360 O   0  0  0  0  0  0  0  0  0  0  0  0
   38.9170   31.5140   40.8570 N   0  0  0  0  0  0  0  0  0  0  0  0
   39.8420   32.0250   39.8650 C   0  0  0  0  0  2  0  0  0  0  0  0
   39.9700   33.5240   40.0980 C   0  0  0  0  0  2  0  0  0  0  0  0
   38.5990   34.1330   40.1470 C   0  0  0  0  0  3  0  0  0  0  0  0
   38.3930   34.6560   41.0930 H   0  0  0  0  0  0  0  0  0  0  0  0
   37.4920   33.1690   39.7840 C   0  0  0  0  0  2  0  0  0  0  0  0
   37.5260   31.9000   40.5780 C   0  0  0  0  0  2  0  0  0  0  0  0
  1  7  1  1  0  0  0
  1  6  1  0  0  0  0
  2  3  1  0  0  0  0
  2  1  1  0  0  0  0
  3 11  1  0  0  0  0
  3  4  1  0  0  0  0
  4 12  1  0  0  0  0
  4  5  1  0  0  0  0
  5 14  1  0  0  0  0
  5 15  1  0  0  0  0
  6 26  1  0  0  0  0
  6  5  1  0  0  0  0
  6 16  1  1  0  0  0
  8  2  1  0  0  0  0
  9  2  1  0  0  0  0
 10  3  1  0  0  0  0
 13  4  1  0  0  0  0
 17 18  1  0  0  0  0
 17 23  1  0  0  0  0
 18 24  1  0  0  0  0
 19  1  1  0  0  0  0
 19 18  2  0  0  0  0
 20 19  1  0  0  0  0
 21 20  2  0  0  0  0
 21 22  1  0  0  0  0
 22 17  2  0  0  0  0
 25 21  1  0  0  0  0
 26 27  1  0  0  0  0
 27 32  1  0  0  0  0
 28 27  2  0  0  0  0
 28 33  1  0  0  0  0
 29 28  1  0  0  0  0
 30 31  1  0  0  0  0
 30 29  2  0  0  0  0
 31 26  2  0  0  0  0
 34 29  1  0  0  0  0
 35 36  2  0  0  0  0
 35 30  1  0  0  0  0
 37 35  1  0  0  0  0
 38 39  1  0  0  0  0
 38 37  1  0  0  0  0
 39 40  1  0  0  0  0
 40 41  1  0  0  0  0
 42 40  1  0  0  0  0
 42 43  1  0  0  0  0
 43 37  1  0  0  0  0
M  END
>  <minimizedAffinity>
-6.07776499

$$$$

 OpenBabel03242516553D

 43 46  0  0  1  0  0  0  0  0999 V2000
   38.4460   24.7200   41.2260 C   0  0  1  0  0  0  0  0  0  0  0  0
   37.3720   23.7280   41.1920 C   0  0  0  0  0  0  0  0  0  0  0  0
   37.9610   22.4980   40.5060 C   0  0  0  0  0  0  0  0  0  0  0  0
   38.1560   22.8690   39.0440 C   0  0  0  0  0  0  0  0  0  0  0  0
   38.9820   24.1000   38.8320 C   0  0  0  0  0  0  0  0  0  0  0  0
   38.8590   25.1790   39.8220 C   0  0  1  0  0  0  0  0  0  0  0  0
   39.3890   24.2080   41.5940 H   0  0  0  0  0  0  0  0  0  0  0  0
   37.0060   23.5000   42.1910 H   0  0  0  0  0  0  0  0  0  0  0  0
   36.5040   24.0150   40.5360 H   0  0  0  0  0  0  0  0  0  0  0  0
   37.2940   21.6410   40.5420 H   0  0  0  0  0  0  0  0  0  0  0  0
   38.9700   22.3050   40.9200 H   0  0  0  0  0  0  0  0  0  0  0  0
   38.6010   22.0280   38.4970 H   0  0  0  0  0  0  0  0  0  0  0  0
   37.1260   23.0160   38.6280 H   0  0  0  0  0  0  0  0  0  0  0  0
   38.6760   24.5090   37.8240 H   0  0  0  0  0  0  0  0  0  0  0  0
   40.0350   23.7730   38.6850 H   0  0  0  0  0  0  0  0  0  0  0  0
   39.8830   25.6350   39.9740 H   0  0  0  0  0  0  0  0  0  0  0  0
   36.6810   27.3750   43.2550 C   0  0  0  0  0  0  0  0  0  0  0  0
   36.9620   26.2660   42.4470 C   0  0  0  0  0  0  0  0  0  0  0  0
   38.2510   25.8780   42.0700 C   0  0  0  0  0  0  0  0  0  0  0  0
   39.2370   26.6460   42.5350 N   0  0  0  0  0  0  0  0  0  0  0  0
   38.9860   27.7260   43.3200 C   0  0  0  0  0  0  0  0  0  0  0  0
   37.7560   28.0900   43.6760 N   0  0  0  0  0  0  0  0  0  0  0  0
   35.6340   27.5620   43.4710 H   0  0  0  0  0  0  0  0  0  0  0  0
   36.1410   25.6570   42.0810 H   0  0  0  0  0  0  0  0  0  0  0  0
   39.8440   28.3160   43.6690 H   0  0  0  0  0  0  0  0  0  0  0  0
   38.0320   26.2900   39.3540 C   0  0  0  0  0  0  0  0  0  0  0  0
   36.7420   26.1840   38.8170 C   0  0  0  0  0  0  0  0  0  0  0  0
   36.1350   27.3880   38.4500 C   0  0  0  0  0  0  0  0  0  0  0  0
   36.8410   28.5600   38.6430 C   0  0  0  0  0  0  0  0  0  0  0  0
   38.1180   28.6410   39.1760 C   0  0  0  0  0  0  0  0  0  0  0  0
   38.6960   27.4600   39.5280 N   0  0  0  0  0  0  0  0  0  0  0  0
   36.3370   25.2110   38.7340 H   0  0  0  0  0  0  0  0  0  0  0  0
   35.1580   27.3290   38.0420 H   0  0  0  0  0  0  0  0  0  0  0  0
   36.3820   29.5080   38.3620 H   0  0  0  0  0  0  0  0  0  0  0  0
   38.7760   29.9290   39.3400 C   0  0  0  0  0  0  0  0  0  0  0  0
   39.9510   29.9600   39.7850 O   0  0  0  0  0  0  0  0  0  0  0  0
   38.3190   31.2330   39.0770 N   0  0  0  0  0  0  0  0  0  0  0  0
   39.2470   32.1040   38.3830 C   0  0  0  0  0  2  0  0  0  0  0  0
   39.7560   33.1190   39.3980 C   0  0  0  0  0  2  0  0  0  0  0  0
   38.5860   33.7580   40.0850 C   0  0  0  0  0  3  0  0  0  0  0  0
   38.5990   33.6240   41.1760 H   0  0  0  0  0  0  0  0  0  0  0  0
   37.2490   33.3800   39.4870 C   0  0  0  0  0  2  0  0  0  0  0  0
   37.0440   31.9000   39.3810 C   0  0  0  0  0  2  0  0  0  0  0  0
  1  7  1  1  0  0  0
  1 19  1  0  0  0  0
  2  1  1  0  0  0  0
  2  8  1  0  0  0  0
  3 10  1  0  0  0  0
  3 11  1  0  0  0  0
  3  2  1  0  0  0  0
  4  3  1  0  0  0  0
  5  4  1  0  0  0  0
  5  6  1  0  0  0  0
  6 16  1  1  0  0  0
  6  1  1  0  0  0  0
  9  2  1  0  0  0  0
 12  4  1  0  0  0  0
 13  4  1  0  0  0  0
 14  5  1  0  0  0  0
 15  5  1  0  0  0  0
 17 23  1  0  0  0  0
 17 22  1  0  0  0  0
 18 17  2  0  0  0  0
 19 18  1  0  0  0  0
 19 20  2  0  0  0  0
 20 21  1  0  0  0  0
 21 25  1  0  0  0  0
 21 22  2  0  0  0  0
 24 18  1  0  0  0  0
 26 31  1  0  0  0  0
 26  6  1  0  0  0  0
 27 26  2  0  0  0  0
 28 29  2  0  0  0  0
 28 27  1  0  0  0  0
 29 30  1  0  0  0  0
 30 35  1  0  0  0  0
 30 31  2  0  0  0  0
 32 27  1  0  0  0  0
 33 28  1  0  0  0  0
 34 29  1  0  0  0  0
 35 36  2  0  0  0  0
 37 35  1  0  0  0  0
 37 43  1  0  0  0  0
 38 37  1  0  0  0  0
 38 39  1  0  0  0  0
 39 40  1  0  0  0  0
 40 41  1  0  0  0  0
 42 40  1  0  0  0  0
 43 42  1  0  0  0  0
M  END
>  <minimizedAffinity>
-6.03437614

$$$$

 OpenBabel03242516553D

 43 46  0  0  1  0  0  0  0  0999 V2000
   36.6640   28.5640   39.4450 C   0  0  1  0  0  0  0  0  0  0  0  0
   35.2470   28.7980   39.7180 C   0  0  0  0  0  0  0  0  0  0  0  0
   34.4980   28.3190   38.4760 C   0  0  0  0  0  0  0  0  0  0  0  0
   34.8190   29.3110   37.3680 C   0  0  0  0  0  0  0  0  0  0  0  0
   36.2850   29.4980   37.1240 C   0  0  0  0  0  0  0  0  0  0  0  0
   37.1820   29.4240   38.2850 C   0  0  1  0  0  0  0  0  0  0  0  0
   36.7770   27.5150   39.0300 H   0  0  0  0  0  0  0  0  0  0  0  0
   34.9210   28.2750   40.6150 H   0  0  0  0  0  0  0  0  0  0  0  0
   34.9690   29.8840   39.8010 H   0  0  0  0  0  0  0  0  0  0  0  0
   33.4190   28.3180   38.6140 H   0  0  0  0  0  0  0  0  0  0  0  0
   34.9160   27.3450   38.1590 H   0  0  0  0  0  0  0  0  0  0  0  0
   34.3260   29.0090   36.4360 H   0  0  0  0  0  0  0  0  0  0  0  0
   34.3510   30.2790   37.6830 H   0  0  0  0  0  0  0  0  0  0  0  0
   36.3930   30.5220   36.6580 H   0  0  0  0  0  0  0  0  0  0  0  0
   36.5790   28.7970   36.3120 H   0  0  0  0  0  0  0  0  0  0  0  0
   38.1330   28.9030   37.9620 H   0  0  0  0  0  0  0  0  0  0  0  0
   37.9390   29.2400   42.9380 C   0  0  0  0  0  0  0  0  0  0  0  0
   37.1230   29.1060   41.8070 C   0  0  0  0  0  0  0  0  0  0  0  0
   37.5790   28.6660   40.5620 C   0  0  0  0  0  0  0  0  0  0  0  0
   38.8760   28.3690   40.5000 N   0  0  0  0  0  0  0  0  0  0  0  0
   39.6850   28.4910   41.5850 C   0  0  0  0  0  0  0  0  0  0  0  0
   39.2460   28.9110   42.7700 N   0  0  0  0  0  0  0  0  0  0  0  0
   37.4550   29.5920   43.8430 H   0  0  0  0  0  0  0  0  0  0  0  0
   36.0690   29.3550   41.8830 H   0  0  0  0  0  0  0  0  0  0  0  0
   40.7450   28.2300   41.4660 H   0  0  0  0  0  0  0  0  0  0  0  0
   37.6260   30.7390   38.7460 C   0  0  0  0  0  0  0  0  0  0  0  0
   36.8790   31.6300   39.5260 C   0  0  0  0  0  0  0  0  0  0  0  0
   37.5180   32.8280   39.8620 C   0  0  0  0  0  0  0  0  0  0  0  0
   38.8060   33.0310   39.4050 C   0  0  0  0  0  0  0  0  0  0  0  0
   39.5260   32.1330   38.6330 C   0  0  0  0  0  0  0  0  0  0  0  0
   38.8910   30.9720   38.3140 N   0  0  0  0  0  0  0  0  0  0  0  0
   35.9030   31.3290   39.7970 H   0  0  0  0  0  0  0  0  0  0  0  0
   36.9690   33.5160   40.4520 H   0  0  0  0  0  0  0  0  0  0  0  0
   39.3180   33.9580   39.6570 H   0  0  0  0  0  0  0  0  0  0  0  0
   40.8830   32.4410   38.2030 C   0  0  0  0  0  0  0  0  0  0  0  0
   41.3580   31.8390   37.2070 O   0  0  0  0  0  0  0  0  0  0  0  0
   41.8270   33.3440   38.7240 N   0  0  0  0  0  0  0  0  0  0  0  0
   42.5270   34.1610   37.7520 C   0  0  0  0  0  2  0  0  0  0  0  0
   43.9530   33.6330   37.6650 C   0  0  0  0  0  2  0  0  0  0  0  0
   44.5320   33.5490   39.0460 C   0  0  0  0  0  3  0  0  0  0  0  0
   44.8590   32.5340   39.3170 H   0  0  0  0  0  0  0  0  0  0  0  0
   43.6510   34.1590   40.1140 C   0  0  0  0  0  2  0  0  0  0  0  0
   42.2510   33.6260   40.1030 C   0  0  0  0  0  2  0  0  0  0  0  0
  1  7  1  6  0  0  0
  1  2  1  0  0  0  0
  1 19  1  0  0  0  0
  2  9  1  0  0  0  0
  2  8  1  0  0  0  0
  3 10  1  0  0  0  0
  3  2  1  0  0  0  0
  4 13  1  0  0  0  0
  4  3  1  0  0  0  0
  5  4  1  0  0  0  0
  5  6  1  0  0  0  0
  6 16  1  6  0  0  0
  6 26  1  0  0  0  0
  6  1  1  0  0  0  0
 11  3  1  0  0  0  0
 12  4  1  0  0  0  0
 14  5  1  0  0  0  0
 15  5  1  0  0  0  0
 17 23  1  0  0  0  0
 18 24  1  0  0  0  0
 18 17  2  0  0  0  0
 19 18  1  0  0  0  0
 20 19  2  0  0  0  0
 20 21  1  0  0  0  0
 21 22  2  0  0  0  0
 22 17  1  0  0  0  0
 25 21  1  0  0  0  0
 26 27  1  0  0  0  0
 27 32  1  0  0  0  0
 27 28  2  0  0  0  0
 28 33  1  0  0  0  0
 29 34  1  0  0  0  0
 29 28  1  0  0  0  0
 30 29  2  0  0  0  0
 31 30  1  0  0  0  0
 31 26  2  0  0  0  0
 35 30  1  0  0  0  0
 35 37  1  0  0  0  0
 36 35  2  0  0  0  0
 37 43  1  0  0  0  0
 38 37  1  0  0  0  0
 39 38  1  0  0  0  0
 39 40  1  0  0  0  0
 40 41  1  0  0  0  0
 40 42  1  0  0  0  0
 43 42  1  0  0  0  0
M  END
>  <minimizedAffinity>
-5.92288589

$$$$

 OpenBabel03242516553D

 43 46  0  0  1  0  0  0  0  0999 V2000
   37.0520   27.4130   40.8430 C   0  0  1  0  0  0  0  0  0  0  0  0
   38.3980   26.9170   41.1270 C   0  0  0  0  0  0  0  0  0  0  0  0
   38.3150   26.2440   42.4960 C   0  0  0  0  0  0  0  0  0  0  0  0
   38.1190   27.3570   43.5140 C   0  0  0  0  0  0  0  0  0  0  0  0
   36.9430   28.2410   43.2320 C   0  0  0  0  0  0  0  0  0  0  0  0
   36.6170   28.5080   41.8240 C   0  0  1  0  0  0  0  0  0  0  0  0
   36.3140   26.5830   41.0730 H   0  0  0  0  0  0  0  0  0  0  0  0
   38.7420   26.2290   40.3570 H   0  0  0  0  0  0  0  0  0  0  0  0
   39.1640   27.7280   41.2700 H   0  0  0  0  0  0  0  0  0  0  0  0
   39.2290   25.7160   42.7570 H   0  0  0  0  0  0  0  0  0  0  0  0
   37.4030   25.6180   42.5320 H   0  0  0  0  0  0  0  0  0  0  0  0
   38.0280   26.9340   44.5220 H   0  0  0  0  0  0  0  0  0  0  0  0
   39.0660   27.9540   43.4970 H   0  0  0  0  0  0  0  0  0  0  0  0
   37.1680   29.2260   43.7360 H   0  0  0  0  0  0  0  0  0  0  0  0
   36.0770   27.8360   43.8010 H   0  0  0  0  0  0  0  0  0  0  0  0
   35.4900   28.5340   41.7230 H   0  0  0  0  0  0  0  0  0  0  0  0
   37.6530   28.6410   37.3200 C   0  0  0  0  0  0  0  0  0  0  0  0
   37.8270   28.2060   38.6400 C   0  0  0  0  0  0  0  0  0  0  0  0
   36.7780   27.8450   39.4900 C   0  0  0  0  0  0  0  0  0  0  0  0
   35.5580   27.9400   38.9630 N   0  0  0  0  0  0  0  0  0  0  0  0
   35.3660   28.3600   37.6850 C   0  0  0  0  0  0  0  0  0  0  0  0
   36.3700   28.7020   36.8790 N   0  0  0  0  0  0  0  0  0  0  0  0
   38.5560   28.8900   36.7710 H   0  0  0  0  0  0  0  0  0  0  0  0
   38.8320   28.1380   39.0460 H   0  0  0  0  0  0  0  0  0  0  0  0
   34.3340   28.4150   37.3130 H   0  0  0  0  0  0  0  0  0  0  0  0
   37.0520   29.8320   41.3810 C   0  0  0  0  0  0  0  0  0  0  0  0
   36.2710   30.7600   40.6790 C   0  0  0  0  0  0  0  0  0  0  0  0
   36.8950   31.9730   40.3740 C   0  0  0  0  0  0  0  0  0  0  0  0
   38.2030   32.1540   40.7800 C   0  0  0  0  0  0  0  0  0  0  0  0
   38.9570   31.2200   41.4740 C   0  0  0  0  0  0  0  0  0  0  0  0
   38.3360   30.0440   41.7640 N   0  0  0  0  0  0  0  0  0  0  0  0
   35.2830   30.4710   40.4400 H   0  0  0  0  0  0  0  0  0  0  0  0
   36.3200   32.6890   39.8430 H   0  0  0  0  0  0  0  0  0  0  0  0
   38.7040   33.0930   40.5500 H   0  0  0  0  0  0  0  0  0  0  0  0
   40.3310   31.5110   41.8590 C   0  0  0  0  0  0  0  0  0  0  0  0
   40.7620   31.0710   42.9550 O   0  0  0  0  0  0  0  0  0  0  0  0
   41.3360   32.2370   41.1950 N   0  0  0  0  0  0  0  0  0  0  0  0
   42.6500   31.6260   41.1700 C   0  0  0  0  0  2  0  0  0  0  0  0
   43.5310   32.4170   42.1280 C   0  0  0  0  0  2  0  0  0  0  0  0
   43.4380   33.8750   41.7920 C   0  0  0  0  0  3  0  0  0  0  0  0
   43.0830   34.4910   42.6320 H   0  0  0  0  0  0  0  0  0  0  0  0
   42.6670   34.1590   40.5220 C   0  0  0  0  0  2  0  0  0  0  0  0
   41.3070   33.5340   40.5020 C   0  0  0  0  0  2  0  0  0  0  0  0
  1  7  1  1  0  0  0
  1  2  1  0  0  0  0
  1  6  1  0  0  0  0
  2  9  1  0  0  0  0
  2  3  1  0  0  0  0
  3 11  1  0  0  0  0
  3 10  1  0  0  0  0
  3  4  1  0  0  0  0
  4 12  1  0  0  0  0
  5  4  1  0  0  0  0
  5 14  1  0  0  0  0
  5 15  1  0  0  0  0
  6 16  1  6  0  0  0
  6  5  1  0  0  0  0
  8  2  1  0  0  0  0
 13  4  1  0  0  0  0
 17 18  1  0  0  0  0
 18 24  1  0  0  0  0
 18 19  2  0  0  0  0
 19  1  1  0  0  0  0
 20 19  1  0  0  0  0
 21 20  2  0  0  0  0
 22 17  2  0  0  0  0
 22 21  1  0  0  0  0
 23 17  1  0  0  0  0
 25 21  1  0  0  0  0
 26 31  1  0  0  0  0
 26  6  1  0  0  0  0
 27 26  2  0  0  0  0
 28 27  1  0  0  0  0
 28 29  2  0  0  0  0
 29 30  1  0  0  0  0
 30 31  2  0  0  0  0
 30 35  1  0  0  0  0
 32 27  1  0  0  0  0
 33 28  1  0  0  0  0
 34 29  1  0  0  0  0
 35 36  2  0  0  0  0
 37 35  1  0  0  0  0
 38 37  1  0  0  0  0
 38 39  1  0  0  0  0
 40 39  1  0  0  0  0
 40 41  1  0  0  0  0
 42 40  1  0  0  0  0
 43 42  1  0  0  0  0
 43 37  1  0  0  0  0
M  END
>  <minimizedAffinity>
-5.89405584

$$$$

 OpenBabel03242516553D

 43 46  0  0  1  0  0  0  0  0999 V2000
   37.9310   26.2650   41.2280 C   0  0  1  0  0  0  0  0  0  0  0  0
   39.3480   26.5690   41.4250 C   0  0  0  0  0  0  0  0  0  0  0  0
   39.6290   26.3090   42.9040 C   0  0  0  0  0  0  0  0  0  0  0  0
   38.9150   27.4050   43.6800 C   0  0  0  0  0  0  0  0  0  0  0  0
   37.4500   27.5090   43.3790 C   0  0  0  0  0  0  0  0  0  0  0  0
   37.0180   27.2220   42.0040 C   0  0  1  0  0  0  0  0  0  0  0  0
   37.7090   25.2710   41.7270 H   0  0  0  0  0  0  0  0  0  0  0  0
   39.9800   25.9640   40.7790 H   0  0  0  0  0  0  0  0  0  0  0  0
   39.6070   27.6550   41.2870 H   0  0  0  0  0  0  0  0  0  0  0  0
   40.6870   26.3720   43.1440 H   0  0  0  0  0  0  0  0  0  0  0  0
   39.1530   25.3530   43.1960 H   0  0  0  0  0  0  0  0  0  0  0  0
   39.0590   27.2600   44.7570 H   0  0  0  0  0  0  0  0  0  0  0  0
   39.4360   28.3580   43.4080 H   0  0  0  0  0  0  0  0  0  0  0  0
   37.1590   28.5720   43.6270 H   0  0  0  0  0  0  0  0  0  0  0  0
   36.9110   26.8960   44.1330 H   0  0  0  0  0  0  0  0  0  0  0  0
   36.0280   26.6750   42.0540 H   0  0  0  0  0  0  0  0  0  0  0  0
   35.8460   25.1800   38.2690 C   0  0  0  0  0  0  0  0  0  0  0  0
   36.3620   25.3480   39.5600 C   0  0  0  0  0  0  0  0  0  0  0  0
   37.4610   26.1560   39.8640 C   0  0  0  0  0  0  0  0  0  0  0  0
   38.0160   26.7810   38.8260 N   0  0  0  0  0  0  0  0  0  0  0  0
   37.5310   26.6310   37.5650 C   0  0  0  0  0  0  0  0  0  0  0  0
   36.4820   25.8610   37.2810 N   0  0  0  0  0  0  0  0  0  0  0  0
   34.9870   24.5230   38.1750 H   0  0  0  0  0  0  0  0  0  0  0  0
   35.8930   24.8270   40.3890 H   0  0  0  0  0  0  0  0  0  0  0  0
   38.0340   27.1750   36.7540 H   0  0  0  0  0  0  0  0  0  0  0  0
   36.7270   28.4310   41.2350 C   0  0  0  0  0  0  0  0  0  0  0  0
   35.5000   28.7480   40.6380 C   0  0  0  0  0  0  0  0  0  0  0  0
   35.4490   29.9720   39.9640 C   0  0  0  0  0  0  0  0  0  0  0  0
   36.5890   30.7520   39.9420 C   0  0  0  0  0  0  0  0  0  0  0  0
   37.7930   30.4180   40.5400 C   0  0  0  0  0  0  0  0  0  0  0  0
   37.8270   29.2230   41.1930 N   0  0  0  0  0  0  0  0  0  0  0  0
   34.7190   28.0440   40.7440 H   0  0  0  0  0  0  0  0  0  0  0  0
   34.5290   30.2300   39.5050 H   0  0  0  0  0  0  0  0  0  0  0  0
   36.5670   31.7090   39.4210 H   0  0  0  0  0  0  0  0  0  0  0  0
   38.9390   31.3140   40.4610 C   0  0  0  0  0  0  0  0  0  0  0  0
   39.1740   32.0880   41.4230 O   0  0  0  0  0  0  0  0  0  0  0  0
   39.8960   31.4910   39.4460 N   0  0  0  0  0  0  0  0  0  0  0  0
   41.2760   31.5730   39.8830 C   0  0  0  0  0  2  0  0  0  0  0  0
   41.7090   33.0260   39.7330 C   0  0  0  0  0  2  0  0  0  0  0  0
   41.3910   33.4930   38.3430 C   0  0  0  0  0  3  0  0  0  0  0  0
   40.7200   34.3650   38.3230 H   0  0  0  0  0  0  0  0  0  0  0  0
   40.9100   32.3920   37.4260 C   0  0  0  0  0  2  0  0  0  0  0  0
   39.7610   31.6120   37.9870 C   0  0  0  0  0  2  0  0  0  0  0  0
  1  2  1  0  0  0  0
  1  7  1  1  0  0  0
  1  6  1  0  0  0  0
  2  3  1  0  0  0  0
  3 10  1  0  0  0  0
  3 11  1  0  0  0  0
  3  4  1  0  0  0  0
  4 12  1  0  0  0  0
  5 14  1  0  0  0  0
  5  4  1  0  0  0  0
  5 15  1  0  0  0  0
  6 16  1  1  0  0  0
  6  5  1  0  0  0  0
  8  2  1  0  0  0  0
  9  2  1  0  0  0  0
 13  4  1  0  0  0  0
 17 18  1  0  0  0  0
 18 19  2  0  0  0  0
 18 24  1  0  0  0  0
 19  1  1  0  0  0  0
 20 19  1  0  0  0  0
 21 20  2  0  0  0  0
 22 21  1  0  0  0  0
 22 17  2  0  0  0  0
 23 17  1  0  0  0  0
 25 21  1  0  0  0  0
 26  6  1  0  0  0  0
 27 32  1  0  0  0  0
 27 26  2  0  0  0  0
 28 27  1  0  0  0  0
 29 28  2  0  0  0  0
 29 30  1  0  0  0  0
 30 31  2  0  0  0  0
 31 26  1  0  0  0  0
 33 28  1  0  0  0  0
 34 29  1  0  0  0  0
 35 30  1  0  0  0  0
 35 36  2  0  0  0  0
 37 38  1  0  0  0  0
 37 35  1  0  0  0  0
 39 38  1  0  0  0  0
 40 39  1  0  0  0  0
 41 40  1  0  0  0  0
 42 43  1  0  0  0  0
 42 40  1  0  0  0  0
 43 37  1  0  0  0  0
M  END
>  <minimizedAffinity>
-5.86143398

$$$$

 OpenBabel03242516553D

 43 46  0  0  1  0  0  0  0  0999 V2000
   37.8790   31.2830   39.4960 C   0  0  1  0  0  0  0  0  0  0  0  0
   37.6120   32.5120   40.2430 C   0  0  0  0  0  0  0  0  0  0  0  0
   38.8000   33.4330   39.9710 C   0  0  0  0  0  0  0  0  0  0  0  0
   39.9930   32.8240   40.6920 C   0  0  0  0  0  0  0  0  0  0  0  0
   40.2680   31.3990   40.3200 C   0  0  0  0  0  0  0  0  0  0  0  0
   39.1140   30.5410   40.0200 C   0  0  1  0  0  0  0  0  0  0  0  0
   38.2020   31.5700   38.4480 H   0  0  0  0  0  0  0  0  0  0  0  0
   36.6700   32.9660   39.9440 H   0  0  0  0  0  0  0  0  0  0  0  0
   37.6210   32.3800   41.3600 H   0  0  0  0  0  0  0  0  0  0  0  0
   38.6510   34.4340   40.3670 H   0  0  0  0  0  0  0  0  0  0  0  0
   39.0350   33.4030   38.8900 H   0  0  0  0  0  0  0  0  0  0  0  0
   40.8900   33.4300   40.5150 H   0  0  0  0  0  0  0  0  0  0  0  0
   39.7590   32.9020   41.7850 H   0  0  0  0  0  0  0  0  0  0  0  0
   40.8230   30.9520   41.1970 H   0  0  0  0  0  0  0  0  0  0  0  0
   41.0190   31.4080   39.5000 H   0  0  0  0  0  0  0  0  0  0  0  0
   39.4000   29.8520   39.1690 H   0  0  0  0  0  0  0  0  0  0  0  0
   35.6550   28.6330   37.9730 C   0  0  0  0  0  0  0  0  0  0  0  0
   36.6830   29.5580   38.2010 C   0  0  0  0  0  0  0  0  0  0  0  0
   36.7850   30.3480   39.3490 C   0  0  0  0  0  0  0  0  0  0  0  0
   35.8190   30.1720   40.2510 N   0  0  0  0  0  0  0  0  0  0  0  0
   34.8130   29.2810   40.0500 C   0  0  0  0  0  0  0  0  0  0  0  0
   34.7220   28.5300   38.9540 N   0  0  0  0  0  0  0  0  0  0  0  0
   35.6980   28.0850   37.0370 H   0  0  0  0  0  0  0  0  0  0  0  0
   37.4570   29.6830   37.4500 H   0  0  0  0  0  0  0  0  0  0  0  0
   34.0490   29.1850   40.8330 H   0  0  0  0  0  0  0  0  0  0  0  0
   38.7750   29.6380   41.1190 C   0  0  0  0  0  0  0  0  0  0  0  0
   38.4150   30.0250   42.4170 C   0  0  0  0  0  0  0  0  0  0  0  0
   38.1160   28.9840   43.3010 C   0  0  0  0  0  0  0  0  0  0  0  0
   38.1980   27.6860   42.8320 C   0  0  0  0  0  0  0  0  0  0  0  0
   38.5560   27.3280   41.5420 C   0  0  0  0  0  0  0  0  0  0  0  0
   38.8450   28.3530   40.6940 N   0  0  0  0  0  0  0  0  0  0  0  0
   38.3990   31.0620   42.6210 H   0  0  0  0  0  0  0  0  0  0  0  0
   37.8410   29.2550   44.2880 H   0  0  0  0  0  0  0  0  0  0  0  0
   37.9680   26.8630   43.5080 H   0  0  0  0  0  0  0  0  0  0  0  0
   38.6100   25.9270   41.1470 C   0  0  0  0  0  0  0  0  0  0  0  0
   39.7200   25.3350   41.1540 O   0  0  0  0  0  0  0  0  0  0  0  0
   37.5920   25.0520   40.7300 N   0  0  0  0  0  0  0  0  0  0  0  0
   37.6110   23.7290   41.3230 C   0  0  0  0  0  2  0  0  0  0  0  0
   38.0760   22.7600   40.2440 C   0  0  0  0  0  2  0  0  0  0  0  0
   37.2430   22.9570   39.0120 C   0  0  0  0  0  3  0  0  0  0  0  0
   37.8380   23.2200   38.1250 H   0  0  0  0  0  0  0  0  0  0  0  0
   36.0790   23.9030   39.2100 C   0  0  0  0  0  2  0  0  0  0  0  0
   36.4820   25.2260   39.7820 C   0  0  0  0  0  2  0  0  0  0  0  0
  1  7  1  6  0  0  0
  1  6  1  0  0  0  0
  1  2  1  0  0  0  0
  2  9  1  0  0  0  0
  3  2  1  0  0  0  0
  3 10  1  0  0  0  0
  3  4  1  0  0  0  0
  4 13  1  0  0  0  0
  5  4  1  0  0  0  0
  5 14  1  0  0  0  0
  6 16  1  6  0  0  0
  6  5  1  0  0  0  0
  6 26  1  0  0  0  0
  8  2  1  0  0  0  0
 11  3  1  0  0  0  0
 12  4  1  0  0  0  0
 15  5  1  0  0  0  0
 17 18  2  0  0  0  0
 17 22  1  0  0  0  0
 18 19  1  0  0  0  0
 19  1  1  0  0  0  0
 19 20  2  0  0  0  0
 21 20  1  0  0  0  0
 21 25  1  0  0  0  0
 22 21  2  0  0  0  0
 23 17  1  0  0  0  0
 24 18  1  0  0  0  0
 26 27  1  0  0  0  0
 27 32  1  0  0  0  0
 27 28  2  0  0  0  0
 28 33  1  0  0  0  0
 29 28  1  0  0  0  0
 29 34  1  0  0  0  0
 30 29  2  0  0  0  0
 31 26  2  0  0  0  0
 31 30  1  0  0  0  0
 35 36  2  0  0  0  0
 35 30  1  0  0  0  0
 37 35  1  0  0  0  0
 37 38  1  0  0  0  0
 39 38  1  0  0  0  0
 40 42  1  0  0  0  0
 40 39  1  0  0  0  0
 41 40  1  0  0  0  0
 42 43  1  0  0  0  0
 43 37  1  0  0  0  0
M  END
>  <minimizedAffinity>
-5.84350967

$$$$
