
 OpenBabel03242522503D

 24 25  0  0  0  0  0  0  0  0999 V2000
   45.1120   30.7770   47.5040 O   0  0  0  0  0  0  0  0  0  0  0  0
   45.7790   31.9810   48.1940 P   0  0  2  0  0  0  0  0  0  0  0  0
   45.3330   31.8750   49.8180 O   0  0  0  0  0  0  0  0  0  0  0  0
   45.5330   32.7420   50.2240 H   0  0  0  0  0  0  0  0  0  0  0  0
   45.1440   33.3960   47.5170 O   0  0  0  0  0  0  0  0  0  0  0  0
   46.8380   33.4190   44.2990 C   0  0  0  0  0  0  0  0  0  0  0  0
   46.4770   33.0720   45.6150 C   0  0  0  0  0  0  0  0  0  0  0  0
   45.4640   33.7680   46.2290 C   0  0  0  0  0  0  0  0  0  0  0  0
   44.8460   34.7710   45.5380 N   0  0  0  0  0  0  0  0  0  0  0  0
   45.2090   35.0860   44.2790 C   0  0  0  0  0  0  0  0  0  0  0  0
   46.1980   34.4180   43.6600 N   0  0  0  0  0  0  0  0  0  0  0  0
   47.6220   32.9290   43.7370 H   0  0  0  0  0  0  0  0  0  0  0  0
   47.0670   32.2720   45.9780 H   0  0  0  0  0  0  0  0  0  0  0  0
   44.6280   35.9080   43.8540 H   0  0  0  0  0  0  0  0  0  0  0  0
   47.4180   31.9270   47.9930 O   0  0  0  0  0  0  0  0  0  0  0  0
   48.3480   31.0860   48.4990 C   0  0  0  0  0  0  0  0  0  0  0  0
   48.1270   30.7200   49.7050 O   0  0  0  0  0  0  0  0  0  0  0  0
   49.5370   30.3090   48.4500 N   0  0  0  0  0  0  0  0  0  0  0  0
   50.5650   30.9870   49.2090 C   0  0  0  0  0  2  0  0  0  0  0  0
   51.8330   30.1970   49.2010 C   0  0  0  0  0  2  0  0  0  0  0  0
   52.2430   29.6830   47.8540 C   0  0  0  0  0  3  0  0  0  0  0  0
   52.8600   30.4670   47.3610 H   0  0  0  0  0  0  0  0  0  0  0  0
   51.1190   29.2130   46.9910 C   0  0  0  0  0  2  0  0  0  0  0  0
   49.8290   29.0520   47.8050 C   0  0  0  0  0  2  0  0  0  0  0  0
  2  1  2  6  0  0  0
  2  3  1  0  0  0  0
  3  4  1  0  0  0  0
  5  2  1  0  0  0  0
  6  7  1  0  0  0  0
  7 13  1  0  0  0  0
  7  8  2  0  0  0  0
  8  5  1  0  0  0  0
  9  8  1  0  0  0  0
 10  9  2  0  0  0  0
 11 10  1  0  0  0  0
 11  6  2  0  0  0  0
 12  6  1  0  0  0  0
 14 10  1  0  0  0  0
 15  2  1  0  0  0  0
 15 16  1  0  0  0  0
 16 17  2  0  0  0  0
 18 16  1  0  0  0  0
 18 19  1  0  0  0  0
 20 19  1  0  0  0  0
 21 20  1  0  0  0  0
 22 21  1  0  0  0  0
 23 24  1  0  0  0  0
 23 21  1  0  0  0  0
 24 18  1  0  0  0  0
M  END
>  <minimizedAffinity>
-4.76643133

>  <minimizedRMSD>
1.17812526

$$$$
