
 OpenBabel03242521193D

 36 38  0  0  0  0  0  0  0  0999 V2000
   37.8540   31.1130   37.6480 C   0  0  0  0  0  0  0  0  0  0  0  0
   38.9500   31.8600   38.1450 C   0  0  0  0  0  0  0  0  0  0  0  0
   38.9520   32.1570   39.4970 C   0  0  0  0  0  0  0  0  0  0  0  0
   37.9020   31.7170   40.2790 N   0  0  0  0  0  0  0  0  0  0  0  0
   36.8890   31.0150   39.7640 C   0  0  0  0  0  0  0  0  0  0  0  0
   36.8470   30.7010   38.4430 N   0  0  0  0  0  0  0  0  0  0  0  0
   37.7980   30.8510   36.5990 H   0  0  0  0  0  0  0  0  0  0  0  0
   39.7460   32.1810   37.4890 H   0  0  0  0  0  0  0  0  0  0  0  0
   40.0400   32.9040   40.0160 N   0  0  0  0  0  0  0  0  0  0  0  0
   41.2350   32.2950   40.1460 C   0  0  0  0  0  0  0  0  0  0  0  0
   42.3000   33.0320   40.6570 C   0  0  0  0  0  0  0  0  0  0  0  0
   42.0870   34.3450   41.0040 C   0  0  0  0  0  0  0  0  0  0  0  0
   43.0840   34.9890   41.4660 O   0  0  0  0  0  0  0  0  0  0  0  0
   40.8990   34.9610   40.8770 N   0  0  0  0  0  0  0  0  0  0  0  0
   39.9110   34.1900   40.3770 C   0  0  0  0  0  0  0  0  0  0  0  0
   38.7590   34.6790   40.2210 O   0  0  0  0  0  0  0  0  0  0  0  0
   41.3650   31.2620   39.8640 H   0  0  0  0  0  0  0  0  0  0  0  0
   43.2650   32.5820   40.7750 H   0  0  0  0  0  0  0  0  0  0  0  0
   40.7570   35.9520   41.1440 H   0  0  0  0  0  0  0  0  0  0  0  0
   35.8950   30.6700   40.8250 C   0  0  0  0  0  0  0  0  0  0  0  0
   34.9350   31.1420   40.4800 H   0  0  0  0  0  0  0  0  0  0  0  0
   36.2110   31.0330   41.8190 H   0  0  0  0  0  0  0  0  0  0  0  0
   35.6380   29.1820   40.8470 C   0  0  0  0  0  0  0  0  0  0  0  0
   35.9010   28.7240   39.8530 H   0  0  0  0  0  0  0  0  0  0  0  0
   34.5970   28.9030   41.0600 H   0  0  0  0  0  0  0  0  0  0  0  0
   37.0290   27.2800   41.5480 C   0  0  0  0  0  0  0  0  0  0  0  0
   36.7090   26.7690   40.4610 O   0  0  0  0  0  0  0  0  0  0  0  0
   36.5300   28.5760   41.8150 N   0  0  0  0  0  0  0  0  0  0  0  0
   36.8270   29.0450   42.7030 H   0  0  0  0  0  0  0  0  0  0  0  0
   37.8510   26.5280   42.4090 N   0  0  0  0  0  0  0  0  0  0  0  0
   38.4630   27.2520   43.4760 C   0  0  0  0  0  2  0  0  0  0  0  0
   39.6840   26.5240   43.9820 C   0  0  0  0  0  2  0  0  0  0  0  0
   40.4200   25.9730   42.7780 C   0  0  0  0  0  3  0  0  0  0  0  0
   40.4980   26.7710   42.0020 H   0  0  0  0  0  0  0  0  0  0  0  0
   39.6040   24.8260   42.2210 C   0  0  0  0  0  2  0  0  0  0  0  0
   38.1190   25.1090   42.3000 C   0  0  0  0  0  2  0  0  0  0  0  0
  1  2  2  0  0  0  0
  1  6  1  0  0  0  0
  2  3  1  0  0  0  0
  3  9  1  0  0  0  0
  3  4  2  0  0  0  0
  5  4  1  0  0  0  0
  5 20  1  0  0  0  0
  6  5  2  0  0  0  0
  7  1  1  0  0  0  0
  8  2  1  0  0  0  0
  9 10  1  0  0  0  0
  9 15  1  0  0  0  0
 10 11  2  0  0  0  0
 11 18  1  0  0  0  0
 11 12  1  0  0  0  0
 12 13  2  0  0  0  0
 14 12  1  0  0  0  0
 14 19  1  0  0  0  0
 15 14  1  0  0  0  0
 16 15  2  0  0  0  0
 17 10  1  0  0  0  0
 20 23  1  0  0  0  0
 20 22  1  0  0  0  0
 21 20  1  0  0  0  0
 23 25  1  0  0  0  0
 23 28  1  0  0  0  0
 24 23  1  0  0  0  0
 26 28  1  0  0  0  0
 26 30  1  0  0  0  0
 27 26  2  0  0  0  0
 28 29  1  0  0  0  0
 30 31  1  0  0  0  0
 31 32  1  0  0  0  0
 33 32  1  0  0  0  0
 34 33  1  0  0  0  0
 35 36  1  0  0  0  0
 35 33  1  0  0  0  0
 36 30  1  0  0  0  0
M  END
>  <minimizedAffinity>
-6.15739155

$$$$

 OpenBabel03242521193D

 36 38  0  0  0  0  0  0  0  0999 V2000
   38.8560   35.3290   40.2280 C   0  0  0  0  0  0  0  0  0  0  0  0
   40.2370   35.1900   39.9460 C   0  0  0  0  0  0  0  0  0  0  0  0
   40.6620   33.9680   39.4530 C   0  0  0  0  0  0  0  0  0  0  0  0
   39.7310   32.9640   39.2650 N   0  0  0  0  0  0  0  0  0  0  0  0
   38.4380   33.1430   39.5460 C   0  0  0  0  0  0  0  0  0  0  0  0
   37.9790   34.3260   40.0310 N   0  0  0  0  0  0  0  0  0  0  0  0
   38.4660   36.2620   40.6150 H   0  0  0  0  0  0  0  0  0  0  0  0
   40.9220   36.0080   40.1110 H   0  0  0  0  0  0  0  0  0  0  0  0
   42.0400   33.8060   39.1630 N   0  0  0  0  0  0  0  0  0  0  0  0
   42.4790   34.1180   37.9270 C   0  0  0  0  0  0  0  0  0  0  0  0
   43.8330   33.9570   37.6480 C   0  0  0  0  0  0  0  0  0  0  0  0
   44.6610   33.4900   38.6400 C   0  0  0  0  0  0  0  0  0  0  0  0
   45.8940   33.3560   38.3490 O   0  0  0  0  0  0  0  0  0  0  0  0
   44.2320   33.1770   39.8760 N   0  0  0  0  0  0  0  0  0  0  0  0
   42.9110   33.3560   40.0790 C   0  0  0  0  0  0  0  0  0  0  0  0
   42.4140   33.0890   41.2080 O   0  0  0  0  0  0  0  0  0  0  0  0
   41.8000   34.4810   37.1720 H   0  0  0  0  0  0  0  0  0  0  0  0
   44.2190   34.1930   36.6760 H   0  0  0  0  0  0  0  0  0  0  0  0
   44.8710   32.8260   40.6120 H   0  0  0  0  0  0  0  0  0  0  0  0
   37.6590   31.9030   39.2530 C   0  0  0  0  0  0  0  0  0  0  0  0
   38.4250   31.0790   39.2520 H   0  0  0  0  0  0  0  0  0  0  0  0
   37.1170   31.9750   38.2940 H   0  0  0  0  0  0  0  0  0  0  0  0
   36.7150   31.5880   40.3880 C   0  0  0  0  0  0  0  0  0  0  0  0
   35.8150   31.0300   40.0060 H   0  0  0  0  0  0  0  0  0  0  0  0
   36.3380   32.4700   40.9250 H   0  0  0  0  0  0  0  0  0  0  0  0
   36.8000   29.4240   41.5500 C   0  0  0  0  0  0  0  0  0  0  0  0
   35.7720   29.1470   40.9070 O   0  0  0  0  0  0  0  0  0  0  0  0
   37.3840   30.6880   41.3060 N   0  0  0  0  0  0  0  0  0  0  0  0
   38.2770   30.9220   41.7990 H   0  0  0  0  0  0  0  0  0  0  0  0
   37.2850   28.4610   42.4560 N   0  0  0  0  0  0  0  0  0  0  0  0
   38.6190   28.6610   42.9210 C   0  0  0  0  0  2  0  0  0  0  0  0
   39.2070   27.3640   43.4230 C   0  0  0  0  0  2  0  0  0  0  0  0
   38.7810   26.2680   42.4680 C   0  0  0  0  0  3  0  0  0  0  0  0
   38.9440   26.6150   41.4200 H   0  0  0  0  0  0  0  0  0  0  0  0
   37.3030   26.0200   42.6780 C   0  0  0  0  0  2  0  0  0  0  0  0
   36.5530   27.3100   42.9420 C   0  0  0  0  0  2  0  0  0  0  0  0
  1  7  1  0  0  0  0
  2  8  1  0  0  0  0
  2  1  2  0  0  0  0
  3  2  1  0  0  0  0
  4  3  2  0  0  0  0
  4  5  1  0  0  0  0
  5  6  2  0  0  0  0
  6  1  1  0  0  0  0
  9  3  1  0  0  0  0
  9 15  1  0  0  0  0
 10  9  1  0  0  0  0
 11 10  2  0  0  0  0
 11 12  1  0  0  0  0
 12 14  1  0  0  0  0
 13 12  2  0  0  0  0
 14 15  1  0  0  0  0
 14 19  1  0  0  0  0
 15 16  2  0  0  0  0
 17 10  1  0  0  0  0
 18 11  1  0  0  0  0
 20  5  1  0  0  0  0
 20 23  1  0  0  0  0
 21 20  1  0  0  0  0
 22 20  1  0  0  0  0
 23 25  1  0  0  0  0
 23 28  1  0  0  0  0
 24 23  1  0  0  0  0
 26 30  1  0  0  0  0
 27 26  2  0  0  0  0
 28 26  1  0  0  0  0
 28 29  1  0  0  0  0
 30 31  1  0  0  0  0
 30 36  1  0  0  0  0
 31 32  1  0  0  0  0
 33 35  1  0  0  0  0
 33 32  1  0  0  0  0
 34 33  1  0  0  0  0
 35 36  1  0  0  0  0
M  END
>  <minimizedAffinity>
-6.13799524

$$$$

 OpenBabel03242521193D

 36 38  0  0  0  0  0  0  0  0999 V2000
   36.9230   30.0530   36.7250 C   0  0  0  0  0  0  0  0  0  0  0  0
   37.6280   31.1290   37.3170 C   0  0  0  0  0  0  0  0  0  0  0  0
   37.3710   31.3980   38.6500 C   0  0  0  0  0  0  0  0  0  0  0  0
   36.4530   30.6140   39.3230 N   0  0  0  0  0  0  0  0  0  0  0  0
   35.8120   29.6090   38.7210 C   0  0  0  0  0  0  0  0  0  0  0  0
   36.0350   29.3120   37.4150 N   0  0  0  0  0  0  0  0  0  0  0  0
   37.0830   29.7970   35.6850 H   0  0  0  0  0  0  0  0  0  0  0  0
   38.3360   31.7110   36.7440 H   0  0  0  0  0  0  0  0  0  0  0  0
   38.0660   32.4710   39.2640 N   0  0  0  0  0  0  0  0  0  0  0  0
   37.4390   33.6580   39.3830 C   0  0  0  0  0  0  0  0  0  0  0  0
   38.1260   34.7080   39.9860 C   0  0  0  0  0  0  0  0  0  0  0  0
   39.4070   34.4900   40.4330 C   0  0  0  0  0  0  0  0  0  0  0  0
   40.0040   35.4730   40.9790 O   0  0  0  0  0  0  0  0  0  0  0  0
   40.0400   33.3080   40.3180 N   0  0  0  0  0  0  0  0  0  0  0  0
   39.3180   32.3350   39.7250 C   0  0  0  0  0  0  0  0  0  0  0  0
   39.8260   31.1900   39.5720 O   0  0  0  0  0  0  0  0  0  0  0  0
   36.4330   33.7940   39.0210 H   0  0  0  0  0  0  0  0  0  0  0  0
   37.6610   35.6670   40.0980 H   0  0  0  0  0  0  0  0  0  0  0  0
   41.0060   33.1620   40.6600 H   0  0  0  0  0  0  0  0  0  0  0  0
   34.8820   28.9320   39.6750 C   0  0  0  0  0  0  0  0  0  0  0  0
   34.8390   27.8650   39.3210 H   0  0  0  0  0  0  0  0  0  0  0  0
   33.8880   29.4110   39.6900 H   0  0  0  0  0  0  0  0  0  0  0  0
   35.4830   28.8840   41.0590 C   0  0  0  0  0  0  0  0  0  0  0  0
   34.7600   28.4180   41.7840 H   0  0  0  0  0  0  0  0  0  0  0  0
   35.7580   29.8660   41.4700 H   0  0  0  0  0  0  0  0  0  0  0  0
   37.5540   28.0710   42.1040 C   0  0  0  0  0  0  0  0  0  0  0  0
   37.2690   28.8370   43.0410 O   0  0  0  0  0  0  0  0  0  0  0  0
   36.6390   28.0100   41.0280 N   0  0  0  0  0  0  0  0  0  0  0  0
   36.8340   27.3350   40.2520 H   0  0  0  0  0  0  0  0  0  0  0  0
   38.7530   27.3390   42.1990 N   0  0  0  0  0  0  0  0  0  0  0  0
   38.8870   26.2440   41.2930 C   0  0  0  0  0  2  0  0  0  0  0  0
   39.8950   25.2460   41.8100 C   0  0  0  0  0  2  0  0  0  0  0  0
   39.6800   25.1100   43.3040 C   0  0  0  0  0  3  0  0  0  0  0  0
   38.5890   24.9940   43.5060 H   0  0  0  0  0  0  0  0  0  0  0  0
   40.1670   26.3850   43.9590 C   0  0  0  0  0  2  0  0  0  0  0  0
   39.8370   27.6030   43.1220 C   0  0  0  0  0  2  0  0  0  0  0  0
  1  2  2  0  0  0  0
  1  6  1  0  0  0  0
  2  3  1  0  0  0  0
  3  9  1  0  0  0  0
  3  4  2  0  0  0  0
  5  4  1  0  0  0  0
  5 20  1  0  0  0  0
  6  5  2  0  0  0  0
  7  1  1  0  0  0  0
  8  2  1  0  0  0  0
  9 10  1  0  0  0  0
  9 15  1  0  0  0  0
 10 11  2  0  0  0  0
 11 18  1  0  0  0  0
 11 12  1  0  0  0  0
 12 13  2  0  0  0  0
 14 12  1  0  0  0  0
 14 19  1  0  0  0  0
 15 14  1  0  0  0  0
 16 15  2  0  0  0  0
 17 10  1  0  0  0  0
 20 22  1  0  0  0  0
 20 23  1  0  0  0  0
 21 20  1  0  0  0  0
 23 25  1  0  0  0  0
 23 24  1  0  0  0  0
 26 30  1  0  0  0  0
 26 27  2  0  0  0  0
 28 23  1  0  0  0  0
 28 26  1  0  0  0  0
 29 28  1  0  0  0  0
 30 36  1  0  0  0  0
 31 32  1  0  0  0  0
 31 30  1  0  0  0  0
 32 33  1  0  0  0  0
 33 34  1  0  0  0  0
 33 35  1  0  0  0  0
 36 35  1  0  0  0  0
M  END
>  <minimizedAffinity>
-6.00856972

$$$$

 OpenBabel03242521193D

 36 38  0  0  0  0  0  0  0  0999 V2000
   40.0460   31.5490   38.2530 C   0  0  0  0  0  0  0  0  0  0  0  0
   39.4940   30.6700   39.2170 C   0  0  0  0  0  0  0  0  0  0  0  0
   39.1540   31.2100   40.4450 C   0  0  0  0  0  0  0  0  0  0  0  0
   39.3680   32.5570   40.6640 N   0  0  0  0  0  0  0  0  0  0  0  0
   39.8930   33.3470   39.7230 C   0  0  0  0  0  0  0  0  0  0  0  0
   40.2400   32.8580   38.5050 N   0  0  0  0  0  0  0  0  0  0  0  0
   40.3310   31.1830   37.2750 H   0  0  0  0  0  0  0  0  0  0  0  0
   39.3470   29.6230   38.9930 H   0  0  0  0  0  0  0  0  0  0  0  0
   38.5990   30.3480   41.4250 N   0  0  0  0  0  0  0  0  0  0  0  0
   39.4300   29.5520   42.1260 C   0  0  0  0  0  0  0  0  0  0  0  0
   38.8800   28.7080   43.0870 C   0  0  0  0  0  0  0  0  0  0  0  0
   37.5200   28.7230   43.2790 C   0  0  0  0  0  0  0  0  0  0  0  0
   37.0520   27.9390   44.1660 O   0  0  0  0  0  0  0  0  0  0  0  0
   36.6830   29.5150   42.5840 N   0  0  0  0  0  0  0  0  0  0  0  0
   37.2800   30.3060   41.6700 C   0  0  0  0  0  0  0  0  0  0  0  0
   36.5790   31.0850   40.9680 O   0  0  0  0  0  0  0  0  0  0  0  0
   40.4940   29.5660   41.9480 H   0  0  0  0  0  0  0  0  0  0  0  0
   39.5090   28.0600   43.6640 H   0  0  0  0  0  0  0  0  0  0  0  0
   35.6590   29.5130   42.7420 H   0  0  0  0  0  0  0  0  0  0  0  0
   40.0160   34.7500   40.2220 C   0  0  0  0  0  0  0  0  0  0  0  0
   39.3290   34.7960   41.1110 H   0  0  0  0  0  0  0  0  0  0  0  0
   39.7510   35.4880   39.4450 H   0  0  0  0  0  0  0  0  0  0  0  0
   41.4050   35.0010   40.7600 C   0  0  0  0  0  0  0  0  0  0  0  0
   41.3610   35.6880   41.6510 H   0  0  0  0  0  0  0  0  0  0  0  0
   42.0960   35.4600   40.0390 H   0  0  0  0  0  0  0  0  0  0  0  0
   43.0790   33.7880   42.0880 C   0  0  0  0  0  0  0  0  0  0  0  0
   43.5050   34.9120   42.4020 O   0  0  0  0  0  0  0  0  0  0  0  0
   41.9440   33.7480   41.2470 N   0  0  0  0  0  0  0  0  0  0  0  0
   41.5380   32.8120   41.0090 H   0  0  0  0  0  0  0  0  0  0  0  0
   43.7610   32.6640   42.5940 N   0  0  0  0  0  0  0  0  0  0  0  0
   43.0690   31.4200   42.4960 C   0  0  0  0  0  2  0  0  0  0  0  0
   43.6090   30.4300   43.4990 C   0  0  0  0  0  2  0  0  0  0  0  0
   43.8600   31.1790   44.7920 C   0  0  0  0  0  3  0  0  0  0  0  0
   42.9720   31.8160   45.0220 H   0  0  0  0  0  0  0  0  0  0  0  0
   45.0640   32.0720   44.5840 C   0  0  0  0  0  2  0  0  0  0  0  0
   45.0790   32.6710   43.1930 C   0  0  0  0  0  2  0  0  0  0  0  0
  1  6  2  0  0  0  0
  1  2  1  0  0  0  0
  2  3  2  0  0  0  0
  3  4  1  0  0  0  0
  3  9  1  0  0  0  0
  5 20  1  0  0  0  0
  5  4  2  0  0  0  0
  6  5  1  0  0  0  0
  7  1  1  0  0  0  0
  8  2  1  0  0  0  0
  9 15  1  0  0  0  0
  9 10  1  0  0  0  0
 10 11  2  0  0  0  0
 11 12  1  0  0  0  0
 11 18  1  0  0  0  0
 12 13  2  0  0  0  0
 14 19  1  0  0  0  0
 14 12  1  0  0  0  0
 15 14  1  0  0  0  0
 16 15  2  0  0  0  0
 17 10  1  0  0  0  0
 20 23  1  0  0  0  0
 20 21  1  0  0  0  0
 22 20  1  0  0  0  0
 23 28  1  0  0  0  0
 23 24  1  0  0  0  0
 25 23  1  0  0  0  0
 26 27  2  0  0  0  0
 26 30  1  0  0  0  0
 28 26  1  0  0  0  0
 29 28  1  0  0  0  0
 30 36  1  0  0  0  0
 31 30  1  0  0  0  0
 31 32  1  0  0  0  0
 32 33  1  0  0  0  0
 33 34  1  0  0  0  0
 35 33  1  0  0  0  0
 36 35  1  0  0  0  0
M  END
>  <minimizedAffinity>
-5.93042374

$$$$

 OpenBabel03242521193D

 36 38  0  0  0  0  0  0  0  0999 V2000
   40.0300   31.1330   38.0140 C   0  0  0  0  0  0  0  0  0  0  0  0
   41.0060   31.8630   38.7350 C   0  0  0  0  0  0  0  0  0  0  0  0
   40.5630   32.6390   39.7920 C   0  0  0  0  0  0  0  0  0  0  0  0
   39.2120   32.6620   40.0820 N   0  0  0  0  0  0  0  0  0  0  0  0
   38.3290   31.9560   39.3710 C   0  0  0  0  0  0  0  0  0  0  0  0
   38.7210   31.1810   38.3270 N   0  0  0  0  0  0  0  0  0  0  0  0
   40.3190   30.5080   37.1770 H   0  0  0  0  0  0  0  0  0  0  0  0
   42.0510   31.8090   38.4660 H   0  0  0  0  0  0  0  0  0  0  0  0
   41.5230   33.3790   40.5290 N   0  0  0  0  0  0  0  0  0  0  0  0
   42.3220   32.7170   41.3890 C   0  0  0  0  0  0  0  0  0  0  0  0
   43.2620   33.4480   42.1100 C   0  0  0  0  0  0  0  0  0  0  0  0
   43.3360   34.8060   41.9140 C   0  0  0  0  0  0  0  0  0  0  0  0
   44.2080   35.4410   42.5900 O   0  0  0  0  0  0  0  0  0  0  0  0
   42.5430   35.4740   41.0570 N   0  0  0  0  0  0  0  0  0  0  0  0
   41.6550   34.7070   40.3910 C   0  0  0  0  0  0  0  0  0  0  0  0
   40.8670   35.2430   39.5650 O   0  0  0  0  0  0  0  0  0  0  0  0
   42.2350   31.6500   41.5190 H   0  0  0  0  0  0  0  0  0  0  0  0
   43.9150   32.9560   42.8040 H   0  0  0  0  0  0  0  0  0  0  0  0
   42.6130   36.4980   40.9220 H   0  0  0  0  0  0  0  0  0  0  0  0
   36.9450   32.1630   39.8960 C   0  0  0  0  0  0  0  0  0  0  0  0
   36.2880   32.1320   38.9850 H   0  0  0  0  0  0  0  0  0  0  0  0
   36.8530   33.1140   40.4500 H   0  0  0  0  0  0  0  0  0  0  0  0
   36.5220   30.9940   40.7520 C   0  0  0  0  0  0  0  0  0  0  0  0
   36.1300   30.1590   40.1070 H   0  0  0  0  0  0  0  0  0  0  0  0
   35.7360   31.2260   41.4840 H   0  0  0  0  0  0  0  0  0  0  0  0
   37.5860   29.2180   42.0780 C   0  0  0  0  0  0  0  0  0  0  0  0
   36.4970   28.6270   41.9830 O   0  0  0  0  0  0  0  0  0  0  0  0
   37.6940   30.4660   41.4220 N   0  0  0  0  0  0  0  0  0  0  0  0
   38.6170   30.9590   41.4470 H   0  0  0  0  0  0  0  0  0  0  0  0
   38.6060   28.5980   42.8250 N   0  0  0  0  0  0  0  0  0  0  0  0
   39.9190   29.1240   42.6420 C   0  0  0  0  0  2  0  0  0  0  0  0
   40.9610   28.1040   43.0340 C   0  0  0  0  0  2  0  0  0  0  0  0
   40.4940   26.7550   42.5280 C   0  0  0  0  0  3  0  0  0  0  0  0
   40.1510   26.8610   41.4720 H   0  0  0  0  0  0  0  0  0  0  0  0
   39.3210   26.3210   43.3820 C   0  0  0  0  0  2  0  0  0  0  0  0
   38.4310   27.4920   43.7430 C   0  0  0  0  0  2  0  0  0  0  0  0
  1  6  2  0  0  0  0
  1  2  1  0  0  0  0
  2  3  2  0  0  0  0
  3  4  1  0  0  0  0
  3  9  1  0  0  0  0
  5 20  1  0  0  0  0
  5  4  2  0  0  0  0
  6  5  1  0  0  0  0
  7  1  1  0  0  0  0
  8  2  1  0  0  0  0
  9 10  1  0  0  0  0
 10 17  1  0  0  0  0
 10 11  2  0  0  0  0
 11 18  1  0  0  0  0
 12 11  1  0  0  0  0
 12 13  2  0  0  0  0
 14 12  1  0  0  0  0
 15  9  1  0  0  0  0
 15 14  1  0  0  0  0
 16 15  2  0  0  0  0
 19 14  1  0  0  0  0
 20 22  1  0  0  0  0
 20 23  1  0  0  0  0
 21 20  1  0  0  0  0
 23 28  1  0  0  0  0
 23 25  1  0  0  0  0
 24 23  1  0  0  0  0
 26 30  1  0  0  0  0
 27 26  2  0  0  0  0
 28 29  1  0  0  0  0
 28 26  1  0  0  0  0
 30 36  1  0  0  0  0
 31 30  1  0  0  0  0
 31 32  1  0  0  0  0
 33 32  1  0  0  0  0
 33 35  1  0  0  0  0
 34 33  1  0  0  0  0
 35 36  1  0  0  0  0
M  END
>  <minimizedAffinity>
-5.92456245

$$$$

 OpenBabel03242521193D

 36 38  0  0  0  0  0  0  0  0999 V2000
   37.0870   27.7260   43.7960 C   0  0  0  0  0  0  0  0  0  0  0  0
   38.4370   27.3260   43.9530 C   0  0  0  0  0  0  0  0  0  0  0  0
   39.1050   26.8940   42.8210 C   0  0  0  0  0  0  0  0  0  0  0  0
   38.4320   26.8760   41.6150 N   0  0  0  0  0  0  0  0  0  0  0  0
   37.1570   27.2620   41.5160 C   0  0  0  0  0  0  0  0  0  0  0  0
   36.4640   27.6930   42.6020 N   0  0  0  0  0  0  0  0  0  0  0  0
   36.5140   28.0730   44.6460 H   0  0  0  0  0  0  0  0  0  0  0  0
   38.9170   27.3600   44.9210 H   0  0  0  0  0  0  0  0  0  0  0  0
   40.4580   26.4890   42.9550 N   0  0  0  0  0  0  0  0  0  0  0  0
   41.4110   27.4400   43.0190 C   0  0  0  0  0  0  0  0  0  0  0  0
   42.7370   27.0370   43.1510 C   0  0  0  0  0  0  0  0  0  0  0  0
   43.0160   25.6930   43.2110 C   0  0  0  0  0  0  0  0  0  0  0  0
   44.2390   25.3610   43.3320 O   0  0  0  0  0  0  0  0  0  0  0  0
   42.0710   24.7370   43.1480 N   0  0  0  0  0  0  0  0  0  0  0  0
   40.8090   25.1960   43.0200 C   0  0  0  0  0  0  0  0  0  0  0  0
   39.8530   24.3750   42.9530 O   0  0  0  0  0  0  0  0  0  0  0  0
   41.1550   28.4870   42.9690 H   0  0  0  0  0  0  0  0  0  0  0  0
   43.5220   27.7650   43.2050 H   0  0  0  0  0  0  0  0  0  0  0  0
   42.3000   23.7280   43.1940 H   0  0  0  0  0  0  0  0  0  0  0  0
   36.6780   27.1410   40.1060 C   0  0  0  0  0  0  0  0  0  0  0  0
   35.9150   26.3160   40.1350 H   0  0  0  0  0  0  0  0  0  0  0  0
   37.5050   26.9260   39.4070 H   0  0  0  0  0  0  0  0  0  0  0  0
   35.9270   28.3840   39.6920 C   0  0  0  0  0  0  0  0  0  0  0  0
   35.4130   28.8440   40.5810 H   0  0  0  0  0  0  0  0  0  0  0  0
   35.1540   28.2160   38.9290 H   0  0  0  0  0  0  0  0  0  0  0  0
   36.8470   30.6600   39.8020 C   0  0  0  0  0  0  0  0  0  0  0  0
   36.0230   30.8470   40.7130 O   0  0  0  0  0  0  0  0  0  0  0  0
   36.8850   29.3670   39.2300 N   0  0  0  0  0  0  0  0  0  0  0  0
   37.6050   29.1740   38.4950 H   0  0  0  0  0  0  0  0  0  0  0  0
   37.6620   31.7440   39.4230 N   0  0  0  0  0  0  0  0  0  0  0  0
   38.8010   31.4200   38.6270 C   0  0  0  0  0  2  0  0  0  0  0  0
   39.8480   32.5010   38.7300 C   0  0  0  0  0  2  0  0  0  0  0  0
   39.9050   32.9480   40.1760 C   0  0  0  0  0  3  0  0  0  0  0  0
   39.9310   32.0480   40.8350 H   0  0  0  0  0  0  0  0  0  0  0  0
   38.6430   33.7320   40.4680 C   0  0  0  0  0  2  0  0  0  0  0  0
   37.4400   33.1330   39.7700 C   0  0  0  0  0  2  0  0  0  0  0  0
  1  2  1  0  0  0  0
  1  7  1  0  0  0  0
  2  8  1  0  0  0  0
  3  9  1  0  0  0  0
  3  2  2  0  0  0  0
  4  3  1  0  0  0  0
  5  4  2  0  0  0  0
  5  6  1  0  0  0  0
  6  1  2  0  0  0  0
  9 10  1  0  0  0  0
  9 15  1  0  0  0  0
 10 11  2  0  0  0  0
 11 18  1  0  0  0  0
 11 12  1  0  0  0  0
 12 13  2  0  0  0  0
 14 19  1  0  0  0  0
 14 12  1  0  0  0  0
 15 14  1  0  0  0  0
 16 15  2  0  0  0  0
 17 10  1  0  0  0  0
 20 21  1  0  0  0  0
 20  5  1  0  0  0  0
 22 20  1  0  0  0  0
 23 20  1  0  0  0  0
 23 24  1  0  0  0  0
 25 23  1  0  0  0  0
 26 27  2  0  0  0  0
 28 23  1  0  0  0  0
 28 26  1  0  0  0  0
 29 28  1  0  0  0  0
 30 36  1  0  0  0  0
 30 26  1  0  0  0  0
 31 32  1  0  0  0  0
 31 30  1  0  0  0  0
 32 33  1  0  0  0  0
 33 35  1  0  0  0  0
 33 34  1  0  0  0  0
 36 35  1  0  0  0  0
M  END
>  <minimizedAffinity>
-5.90195513

$$$$

 OpenBabel03242521193D

 36 38  0  0  0  0  0  0  0  0999 V2000
   36.9540   28.0440   43.9510 C   0  0  0  0  0  0  0  0  0  0  0  0
   36.8170   26.8190   43.2530 C   0  0  0  0  0  0  0  0  0  0  0  0
   37.7940   26.5070   42.3240 C   0  0  0  0  0  0  0  0  0  0  0  0
   38.8350   27.3930   42.1280 N   0  0  0  0  0  0  0  0  0  0  0  0
   38.9220   28.5380   42.8100 C   0  0  0  0  0  0  0  0  0  0  0  0
   37.9850   28.8820   43.7310 N   0  0  0  0  0  0  0  0  0  0  0  0
   36.2200   28.3400   44.6900 H   0  0  0  0  0  0  0  0  0  0  0  0
   35.9810   26.1610   43.4460 H   0  0  0  0  0  0  0  0  0  0  0  0
   37.6770   25.2850   41.6140 N   0  0  0  0  0  0  0  0  0  0  0  0
   36.8350   25.2300   40.5620 C   0  0  0  0  0  0  0  0  0  0  0  0
   36.7240   24.0280   39.8680 C   0  0  0  0  0  0  0  0  0  0  0  0
   37.4740   22.9540   40.2840 C   0  0  0  0  0  0  0  0  0  0  0  0
   37.3480   21.8710   39.6250 O   0  0  0  0  0  0  0  0  0  0  0  0
   38.3170   23.0000   41.3310 N   0  0  0  0  0  0  0  0  0  0  0  0
   38.3760   24.1930   41.9580 C   0  0  0  0  0  0  0  0  0  0  0  0
   39.1390   24.3350   42.9530 O   0  0  0  0  0  0  0  0  0  0  0  0
   36.2610   26.0930   40.2650 H   0  0  0  0  0  0  0  0  0  0  0  0
   36.0650   23.9460   39.0280 H   0  0  0  0  0  0  0  0  0  0  0  0
   38.8750   22.1800   41.6300 H   0  0  0  0  0  0  0  0  0  0  0  0
   40.1390   29.3030   42.4030 C   0  0  0  0  0  0  0  0  0  0  0  0
   40.7030   28.6010   41.7290 H   0  0  0  0  0  0  0  0  0  0  0  0
   40.7360   29.6220   43.2750 H   0  0  0  0  0  0  0  0  0  0  0  0
   39.7590   30.4850   41.5430 C   0  0  0  0  0  0  0  0  0  0  0  0
   40.3500   30.4780   40.5860 H   0  0  0  0  0  0  0  0  0  0  0  0
   39.9280   31.4630   42.0140 H   0  0  0  0  0  0  0  0  0  0  0  0
   38.0730   30.1290   39.7910 C   0  0  0  0  0  0  0  0  0  0  0  0
   39.0390   30.0140   39.0180 O   0  0  0  0  0  0  0  0  0  0  0  0
   38.3700   30.3450   41.1560 N   0  0  0  0  0  0  0  0  0  0  0  0
   37.5720   30.3950   41.8330 H   0  0  0  0  0  0  0  0  0  0  0  0
   36.7790   30.0340   39.2420 N   0  0  0  0  0  0  0  0  0  0  0  0
   35.7190   29.8380   40.1760 C   0  0  0  0  0  2  0  0  0  0  0  0
   34.5150   29.2330   39.4960 C   0  0  0  0  0  2  0  0  0  0  0  0
   35.0170   28.1830   38.5260 C   0  0  0  0  0  3  0  0  0  0  0  0
   35.7770   27.5470   39.0380 H   0  0  0  0  0  0  0  0  0  0  0  0
   35.6790   28.9000   37.3680 C   0  0  0  0  0  2  0  0  0  0  0  0
   36.4480   30.1190   37.8350 C   0  0  0  0  0  2  0  0  0  0  0  0
  1  7  1  0  0  0  0
  2  8  1  0  0  0  0
  2  1  2  0  0  0  0
  3  2  1  0  0  0  0
  4  3  2  0  0  0  0
  4  5  1  0  0  0  0
  5  6  2  0  0  0  0
  6  1  1  0  0  0  0
  9 15  1  0  0  0  0
  9  3  1  0  0  0  0
 10  9  1  0  0  0  0
 11 12  1  0  0  0  0
 11 10  2  0  0  0  0
 12 14  1  0  0  0  0
 13 12  2  0  0  0  0
 14 19  1  0  0  0  0
 14 15  1  0  0  0  0
 15 16  2  0  0  0  0
 17 10  1  0  0  0  0
 18 11  1  0  0  0  0
 20  5  1  0  0  0  0
 20 22  1  0  0  0  0
 21 20  1  0  0  0  0
 23 25  1  0  0  0  0
 23 20  1  0  0  0  0
 24 23  1  0  0  0  0
 26 28  1  0  0  0  0
 27 26  2  0  0  0  0
 28 23  1  0  0  0  0
 28 29  1  0  0  0  0
 30 26  1  0  0  0  0
 30 31  1  0  0  0  0
 32 31  1  0  0  0  0
 33 34  1  0  0  0  0
 33 32  1  0  0  0  0
 35 36  1  0  0  0  0
 35 33  1  0  0  0  0
 36 30  1  0  0  0  0
M  END
>  <minimizedAffinity>
-5.81290007

$$$$

 OpenBabel03242521193D

 36 38  0  0  0  0  0  0  0  0999 V2000
   38.4250   34.2450   40.0950 C   0  0  0  0  0  0  0  0  0  0  0  0
   37.4570   33.2950   39.6880 C   0  0  0  0  0  0  0  0  0  0  0  0
   37.7680   31.9580   39.8660 C   0  0  0  0  0  0  0  0  0  0  0  0
   38.9880   31.6250   40.4230 N   0  0  0  0  0  0  0  0  0  0  0  0
   39.8690   32.5580   40.7920 C   0  0  0  0  0  0  0  0  0  0  0  0
   39.6040   33.8810   40.6350 N   0  0  0  0  0  0  0  0  0  0  0  0
   38.2360   35.3050   39.9800 H   0  0  0  0  0  0  0  0  0  0  0  0
   36.5170   33.6090   39.2570 H   0  0  0  0  0  0  0  0  0  0  0  0
   36.8130   30.9890   39.4660 N   0  0  0  0  0  0  0  0  0  0  0  0
   36.7750   30.6200   38.1700 C   0  0  0  0  0  0  0  0  0  0  0  0
   35.8360   29.6690   37.7820 C   0  0  0  0  0  0  0  0  0  0  0  0
   34.9920   29.1470   38.7330 C   0  0  0  0  0  0  0  0  0  0  0  0
   34.1470   28.2790   38.3420 O   0  0  0  0  0  0  0  0  0  0  0  0
   35.0240   29.5090   40.0280 N   0  0  0  0  0  0  0  0  0  0  0  0
   35.9560   30.4340   40.3360 C   0  0  0  0  0  0  0  0  0  0  0  0
   36.0630   30.8370   41.5270 O   0  0  0  0  0  0  0  0  0  0  0  0
   37.4530   31.0520   37.4500 H   0  0  0  0  0  0  0  0  0  0  0  0
   35.7750   29.3520   36.7600 H   0  0  0  0  0  0  0  0  0  0  0  0
   34.3800   29.1050   40.7320 H   0  0  0  0  0  0  0  0  0  0  0  0
   41.0980   31.9260   41.3600 C   0  0  0  0  0  0  0  0  0  0  0  0
   41.7040   32.7870   41.7550 H   0  0  0  0  0  0  0  0  0  0  0  0
   41.6450   31.3370   40.6040 H   0  0  0  0  0  0  0  0  0  0  0  0
   40.7520   31.0800   42.5620 C   0  0  0  0  0  0  0  0  0  0  0  0
   39.7740   31.4140   43.0070 H   0  0  0  0  0  0  0  0  0  0  0  0
   41.4970   31.1090   43.3690 H   0  0  0  0  0  0  0  0  0  0  0  0
   39.3970   29.0290   42.5780 C   0  0  0  0  0  0  0  0  0  0  0  0
   38.6070   29.6710   43.2920 O   0  0  0  0  0  0  0  0  0  0  0  0
   40.5440   29.7160   42.1180 N   0  0  0  0  0  0  0  0  0  0  0  0
   41.1970   29.2100   41.4750 H   0  0  0  0  0  0  0  0  0  0  0  0
   39.0800   27.6870   42.2940 N   0  0  0  0  0  0  0  0  0  0  0  0
   39.8100   27.0870   41.2250 C   0  0  0  0  0  2  0  0  0  0  0  0
   39.0610   25.9010   40.6680 C   0  0  0  0  0  2  0  0  0  0  0  0
   37.5940   26.2720   40.6100 C   0  0  0  0  0  3  0  0  0  0  0  0
   37.4930   27.2880   40.1600 H   0  0  0  0  0  0  0  0  0  0  0  0
   37.0690   26.3110   42.0290 C   0  0  0  0  0  2  0  0  0  0  0  0
   38.0930   26.8840   42.9860 C   0  0  0  0  0  2  0  0  0  0  0  0
  1  6  1  0  0  0  0
  2  3  1  0  0  0  0
  2  1  2  0  0  0  0
  3  4  2  0  0  0  0
  4  5  1  0  0  0  0
  5 20  1  0  0  0  0
  6  5  2  0  0  0  0
  7  1  1  0  0  0  0
  8  2  1  0  0  0  0
  9  3  1  0  0  0  0
  9 15  1  0  0  0  0
 10  9  1  0  0  0  0
 11 10  2  0  0  0  0
 11 12  1  0  0  0  0
 12 14  1  0  0  0  0
 13 12  2  0  0  0  0
 14 15  1  0  0  0  0
 14 19  1  0  0  0  0
 15 16  2  0  0  0  0
 17 10  1  0  0  0  0
 18 11  1  0  0  0  0
 20 21  1  0  0  0  0
 20 23  1  0  0  0  0
 22 20  1  0  0  0  0
 23 24  1  0  0  0  0
 23 25  1  0  0  0  0
 26 27  2  0  0  0  0
 28 23  1  0  0  0  0
 28 26  1  0  0  0  0
 29 28  1  0  0  0  0
 30 26  1  0  0  0  0
 30 36  1  0  0  0  0
 31 30  1  0  0  0  0
 32 31  1  0  0  0  0
 33 32  1  0  0  0  0
 33 35  1  0  0  0  0
 34 33  1  0  0  0  0
 35 36  1  0  0  0  0
M  END
>  <minimizedAffinity>
-5.80695868

$$$$

 OpenBabel03242521193D

 36 38  0  0  0  0  0  0  0  0999 V2000
   36.7360   30.0280   37.5760 C   0  0  0  0  0  0  0  0  0  0  0  0
   36.5150   29.7160   38.9390 C   0  0  0  0  0  0  0  0  0  0  0  0
   37.5400   29.0810   39.6180 C   0  0  0  0  0  0  0  0  0  0  0  0
   38.7080   28.7880   38.9400 N   0  0  0  0  0  0  0  0  0  0  0  0
   38.8700   29.1020   37.6520 C   0  0  0  0  0  0  0  0  0  0  0  0
   37.8900   29.7250   36.9490 N   0  0  0  0  0  0  0  0  0  0  0  0
   35.9690   30.5240   36.9940 H   0  0  0  0  0  0  0  0  0  0  0  0
   35.5810   29.9670   39.4220 H   0  0  0  0  0  0  0  0  0  0  0  0
   37.3400   28.7590   40.9850 N   0  0  0  0  0  0  0  0  0  0  0  0
   36.8740   27.5340   41.2960 C   0  0  0  0  0  0  0  0  0  0  0  0
   36.6790   27.2230   42.6390 C   0  0  0  0  0  0  0  0  0  0  0  0
   36.9710   28.1760   43.5860 C   0  0  0  0  0  0  0  0  0  0  0  0
   36.7820   27.8570   44.8040 O   0  0  0  0  0  0  0  0  0  0  0  0
   37.4380   29.4010   43.2840 N   0  0  0  0  0  0  0  0  0  0  0  0
   37.6030   29.6360   41.9670 C   0  0  0  0  0  0  0  0  0  0  0  0
   38.0370   30.7570   41.5840 O   0  0  0  0  0  0  0  0  0  0  0  0
   36.6540   26.8110   40.5260 H   0  0  0  0  0  0  0  0  0  0  0  0
   36.3090   26.2590   42.9250 H   0  0  0  0  0  0  0  0  0  0  0  0
   37.6530   30.1060   44.0120 H   0  0  0  0  0  0  0  0  0  0  0  0
   40.2180   28.6730   37.1720 C   0  0  0  0  0  0  0  0  0  0  0  0
   40.0970   28.5460   36.0610 H   0  0  0  0  0  0  0  0  0  0  0  0
   40.5560   27.7460   37.6680 H   0  0  0  0  0  0  0  0  0  0  0  0
   41.2240   29.7840   37.3530 C   0  0  0  0  0  0  0  0  0  0  0  0
   41.4980   30.2310   36.3570 H   0  0  0  0  0  0  0  0  0  0  0  0
   42.1640   29.4740   37.8320 H   0  0  0  0  0  0  0  0  0  0  0  0
   41.4230   31.6680   38.9190 C   0  0  0  0  0  0  0  0  0  0  0  0
   42.6460   31.4510   38.8760 O   0  0  0  0  0  0  0  0  0  0  0  0
   40.6000   30.8500   38.1120 N   0  0  0  0  0  0  0  0  0  0  0  0
   39.5720   31.0470   38.0950 H   0  0  0  0  0  0  0  0  0  0  0  0
   40.9710   32.7020   39.7630 N   0  0  0  0  0  0  0  0  0  0  0  0
   39.6320   33.1420   39.5450 C   0  0  0  0  0  2  0  0  0  0  0  0
   39.4340   34.5360   40.0870 C   0  0  0  0  0  2  0  0  0  0  0  0
   40.6730   35.3390   39.7480 C   0  0  0  0  0  3  0  0  0  0  0  0
   40.9390   35.1630   38.6790 H   0  0  0  0  0  0  0  0  0  0  0  0
   41.8030   34.8400   40.6230 C   0  0  0  0  0  2  0  0  0  0  0  0
   41.7410   33.3390   40.8100 C   0  0  0  0  0  2  0  0  0  0  0  0
  1  2  1  0  0  0  0
  2  8  1  0  0  0  0
  2  3  2  0  0  0  0
  3  9  1  0  0  0  0
  4  3  1  0  0  0  0
  5  4  2  0  0  0  0
  6  1  2  0  0  0  0
  6  5  1  0  0  0  0
  7  1  1  0  0  0  0
  9 10  1  0  0  0  0
  9 15  1  0  0  0  0
 10 11  2  0  0  0  0
 11 18  1  0  0  0  0
 11 12  1  0  0  0  0
 12 13  2  0  0  0  0
 14 12  1  0  0  0  0
 14 19  1  0  0  0  0
 15 14  1  0  0  0  0
 16 15  2  0  0  0  0
 17 10  1  0  0  0  0
 20 23  1  0  0  0  0
 20  5  1  0  0  0  0
 20 22  1  0  0  0  0
 21 20  1  0  0  0  0
 23 25  1  0  0  0  0
 23 28  1  0  0  0  0
 24 23  1  0  0  0  0
 26 30  1  0  0  0  0
 27 26  2  0  0  0  0
 28 26  1  0  0  0  0
 29 28  1  0  0  0  0
 30 36  1  0  0  0  0
 31 30  1  0  0  0  0
 31 32  1  0  0  0  0
 33 32  1  0  0  0  0
 33 35  1  0  0  0  0
 34 33  1  0  0  0  0
 35 36  1  0  0  0  0
M  END
>  <minimizedAffinity>
-5.77404404

$$$$
