
 OpenBabel03242522503D

 24 25  0  0  0  0  0  0  0  0999 V2000
   45.4660   30.7890   47.5850 O   0  0  0  0  0  0  0  0  0  0  0  0
   45.8320   32.0620   48.3690 P   0  0  2  0  0  0  0  0  0  0  0  0
   45.2540   31.8090   49.9340 O   0  0  0  0  0  0  0  0  0  0  0  0
   45.2520   32.6800   50.3800 H   0  0  0  0  0  0  0  0  0  0  0  0
   45.0200   33.3680   47.6630 O   0  0  0  0  0  0  0  0  0  0  0  0
   46.6820   33.5010   44.4320 C   0  0  0  0  0  0  0  0  0  0  0  0
   46.3260   33.1020   45.7340 C   0  0  0  0  0  0  0  0  0  0  0  0
   45.3360   33.7920   46.3910 C   0  0  0  0  0  0  0  0  0  0  0  0
   44.7350   34.8410   45.7540 N   0  0  0  0  0  0  0  0  0  0  0  0
   45.0940   35.2050   44.5060 C   0  0  0  0  0  0  0  0  0  0  0  0
   46.0590   34.5430   43.8460 N   0  0  0  0  0  0  0  0  0  0  0  0
   47.4470   33.0190   43.8390 H   0  0  0  0  0  0  0  0  0  0  0  0
   46.8990   32.2710   46.0530 H   0  0  0  0  0  0  0  0  0  0  0  0
   44.5290   36.0600   44.1260 H   0  0  0  0  0  0  0  0  0  0  0  0
   47.4650   32.3100   48.3400 O   0  0  0  0  0  0  0  0  0  0  0  0
   48.4960   31.4640   48.5610 C   0  0  0  0  0  0  0  0  0  0  0  0
   49.3410   31.8790   49.4290 O   0  0  0  0  0  0  0  0  0  0  0  0
   49.2440   30.2720   48.3610 N   0  0  0  0  0  0  0  0  0  0  0  0
   48.7840   29.6360   47.1460 C   0  0  0  0  0  2  0  0  0  0  0  0
   49.5530   28.3820   46.8830 C   0  0  0  0  0  2  0  0  0  0  0  0
   49.7160   27.4850   48.0720 C   0  0  0  0  0  3  0  0  0  0  0  0
   48.8370   26.8040   48.1090 H   0  0  0  0  0  0  0  0  0  0  0  0
   49.9470   28.1930   49.3660 C   0  0  0  0  0  2  0  0  0  0  0  0
   50.3000   29.6670   49.1360 C   0  0  0  0  0  2  0  0  0  0  0  0
  2  1  2  6  0  0  0
  2  3  1  0  0  0  0
  3  4  1  0  0  0  0
  5  2  1  0  0  0  0
  6  7  1  0  0  0  0
  7 13  1  0  0  0  0
  7  8  2  0  0  0  0
  8  5  1  0  0  0  0
  9  8  1  0  0  0  0
 10  9  2  0  0  0  0
 11  6  2  0  0  0  0
 11 10  1  0  0  0  0
 12  6  1  0  0  0  0
 14 10  1  0  0  0  0
 15  2  1  0  0  0  0
 15 16  1  0  0  0  0
 16 17  2  0  0  0  0
 18 16  1  0  0  0  0
 18 24  1  0  0  0  0
 19 18  1  0  0  0  0
 20 19  1  0  0  0  0
 20 21  1  0  0  0  0
 21 22  1  0  0  0  0
 21 23  1  0  0  0  0
 24 23  1  0  0  0  0
M  END
>  <minimizedAffinity>
-4.81664228

>  <minimizedRMSD>
0.339388728

$$$$
