
 OpenBabel03242521173D

 36 38  0  0  0  0  0  0  0  0999 V2000
   44.5250   35.6090   44.8520 C   0  0  0  0  0  0  0  0  0  0  0  0
   45.1260   35.5790   43.5700 C   0  0  0  0  0  0  0  0  0  0  0  0
   46.1360   34.6550   43.3660 C   0  0  0  0  0  0  0  0  0  0  0  0
   46.5010   33.8240   44.4070 N   0  0  0  0  0  0  0  0  0  0  0  0
   45.9050   33.8900   45.6010 C   0  0  0  0  0  0  0  0  0  0  0  0
   44.9090   34.7810   45.8430 N   0  0  0  0  0  0  0  0  0  0  0  0
   43.7300   36.3100   45.0700 H   0  0  0  0  0  0  0  0  0  0  0  0
   44.8020   36.2530   42.7890 H   0  0  0  0  0  0  0  0  0  0  0  0
   46.7520   34.6070   42.0890 N   0  0  0  0  0  0  0  0  0  0  0  0
   47.9400   35.2220   41.9240 C   0  0  0  0  0  0  0  0  0  0  0  0
   48.5400   35.1730   40.6690 C   0  0  0  0  0  0  0  0  0  0  0  0
   47.8980   34.5000   39.6570 C   0  0  0  0  0  0  0  0  0  0  0  0
   48.4760   34.4750   38.5220 O   0  0  0  0  0  0  0  0  0  0  0  0
   46.7130   33.8840   39.8120 N   0  0  0  0  0  0  0  0  0  0  0  0
   46.1870   33.9710   41.0510 C   0  0  0  0  0  0  0  0  0  0  0  0
   45.0770   33.4240   41.2960 O   0  0  0  0  0  0  0  0  0  0  0  0
   48.4140   35.7410   42.7420 H   0  0  0  0  0  0  0  0  0  0  0  0
   49.4840   35.6500   40.5000 H   0  0  0  0  0  0  0  0  0  0  0  0
   46.2440   33.3820   39.0370 H   0  0  0  0  0  0  0  0  0  0  0  0
   46.4910   32.8850   46.5380 C   0  0  0  0  0  0  0  0  0  0  0  0
   47.2050   33.4740   47.1760 H   0  0  0  0  0  0  0  0  0  0  0  0
   46.9890   32.0610   45.9980 H   0  0  0  0  0  0  0  0  0  0  0  0
   45.4340   32.3580   47.4790 C   0  0  0  0  0  0  0  0  0  0  0  0
   44.5240   33.0200   47.4560 H   0  0  0  0  0  0  0  0  0  0  0  0
   45.7520   32.2910   48.5290 H   0  0  0  0  0  0  0  0  0  0  0  0
   45.6590   29.9110   47.4880 C   0  0  0  0  0  0  0  0  0  0  0  0
   46.5400   30.0910   48.3470 O   0  0  0  0  0  0  0  0  0  0  0  0
   44.9980   31.0620   47.0010 N   0  0  0  0  0  0  0  0  0  0  0  0
   44.2200   30.9300   46.3140 H   0  0  0  0  0  0  0  0  0  0  0  0
   45.4020   28.5880   47.0800 N   0  0  0  0  0  0  0  0  0  0  0  0
   44.1880   28.3830   46.3600 C   0  0  0  0  0  0  0  0  0  0  0  0
   43.7570   26.9390   46.4430 C   0  0  0  0  0  0  0  0  0  0  0  0
   44.0110   26.4660   47.8600 C   0  0  0  0  0  0  0  0  0  0  0  0
   43.6240   27.2310   48.5740 H   0  0  0  0  0  0  0  0  0  0  0  0
   45.5080   26.3360   48.0430 C   0  0  0  0  0  0  0  0  0  0  0  0
   46.2550   27.4430   47.3290 C   0  0  0  0  0  0  0  0  0  0  0  0
  1  7  1  0  0  0  0
  1  6  1  0  0  0  0
  2  1  2  0  0  0  0
  3  2  1  0  0  0  0
  3  4  2  0  0  0  0
  4  5  1  0  0  0  0
  5  6  2  0  0  0  0
  5 20  1  0  0  0  0
  8  2  1  0  0  0  0
  9  3  1  0  0  0  0
 10  9  1  0  0  0  0
 10 17  1  0  0  0  0
 11 10  2  0  0  0  0
 12 14  1  0  0  0  0
 12 11  1  0  0  0  0
 13 12  2  0  0  0  0
 14 15  1  0  0  0  0
 15 16  2  0  0  0  0
 15  9  1  0  0  0  0
 18 11  1  0  0  0  0
 19 14  1  0  0  0  0
 20 21  1  0  0  0  0
 20 23  1  0  0  0  0
 22 20  1  0  0  0  0
 23 25  1  0  0  0  0
 24 23  1  0  0  0  0
 26 27  2  0  0  0  0
 28 23  1  0  0  0  0
 28 26  1  0  0  0  0
 29 28  1  0  0  0  0
 30 36  1  0  0  0  0
 30 26  1  0  0  0  0
 31 32  1  0  0  0  0
 31 30  1  0  0  0  0
 32 33  1  0  0  0  0
 33 35  1  0  0  0  0
 33 34  1  0  0  0  0
 36 35  1  0  0  0  0
M  END
>  <minimizedAffinity>
-6.5826931

>  <minimizedRMSD>
1.53896797

$$$$
