
 OpenBabel03242522503D

 24 25  0  0  0  0  0  0  0  0999 V2000
   45.6840   30.6030   47.6680 O   0  0  0  0  0  0  0  0  0  0  0  0
   46.0950   31.9480   48.2950 P   0  0  2  0  0  0  0  0  0  0  0  0
   45.4870   31.9170   49.8680 O   0  0  0  0  0  0  0  0  0  0  0  0
   45.5170   32.8370   50.2020 H   0  0  0  0  0  0  0  0  0  0  0  0
   45.3480   33.1880   47.4170 O   0  0  0  0  0  0  0  0  0  0  0  0
   47.1850   32.9700   44.2860 C   0  0  0  0  0  0  0  0  0  0  0  0
   46.7590   32.7180   45.6040 C   0  0  0  0  0  0  0  0  0  0  0  0
   45.7320   33.4680   46.1240 C   0  0  0  0  0  0  0  0  0  0  0  0
   45.1630   34.4320   45.3400 N   0  0  0  0  0  0  0  0  0  0  0  0
   45.5880   34.6550   44.0800 C   0  0  0  0  0  0  0  0  0  0  0  0
   46.5910   33.9330   43.5530 N   0  0  0  0  0  0  0  0  0  0  0  0
   47.9840   32.4320   43.7950 H   0  0  0  0  0  0  0  0  0  0  0  0
   47.3180   31.9350   46.0460 H   0  0  0  0  0  0  0  0  0  0  0  0
   45.0410   35.4550   43.5750 H   0  0  0  0  0  0  0  0  0  0  0  0
   47.7370   32.1230   48.2630 O   0  0  0  0  0  0  0  0  0  0  0  0
   48.7130   31.4740   48.9370 C   0  0  0  0  0  0  0  0  0  0  0  0
   48.2860   30.6070   49.7770 O   0  0  0  0  0  0  0  0  0  0  0  0
   50.0620   31.1810   49.2760 N   0  0  0  0  0  0  0  0  0  0  0  0
   50.4660   32.0480   50.3610 C   0  0  0  0  0  2  0  0  0  0  0  0
   51.8760   31.7640   50.7640 C   0  0  0  0  0  2  0  0  0  0  0  0
   52.8430   31.6450   49.6250 C   0  0  0  0  0  3  0  0  0  0  0  0
   53.2300   32.6620   49.3970 H   0  0  0  0  0  0  0  0  0  0  0  0
   52.3050   30.9520   48.4160 C   0  0  0  0  0  2  0  0  0  0  0  0
   50.9950   30.2240   48.7330 C   0  0  0  0  0  2  0  0  0  0  0  0
  2  1  2  6  0  0  0
  2  3  1  0  0  0  0
  3  4  1  0  0  0  0
  5  2  1  0  0  0  0
  6  7  1  0  0  0  0
  7 13  1  0  0  0  0
  7  8  2  0  0  0  0
  8  5  1  0  0  0  0
  9  8  1  0  0  0  0
 10  9  2  0  0  0  0
 11 10  1  0  0  0  0
 11  6  2  0  0  0  0
 12  6  1  0  0  0  0
 14 10  1  0  0  0  0
 15  2  1  0  0  0  0
 15 16  1  0  0  0  0
 16 18  1  0  0  0  0
 16 17  2  0  0  0  0
 18 19  1  0  0  0  0
 19 20  1  0  0  0  0
 21 20  1  0  0  0  0
 22 21  1  0  0  0  0
 23 24  1  0  0  0  0
 23 21  1  0  0  0  0
 24 18  1  0  0  0  0
M  END
>  <minimizedAffinity>
-4.91666985

>  <minimizedRMSD>
2.19578195

$$$$
