
 OpenBabel03242522503D

 24 25  0  0  0  0  0  0  0  0999 V2000
   45.2000   30.8380   47.5390 O   0  0  0  0  0  0  0  0  0  0  0  0
   45.7590   32.0710   48.2710 P   0  0  2  0  0  0  0  0  0  0  0  0
   45.2930   31.8890   49.8820 O   0  0  0  0  0  0  0  0  0  0  0  0
   45.4170   32.7580   50.3140 H   0  0  0  0  0  0  0  0  0  0  0  0
   45.0290   33.4500   47.6170 O   0  0  0  0  0  0  0  0  0  0  0  0
   46.6430   33.5640   44.3600 C   0  0  0  0  0  0  0  0  0  0  0  0
   46.3060   33.1730   45.6690 C   0  0  0  0  0  0  0  0  0  0  0  0
   45.3260   33.8670   46.3370 C   0  0  0  0  0  0  0  0  0  0  0  0
   44.7160   34.9120   45.7030 N   0  0  0  0  0  0  0  0  0  0  0  0
   45.0560   35.2690   44.4490 C   0  0  0  0  0  0  0  0  0  0  0  0
   46.0120   34.6030   43.7780 N   0  0  0  0  0  0  0  0  0  0  0  0
   47.3990   33.0790   43.7580 H   0  0  0  0  0  0  0  0  0  0  0  0
   46.8840   32.3440   45.9840 H   0  0  0  0  0  0  0  0  0  0  0  0
   44.4850   36.1220   44.0720 H   0  0  0  0  0  0  0  0  0  0  0  0
   47.4000   32.1490   48.1020 O   0  0  0  0  0  0  0  0  0  0  0  0
   48.3750   31.2940   48.4890 C   0  0  0  0  0  0  0  0  0  0  0  0
   49.0730   31.7040   49.4800 O   0  0  0  0  0  0  0  0  0  0  0  0
   49.1330   30.0940   48.4130 N   0  0  0  0  0  0  0  0  0  0  0  0
   48.2820   29.0410   47.9050 C   0  0  0  0  0  2  0  0  0  0  0  0
   49.0420   27.7590   47.7920 C   0  0  0  0  0  2  0  0  0  0  0  0
   49.8700   27.4110   48.9930 C   0  0  0  0  0  3  0  0  0  0  0  0
   49.2280   26.8390   49.6970 H   0  0  0  0  0  0  0  0  0  0  0  0
   50.5440   28.5730   49.6470 C   0  0  0  0  0  2  0  0  0  0  0  0
   50.5080   29.8120   48.7460 C   0  0  0  0  0  2  0  0  0  0  0  0
  2  1  2  6  0  0  0
  2  3  1  0  0  0  0
  3  4  1  0  0  0  0
  5  2  1  0  0  0  0
  6  7  1  0  0  0  0
  7 13  1  0  0  0  0
  7  8  2  0  0  0  0
  8  5  1  0  0  0  0
  9  8  1  0  0  0  0
 10  9  2  0  0  0  0
 11  6  2  0  0  0  0
 11 10  1  0  0  0  0
 12  6  1  0  0  0  0
 14 10  1  0  0  0  0
 15  2  1  0  0  0  0
 15 16  1  0  0  0  0
 16 17  2  0  0  0  0
 18 16  1  0  0  0  0
 18 24  1  0  0  0  0
 19 18  1  0  0  0  0
 20 19  1  0  0  0  0
 20 21  1  0  0  0  0
 21 23  1  0  0  0  0
 21 22  1  0  0  0  0
 24 23  1  0  0  0  0
M  END
>  <minimizedAffinity>
-4.86009026

>  <minimizedRMSD>
0.283658087

$$$$
