
 OpenBabel03252506213D

 35 37  0  0  0  0  0  0  0  0999 V2000
   44.9240   35.5160   42.5650 C   0  0  0  0  0  0  0  0  0  0  0  0
   43.8080   35.5330   41.7060 C   0  0  0  0  0  0  0  0  0  0  0  0
   43.8140   34.6610   40.6010 C   0  0  0  0  0  0  0  0  0  0  0  0
   44.8790   33.8580   40.4190 N   0  0  0  0  0  0  0  0  0  0  0  0
   45.9360   33.8730   41.2720 C   0  0  0  0  0  0  0  0  0  0  0  0
   45.9530   34.6990   42.3380 N   0  0  0  0  0  0  0  0  0  0  0  0
   43.0180   36.2090   41.9420 H   0  0  0  0  0  0  0  0  0  0  0  0
   42.9690   34.6710   39.9470 H   0  0  0  0  0  0  0  0  0  0  0  0
   48.4930   35.2090   40.3590 Cl  0  0  0  0  0  0  0  0  0  0  0  0
   48.2570   33.5090   40.5630 C   0  0  0  0  0  0  0  0  0  0  0  0
   47.0580   32.9510   40.9860 C   0  0  0  0  0  0  0  0  0  0  0  0
   46.8470   31.6120   41.1550 C   0  0  0  0  0  0  0  0  0  0  0  0
   47.8980   30.7760   40.8860 C   0  0  0  0  0  0  0  0  0  0  0  0
   49.1390   31.2090   40.4590 C   0  0  0  0  0  0  0  0  0  0  0  0
   49.2610   32.5910   40.3150 C   0  0  0  0  0  0  0  0  0  0  0  0
   45.8820   31.2520   41.4900 H   0  0  0  0  0  0  0  0  0  0  0  0
   47.7450   29.7100   41.0150 H   0  0  0  0  0  0  0  0  0  0  0  0
   49.9750   30.5610   40.2430 H   0  0  0  0  0  0  0  0  0  0  0  0
   50.2290   32.9650   39.9790 H   0  0  0  0  0  0  0  0  0  0  0  0
   44.9260   36.4230   43.7200 C   0  0  0  0  0  3  0  0  0  0  0  0
   45.2650   37.6820   43.5160 C   0  0  0  0  0  3  0  0  0  0  0  0
   45.2750   38.6260   44.6700 C   0  0  0  0  0  0  0  0  0  0  0  0
   44.5740   38.3090   45.4730 H   0  0  0  0  0  0  0  0  0  0  0  0
   46.3010   38.6260   45.1020 H   0  0  0  0  0  0  0  0  0  0  0  0
   44.9250   39.9420   44.1500 N   0  0  0  0  0  0  0  0  0  0  0  0
   44.7980   40.1260   43.1110 H   0  0  0  0  0  0  0  0  0  0  0  0
   44.8210   39.7370   46.9140 F   0  0  0  0  0  0  0  0  0  0  0  0
   44.6740   40.9810   46.3820 C   0  0  0  0  0  0  0  0  0  0  0  0
   44.7250   41.0760   45.0050 C   0  0  0  0  0  0  0  0  0  0  0  0
   44.5830   42.3160   44.3700 C   0  0  0  0  0  0  0  0  0  0  0  0
   44.6090   42.4910   43.3040 H   0  0  0  0  0  0  0  0  0  0  0  0
   44.3940   43.3800   45.2380 C   0  0  0  0  0  0  0  0  0  0  0  0
   44.2790   44.3670   44.7650 H   0  0  0  0  0  0  0  0  0  0  0  0
   44.3340   43.3390   46.6150 C   0  0  0  0  0  3  0  0  0  0  0  0
   44.4820   42.0890   47.1700 C   0  0  0  0  0  3  0  0  0  0  0  0
  1 20  1  0  0  0  0
  2  7  1  0  0  0  0
  2  1  2  0  0  0  0
  3  2  1  0  0  0  0
  4  3  2  0  0  0  0
  4  5  1  0  0  0  0
  5  6  2  0  0  0  0
  6  1  1  0  0  0  0
  8  3  1  0  0  0  0
  9 10  1  0  0  0  0
 10 11  1  0  0  0  0
 11 12  2  0  0  0  0
 11  5  1  0  0  0  0
 12 16  1  0  0  0  0
 13 17  1  0  0  0  0
 13 12  1  0  0  0  0
 14 13  2  0  0  0  0
 15 14  1  0  0  0  0
 15 10  2  0  0  0  0
 18 14  1  0  0  0  0
 19 15  1  0  0  0  0
 21 20  2  0  0  0  0
 21 22  1  0  0  0  0
 22 24  1  0  0  0  0
 22 23  1  0  0  0  0
 25 22  1  0  0  0  0
 25 29  1  0  0  0  0
 26 25  1  0  0  0  0
 28 27  1  0  0  0  0
 28 35  1  0  0  0  0
 29 28  2  0  0  0  0
 30 29  1  0  0  0  0
 30 32  2  0  0  0  0
 31 30  1  0  0  0  0
 32 34  1  0  0  0  0
 33 32  1  0  0  0  0
 34 35  2  0  0  0  0
M  END
>  <minimizedAffinity>
-3.66032314

>  <minimizedRMSD>
1.31610394

$$$$
