
 OpenBabel03242517583D

 43 45  0  0  0  0  0  0  0  0999 V2000
   36.7260   30.4460   38.5720 C   0  0  0  0  0  0  0  0  0  0  0  0
   36.5150   30.4200   39.9100 C   0  0  0  0  0  0  0  0  0  0  0  0
   36.8840   31.5270   40.6490 C   0  0  0  0  0  0  0  0  0  0  0  0
   37.4530   32.6450   40.0850 C   0  0  0  0  0  0  0  0  0  0  0  0
   37.6620   32.6580   38.7240 C   0  0  0  0  0  0  0  0  0  0  0  0
   37.2940   31.5500   37.9740 C   0  0  0  0  0  0  0  0  0  0  0  0
   36.7510   31.5910   41.7210 H   0  0  0  0  0  0  0  0  0  0  0  0
   37.7440   33.5090   40.6460 H   0  0  0  0  0  0  0  0  0  0  0  0
   38.1070   33.5090   38.2170 H   0  0  0  0  0  0  0  0  0  0  0  0
   37.4360   31.5090   36.8980 H   0  0  0  0  0  0  0  0  0  0  0  0
   36.3420   28.9720   37.7120 S   0  0  0  0  0  0  0  0  0  0  0  0
   36.5840   27.7400   38.4860 O   0  0  0  0  0  0  0  0  0  0  0  0
   37.3520   28.9130   36.5420 O   0  0  0  0  0  0  0  0  0  0  0  0
   33.7540   28.8820   38.9970 F   0  0  0  0  0  0  0  0  0  0  0  0
   33.6830   29.0080   37.6510 C   0  0  0  0  0  0  0  0  0  0  0  0
   34.8180   29.0680   36.8700 C   0  0  0  0  0  0  0  0  0  0  0  0
   34.7540   29.1970   35.4890 C   0  0  0  0  0  0  0  0  0  0  0  0
   35.6860   29.2370   34.9400 H   0  0  0  0  0  0  0  0  0  0  0  0
   33.4780   29.2640   34.9180 C   0  0  0  0  0  0  0  0  0  0  0  0
   33.4740   29.3660   33.8270 H   0  0  0  0  0  0  0  0  0  0  0  0
   32.3470   29.2050   35.7050 C   0  0  0  0  0  3  0  0  0  0  0  0
   32.4270   29.0760   37.0750 C   0  0  0  0  0  3  0  0  0  0  0  0
   35.9510   29.3970   40.6630 O   0  0  0  0  0  0  0  0  0  0  0  0
   37.9480   28.5780   43.4550 C   0  0  0  0  0  0  0  0  0  0  0  0
   37.9220   27.1670   43.4430 C   0  0  0  0  0  0  0  0  0  0  0  0
   37.2130   26.5170   42.4680 C   0  0  0  0  0  0  0  0  0  0  0  0
   36.5820   27.2960   41.5770 N   0  0  0  0  0  0  0  0  0  0  0  0
   36.6050   28.6160   41.5860 C   0  0  0  0  0  0  0  0  0  0  0  0
   37.2890   29.2590   42.5270 N   0  0  0  0  0  0  0  0  0  0  0  0
   38.5060   29.1050   44.2230 H   0  0  0  0  0  0  0  0  0  0  0  0
   38.4850   26.6970   44.2280 H   0  0  0  0  0  0  0  0  0  0  0  0
   37.1350   25.0550   42.3550 C   0  0  0  0  0  0  0  0  0  0  0  0
   38.1310   24.6590   42.6420 H   0  0  0  0  0  0  0  0  0  0  0  0
   36.3380   24.7060   43.0570 H   0  0  0  0  0  0  0  0  0  0  0  0
   36.8150   24.5930   40.9650 C   0  0  0  0  0  0  0  0  0  0  0  0
   36.0100   23.8810   40.9070 H   0  0  0  0  0  0  0  0  0  0  0  0
   36.4130   25.5230   40.4470 H   0  0  0  0  0  0  0  0  0  0  0  0
   37.9950   24.2120   40.1890 C   0  0  0  0  0  3  0  0  0  0  0  0
   39.2330   24.6020   39.9150 C   0  0  0  0  0  3  0  0  0  0  0  0
   40.1780   23.9750   38.9100 C   0  0  0  0  0  0  0  0  0  0  0  0
   39.5940   23.2660   38.2530 H   0  0  0  0  0  0  0  0  0  0  0  0
   40.4930   24.7960   38.2360 H   0  0  0  0  0  0  0  0  0  0  0  0
   41.0480   23.5240   39.3850 H   0  0  0  0  0  0  0  0  0  0  0  0
  1  2  1  0  0  0  0
  2  3  2  0  0  0  0
  2 23  1  0  0  0  0
  3  7  1  0  0  0  0
  4  8  1  0  0  0  0
  4  3  1  0  0  0  0
  5  4  2  0  0  0  0
  6  1  2  0  0  0  0
  6  5  1  0  0  0  0
  9  5  1  0  0  0  0
 10  6  1  0  0  0  0
 11 12  2  0  0  0  0
 11  1  1  0  0  0  0
 13 11  2  0  0  0  0
 15 14  1  0  0  0  0
 16 15  2  0  0  0  0
 16 11  1  0  0  0  0
 17 16  1  0  0  0  0
 18 17  1  0  0  0  0
 19 17  2  0  0  0  0
 19 21  1  0  0  0  0
 20 19  1  0  0  0  0
 21 22  2  0  0  0  0
 22 15  1  0  0  0  0
 23 28  1  0  0  0  0
 24 30  1  0  0  0  0
 25 24  1  0  0  0  0
 25 31  1  0  0  0  0
 26 25  2  0  0  0  0
 27 28  2  0  0  0  0
 27 26  1  0  0  0  0
 28 29  1  0  0  0  0
 29 24  2  0  0  0  0
 32 26  1  0  0  0  0
 32 33  1  0  0  0  0
 32 34  1  0  0  0  0
 35 32  1  0  0  0  0
 36 35  1  0  0  0  0
 37 35  1  0  0  0  0
 38 35  1  0  0  0  0
 39 38  2  0  0  0  0
 40 43  1  0  0  0  0
 40 39  1  0  0  0  0
 41 40  1  0  0  0  0
 42 40  1  0  0  0  0
M  END
>  <minimizedAffinity>
-5.86679792

$$$$

 OpenBabel03242517583D

 43 45  0  0  0  0  0  0  0  0999 V2000
   38.5950   28.9270   42.1210 C   0  0  0  0  0  0  0  0  0  0  0  0
   38.7250   27.8830   41.2670 C   0  0  0  0  0  0  0  0  0  0  0  0
   38.0050   26.7340   41.5300 C   0  0  0  0  0  0  0  0  0  0  0  0
   37.1680   26.6090   42.6140 C   0  0  0  0  0  0  0  0  0  0  0  0
   37.0460   27.6780   43.4740 C   0  0  0  0  0  0  0  0  0  0  0  0
   37.7660   28.8360   43.2170 C   0  0  0  0  0  0  0  0  0  0  0  0
   38.0490   25.8550   40.9010 H   0  0  0  0  0  0  0  0  0  0  0  0
   36.6050   25.7240   42.8290 H   0  0  0  0  0  0  0  0  0  0  0  0
   36.4020   27.6430   44.3480 H   0  0  0  0  0  0  0  0  0  0  0  0
   37.7050   29.7070   43.8630 H   0  0  0  0  0  0  0  0  0  0  0  0
   39.6190   30.3070   41.7960 S   0  0  0  0  0  0  0  0  0  0  0  0
   40.9660   29.9600   41.3070 O   0  0  0  0  0  0  0  0  0  0  0  0
   39.8540   30.9690   43.1750 O   0  0  0  0  0  0  0  0  0  0  0  0
   40.7640   32.8810   41.1450 F   0  0  0  0  0  0  0  0  0  0  0  0
   39.4910   32.7320   40.7090 C   0  0  0  0  0  0  0  0  0  0  0  0
   38.7840   31.5680   40.9280 C   0  0  0  0  0  0  0  0  0  0  0  0
   37.4780   31.4070   40.4840 C   0  0  0  0  0  0  0  0  0  0  0  0
   36.9840   30.4670   40.6930 H   0  0  0  0  0  0  0  0  0  0  0  0
   36.9050   32.4850   39.7990 C   0  0  0  0  0  0  0  0  0  0  0  0
   35.8750   32.3150   39.4670 H   0  0  0  0  0  0  0  0  0  0  0  0
   37.6190   33.6450   39.5820 C   0  0  0  0  0  3  0  0  0  0  0  0
   38.9140   33.7900   40.0300 C   0  0  0  0  0  3  0  0  0  0  0  0
   39.5070   27.8130   40.1210 O   0  0  0  0  0  0  0  0  0  0  0  0
   39.0710   26.7930   36.7710 C   0  0  0  0  0  0  0  0  0  0  0  0
   38.2040   27.7840   36.2630 C   0  0  0  0  0  0  0  0  0  0  0  0
   37.7820   28.7930   37.0870 C   0  0  0  0  0  0  0  0  0  0  0  0
   38.2390   28.7570   38.3470 N   0  0  0  0  0  0  0  0  0  0  0  0
   39.0500   27.8320   38.8250 C   0  0  0  0  0  0  0  0  0  0  0  0
   39.4680   26.8470   38.0360 N   0  0  0  0  0  0  0  0  0  0  0  0
   39.4130   25.9880   36.1280 H   0  0  0  0  0  0  0  0  0  0  0  0
   37.9370   27.6650   35.2290 H   0  0  0  0  0  0  0  0  0  0  0  0
   36.8950   29.8800   36.6540 C   0  0  0  0  0  0  0  0  0  0  0  0
   36.2830   30.1630   37.5360 H   0  0  0  0  0  0  0  0  0  0  0  0
   37.5420   30.7270   36.3160 H   0  0  0  0  0  0  0  0  0  0  0  0
   35.9770   29.4770   35.5400 C   0  0  0  0  0  0  0  0  0  0  0  0
   35.7950   28.4190   35.4740 H   0  0  0  0  0  0  0  0  0  0  0  0
   34.9710   29.9230   35.8310 H   0  0  0  0  0  0  0  0  0  0  0  0
   36.3060   30.0990   34.2570 C   0  0  0  0  0  3  0  0  0  0  0  0
   36.0450   31.1720   33.5220 C   0  0  0  0  0  3  0  0  0  0  0  0
   36.5120   31.4320   32.1030 C   0  0  0  0  0  0  0  0  0  0  0  0
   36.9220   30.4720   31.6720 H   0  0  0  0  0  0  0  0  0  0  0  0
   35.5960   31.6410   31.5160 H   0  0  0  0  0  0  0  0  0  0  0  0
   37.1980   32.2750   32.0420 H   0  0  0  0  0  0  0  0  0  0  0  0
  1  6  1  0  0  0  0
  2  3  1  0  0  0  0
  2  1  2  0  0  0  0
  3  4  2  0  0  0  0
  4  8  1  0  0  0  0
  4  5  1  0  0  0  0
  5  9  1  0  0  0  0
  6  5  2  0  0  0  0
  6 10  1  0  0  0  0
  7  3  1  0  0  0  0
 11  1  1  0  0  0  0
 11 13  2  0  0  0  0
 12 11  2  0  0  0  0
 15 16  1  0  0  0  0
 15 14  1  0  0  0  0
 16 11  1  0  0  0  0
 17 18  1  0  0  0  0
 17 16  2  0  0  0  0
 19 17  1  0  0  0  0
 20 19  1  0  0  0  0
 21 19  2  0  0  0  0
 21 22  1  0  0  0  0
 22 15  2  0  0  0  0
 23  2  1  0  0  0  0
 24 29  1  0  0  0  0
 25 24  2  0  0  0  0
 25 26  1  0  0  0  0
 26 27  2  0  0  0  0
 27 28  1  0  0  0  0
 28 23  1  0  0  0  0
 29 28  2  0  0  0  0
 30 24  1  0  0  0  0
 31 25  1  0  0  0  0
 32 26  1  0  0  0  0
 32 33  1  0  0  0  0
 34 32  1  0  0  0  0
 35 37  1  0  0  0  0
 35 32  1  0  0  0  0
 36 35  1  0  0  0  0
 38 35  1  0  0  0  0
 39 38  2  0  0  0  0
 40 39  1  0  0  0  0
 41 40  1  0  0  0  0
 42 40  1  0  0  0  0
 43 40  1  0  0  0  0
M  END
>  <minimizedAffinity>
-5.82903719

$$$$

 OpenBabel03242517583D

 43 45  0  0  0  0  0  0  0  0999 V2000
   39.6400   31.5740   39.2550 C   0  0  0  0  0  0  0  0  0  0  0  0
   40.4610   30.8460   40.0500 C   0  0  0  0  0  0  0  0  0  0  0  0
   41.3380   31.5230   40.8740 C   0  0  0  0  0  0  0  0  0  0  0  0
   41.4090   32.8950   40.9220 C   0  0  0  0  0  0  0  0  0  0  0  0
   40.5690   33.6240   40.1090 C   0  0  0  0  0  0  0  0  0  0  0  0
   39.6850   32.9510   39.2770 C   0  0  0  0  0  0  0  0  0  0  0  0
   42.0270   31.0210   41.5400 H   0  0  0  0  0  0  0  0  0  0  0  0
   42.0840   33.4320   41.5560 H   0  0  0  0  0  0  0  0  0  0  0  0
   40.5750   34.7100   40.0990 H   0  0  0  0  0  0  0  0  0  0  0  0
   39.0010   33.4770   38.6170 H   0  0  0  0  0  0  0  0  0  0  0  0
   38.6370   30.6580   38.1530 S   0  0  0  0  0  0  0  0  0  0  0  0
   39.3700   29.6550   37.3590 O   0  0  0  0  0  0  0  0  0  0  0  0
   38.1260   31.6890   37.1200 O   0  0  0  0  0  0  0  0  0  0  0  0
   36.6840   28.9630   36.8610 F   0  0  0  0  0  0  0  0  0  0  0  0
   36.3410   29.3150   38.1210 C   0  0  0  0  0  0  0  0  0  0  0  0
   37.1520   30.1210   38.8930 C   0  0  0  0  0  0  0  0  0  0  0  0
   36.8060   30.4870   40.1870 C   0  0  0  0  0  0  0  0  0  0  0  0
   37.4910   31.1230   40.7340 H   0  0  0  0  0  0  0  0  0  0  0  0
   35.5900   30.0000   40.6800 C   0  0  0  0  0  0  0  0  0  0  0  0
   35.3580   30.3120   41.7040 H   0  0  0  0  0  0  0  0  0  0  0  0
   34.7850   29.1930   39.9030 C   0  0  0  0  0  3  0  0  0  0  0  0
   35.1410   28.8390   38.6200 C   0  0  0  0  0  3  0  0  0  0  0  0
   40.5380   29.4620   40.1530 O   0  0  0  0  0  0  0  0  0  0  0  0
   41.2040   27.2510   42.8210 C   0  0  0  0  0  0  0  0  0  0  0  0
   39.9740   27.2310   43.5120 C   0  0  0  0  0  0  0  0  0  0  0  0
   38.9300   27.9840   43.0460 C   0  0  0  0  0  0  0  0  0  0  0  0
   39.1670   28.7000   41.9370 N   0  0  0  0  0  0  0  0  0  0  0  0
   40.3160   28.7200   41.2890 C   0  0  0  0  0  0  0  0  0  0  0  0
   41.3380   27.9950   41.7300 N   0  0  0  0  0  0  0  0  0  0  0  0
   42.0410   26.6590   43.1810 H   0  0  0  0  0  0  0  0  0  0  0  0
   39.9540   26.6000   44.3820 H   0  0  0  0  0  0  0  0  0  0  0  0
   37.6060   28.0210   43.6800 C   0  0  0  0  0  0  0  0  0  0  0  0
   37.7200   27.5620   44.6830 H   0  0  0  0  0  0  0  0  0  0  0  0
   37.2980   29.0930   43.7520 H   0  0  0  0  0  0  0  0  0  0  0  0
   36.5700   27.2540   42.9140 C   0  0  0  0  0  0  0  0  0  0  0  0
   35.6570   27.0760   43.4550 H   0  0  0  0  0  0  0  0  0  0  0  0
   36.2710   27.9550   42.0690 H   0  0  0  0  0  0  0  0  0  0  0  0
   37.0990   26.0650   42.2440 C   0  0  0  0  0  3  0  0  0  0  0  0
   36.9270   24.7530   42.1610 C   0  0  0  0  0  3  0  0  0  0  0  0
   37.7990   23.7730   41.4000 C   0  0  0  0  0  0  0  0  0  0  0  0
   38.7570   24.2910   41.1030 H   0  0  0  0  0  0  0  0  0  0  0  0
   38.1050   23.0050   42.1370 H   0  0  0  0  0  0  0  0  0  0  0  0
   37.2700   23.3070   40.5700 H   0  0  0  0  0  0  0  0  0  0  0  0
  1  6  2  0  0  0  0
  1  2  1  0  0  0  0
  2 23  1  0  0  0  0
  2  3  2  0  0  0  0
  3  4  1  0  0  0  0
  3  7  1  0  0  0  0
  4  8  1  0  0  0  0
  5  4  2  0  0  0  0
  6  5  1  0  0  0  0
  9  5  1  0  0  0  0
 10  6  1  0  0  0  0
 11 16  1  0  0  0  0
 11  1  1  0  0  0  0
 12 11  2  0  0  0  0
 13 11  2  0  0  0  0
 14 15  1  0  0  0  0
 15 22  2  0  0  0  0
 15 16  1  0  0  0  0
 16 17  2  0  0  0  0
 17 19  1  0  0  0  0
 17 18  1  0  0  0  0
 19 20  1  0  0  0  0
 21 19  2  0  0  0  0
 22 21  1  0  0  0  0
 23 28  1  0  0  0  0
 24 30  1  0  0  0  0
 24 25  1  0  0  0  0
 25 31  1  0  0  0  0
 26 25  2  0  0  0  0
 26 32  1  0  0  0  0
 27 26  1  0  0  0  0
 28 29  1  0  0  0  0
 28 27  2  0  0  0  0
 29 24  2  0  0  0  0
 32 34  1  0  0  0  0
 32 33  1  0  0  0  0
 35 36  1  0  0  0  0
 35 32  1  0  0  0  0
 37 35  1  0  0  0  0
 38 35  1  0  0  0  0
 39 38  2  0  0  0  0
 40 42  1  0  0  0  0
 40 39  1  0  0  0  0
 41 40  1  0  0  0  0
 43 40  1  0  0  0  0
M  END
>  <minimizedAffinity>
-5.76322746

$$$$

 OpenBabel03242517583D

 43 45  0  0  0  0  0  0  0  0999 V2000
   37.4320   24.8390   40.3650 C   0  0  0  0  0  0  0  0  0  0  0  0
   37.2980   25.5360   39.2110 C   0  0  0  0  0  0  0  0  0  0  0  0
   36.2690   25.1900   38.3570 C   0  0  0  0  0  0  0  0  0  0  0  0
   35.3820   24.1760   38.6300 C   0  0  0  0  0  0  0  0  0  0  0  0
   35.5290   23.4750   39.8070 C   0  0  0  0  0  0  0  0  0  0  0  0
   36.5610   23.8160   40.6700 C   0  0  0  0  0  0  0  0  0  0  0  0
   36.0900   25.6940   37.4170 H   0  0  0  0  0  0  0  0  0  0  0  0
   34.5800   23.8970   37.9770 H   0  0  0  0  0  0  0  0  0  0  0  0
   34.8630   22.6630   40.0810 H   0  0  0  0  0  0  0  0  0  0  0  0
   36.7210   23.2970   41.6100 H   0  0  0  0  0  0  0  0  0  0  0  0
   38.8210   25.2500   41.3450 S   0  0  0  0  0  0  0  0  0  0  0  0
   40.1180   24.9170   40.7270 O   0  0  0  0  0  0  0  0  0  0  0  0
   38.7240   24.3330   42.5870 O   0  0  0  0  0  0  0  0  0  0  0  0
   36.5510   26.1720   42.8800 F   0  0  0  0  0  0  0  0  0  0  0  0
   37.5290   27.0990   42.7560 C   0  0  0  0  0  0  0  0  0  0  0  0
   38.6890   26.8360   42.0570 C   0  0  0  0  0  0  0  0  0  0  0  0
   39.6970   27.7820   41.9260 C   0  0  0  0  0  0  0  0  0  0  0  0
   40.5800   27.5070   41.3630 H   0  0  0  0  0  0  0  0  0  0  0  0
   39.4860   29.0240   42.5370 C   0  0  0  0  0  0  0  0  0  0  0  0
   40.3050   29.7380   42.4080 H   0  0  0  0  0  0  0  0  0  0  0  0
   38.3240   29.2790   43.2350 C   0  0  0  0  0  3  0  0  0  0  0  0
   37.3310   28.3300   43.3560 C   0  0  0  0  0  3  0  0  0  0  0  0
   38.0810   26.5920   38.7580 O   0  0  0  0  0  0  0  0  0  0  0  0
   37.2620   29.4810   36.9050 C   0  0  0  0  0  0  0  0  0  0  0  0
   36.8150   30.3680   37.9080 C   0  0  0  0  0  0  0  0  0  0  0  0
   36.8020   29.9540   39.2130 C   0  0  0  0  0  0  0  0  0  0  0  0
   37.2280   28.7020   39.4400 N   0  0  0  0  0  0  0  0  0  0  0  0
   37.6470   27.8710   38.5040 C   0  0  0  0  0  0  0  0  0  0  0  0
   37.6650   28.2600   37.2340 N   0  0  0  0  0  0  0  0  0  0  0  0
   37.2770   29.7970   35.8660 H   0  0  0  0  0  0  0  0  0  0  0  0
   36.5110   31.3360   37.5540 H   0  0  0  0  0  0  0  0  0  0  0  0
   36.3720   30.8010   40.3320 C   0  0  0  0  0  0  0  0  0  0  0  0
   35.2910   31.0010   40.1840 H   0  0  0  0  0  0  0  0  0  0  0  0
   36.5580   30.2310   41.2760 H   0  0  0  0  0  0  0  0  0  0  0  0
   37.1010   32.1100   40.3870 C   0  0  0  0  0  0  0  0  0  0  0  0
   36.9040   32.7640   39.5570 H   0  0  0  0  0  0  0  0  0  0  0  0
   36.6510   32.6430   41.2860 H   0  0  0  0  0  0  0  0  0  0  0  0
   38.5230   31.9740   40.7060 C   0  0  0  0  0  3  0  0  0  0  0  0
   39.6280   32.6900   40.8690 C   0  0  0  0  0  3  0  0  0  0  0  0
   41.0280   32.1550   41.0930 C   0  0  0  0  0  0  0  0  0  0  0  0
   41.0360   31.0480   40.8670 H   0  0  0  0  0  0  0  0  0  0  0  0
   41.6580   32.6130   40.3050 H   0  0  0  0  0  0  0  0  0  0  0  0
   41.4150   32.4100   42.0790 H   0  0  0  0  0  0  0  0  0  0  0  0
  1  6  1  0  0  0  0
  1 11  1  0  0  0  0
  2  1  2  0  0  0  0
  3  4  2  0  0  0  0
  3  2  1  0  0  0  0
  4  5  1  0  0  0  0
  5  9  1  0  0  0  0
  5  6  2  0  0  0  0
  6 10  1  0  0  0  0
  7  3  1  0  0  0  0
  8  4  1  0  0  0  0
 11 16  1  0  0  0  0
 11 13  2  0  0  0  0
 12 11  2  0  0  0  0
 15 14  1  0  0  0  0
 15 22  1  0  0  0  0
 16 15  2  0  0  0  0
 17 16  1  0  0  0  0
 17 19  2  0  0  0  0
 18 17  1  0  0  0  0
 19 21  1  0  0  0  0
 20 19  1  0  0  0  0
 21 22  2  0  0  0  0
 23  2  1  0  0  0  0
 24 29  2  0  0  0  0
 24 25  1  0  0  0  0
 25 26  2  0  0  0  0
 26 27  1  0  0  0  0
 26 32  1  0  0  0  0
 28 23  1  0  0  0  0
 28 27  2  0  0  0  0
 29 28  1  0  0  0  0
 30 24  1  0  0  0  0
 31 25  1  0  0  0  0
 32 35  1  0  0  0  0
 32 34  1  0  0  0  0
 33 32  1  0  0  0  0
 35 38  1  0  0  0  0
 35 37  1  0  0  0  0
 36 35  1  0  0  0  0
 38 39  2  0  0  0  0
 39 40  1  0  0  0  0
 40 43  1  0  0  0  0
 41 40  1  0  0  0  0
 42 40  1  0  0  0  0
M  END
>  <minimizedAffinity>
-5.56253195

$$$$

 OpenBabel03242517583D

 43 45  0  0  0  0  0  0  0  0999 V2000
   38.5870   24.2270   40.5930 C   0  0  0  0  0  0  0  0  0  0  0  0
   38.4440   24.8670   39.4080 C   0  0  0  0  0  0  0  0  0  0  0  0
   37.7720   24.2150   38.3930 C   0  0  0  0  0  0  0  0  0  0  0  0
   37.2450   22.9530   38.5370 C   0  0  0  0  0  0  0  0  0  0  0  0
   37.3970   22.3130   39.7490 C   0  0  0  0  0  0  0  0  0  0  0  0
   38.0720   22.9620   40.7730 C   0  0  0  0  0  0  0  0  0  0  0  0
   37.6120   24.6520   37.4170 H   0  0  0  0  0  0  0  0  0  0  0  0
   36.7220   22.4360   37.7590 H   0  0  0  0  0  0  0  0  0  0  0  0
   37.0050   21.3170   39.9270 H   0  0  0  0  0  0  0  0  0  0  0  0
   38.2190   22.5030   41.7460 H   0  0  0  0  0  0  0  0  0  0  0  0
   39.5460   25.0590   41.7970 S   0  0  0  0  0  0  0  0  0  0  0  0
   40.9710   25.1990   41.4450 O   0  0  0  0  0  0  0  0  0  0  0  0
   39.5300   24.1330   43.0360 O   0  0  0  0  0  0  0  0  0  0  0  0
   36.7580   25.1970   42.5480 F   0  0  0  0  0  0  0  0  0  0  0  0
   37.4180   26.3670   42.7120 C   0  0  0  0  0  0  0  0  0  0  0  0
   38.7570   26.4900   42.4050 C   0  0  0  0  0  0  0  0  0  0  0  0
   39.4420   27.6870   42.5710 C   0  0  0  0  0  0  0  0  0  0  0  0
   40.4920   27.7110   42.3090 H   0  0  0  0  0  0  0  0  0  0  0  0
   38.7090   28.7730   43.0650 C   0  0  0  0  0  0  0  0  0  0  0  0
   39.2880   29.6960   43.1800 H   0  0  0  0  0  0  0  0  0  0  0  0
   37.3700   28.6420   43.3710 C   0  0  0  0  0  3  0  0  0  0  0  0
   36.7050   27.4480   43.2010 C   0  0  0  0  0  3  0  0  0  0  0  0
   38.8950   26.1360   39.0670 O   0  0  0  0  0  0  0  0  0  0  0  0
   37.9010   28.5430   36.6840 C   0  0  0  0  0  0  0  0  0  0  0  0
   36.7410   29.0900   37.2720 C   0  0  0  0  0  0  0  0  0  0  0  0
   36.3170   28.6190   38.4860 C   0  0  0  0  0  0  0  0  0  0  0  0
   37.0610   27.6470   39.0340 N   0  0  0  0  0  0  0  0  0  0  0  0
   38.1460   27.1330   38.4870 C   0  0  0  0  0  0  0  0  0  0  0  0
   38.5690   27.5810   37.3090 N   0  0  0  0  0  0  0  0  0  0  0  0
   38.2480   28.9070   35.7210 H   0  0  0  0  0  0  0  0  0  0  0  0
   36.2660   29.8660   36.6990 H   0  0  0  0  0  0  0  0  0  0  0  0
   35.1350   29.1310   39.1910 C   0  0  0  0  0  0  0  0  0  0  0  0
   34.6920   29.9140   38.5420 H   0  0  0  0  0  0  0  0  0  0  0  0
   34.4330   28.2730   39.3360 H   0  0  0  0  0  0  0  0  0  0  0  0
   35.4660   29.7360   40.5220 C   0  0  0  0  0  0  0  0  0  0  0  0
   34.6230   29.8510   41.1800 H   0  0  0  0  0  0  0  0  0  0  0  0
   36.1220   28.9570   41.0290 H   0  0  0  0  0  0  0  0  0  0  0  0
   36.3070   30.9300   40.4280 C   0  0  0  0  0  3  0  0  0  0  0  0
   37.5460   31.3510   40.6410 C   0  0  0  0  0  3  0  0  0  0  0  0
   38.0490   32.7770   40.5340 C   0  0  0  0  0  0  0  0  0  0  0  0
   37.1620   33.4730   40.4740 H   0  0  0  0  0  0  0  0  0  0  0  0
   38.5260   33.0050   41.5070 H   0  0  0  0  0  0  0  0  0  0  0  0
   38.7670   32.9030   39.7250 H   0  0  0  0  0  0  0  0  0  0  0  0
  1  6  1  0  0  0  0
  1 11  1  0  0  0  0
  2  1  2  0  0  0  0
  3  4  2  0  0  0  0
  3  2  1  0  0  0  0
  4  5  1  0  0  0  0
  5  9  1  0  0  0  0
  5  6  2  0  0  0  0
  6 10  1  0  0  0  0
  7  3  1  0  0  0  0
  8  4  1  0  0  0  0
 11 16  1  0  0  0  0
 11 13  2  0  0  0  0
 12 11  2  0  0  0  0
 14 15  1  0  0  0  0
 15 22  1  0  0  0  0
 16 17  1  0  0  0  0
 16 15  2  0  0  0  0
 17 19  2  0  0  0  0
 18 17  1  0  0  0  0
 19 20  1  0  0  0  0
 19 21  1  0  0  0  0
 22 21  2  0  0  0  0
 23  2  1  0  0  0  0
 24 25  2  0  0  0  0
 24 29  1  0  0  0  0
 25 26  1  0  0  0  0
 26 27  2  0  0  0  0
 26 32  1  0  0  0  0
 28 27  1  0  0  0  0
 28 23  1  0  0  0  0
 29 28  2  0  0  0  0
 30 24  1  0  0  0  0
 31 25  1  0  0  0  0
 32 34  1  0  0  0  0
 32 35  1  0  0  0  0
 33 32  1  0  0  0  0
 35 37  1  0  0  0  0
 35 36  1  0  0  0  0
 38 35  1  0  0  0  0
 38 39  2  0  0  0  0
 40 39  1  0  0  0  0
 40 42  1  0  0  0  0
 41 40  1  0  0  0  0
 43 40  1  0  0  0  0
M  END
>  <minimizedAffinity>
-5.56018019

$$$$

 OpenBabel03242517583D

 43 45  0  0  0  0  0  0  0  0999 V2000
   37.5790   24.8020   40.4360 C   0  0  0  0  0  0  0  0  0  0  0  0
   37.6140   25.3670   39.2050 C   0  0  0  0  0  0  0  0  0  0  0  0
   36.6350   25.0130   38.2980 C   0  0  0  0  0  0  0  0  0  0  0  0
   35.6330   24.1180   38.5930 C   0  0  0  0  0  0  0  0  0  0  0  0
   35.6080   23.5520   39.8490 C   0  0  0  0  0  0  0  0  0  0  0  0
   36.5890   23.9030   40.7660 C   0  0  0  0  0  0  0  0  0  0  0  0
   36.5880   25.4150   37.2950 H   0  0  0  0  0  0  0  0  0  0  0  0
   34.8680   23.8350   37.9000 H   0  0  0  0  0  0  0  0  0  0  0  0
   34.8450   22.8390   40.1450 H   0  0  0  0  0  0  0  0  0  0  0  0
   36.6160   23.4860   41.7690 H   0  0  0  0  0  0  0  0  0  0  0  0
   38.9110   25.2050   41.4970 S   0  0  0  0  0  0  0  0  0  0  0  0
   40.2360   24.8160   40.9780 O   0  0  0  0  0  0  0  0  0  0  0  0
   38.7030   24.3300   42.7560 O   0  0  0  0  0  0  0  0  0  0  0  0
   36.5760   26.2360   42.8540 F   0  0  0  0  0  0  0  0  0  0  0  0
   37.5870   27.1320   42.7650 C   0  0  0  0  0  0  0  0  0  0  0  0
   38.7800   26.8160   42.1500 C   0  0  0  0  0  0  0  0  0  0  0  0
   39.8220   27.7300   42.0550 C   0  0  0  0  0  0  0  0  0  0  0  0
   40.7300   27.4130   41.5580 H   0  0  0  0  0  0  0  0  0  0  0  0
   39.6080   28.9950   42.6130 C   0  0  0  0  0  0  0  0  0  0  0  0
   40.4540   29.6830   42.5160 H   0  0  0  0  0  0  0  0  0  0  0  0
   38.4120   29.3040   43.2280 C   0  0  0  0  0  3  0  0  0  0  0  0
   37.3870   28.3860   43.3140 C   0  0  0  0  0  3  0  0  0  0  0  0
   38.5330   26.2890   38.7180 O   0  0  0  0  0  0  0  0  0  0  0  0
   39.5170   29.6730   38.5220 C   0  0  0  0  0  0  0  0  0  0  0  0
   38.4130   30.3420   39.0920 C   0  0  0  0  0  0  0  0  0  0  0  0
   37.3420   29.6140   39.5380 C   0  0  0  0  0  0  0  0  0  0  0  0
   37.4310   28.2840   39.3910 N   0  0  0  0  0  0  0  0  0  0  0  0
   38.4620   27.6550   38.8580 C   0  0  0  0  0  0  0  0  0  0  0  0
   39.5070   28.3490   38.4220 N   0  0  0  0  0  0  0  0  0  0  0  0
   40.3720   30.2390   38.1640 H   0  0  0  0  0  0  0  0  0  0  0  0
   38.5060   31.4120   39.1360 H   0  0  0  0  0  0  0  0  0  0  0  0
   36.1540   30.2100   40.1610 C   0  0  0  0  0  0  0  0  0  0  0  0
   36.4780   30.6160   41.1420 H   0  0  0  0  0  0  0  0  0  0  0  0
   35.7900   31.0200   39.4820 H   0  0  0  0  0  0  0  0  0  0  0  0
   35.0550   29.2170   40.3900 C   0  0  0  0  0  0  0  0  0  0  0  0
   35.3870   28.2590   40.7490 H   0  0  0  0  0  0  0  0  0  0  0  0
   34.4570   29.6560   41.2540 H   0  0  0  0  0  0  0  0  0  0  0  0
   34.1030   29.1330   39.2820 C   0  0  0  0  0  3  0  0  0  0  0  0
   34.0270   28.8210   37.9950 C   0  0  0  0  0  3  0  0  0  0  0  0
   32.8160   28.9780   37.0960 C   0  0  0  0  0  0  0  0  0  0  0  0
   32.0520   29.6210   37.6220 H   0  0  0  0  0  0  0  0  0  0  0  0
   33.1560   29.5840   36.2330 H   0  0  0  0  0  0  0  0  0  0  0  0
   32.4290   28.0200   36.7520 H   0  0  0  0  0  0  0  0  0  0  0  0
  1  6  1  0  0  0  0
  1 11  1  0  0  0  0
  2  1  2  0  0  0  0
  3  4  2  0  0  0  0
  3  2  1  0  0  0  0
  4  5  1  0  0  0  0
  5  9  1  0  0  0  0
  5  6  2  0  0  0  0
  6 10  1  0  0  0  0
  7  3  1  0  0  0  0
  8  4  1  0  0  0  0
 11 16  1  0  0  0  0
 11 13  2  0  0  0  0
 12 11  2  0  0  0  0
 15 14  1  0  0  0  0
 15 22  1  0  0  0  0
 16 15  2  0  0  0  0
 17 16  1  0  0  0  0
 17 19  2  0  0  0  0
 18 17  1  0  0  0  0
 19 21  1  0  0  0  0
 20 19  1  0  0  0  0
 21 22  2  0  0  0  0
 23 28  1  0  0  0  0
 23  2  1  0  0  0  0
 24 25  1  0  0  0  0
 25 31  1  0  0  0  0
 25 26  2  0  0  0  0
 26 32  1  0  0  0  0
 27 26  1  0  0  0  0
 28 27  2  0  0  0  0
 29 24  2  0  0  0  0
 29 28  1  0  0  0  0
 30 24  1  0  0  0  0
 32 35  1  0  0  0  0
 32 33  1  0  0  0  0
 34 32  1  0  0  0  0
 35 36  1  0  0  0  0
 35 37  1  0  0  0  0
 38 35  1  0  0  0  0
 39 38  2  0  0  0  0
 40 41  1  0  0  0  0
 40 39  1  0  0  0  0
 42 40  1  0  0  0  0
 43 40  1  0  0  0  0
M  END
>  <minimizedAffinity>
-5.55056381

$$$$

 OpenBabel03242517583D

 43 45  0  0  0  0  0  0  0  0999 V2000
   38.1400   31.1960   39.9200 C   0  0  0  0  0  0  0  0  0  0  0  0
   39.4880   31.3220   39.9710 C   0  0  0  0  0  0  0  0  0  0  0  0
   40.0220   32.5940   40.0070 C   0  0  0  0  0  0  0  0  0  0  0  0
   39.2460   33.7300   39.9940 C   0  0  0  0  0  0  0  0  0  0  0  0
   37.8760   33.5870   39.9430 C   0  0  0  0  0  0  0  0  0  0  0  0
   37.3320   32.3120   39.9060 C   0  0  0  0  0  0  0  0  0  0  0  0
   41.0850   32.7860   40.0480 H   0  0  0  0  0  0  0  0  0  0  0  0
   39.6470   34.7220   40.0220 H   0  0  0  0  0  0  0  0  0  0  0  0
   37.2080   34.4430   39.9300 H   0  0  0  0  0  0  0  0  0  0  0  0
   36.2600   32.1440   39.8650 H   0  0  0  0  0  0  0  0  0  0  0  0
   37.5330   29.5620   39.7600 S   0  0  0  0  0  0  0  0  0  0  0  0
   38.2100   28.7640   38.7210 O   0  0  0  0  0  0  0  0  0  0  0  0
   36.0790   29.7200   39.2580 O   0  0  0  0  0  0  0  0  0  0  0  0
   36.6270   26.8380   40.0980 F   0  0  0  0  0  0  0  0  0  0  0  0
   36.8620   27.4760   41.2680 C   0  0  0  0  0  0  0  0  0  0  0  0
   37.3010   28.7840   41.3030 C   0  0  0  0  0  0  0  0  0  0  0  0
   37.5440   29.4450   42.4990 C   0  0  0  0  0  0  0  0  0  0  0  0
   37.8860   30.4710   42.4510 H   0  0  0  0  0  0  0  0  0  0  0  0
   37.3230   28.7240   43.6790 C   0  0  0  0  0  0  0  0  0  0  0  0
   37.5270   29.2840   44.5970 H   0  0  0  0  0  0  0  0  0  0  0  0
   36.8850   27.4170   43.6360 C   0  0  0  0  0  3  0  0  0  0  0  0
   36.6470   26.7740   42.4410 C   0  0  0  0  0  3  0  0  0  0  0  0
   40.4370   30.3060   39.9970 O   0  0  0  0  0  0  0  0  0  0  0  0
   42.9040   30.0260   42.5050 C   0  0  0  0  0  0  0  0  0  0  0  0
   42.4180   28.9590   43.2900 C   0  0  0  0  0  0  0  0  0  0  0  0
   41.2420   28.3500   42.9410 C   0  0  0  0  0  0  0  0  0  0  0  0
   40.6290   28.8310   41.8500 N   0  0  0  0  0  0  0  0  0  0  0  0
   41.0810   29.8290   41.1140 C   0  0  0  0  0  0  0  0  0  0  0  0
   42.2210   30.4280   41.4400 N   0  0  0  0  0  0  0  0  0  0  0  0
   43.8350   30.5180   42.7710 H   0  0  0  0  0  0  0  0  0  0  0  0
   43.0350   28.6970   44.1300 H   0  0  0  0  0  0  0  0  0  0  0  0
   40.6580   27.2230   43.6790 C   0  0  0  0  0  0  0  0  0  0  0  0
   40.9820   27.3310   44.7350 H   0  0  0  0  0  0  0  0  0  0  0  0
   39.5470   27.2970   43.5820 H   0  0  0  0  0  0  0  0  0  0  0  0
   41.1170   25.8900   43.1680 C   0  0  0  0  0  0  0  0  0  0  0  0
   41.9650   25.9340   42.5090 H   0  0  0  0  0  0  0  0  0  0  0  0
   41.5010   25.3520   44.0940 H   0  0  0  0  0  0  0  0  0  0  0  0
   40.0270   25.0490   42.6710 C   0  0  0  0  0  3  0  0  0  0  0  0
   39.4850   24.6030   41.5460 C   0  0  0  0  0  3  0  0  0  0  0  0
   38.2110   23.7920   41.4150 C   0  0  0  0  0  0  0  0  0  0  0  0
   37.6580   23.8190   42.3990 H   0  0  0  0  0  0  0  0  0  0  0  0
   37.5670   24.3510   40.7080 H   0  0  0  0  0  0  0  0  0  0  0  0
   38.3970   22.7870   41.0390 H   0  0  0  0  0  0  0  0  0  0  0  0
  1  2  1  0  0  0  0
  2 23  1  0  0  0  0
  2  3  2  0  0  0  0
  3  7  1  0  0  0  0
  4  3  1  0  0  0  0
  4  8  1  0  0  0  0
  5  4  2  0  0  0  0
  6  1  2  0  0  0  0
  6  5  1  0  0  0  0
  9  5  1  0  0  0  0
 10  6  1  0  0  0  0
 11  1  1  0  0  0  0
 11 16  1  0  0  0  0
 12 11  2  0  0  0  0
 13 11  2  0  0  0  0
 14 15  1  0  0  0  0
 15 16  2  0  0  0  0
 15 22  1  0  0  0  0
 16 17  1  0  0  0  0
 17 19  2  0  0  0  0
 18 17  1  0  0  0  0
 19 20  1  0  0  0  0
 21 19  1  0  0  0  0
 22 21  2  0  0  0  0
 23 28  1  0  0  0  0
 24 30  1  0  0  0  0
 24 25  1  0  0  0  0
 25 31  1  0  0  0  0
 26 25  2  0  0  0  0
 26 32  1  0  0  0  0
 27 26  1  0  0  0  0
 28 29  1  0  0  0  0
 28 27  2  0  0  0  0
 29 24  2  0  0  0  0
 32 33  1  0  0  0  0
 34 32  1  0  0  0  0
 35 32  1  0  0  0  0
 35 37  1  0  0  0  0
 36 35  1  0  0  0  0
 38 35  1  0  0  0  0
 39 38  2  0  0  0  0
 40 39  1  0  0  0  0
 40 41  1  0  0  0  0
 42 40  1  0  0  0  0
 43 40  1  0  0  0  0
M  END
>  <minimizedAffinity>
-5.48856306

$$$$

 OpenBabel03242517583D

 43 45  0  0  0  0  0  0  0  0999 V2000
   36.6810   28.9140   41.2400 C   0  0  0  0  0  0  0  0  0  0  0  0
   37.4900   29.7550   40.5510 C   0  0  0  0  0  0  0  0  0  0  0  0
   37.0300   30.2660   39.3540 C   0  0  0  0  0  0  0  0  0  0  0  0
   35.7930   29.9590   38.8370 C   0  0  0  0  0  0  0  0  0  0  0  0
   34.9800   29.1030   39.5480 C   0  0  0  0  0  0  0  0  0  0  0  0
   35.4360   28.5850   40.7520 C   0  0  0  0  0  0  0  0  0  0  0  0
   37.6100   30.9430   38.7410 H   0  0  0  0  0  0  0  0  0  0  0  0
   35.4240   30.3470   37.9100 H   0  0  0  0  0  0  0  0  0  0  0  0
   33.9930   28.8200   39.1960 H   0  0  0  0  0  0  0  0  0  0  0  0
   34.8350   27.9070   41.3520 H   0  0  0  0  0  0  0  0  0  0  0  0
   37.3680   28.2140   42.6890 S   0  0  0  0  0  0  0  0  0  0  0  0
   36.3790   27.5850   43.5840 O   0  0  0  0  0  0  0  0  0  0  0  0
   37.9260   29.4130   43.4910 O   0  0  0  0  0  0  0  0  0  0  0  0
   37.4440   25.7910   41.1140 F   0  0  0  0  0  0  0  0  0  0  0  0
   38.6550   26.1610   41.5920 C   0  0  0  0  0  0  0  0  0  0  0  0
   38.8120   27.2930   42.3650 C   0  0  0  0  0  0  0  0  0  0  0  0
   40.0510   27.6780   42.8600 C   0  0  0  0  0  0  0  0  0  0  0  0
   40.0990   28.5780   43.4600 H   0  0  0  0  0  0  0  0  0  0  0  0
   41.1430   26.8630   42.5390 C   0  0  0  0  0  0  0  0  0  0  0  0
   42.0990   27.2040   42.9490 H   0  0  0  0  0  0  0  0  0  0  0  0
   40.9790   25.7340   41.7650 C   0  0  0  0  0  3  0  0  0  0  0  0
   39.7420   25.3630   41.2810 C   0  0  0  0  0  3  0  0  0  0  0  0
   38.7620   30.1910   40.9040 O   0  0  0  0  0  0  0  0  0  0  0  0
   39.1170   33.7010   40.8180 C   0  0  0  0  0  0  0  0  0  0  0  0
   40.3080   33.8670   40.0790 C   0  0  0  0  0  0  0  0  0  0  0  0
   40.9720   32.7620   39.6200 C   0  0  0  0  0  0  0  0  0  0  0  0
   40.4230   31.5750   39.9180 N   0  0  0  0  0  0  0  0  0  0  0  0
   39.3100   31.4170   40.6090 C   0  0  0  0  0  0  0  0  0  0  0  0
   38.6540   32.4810   41.0610 N   0  0  0  0  0  0  0  0  0  0  0  0
   38.5800   34.5690   41.1890 H   0  0  0  0  0  0  0  0  0  0  0  0
   40.6070   34.8880   39.9270 H   0  0  0  0  0  0  0  0  0  0  0  0
   42.2080   32.8250   38.8280 C   0  0  0  0  0  0  0  0  0  0  0  0
   42.7120   33.7750   39.1000 H   0  0  0  0  0  0  0  0  0  0  0  0
   42.8290   31.9370   39.1040 H   0  0  0  0  0  0  0  0  0  0  0  0
   41.9560   32.8180   37.3500 C   0  0  0  0  0  0  0  0  0  0  0  0
   41.0090   33.2370   37.0590 H   0  0  0  0  0  0  0  0  0  0  0  0
   42.7290   33.5400   36.9310 H   0  0  0  0  0  0  0  0  0  0  0  0
   42.2550   31.5360   36.7120 C   0  0  0  0  0  3  0  0  0  0  0  0
   43.2680   30.8050   36.2670 C   0  0  0  0  0  3  0  0  0  0  0  0
   43.1750   29.4940   35.5120 C   0  0  0  0  0  0  0  0  0  0  0  0
   42.1080   29.3430   35.1730 H   0  0  0  0  0  0  0  0  0  0  0  0
   43.7530   29.6400   34.5780 H   0  0  0  0  0  0  0  0  0  0  0  0
   43.5820   28.6590   36.0800 H   0  0  0  0  0  0  0  0  0  0  0  0
  1 11  1  0  0  0  0
  2 23  1  0  0  0  0
  2  1  2  0  0  0  0
  3  2  1  0  0  0  0
  4  3  2  0  0  0  0
  4  5  1  0  0  0  0
  5  6  2  0  0  0  0
  6  1  1  0  0  0  0
  6 10  1  0  0  0  0
  7  3  1  0  0  0  0
  8  4  1  0  0  0  0
  9  5  1  0  0  0  0
 11 13  2  0  0  0  0
 11 12  2  0  0  0  0
 14 15  1  0  0  0  0
 15 16  1  0  0  0  0
 16 11  1  0  0  0  0
 16 17  2  0  0  0  0
 17 18  1  0  0  0  0
 19 17  1  0  0  0  0
 19 20  1  0  0  0  0
 21 19  2  0  0  0  0
 22 15  2  0  0  0  0
 22 21  1  0  0  0  0
 24 29  1  0  0  0  0
 24 30  1  0  0  0  0
 25 24  2  0  0  0  0
 26 27  2  0  0  0  0
 26 25  1  0  0  0  0
 27 28  1  0  0  0  0
 28 23  1  0  0  0  0
 28 29  2  0  0  0  0
 31 25  1  0  0  0  0
 32 33  1  0  0  0  0
 32 34  1  0  0  0  0
 32 26  1  0  0  0  0
 35 32  1  0  0  0  0
 36 35  1  0  0  0  0
 37 35  1  0  0  0  0
 38 35  1  0  0  0  0
 39 38  2  0  0  0  0
 40 43  1  0  0  0  0
 40 39  1  0  0  0  0
 41 40  1  0  0  0  0
 42 40  1  0  0  0  0
M  END
>  <minimizedAffinity>
-5.43729258

$$$$

 OpenBabel03242517583D

 43 45  0  0  0  0  0  0  0  0999 V2000
   38.5050   28.3710   41.6520 C   0  0  0  0  0  0  0  0  0  0  0  0
   37.7980   27.4840   40.9110 C   0  0  0  0  0  0  0  0  0  0  0  0
   36.9590   26.6070   41.5710 C   0  0  0  0  0  0  0  0  0  0  0  0
   36.8140   26.5990   42.9380 C   0  0  0  0  0  0  0  0  0  0  0  0
   37.5390   27.5070   43.6790 C   0  0  0  0  0  0  0  0  0  0  0  0
   38.3830   28.3910   43.0240 C   0  0  0  0  0  0  0  0  0  0  0  0
   36.3590   25.8680   41.0580 H   0  0  0  0  0  0  0  0  0  0  0  0
   36.1680   25.9250   43.4620 H   0  0  0  0  0  0  0  0  0  0  0  0
   37.4700   27.5520   44.7620 H   0  0  0  0  0  0  0  0  0  0  0  0
   38.9760   29.1260   43.5600 H   0  0  0  0  0  0  0  0  0  0  0  0
   39.6310   29.3750   40.7660 S   0  0  0  0  0  0  0  0  0  0  0  0
   40.3740   28.6630   39.7090 O   0  0  0  0  0  0  0  0  0  0  0  0
   40.7060   29.7850   41.8020 O   0  0  0  0  0  0  0  0  0  0  0  0
   41.1590   31.6190   39.7720 F   0  0  0  0  0  0  0  0  0  0  0  0
   39.8330   31.8710   39.8700 C   0  0  0  0  0  0  0  0  0  0  0  0
   38.9470   30.9170   40.3250 C   0  0  0  0  0  0  0  0  0  0  0  0
   37.5860   31.1680   40.4290 C   0  0  0  0  0  0  0  0  0  0  0  0
   36.9490   30.3720   40.7950 H   0  0  0  0  0  0  0  0  0  0  0  0
   37.1460   32.4410   40.0480 C   0  0  0  0  0  0  0  0  0  0  0  0
   36.0660   32.5960   40.1450 H   0  0  0  0  0  0  0  0  0  0  0  0
   38.0370   33.3900   39.5920 C   0  0  0  0  0  3  0  0  0  0  0  0
   39.3860   33.1260   39.4960 C   0  0  0  0  0  3  0  0  0  0  0  0
   37.7990   27.3370   39.5290 O   0  0  0  0  0  0  0  0  0  0  0  0
   35.4760   25.7640   37.3880 C   0  0  0  0  0  0  0  0  0  0  0  0
   34.5460   26.7960   37.1400 C   0  0  0  0  0  0  0  0  0  0  0  0
   34.7350   28.0230   37.7180 C   0  0  0  0  0  0  0  0  0  0  0  0
   35.8200   28.1490   38.4960 N   0  0  0  0  0  0  0  0  0  0  0  0
   36.6920   27.1860   38.7290 C   0  0  0  0  0  0  0  0  0  0  0  0
   36.5210   25.9910   38.1750 N   0  0  0  0  0  0  0  0  0  0  0  0
   35.3380   24.7860   36.9370 H   0  0  0  0  0  0  0  0  0  0  0  0
   33.7330   26.5260   36.4910 H   0  0  0  0  0  0  0  0  0  0  0  0
   33.8370   29.1670   37.5120 C   0  0  0  0  0  0  0  0  0  0  0  0
   33.5600   29.5400   38.5200 H   0  0  0  0  0  0  0  0  0  0  0  0
   34.4010   29.9360   36.9310 H   0  0  0  0  0  0  0  0  0  0  0  0
   32.5850   28.8010   36.7730 C   0  0  0  0  0  0  0  0  0  0  0  0
   32.7460   28.4570   35.7670 H   0  0  0  0  0  0  0  0  0  0  0  0
   32.1890   27.8890   37.3280 H   0  0  0  0  0  0  0  0  0  0  0  0
   31.5230   29.8010   36.8910 C   0  0  0  0  0  3  0  0  0  0  0  0
   31.0740   30.9150   36.3300 C   0  0  0  0  0  3  0  0  0  0  0  0
   29.9420   31.7900   36.8320 C   0  0  0  0  0  0  0  0  0  0  0  0
   29.6860   31.4830   37.8890 H   0  0  0  0  0  0  0  0  0  0  0  0
   30.3650   32.8090   36.9250 H   0  0  0  0  0  0  0  0  0  0  0  0
   29.0910   31.7960   36.1530 H   0  0  0  0  0  0  0  0  0  0  0  0
  1  6  1  0  0  0  0
  2  3  1  0  0  0  0
  2  1  2  0  0  0  0
  3  4  2  0  0  0  0
  4  8  1  0  0  0  0
  4  5  1  0  0  0  0
  5  9  1  0  0  0  0
  6 10  1  0  0  0  0
  6  5  2  0  0  0  0
  7  3  1  0  0  0  0
 11  1  1  0  0  0  0
 11 13  2  0  0  0  0
 12 11  2  0  0  0  0
 14 15  1  0  0  0  0
 15 16  1  0  0  0  0
 16 17  2  0  0  0  0
 16 11  1  0  0  0  0
 17 18  1  0  0  0  0
 19 20  1  0  0  0  0
 19 17  1  0  0  0  0
 21 19  2  0  0  0  0
 22 21  1  0  0  0  0
 22 15  2  0  0  0  0
 23  2  1  0  0  0  0
 24 29  1  0  0  0  0
 25 24  2  0  0  0  0
 25 26  1  0  0  0  0
 26 27  2  0  0  0  0
 27 28  1  0  0  0  0
 28 23  1  0  0  0  0
 29 28  2  0  0  0  0
 30 24  1  0  0  0  0
 31 25  1  0  0  0  0
 32 26  1  0  0  0  0
 32 33  1  0  0  0  0
 34 32  1  0  0  0  0
 35 38  1  0  0  0  0
 35 37  1  0  0  0  0
 35 32  1  0  0  0  0
 36 35  1  0  0  0  0
 39 40  1  0  0  0  0
 39 38  2  0  0  0  0
 40 42  1  0  0  0  0
 40 41  1  0  0  0  0
 43 40  1  0  0  0  0
M  END
>  <minimizedAffinity>
-5.37974167

$$$$
