
 OpenBabel03252506213D

 35 37  0  0  0  0  0  0  0  0999 V2000
   44.9540   35.7250   42.7260 C   0  0  0  0  0  0  0  0  0  0  0  0
   43.8570   35.7180   41.8430 C   0  0  0  0  0  0  0  0  0  0  0  0
   43.8870   34.8170   40.7620 C   0  0  0  0  0  0  0  0  0  0  0  0
   44.9580   34.0120   40.6240 N   0  0  0  0  0  0  0  0  0  0  0  0
   45.9960   34.0510   41.4990 C   0  0  0  0  0  0  0  0  0  0  0  0
   45.9890   34.9050   42.5420 N   0  0  0  0  0  0  0  0  0  0  0  0
   43.0600   36.3980   42.0440 H   0  0  0  0  0  0  0  0  0  0  0  0
   43.0570   34.8090   40.0900 H   0  0  0  0  0  0  0  0  0  0  0  0
   48.6030   35.3790   40.7240 Cl  0  0  0  0  0  0  0  0  0  0  0  0
   48.3470   33.6780   40.9030 C   0  0  0  0  0  0  0  0  0  0  0  0
   47.1250   33.1250   41.2610 C   0  0  0  0  0  0  0  0  0  0  0  0
   46.8980   31.7860   41.4090 C   0  0  0  0  0  0  0  0  0  0  0  0
   47.9560   30.9450   41.1850 C   0  0  0  0  0  0  0  0  0  0  0  0
   49.2190   31.3740   40.8230 C   0  0  0  0  0  0  0  0  0  0  0  0
   49.3560   32.7560   40.6970 C   0  0  0  0  0  0  0  0  0  0  0  0
   45.9150   31.4290   41.6920 H   0  0  0  0  0  0  0  0  0  0  0  0
   47.7900   29.8790   41.2980 H   0  0  0  0  0  0  0  0  0  0  0  0
   50.0610   30.7220   40.6440 H   0  0  0  0  0  0  0  0  0  0  0  0
   50.3420   33.1260   40.4120 H   0  0  0  0  0  0  0  0  0  0  0  0
   44.9290   36.6620   43.8570 C   0  0  0  0  0  3  0  0  0  0  0  0
   45.3490   37.8960   43.6460 C   0  0  0  0  0  3  0  0  0  0  0  0
   45.3350   38.8690   44.7750 C   0  0  0  0  0  0  0  0  0  0  0  0
   44.7750   38.4800   45.6540 H   0  0  0  0  0  0  0  0  0  0  0  0
   46.3880   39.0350   45.0960 H   0  0  0  0  0  0  0  0  0  0  0  0
   44.7390   40.1010   44.2720 N   0  0  0  0  0  0  0  0  0  0  0  0
   44.3300   40.1750   43.2930 H   0  0  0  0  0  0  0  0  0  0  0  0
   44.6190   40.0600   47.0430 F   0  0  0  0  0  0  0  0  0  0  0  0
   44.6030   41.2820   46.4420 C   0  0  0  0  0  0  0  0  0  0  0  0
   44.6620   41.2950   45.0630 C   0  0  0  0  0  0  0  0  0  0  0  0
   44.6500   42.5070   44.3610 C   0  0  0  0  0  0  0  0  0  0  0  0
   44.6930   42.6190   43.2860 H   0  0  0  0  0  0  0  0  0  0  0  0
   44.5750   43.6300   45.1670 C   0  0  0  0  0  0  0  0  0  0  0  0
   44.5640   44.5970   44.6400 H   0  0  0  0  0  0  0  0  0  0  0  0
   44.5140   43.6710   46.5440 C   0  0  0  0  0  3  0  0  0  0  0  0
   44.5300   42.4460   47.1670 C   0  0  0  0  0  3  0  0  0  0  0  0
  1 20  1  0  0  0  0
  2  7  1  0  0  0  0
  2  1  2  0  0  0  0
  3  2  1  0  0  0  0
  4  3  2  0  0  0  0
  4  5  1  0  0  0  0
  5  6  2  0  0  0  0
  6  1  1  0  0  0  0
  8  3  1  0  0  0  0
  9 10  1  0  0  0  0
 10 11  1  0  0  0  0
 11 12  2  0  0  0  0
 11  5  1  0  0  0  0
 12 16  1  0  0  0  0
 13 17  1  0  0  0  0
 13 12  1  0  0  0  0
 14 13  2  0  0  0  0
 15 14  1  0  0  0  0
 15 10  2  0  0  0  0
 18 14  1  0  0  0  0
 19 15  1  0  0  0  0
 21 20  2  0  0  0  0
 21 22  1  0  0  0  0
 22 24  1  0  0  0  0
 22 23  1  0  0  0  0
 25 22  1  0  0  0  0
 25 29  1  0  0  0  0
 26 25  1  0  0  0  0
 28 27  1  0  0  0  0
 28 35  1  0  0  0  0
 29 28  2  0  0  0  0
 30 29  1  0  0  0  0
 30 32  2  0  0  0  0
 31 30  1  0  0  0  0
 32 34  1  0  0  0  0
 33 32  1  0  0  0  0
 34 35  2  0  0  0  0
M  END
>  <minimizedAffinity>
-3.51742554

>  <minimizedRMSD>
0.886012375

$$$$
