
 OpenBabel03252506213D

 35 37  0  0  0  0  0  0  0  0999 V2000
   44.9140   35.5270   42.5380 C   0  0  0  0  0  0  0  0  0  0  0  0
   43.7790   35.5600   41.7040 C   0  0  0  0  0  0  0  0  0  0  0  0
   43.7500   34.6910   40.5980 C   0  0  0  0  0  0  0  0  0  0  0  0
   44.8010   33.8740   40.3910 N   0  0  0  0  0  0  0  0  0  0  0  0
   45.8760   33.8740   41.2210 C   0  0  0  0  0  0  0  0  0  0  0  0
   45.9270   34.6970   42.2870 N   0  0  0  0  0  0  0  0  0  0  0  0
   43.0030   36.2460   41.9590 H   0  0  0  0  0  0  0  0  0  0  0  0
   42.8910   34.7130   39.9620 H   0  0  0  0  0  0  0  0  0  0  0  0
   48.4520   35.1840   40.3200 Cl  0  0  0  0  0  0  0  0  0  0  0  0
   48.1860   33.4850   40.4910 C   0  0  0  0  0  0  0  0  0  0  0  0
   46.9800   32.9390   40.9090 C   0  0  0  0  0  0  0  0  0  0  0  0
   46.7460   31.6010   41.0510 C   0  0  0  0  0  0  0  0  0  0  0  0
   47.7800   30.7520   40.7580 C   0  0  0  0  0  0  0  0  0  0  0  0
   49.0260   31.1720   40.3320 C   0  0  0  0  0  0  0  0  0  0  0  0
   49.1710   32.5550   40.2170 C   0  0  0  0  0  0  0  0  0  0  0  0
   45.7760   31.2510   41.3840 H   0  0  0  0  0  0  0  0  0  0  0  0
   47.6090   29.6860   40.8650 H   0  0  0  0  0  0  0  0  0  0  0  0
   49.8490   30.5140   40.0980 H   0  0  0  0  0  0  0  0  0  0  0  0
   50.1440   32.9180   39.8830 H   0  0  0  0  0  0  0  0  0  0  0  0
   44.9520   36.4310   43.6950 C   0  0  0  0  0  3  0  0  0  0  0  0
   45.2580   37.6970   43.4800 C   0  0  0  0  0  3  0  0  0  0  0  0
   45.3040   38.6380   44.6350 C   0  0  0  0  0  0  0  0  0  0  0  0
   44.6520   38.3030   45.4720 H   0  0  0  0  0  0  0  0  0  0  0  0
   46.3500   38.6620   45.0150 H   0  0  0  0  0  0  0  0  0  0  0  0
   44.8960   39.9470   44.1380 N   0  0  0  0  0  0  0  0  0  0  0  0
   44.7090   40.1290   43.1070 H   0  0  0  0  0  0  0  0  0  0  0  0
   44.8140   39.7180   46.9010 F   0  0  0  0  0  0  0  0  0  0  0  0
   44.6760   40.9670   46.3820 C   0  0  0  0  0  0  0  0  0  0  0  0
   44.7180   41.0750   45.0050 C   0  0  0  0  0  0  0  0  0  0  0  0
   44.5830   42.3220   44.3830 C   0  0  0  0  0  0  0  0  0  0  0  0
   44.6030   42.5060   43.3180 H   0  0  0  0  0  0  0  0  0  0  0  0
   44.4130   43.3810   45.2610 C   0  0  0  0  0  0  0  0  0  0  0  0
   44.3060   44.3730   44.7980 H   0  0  0  0  0  0  0  0  0  0  0  0
   44.3650   43.3270   46.6390 C   0  0  0  0  0  3  0  0  0  0  0  0
   44.5030   42.0720   47.1810 C   0  0  0  0  0  3  0  0  0  0  0  0
  1 20  1  0  0  0  0
  2  7  1  0  0  0  0
  2  1  2  0  0  0  0
  3  2  1  0  0  0  0
  4  3  2  0  0  0  0
  4  5  1  0  0  0  0
  5  6  2  0  0  0  0
  6  1  1  0  0  0  0
  8  3  1  0  0  0  0
  9 10  1  0  0  0  0
 10 11  1  0  0  0  0
 11 12  2  0  0  0  0
 11  5  1  0  0  0  0
 12 16  1  0  0  0  0
 13 17  1  0  0  0  0
 13 12  1  0  0  0  0
 14 13  2  0  0  0  0
 15 14  1  0  0  0  0
 15 10  2  0  0  0  0
 18 14  1  0  0  0  0
 19 15  1  0  0  0  0
 21 20  2  0  0  0  0
 21 22  1  0  0  0  0
 22 24  1  0  0  0  0
 22 23  1  0  0  0  0
 25 22  1  0  0  0  0
 25 29  1  0  0  0  0
 26 25  1  0  0  0  0
 28 27  1  0  0  0  0
 28 35  1  0  0  0  0
 29 28  2  0  0  0  0
 30 29  1  0  0  0  0
 30 32  2  0  0  0  0
 31 30  1  0  0  0  0
 32 34  1  0  0  0  0
 33 32  1  0  0  0  0
 34 35  2  0  0  0  0
M  END
>  <minimizedAffinity>
-3.65265322

>  <minimizedRMSD>
1.25836492

$$$$
