REMARK  Name = 
REMARK  5 active torsions:
REMARK  status: ('A' for Active; 'I' for Inactive)
REMARK    1  A    between atoms: C_1  and  C_14
REMARK    2  A    between atoms: C_5  and  C_9
REMARK    3  A    between atoms: C_15  and  C_16
REMARK    4  A    between atoms: C_16  and  N_17
REMARK    5  A    between atoms: N_17  and  C_31
REMARK                            x       y       z     vdW  Elec       q    Type
REMARK                         _______ _______ _______ _____ _____    ______ ____
ROOT
ATOM      1  C   UNL     1      45.138  36.006  43.068  0.00  0.00    +0.000 A 
ATOM      2  C   UNL     1      44.149  35.799  42.087  0.00  0.00    +0.000 A 
ATOM      3  C   UNL     1      44.383  34.808  41.115  0.00  0.00    +0.000 A 
ATOM      4  N   UNL     1      45.534  34.111  41.169  0.00  0.00    +0.000 NA
ATOM      5  C   UNL     1      46.462  34.343  42.133  0.00  0.00    +0.000 A 
ATOM      6  N   UNL     1      46.260  35.286  43.075  0.00  0.00    +0.000 NA
ATOM      7  H   UNL     1      43.274  36.407  42.136  0.00  0.00    +0.000 HD
ATOM      8  H   UNL     1      43.635  34.648  40.369  0.00  0.00    +0.000 HD
ENDROOT
BRANCH   5  11
ATOM      9 CL   UNL     1      48.958  35.805  41.242  0.00  0.00    +0.000 Cl
ATOM     10  C   UNL     1      48.870  34.142  41.706  0.00  0.00    +0.000 A 
ATOM     11  C   UNL     1      47.694  33.523  42.107  0.00  0.00    +0.000 A 
ATOM     12  C   UNL     1      47.599  32.212  42.478  0.00  0.00    +0.000 A 
ATOM     13  C   UNL     1      48.750  31.470  42.448  0.00  0.00    +0.000 A 
ATOM     14  C   UNL     1      49.981  31.971  42.067  0.00  0.00    +0.000 A 
ATOM     15  C   UNL     1      49.980  33.318  41.706  0.00  0.00    +0.000 A 
ATOM     16  H   UNL     1      46.644  31.800  42.780  0.00  0.00    +0.000 HD
ATOM     17  H   UNL     1      48.690  30.427  42.739  0.00  0.00    +0.000 HD
ATOM     18  H   UNL     1      50.895  31.397  42.039  0.00  0.00    +0.000 HD
ATOM     19  H   UNL     1      50.937  33.743  41.400  0.00  0.00    +0.000 HD
ENDBRANCH   5  11
BRANCH   1  20
ATOM     20  C   UNL     1      44.901  37.038  44.086  0.00  0.00    +0.000 C 
ATOM     21  C   UNL     1      45.477  38.214  43.919  0.00  0.00    +0.000 C 
BRANCH  21  22
ATOM     22  C   UNL     1      45.254  39.281  44.936  0.00  0.00    +0.000 C 
ATOM     23  H   UNL     1      44.536  38.962  45.724  0.00  0.00    +0.000 HD
ATOM     24  H   UNL     1      46.228  39.487  45.434  0.00  0.00    +0.000 HD
BRANCH  22  25
ATOM     25  N   UNL     1      44.769  40.457  44.224  0.00  0.00    +0.000 N 
ATOM     26  H   UNL     1      44.628  40.464  43.170  0.00  0.00    +0.000 HD
BRANCH  25  29
ATOM     27  F   UNL     1      42.237  41.006  45.214  0.00  0.00    +0.000 F 
ATOM     28  C   UNL     1      43.189  41.962  45.391  0.00  0.00    +0.000 A 
ATOM     29  C   UNL     1      44.448  41.683  44.896  0.00  0.00    +0.000 A 
ATOM     30  C   UNL     1      45.489  42.609  45.032  0.00  0.00    +0.000 A 
ATOM     31  H   UNL     1      46.503  42.481  44.679  0.00  0.00    +0.000 HD
ATOM     32  C   UNL     1      45.129  43.776  45.687  0.00  0.00    +0.000 A 
ATOM     33  H   UNL     1      45.930  44.522  45.808  0.00  0.00    +0.000 HD
ATOM     34  C   UNL     1      43.891  44.103  46.199  0.00  0.00    +0.000 A 
ATOM     35  C   UNL     1      42.917  43.148  46.029  0.00  0.00    +0.000 A 
ENDBRANCH  25  29
ENDBRANCH  22  25
ENDBRANCH  21  22
ENDBRANCH   1  20
TORSDOF 5
