
 OpenBabel03252506213D

 35 37  0  0  0  0  0  0  0  0999 V2000
   44.8910   35.4750   42.4660 C   0  0  0  0  0  0  0  0  0  0  0  0
   43.7530   35.5100   41.6370 C   0  0  0  0  0  0  0  0  0  0  0  0
   43.7270   34.6560   40.5180 C   0  0  0  0  0  0  0  0  0  0  0  0
   44.7850   33.8520   40.2960 N   0  0  0  0  0  0  0  0  0  0  0  0
   45.8630   33.8490   41.1220 C   0  0  0  0  0  0  0  0  0  0  0  0
   45.9100   34.6580   42.2000 N   0  0  0  0  0  0  0  0  0  0  0  0
   42.9720   36.1850   41.9040 H   0  0  0  0  0  0  0  0  0  0  0  0
   42.8660   34.6800   39.8860 H   0  0  0  0  0  0  0  0  0  0  0  0
   48.4770   35.1970   40.4080 Cl  0  0  0  0  0  0  0  0  0  0  0  0
   48.1970   33.4910   40.4580 C   0  0  0  0  0  0  0  0  0  0  0  0
   46.9740   32.9290   40.7930 C   0  0  0  0  0  0  0  0  0  0  0  0
   46.7280   31.5860   40.8390 C   0  0  0  0  0  0  0  0  0  0  0  0
   47.7690   30.7500   40.5320 C   0  0  0  0  0  0  0  0  0  0  0  0
   49.0330   31.1880   40.1820 C   0  0  0  0  0  0  0  0  0  0  0  0
   49.1890   32.5740   40.1630 C   0  0  0  0  0  0  0  0  0  0  0  0
   45.7450   31.2220   41.1100 H   0  0  0  0  0  0  0  0  0  0  0  0
   47.5880   29.6810   40.5630 H   0  0  0  0  0  0  0  0  0  0  0  0
   49.8610   30.5400   39.9380 H   0  0  0  0  0  0  0  0  0  0  0  0
   50.1750   32.9510   39.8900 H   0  0  0  0  0  0  0  0  0  0  0  0
   44.9250   36.3630   43.6360 C   0  0  0  0  0  3  0  0  0  0  0  0
   45.2280   37.6330   43.4380 C   0  0  0  0  0  3  0  0  0  0  0  0
   45.2700   38.5580   44.6060 C   0  0  0  0  0  0  0  0  0  0  0  0
   44.5480   38.2610   45.3990 H   0  0  0  0  0  0  0  0  0  0  0  0
   46.2910   38.5060   45.0470 H   0  0  0  0  0  0  0  0  0  0  0  0
   44.9820   39.8960   44.1040 N   0  0  0  0  0  0  0  0  0  0  0  0
   44.9280   40.1120   43.0640 H   0  0  0  0  0  0  0  0  0  0  0  0
   44.8610   39.6400   46.8630 F   0  0  0  0  0  0  0  0  0  0  0  0
   44.6890   40.8890   46.3520 C   0  0  0  0  0  0  0  0  0  0  0  0
   44.7520   41.0100   44.9770 C   0  0  0  0  0  0  0  0  0  0  0  0
   44.5870   42.2580   44.3630 C   0  0  0  0  0  0  0  0  0  0  0  0
   44.6180   42.4520   43.3000 H   0  0  0  0  0  0  0  0  0  0  0  0
   44.3660   43.3020   45.2480 C   0  0  0  0  0  0  0  0  0  0  0  0
   44.2340   44.2940   44.7910 H   0  0  0  0  0  0  0  0  0  0  0  0
   44.2960   43.2340   46.6230 C   0  0  0  0  0  3  0  0  0  0  0  0
   44.4670   41.9800   47.1580 C   0  0  0  0  0  3  0  0  0  0  0  0
  1 20  1  0  0  0  0
  2  7  1  0  0  0  0
  2  1  2  0  0  0  0
  3  2  1  0  0  0  0
  4  3  2  0  0  0  0
  4  5  1  0  0  0  0
  5  6  2  0  0  0  0
  6  1  1  0  0  0  0
  8  3  1  0  0  0  0
  9 10  1  0  0  0  0
 10 11  1  0  0  0  0
 11 12  2  0  0  0  0
 11  5  1  0  0  0  0
 12 16  1  0  0  0  0
 13 17  1  0  0  0  0
 13 12  1  0  0  0  0
 14 13  2  0  0  0  0
 15 14  1  0  0  0  0
 15 10  2  0  0  0  0
 18 14  1  0  0  0  0
 19 15  1  0  0  0  0
 21 20  2  0  0  0  0
 21 22  1  0  0  0  0
 22 24  1  0  0  0  0
 22 23  1  0  0  0  0
 25 22  1  0  0  0  0
 25 29  1  0  0  0  0
 26 25  1  0  0  0  0
 28 27  1  0  0  0  0
 28 35  1  0  0  0  0
 29 28  2  0  0  0  0
 30 29  1  0  0  0  0
 30 32  2  0  0  0  0
 31 30  1  0  0  0  0
 32 34  1  0  0  0  0
 33 32  1  0  0  0  0
 34 35  2  0  0  0  0
M  END
>  <minimizedAffinity>
-3.72658253

>  <minimizedRMSD>
1.39311767

$$$$
