
     RDKit          3D

 24 25  0  0  0  0  0  0  0  0999 V2000
   44.3826   35.7713   44.4017 C   0  0  0  0  0  0  0  0  0  0  0  0
   44.6574   35.0667   43.2491 C   0  0  0  0  0  0  0  0  0  0  0  0
   45.2780   33.8323   43.3807 C   0  0  0  0  0  0  0  0  0  0  0  0
   45.5710   33.4033   44.6206 N   0  0  0  0  0  0  0  0  0  0  0  0
   45.2957   34.1035   45.7324 C   0  0  0  0  0  0  0  0  0  0  0  0
   44.6870   35.3189   45.6404 N   0  0  0  0  0  0  0  0  0  0  0  0
   44.2562   35.7103   41.9806 C   0  0  0  0  0  0  0  0  0  0  0  0
   42.9641   35.3768   41.5985 O   0  0  0  0  0  0  0  0  0  0  0  0
   43.9003   36.7425   44.3920 H   0  0  0  0  0  0  0  0  0  0  0  0
   45.4793   33.3072   42.4660 H   0  0  0  0  0  0  0  0  0  0  0  0
   45.6127   33.5815   46.6317 H   0  0  0  0  0  0  0  0  0  0  0  0
   44.9534   35.3368   41.1819 H   0  0  0  0  0  0  0  0  0  0  0  0
   44.4321   36.8133   42.0125 H   0  0  0  0  0  0  0  0  0  0  0  0
   43.2502   33.8014   39.4328 F   0  0  0  0  0  0  0  0  0  0  0  0
   42.4765   34.9128   39.4171 C   0  0  0  0  0  0  0  0  0  0  0  0
   42.2731   35.7840   40.4930 C   0  0  0  0  0  0  0  0  0  0  0  0
   41.4523   36.8800   40.3212 C   0  0  0  0  0  0  0  0  0  0  0  0
   41.3618   37.4832   41.2018 H   0  0  0  0  0  0  0  0  0  0  0  0
   40.8419   37.1114   39.1054 C   0  0  0  0  0  0  0  0  0  0  0  0
   40.2095   37.9888   39.0350 H   0  0  0  0  0  0  0  0  0  0  0  0
   41.0381   36.2554   38.0388 C   0  0  0  0  0  0  0  0  0  0  0  0
   41.8612   35.1412   38.1825 C   0  0  0  0  0  0  0  0  0  0  0  0
   40.5234   36.5054   37.1158 H   0  0  0  0  0  0  0  0  0  0  0  0
   41.9903   34.4958   37.3276 H   0  0  0  0  0  0  0  0  0  0  0  0
  1  6  2  0
  2  3  2  0
  2  1  1  0
  3  4  1  0
  4  5  2  0
  6  5  1  0
  7  2  1  0
  8  7  1  0
  1  9  1  0
  3 10  1  0
  5 11  1  0
  7 12  1  0
  7 13  1  0
 14 15  1  0
 15 16  2  0
 16 17  1  0
 17 18  1  0
 17 19  2  0
 19 20  1  0
 19 21  1  0
 21 22  2  0
 22 15  1  0
 21 23  1  0
 22 24  1  0
  8 16  1  0
M  ISO  7   9  14  10  14  11  14  12   8  13   8  18  15  20  16
M  END
>  <DihAtoms>  (1) 
6,7,15,14

>  <DihDeg>  (1) 
179.99930118808967

$$$$
