
 OpenBabel03252504283D

 22 23  0  0  0  0  0  0  0  0999 V2000
   35.5340   28.7790   40.6740 C   0  0  0  0  0  0  0  0  0  0  0  0
   35.7060   27.9070   39.9850 H   0  0  0  0  0  0  0  0  0  0  0  0
   34.4220   28.8850   40.7170 H   0  0  0  0  0  0  0  0  0  0  0  0
   36.5210   30.9820   40.9060 C   0  0  0  0  0  0  0  0  0  0  0  0
   36.1610   29.9620   40.0510 C   0  0  0  0  0  0  0  0  0  0  0  0
   36.4180   30.1360   38.6980 C   0  0  0  0  0  0  0  0  0  0  0  0
   36.9990   31.2850   38.3090 N   0  0  0  0  0  0  0  0  0  0  0  0
   37.3420   32.2660   39.1570 C   0  0  0  0  0  0  0  0  0  0  0  0
   37.1050   32.1290   40.4920 N   0  0  0  0  0  0  0  0  0  0  0  0
   36.3580   30.9300   41.9770 H   0  0  0  0  0  0  0  0  0  0  0  0
   36.1280   29.3260   38.0560 H   0  0  0  0  0  0  0  0  0  0  0  0
   37.7980   33.1090   38.6420 H   0  0  0  0  0  0  0  0  0  0  0  0
   36.0970   28.4600   41.9020 O   0  0  0  0  0  0  0  0  0  0  0  0
   37.9630   29.2440   43.6790 F   0  0  0  0  0  0  0  0  0  0  0  0
   37.9830   28.0160   43.1090 C   0  0  0  0  0  0  0  0  0  0  0  0
   37.0560   27.5280   42.1810 C   0  0  0  0  0  0  0  0  0  0  0  0
   37.2110   26.2480   41.6890 C   0  0  0  0  0  0  0  0  0  0  0  0
   36.4530   25.9700   40.9860 H   0  0  0  0  0  0  0  0  0  0  0  0
   38.2650   25.4620   42.1080 C   0  0  0  0  0  0  0  0  0  0  0  0
   38.3310   24.4660   41.6840 H   0  0  0  0  0  0  0  0  0  0  0  0
   39.1840   25.9360   43.0230 C   0  0  0  0  0  3  0  0  0  0  0  0
   39.0530   27.2250   43.5380 C   0  0  0  0  0  3  0  0  0  0  0  0
  1  3  1  0  0  0  0
  1 13  1  0  0  0  0
  2  1  1  0  0  0  0
  4 10  1  0  0  0  0
  5  1  1  0  0  0  0
  5  4  2  0  0  0  0
  6  5  1  0  0  0  0
  7  6  2  0  0  0  0
  7  8  1  0  0  0  0
  8  9  2  0  0  0  0
  9  4  1  0  0  0  0
 11  6  1  0  0  0  0
 12  8  1  0  0  0  0
 13 16  1  0  0  0  0
 15 22  1  0  0  0  0
 15 14  1  0  0  0  0
 16 15  2  0  0  0  0
 17 19  2  0  0  0  0
 17 16  1  0  0  0  0
 18 17  1  0  0  0  0
 19 21  1  0  0  0  0
 20 19  1  0  0  0  0
 21 22  2  0  0  0  0
M  END
>  <minimizedAffinity>
-4.53661537

$$$$

 OpenBabel03252504283D

 22 23  0  0  0  0  0  0  0  0999 V2000
   36.7130   31.3100   39.9250 C   0  0  0  0  0  0  0  0  0  0  0  0
   36.7680   30.4020   39.2650 H   0  0  0  0  0  0  0  0  0  0  0  0
   35.8340   31.8830   39.5400 H   0  0  0  0  0  0  0  0  0  0  0  0
   37.9930   33.3420   40.2570 C   0  0  0  0  0  0  0  0  0  0  0  0
   37.9680   32.0660   39.7380 C   0  0  0  0  0  0  0  0  0  0  0  0
   39.1110   31.6100   39.0940 C   0  0  0  0  0  0  0  0  0  0  0  0
   40.1650   32.4400   39.0180 N   0  0  0  0  0  0  0  0  0  0  0  0
   40.1710   33.6800   39.5290 C   0  0  0  0  0  0  0  0  0  0  0  0
   39.0670   34.1610   40.1680 N   0  0  0  0  0  0  0  0  0  0  0  0
   37.1470   33.7780   40.7760 H   0  0  0  0  0  0  0  0  0  0  0  0
   39.0610   30.6120   38.7000 H   0  0  0  0  0  0  0  0  0  0  0  0
   41.1190   34.1870   39.3620 H   0  0  0  0  0  0  0  0  0  0  0  0
   36.5440   30.8700   41.2310 O   0  0  0  0  0  0  0  0  0  0  0  0
   35.2200   28.5400   40.9620 F   0  0  0  0  0  0  0  0  0  0  0  0
   36.3760   28.6340   41.6600 C   0  0  0  0  0  0  0  0  0  0  0  0
   37.1270   29.8000   41.8490 C   0  0  0  0  0  0  0  0  0  0  0  0
   38.2900   29.7350   42.5880 C   0  0  0  0  0  0  0  0  0  0  0  0
   38.7900   30.6780   42.6750 H   0  0  0  0  0  0  0  0  0  0  0  0
   38.7050   28.5370   43.1330 C   0  0  0  0  0  0  0  0  0  0  0  0
   39.6260   28.5520   43.7040 H   0  0  0  0  0  0  0  0  0  0  0  0
   37.9690   27.3820   42.9520 C   0  0  0  0  0  3  0  0  0  0  0  0
   36.7900   27.4170   42.2090 C   0  0  0  0  0  3  0  0  0  0  0  0
  1 13  1  0  0  0  0
  2  1  1  0  0  0  0
  3  1  1  0  0  0  0
  4 10  1  0  0  0  0
  5  1  1  0  0  0  0
  5  4  2  0  0  0  0
  6  5  1  0  0  0  0
  7  6  2  0  0  0  0
  7  8  1  0  0  0  0
  8  9  2  0  0  0  0
  9  4  1  0  0  0  0
 11  6  1  0  0  0  0
 12  8  1  0  0  0  0
 13 16  1  0  0  0  0
 14 15  1  0  0  0  0
 15 16  2  0  0  0  0
 15 22  1  0  0  0  0
 16 17  1  0  0  0  0
 17 18  1  0  0  0  0
 17 19  2  0  0  0  0
 19 20  1  0  0  0  0
 21 19  1  0  0  0  0
 22 21  2  0  0  0  0
M  END
>  <minimizedAffinity>
-4.46556807

$$$$

 OpenBabel03252504283D

 22 23  0  0  0  0  0  0  0  0999 V2000
   35.8530   29.8000   40.6890 C   0  0  0  0  0  0  0  0  0  0  0  0
   35.7870   28.6900   40.5260 H   0  0  0  0  0  0  0  0  0  0  0  0
   34.7900   30.1330   40.7830 H   0  0  0  0  0  0  0  0  0  0  0  0
   36.8870   31.6990   39.5900 C   0  0  0  0  0  0  0  0  0  0  0  0
   36.4920   30.3820   39.4910 C   0  0  0  0  0  0  0  0  0  0  0  0
   36.7270   29.7290   38.2880 C   0  0  0  0  0  0  0  0  0  0  0  0
   37.3230   30.4200   37.3010 N   0  0  0  0  0  0  0  0  0  0  0  0
   37.7010   31.7030   37.4170 C   0  0  0  0  0  0  0  0  0  0  0  0
   37.4850   32.3750   38.5830 N   0  0  0  0  0  0  0  0  0  0  0  0
   36.7430   32.2850   40.4920 H   0  0  0  0  0  0  0  0  0  0  0  0
   36.4090   28.7040   38.2400 H   0  0  0  0  0  0  0  0  0  0  0  0
   38.1640   32.0760   36.5070 H   0  0  0  0  0  0  0  0  0  0  0  0
   36.5930   30.0110   41.8440 O   0  0  0  0  0  0  0  0  0  0  0  0
   36.0720   27.6750   43.0800 F   0  0  0  0  0  0  0  0  0  0  0  0
   37.3340   28.1350   42.9130 C   0  0  0  0  0  0  0  0  0  0  0  0
   37.6940   29.3330   42.2840 C   0  0  0  0  0  0  0  0  0  0  0  0
   39.0290   29.6650   42.1900 C   0  0  0  0  0  0  0  0  0  0  0  0
   39.2000   30.5990   41.6940 H   0  0  0  0  0  0  0  0  0  0  0  0
   39.9960   28.8280   42.7090 C   0  0  0  0  0  0  0  0  0  0  0  0
   41.0270   29.1460   42.6030 H   0  0  0  0  0  0  0  0  0  0  0  0
   39.6490   27.6440   43.3310 C   0  0  0  0  0  3  0  0  0  0  0  0
   38.3080   27.2820   43.4400 C   0  0  0  0  0  3  0  0  0  0  0  0
  1  3  1  0  0  0  0
  1 13  1  0  0  0  0
  2  1  1  0  0  0  0
  4 10  1  0  0  0  0
  5  4  1  0  0  0  0
  5  1  1  0  0  0  0
  6  5  2  0  0  0  0
  7  8  2  0  0  0  0
  7  6  1  0  0  0  0
  8  9  1  0  0  0  0
  9  4  2  0  0  0  0
 11  6  1  0  0  0  0
 12  8  1  0  0  0  0
 13 16  1  0  0  0  0
 15 14  1  0  0  0  0
 15 22  1  0  0  0  0
 16 15  2  0  0  0  0
 17 16  1  0  0  0  0
 17 19  2  0  0  0  0
 18 17  1  0  0  0  0
 19 21  1  0  0  0  0
 20 19  1  0  0  0  0
 21 22  2  0  0  0  0
M  END
>  <minimizedAffinity>
-4.42023993

$$$$

 OpenBabel03252504283D

 22 23  0  0  0  0  0  0  0  0999 V2000
   36.5190   30.9310   40.4140 C   0  0  0  0  0  0  0  0  0  0  0  0
   36.2720   30.0560   39.7530 H   0  0  0  0  0  0  0  0  0  0  0  0
   35.6400   31.6140   40.3140 H   0  0  0  0  0  0  0  0  0  0  0  0
   38.2520   32.6180   40.5920 C   0  0  0  0  0  0  0  0  0  0  0  0
   37.7450   31.5550   39.8760 C   0  0  0  0  0  0  0  0  0  0  0  0
   38.4240   31.1720   38.7270 C   0  0  0  0  0  0  0  0  0  0  0  0
   39.5280   31.8590   38.3880 N   0  0  0  0  0  0  0  0  0  0  0  0
   40.0070   32.8910   39.0980 C   0  0  0  0  0  0  0  0  0  0  0  0
   39.3660   33.2950   40.2320 N   0  0  0  0  0  0  0  0  0  0  0  0
   37.7870   32.9840   41.5010 H   0  0  0  0  0  0  0  0  0  0  0  0
   38.0060   30.3410   38.1890 H   0  0  0  0  0  0  0  0  0  0  0  0
   40.9080   33.3090   38.6550 H   0  0  0  0  0  0  0  0  0  0  0  0
   36.6880   30.4490   41.7040 O   0  0  0  0  0  0  0  0  0  0  0  0
   39.0390   30.4090   43.0180 F   0  0  0  0  0  0  0  0  0  0  0  0
   38.3320   29.2800   42.7720 C   0  0  0  0  0  0  0  0  0  0  0  0
   37.1070   29.2100   42.1000 C   0  0  0  0  0  0  0  0  0  0  0  0
   36.5070   27.9800   41.9280 C   0  0  0  0  0  0  0  0  0  0  0  0
   35.5750   28.0330   41.4030 H   0  0  0  0  0  0  0  0  0  0  0  0
   37.1070   26.8360   42.4130 C   0  0  0  0  0  0  0  0  0  0  0  0
   36.5860   25.9010   42.2450 H   0  0  0  0  0  0  0  0  0  0  0  0
   38.3170   26.8970   43.0770 C   0  0  0  0  0  3  0  0  0  0  0  0
   38.9470   28.1250   43.2660 C   0  0  0  0  0  3  0  0  0  0  0  0
  1 13  1  0  0  0  0
  2  1  1  0  0  0  0
  3  1  1  0  0  0  0
  4 10  1  0  0  0  0
  5  1  1  0  0  0  0
  5  4  2  0  0  0  0
  6  5  1  0  0  0  0
  7  6  2  0  0  0  0
  7  8  1  0  0  0  0
  8  9  2  0  0  0  0
  9  4  1  0  0  0  0
 11  6  1  0  0  0  0
 12  8  1  0  0  0  0
 13 16  1  0  0  0  0
 15 14  1  0  0  0  0
 15 22  1  0  0  0  0
 16 15  2  0  0  0  0
 17 16  1  0  0  0  0
 17 19  2  0  0  0  0
 18 17  1  0  0  0  0
 19 21  1  0  0  0  0
 20 19  1  0  0  0  0
 21 22  2  0  0  0  0
M  END
>  <minimizedAffinity>
-4.41104698

$$$$

 OpenBabel03252504283D

 22 23  0  0  0  0  0  0  0  0999 V2000
   39.1410   29.5390   42.8210 C   0  0  0  0  0  0  0  0  0  0  0  0
   39.3700   30.2030   43.6990 H   0  0  0  0  0  0  0  0  0  0  0  0
   40.1400   29.3040   42.3800 H   0  0  0  0  0  0  0  0  0  0  0  0
   38.9210   31.4120   41.2960 C   0  0  0  0  0  0  0  0  0  0  0  0
   38.3120   30.3230   41.8820 C   0  0  0  0  0  0  0  0  0  0  0  0
   36.9920   30.0620   41.5410 C   0  0  0  0  0  0  0  0  0  0  0  0
   36.3930   30.8870   40.6640 N   0  0  0  0  0  0  0  0  0  0  0  0
   37.0020   31.9430   40.1040 C   0  0  0  0  0  0  0  0  0  0  0  0
   38.2980   32.2280   40.4160 N   0  0  0  0  0  0  0  0  0  0  0  0
   39.9490   31.6880   41.5040 H   0  0  0  0  0  0  0  0  0  0  0  0
   36.5440   29.2080   42.0130 H   0  0  0  0  0  0  0  0  0  0  0  0
   36.3440   32.4790   39.4240 H   0  0  0  0  0  0  0  0  0  0  0  0
   38.4830   28.4170   43.3050 O   0  0  0  0  0  0  0  0  0  0  0  0
   36.7370   26.8230   42.0150 F   0  0  0  0  0  0  0  0  0  0  0  0
   37.8970   26.3520   42.5300 C   0  0  0  0  0  0  0  0  0  0  0  0
   38.8570   27.1070   43.2120 C   0  0  0  0  0  0  0  0  0  0  0  0
   39.9940   26.4800   43.6790 C   0  0  0  0  0  0  0  0  0  0  0  0
   40.6650   27.1420   44.1860 H   0  0  0  0  0  0  0  0  0  0  0  0
   40.1790   25.1270   43.4760 C   0  0  0  0  0  0  0  0  0  0  0  0
   41.0920   24.6940   43.8680 H   0  0  0  0  0  0  0  0  0  0  0  0
   39.2350   24.3750   42.8040 C   0  0  0  0  0  3  0  0  0  0  0  0
   38.0770   24.9810   42.3210 C   0  0  0  0  0  3  0  0  0  0  0  0
  1 13  1  0  0  0  0
  1  2  1  0  0  0  0
  3  1  1  0  0  0  0
  4 10  1  0  0  0  0
  4  5  1  0  0  0  0
  5  1  1  0  0  0  0
  6  5  2  0  0  0  0
  6 11  1  0  0  0  0
  7  6  1  0  0  0  0
  8  9  1  0  0  0  0
  8  7  2  0  0  0  0
  9  4  2  0  0  0  0
 12  8  1  0  0  0  0
 14 15  1  0  0  0  0
 15 16  1  0  0  0  0
 16 13  1  0  0  0  0
 16 17  2  0  0  0  0
 17 18  1  0  0  0  0
 19 17  1  0  0  0  0
 19 20  1  0  0  0  0
 21 19  2  0  0  0  0
 22 15  2  0  0  0  0
 22 21  1  0  0  0  0
M  END
>  <minimizedAffinity>
-4.36830759

$$$$

 OpenBabel03252504283D

 22 23  0  0  0  0  0  0  0  0999 V2000
   37.2040   30.5560   39.5860 C   0  0  0  0  0  0  0  0  0  0  0  0
   37.9800   29.8010   39.2860 H   0  0  0  0  0  0  0  0  0  0  0  0
   36.5210   30.6220   38.7040 H   0  0  0  0  0  0  0  0  0  0  0  0
   39.2460   31.7520   40.1150 C   0  0  0  0  0  0  0  0  0  0  0  0
   37.9030   31.8370   39.8180 C   0  0  0  0  0  0  0  0  0  0  0  0
   37.3340   33.1020   39.7640 C   0  0  0  0  0  0  0  0  0  0  0  0
   38.1270   34.1610   40.0040 N   0  0  0  0  0  0  0  0  0  0  0  0
   39.4340   34.0580   40.2910 C   0  0  0  0  0  0  0  0  0  0  0  0
   40.0250   32.8320   40.3530 N   0  0  0  0  0  0  0  0  0  0  0  0
   39.7710   30.8050   40.1770 H   0  0  0  0  0  0  0  0  0  0  0  0
   36.2860   33.1370   39.5310 H   0  0  0  0  0  0  0  0  0  0  0  0
   39.8940   35.0310   40.4510 H   0  0  0  0  0  0  0  0  0  0  0  0
   36.5730   30.0780   40.7260 O   0  0  0  0  0  0  0  0  0  0  0  0
   35.9580   27.5250   40.1300 F   0  0  0  0  0  0  0  0  0  0  0  0
   36.6630   27.8550   41.2380 C   0  0  0  0  0  0  0  0  0  0  0  0
   37.0250   29.1510   41.6220 C   0  0  0  0  0  0  0  0  0  0  0  0
   37.7490   29.3280   42.7840 C   0  0  0  0  0  0  0  0  0  0  0  0
   37.9760   30.3540   42.9900 H   0  0  0  0  0  0  0  0  0  0  0  0
   38.1090   28.2410   43.5550 C   0  0  0  0  0  0  0  0  0  0  0  0
   38.6760   28.4460   44.4550 H   0  0  0  0  0  0  0  0  0  0  0  0
   37.7540   26.9590   43.1820 C   0  0  0  0  0  3  0  0  0  0  0  0
   37.0240   26.7500   42.0140 C   0  0  0  0  0  3  0  0  0  0  0  0
  1  5  1  0  0  0  0
  1 13  1  0  0  0  0
  2  1  1  0  0  0  0
  3  1  1  0  0  0  0
  4 10  1  0  0  0  0
  4  9  1  0  0  0  0
  5  4  2  0  0  0  0
  6  5  1  0  0  0  0
  6  7  2  0  0  0  0
  7  8  1  0  0  0  0
  8  9  2  0  0  0  0
  8 12  1  0  0  0  0
 11  6  1  0  0  0  0
 13 16  1  0  0  0  0
 14 15  1  0  0  0  0
 15 16  2  0  0  0  0
 15 22  1  0  0  0  0
 16 17  1  0  0  0  0
 17 18  1  0  0  0  0
 17 19  2  0  0  0  0
 19 20  1  0  0  0  0
 21 19  1  0  0  0  0
 22 21  2  0  0  0  0
M  END
>  <minimizedAffinity>
-4.23615789

$$$$

 OpenBabel03252504283D

 22 23  0  0  0  0  0  0  0  0999 V2000
   39.2360   29.5390   39.6100 C   0  0  0  0  0  0  0  0  0  0  0  0
   40.2770   29.6270   39.1960 H   0  0  0  0  0  0  0  0  0  0  0  0
   38.7120   28.8450   38.9080 H   0  0  0  0  0  0  0  0  0  0  0  0
   39.0260   31.7540   40.5740 C   0  0  0  0  0  0  0  0  0  0  0  0
   38.6340   30.8880   39.5760 C   0  0  0  0  0  0  0  0  0  0  0  0
   37.7210   31.3550   38.6400 C   0  0  0  0  0  0  0  0  0  0  0  0
   37.2790   32.6180   38.7670 N   0  0  0  0  0  0  0  0  0  0  0  0
   37.6720   33.4470   39.7460 C   0  0  0  0  0  0  0  0  0  0  0  0
   38.5670   33.0220   40.6820 N   0  0  0  0  0  0  0  0  0  0  0  0
   39.7350   31.4740   41.3460 H   0  0  0  0  0  0  0  0  0  0  0  0
   37.4350   30.6580   37.8750 H   0  0  0  0  0  0  0  0  0  0  0  0
   37.1980   34.4230   39.6690 H   0  0  0  0  0  0  0  0  0  0  0  0
   39.3390   29.0330   40.8980 O   0  0  0  0  0  0  0  0  0  0  0  0
   38.6160   29.9290   43.3330 F   0  0  0  0  0  0  0  0  0  0  0  0
   38.1370   28.7700   42.8210 C   0  0  0  0  0  0  0  0  0  0  0  0
   38.4590   28.2330   41.5700 C   0  0  0  0  0  0  0  0  0  0  0  0
   37.8860   27.0370   41.1870 C   0  0  0  0  0  0  0  0  0  0  0  0
   38.1960   26.7110   40.2150 H   0  0  0  0  0  0  0  0  0  0  0  0
   37.0100   26.3810   42.0280 C   0  0  0  0  0  0  0  0  0  0  0  0
   36.5950   25.4460   41.6700 H   0  0  0  0  0  0  0  0  0  0  0  0
   36.6880   26.9050   43.2650 C   0  0  0  0  0  3  0  0  0  0  0  0
   37.2500   28.1110   43.6790 C   0  0  0  0  0  3  0  0  0  0  0  0
  1 13  1  0  0  0  0
  2  1  1  0  0  0  0
  3  1  1  0  0  0  0
  4  9  1  0  0  0  0
  4 10  1  0  0  0  0
  5  1  1  0  0  0  0
  5  4  2  0  0  0  0
  6  7  2  0  0  0  0
  6  5  1  0  0  0  0
  7  8  1  0  0  0  0
  8  9  2  0  0  0  0
 11  6  1  0  0  0  0
 12  8  1  0  0  0  0
 13 16  1  0  0  0  0
 15 14  1  0  0  0  0
 15 22  1  0  0  0  0
 16 15  2  0  0  0  0
 17 16  1  0  0  0  0
 17 19  2  0  0  0  0
 18 17  1  0  0  0  0
 19 21  1  0  0  0  0
 20 19  1  0  0  0  0
 21 22  2  0  0  0  0
M  END
>  <minimizedAffinity>
-4.19036531

$$$$

 OpenBabel03252504283D

 22 23  0  0  0  0  0  0  0  0999 V2000
   38.0720   28.9290   43.1010 C   0  0  0  0  0  0  0  0  0  0  0  0
   39.1450   29.2590   43.1510 H   0  0  0  0  0  0  0  0  0  0  0  0
   37.6610   29.1560   44.1150 H   0  0  0  0  0  0  0  0  0  0  0  0
   39.1950   26.7840   43.2310 C   0  0  0  0  0  0  0  0  0  0  0  0
   38.0710   27.4760   42.8360 C   0  0  0  0  0  0  0  0  0  0  0  0
   37.0500   26.7540   42.2310 C   0  0  0  0  0  0  0  0  0  0  0  0
   37.2240   25.4300   42.0710 N   0  0  0  0  0  0  0  0  0  0  0  0
   38.3270   24.7750   42.4630 C   0  0  0  0  0  0  0  0  0  0  0  0
   39.3480   25.4520   43.0600 N   0  0  0  0  0  0  0  0  0  0  0  0
   40.0390   27.2680   43.7110 H   0  0  0  0  0  0  0  0  0  0  0  0
   36.1870   27.3190   41.9340 H   0  0  0  0  0  0  0  0  0  0  0  0
   38.2690   23.7110   42.2430 H   0  0  0  0  0  0  0  0  0  0  0  0
   37.4560   29.6560   42.0910 O   0  0  0  0  0  0  0  0  0  0  0  0
   35.6560   30.8740   40.5010 F   0  0  0  0  0  0  0  0  0  0  0  0
   36.9220   31.3340   40.6380 C   0  0  0  0  0  0  0  0  0  0  0  0
   37.9170   30.7650   41.4400 C   0  0  0  0  0  0  0  0  0  0  0  0
   39.1650   31.3540   41.4770 C   0  0  0  0  0  0  0  0  0  0  0  0
   39.8550   30.8440   42.1180 H   0  0  0  0  0  0  0  0  0  0  0  0
   39.4250   32.4860   40.7320 C   0  0  0  0  0  0  0  0  0  0  0  0
   40.4250   32.8990   40.8040 H   0  0  0  0  0  0  0  0  0  0  0  0
   38.4480   33.0530   39.9380 C   0  0  0  0  0  3  0  0  0  0  0  0
   37.1780   32.4810   39.8810 C   0  0  0  0  0  3  0  0  0  0  0  0
  1  2  1  0  0  0  0
  1  3  1  0  0  0  0
  4 10  1  0  0  0  0
  5  1  1  0  0  0  0
  5  4  2  0  0  0  0
  6  5  1  0  0  0  0
  7  6  2  0  0  0  0
  7  8  1  0  0  0  0
  8  9  2  0  0  0  0
  9  4  1  0  0  0  0
 11  6  1  0  0  0  0
 12  8  1  0  0  0  0
 13  1  1  0  0  0  0
 14 15  1  0  0  0  0
 15 16  1  0  0  0  0
 16 17  2  0  0  0  0
 16 13  1  0  0  0  0
 17 18  1  0  0  0  0
 19 20  1  0  0  0  0
 19 17  1  0  0  0  0
 21 19  2  0  0  0  0
 22 21  1  0  0  0  0
 22 15  2  0  0  0  0
M  END
>  <minimizedAffinity>
-4.12822914

$$$$

 OpenBabel03252504283D

 22 23  0  0  0  0  0  0  0  0999 V2000
   38.4270   26.9310   42.8620 C   0  0  0  0  0  0  0  0  0  0  0  0
   39.2250   27.5640   42.3860 H   0  0  0  0  0  0  0  0  0  0  0  0
   38.8190   26.7110   43.8850 H   0  0  0  0  0  0  0  0  0  0  0  0
   37.0760   25.0770   42.0770 C   0  0  0  0  0  0  0  0  0  0  0  0
   38.3070   25.6970   42.0590 C   0  0  0  0  0  0  0  0  0  0  0  0
   39.3100   25.1140   41.2970 C   0  0  0  0  0  0  0  0  0  0  0  0
   39.0180   23.9850   40.6270 N   0  0  0  0  0  0  0  0  0  0  0  0
   37.8130   23.3960   40.6570 C   0  0  0  0  0  0  0  0  0  0  0  0
   36.8050   23.9410   41.3940 N   0  0  0  0  0  0  0  0  0  0  0  0
   36.2360   25.4640   42.6430 H   0  0  0  0  0  0  0  0  0  0  0  0
   40.2580   25.6190   41.3030 H   0  0  0  0  0  0  0  0  0  0  0  0
   37.7850   22.4950   40.0490 H   0  0  0  0  0  0  0  0  0  0  0  0
   37.2560   27.6750   42.8770 O   0  0  0  0  0  0  0  0  0  0  0  0
   38.5570   30.0320   42.9310 F   0  0  0  0  0  0  0  0  0  0  0  0
   37.5480   29.7870   42.0620 C   0  0  0  0  0  0  0  0  0  0  0  0
   36.8210   28.5950   41.9660 C   0  0  0  0  0  0  0  0  0  0  0  0
   35.8180   28.4970   41.0240 C   0  0  0  0  0  0  0  0  0  0  0  0
   35.3220   27.5480   41.0300 H   0  0  0  0  0  0  0  0  0  0  0  0
   35.5370   29.5600   40.1900 C   0  0  0  0  0  0  0  0  0  0  0  0
   34.7370   29.4200   39.4720 H   0  0  0  0  0  0  0  0  0  0  0  0
   36.2490   30.7400   40.2790 C   0  0  0  0  0  3  0  0  0  0  0  0
   37.2690   30.8680   41.2210 C   0  0  0  0  0  3  0  0  0  0  0  0
  1 13  1  0  0  0  0
  1  3  1  0  0  0  0
  2  1  1  0  0  0  0
  4 10  1  0  0  0  0
  5  4  1  0  0  0  0
  5  1  1  0  0  0  0
  6 11  1  0  0  0  0
  6  5  2  0  0  0  0
  7  8  2  0  0  0  0
  7  6  1  0  0  0  0
  8  9  1  0  0  0  0
  9  4  2  0  0  0  0
 12  8  1  0  0  0  0
 15 14  1  0  0  0  0
 16 15  1  0  0  0  0
 16 13  1  0  0  0  0
 17 18  1  0  0  0  0
 17 16  2  0  0  0  0
 19 21  2  0  0  0  0
 19 17  1  0  0  0  0
 20 19  1  0  0  0  0
 21 22  1  0  0  0  0
 22 15  2  0  0  0  0
M  END
>  <minimizedAffinity>
-4.09358406

$$$$
