
 OpenBabel03252505273D

 24 25  0  0  0  0  0  0  0  0999 V2000
   47.1740   32.0750   48.6000 O   0  0  0  0  0  0  0  0  0  0  0  0
   46.3090   31.6670   47.4090 P   0  0  1  0  0  0  0  0  0  0  0  0
   44.6760   31.9440   47.6840 O   0  0  0  0  0  0  0  0  0  0  0  0
   44.5130   32.9070   47.9190 H   0  0  0  0  0  0  0  0  0  0  0  0
   46.8590   32.5260   46.0840 O   0  0  0  0  0  0  0  0  0  0  0  0
   44.5920   35.2110   45.5510 C   0  0  0  0  0  0  0  0  0  0  0  0
   44.8020   35.5990   44.2160 C   0  0  0  0  0  0  0  0  0  0  0  0
   45.7700   34.8820   43.5120 C   0  0  0  0  0  0  0  0  0  0  0  0
   46.4400   33.8810   44.1190 N   0  0  0  0  0  0  0  0  0  0  0  0
   46.2030   33.5410   45.4110 C   0  0  0  0  0  0  0  0  0  0  0  0
   45.2830   34.2000   46.1300 N   0  0  0  0  0  0  0  0  0  0  0  0
   43.8410   35.7430   46.1470 H   0  0  0  0  0  0  0  0  0  0  0  0
   44.2460   36.4040   43.7650 H   0  0  0  0  0  0  0  0  0  0  0  0
   45.9820   35.1350   42.4690 H   0  0  0  0  0  0  0  0  0  0  0  0
   46.5440   29.9890   47.2210 O   0  0  0  0  0  0  0  0  0  0  0  0
   45.0970   30.1300   44.8210 F   0  0  0  0  0  0  0  0  0  0  0  0
   44.8060   29.1200   45.6560 C   0  0  0  0  0  0  0  0  0  0  0  0
   45.5620   29.1190   46.8200 C   0  0  0  0  0  0  0  0  0  0  0  0
   45.3250   28.1010   47.7490 C   0  0  0  0  0  0  0  0  0  0  0  0
   45.8660   28.0020   48.7030 H   0  0  0  0  0  0  0  0  0  0  0  0
   44.3680   27.1150   47.5300 C   0  0  0  0  0  0  0  0  0  0  0  0
   44.1990   26.3280   48.2690 H   0  0  0  0  0  0  0  0  0  0  0  0
   43.6250   27.1330   46.3660 C   0  0  0  0  0  3  0  0  0  0  0  0
   43.8560   28.1340   45.4500 C   0  0  0  0  0  3  0  0  0  0  0  0
  2  3  1  0  0  0  0
  2  1  2  1  0  0  0
  3  4  1  0  0  0  0
  5  2  1  0  0  0  0
  6 11  1  0  0  0  0
  6 12  1  0  0  0  0
  7  6  2  0  0  0  0
  8  9  2  0  0  0  0
  8  7  1  0  0  0  0
  9 10  1  0  0  0  0
 10  5  1  0  0  0  0
 10 11  2  0  0  0  0
 13  7  1  0  0  0  0
 14  8  1  0  0  0  0
 15  2  1  0  0  0  0
 16 17  1  0  0  0  0
 17 18  1  0  0  0  0
 18 15  1  0  0  0  0
 18 19  2  0  0  0  0
 19 20  1  0  0  0  0
 21 19  1  0  0  0  0
 21 22  1  0  0  0  0
 23 21  2  0  0  0  0
 24 17  2  0  0  0  0
 24 23  1  0  0  0  0
M  END
>  <minimizedAffinity>
-4.4704175

>  <minimizedRMSD>
2.22117066

$$$$
