
 OpenBabel03252508073D

 44 47  0  0  0  0  0  0  0  0999 V2000
   45.0390   35.4760   43.3680 C   0  0  0  0  0  0  0  0  0  0  0  0
   45.4820   34.1620   43.3990 C   0  0  0  0  0  0  0  0  0  0  0  0
   45.4830   33.4700   44.5850 C   0  0  0  0  0  0  0  0  0  0  0  0
   45.0260   34.1400   45.7050 N   0  0  0  0  0  0  0  0  0  0  0  0
   44.6020   35.4010   45.6640 C   0  0  0  0  0  0  0  0  0  0  0  0
   44.6140   36.0590   44.4840 N   0  0  0  0  0  0  0  0  0  0  0  0
   45.0300   36.0450   42.4390 H   0  0  0  0  0  0  0  0  0  0  0  0
   44.2570   35.8610   46.5880 H   0  0  0  0  0  0  0  0  0  0  0  0
   45.9020   32.1350   44.7850 C   0  0  0  0  0  0  0  0  0  0  0  0
   45.6270   31.0880   43.8990 C   0  0  0  0  0  0  0  0  0  0  0  0
   45.9760   29.7790   44.1230 C   0  0  0  0  0  0  0  0  0  0  0  0
   46.6420   29.4340   45.2880 C   0  0  0  0  0  0  0  0  0  0  0  0
   46.9270   30.4890   46.1920 C   0  0  0  0  0  0  0  0  0  0  0  0
   47.5850   30.1610   47.3510 C   0  0  0  0  0  0  0  0  0  0  0  0
   47.8990   31.1340   48.2810 C   0  0  0  0  0  0  0  0  0  0  0  0
   47.5410   32.4630   48.0280 C   0  0  0  0  0  0  0  0  0  0  0  0
   46.8660   32.7540   46.8260 C   0  0  0  0  0  0  0  0  0  0  0  0
   46.5650   31.7680   45.9270 C   0  0  0  0  0  0  0  0  0  0  0  0
   45.1030   31.3630   42.9850 H   0  0  0  0  0  0  0  0  0  0  0  0
   45.7150   29.0440   43.3710 H   0  0  0  0  0  0  0  0  0  0  0  0
   46.9120   28.4220   45.4650 H   0  0  0  0  0  0  0  0  0  0  0  0
   47.8550   29.1200   47.5240 H   0  0  0  0  0  0  0  0  0  0  0  0
   48.4120   30.7950   49.1580 H   0  0  0  0  0  0  0  0  0  0  0  0
   47.8260   33.1550   48.8050 H   0  0  0  0  0  0  0  0  0  0  0  0
   46.7030   33.8100   46.8100 H   0  0  0  0  0  0  0  0  0  0  0  0
   45.9010   33.6190   42.2230 O   0  0  0  0  0  0  0  0  0  0  0  0
   48.2230   32.5550   41.6060 O   0  0  0  0  0  0  0  0  0  0  0  0
   47.4420   33.8320   41.5540 P   0  0  1  0  0  0  0  0  0  0  0  0
   47.3630   34.3080   39.9400 O   0  0  0  0  0  0  0  0  0  0  0  0
   49.2680   33.0370   38.2570 F   0  0  0  0  0  0  0  0  0  0  0  0
   47.9670   32.7040   38.0980 C   0  0  0  0  0  0  0  0  0  0  0  0
   47.1270   33.3710   38.9560 C   0  0  0  0  0  0  0  0  0  0  0  0
   45.7580   33.0950   38.8670 C   0  0  0  0  0  0  0  0  0  0  0  0
   44.9580   33.5420   39.4780 H   0  0  0  0  0  0  0  0  0  0  0  0
   45.2560   32.1830   37.9500 C   0  0  0  0  0  0  0  0  0  0  0  0
   44.2100   31.9430   37.8510 H   0  0  0  0  0  0  0  0  0  0  0  0
   46.1120   31.5210   37.0940 C   0  0  0  0  0  3  0  0  0  0  0  0
   47.4600   31.7990   37.1900 C   0  0  0  0  0  3  0  0  0  0  0  0
   48.2250   35.0400   42.4220 O   0  0  0  0  0  0  0  0  0  0  0  0
   49.5200   35.4930   42.2240 C   0  0  0  0  0  0  0  0  0  0  0  0
   49.3900   36.5080   41.5100 O   0  0  0  0  0  0  0  0  0  0  0  0
   50.4720   34.6470   42.8940 N   0  0  0  0  0  0  0  0  0  0  0  0
   51.1730   33.9890   42.4680 H   0  0  0  0  0  0  0  0  0  0  0  0
   50.4460   34.7120   43.9420 H   0  0  0  0  0  0  0  0  0  0  0  0
  1  2  2  0  0  0  0
  1  6  1  0  0  0  0
  2  3  1  0  0  0  0
  3  9  1  0  0  0  0
  3  4  2  0  0  0  0
  5  4  1  0  0  0  0
  5  8  1  0  0  0  0
  6  5  2  0  0  0  0
  7  1  1  0  0  0  0
  9 18  1  0  0  0  0
 10 11  1  0  0  0  0
 10  9  2  0  0  0  0
 11 12  2  0  0  0  0
 12 21  1  0  0  0  0
 12 13  1  0  0  0  0
 13 14  1  0  0  0  0
 14 22  1  0  0  0  0
 14 15  2  0  0  0  0
 15 23  1  0  0  0  0
 16 15  1  0  0  0  0
 16 24  1  0  0  0  0
 17 16  2  0  0  0  0
 18 13  2  0  0  0  0
 18 17  1  0  0  0  0
 19 10  1  0  0  0  0
 20 11  1  0  0  0  0
 25 17  1  0  0  0  0
 26  2  1  0  0  0  0
 28 27  2  1  0  0  0
 28 26  1  0  0  0  0
 28 39  1  0  0  0  0
 29 28  1  0  0  0  0
 31 30  1  0  0  0  0
 31 32  1  0  0  0  0
 32 29  1  0  0  0  0
 33 32  2  0  0  0  0
 33 34  1  0  0  0  0
 35 33  1  0  0  0  0
 36 35  1  0  0  0  0
 37 38  1  0  0  0  0
 37 35  2  0  0  0  0
 38 31  2  0  0  0  0
 40 39  1  0  0  0  0
 40 42  1  0  0  0  0
 41 40  2  0  0  0  0
 42 44  1  0  0  0  0
 43 42  1  0  0  0  0
M  END
>  <minimizedAffinity>
-6.27003956

>  <minimizedRMSD>
1.05803823

$$$$
