
 OpenBabel03242521273D

 35 37  0  0  1  0  0  0  0  0999 V2000
   48.0800   33.4760   42.5090 C   0  0  1  0  0  0  0  0  0  0  0  0
   46.6090   33.7230   42.2790 C   0  0  2  0  0  0  0  0  0  0  0  0
   46.3810   34.6780   41.3100 O   0  0  0  0  0  0  0  0  0  0  0  0
   46.7460   34.0940   40.1060 C   0  0  0  0  0  0  0  0  0  0  0  0
   48.2410   34.0080   40.0510 C   0  0  2  0  0  0  0  0  0  0  0  0
   48.8910   33.3900   41.2600 C   0  0  2  0  0  0  0  0  0  0  0  0
   48.1340   32.4640   43.0140 H   0  0  0  0  0  0  0  0  0  0  0  0
   46.2030   32.7440   41.9170 H   0  0  0  0  0  0  0  0  0  0  0  0
   46.4340   34.7680   39.2850 H   0  0  0  0  0  0  0  0  0  0  0  0
   46.3060   33.0720   39.9780 H   0  0  0  0  0  0  0  0  0  0  0  0
   48.5440   33.4240   39.1540 H   0  0  0  0  0  0  0  0  0  0  0  0
   49.8080   34.0060   41.4350 H   0  0  0  0  0  0  0  0  0  0  0  0
   44.5660   35.6750   44.8060 C   0  0  0  0  0  0  0  0  0  0  0  0
   45.1580   35.3070   43.5900 C   0  0  0  0  0  0  0  0  0  0  0  0
   45.9610   34.1330   43.5360 C   0  0  0  0  0  0  0  0  0  0  0  0
   46.1110   33.4260   44.6790 N   0  0  0  0  0  0  0  0  0  0  0  0
   45.5270   33.8060   45.8410 C   0  0  0  0  0  0  0  0  0  0  0  0
   44.7540   34.9280   45.9120 N   0  0  0  0  0  0  0  0  0  0  0  0
   43.9860   36.5790   44.7090 H   0  0  0  0  0  0  0  0  0  0  0  0
   45.0370   35.8780   42.6660 H   0  0  0  0  0  0  0  0  0  0  0  0
   45.6410   33.2480   46.7610 H   0  0  0  0  0  0  0  0  0  0  0  0
   48.6220   34.3700   43.4410 O   0  0  0  0  0  0  0  0  0  0  0  0
   49.3970   34.0040   43.9080 H   0  0  0  0  0  0  0  0  0  0  0  0
   48.6820   35.3280   39.8510 O   0  0  0  0  0  0  0  0  0  0  0  0
   47.9930   35.9140   39.4770 H   0  0  0  0  0  0  0  0  0  0  0  0
   49.3270   32.0900   40.9980 O   0  0  0  0  0  0  0  0  0  0  0  0
   51.6460   31.8560   42.3340 F   0  0  0  0  0  0  0  0  0  0  0  0
   51.5480   31.6380   40.9940 C   0  0  0  0  0  0  0  0  0  0  0  0
   50.3970   31.7300   40.2000 C   0  0  0  0  0  0  0  0  0  0  0  0
   50.5200   31.4680   38.8570 C   0  0  0  0  0  0  0  0  0  0  0  0
   49.5870   31.5670   38.3470 H   0  0  0  0  0  0  0  0  0  0  0  0
   51.7340   31.1270   38.3260 C   0  0  0  0  0  0  0  0  0  0  0  0
   51.7040   30.9440   37.2600 H   0  0  0  0  0  0  0  0  0  0  0  0
   52.8870   31.0280   39.0860 C   0  0  0  0  0  0  0  0  0  0  0  0
   52.7760   31.2900   40.4360 C   0  0  0  0  0  0  0  0  0  0  0  0
  1  7  1  1  0  0  0
  1 22  1  0  0  0  0
  2  8  1  6  0  0  0
  2  1  1  0  0  0  0
  2 15  1  0  0  0  0
  3  2  1  0  0  0  0
  4  3  1  0  0  0  0
  5 11  1  6  0  0  0
  5  4  1  0  0  0  0
  5  6  1  0  0  0  0
  6 12  1  1  0  0  0
  6  1  1  0  0  0  0
  9  4  1  0  0  0  0
 10  4  1  0  0  0  0
 13 18  1  0  0  0  0
 14 13  2  0  0  0  0
 15 14  1  0  0  0  0
 15 16  2  0  0  0  0
 16 17  1  0  0  0  0
 17 18  2  0  0  0  0
 17 21  1  0  0  0  0
 19 13  1  0  0  0  0
 20 14  1  0  0  0  0
 22 23  1  0  0  0  0
 24  5  1  0  0  0  0
 25 24  1  0  0  0  0
 26  6  1  0  0  0  0
 28 27  1  0  0  0  0
 29 28  2  0  0  0  0
 29 26  1  0  0  0  0
 30 29  1  0  0  0  0
 31 30  1  0  0  0  0
 32 30  2  0  0  0  0
 32 34  1  0  0  0  0
 33 32  1  0  0  0  0
 34 35  2  0  0  0  0
 35 28  1  0  0  0  0
M  END
>  <minimizedAffinity>
-5.72198105

>  <minimizedRMSD>
1.22976947

$$$$
