
 OpenBabel03252501033D

 31 33  0  0  1  0  0  0  0  0999 V2000
   47.9590   35.5490   41.8520 C   0  0  1  0  0  0  0  0  0  0  0  0
   49.3230   34.9670   41.9040 C   0  0  0  0  0  0  0  0  0  0  0  0
   48.5470   35.0620   40.5980 C   0  0  1  0  0  0  0  0  0  0  0  0
   47.8420   36.6560   42.0050 H   0  0  0  0  0  0  0  0  0  0  0  0
   50.2060   35.6530   42.0540 H   0  0  0  0  0  0  0  0  0  0  0  0
   49.5510   33.9370   42.1750 H   0  0  0  0  0  0  0  0  0  0  0  0
   49.0070   35.8040   39.9150 H   0  0  0  0  0  0  0  0  0  0  0  0
   46.1610   33.0030   43.9970 C   0  0  0  0  0  0  0  0  0  0  0  0
   47.2070   33.7740   43.4660 C   0  0  0  0  0  0  0  0  0  0  0  0
   46.8940   34.7030   42.4640 C   0  0  0  0  0  0  0  0  0  0  0  0
   45.6000   34.8160   42.0530 N   0  0  0  0  0  0  0  0  0  0  0  0
   44.6100   34.0590   42.5820 C   0  0  0  0  0  0  0  0  0  0  0  0
   44.9020   33.1560   43.5540 N   0  0  0  0  0  0  0  0  0  0  0  0
   46.4250   32.2950   44.7670 H   0  0  0  0  0  0  0  0  0  0  0  0
   48.1930   33.6300   43.8420 H   0  0  0  0  0  0  0  0  0  0  0  0
   43.5810   34.1340   42.2690 H   0  0  0  0  0  0  0  0  0  0  0  0
   47.9820   34.0010   40.0030 O   0  0  0  0  0  0  0  0  0  0  0  0
   48.7420   32.4090   38.0190 O   0  0  0  0  0  0  0  0  0  0  0  0
   48.2060   33.7730   38.3940 P   0  0  2  0  0  0  0  0  0  0  0  0
   49.2230   34.9040   37.6640 O   0  0  0  0  0  0  0  0  0  0  0  0
   49.3020   34.6190   36.7020 H   0  0  0  0  0  0  0  0  0  0  0  0
   46.7120   33.8840   37.6070 O   0  0  0  0  0  0  0  0  0  0  0  0
   45.6740   32.6440   35.4540 F   0  0  0  0  0  0  0  0  0  0  0  0
   45.2540   32.3730   36.7280 C   0  0  0  0  0  0  0  0  0  0  0  0
   45.7240   32.9560   37.9090 C   0  0  0  0  0  0  0  0  0  0  0  0
   45.1960   32.5720   39.1070 C   0  0  0  0  0  0  0  0  0  0  0  0
   45.6360   33.0890   39.9370 H   0  0  0  0  0  0  0  0  0  0  0  0
   44.2040   31.6120   39.1440 C   0  0  0  0  0  0  0  0  0  0  0  0
   43.8240   31.3480   40.1230 H   0  0  0  0  0  0  0  0  0  0  0  0
   43.7380   31.0350   37.9800 C   0  0  0  0  0  3  0  0  0  0  0  0
   44.2520   31.4010   36.7530 C   0  0  0  0  0  3  0  0  0  0  0  0
  1  2  1  0  0  0  0
  1  4  1  1  0  0  0
  1 10  1  0  0  0  0
  2  5  1  0  0  0  0
  2  6  1  0  0  0  0
  3  7  1  6  0  0  0
  3  1  1  0  0  0  0
  3  2  1  0  0  0  0
  8 14  1  0  0  0  0
  9 15  1  0  0  0  0
  9  8  2  0  0  0  0
 10  9  1  0  0  0  0
 11 10  2  0  0  0  0
 11 12  1  0  0  0  0
 12 13  2  0  0  0  0
 13  8  1  0  0  0  0
 16 12  1  0  0  0  0
 17  3  1  0  0  0  0
 19 18  2  6  0  0  0
 19 17  1  0  0  0  0
 20 19  1  0  0  0  0
 21 20  1  0  0  0  0
 22 25  1  0  0  0  0
 22 19  1  0  0  0  0
 23 24  1  0  0  0  0
 24 31  2  0  0  0  0
 24 25  1  0  0  0  0
 25 26  2  0  0  0  0
 26 28  1  0  0  0  0
 26 27  1  0  0  0  0
 28 29  1  0  0  0  0
 30 28  2  0  0  0  0
 31 30  1  0  0  0  0
M  END
>  <minimizedAffinity>
-4.31861925

>  <minimizedRMSD>
0.860558093

$$$$
