
 OpenBabel03252508073D

 44 47  0  0  0  0  0  0  0  0999 V2000
   45.1400   35.5550   43.2560 C   0  0  0  0  0  0  0  0  0  0  0  0
   45.5220   34.2220   43.3080 C   0  0  0  0  0  0  0  0  0  0  0  0
   45.4500   33.5380   44.4960 C   0  0  0  0  0  0  0  0  0  0  0  0
   44.9860   34.2350   45.5970 N   0  0  0  0  0  0  0  0  0  0  0  0
   44.6220   35.5130   45.5350 C   0  0  0  0  0  0  0  0  0  0  0  0
   44.7040   36.1630   44.3540 N   0  0  0  0  0  0  0  0  0  0  0  0
   45.1900   36.1170   42.3250 H   0  0  0  0  0  0  0  0  0  0  0  0
   44.2660   35.9940   46.4450 H   0  0  0  0  0  0  0  0  0  0  0  0
   45.8010   32.1860   44.7160 C   0  0  0  0  0  0  0  0  0  0  0  0
   45.4620   31.1390   43.8530 C   0  0  0  0  0  0  0  0  0  0  0  0
   45.7440   29.8180   44.0980 C   0  0  0  0  0  0  0  0  0  0  0  0
   46.4040   29.4600   45.2610 C   0  0  0  0  0  0  0  0  0  0  0  0
   46.7540   30.5130   46.1430 C   0  0  0  0  0  0  0  0  0  0  0  0
   47.4080   30.1720   47.3010 C   0  0  0  0  0  0  0  0  0  0  0  0
   47.7830   31.1440   48.2100 C   0  0  0  0  0  0  0  0  0  0  0  0
   47.4910   32.4850   47.9360 C   0  0  0  0  0  0  0  0  0  0  0  0
   46.8190   32.7910   46.7360 C   0  0  0  0  0  0  0  0  0  0  0  0
   46.4570   31.8050   45.8580 C   0  0  0  0  0  0  0  0  0  0  0  0
   44.9430   31.4250   42.9400 H   0  0  0  0  0  0  0  0  0  0  0  0
   45.4360   29.0840   43.3620 H   0  0  0  0  0  0  0  0  0  0  0  0
   46.6220   28.4380   45.4550 H   0  0  0  0  0  0  0  0  0  0  0  0
   47.6250   29.1220   47.4910 H   0  0  0  0  0  0  0  0  0  0  0  0
   48.2870   30.7940   49.0870 H   0  0  0  0  0  0  0  0  0  0  0  0
   47.8220   33.1750   48.6970 H   0  0  0  0  0  0  0  0  0  0  0  0
   46.7120   33.8530   46.7010 H   0  0  0  0  0  0  0  0  0  0  0  0
   45.9560   33.6540   42.1490 O   0  0  0  0  0  0  0  0  0  0  0  0
   48.1590   32.2950   41.6930 O   0  0  0  0  0  0  0  0  0  0  0  0
   47.5610   33.6660   41.6090 P   0  0  1  0  0  0  0  0  0  0  0  0
   47.6770   34.1670   40.0050 O   0  0  0  0  0  0  0  0  0  0  0  0
   49.5640   32.5850   38.5860 F   0  0  0  0  0  0  0  0  0  0  0  0
   48.2610   32.4700   38.2410 C   0  0  0  0  0  0  0  0  0  0  0  0
   47.4300   33.2740   38.9830 C   0  0  0  0  0  0  0  0  0  0  0  0
   46.0610   33.2270   38.7000 C   0  0  0  0  0  0  0  0  0  0  0  0
   45.2670   33.8050   39.1990 H   0  0  0  0  0  0  0  0  0  0  0  0
   45.5500   32.4020   37.7080 C   0  0  0  0  0  0  0  0  0  0  0  0
   44.5010   32.3390   37.4610 H   0  0  0  0  0  0  0  0  0  0  0  0
   46.3950   31.6010   36.9710 C   0  0  0  0  0  3  0  0  0  0  0  0
   47.7440   31.6530   37.2580 C   0  0  0  0  0  3  0  0  0  0  0  0
   48.4250   34.7470   42.5630 O   0  0  0  0  0  0  0  0  0  0  0  0
   49.6380   35.3410   42.2480 C   0  0  0  0  0  0  0  0  0  0  0  0
   49.3260   36.3890   41.6490 O   0  0  0  0  0  0  0  0  0  0  0  0
   50.7410   34.5460   42.7190 N   0  0  0  0  0  0  0  0  0  0  0  0
   51.4360   33.9950   42.1540 H   0  0  0  0  0  0  0  0  0  0  0  0
   50.8450   34.5280   43.7640 H   0  0  0  0  0  0  0  0  0  0  0  0
  1  2  2  0  0  0  0
  1  6  1  0  0  0  0
  2  3  1  0  0  0  0
  3  9  1  0  0  0  0
  3  4  2  0  0  0  0
  5  4  1  0  0  0  0
  5  8  1  0  0  0  0
  6  5  2  0  0  0  0
  7  1  1  0  0  0  0
  9 18  1  0  0  0  0
 10 11  1  0  0  0  0
 10  9  2  0  0  0  0
 11 12  2  0  0  0  0
 12 21  1  0  0  0  0
 12 13  1  0  0  0  0
 13 14  1  0  0  0  0
 14 22  1  0  0  0  0
 14 15  2  0  0  0  0
 15 23  1  0  0  0  0
 16 15  1  0  0  0  0
 16 24  1  0  0  0  0
 17 16  2  0  0  0  0
 18 13  2  0  0  0  0
 18 17  1  0  0  0  0
 19 10  1  0  0  0  0
 20 11  1  0  0  0  0
 25 17  1  0  0  0  0
 26  2  1  0  0  0  0
 28 27  2  1  0  0  0
 28 26  1  0  0  0  0
 28 39  1  0  0  0  0
 29 28  1  0  0  0  0
 31 30  1  0  0  0  0
 31 32  1  0  0  0  0
 32 29  1  0  0  0  0
 33 32  2  0  0  0  0
 33 34  1  0  0  0  0
 35 33  1  0  0  0  0
 36 35  1  0  0  0  0
 37 38  1  0  0  0  0
 37 35  2  0  0  0  0
 38 31  2  0  0  0  0
 40 39  1  0  0  0  0
 40 42  1  0  0  0  0
 41 40  2  0  0  0  0
 42 44  1  0  0  0  0
 43 42  1  0  0  0  0
M  END
>  <minimizedAffinity>
-6.17399931

>  <minimizedRMSD>
1.25348115

$$$$
