
 OpenBabel03252508073D

 44 47  0  0  0  0  0  0  0  0999 V2000
   45.4440   34.9020   43.6040 C   0  0  0  0  0  0  0  0  0  0  0  0
   45.8630   33.5970   43.8230 C   0  0  0  0  0  0  0  0  0  0  0  0
   45.6910   33.0240   45.0590 C   0  0  0  0  0  0  0  0  0  0  0  0
   45.0920   33.8000   46.0350 N   0  0  0  0  0  0  0  0  0  0  0  0
   44.6930   35.0500   45.8130 C   0  0  0  0  0  0  0  0  0  0  0  0
   44.8760   35.5900   44.5880 N   0  0  0  0  0  0  0  0  0  0  0  0
   45.5710   35.3760   42.6320 H   0  0  0  0  0  0  0  0  0  0  0  0
   44.2290   35.5980   46.6310 H   0  0  0  0  0  0  0  0  0  0  0  0
   46.0620   31.7160   45.4440 C   0  0  0  0  0  0  0  0  0  0  0  0
   45.6850   30.5600   44.7520 C   0  0  0  0  0  0  0  0  0  0  0  0
   45.9890   29.2850   45.1610 C   0  0  0  0  0  0  0  0  0  0  0  0
   46.7120   29.0900   46.3250 C   0  0  0  0  0  0  0  0  0  0  0  0
   47.1020   30.2550   47.0330 C   0  0  0  0  0  0  0  0  0  0  0  0
   47.8190   30.0760   48.1910 C   0  0  0  0  0  0  0  0  0  0  0  0
   48.2350   31.1640   48.9360 C   0  0  0  0  0  0  0  0  0  0  0  0
   47.9200   32.4550   48.4960 C   0  0  0  0  0  0  0  0  0  0  0  0
   47.1830   32.5920   47.3030 C   0  0  0  0  0  0  0  0  0  0  0  0
   46.7810   31.4950   46.5910 C   0  0  0  0  0  0  0  0  0  0  0  0
   45.1160   30.7180   43.8380 H   0  0  0  0  0  0  0  0  0  0  0  0
   45.6480   28.4570   44.5510 H   0  0  0  0  0  0  0  0  0  0  0  0
   46.9480   28.1040   46.6460 H   0  0  0  0  0  0  0  0  0  0  0  0
   48.0530   29.0620   48.5110 H   0  0  0  0  0  0  0  0  0  0  0  0
   48.7880   30.9380   49.8250 H   0  0  0  0  0  0  0  0  0  0  0  0
   48.2860   33.2430   49.1360 H   0  0  0  0  0  0  0  0  0  0  0  0
   47.0670   33.6390   47.1290 H   0  0  0  0  0  0  0  0  0  0  0  0
   46.4340   32.9430   42.7750 O   0  0  0  0  0  0  0  0  0  0  0  0
   48.5560   32.5750   41.2690 O   0  0  0  0  0  0  0  0  0  0  0  0
   47.5790   33.6150   41.7240 P   0  0  1  0  0  0  0  0  0  0  0  0
   46.8590   34.2640   40.3470 O   0  0  0  0  0  0  0  0  0  0  0  0
   48.9050   35.3960   38.7330 F   0  0  0  0  0  0  0  0  0  0  0  0
   48.2360   34.3280   38.2420 C   0  0  0  0  0  0  0  0  0  0  0  0
   47.2690   33.8550   39.0950 C   0  0  0  0  0  0  0  0  0  0  0  0
   46.5210   32.7500   38.6750 C   0  0  0  0  0  0  0  0  0  0  0  0
   45.7140   32.2530   39.2370 H   0  0  0  0  0  0  0  0  0  0  0  0
   46.7390   32.1450   37.4460 C   0  0  0  0  0  0  0  0  0  0  0  0
   46.1820   31.2930   37.0880 H   0  0  0  0  0  0  0  0  0  0  0  0
   47.7140   32.6320   36.6010 C   0  0  0  0  0  3  0  0  0  0  0  0
   48.4480   33.7210   37.0220 C   0  0  0  0  0  3  0  0  0  0  0  0
   48.3710   34.8530   42.5380 O   0  0  0  0  0  0  0  0  0  0  0  0
   49.6130   35.3870   42.2260 C   0  0  0  0  0  0  0  0  0  0  0  0
   49.3540   36.4330   41.5980 O   0  0  0  0  0  0  0  0  0  0  0  0
   50.6740   34.5560   42.7290 N   0  0  0  0  0  0  0  0  0  0  0  0
   51.3520   33.9620   42.1860 H   0  0  0  0  0  0  0  0  0  0  0  0
   50.7650   34.5580   43.7750 H   0  0  0  0  0  0  0  0  0  0  0  0
  1  2  2  0  0  0  0
  1  6  1  0  0  0  0
  2  3  1  0  0  0  0
  3  9  1  0  0  0  0
  3  4  2  0  0  0  0
  5  4  1  0  0  0  0
  5  8  1  0  0  0  0
  6  5  2  0  0  0  0
  7  1  1  0  0  0  0
  9 18  1  0  0  0  0
 10 11  1  0  0  0  0
 10  9  2  0  0  0  0
 11 12  2  0  0  0  0
 12 21  1  0  0  0  0
 12 13  1  0  0  0  0
 13 14  1  0  0  0  0
 14 22  1  0  0  0  0
 14 15  2  0  0  0  0
 15 23  1  0  0  0  0
 16 15  1  0  0  0  0
 16 24  1  0  0  0  0
 17 16  2  0  0  0  0
 18 13  2  0  0  0  0
 18 17  1  0  0  0  0
 19 10  1  0  0  0  0
 20 11  1  0  0  0  0
 25 17  1  0  0  0  0
 26  2  1  0  0  0  0
 28 27  2  6  0  0  0
 28 39  1  0  0  0  0
 28 26  1  0  0  0  0
 29 28  1  0  0  0  0
 31 30  1  0  0  0  0
 31 32  1  0  0  0  0
 32 29  1  0  0  0  0
 33 32  2  0  0  0  0
 33 34  1  0  0  0  0
 35 33  1  0  0  0  0
 36 35  1  0  0  0  0
 37 38  1  0  0  0  0
 37 35  2  0  0  0  0
 38 31  2  0  0  0  0
 40 39  1  0  0  0  0
 40 42  1  0  0  0  0
 41 40  2  0  0  0  0
 42 44  1  0  0  0  0
 43 42  1  0  0  0  0
M  END
>  <minimizedAffinity>
-6.38362265

>  <minimizedRMSD>
1.5194782

$$$$
