
 OpenBabel03252501033D

 31 33  0  0  1  0  0  0  0  0999 V2000
   48.1140   35.3000   41.7470 C   0  0  1  0  0  0  0  0  0  0  0  0
   49.1030   34.2090   41.5680 C   0  0  0  0  0  0  0  0  0  0  0  0
   48.0940   34.5540   40.4820 C   0  0  1  0  0  0  0  0  0  0  0  0
   48.4820   36.3610   41.7470 H   0  0  0  0  0  0  0  0  0  0  0  0
   50.1860   34.4730   41.3970 H   0  0  0  0  0  0  0  0  0  0  0  0
   48.9800   33.1900   41.9350 H   0  0  0  0  0  0  0  0  0  0  0  0
   48.5950   35.0070   39.6030 H   0  0  0  0  0  0  0  0  0  0  0  0
   46.0670   33.6940   44.4930 C   0  0  0  0  0  0  0  0  0  0  0  0
   47.1320   33.9270   43.6100 C   0  0  0  0  0  0  0  0  0  0  0  0
   47.0210   35.0010   42.7170 C   0  0  0  0  0  0  0  0  0  0  0  0
   45.8930   35.7650   42.7440 N   0  0  0  0  0  0  0  0  0  0  0  0
   44.8790   35.5170   43.6070 C   0  0  0  0  0  0  0  0  0  0  0  0
   44.9770   34.4800   44.4770 N   0  0  0  0  0  0  0  0  0  0  0  0
   46.1740   32.8620   45.1720 H   0  0  0  0  0  0  0  0  0  0  0  0
   47.9830   33.2870   43.6520 H   0  0  0  0  0  0  0  0  0  0  0  0
   43.9800   36.1110   43.6430 H   0  0  0  0  0  0  0  0  0  0  0  0
   47.0210   33.7960   40.2100 O   0  0  0  0  0  0  0  0  0  0  0  0
   47.3320   31.8710   38.4100 O   0  0  0  0  0  0  0  0  0  0  0  0
   46.7910   33.2570   38.6780 P   0  0  2  0  0  0  0  0  0  0  0  0
   47.4280   34.2610   37.4820 O   0  0  0  0  0  0  0  0  0  0  0  0
   47.2540   33.7900   36.6090 H   0  0  0  0  0  0  0  0  0  0  0  0
   45.1290   33.1390   38.3780 O   0  0  0  0  0  0  0  0  0  0  0  0
   44.4990   30.6640   39.2280 F   0  0  0  0  0  0  0  0  0  0  0  0
   43.9920   31.7900   39.8160 C   0  0  0  0  0  0  0  0  0  0  0  0
   44.2530   33.1160   39.4550 C   0  0  0  0  0  0  0  0  0  0  0  0
   43.6630   34.1320   40.1490 C   0  0  0  0  0  0  0  0  0  0  0  0
   43.9390   35.1010   39.7790 H   0  0  0  0  0  0  0  0  0  0  0  0
   42.8150   33.8450   41.2000 C   0  0  0  0  0  0  0  0  0  0  0  0
   42.3770   34.6910   41.7120 H   0  0  0  0  0  0  0  0  0  0  0  0
   42.5550   32.5380   41.5590 C   0  0  0  0  0  3  0  0  0  0  0  0
   43.1360   31.4880   40.8770 C   0  0  0  0  0  3  0  0  0  0  0  0
  1  4  1  6  0  0  0
  1 10  1  0  0  0  0
  2  1  1  0  0  0  0
  2  6  1  0  0  0  0
  3  7  1  6  0  0  0
  3  2  1  0  0  0  0
  3  1  1  0  0  0  0
  5  2  1  0  0  0  0
  8 14  1  0  0  0  0
  9 15  1  0  0  0  0
  9  8  2  0  0  0  0
 10 11  2  0  0  0  0
 10  9  1  0  0  0  0
 11 12  1  0  0  0  0
 12 16  1  0  0  0  0
 12 13  2  0  0  0  0
 13  8  1  0  0  0  0
 17  3  1  0  0  0  0
 19 18  2  6  0  0  0
 19 17  1  0  0  0  0
 20 19  1  0  0  0  0
 21 20  1  0  0  0  0
 22 19  1  0  0  0  0
 22 25  1  0  0  0  0
 23 24  1  0  0  0  0
 24 31  1  0  0  0  0
 25 24  2  0  0  0  0
 25 26  1  0  0  0  0
 26 28  2  0  0  0  0
 27 26  1  0  0  0  0
 28 30  1  0  0  0  0
 28 29  1  0  0  0  0
 31 30  2  0  0  0  0
M  END
>  <minimizedAffinity>
-4.36355686

>  <minimizedRMSD>
2.19968843

$$$$
