REMARK  Name = 
REMARK  6 active torsions:
REMARK  status: ('A' for Active; 'I' for Inactive)
REMARK    1  A    between atoms: C_1  and  C_6
REMARK    2  A    between atoms: C_3  and  O_10
REMARK    3  A    between atoms: O_10  and  P_12
REMARK    4  A    between atoms: P_12  and  O_13
REMARK    5  A    between atoms: P_12  and  O_14
REMARK    6  A    between atoms: O_14  and  C_25
REMARK                            x       y       z     vdW  Elec       q    Type
REMARK                         _______ _______ _______ _____ _____    ______ ____
ROOT
ATOM      1  C   UNL     1      48.036  35.613  42.036  0.00  0.00    +0.000 C 
ATOM      2  C   UNL     1      49.434  35.120  41.984  0.00  0.00    +0.000 C 
ATOM      3  C   UNL     1      48.565  35.181  40.736  0.00  0.00    +0.000 C 
ATOM      4  H   UNL     1      47.860  36.708  42.215  0.00  0.00    +0.000 HD
ATOM      5  H   UNL     1      50.280  35.859  42.085  0.00  0.00    +0.000 HD
ATOM      6  H   UNL     1      49.745  34.103  42.221  0.00  0.00    +0.000 HD
ATOM      7  H   UNL     1      48.928  35.960  40.036  0.00  0.00    +0.000 HD
ENDROOT
BRANCH   1  10
ATOM      8  C   UNL     1      46.572  32.815  44.119  0.00  0.00    +0.000 A 
ATOM      9  C   UNL     1      47.529  33.651  43.523  0.00  0.00    +0.000 A 
ATOM     10  C   UNL     1      47.072  34.693  42.705  0.00  0.00    +0.000 A 
ATOM     11  N   UNL     1      45.730  34.847  42.525  0.00  0.00    +0.000 NA
ATOM     12  C   UNL     1      44.828  34.025  43.112  0.00  0.00    +0.000 A 
ATOM     13  N   UNL     1      45.260  33.013  43.907  0.00  0.00    +0.000 NA
ATOM     14  H   UNL     1      46.947  32.020  44.745  0.00  0.00    +0.000 HD
ATOM     15  H   UNL     1      48.561  33.468  43.715  0.00  0.00    +0.000 HD
ATOM     16  H   UNL     1      43.763  34.132  42.981  0.00  0.00    +0.000 HD
ENDBRANCH   1  10
BRANCH   3  17
ATOM     17  O   UNL     1      48.028  34.093  40.163  0.00  0.00    +0.000 OA
BRANCH  17  19
ATOM     18  O   UNL     1      48.716  32.537  38.126  0.00  0.00    +0.000 OA
ATOM     19  P   UNL     1      48.177  33.887  38.543  0.00  0.00    +0.000 P 
BRANCH  19  20
ATOM     20  O   UNL     1      49.137  35.044  37.778  0.00  0.00    +0.000 OA
ATOM     21  H   UNL     1      49.174  34.771  36.809  0.00  0.00    +0.000 HD
ENDBRANCH  19  20
BRANCH  19  22
ATOM     22  O   UNL     1      46.644  33.981  37.831  0.00  0.00    +0.000 OA
BRANCH  22  25
ATOM     23  F   UNL     1      44.355  34.721  39.038  0.00  0.00    +0.000 F 
ATOM     24  C   UNL     1      44.598  33.428  38.660  0.00  0.00    +0.000 A 
ATOM     25  C   UNL     1      45.747  32.940  38.030  0.00  0.00    +0.000 A 
ATOM     26  C   UNL     1      45.833  31.614  37.718  0.00  0.00    +0.000 A 
ATOM     27  H   UNL     1      46.759  31.362  37.239  0.00  0.00    +0.000 HD
ATOM     28  C   UNL     1      44.787  30.767  38.026  0.00  0.00    +0.000 A 
ATOM     29  H   UNL     1      44.912  29.727  37.754  0.00  0.00    +0.000 HD
ATOM     30  C   UNL     1      43.651  31.245  38.647  0.00  0.00    +0.000 A 
ATOM     31  C   UNL     1      43.534  32.581  38.976  0.00  0.00    +0.000 A 
ENDBRANCH  22  25
ENDBRANCH  19  22
ENDBRANCH  17  19
ENDBRANCH   3  17
TORSDOF 6
