
 OpenBabel03242520313D

 41 43  0  0  0  0  0  0  0  0999 V2000
   36.3220   30.2340   38.0080 C   0  0  0  0  0  0  0  0  0  0  0  0
   36.8010   30.5580   39.3060 C   0  0  0  0  0  0  0  0  0  0  0  0
   36.1910   29.9600   40.3960 C   0  0  0  0  0  0  0  0  0  0  0  0
   35.1670   29.0900   40.1820 N   0  0  0  0  0  0  0  0  0  0  0  0
   34.7260   28.7940   38.9430 C   0  0  0  0  0  0  0  0  0  0  0  0
   35.3050   29.3650   37.8710 N   0  0  0  0  0  0  0  0  0  0  0  0
   36.7730   30.6810   37.1370 H   0  0  0  0  0  0  0  0  0  0  0  0
   33.9100   28.0970   38.8430 H   0  0  0  0  0  0  0  0  0  0  0  0
   37.8720   31.4800   39.3460 N   0  0  0  0  0  0  0  0  0  0  0  0
   39.2310   31.1470   38.9570 C   0  0  0  0  0  0  0  0  0  0  0  0
   40.0930   32.3800   38.9960 C   0  0  0  0  0  0  0  0  0  0  0  0
   39.9990   33.1050   40.2280 N   0  0  0  0  0  0  0  0  0  0  0  0
   38.6690   33.3730   40.6810 C   0  0  0  0  0  0  0  0  0  0  0  0
   37.5810   32.8370   39.8070 C   0  0  0  0  0  0  0  0  0  0  0  0
   39.6510   30.2880   39.4750 H   0  0  0  0  0  0  0  0  0  0  0  0
   39.1540   30.8730   37.8650 H   0  0  0  0  0  0  0  0  0  0  0  0
   41.1500   32.0500   38.8880 H   0  0  0  0  0  0  0  0  0  0  0  0
   39.8680   33.0300   38.1300 H   0  0  0  0  0  0  0  0  0  0  0  0
   40.5790   32.6540   40.9750 H   0  0  0  0  0  0  0  0  0  0  0  0
   38.4830   34.4710   40.7860 H   0  0  0  0  0  0  0  0  0  0  0  0
   38.5380   32.9580   41.7040 H   0  0  0  0  0  0  0  0  0  0  0  0
   36.6290   32.8730   40.3770 H   0  0  0  0  0  0  0  0  0  0  0  0
   37.4990   33.4570   38.8860 H   0  0  0  0  0  0  0  0  0  0  0  0
   36.6760   30.2960   41.6380 O   0  0  0  0  0  0  0  0  0  0  0  0
   37.6800   28.9330   43.6760 O   0  0  0  0  0  0  0  0  0  0  0  0
   38.0430   29.4400   42.2840 P   0  0  1  0  0  0  0  0  0  0  0  0
   38.4300   28.2320   41.2220 O   0  0  0  0  0  0  0  0  0  0  0  0
   40.6450   26.7120   41.3610 F   0  0  0  0  0  0  0  0  0  0  0  0
   39.4420   26.1330   41.5600 C   0  0  0  0  0  0  0  0  0  0  0  0
   38.2680   26.8890   41.4960 C   0  0  0  0  0  0  0  0  0  0  0  0
   37.0830   26.2210   41.7120 C   0  0  0  0  0  0  0  0  0  0  0  0
   36.1900   26.8140   41.6600 H   0  0  0  0  0  0  0  0  0  0  0  0
   37.0140   24.8790   41.9790 C   0  0  0  0  0  0  0  0  0  0  0  0
   36.0770   24.3760   42.1440 H   0  0  0  0  0  0  0  0  0  0  0  0
   38.1710   24.1200   42.0440 C   0  0  0  0  0  3  0  0  0  0  0  0
   39.3530   24.7810   41.8300 C   0  0  0  0  0  3  0  0  0  0  0  0
   39.2740   30.5920   42.4300 O   0  0  0  0  0  0  0  0  0  0  0  0
   40.5300   30.0530   42.4770 C   0  0  0  0  0  0  0  0  0  0  0  0
   41.0760   29.8270   41.2250 F   0  0  0  0  0  0  0  0  0  0  0  0
   40.6270   28.9010   43.2190 F   0  0  0  0  0  0  0  0  0  0  0  0
   41.3340   30.9930   43.1200 F   0  0  0  0  0  0  0  0  0  0  0  0
  1  2  1  0  0  0  0
  2  9  1  0  0  0  0
  2  3  2  0  0  0  0
  3 24  1  0  0  0  0
  4  3  1  0  0  0  0
  5  4  2  0  0  0  0
  6  1  2  0  0  0  0
  6  5  1  0  0  0  0
  7  1  1  0  0  0  0
  8  5  1  0  0  0  0
  9 14  1  0  0  0  0
 10 11  1  0  0  0  0
 10  9  1  0  0  0  0
 10 15  1  0  0  0  0
 11 12  1  0  0  0  0
 12 13  1  0  0  0  0
 12 19  1  0  0  0  0
 13 20  1  0  0  0  0
 13 21  1  0  0  0  0
 14 22  1  0  0  0  0
 14 13  1  0  0  0  0
 16 10  1  0  0  0  0
 17 11  1  0  0  0  0
 18 11  1  0  0  0  0
 23 14  1  0  0  0  0
 24 26  1  0  0  0  0
 26 37  1  0  0  0  0
 26 25  2  1  0  0  0
 27 30  1  0  0  0  0
 27 26  1  0  0  0  0
 28 29  1  0  0  0  0
 29 36  1  0  0  0  0
 30 29  2  0  0  0  0
 30 31  1  0  0  0  0
 31 33  2  0  0  0  0
 32 31  1  0  0  0  0
 33 35  1  0  0  0  0
 33 34  1  0  0  0  0
 36 35  2  0  0  0  0
 37 38  1  0  0  0  0
 38 41  1  0  0  0  0
 38 40  1  0  0  0  0
 39 38  1  0  0  0  0
M  END
>  <minimizedAffinity>
-5.55366325

$$$$

 OpenBabel03242520313D

 41 43  0  0  0  0  0  0  0  0999 V2000
   37.3400   30.8580   36.9520 C   0  0  0  0  0  0  0  0  0  0  0  0
   37.4280   30.7880   38.3680 C   0  0  0  0  0  0  0  0  0  0  0  0
   36.8260   29.7160   39.0070 C   0  0  0  0  0  0  0  0  0  0  0  0
   36.1810   28.7810   38.2590 N   0  0  0  0  0  0  0  0  0  0  0  0
   36.1080   28.8630   36.9160 C   0  0  0  0  0  0  0  0  0  0  0  0
   36.6870   29.8960   36.2750 N   0  0  0  0  0  0  0  0  0  0  0  0
   37.7980   31.6770   36.4210 H   0  0  0  0  0  0  0  0  0  0  0  0
   35.5830   28.0880   36.3830 H   0  0  0  0  0  0  0  0  0  0  0  0
   38.1340   31.8430   38.9870 N   0  0  0  0  0  0  0  0  0  0  0  0
   37.5000   33.0560   39.4740 C   0  0  0  0  0  0  0  0  0  0  0  0
   38.5090   33.9130   40.1890 C   0  0  0  0  0  0  0  0  0  0  0  0
   39.7040   34.1420   39.4320 N   0  0  0  0  0  0  0  0  0  0  0  0
   40.3060   32.9730   38.8680 C   0  0  0  0  0  0  0  0  0  0  0  0
   39.5810   31.6930   39.1400 C   0  0  0  0  0  0  0  0  0  0  0  0
   36.9080   33.5850   38.7310 H   0  0  0  0  0  0  0  0  0  0  0  0
   36.7900   32.7020   40.2760 H   0  0  0  0  0  0  0  0  0  0  0  0
   38.0370   34.9050   40.3670 H   0  0  0  0  0  0  0  0  0  0  0  0
   38.7400   33.4820   41.1820 H   0  0  0  0  0  0  0  0  0  0  0  0
   39.5560   34.8860   38.7110 H   0  0  0  0  0  0  0  0  0  0  0  0
   41.3530   32.8300   39.2330 H   0  0  0  0  0  0  0  0  0  0  0  0
   40.3970   33.1000   37.7680 H   0  0  0  0  0  0  0  0  0  0  0  0
   39.9790   30.9170   38.4530 H   0  0  0  0  0  0  0  0  0  0  0  0
   39.7430   31.3870   40.1980 H   0  0  0  0  0  0  0  0  0  0  0  0
   36.9270   29.6780   40.3780 O   0  0  0  0  0  0  0  0  0  0  0  0
   38.9340   27.9640   40.1430 O   0  0  0  0  0  0  0  0  0  0  0  0
   37.8720   28.4320   41.1340 P   0  0  1  0  0  0  0  0  0  0  0  0
   38.5020   29.0530   42.5310 O   0  0  0  0  0  0  0  0  0  0  0  0
   39.3160   31.6120   42.3560 F   0  0  0  0  0  0  0  0  0  0  0  0
   40.2280   30.6520   42.6190 C   0  0  0  0  0  0  0  0  0  0  0  0
   39.8460   29.3120   42.7190 C   0  0  0  0  0  0  0  0  0  0  0  0
   40.8390   28.3980   42.9910 C   0  0  0  0  0  0  0  0  0  0  0  0
   40.5300   27.3720   43.0640 H   0  0  0  0  0  0  0  0  0  0  0  0
   42.1530   28.7430   43.1630 C   0  0  0  0  0  0  0  0  0  0  0  0
   42.9140   28.0130   43.3740 H   0  0  0  0  0  0  0  0  0  0  0  0
   42.5440   30.0690   43.0670 C   0  0  0  0  0  3  0  0  0  0  0  0
   41.5580   30.9820   42.7960 C   0  0  0  0  0  3  0  0  0  0  0  0
   36.7970   27.1560   41.4200 O   0  0  0  0  0  0  0  0  0  0  0  0
   37.1340   26.3850   42.4990 C   0  0  0  0  0  0  0  0  0  0  0  0
   38.4980   26.1930   42.6300 F   0  0  0  0  0  0  0  0  0  0  0  0
   36.5070   25.1640   42.5430 F   0  0  0  0  0  0  0  0  0  0  0  0
   36.6990   27.0810   43.6260 F   0  0  0  0  0  0  0  0  0  0  0  0
  1  2  1  0  0  0  0
  2  9  1  0  0  0  0
  2  3  2  0  0  0  0
  3 24  1  0  0  0  0
  4  3  1  0  0  0  0
  5  4  2  0  0  0  0
  6  5  1  0  0  0  0
  6  1  2  0  0  0  0
  7  1  1  0  0  0  0
  8  5  1  0  0  0  0
  9 14  1  0  0  0  0
  9 10  1  0  0  0  0
 10 11  1  0  0  0  0
 10 16  1  0  0  0  0
 11 17  1  0  0  0  0
 11 18  1  0  0  0  0
 12 11  1  0  0  0  0
 13 14  1  0  0  0  0
 13 20  1  0  0  0  0
 13 12  1  0  0  0  0
 14 23  1  0  0  0  0
 15 10  1  0  0  0  0
 19 12  1  0  0  0  0
 21 13  1  0  0  0  0
 22 14  1  0  0  0  0
 24 26  1  0  0  0  0
 26 25  2  6  0  0  0
 26 37  1  0  0  0  0
 26 27  1  0  0  0  0
 27 30  1  0  0  0  0
 28 29  1  0  0  0  0
 29 30  2  0  0  0  0
 29 36  1  0  0  0  0
 30 31  1  0  0  0  0
 31 32  1  0  0  0  0
 31 33  2  0  0  0  0
 33 34  1  0  0  0  0
 35 33  1  0  0  0  0
 36 35  2  0  0  0  0
 37 38  1  0  0  0  0
 38 40  1  0  0  0  0
 38 39  1  0  0  0  0
 38 41  1  0  0  0  0
M  END
>  <minimizedAffinity>
-5.53274059

$$$$

 OpenBabel03242520313D

 41 43  0  0  0  0  0  0  0  0999 V2000
   37.1850   30.1740   37.6830 C   0  0  0  0  0  0  0  0  0  0  0  0
   38.1140   30.0920   38.7550 C   0  0  0  0  0  0  0  0  0  0  0  0
   37.9940   29.0360   39.6430 C   0  0  0  0  0  0  0  0  0  0  0  0
   37.0000   28.1270   39.4550 N   0  0  0  0  0  0  0  0  0  0  0  0
   36.1280   28.2200   38.4320 C   0  0  0  0  0  0  0  0  0  0  0  0
   36.2270   29.2390   37.5570 N   0  0  0  0  0  0  0  0  0  0  0  0
   37.2480   30.9820   36.9720 H   0  0  0  0  0  0  0  0  0  0  0  0
   35.3640   27.4660   38.3400 H   0  0  0  0  0  0  0  0  0  0  0  0
   39.0820   31.1210   38.8010 N   0  0  0  0  0  0  0  0  0  0  0  0
   38.9100   32.3500   39.5550 C   0  0  0  0  0  0  0  0  0  0  0  0
   40.1700   33.1700   39.4970 C   0  0  0  0  0  0  0  0  0  0  0  0
   40.6650   33.3650   38.1660 N   0  0  0  0  0  0  0  0  0  0  0  0
   40.7650   32.1810   37.3700 C   0  0  0  0  0  0  0  0  0  0  0  0
   40.3180   30.9230   38.0450 C   0  0  0  0  0  0  0  0  0  0  0  0
   38.0030   32.9020   39.3180 H   0  0  0  0  0  0  0  0  0  0  0  0
   38.8240   32.0140   40.6290 H   0  0  0  0  0  0  0  0  0  0  0  0
   39.9330   34.1750   39.9110 H   0  0  0  0  0  0  0  0  0  0  0  0
   40.9440   32.7260   40.1510 H   0  0  0  0  0  0  0  0  0  0  0  0
   40.1310   34.1180   37.6730 H   0  0  0  0  0  0  0  0  0  0  0  0
   41.8140   32.0030   37.0250 H   0  0  0  0  0  0  0  0  0  0  0  0
   40.1720   32.3120   36.4390 H   0  0  0  0  0  0  0  0  0  0  0  0
   40.1940   30.1390   37.2690 H   0  0  0  0  0  0  0  0  0  0  0  0
   41.0810   30.6060   38.7910 H   0  0  0  0  0  0  0  0  0  0  0  0
   38.9080   28.9860   40.6700 O   0  0  0  0  0  0  0  0  0  0  0  0
   37.0440   30.1190   42.1740 O   0  0  0  0  0  0  0  0  0  0  0  0
   38.4440   29.5200   42.2570 P   0  0  1  0  0  0  0  0  0  0  0  0
   38.5460   28.2210   43.2760 O   0  0  0  0  0  0  0  0  0  0  0  0
   36.0730   27.2300   42.9060 F   0  0  0  0  0  0  0  0  0  0  0  0
   37.1370   26.4310   42.6790 C   0  0  0  0  0  0  0  0  0  0  0  0
   38.4380   26.9080   42.8600 C   0  0  0  0  0  0  0  0  0  0  0  0
   39.4670   26.0290   42.6060 C   0  0  0  0  0  0  0  0  0  0  0  0
   40.4600   26.4100   42.7500 H   0  0  0  0  0  0  0  0  0  0  0  0
   39.2680   24.7380   42.1950 C   0  0  0  0  0  0  0  0  0  0  0  0
   40.0860   24.0660   42.0020 H   0  0  0  0  0  0  0  0  0  0  0  0
   37.9830   24.2530   42.0120 C   0  0  0  0  0  3  0  0  0  0  0  0
   36.9560   25.1260   42.2640 C   0  0  0  0  0  3  0  0  0  0  0  0
   39.5370   30.7470   42.6620 O   0  0  0  0  0  0  0  0  0  0  0  0
   40.8480   30.3930   42.4970 C   0  0  0  0  0  0  0  0  0  0  0  0
   41.3150   30.6090   41.2120 F   0  0  0  0  0  0  0  0  0  0  0  0
   41.1400   29.1030   42.8650 F   0  0  0  0  0  0  0  0  0  0  0  0
   41.5830   31.2130   43.3520 F   0  0  0  0  0  0  0  0  0  0  0  0
  1  2  1  0  0  0  0
  2  9  1  0  0  0  0
  2  3  2  0  0  0  0
  3 24  1  0  0  0  0
  4  3  1  0  0  0  0
  5  4  2  0  0  0  0
  6  1  2  0  0  0  0
  6  5  1  0  0  0  0
  7  1  1  0  0  0  0
  8  5  1  0  0  0  0
  9 10  1  0  0  0  0
 10 16  1  0  0  0  0
 11 10  1  0  0  0  0
 11 17  1  0  0  0  0
 11 18  1  0  0  0  0
 12 11  1  0  0  0  0
 13 14  1  0  0  0  0
 13 12  1  0  0  0  0
 14 23  1  0  0  0  0
 14  9  1  0  0  0  0
 15 10  1  0  0  0  0
 19 12  1  0  0  0  0
 20 13  1  0  0  0  0
 21 13  1  0  0  0  0
 22 14  1  0  0  0  0
 24 26  1  0  0  0  0
 26 25  2  6  0  0  0
 26 37  1  0  0  0  0
 26 27  1  0  0  0  0
 29 30  1  0  0  0  0
 29 28  1  0  0  0  0
 30 27  1  0  0  0  0
 31 32  1  0  0  0  0
 31 30  2  0  0  0  0
 33 31  1  0  0  0  0
 34 33  1  0  0  0  0
 35 33  2  0  0  0  0
 35 36  1  0  0  0  0
 36 29  2  0  0  0  0
 38 37  1  0  0  0  0
 38 40  1  0  0  0  0
 38 41  1  0  0  0  0
 39 38  1  0  0  0  0
M  END
>  <minimizedAffinity>
-5.49216366

$$$$

 OpenBabel03242520313D

 41 43  0  0  0  0  0  0  0  0999 V2000
   41.3840   32.3800   37.3700 C   0  0  0  0  0  0  0  0  0  0  0  0
   40.5510   31.6440   38.2540 C   0  0  0  0  0  0  0  0  0  0  0  0
   40.8580   30.3130   38.4850 C   0  0  0  0  0  0  0  0  0  0  0  0
   41.9380   29.7690   37.8620 N   0  0  0  0  0  0  0  0  0  0  0  0
   42.7180   30.4830   37.0260 C   0  0  0  0  0  0  0  0  0  0  0  0
   42.4370   31.7770   36.7870 N   0  0  0  0  0  0  0  0  0  0  0  0
   41.1750   33.4180   37.1670 H   0  0  0  0  0  0  0  0  0  0  0  0
   43.5590   29.9910   36.5650 H   0  0  0  0  0  0  0  0  0  0  0  0
   39.4720   32.3640   38.8150 N   0  0  0  0  0  0  0  0  0  0  0  0
   39.6040   33.2330   39.9710 C   0  0  0  0  0  0  0  0  0  0  0  0
   38.3030   33.9440   40.2310 C   0  0  0  0  0  0  0  0  0  0  0  0
   37.1720   33.0660   40.2850 N   0  0  0  0  0  0  0  0  0  0  0  0
   37.0630   32.1390   39.2010 C   0  0  0  0  0  0  0  0  0  0  0  0
   38.1600   32.2180   38.1870 C   0  0  0  0  0  0  0  0  0  0  0  0
   40.0380   32.7570   40.8470 H   0  0  0  0  0  0  0  0  0  0  0  0
   40.3210   34.0390   39.6390 H   0  0  0  0  0  0  0  0  0  0  0  0
   38.3850   34.4370   41.2240 H   0  0  0  0  0  0  0  0  0  0  0  0
   38.1510   34.7470   39.4830 H   0  0  0  0  0  0  0  0  0  0  0  0
   37.1140   32.5840   41.2130 H   0  0  0  0  0  0  0  0  0  0  0  0
   36.1020   32.2670   38.6430 H   0  0  0  0  0  0  0  0  0  0  0  0
   37.0280   31.1040   39.6040 H   0  0  0  0  0  0  0  0  0  0  0  0
   38.1150   31.3040   37.5570 H   0  0  0  0  0  0  0  0  0  0  0  0
   38.0230   33.1240   37.5560 H   0  0  0  0  0  0  0  0  0  0  0  0
   40.0320   29.6280   39.3450 O   0  0  0  0  0  0  0  0  0  0  0  0
   39.5190   27.0910   38.7780 O   0  0  0  0  0  0  0  0  0  0  0  0
   38.8940   28.4810   38.7080 P   0  0  1  0  0  0  0  0  0  0  0  0
   37.4950   28.6200   39.5810 O   0  0  0  0  0  0  0  0  0  0  0  0
   36.6500   26.2060   40.4160 F   0  0  0  0  0  0  0  0  0  0  0  0
   36.9730   27.1400   41.3360 C   0  0  0  0  0  0  0  0  0  0  0  0
   37.4160   28.4050   40.9430 C   0  0  0  0  0  0  0  0  0  0  0  0
   37.7250   29.2980   41.9450 C   0  0  0  0  0  0  0  0  0  0  0  0
   38.0640   30.2660   41.6270 H   0  0  0  0  0  0  0  0  0  0  0  0
   37.6170   29.0000   43.2770 C   0  0  0  0  0  0  0  0  0  0  0  0
   37.8630   29.7120   44.0450 H   0  0  0  0  0  0  0  0  0  0  0  0
   37.1790   27.7490   43.6790 C   0  0  0  0  0  3  0  0  0  0  0  0
   36.8700   26.8570   42.6840 C   0  0  0  0  0  3  0  0  0  0  0  0
   38.6850   28.9010   37.0820 O   0  0  0  0  0  0  0  0  0  0  0  0
   37.4330   28.6340   36.6010 C   0  0  0  0  0  0  0  0  0  0  0  0
   36.5250   29.6510   36.8440 F   0  0  0  0  0  0  0  0  0  0  0  0
   36.8970   27.4470   37.0360 F   0  0  0  0  0  0  0  0  0  0  0  0
   37.5650   28.5130   35.2180 F   0  0  0  0  0  0  0  0  0  0  0  0
  1  2  1  0  0  0  0
  2  3  2  0  0  0  0
  2  9  1  0  0  0  0
  3 24  1  0  0  0  0
  4  3  1  0  0  0  0
  5  4  2  0  0  0  0
  6  5  1  0  0  0  0
  6  1  2  0  0  0  0
  7  1  1  0  0  0  0
  8  5  1  0  0  0  0
  9 10  1  0  0  0  0
 10 11  1  0  0  0  0
 10 15  1  0  0  0  0
 11 12  1  0  0  0  0
 11 17  1  0  0  0  0
 12 19  1  0  0  0  0
 13 21  1  0  0  0  0
 13 12  1  0  0  0  0
 14  9  1  0  0  0  0
 14 13  1  0  0  0  0
 16 10  1  0  0  0  0
 18 11  1  0  0  0  0
 20 13  1  0  0  0  0
 22 14  1  0  0  0  0
 23 14  1  0  0  0  0
 26 25  2  1  0  0  0
 26 24  1  0  0  0  0
 26 27  1  0  0  0  0
 27 30  1  0  0  0  0
 28 29  1  0  0  0  0
 29 36  1  0  0  0  0
 30 29  2  0  0  0  0
 30 31  1  0  0  0  0
 31 33  2  0  0  0  0
 32 31  1  0  0  0  0
 33 35  1  0  0  0  0
 33 34  1  0  0  0  0
 36 35  2  0  0  0  0
 37 26  1  0  0  0  0
 38 39  1  0  0  0  0
 38 40  1  0  0  0  0
 38 37  1  0  0  0  0
 41 38  1  0  0  0  0
M  END
>  <minimizedAffinity>
-5.47546721

$$$$

 OpenBabel03242520313D

 41 43  0  0  0  0  0  0  0  0999 V2000
   40.6770   30.1950   37.9460 C   0  0  0  0  0  0  0  0  0  0  0  0
   39.4180   30.2770   38.5980 C   0  0  0  0  0  0  0  0  0  0  0  0
   38.6420   29.1310   38.6660 C   0  0  0  0  0  0  0  0  0  0  0  0
   39.1140   27.9830   38.1100 N   0  0  0  0  0  0  0  0  0  0  0  0
   40.3120   27.9240   37.4950 C   0  0  0  0  0  0  0  0  0  0  0  0
   41.0810   29.0260   37.4180 N   0  0  0  0  0  0  0  0  0  0  0  0
   41.3080   31.0670   37.8750 H   0  0  0  0  0  0  0  0  0  0  0  0
   40.6260   26.9820   37.0760 H   0  0  0  0  0  0  0  0  0  0  0  0
   39.0840   31.5470   39.1190 N   0  0  0  0  0  0  0  0  0  0  0  0
   39.7080   32.1200   40.2990 C   0  0  0  0  0  0  0  0  0  0  0  0
   39.2190   33.5280   40.5070 C   0  0  0  0  0  0  0  0  0  0  0  0
   37.7920   33.6470   40.4860 N   0  0  0  0  0  0  0  0  0  0  0  0
   37.1410   33.0180   39.3780 C   0  0  0  0  0  0  0  0  0  0  0  0
   38.0520   32.3150   38.4230 C   0  0  0  0  0  0  0  0  0  0  0  0
   39.6600   31.4910   41.1850 H   0  0  0  0  0  0  0  0  0  0  0  0
   40.7980   32.2220   40.0210 H   0  0  0  0  0  0  0  0  0  0  0  0
   39.5620   33.8530   41.5140 H   0  0  0  0  0  0  0  0  0  0  0  0
   39.6900   34.2070   39.7710 H   0  0  0  0  0  0  0  0  0  0  0  0
   37.3760   33.3480   41.3990 H   0  0  0  0  0  0  0  0  0  0  0  0
   36.5510   33.7520   38.7750 H   0  0  0  0  0  0  0  0  0  0  0  0
   36.3940   32.2870   39.7560 H   0  0  0  0  0  0  0  0  0  0  0  0
   37.4340   31.6620   37.7720 H   0  0  0  0  0  0  0  0  0  0  0  0
   38.5980   33.0630   37.8050 H   0  0  0  0  0  0  0  0  0  0  0  0
   37.4280   29.2430   39.3020 O   0  0  0  0  0  0  0  0  0  0  0  0
   36.7980   30.2710   41.6620 O   0  0  0  0  0  0  0  0  0  0  0  0
   37.3350   28.9960   41.0190 P   0  0  1  0  0  0  0  0  0  0  0  0
   36.3810   27.6710   41.2870 O   0  0  0  0  0  0  0  0  0  0  0  0
   36.1970   26.3580   38.9460 F   0  0  0  0  0  0  0  0  0  0  0  0
   36.7310   25.7230   40.0110 C   0  0  0  0  0  0  0  0  0  0  0  0
   36.8440   26.3710   41.2440 C   0  0  0  0  0  0  0  0  0  0  0  0
   37.4020   25.6520   42.2780 C   0  0  0  0  0  0  0  0  0  0  0  0
   37.4820   26.1620   43.2190 H   0  0  0  0  0  0  0  0  0  0  0  0
   37.8370   24.3600   42.1470 C   0  0  0  0  0  0  0  0  0  0  0  0
   38.2690   23.8150   42.9680 H   0  0  0  0  0  0  0  0  0  0  0  0
   37.7290   23.7070   40.9290 C   0  0  0  0  0  3  0  0  0  0  0  0
   37.1750   24.4200   39.8970 C   0  0  0  0  0  3  0  0  0  0  0  0
   38.9300   28.7590   41.5330 O   0  0  0  0  0  0  0  0  0  0  0  0
   39.1330   29.0580   42.8520 C   0  0  0  0  0  0  0  0  0  0  0  0
   38.1230   28.5980   43.6790 F   0  0  0  0  0  0  0  0  0  0  0  0
   39.3450   30.3900   43.1090 F   0  0  0  0  0  0  0  0  0  0  0  0
   40.3070   28.4030   43.2230 F   0  0  0  0  0  0  0  0  0  0  0  0
  1  2  1  0  0  0  0
  2  3  2  0  0  0  0
  2  9  1  0  0  0  0
  3 24  1  0  0  0  0
  4  3  1  0  0  0  0
  5  4  2  0  0  0  0
  6  5  1  0  0  0  0
  6  1  2  0  0  0  0
  7  1  1  0  0  0  0
  8  5  1  0  0  0  0
  9 10  1  0  0  0  0
 10 11  1  0  0  0  0
 10 15  1  0  0  0  0
 11 17  1  0  0  0  0
 12 11  1  0  0  0  0
 12 19  1  0  0  0  0
 13 21  1  0  0  0  0
 13 12  1  0  0  0  0
 14  9  1  0  0  0  0
 14 13  1  0  0  0  0
 16 10  1  0  0  0  0
 18 11  1  0  0  0  0
 20 13  1  0  0  0  0
 22 14  1  0  0  0  0
 23 14  1  0  0  0  0
 24 26  1  0  0  0  0
 26 27  1  0  0  0  0
 26 37  1  0  0  0  0
 26 25  2  1  0  0  0
 28 29  1  0  0  0  0
 29 30  1  0  0  0  0
 30 27  1  0  0  0  0
 30 31  2  0  0  0  0
 31 32  1  0  0  0  0
 33 31  1  0  0  0  0
 33 34  1  0  0  0  0
 35 33  2  0  0  0  0
 36 29  2  0  0  0  0
 36 35  1  0  0  0  0
 37 38  1  0  0  0  0
 38 40  1  0  0  0  0
 38 41  1  0  0  0  0
 38 39  1  0  0  0  0
M  END
>  <minimizedAffinity>
-5.40643358

$$$$

 OpenBabel03242520313D

 41 43  0  0  0  0  0  0  0  0999 V2000
   37.7140   29.1650   36.8030 C   0  0  0  0  0  0  0  0  0  0  0  0
   38.2860   29.5790   38.0360 C   0  0  0  0  0  0  0  0  0  0  0  0
   39.3640   28.8630   38.5300 C   0  0  0  0  0  0  0  0  0  0  0  0
   39.8300   27.8010   37.8190 N   0  0  0  0  0  0  0  0  0  0  0  0
   39.2750   27.4220   36.6500 C   0  0  0  0  0  0  0  0  0  0  0  0
   38.2270   28.1040   36.1540 N   0  0  0  0  0  0  0  0  0  0  0  0
   36.8740   29.6980   36.3890 H   0  0  0  0  0  0  0  0  0  0  0  0
   39.6930   26.5710   36.1380 H   0  0  0  0  0  0  0  0  0  0  0  0
   37.6780   30.7030   38.6410 N   0  0  0  0  0  0  0  0  0  0  0  0
   38.2000   32.0530   38.5310 C   0  0  0  0  0  0  0  0  0  0  0  0
   37.2530   33.0260   39.1800 C   0  0  0  0  0  0  0  0  0  0  0  0
   36.8720   32.6530   40.5100 N   0  0  0  0  0  0  0  0  0  0  0  0
   36.4340   31.3000   40.6650 C   0  0  0  0  0  0  0  0  0  0  0  0
   36.4590   30.4780   39.4170 C   0  0  0  0  0  0  0  0  0  0  0  0
   39.2370   32.1630   38.8390 H   0  0  0  0  0  0  0  0  0  0  0  0
   38.1540   32.2850   37.4270 H   0  0  0  0  0  0  0  0  0  0  0  0
   37.7760   34.0050   39.2480 H   0  0  0  0  0  0  0  0  0  0  0  0
   36.3640   33.1790   38.5370 H   0  0  0  0  0  0  0  0  0  0  0  0
   37.6230   32.8980   41.1980 H   0  0  0  0  0  0  0  0  0  0  0  0
   35.3890   31.2480   41.0620 H   0  0  0  0  0  0  0  0  0  0  0  0
   37.0600   30.7970   41.4330 H   0  0  0  0  0  0  0  0  0  0  0  0
   36.3560   29.4100   39.7040 H   0  0  0  0  0  0  0  0  0  0  0  0
   35.6180   30.7780   38.7520 H   0  0  0  0  0  0  0  0  0  0  0  0
   39.8940   29.2890   39.7250 O   0  0  0  0  0  0  0  0  0  0  0  0
   39.1340   29.6860   42.2320 O   0  0  0  0  0  0  0  0  0  0  0  0
   39.3440   28.5740   41.2090 P   0  0  1  0  0  0  0  0  0  0  0  0
   37.9700   27.7150   40.8770 O   0  0  0  0  0  0  0  0  0  0  0  0
   36.6130   26.5980   42.9140 F   0  0  0  0  0  0  0  0  0  0  0  0
   37.1850   25.7950   41.9920 C   0  0  0  0  0  0  0  0  0  0  0  0
   37.8970   26.3360   40.9190 C   0  0  0  0  0  0  0  0  0  0  0  0
   38.4480   25.4470   40.0230 C   0  0  0  0  0  0  0  0  0  0  0  0
   38.9920   25.8770   39.2040 H   0  0  0  0  0  0  0  0  0  0  0  0
   38.3260   24.0880   40.1410 C   0  0  0  0  0  0  0  0  0  0  0  0
   38.7650   23.4100   39.4300 H   0  0  0  0  0  0  0  0  0  0  0  0
   37.6220   23.5400   41.2010 C   0  0  0  0  0  3  0  0  0  0  0  0
   37.0720   24.4220   42.0950 C   0  0  0  0  0  3  0  0  0  0  0  0
   40.6130   27.5850   41.7360 O   0  0  0  0  0  0  0  0  0  0  0  0
   40.6050   27.3500   43.0830 C   0  0  0  0  0  0  0  0  0  0  0  0
   41.1270   26.1150   43.4270 F   0  0  0  0  0  0  0  0  0  0  0  0
   39.3760   27.4950   43.6780 F   0  0  0  0  0  0  0  0  0  0  0  0
   41.4250   28.3240   43.6530 F   0  0  0  0  0  0  0  0  0  0  0  0
  1  2  1  0  0  0  0
  2  3  2  0  0  0  0
  2  9  1  0  0  0  0
  3 24  1  0  0  0  0
  4  3  1  0  0  0  0
  5  4  2  0  0  0  0
  6  5  1  0  0  0  0
  6  1  2  0  0  0  0
  7  1  1  0  0  0  0
  8  5  1  0  0  0  0
  9 14  1  0  0  0  0
 10  9  1  0  0  0  0
 10 15  1  0  0  0  0
 10 11  1  0  0  0  0
 11 17  1  0  0  0  0
 11 12  1  0  0  0  0
 12 13  1  0  0  0  0
 12 19  1  0  0  0  0
 13 20  1  0  0  0  0
 13 21  1  0  0  0  0
 14 22  1  0  0  0  0
 14 13  1  0  0  0  0
 16 10  1  0  0  0  0
 18 11  1  0  0  0  0
 23 14  1  0  0  0  0
 24 26  1  0  0  0  0
 26 37  1  0  0  0  0
 26 25  2  1  0  0  0
 27 30  1  0  0  0  0
 27 26  1  0  0  0  0
 29 36  1  0  0  0  0
 29 28  1  0  0  0  0
 30 29  2  0  0  0  0
 31 33  2  0  0  0  0
 31 30  1  0  0  0  0
 32 31  1  0  0  0  0
 33 35  1  0  0  0  0
 34 33  1  0  0  0  0
 35 36  2  0  0  0  0
 37 38  1  0  0  0  0
 38 39  1  0  0  0  0
 38 41  1  0  0  0  0
 38 40  1  0  0  0  0
M  END
>  <minimizedAffinity>
-5.40233469

$$$$

 OpenBabel03242520313D

 41 43  0  0  0  0  0  0  0  0999 V2000
   41.2350   31.7510   37.4000 C   0  0  0  0  0  0  0  0  0  0  0  0
   40.1630   31.1820   38.1390 C   0  0  0  0  0  0  0  0  0  0  0  0
   40.0770   29.8010   38.2060 C   0  0  0  0  0  0  0  0  0  0  0  0
   41.0150   29.0510   37.5690 N   0  0  0  0  0  0  0  0  0  0  0  0
   42.0260   29.6070   36.8720 C   0  0  0  0  0  0  0  0  0  0  0  0
   42.1280   30.9470   36.7940 N   0  0  0  0  0  0  0  0  0  0  0  0
   41.3340   32.8220   37.3260 H   0  0  0  0  0  0  0  0  0  0  0  0
   42.7360   28.9560   36.3900 H   0  0  0  0  0  0  0  0  0  0  0  0
   39.2790   32.1080   38.7380 N   0  0  0  0  0  0  0  0  0  0  0  0
   39.6970   33.1000   39.7120 C   0  0  0  0  0  0  0  0  0  0  0  0
   38.5430   34.0040   40.0530 C   0  0  0  0  0  0  0  0  0  0  0  0
   37.3490   33.2980   40.4120 N   0  0  0  0  0  0  0  0  0  0  0  0
   36.9600   32.2560   39.5130 C   0  0  0  0  0  0  0  0  0  0  0  0
   37.8710   32.0520   38.3460 C   0  0  0  0  0  0  0  0  0  0  0  0
   40.2180   32.6930   40.5760 H   0  0  0  0  0  0  0  0  0  0  0  0
   40.4310   33.7520   39.1560 H   0  0  0  0  0  0  0  0  0  0  0  0
   38.8450   34.6120   40.9340 H   0  0  0  0  0  0  0  0  0  0  0  0
   38.3550   34.7120   39.2220 H   0  0  0  0  0  0  0  0  0  0  0  0
   37.3970   32.9580   41.4010 H   0  0  0  0  0  0  0  0  0  0  0  0
   35.9380   32.4330   39.0940 H   0  0  0  0  0  0  0  0  0  0  0  0
   36.8810   31.2980   40.0720 H   0  0  0  0  0  0  0  0  0  0  0  0
   37.6220   31.0760   37.8790 H   0  0  0  0  0  0  0  0  0  0  0  0
   37.7290   32.8740   37.6100 H   0  0  0  0  0  0  0  0  0  0  0  0
   39.0270   29.2820   38.9280 O   0  0  0  0  0  0  0  0  0  0  0  0
   39.7900   30.0160   41.3570 O   0  0  0  0  0  0  0  0  0  0  0  0
   39.2750   28.8080   40.5800 P   0  0  1  0  0  0  0  0  0  0  0  0
   37.8410   28.2160   41.1560 O   0  0  0  0  0  0  0  0  0  0  0  0
   37.6310   26.7090   43.3740 F   0  0  0  0  0  0  0  0  0  0  0  0
   37.3390   26.1560   42.1780 C   0  0  0  0  0  0  0  0  0  0  0  0
   37.4350   26.9060   41.0030 C   0  0  0  0  0  0  0  0  0  0  0  0
   37.1180   26.2650   39.8260 C   0  0  0  0  0  0  0  0  0  0  0  0
   37.1960   26.8540   38.9320 H   0  0  0  0  0  0  0  0  0  0  0  0
   36.7220   24.9560   39.7650 C   0  0  0  0  0  0  0  0  0  0  0  0
   36.4790   24.4730   38.8350 H   0  0  0  0  0  0  0  0  0  0  0  0
   36.6230   24.2020   40.9240 C   0  0  0  0  0  3  0  0  0  0  0  0
   36.9380   24.8360   42.0980 C   0  0  0  0  0  3  0  0  0  0  0  0
   40.4900   27.6310   40.5390 O   0  0  0  0  0  0  0  0  0  0  0  0
   40.9140   27.2340   41.7780 C   0  0  0  0  0  0  0  0  0  0  0  0
   40.2360   27.8540   42.8130 F   0  0  0  0  0  0  0  0  0  0  0  0
   42.2640   27.3680   41.9880 F   0  0  0  0  0  0  0  0  0  0  0  0
   40.6450   25.8680   41.8620 F   0  0  0  0  0  0  0  0  0  0  0  0
  1  2  1  0  0  0  0
  2  3  2  0  0  0  0
  2  9  1  0  0  0  0
  3 24  1  0  0  0  0
  4  3  1  0  0  0  0
  5  4  2  0  0  0  0
  6  5  1  0  0  0  0
  6  1  2  0  0  0  0
  7  1  1  0  0  0  0
  8  5  1  0  0  0  0
  9 10  1  0  0  0  0
 10 11  1  0  0  0  0
 10 15  1  0  0  0  0
 11 12  1  0  0  0  0
 11 17  1  0  0  0  0
 12 19  1  0  0  0  0
 13 21  1  0  0  0  0
 13 12  1  0  0  0  0
 14  9  1  0  0  0  0
 14 13  1  0  0  0  0
 16 10  1  0  0  0  0
 18 11  1  0  0  0  0
 20 13  1  0  0  0  0
 22 14  1  0  0  0  0
 23 14  1  0  0  0  0
 24 26  1  0  0  0  0
 26 27  1  0  0  0  0
 26 25  2  1  0  0  0
 29 28  1  0  0  0  0
 30 27  1  0  0  0  0
 30 29  2  0  0  0  0
 31 30  1  0  0  0  0
 32 31  1  0  0  0  0
 33 31  2  0  0  0  0
 33 35  1  0  0  0  0
 34 33  1  0  0  0  0
 35 36  2  0  0  0  0
 36 29  1  0  0  0  0
 37 26  1  0  0  0  0
 37 38  1  0  0  0  0
 38 41  1  0  0  0  0
 38 40  1  0  0  0  0
 38 39  1  0  0  0  0
M  END
>  <minimizedAffinity>
-5.3246932

$$$$

 OpenBabel03242520313D

 41 43  0  0  0  0  0  0  0  0999 V2000
   37.3090   30.4140   36.6940 C   0  0  0  0  0  0  0  0  0  0  0  0
   37.5330   30.6450   38.0780 C   0  0  0  0  0  0  0  0  0  0  0  0
   36.6500   30.0830   38.9850 C   0  0  0  0  0  0  0  0  0  0  0  0
   35.6120   29.3370   38.5190 N   0  0  0  0  0  0  0  0  0  0  0  0
   35.4150   29.1280   37.2020 C   0  0  0  0  0  0  0  0  0  0  0  0
   36.2610   29.6650   36.3040 N   0  0  0  0  0  0  0  0  0  0  0  0
   37.9760   30.8350   35.9590 H   0  0  0  0  0  0  0  0  0  0  0  0
   34.5740   28.5270   36.9000 H   0  0  0  0  0  0  0  0  0  0  0  0
   38.6580   31.4430   38.3870 N   0  0  0  0  0  0  0  0  0  0  0  0
   38.5850   32.6570   39.1800 C   0  0  0  0  0  0  0  0  0  0  0  0
   39.9700   33.1930   39.4290 C   0  0  0  0  0  0  0  0  0  0  0  0
   40.7570   33.3180   38.2380 N   0  0  0  0  0  0  0  0  0  0  0  0
   40.7780   32.1650   37.3930 C   0  0  0  0  0  0  0  0  0  0  0  0
   39.9570   31.0110   37.8740 C   0  0  0  0  0  0  0  0  0  0  0  0
   37.8780   33.3960   38.8120 H   0  0  0  0  0  0  0  0  0  0  0  0
   38.2140   32.3150   40.1900 H   0  0  0  0  0  0  0  0  0  0  0  0
   39.8600   34.2120   39.8610 H   0  0  0  0  0  0  0  0  0  0  0  0
   40.4870   32.5750   40.1880 H   0  0  0  0  0  0  0  0  0  0  0  0
   40.4990   34.1830   37.7060 H   0  0  0  0  0  0  0  0  0  0  0  0
   41.8170   31.7790   37.2470 H   0  0  0  0  0  0  0  0  0  0  0  0
   40.4280   32.4470   36.3760 H   0  0  0  0  0  0  0  0  0  0  0  0
   39.8400   30.2950   37.0340 H   0  0  0  0  0  0  0  0  0  0  0  0
   40.4700   30.5160   38.7290 H   0  0  0  0  0  0  0  0  0  0  0  0
   36.8940   30.3270   40.3170 O   0  0  0  0  0  0  0  0  0  0  0  0
   35.6130   28.5920   41.8560 O   0  0  0  0  0  0  0  0  0  0  0  0
   37.0200   28.9940   41.4230 P   0  0  1  0  0  0  0  0  0  0  0  0
   37.8470   27.7810   40.6600 O   0  0  0  0  0  0  0  0  0  0  0  0
   38.1940   26.1270   42.7530 F   0  0  0  0  0  0  0  0  0  0  0  0
   37.5750   25.6610   41.6480 C   0  0  0  0  0  0  0  0  0  0  0  0
   37.3760   26.4890   40.5400 C   0  0  0  0  0  0  0  0  0  0  0  0
   36.7350   25.9340   39.4540 C   0  0  0  0  0  0  0  0  0  0  0  0
   36.5890   26.5820   38.6100 H   0  0  0  0  0  0  0  0  0  0  0  0
   36.2990   24.6370   39.4200 C   0  0  0  0  0  0  0  0  0  0  0  0
   35.8010   24.2230   38.5610 H   0  0  0  0  0  0  0  0  0  0  0  0
   36.4910   23.8070   40.5120 C   0  0  0  0  0  3  0  0  0  0  0  0
   37.1280   24.3550   41.5960 C   0  0  0  0  0  3  0  0  0  0  0  0
   37.8510   29.5960   42.7690 O   0  0  0  0  0  0  0  0  0  0  0  0
   39.1770   29.8350   42.5350 C   0  0  0  0  0  0  0  0  0  0  0  0
   39.6650   30.9330   43.2220 F   0  0  0  0  0  0  0  0  0  0  0  0
   39.5080   29.9580   41.2080 F   0  0  0  0  0  0  0  0  0  0  0  0
   39.8630   28.7130   42.9990 F   0  0  0  0  0  0  0  0  0  0  0  0
  1  2  1  0  0  0  0
  2  9  1  0  0  0  0
  2  3  2  0  0  0  0
  3 24  1  0  0  0  0
  4  3  1  0  0  0  0
  5  4  2  0  0  0  0
  6  1  2  0  0  0  0
  6  5  1  0  0  0  0
  7  1  1  0  0  0  0
  8  5  1  0  0  0  0
  9 10  1  0  0  0  0
 10 11  1  0  0  0  0
 10 16  1  0  0  0  0
 11 17  1  0  0  0  0
 11 18  1  0  0  0  0
 12 11  1  0  0  0  0
 13 14  1  0  0  0  0
 13 12  1  0  0  0  0
 14  9  1  0  0  0  0
 14 23  1  0  0  0  0
 15 10  1  0  0  0  0
 19 12  1  0  0  0  0
 20 13  1  0  0  0  0
 21 13  1  0  0  0  0
 22 14  1  0  0  0  0
 24 26  1  0  0  0  0
 26 25  2  1  0  0  0
 26 37  1  0  0  0  0
 27 26  1  0  0  0  0
 29 28  1  0  0  0  0
 30 27  1  0  0  0  0
 30 29  2  0  0  0  0
 31 30  1  0  0  0  0
 32 31  1  0  0  0  0
 33 31  2  0  0  0  0
 33 35  1  0  0  0  0
 34 33  1  0  0  0  0
 35 36  2  0  0  0  0
 36 29  1  0  0  0  0
 38 37  1  0  0  0  0
 38 41  1  0  0  0  0
 38 39  1  0  0  0  0
 40 38  1  0  0  0  0
M  END
>  <minimizedAffinity>
-5.31621933

$$$$

 OpenBabel03242520313D

 41 43  0  0  0  0  0  0  0  0999 V2000
   36.7590   26.6210   37.2620 C   0  0  0  0  0  0  0  0  0  0  0  0
   37.2680   27.1910   38.4600 C   0  0  0  0  0  0  0  0  0  0  0  0
   37.1990   28.5660   38.6090 C   0  0  0  0  0  0  0  0  0  0  0  0
   36.6510   29.3100   37.6110 N   0  0  0  0  0  0  0  0  0  0  0  0
   36.1720   28.7520   36.4810 C   0  0  0  0  0  0  0  0  0  0  0  0
   36.2300   27.4180   36.3160 N   0  0  0  0  0  0  0  0  0  0  0  0
   36.7960   25.5540   37.1110 H   0  0  0  0  0  0  0  0  0  0  0  0
   35.7500   29.3990   35.7300 H   0  0  0  0  0  0  0  0  0  0  0  0
   37.8030   26.2720   39.3910 N   0  0  0  0  0  0  0  0  0  0  0  0
   39.1840   25.8240   39.3720 C   0  0  0  0  0  0  0  0  0  0  0  0
   39.4590   24.9530   40.5680 C   0  0  0  0  0  0  0  0  0  0  0  0
   38.5050   23.8980   40.7400 N   0  0  0  0  0  0  0  0  0  0  0  0
   37.1330   24.2980   40.6780 C   0  0  0  0  0  0  0  0  0  0  0  0
   36.9070   25.7540   40.4240 C   0  0  0  0  0  0  0  0  0  0  0  0
   39.5090   25.4010   38.4240 H   0  0  0  0  0  0  0  0  0  0  0  0
   39.7890   26.7620   39.5430 H   0  0  0  0  0  0  0  0  0  0  0  0
   40.4520   24.4770   40.4120 H   0  0  0  0  0  0  0  0  0  0  0  0
   39.5380   25.5740   41.4820 H   0  0  0  0  0  0  0  0  0  0  0  0
   38.7050   23.1010   40.0910 H   0  0  0  0  0  0  0  0  0  0  0  0
   36.5880   24.0490   41.6220 H   0  0  0  0  0  0  0  0  0  0  0  0
   36.6160   23.7160   39.8840 H   0  0  0  0  0  0  0  0  0  0  0  0
   35.8430   25.8950   40.1400 H   0  0  0  0  0  0  0  0  0  0  0  0
   37.1370   26.3360   41.3440 H   0  0  0  0  0  0  0  0  0  0  0  0
   37.7010   29.0860   39.7790 O   0  0  0  0  0  0  0  0  0  0  0  0
   35.3030   29.0710   40.9070 O   0  0  0  0  0  0  0  0  0  0  0  0
   36.6230   29.8370   40.9150 P   0  0  1  0  0  0  0  0  0  0  0  0
   37.3710   29.8450   42.3910 O   0  0  0  0  0  0  0  0  0  0  0  0
   36.7130   27.4860   43.5040 F   0  0  0  0  0  0  0  0  0  0  0  0
   38.0170   27.7760   43.3100 C   0  0  0  0  0  0  0  0  0  0  0  0
   38.3990   28.9900   42.7350 C   0  0  0  0  0  0  0  0  0  0  0  0
   39.7500   29.2060   42.5720 C   0  0  0  0  0  0  0  0  0  0  0  0
   40.0280   30.1430   42.1290 H   0  0  0  0  0  0  0  0  0  0  0  0
   40.7060   28.2990   42.9430 C   0  0  0  0  0  0  0  0  0  0  0  0
   41.7570   28.4870   42.8070 H   0  0  0  0  0  0  0  0  0  0  0  0
   40.3390   27.0910   43.5140 C   0  0  0  0  0  3  0  0  0  0  0  0
   38.9950   26.8730   43.6790 C   0  0  0  0  0  3  0  0  0  0  0  0
   36.3480   31.3970   40.3210 O   0  0  0  0  0  0  0  0  0  0  0  0
   37.4950   32.0870   40.0360 C   0  0  0  0  0  0  0  0  0  0  0  0
   37.9380   31.9000   38.7380 F   0  0  0  0  0  0  0  0  0  0  0  0
   38.5340   31.8450   40.9000 F   0  0  0  0  0  0  0  0  0  0  0  0
   37.1820   33.4380   40.1800 F   0  0  0  0  0  0  0  0  0  0  0  0
  1  2  1  0  0  0  0
  2  3  2  0  0  0  0
  2  9  1  0  0  0  0
  3 24  1  0  0  0  0
  4  3  1  0  0  0  0
  5  4  2  0  0  0  0
  6  5  1  0  0  0  0
  6  1  2  0  0  0  0
  7  1  1  0  0  0  0
  8  5  1  0  0  0  0
  9 14  1  0  0  0  0
 10  9  1  0  0  0  0
 10 16  1  0  0  0  0
 10 11  1  0  0  0  0
 11 12  1  0  0  0  0
 11 18  1  0  0  0  0
 13 12  1  0  0  0  0
 13 20  1  0  0  0  0
 14 13  1  0  0  0  0
 14 23  1  0  0  0  0
 15 10  1  0  0  0  0
 17 11  1  0  0  0  0
 19 12  1  0  0  0  0
 21 13  1  0  0  0  0
 22 14  1  0  0  0  0
 24 26  1  0  0  0  0
 26 25  2  1  0  0  0
 26 27  1  0  0  0  0
 27 30  1  0  0  0  0
 29 28  1  0  0  0  0
 29 36  1  0  0  0  0
 30 29  2  0  0  0  0
 31 30  1  0  0  0  0
 31 33  2  0  0  0  0
 32 31  1  0  0  0  0
 33 35  1  0  0  0  0
 34 33  1  0  0  0  0
 35 36  2  0  0  0  0
 37 26  1  0  0  0  0
 38 41  1  0  0  0  0
 38 37  1  0  0  0  0
 38 40  1  0  0  0  0
 39 38  1  0  0  0  0
M  END
>  <minimizedAffinity>
-5.30622816

$$$$
