
 OpenBabel03242518563D

 42 44  0  0  1  0  0  0  0  0999 V2000
   37.3980   26.1010   41.5920 C   0  0  2  0  0  0  0  0  0  0  0  0
   36.8810   24.8170   42.1590 C   0  0  0  0  0  0  0  0  0  0  0  0
   37.4840   23.7090   41.3650 C   0  0  0  0  0  0  0  0  0  0  0  0
   38.3430   24.1310   40.2180 C   0  0  0  0  0  0  0  0  0  0  0  0
   39.4220   25.0770   40.6730 C   0  0  0  0  0  0  0  0  0  0  0  0
   38.9120   26.0690   41.6110 C   0  0  2  0  0  0  0  0  0  0  0  0
   37.1450   26.1410   40.5080 H   0  0  0  0  0  0  0  0  0  0  0  0
   35.7620   24.8250   42.1050 H   0  0  0  0  0  0  0  0  0  0  0  0
   37.1170   24.6940   43.2250 H   0  0  0  0  0  0  0  0  0  0  0  0
   37.9670   22.9060   41.9700 H   0  0  0  0  0  0  0  0  0  0  0  0
   36.6200   23.1570   40.8840 H   0  0  0  0  0  0  0  0  0  0  0  0
   37.7570   24.5300   39.3700 H   0  0  0  0  0  0  0  0  0  0  0  0
   38.8540   23.2240   39.8430 H   0  0  0  0  0  0  0  0  0  0  0  0
   39.7350   25.6240   39.7320 H   0  0  0  0  0  0  0  0  0  0  0  0
   40.3360   24.5200   40.9580 H   0  0  0  0  0  0  0  0  0  0  0  0
   39.2670   27.1010   41.4160 H   0  0  0  0  0  0  0  0  0  0  0  0
   39.3990   25.6470   42.9580 C   0  0  0  0  0  0  0  0  0  0  0  0
   38.7560   26.0180   43.7920 H   0  0  0  0  0  0  0  0  0  0  0  0
   39.4490   24.5440   43.0560 H   0  0  0  0  0  0  0  0  0  0  0  0
   39.8450   28.3060   43.4510 F   0  0  0  0  0  0  0  0  0  0  0  0
   40.8970   27.4520   43.4340 C   0  0  0  0  0  0  0  0  0  0  0  0
   40.8180   26.0910   43.1970 C   0  0  0  0  0  0  0  0  0  0  0  0
   41.9270   25.2750   43.1930 C   0  0  0  0  0  0  0  0  0  0  0  0
   41.7600   24.2240   43.0000 H   0  0  0  0  0  0  0  0  0  0  0  0
   43.1380   25.8850   43.4400 C   0  0  0  0  0  0  0  0  0  0  0  0
   44.0130   25.2560   43.4400 H   0  0  0  0  0  0  0  0  0  0  0  0
   43.2400   27.2360   43.6790 C   0  0  0  0  0  3  0  0  0  0  0  0
   42.1180   28.0450   43.6800 C   0  0  0  0  0  3  0  0  0  0  0  0
   36.8390   27.3170   42.2300 C   0  0  0  0  0  0  0  0  0  0  0  0
   36.4780   27.3560   43.4260 O   0  0  0  0  0  0  0  0  0  0  0  0
   36.8020   30.8040   41.1390 C   0  0  0  0  0  0  0  0  0  0  0  0
   36.4500   30.7390   39.7620 C   0  0  0  0  0  0  0  0  0  0  0  0
   36.2370   29.4730   39.2450 C   0  0  0  0  0  0  0  0  0  0  0  0
   36.3920   28.4640   40.1060 N   0  0  0  0  0  0  0  0  0  0  0  0
   36.7170   28.5140   41.3810 C   0  0  0  0  0  0  0  0  0  0  0  0
   36.9280   29.7310   41.9070 N   0  0  0  0  0  0  0  0  0  0  0  0
   36.9630   31.8270   41.5110 H   0  0  0  0  0  0  0  0  0  0  0  0
   36.3500   31.6180   39.1460 H   0  0  0  0  0  0  0  0  0  0  0  0
   35.8700   29.3910   37.8380 C   0  0  0  0  0  0  0  0  0  0  0  0
   36.2900   28.1810   37.3140 F   0  0  0  0  0  0  0  0  0  0  0  0
   36.5180   30.4030   37.2060 F   0  0  0  0  0  0  0  0  0  0  0  0
   34.4920   29.4270   37.6570 F   0  0  0  0  0  0  0  0  0  0  0  0
  1  7  1  6  0  0  0
  1  6  1  0  0  0  0
  1  2  1  0  0  0  0
  1 29  1  0  0  0  0
  2  9  1  0  0  0  0
  3 10  1  0  0  0  0
  3  2  1  0  0  0  0
  4  5  1  0  0  0  0
  4  3  1  0  0  0  0
  5 15  1  0  0  0  0
  5  6  1  0  0  0  0
  6 16  1  6  0  0  0
  6 17  1  0  0  0  0
  8  2  1  0  0  0  0
 11  3  1  0  0  0  0
 12  4  1  0  0  0  0
 13  4  1  0  0  0  0
 14  5  1  0  0  0  0
 17 19  1  0  0  0  0
 17 22  1  0  0  0  0
 17 18  1  0  0  0  0
 21 20  1  0  0  0  0
 21 28  1  0  0  0  0
 22 21  2  0  0  0  0
 23 22  1  0  0  0  0
 23 25  2  0  0  0  0
 24 23  1  0  0  0  0
 25 27  1  0  0  0  0
 26 25  1  0  0  0  0
 27 28  2  0  0  0  0
 29 30  2  0  0  0  0
 31 37  1  0  0  0  0
 31 36  1  0  0  0  0
 32 31  2  0  0  0  0
 33 32  1  0  0  0  0
 33 34  2  0  0  0  0
 34 35  1  0  0  0  0
 35 36  2  0  0  0  0
 35 29  1  0  0  0  0
 38 32  1  0  0  0  0
 39 33  1  0  0  0  0
 40 39  1  0  0  0  0
 41 39  1  0  0  0  0
 42 39  1  0  0  0  0
M  END
>  <minimizedAffinity>
-5.95279551

$$$$

 OpenBabel03242518563D

 42 44  0  0  1  0  0  0  0  0999 V2000
   39.7430   29.5470   42.1050 C   0  0  2  0  0  0  0  0  0  0  0  0
   40.0150   30.9270   42.6130 C   0  0  0  0  0  0  0  0  0  0  0  0
   41.0130   31.5470   41.6960 C   0  0  0  0  0  0  0  0  0  0  0  0
   41.5240   30.6630   40.6060 C   0  0  0  0  0  0  0  0  0  0  0  0
   40.3880   30.0840   39.8050 C   0  0  0  0  0  0  0  0  0  0  0  0
   39.2960   29.6380   40.6600 C   0  0  2  0  0  0  0  0  0  0  0  0
   40.7060   28.9890   42.0510 H   0  0  0  0  0  0  0  0  0  0  0  0
   40.3870   30.8550   43.6670 H   0  0  0  0  0  0  0  0  0  0  0  0
   39.1110   31.5490   42.6680 H   0  0  0  0  0  0  0  0  0  0  0  0
   40.7360   32.5570   41.3130 H   0  0  0  0  0  0  0  0  0  0  0  0
   41.9260   31.7750   42.3270 H   0  0  0  0  0  0  0  0  0  0  0  0
   42.2220   29.8890   40.9750 H   0  0  0  0  0  0  0  0  0  0  0  0
   42.1060   31.3010   39.9140 H   0  0  0  0  0  0  0  0  0  0  0  0
   40.8300   29.1680   39.3070 H   0  0  0  0  0  0  0  0  0  0  0  0
   40.1370   30.7410   38.9500 H   0  0  0  0  0  0  0  0  0  0  0  0
   38.8770   28.6500   40.3820 H   0  0  0  0  0  0  0  0  0  0  0  0
   38.2200   30.6650   40.5200 C   0  0  0  0  0  0  0  0  0  0  0  0
   38.0050   31.2050   41.4730 H   0  0  0  0  0  0  0  0  0  0  0  0
   38.4760   31.4340   39.7640 H   0  0  0  0  0  0  0  0  0  0  0  0
   37.7930   30.7090   37.8130 F   0  0  0  0  0  0  0  0  0  0  0  0
   36.8600   30.1490   38.6200 C   0  0  0  0  0  0  0  0  0  0  0  0
   36.9440   30.0600   39.9980 C   0  0  0  0  0  0  0  0  0  0  0  0
   35.9590   29.4770   40.7640 C   0  0  0  0  0  0  0  0  0  0  0  0
   36.1200   29.4540   41.8330 H   0  0  0  0  0  0  0  0  0  0  0  0
   34.8690   28.9780   40.0840 C   0  0  0  0  0  0  0  0  0  0  0  0
   34.0920   28.5190   40.6730 H   0  0  0  0  0  0  0  0  0  0  0  0
   34.7640   29.0550   38.7140 C   0  0  0  0  0  3  0  0  0  0  0  0
   35.7610   29.6430   37.9570 C   0  0  0  0  0  3  0  0  0  0  0  0
   38.8130   28.7590   42.9480 C   0  0  0  0  0  0  0  0  0  0  0  0
   37.9320   29.2830   43.6650 O   0  0  0  0  0  0  0  0  0  0  0  0
   40.0770   25.3910   43.5820 C   0  0  0  0  0  0  0  0  0  0  0  0
   39.2380   24.5460   42.8050 C   0  0  0  0  0  0  0  0  0  0  0  0
   38.2420   25.1760   42.0780 C   0  0  0  0  0  0  0  0  0  0  0  0
   38.1920   26.5060   42.1990 N   0  0  0  0  0  0  0  0  0  0  0  0
   38.9660   27.2950   42.9160 C   0  0  0  0  0  0  0  0  0  0  0  0
   39.9390   26.7080   43.6290 N   0  0  0  0  0  0  0  0  0  0  0  0
   40.8550   24.8520   44.1440 H   0  0  0  0  0  0  0  0  0  0  0  0
   39.3580   23.4760   42.7730 H   0  0  0  0  0  0  0  0  0  0  0  0
   37.3770   24.3260   41.2730 C   0  0  0  0  0  0  0  0  0  0  0  0
   36.1480   24.1850   41.8920 F   0  0  0  0  0  0  0  0  0  0  0  0
   37.9820   23.1130   41.1980 F   0  0  0  0  0  0  0  0  0  0  0  0
   37.1150   24.8820   40.0270 F   0  0  0  0  0  0  0  0  0  0  0  0
  1  7  1  1  0  0  0
  1  2  1  0  0  0  0
  1 29  1  0  0  0  0
  2  9  1  0  0  0  0
  2  8  1  0  0  0  0
  3 11  1  0  0  0  0
  3  2  1  0  0  0  0
  4 12  1  0  0  0  0
  4  3  1  0  0  0  0
  5  4  1  0  0  0  0
  5  6  1  0  0  0  0
  6 16  1  6  0  0  0
  6  1  1  0  0  0  0
 10  3  1  0  0  0  0
 13  4  1  0  0  0  0
 14  5  1  0  0  0  0
 15  5  1  0  0  0  0
 17  6  1  0  0  0  0
 17 18  1  0  0  0  0
 19 17  1  0  0  0  0
 20 21  1  0  0  0  0
 21 22  1  0  0  0  0
 22 17  1  0  0  0  0
 22 23  2  0  0  0  0
 23 24  1  0  0  0  0
 25 26  1  0  0  0  0
 25 23  1  0  0  0  0
 27 25  2  0  0  0  0
 28 21  2  0  0  0  0
 28 27  1  0  0  0  0
 29 30  2  0  0  0  0
 31 36  1  0  0  0  0
 31 37  1  0  0  0  0
 32 31  2  0  0  0  0
 33 34  2  0  0  0  0
 33 32  1  0  0  0  0
 34 35  1  0  0  0  0
 35 29  1  0  0  0  0
 35 36  2  0  0  0  0
 38 32  1  0  0  0  0
 39 40  1  0  0  0  0
 39 33  1  0  0  0  0
 41 39  1  0  0  0  0
 42 39  1  0  0  0  0
M  END
>  <minimizedAffinity>
-5.89318943

$$$$

 OpenBabel03242518563D

 42 44  0  0  1  0  0  0  0  0999 V2000
   37.9360   30.0450   40.8500 C   0  0  2  0  0  0  0  0  0  0  0  0
   36.5710   30.4590   41.3010 C   0  0  0  0  0  0  0  0  0  0  0  0
   35.5910   29.8490   40.3580 C   0  0  0  0  0  0  0  0  0  0  0  0
   36.1810   29.0870   39.2180 C   0  0  0  0  0  0  0  0  0  0  0  0
   37.1340   28.0320   39.7120 C   0  0  0  0  0  0  0  0  0  0  0  0
   37.9900   28.5330   40.7800 C   0  0  2  0  0  0  0  0  0  0  0  0
   38.0760   30.3660   39.7920 H   0  0  0  0  0  0  0  0  0  0  0  0
   36.5200   31.5780   41.3110 H   0  0  0  0  0  0  0  0  0  0  0  0
   36.3490   30.1510   42.3320 H   0  0  0  0  0  0  0  0  0  0  0  0
   34.7580   29.2880   40.8430 H   0  0  0  0  0  0  0  0  0  0  0  0
   35.0430   30.7120   39.8690 H   0  0  0  0  0  0  0  0  0  0  0  0
   36.6320   29.7440   38.4520 H   0  0  0  0  0  0  0  0  0  0  0  0
   35.3500   28.5530   38.7170 H   0  0  0  0  0  0  0  0  0  0  0  0
   37.7950   27.8070   38.8200 H   0  0  0  0  0  0  0  0  0  0  0  0
   36.6050   27.0740   39.8820 H   0  0  0  0  0  0  0  0  0  0  0  0
   39.0550   28.2450   40.6790 H   0  0  0  0  0  0  0  0  0  0  0  0
   37.4570   27.9420   42.0430 C   0  0  0  0  0  0  0  0  0  0  0  0
   37.5840   28.6120   42.9270 H   0  0  0  0  0  0  0  0  0  0  0  0
   36.3760   27.7080   41.9690 H   0  0  0  0  0  0  0  0  0  0  0  0
   39.6850   27.9090   43.6390 F   0  0  0  0  0  0  0  0  0  0  0  0
   39.2010   26.7390   43.1560 C   0  0  0  0  0  0  0  0  0  0  0  0
   38.0910   26.6080   42.3400 C   0  0  0  0  0  0  0  0  0  0  0  0
   37.6490   25.3880   41.8810 C   0  0  0  0  0  0  0  0  0  0  0  0
   36.7700   25.3920   41.2510 H   0  0  0  0  0  0  0  0  0  0  0  0
   38.3740   24.2850   42.2760 C   0  0  0  0  0  0  0  0  0  0  0  0
   38.0370   23.3240   41.9240 H   0  0  0  0  0  0  0  0  0  0  0  0
   39.4810   24.3910   43.0870 C   0  0  0  0  0  3  0  0  0  0  0  0
   39.9140   25.6230   43.5420 C   0  0  0  0  0  3  0  0  0  0  0  0
   39.0430   30.6260   41.6470 C   0  0  0  0  0  0  0  0  0  0  0  0
   39.0810   30.5820   42.8950 O   0  0  0  0  0  0  0  0  0  0  0  0
   42.1110   32.4510   40.8730 C   0  0  0  0  0  0  0  0  0  0  0  0
   42.1360   32.5150   39.4520 C   0  0  0  0  0  0  0  0  0  0  0  0
   41.0770   31.9120   38.7950 C   0  0  0  0  0  0  0  0  0  0  0  0
   40.1600   31.3400   39.5810 N   0  0  0  0  0  0  0  0  0  0  0  0
   40.1290   31.2770   40.8960 C   0  0  0  0  0  0  0  0  0  0  0  0
   41.1460   31.8550   41.5570 N   0  0  0  0  0  0  0  0  0  0  0  0
   42.9700   32.9420   41.3560 H   0  0  0  0  0  0  0  0  0  0  0  0
   42.9260   33.0030   38.9050 H   0  0  0  0  0  0  0  0  0  0  0  0
   41.0840   31.9740   37.3410 C   0  0  0  0  0  0  0  0  0  0  0  0
   41.9190   32.9950   36.9190 F   0  0  0  0  0  0  0  0  0  0  0  0
   39.8120   32.2470   36.9550 F   0  0  0  0  0  0  0  0  0  0  0  0
   41.5890   30.8100   36.7730 F   0  0  0  0  0  0  0  0  0  0  0  0
  1  7  1  6  0  0  0
  1  2  1  0  0  0  0
  1 29  1  0  0  0  0
  2  8  1  0  0  0  0
  2  9  1  0  0  0  0
  3 10  1  0  0  0  0
  3  2  1  0  0  0  0
  4  5  1  0  0  0  0
  4  3  1  0  0  0  0
  5 15  1  0  0  0  0
  5  6  1  0  0  0  0
  6 16  1  6  0  0  0
  6  1  1  0  0  0  0
  6 17  1  0  0  0  0
 11  3  1  0  0  0  0
 12  4  1  0  0  0  0
 13  4  1  0  0  0  0
 14  5  1  0  0  0  0
 17 22  1  0  0  0  0
 17 18  1  0  0  0  0
 19 17  1  0  0  0  0
 21 28  1  0  0  0  0
 21 20  1  0  0  0  0
 22 21  2  0  0  0  0
 23 25  2  0  0  0  0
 23 22  1  0  0  0  0
 24 23  1  0  0  0  0
 25 27  1  0  0  0  0
 26 25  1  0  0  0  0
 27 28  2  0  0  0  0
 29 30  2  0  0  0  0
 31 37  1  0  0  0  0
 31 36  1  0  0  0  0
 32 31  2  0  0  0  0
 33 32  1  0  0  0  0
 33 34  2  0  0  0  0
 34 35  1  0  0  0  0
 35 36  2  0  0  0  0
 35 29  1  0  0  0  0
 38 32  1  0  0  0  0
 39 33  1  0  0  0  0
 40 39  1  0  0  0  0
 41 39  1  0  0  0  0
 42 39  1  0  0  0  0
M  END
>  <minimizedAffinity>
-5.82829952

$$$$

 OpenBabel03242518563D

 42 44  0  0  1  0  0  0  0  0999 V2000
   37.8380   30.8930   38.2380 C   0  0  2  0  0  0  0  0  0  0  0  0
   39.1150   31.6590   38.3750 C   0  0  0  0  0  0  0  0  0  0  0  0
   38.8400   32.8210   39.2670 C   0  0  0  0  0  0  0  0  0  0  0  0
   37.4220   32.9690   39.7130 C   0  0  0  0  0  0  0  0  0  0  0  0
   36.9260   31.7040   40.3600 C   0  0  0  0  0  0  0  0  0  0  0  0
   37.3420   30.5190   39.6200 C   0  0  2  0  0  0  0  0  0  0  0  0
   37.0490   31.5770   37.8480 H   0  0  0  0  0  0  0  0  0  0  0  0
   39.4580   31.9710   37.3550 H   0  0  0  0  0  0  0  0  0  0  0  0
   39.9360   31.0530   38.7820 H   0  0  0  0  0  0  0  0  0  0  0  0
   39.5550   32.9440   40.1130 H   0  0  0  0  0  0  0  0  0  0  0  0
   39.0400   33.7490   38.6490 H   0  0  0  0  0  0  0  0  0  0  0  0
   36.7540   33.3250   38.9070 H   0  0  0  0  0  0  0  0  0  0  0  0
   37.4070   33.7510   40.4960 H   0  0  0  0  0  0  0  0  0  0  0  0
   35.7980   31.7730   40.2910 H   0  0  0  0  0  0  0  0  0  0  0  0
   37.1150   31.7210   41.4510 H   0  0  0  0  0  0  0  0  0  0  0  0
   36.5430   29.7620   39.4900 H   0  0  0  0  0  0  0  0  0  0  0  0
   38.4490   29.9070   40.4140 C   0  0  0  0  0  0  0  0  0  0  0  0
   39.1710   29.3310   39.7860 H   0  0  0  0  0  0  0  0  0  0  0  0
   39.0370   30.6690   40.9630 H   0  0  0  0  0  0  0  0  0  0  0  0
   37.4540   27.4580   39.6870 F   0  0  0  0  0  0  0  0  0  0  0  0
   37.4520   27.8110   40.9960 C   0  0  0  0  0  0  0  0  0  0  0  0
   37.9190   29.0110   41.5020 C   0  0  0  0  0  0  0  0  0  0  0  0
   37.8890   29.3100   42.8450 C   0  0  0  0  0  0  0  0  0  0  0  0
   38.2800   30.2730   43.1410 H   0  0  0  0  0  0  0  0  0  0  0  0
   37.3650   28.3440   43.6770 C   0  0  0  0  0  0  0  0  0  0  0  0
   37.3370   28.5660   44.7310 H   0  0  0  0  0  0  0  0  0  0  0  0
   36.8950   27.1420   43.1960 C   0  0  0  0  0  3  0  0  0  0  0  0
   36.9310   26.8550   41.8440 C   0  0  0  0  0  3  0  0  0  0  0  0
   37.9200   29.7310   37.3210 C   0  0  0  0  0  0  0  0  0  0  0  0
   38.9480   29.0310   37.1970 O   0  0  0  0  0  0  0  0  0  0  0  0
   35.7190   28.9580   34.5090 C   0  0  0  0  0  0  0  0  0  0  0  0
   34.4240   28.8670   35.0890 C   0  0  0  0  0  0  0  0  0  0  0  0
   34.3500   29.0750   36.4560 C   0  0  0  0  0  0  0  0  0  0  0  0
   35.5110   29.3340   37.0640 N   0  0  0  0  0  0  0  0  0  0  0  0
   36.7140   29.4200   36.5350 C   0  0  0  0  0  0  0  0  0  0  0  0
   36.8120   29.2230   35.2100 N   0  0  0  0  0  0  0  0  0  0  0  0
   35.7340   28.7870   33.4220 H   0  0  0  0  0  0  0  0  0  0  0  0
   33.5410   28.6510   34.5100 H   0  0  0  0  0  0  0  0  0  0  0  0
   33.0300   28.9920   37.0630 C   0  0  0  0  0  0  0  0  0  0  0  0
   32.4260   27.7980   36.7110 F   0  0  0  0  0  0  0  0  0  0  0  0
   32.3040   30.0250   36.5640 F   0  0  0  0  0  0  0  0  0  0  0  0
   33.0950   28.9900   38.4510 F   0  0  0  0  0  0  0  0  0  0  0  0
  1  7  1  6  0  0  0
  1  2  1  0  0  0  0
  1  6  1  0  0  0  0
  2  9  1  0  0  0  0
  2  3  1  0  0  0  0
  3  4  1  0  0  0  0
  3 10  1  0  0  0  0
  4  5  1  0  0  0  0
  4 13  1  0  0  0  0
  5 15  1  0  0  0  0
  6 16  1  6  0  0  0
  6  5  1  0  0  0  0
  6 17  1  0  0  0  0
  8  2  1  0  0  0  0
 11  3  1  0  0  0  0
 12  4  1  0  0  0  0
 14  5  1  0  0  0  0
 17 19  1  0  0  0  0
 17 22  1  0  0  0  0
 18 17  1  0  0  0  0
 20 21  1  0  0  0  0
 21 22  2  0  0  0  0
 21 28  1  0  0  0  0
 22 23  1  0  0  0  0
 23 24  1  0  0  0  0
 23 25  2  0  0  0  0
 25 26  1  0  0  0  0
 27 25  1  0  0  0  0
 28 27  2  0  0  0  0
 29  1  1  0  0  0  0
 30 29  2  0  0  0  0
 31 32  2  0  0  0  0
 31 36  1  0  0  0  0
 32 33  1  0  0  0  0
 33 39  1  0  0  0  0
 33 34  2  0  0  0  0
 35 34  1  0  0  0  0
 35 29  1  0  0  0  0
 36 35  2  0  0  0  0
 37 31  1  0  0  0  0
 38 32  1  0  0  0  0
 39 42  1  0  0  0  0
 40 39  1  0  0  0  0
 41 39  1  0  0  0  0
M  END
>  <minimizedAffinity>
-5.80561447

$$$$

 OpenBabel03242518563D

 42 44  0  0  1  0  0  0  0  0999 V2000
   38.5680   30.1990   39.6180 C   0  0  2  0  0  0  0  0  0  0  0  0
   37.8270   30.5340   40.8740 C   0  0  0  0  0  0  0  0  0  0  0  0
   37.0780   31.7980   40.6200 C   0  0  0  0  0  0  0  0  0  0  0  0
   37.3010   32.4220   39.2820 C   0  0  0  0  0  0  0  0  0  0  0  0
   37.0270   31.4380   38.1760 C   0  0  0  0  0  0  0  0  0  0  0  0
   37.5800   30.1230   38.4730 C   0  0  2  0  0  0  0  0  0  0  0  0
   39.2230   31.0590   39.3490 H   0  0  0  0  0  0  0  0  0  0  0  0
   38.5640   30.6320   41.7110 H   0  0  0  0  0  0  0  0  0  0  0  0
   37.1360   29.7400   41.1890 H   0  0  0  0  0  0  0  0  0  0  0  0
   35.9950   31.7640   40.8850 H   0  0  0  0  0  0  0  0  0  0  0  0
   37.4790   32.5580   41.3580 H   0  0  0  0  0  0  0  0  0  0  0  0
   38.2960   32.8970   39.1920 H   0  0  0  0  0  0  0  0  0  0  0  0
   36.5580   33.2350   39.1730 H   0  0  0  0  0  0  0  0  0  0  0  0
   37.5870   31.8520   37.2830 H   0  0  0  0  0  0  0  0  0  0  0  0
   35.9680   31.4920   37.8570 H   0  0  0  0  0  0  0  0  0  0  0  0
   38.1010   29.6470   37.6180 H   0  0  0  0  0  0  0  0  0  0  0  0
   36.4170   29.2670   38.8540 C   0  0  0  0  0  0  0  0  0  0  0  0
   36.7190   28.2520   39.2100 H   0  0  0  0  0  0  0  0  0  0  0  0
   35.8120   29.7240   39.6630 H   0  0  0  0  0  0  0  0  0  0  0  0
   33.7450   29.1660   39.4590 F   0  0  0  0  0  0  0  0  0  0  0  0
   34.1330   29.0850   38.1630 C   0  0  0  0  0  0  0  0  0  0  0  0
   35.4420   29.1200   37.7160 C   0  0  0  0  0  0  0  0  0  0  0  0
   35.7720   29.0330   36.3820 C   0  0  0  0  0  0  0  0  0  0  0  0
   36.8230   29.0730   36.1350 H   0  0  0  0  0  0  0  0  0  0  0  0
   34.7220   28.9070   35.4980 C   0  0  0  0  0  0  0  0  0  0  0  0
   34.9680   28.8390   34.4510 H   0  0  0  0  0  0  0  0  0  0  0  0
   33.4120   28.8710   35.9200 C   0  0  0  0  0  3  0  0  0  0  0  0
   33.0950   28.9590   37.2630 C   0  0  0  0  0  3  0  0  0  0  0  0
   39.4260   28.9940   39.7210 C   0  0  0  0  0  0  0  0  0  0  0  0
   40.2510   28.6670   38.8420 O   0  0  0  0  0  0  0  0  0  0  0  0
   39.8900   27.6470   43.0850 C   0  0  0  0  0  0  0  0  0  0  0  0
   38.9580   26.5760   43.1690 C   0  0  0  0  0  0  0  0  0  0  0  0
   38.1830   26.3510   42.0440 C   0  0  0  0  0  0  0  0  0  0  0  0
   38.4060   27.1740   41.0150 N   0  0  0  0  0  0  0  0  0  0  0  0
   39.2670   28.1680   40.9290 C   0  0  0  0  0  0  0  0  0  0  0  0
   40.0310   28.4050   42.0080 N   0  0  0  0  0  0  0  0  0  0  0  0
   40.4860   27.7920   43.9990 H   0  0  0  0  0  0  0  0  0  0  0  0
   38.8510   25.9640   44.0500 H   0  0  0  0  0  0  0  0  0  0  0  0
   37.2290   25.2540   42.1110 C   0  0  0  0  0  0  0  0  0  0  0  0
   36.6110   25.0930   40.8830 F   0  0  0  0  0  0  0  0  0  0  0  0
   36.2990   25.6010   43.0380 F   0  0  0  0  0  0  0  0  0  0  0  0
   37.8490   24.0410   42.3870 F   0  0  0  0  0  0  0  0  0  0  0  0
  1  7  1  6  0  0  0
  1 29  1  0  0  0  0
  1  2  1  0  0  0  0
  2  9  1  0  0  0  0
  2  8  1  0  0  0  0
  3  2  1  0  0  0  0
  3 10  1  0  0  0  0
  3 11  1  0  0  0  0
  4  3  1  0  0  0  0
  5  6  1  0  0  0  0
  5  4  1  0  0  0  0
  6 16  1  6  0  0  0
  6 17  1  0  0  0  0
  6  1  1  0  0  0  0
 12  4  1  0  0  0  0
 13  4  1  0  0  0  0
 14  5  1  0  0  0  0
 15  5  1  0  0  0  0
 17 18  1  0  0  0  0
 17 19  1  0  0  0  0
 21 20  1  0  0  0  0
 22 21  1  0  0  0  0
 22 17  1  0  0  0  0
 23 22  2  0  0  0  0
 24 23  1  0  0  0  0
 25 27  2  0  0  0  0
 25 23  1  0  0  0  0
 26 25  1  0  0  0  0
 27 28  1  0  0  0  0
 28 21  2  0  0  0  0
 29 35  1  0  0  0  0
 30 29  2  0  0  0  0
 31 32  1  0  0  0  0
 31 37  1  0  0  0  0
 32 38  1  0  0  0  0
 33 39  1  0  0  0  0
 33 32  2  0  0  0  0
 34 33  1  0  0  0  0
 35 34  2  0  0  0  0
 35 36  1  0  0  0  0
 36 31  2  0  0  0  0
 39 42  1  0  0  0  0
 39 41  1  0  0  0  0
 40 39  1  0  0  0  0
M  END
>  <minimizedAffinity>
-5.78667259

$$$$

 OpenBabel03242518563D

 42 44  0  0  1  0  0  0  0  0999 V2000
   38.4850   31.2120   41.1250 C   0  0  2  0  0  0  0  0  0  0  0  0
   37.8500   30.4790   39.9870 C   0  0  0  0  0  0  0  0  0  0  0  0
   37.2190   31.4990   39.1020 C   0  0  0  0  0  0  0  0  0  0  0  0
   37.3040   32.9110   39.5820 C   0  0  0  0  0  0  0  0  0  0  0  0
   38.7310   33.2970   39.8670 C   0  0  0  0  0  0  0  0  0  0  0  0
   39.4490   32.2400   40.5670 C   0  0  2  0  0  0  0  0  0  0  0  0
   37.7080   31.8250   41.6350 H   0  0  0  0  0  0  0  0  0  0  0  0
   37.1060   29.7500   40.3990 H   0  0  0  0  0  0  0  0  0  0  0  0
   38.5650   29.8710   39.4160 H   0  0  0  0  0  0  0  0  0  0  0  0
   37.4840   31.4140   38.0220 H   0  0  0  0  0  0  0  0  0  0  0  0
   36.1100   31.2700   39.0930 H   0  0  0  0  0  0  0  0  0  0  0  0
   36.6300   33.1140   40.4340 H   0  0  0  0  0  0  0  0  0  0  0  0
   36.9610   33.5590   38.7530 H   0  0  0  0  0  0  0  0  0  0  0  0
   38.6510   34.1810   40.5710 H   0  0  0  0  0  0  0  0  0  0  0  0
   39.2070   33.7330   38.9660 H   0  0  0  0  0  0  0  0  0  0  0  0
   40.0740   32.5970   41.4100 H   0  0  0  0  0  0  0  0  0  0  0  0
   40.3410   31.6070   39.5500 C   0  0  0  0  0  0  0  0  0  0  0  0
   40.7630   30.6290   39.8870 H   0  0  0  0  0  0  0  0  0  0  0  0
   39.8130   31.4190   38.5940 H   0  0  0  0  0  0  0  0  0  0  0  0
   40.5960   32.2780   36.9050 F   0  0  0  0  0  0  0  0  0  0  0  0
   41.4800   32.7790   37.8020 C   0  0  0  0  0  0  0  0  0  0  0  0
   41.4720   32.5230   39.1610 C   0  0  0  0  0  0  0  0  0  0  0  0
   42.4000   33.0640   40.0230 C   0  0  0  0  0  0  0  0  0  0  0  0
   42.3060   32.8050   41.0680 H   0  0  0  0  0  0  0  0  0  0  0  0
   43.3530   33.8850   39.4600 C   0  0  0  0  0  0  0  0  0  0  0  0
   44.0840   34.3150   40.1240 H   0  0  0  0  0  0  0  0  0  0  0  0
   43.3800   34.1540   38.1100 C   0  0  0  0  0  3  0  0  0  0  0  0
   42.4420   33.6040   37.2570 C   0  0  0  0  0  3  0  0  0  0  0  0
   39.1060   30.3330   42.1450 C   0  0  0  0  0  0  0  0  0  0  0  0
   40.1250   30.6540   42.7930 O   0  0  0  0  0  0  0  0  0  0  0  0
   36.5990   27.7910   42.9200 C   0  0  0  0  0  0  0  0  0  0  0  0
   37.3040   26.5590   42.8260 C   0  0  0  0  0  0  0  0  0  0  0  0
   38.6440   26.6460   42.4870 C   0  0  0  0  0  0  0  0  0  0  0  0
   39.1100   27.8830   42.2880 N   0  0  0  0  0  0  0  0  0  0  0  0
   38.4650   29.0280   42.3740 C   0  0  0  0  0  0  0  0  0  0  0  0
   37.1640   28.9700   42.7010 N   0  0  0  0  0  0  0  0  0  0  0  0
   35.5390   27.6780   43.1910 H   0  0  0  0  0  0  0  0  0  0  0  0
   36.8360   25.6060   43.0050 H   0  0  0  0  0  0  0  0  0  0  0  0
   39.3810   25.3940   42.3920 C   0  0  0  0  0  0  0  0  0  0  0  0
   39.7490   24.9700   43.6570 F   0  0  0  0  0  0  0  0  0  0  0  0
   40.4970   25.6520   41.6640 F   0  0  0  0  0  0  0  0  0  0  0  0
   38.6040   24.3730   41.8590 F   0  0  0  0  0  0  0  0  0  0  0  0
  1  7  1  1  0  0  0
  1 29  1  0  0  0  0
  2  8  1  0  0  0  0
  2  1  1  0  0  0  0
  3  4  1  0  0  0  0
  3  2  1  0  0  0  0
  4  5  1  0  0  0  0
  4 12  1  0  0  0  0
  5  6  1  0  0  0  0
  5 14  1  0  0  0  0
  6  1  1  0  0  0  0
  6 16  1  1  0  0  0
  9  2  1  0  0  0  0
 10  3  1  0  0  0  0
 11  3  1  0  0  0  0
 13  4  1  0  0  0  0
 15  5  1  0  0  0  0
 17 18  1  0  0  0  0
 17  6  1  0  0  0  0
 19 17  1  0  0  0  0
 20 21  1  0  0  0  0
 21 22  1  0  0  0  0
 22 17  1  0  0  0  0
 22 23  2  0  0  0  0
 23 24  1  0  0  0  0
 25 23  1  0  0  0  0
 25 26  1  0  0  0  0
 27 25  2  0  0  0  0
 28 21  2  0  0  0  0
 28 27  1  0  0  0  0
 29 35  1  0  0  0  0
 29 30  2  0  0  0  0
 31 37  1  0  0  0  0
 32 31  1  0  0  0  0
 32 38  1  0  0  0  0
 33 32  2  0  0  0  0
 34 35  2  0  0  0  0
 34 33  1  0  0  0  0
 35 36  1  0  0  0  0
 36 31  2  0  0  0  0
 39 33  1  0  0  0  0
 39 40  1  0  0  0  0
 41 39  1  0  0  0  0
 42 39  1  0  0  0  0
M  END
>  <minimizedAffinity>
-5.73442125

$$$$

 OpenBabel03242518563D

 42 44  0  0  1  0  0  0  0  0999 V2000
   40.1240   31.5410   40.3910 C   0  0  2  0  0  0  0  0  0  0  0  0
   40.0150   33.0170   40.6070 C   0  0  0  0  0  0  0  0  0  0  0  0
   40.3690   33.6790   39.3190 C   0  0  0  0  0  0  0  0  0  0  0  0
   40.7960   32.7630   38.2190 C   0  0  0  0  0  0  0  0  0  0  0  0
   39.7620   31.6970   37.9750 C   0  0  0  0  0  0  0  0  0  0  0  0
   39.2420   31.1510   39.2230 C   0  0  2  0  0  0  0  0  0  0  0  0
   41.1540   31.3050   40.0370 H   0  0  0  0  0  0  0  0  0  0  0  0
   40.7000   33.3090   41.4430 H   0  0  0  0  0  0  0  0  0  0  0  0
   39.0130   33.3290   40.9330 H   0  0  0  0  0  0  0  0  0  0  0  0
   39.6330   34.4380   38.9630 H   0  0  0  0  0  0  0  0  0  0  0  0
   41.2830   34.3140   39.5300 H   0  0  0  0  0  0  0  0  0  0  0  0
   41.8080   32.3470   38.3780 H   0  0  0  0  0  0  0  0  0  0  0  0
   40.8500   33.3680   37.2940 H   0  0  0  0  0  0  0  0  0  0  0  0
   40.3280   30.8680   37.4490 H   0  0  0  0  0  0  0  0  0  0  0  0
   39.0300   32.0270   37.2130 H   0  0  0  0  0  0  0  0  0  0  0  0
   39.1500   30.0470   39.2310 H   0  0  0  0  0  0  0  0  0  0  0  0
   37.8790   31.7400   39.3900 C   0  0  0  0  0  0  0  0  0  0  0  0
   37.7240   32.2030   40.3940 H   0  0  0  0  0  0  0  0  0  0  0  0
   37.6710   32.5270   38.6370 H   0  0  0  0  0  0  0  0  0  0  0  0
   36.3390   30.9670   41.5230 F   0  0  0  0  0  0  0  0  0  0  0  0
   36.1030   30.4220   40.3050 C   0  0  0  0  0  0  0  0  0  0  0  0
   36.8010   30.7170   39.1470 C   0  0  0  0  0  0  0  0  0  0  0  0
   36.5120   30.1270   37.9370 C   0  0  0  0  0  0  0  0  0  0  0  0
   37.1130   30.4270   37.0900 H   0  0  0  0  0  0  0  0  0  0  0  0
   35.4780   29.2160   37.9310 C   0  0  0  0  0  0  0  0  0  0  0  0
   35.2420   28.7480   36.9900 H   0  0  0  0  0  0  0  0  0  0  0  0
   34.7690   28.9070   39.0700 C   0  0  0  0  0  3  0  0  0  0  0  0
   35.0710   29.5070   40.2790 C   0  0  0  0  0  3  0  0  0  0  0  0
   39.8680   30.7270   41.6040 C   0  0  0  0  0  0  0  0  0  0  0  0
   39.7810   31.2190   42.7490 O   0  0  0  0  0  0  0  0  0  0  0  0
   40.6030   27.2440   40.7840 C   0  0  0  0  0  0  0  0  0  0  0  0
   39.3810   26.5580   41.0280 C   0  0  0  0  0  0  0  0  0  0  0  0
   38.3260   27.3320   41.4800 C   0  0  0  0  0  0  0  0  0  0  0  0
   38.5880   28.6330   41.6330 N   0  0  0  0  0  0  0  0  0  0  0  0
   39.7160   29.2760   41.4090 C   0  0  0  0  0  0  0  0  0  0  0  0
   40.7540   28.5470   40.9700 N   0  0  0  0  0  0  0  0  0  0  0  0
   41.4160   26.5940   40.4260 H   0  0  0  0  0  0  0  0  0  0  0  0
   39.2690   25.4970   40.8740 H   0  0  0  0  0  0  0  0  0  0  0  0
   37.0670   26.6450   41.7290 C   0  0  0  0  0  0  0  0  0  0  0  0
   37.3080   25.4350   42.3550 F   0  0  0  0  0  0  0  0  0  0  0  0
   36.5000   26.4160   40.5160 F   0  0  0  0  0  0  0  0  0  0  0  0
   36.2440   27.3620   42.5890 F   0  0  0  0  0  0  0  0  0  0  0  0
  1  7  1  6  0  0  0
  1  2  1  0  0  0  0
  1 29  1  0  0  0  0
  2  9  1  0  0  0  0
  2  8  1  0  0  0  0
  3 11  1  0  0  0  0
  3  2  1  0  0  0  0
  4 12  1  0  0  0  0
  4  3  1  0  0  0  0
  5  4  1  0  0  0  0
  5  6  1  0  0  0  0
  6 16  1  6  0  0  0
  6 17  1  0  0  0  0
  6  1  1  0  0  0  0
 10  3  1  0  0  0  0
 13  4  1  0  0  0  0
 14  5  1  0  0  0  0
 15  5  1  0  0  0  0
 17 18  1  0  0  0  0
 19 17  1  0  0  0  0
 21 20  1  0  0  0  0
 22 17  1  0  0  0  0
 22 21  2  0  0  0  0
 23 22  1  0  0  0  0
 24 23  1  0  0  0  0
 25 23  2  0  0  0  0
 25 27  1  0  0  0  0
 26 25  1  0  0  0  0
 27 28  2  0  0  0  0
 28 21  1  0  0  0  0
 29 30  2  0  0  0  0
 31 36  2  0  0  0  0
 31 32  1  0  0  0  0
 32 33  2  0  0  0  0
 33 34  1  0  0  0  0
 33 39  1  0  0  0  0
 35 29  1  0  0  0  0
 35 34  2  0  0  0  0
 36 35  1  0  0  0  0
 37 31  1  0  0  0  0
 38 32  1  0  0  0  0
 39 40  1  0  0  0  0
 39 42  1  0  0  0  0
 41 39  1  0  0  0  0
M  END
>  <minimizedAffinity>
-5.71513319

$$$$

 OpenBabel03242518563D

 42 44  0  0  1  0  0  0  0  0999 V2000
   38.1710   30.8540   40.2950 C   0  0  2  0  0  0  0  0  0  0  0  0
   38.0640   32.3410   40.1760 C   0  0  0  0  0  0  0  0  0  0  0  0
   39.1520   32.7890   39.2610 C   0  0  0  0  0  0  0  0  0  0  0  0
   40.0750   31.7170   38.7810 C   0  0  0  0  0  0  0  0  0  0  0  0
   39.3050   30.5920   38.1420 C   0  0  0  0  0  0  0  0  0  0  0  0
   38.1150   30.2460   38.9090 C   0  0  2  0  0  0  0  0  0  0  0  0
   39.1920   30.5960   40.6580 H   0  0  0  0  0  0  0  0  0  0  0  0
   38.1490   32.7910   41.1980 H   0  0  0  0  0  0  0  0  0  0  0  0
   37.0870   32.6710   39.7950 H   0  0  0  0  0  0  0  0  0  0  0  0
   38.8230   33.4540   38.4290 H   0  0  0  0  0  0  0  0  0  0  0  0
   39.8130   33.4800   39.8690 H   0  0  0  0  0  0  0  0  0  0  0  0
   40.7680   31.3660   39.5670 H   0  0  0  0  0  0  0  0  0  0  0  0
   40.7050   32.1600   37.9870 H   0  0  0  0  0  0  0  0  0  0  0  0
   40.0100   29.7060   38.1860 H   0  0  0  0  0  0  0  0  0  0  0  0
   39.1850   30.7670   37.0550 H   0  0  0  0  0  0  0  0  0  0  0  0
   37.9560   29.1570   39.0310 H   0  0  0  0  0  0  0  0  0  0  0  0
   36.9600   30.8110   38.1480 C   0  0  0  0  0  0  0  0  0  0  0  0
   36.4000   31.5900   38.7190 H   0  0  0  0  0  0  0  0  0  0  0  0
   37.2790   31.2770   37.1940 H   0  0  0  0  0  0  0  0  0  0  0  0
   36.9420   30.0940   35.5020 F   0  0  0  0  0  0  0  0  0  0  0  0
   36.1010   29.4700   36.3620 C   0  0  0  0  0  0  0  0  0  0  0  0
   36.0020   29.7320   37.7170 C   0  0  0  0  0  0  0  0  0  0  0  0
   35.1250   29.0600   38.5390 C   0  0  0  0  0  0  0  0  0  0  0  0
   35.1260   29.3360   39.5840 H   0  0  0  0  0  0  0  0  0  0  0  0
   34.3370   28.1010   37.9410 C   0  0  0  0  0  0  0  0  0  0  0  0
   33.6470   27.5680   38.5750 H   0  0  0  0  0  0  0  0  0  0  0  0
   34.4180   27.8230   36.5950 C   0  0  0  0  0  3  0  0  0  0  0  0
   35.3030   28.5050   35.7810 C   0  0  0  0  0  3  0  0  0  0  0  0
   37.1940   30.2460   41.2310 C   0  0  0  0  0  0  0  0  0  0  0  0
   36.1020   30.7810   41.5180 O   0  0  0  0  0  0  0  0  0  0  0  0
   38.6470   27.7550   43.4740 C   0  0  0  0  0  0  0  0  0  0  0  0
   38.2660   26.5070   42.9100 C   0  0  0  0  0  0  0  0  0  0  0  0
   37.5030   26.5650   41.7560 C   0  0  0  0  0  0  0  0  0  0  0  0
   37.2160   27.7940   41.3150 N   0  0  0  0  0  0  0  0  0  0  0  0
   37.5660   28.9540   41.8310 C   0  0  0  0  0  0  0  0  0  0  0  0
   38.3070   28.9240   42.9500 N   0  0  0  0  0  0  0  0  0  0  0  0
   39.2530   27.6660   44.3890 H   0  0  0  0  0  0  0  0  0  0  0  0
   38.5490   25.5620   43.3440 H   0  0  0  0  0  0  0  0  0  0  0  0
   37.1100   25.2950   41.1630 C   0  0  0  0  0  0  0  0  0  0  0  0
   36.4090   24.5420   42.0890 F   0  0  0  0  0  0  0  0  0  0  0  0
   38.2550   24.6460   40.8330 F   0  0  0  0  0  0  0  0  0  0  0  0
   36.2510   25.4690   40.0840 F   0  0  0  0  0  0  0  0  0  0  0  0
  1  7  1  1  0  0  0
  1 29  1  0  0  0  0
  2  1  1  0  0  0  0
  2  8  1  0  0  0  0
  3 11  1  0  0  0  0
  3  2  1  0  0  0  0
  4  3  1  0  0  0  0
  4 12  1  0  0  0  0
  5 14  1  0  0  0  0
  5  4  1  0  0  0  0
  5  6  1  0  0  0  0
  6 16  1  1  0  0  0
  6  1  1  0  0  0  0
  9  2  1  0  0  0  0
 10  3  1  0  0  0  0
 13  4  1  0  0  0  0
 15  5  1  0  0  0  0
 17 18  1  0  0  0  0
 17  6  1  0  0  0  0
 19 17  1  0  0  0  0
 20 21  1  0  0  0  0
 21 22  1  0  0  0  0
 22 17  1  0  0  0  0
 22 23  2  0  0  0  0
 23 24  1  0  0  0  0
 25 23  1  0  0  0  0
 25 26  1  0  0  0  0
 27 25  2  0  0  0  0
 28 21  2  0  0  0  0
 28 27  1  0  0  0  0
 29 30  2  0  0  0  0
 29 35  1  0  0  0  0
 31 37  1  0  0  0  0
 32 38  1  0  0  0  0
 32 31  2  0  0  0  0
 33 32  1  0  0  0  0
 34 33  2  0  0  0  0
 34 35  1  0  0  0  0
 35 36  2  0  0  0  0
 36 31  1  0  0  0  0
 39 33  1  0  0  0  0
 39 40  1  0  0  0  0
 41 39  1  0  0  0  0
 42 39  1  0  0  0  0
M  END
>  <minimizedAffinity>
-5.69075012

$$$$

 OpenBabel03242518563D

 42 44  0  0  1  0  0  0  0  0999 V2000
   37.2310   28.1130   41.5670 C   0  0  2  0  0  0  0  0  0  0  0  0
   38.6840   28.3580   41.3100 C   0  0  0  0  0  0  0  0  0  0  0  0
   39.4480   27.5810   42.3270 C   0  0  0  0  0  0  0  0  0  0  0  0
   38.6240   26.8570   43.3400 C   0  0  0  0  0  0  0  0  0  0  0  0
   37.6140   25.9630   42.6720 C   0  0  0  0  0  0  0  0  0  0  0  0
   36.9740   26.6200   41.5390 C   0  0  2  0  0  0  0  0  0  0  0  0
   36.9980   28.4040   42.6170 H   0  0  0  0  0  0  0  0  0  0  0  0
   38.8790   29.4590   41.3740 H   0  0  0  0  0  0  0  0  0  0  0  0
   38.9940   28.0670   40.2970 H   0  0  0  0  0  0  0  0  0  0  0  0
   40.2580   26.9350   41.9140 H   0  0  0  0  0  0  0  0  0  0  0  0
   40.0350   28.3400   42.9300 H   0  0  0  0  0  0  0  0  0  0  0  0
   38.1660   27.5350   44.0830 H   0  0  0  0  0  0  0  0  0  0  0  0
   39.3070   26.1950   43.9050 H   0  0  0  0  0  0  0  0  0  0  0  0
   36.8200   25.7910   43.4610 H   0  0  0  0  0  0  0  0  0  0  0  0
   38.0330   24.9500   42.5090 H   0  0  0  0  0  0  0  0  0  0  0  0
   35.8760   26.4750   41.4920 H   0  0  0  0  0  0  0  0  0  0  0  0
   37.5840   26.0180   40.3170 C   0  0  0  0  0  0  0  0  0  0  0  0
   38.1930   26.7460   39.7280 H   0  0  0  0  0  0  0  0  0  0  0  0
   38.2500   25.1650   40.5620 H   0  0  0  0  0  0  0  0  0  0  0  0
   36.7880   23.4460   40.8330 F   0  0  0  0  0  0  0  0  0  0  0  0
   36.2310   24.1140   39.7940 C   0  0  0  0  0  0  0  0  0  0  0  0
   36.5390   25.4100   39.4190 C   0  0  0  0  0  0  0  0  0  0  0  0
   35.9360   26.0350   38.3510 C   0  0  0  0  0  0  0  0  0  0  0  0
   36.2430   27.0500   38.1410 H   0  0  0  0  0  0  0  0  0  0  0  0
   34.9960   25.3000   37.6610 C   0  0  0  0  0  0  0  0  0  0  0  0
   34.5170   25.7790   36.8230 H   0  0  0  0  0  0  0  0  0  0  0  0
   34.6740   24.0100   38.0160 C   0  0  0  0  0  3  0  0  0  0  0  0
   35.2880   23.3940   39.0910 C   0  0  0  0  0  3  0  0  0  0  0  0
   36.3190   28.8720   40.6780 C   0  0  0  0  0  0  0  0  0  0  0  0
   35.0790   28.7100   40.6730 O   0  0  0  0  0  0  0  0  0  0  0  0
   37.7820   30.3940   37.6970 C   0  0  0  0  0  0  0  0  0  0  0  0
   38.1320   31.7100   38.1080 C   0  0  0  0  0  0  0  0  0  0  0  0
   37.8430   32.0370   39.4210 C   0  0  0  0  0  0  0  0  0  0  0  0
   37.2660   31.0720   40.1430 N   0  0  0  0  0  0  0  0  0  0  0  0
   36.9400   29.8510   39.7710 C   0  0  0  0  0  0  0  0  0  0  0  0
   37.2100   29.5100   38.5010 N   0  0  0  0  0  0  0  0  0  0  0  0
   38.0280   30.1740   36.6470 H   0  0  0  0  0  0  0  0  0  0  0  0
   38.5970   32.4220   37.4450 H   0  0  0  0  0  0  0  0  0  0  0  0
   38.2010   33.3790   39.8590 C   0  0  0  0  0  0  0  0  0  0  0  0
   38.5120   33.3650   41.2080 F   0  0  0  0  0  0  0  0  0  0  0  0
   37.1090   34.1590   39.6590 F   0  0  0  0  0  0  0  0  0  0  0  0
   39.3360   33.8520   39.2120 F   0  0  0  0  0  0  0  0  0  0  0  0
  1  7  1  1  0  0  0
  2  8  1  0  0  0  0
  2  1  1  0  0  0  0
  2  3  1  0  0  0  0
  3 11  1  0  0  0  0
  3  4  1  0  0  0  0
  4 13  1  0  0  0  0
  4 12  1  0  0  0  0
  5  4  1  0  0  0  0
  5 14  1  0  0  0  0
  6 16  1  1  0  0  0
  6  1  1  0  0  0  0
  6  5  1  0  0  0  0
  9  2  1  0  0  0  0
 10  3  1  0  0  0  0
 15  5  1  0  0  0  0
 17 19  1  0  0  0  0
 17  6  1  0  0  0  0
 18 17  1  0  0  0  0
 21 20  1  0  0  0  0
 22 21  1  0  0  0  0
 22 17  1  0  0  0  0
 23 22  2  0  0  0  0
 24 23  1  0  0  0  0
 25 27  2  0  0  0  0
 25 23  1  0  0  0  0
 26 25  1  0  0  0  0
 27 28  1  0  0  0  0
 28 21  2  0  0  0  0
 29  1  1  0  0  0  0
 30 29  2  0  0  0  0
 31 32  2  0  0  0  0
 31 36  1  0  0  0  0
 32 33  1  0  0  0  0
 33 39  1  0  0  0  0
 33 34  2  0  0  0  0
 35 34  1  0  0  0  0
 35 29  1  0  0  0  0
 36 35  2  0  0  0  0
 37 31  1  0  0  0  0
 38 32  1  0  0  0  0
 39 40  1  0  0  0  0
 41 39  1  0  0  0  0
 42 39  1  0  0  0  0
M  END
>  <minimizedAffinity>
-5.6800437

$$$$
