
 OpenBabel03252508573D

 24 25  0  0  0  0  0  0  0  0999 V2000
   39.2380   29.3090   42.6840 C   0  0  0  0  0  0  0  0  0  0  0  0
   39.7030   28.5990   41.9620 H   0  0  0  0  0  0  0  0  0  0  0  0
   39.9520   29.8090   43.3400 H   0  0  0  0  0  0  0  0  0  0  0  0
   36.4570   31.0150   40.8160 C   0  0  0  0  0  0  0  0  0  0  0  0
   37.1580   30.0670   41.5920 C   0  0  0  0  0  0  0  0  0  0  0  0
   38.4970   30.2950   41.8700 C   0  0  0  0  0  0  0  0  0  0  0  0
   39.0560   31.4270   41.3740 N   0  0  0  0  0  0  0  0  0  0  0  0
   38.3650   32.3240   40.6310 C   0  0  0  0  0  0  0  0  0  0  0  0
   37.0800   32.1240   40.3530 N   0  0  0  0  0  0  0  0  0  0  0  0
   35.4230   30.7190   40.6700 H   0  0  0  0  0  0  0  0  0  0  0  0
   36.6970   29.1690   41.9820 H   0  0  0  0  0  0  0  0  0  0  0  0
   38.8180   33.2270   40.2380 H   0  0  0  0  0  0  0  0  0  0  0  0
   38.2270   28.4770   43.4690 C   0  0  0  0  0  0  0  0  0  0  0  0
   38.3040   28.7190   44.5350 H   0  0  0  0  0  0  0  0  0  0  0  0
   37.2140   28.6100   43.0640 H   0  0  0  0  0  0  0  0  0  0  0  0
   36.5720   26.8400   42.0050 F   0  0  0  0  0  0  0  0  0  0  0  0
   37.7280   26.3230   42.4920 C   0  0  0  0  0  0  0  0  0  0  0  0
   38.6360   27.0650   43.2450 C   0  0  0  0  0  0  0  0  0  0  0  0
   39.7740   26.4120   43.6790 C   0  0  0  0  0  0  0  0  0  0  0  0
   40.4330   27.0410   44.2540 H   0  0  0  0  0  0  0  0  0  0  0  0
   39.9620   25.0860   43.3580 C   0  0  0  0  0  0  0  0  0  0  0  0
   40.8720   24.6180   43.7220 H   0  0  0  0  0  0  0  0  0  0  0  0
   39.0650   24.3500   42.6130 C   0  0  0  0  0  3  0  0  0  0  0  0
   37.9130   25.0090   42.1740 C   0  0  0  0  0  3  0  0  0  0  0  0
  1  3  1  0  0  0  0
  1 13  1  0  0  0  0
  2  1  1  0  0  0  0
  4  5  1  0  0  0  0
  5  6  2  0  0  0  0
  5 11  1  0  0  0  0
  6  1  1  0  0  0  0
  7  6  1  0  0  0  0
  8  7  2  0  0  0  0
  9  8  1  0  0  0  0
  9  4  2  0  0  0  0
 10  4  1  0  0  0  0
 12  8  1  0  0  0  0
 13 14  1  0  0  0  0
 15 13  1  0  0  0  0
 16 17  1  0  0  0  0
 17 18  1  0  0  0  0
 18 13  1  0  0  0  0
 18 19  2  0  0  0  0
 19 20  1  0  0  0  0
 21 19  1  0  0  0  0
 21 22  1  0  0  0  0
 23 21  2  0  0  0  0
 24 17  2  0  0  0  0
 24 23  1  0  0  0  0
M  END
>  <minimizedAffinity>
-4.76006937

$$$$

 OpenBabel03252508573D

 24 25  0  0  0  0  0  0  0  0999 V2000
   36.3640   28.3100   41.6700 C   0  0  0  0  0  0  0  0  0  0  0  0
   35.2820   28.5390   41.8050 H   0  0  0  0  0  0  0  0  0  0  0  0
   36.5720   27.5830   40.8840 H   0  0  0  0  0  0  0  0  0  0  0  0
   36.9270   31.8270   40.4650 C   0  0  0  0  0  0  0  0  0  0  0  0
   36.2920   30.5980   40.7440 C   0  0  0  0  0  0  0  0  0  0  0  0
   37.0220   29.6010   41.3740 C   0  0  0  0  0  0  0  0  0  0  0  0
   38.3130   29.8710   41.6860 N   0  0  0  0  0  0  0  0  0  0  0  0
   38.9030   31.0580   41.4090 C   0  0  0  0  0  0  0  0  0  0  0  0
   38.2230   32.0280   40.8070 N   0  0  0  0  0  0  0  0  0  0  0  0
   36.2520   32.5180   39.9720 H   0  0  0  0  0  0  0  0  0  0  0  0
   35.2600   30.3970   40.4900 H   0  0  0  0  0  0  0  0  0  0  0  0
   39.9370   31.2680   41.6620 H   0  0  0  0  0  0  0  0  0  0  0  0
   36.8460   27.8290   43.0360 C   0  0  0  0  0  0  0  0  0  0  0  0
   37.5560   28.5530   43.4500 H   0  0  0  0  0  0  0  0  0  0  0  0
   35.9940   27.6250   43.7010 H   0  0  0  0  0  0  0  0  0  0  0  0
   39.5110   27.6070   43.6790 F   0  0  0  0  0  0  0  0  0  0  0  0
   38.8870   26.5360   43.1270 C   0  0  0  0  0  0  0  0  0  0  0  0
   37.5410   26.5430   42.7650 C   0  0  0  0  0  0  0  0  0  0  0  0
   37.0330   25.3810   42.2110 C   0  0  0  0  0  0  0  0  0  0  0  0
   35.9900   25.4530   41.9550 H   0  0  0  0  0  0  0  0  0  0  0  0
   37.8570   24.2910   42.0450 C   0  0  0  0  0  0  0  0  0  0  0  0
   37.4110   23.4030   41.6070 H   0  0  0  0  0  0  0  0  0  0  0  0
   39.1890   24.2810   42.4030 C   0  0  0  0  0  3  0  0  0  0  0  0
   39.7030   25.4550   42.9620 C   0  0  0  0  0  3  0  0  0  0  0  0
  1  2  1  0  0  0  0
  1 13  1  0  0  0  0
  3  1  1  0  0  0  0
  4  5  2  0  0  0  0
  4  9  1  0  0  0  0
  5  6  1  0  0  0  0
  6  1  1  0  0  0  0
  6  7  2  0  0  0  0
  8 12  1  0  0  0  0
  8  7  1  0  0  0  0
  9  8  2  0  0  0  0
 10  4  1  0  0  0  0
 11  5  1  0  0  0  0
 13 14  1  0  0  0  0
 13 15  1  0  0  0  0
 17 16  1  0  0  0  0
 18 13  1  0  0  0  0
 18 17  2  0  0  0  0
 19 18  1  0  0  0  0
 20 19  1  0  0  0  0
 21 19  2  0  0  0  0
 21 23  1  0  0  0  0
 22 21  1  0  0  0  0
 23 24  2  0  0  0  0
 24 17  1  0  0  0  0
M  END
>  <minimizedAffinity>
-4.75959635

$$$$

 OpenBabel03252508573D

 24 25  0  0  0  0  0  0  0  0999 V2000
   37.6720   28.3650   43.5730 C   0  0  0  0  0  0  0  0  0  0  0  0
   37.7000   28.8060   44.5960 H   0  0  0  0  0  0  0  0  0  0  0  0
   36.7390   27.8520   43.3330 H   0  0  0  0  0  0  0  0  0  0  0  0
   39.3600   31.1730   41.7290 C   0  0  0  0  0  0  0  0  0  0  0  0
   39.1450   30.1050   42.6260 C   0  0  0  0  0  0  0  0  0  0  0  0
   37.9050   29.4860   42.6370 C   0  0  0  0  0  0  0  0  0  0  0  0
   36.9650   29.9490   41.7760 N   0  0  0  0  0  0  0  0  0  0  0  0
   37.1930   30.9750   40.9230 C   0  0  0  0  0  0  0  0  0  0  0  0
   38.3750   31.5830   40.8960 N   0  0  0  0  0  0  0  0  0  0  0  0
   40.3660   31.5700   41.8210 H   0  0  0  0  0  0  0  0  0  0  0  0
   39.9060   29.7460   43.3070 H   0  0  0  0  0  0  0  0  0  0  0  0
   36.4370   31.3410   40.2360 H   0  0  0  0  0  0  0  0  0  0  0  0
   38.8730   27.4270   43.5080 C   0  0  0  0  0  0  0  0  0  0  0  0
   39.6740   27.8980   42.9270 H   0  0  0  0  0  0  0  0  0  0  0  0
   39.1880   27.1230   44.5170 H   0  0  0  0  0  0  0  0  0  0  0  0
   40.6520   25.4080   42.9360 F   0  0  0  0  0  0  0  0  0  0  0  0
   39.3590   25.2590   42.5520 C   0  0  0  0  0  0  0  0  0  0  0  0
   38.3790   26.2200   42.7930 C   0  0  0  0  0  0  0  0  0  0  0  0
   37.1000   25.9390   42.3470 C   0  0  0  0  0  0  0  0  0  0  0  0
   36.3920   26.7210   42.5640 H   0  0  0  0  0  0  0  0  0  0  0  0
   36.8520   24.7500   41.6990 C   0  0  0  0  0  0  0  0  0  0  0  0
   35.8330   24.5760   41.3690 H   0  0  0  0  0  0  0  0  0  0  0  0
   37.8200   23.7970   41.4610 C   0  0  0  0  0  3  0  0  0  0  0  0
   39.1130   24.0810   41.9110 C   0  0  0  0  0  3  0  0  0  0  0  0
  1  2  1  0  0  0  0
  3  1  1  0  0  0  0
  4 10  1  0  0  0  0
  4  5  1  0  0  0  0
  5  6  2  0  0  0  0
  5 11  1  0  0  0  0
  6  1  1  0  0  0  0
  7  6  1  0  0  0  0
  8  7  2  0  0  0  0
  9  8  1  0  0  0  0
  9  4  2  0  0  0  0
 12  8  1  0  0  0  0
 13  1  1  0  0  0  0
 13 15  1  0  0  0  0
 14 13  1  0  0  0  0
 17 18  1  0  0  0  0
 17 16  1  0  0  0  0
 18 13  1  0  0  0  0
 19 20  1  0  0  0  0
 19 18  2  0  0  0  0
 21 19  1  0  0  0  0
 22 21  1  0  0  0  0
 23 21  2  0  0  0  0
 23 24  1  0  0  0  0
 24 17  2  0  0  0  0
M  END
>  <minimizedAffinity>
-4.65601778

$$$$

 OpenBabel03252508573D

 24 25  0  0  0  0  0  0  0  0999 V2000
   36.3640   27.6750   40.0490 C   0  0  0  0  0  0  0  0  0  0  0  0
   37.0780   27.9170   39.2290 H   0  0  0  0  0  0  0  0  0  0  0  0
   35.8060   26.7500   39.8970 H   0  0  0  0  0  0  0  0  0  0  0  0
   37.3330   27.7800   43.6800 C   0  0  0  0  0  0  0  0  0  0  0  0
   36.5580   27.8550   42.5040 C   0  0  0  0  0  0  0  0  0  0  0  0
   37.1700   27.6000   41.2860 C   0  0  0  0  0  0  0  0  0  0  0  0
   38.4900   27.2900   41.3010 N   0  0  0  0  0  0  0  0  0  0  0  0
   39.2160   27.2240   42.4420 C   0  0  0  0  0  0  0  0  0  0  0  0
   38.6490   27.4650   43.6200 N   0  0  0  0  0  0  0  0  0  0  0  0
   36.7390   28.0020   44.5600 H   0  0  0  0  0  0  0  0  0  0  0  0
   35.5040   28.1020   42.5070 H   0  0  0  0  0  0  0  0  0  0  0  0
   40.2720   26.9750   42.4470 H   0  0  0  0  0  0  0  0  0  0  0  0
   35.4430   28.8870   40.1490 C   0  0  0  0  0  0  0  0  0  0  0  0
   34.5050   28.6790   39.6210 H   0  0  0  0  0  0  0  0  0  0  0  0
   35.2950   29.1810   41.1980 H   0  0  0  0  0  0  0  0  0  0  0  0
   36.0890   31.1480   41.5770 F   0  0  0  0  0  0  0  0  0  0  0  0
   36.4530   31.0810   40.2710 C   0  0  0  0  0  0  0  0  0  0  0  0
   36.1750   29.9830   39.4600 C   0  0  0  0  0  0  0  0  0  0  0  0
   36.6020   30.0480   38.1460 C   0  0  0  0  0  0  0  0  0  0  0  0
   36.3570   29.1700   37.5740 H   0  0  0  0  0  0  0  0  0  0  0  0
   37.2700   31.1680   37.7030 C   0  0  0  0  0  0  0  0  0  0  0  0
   37.5860   31.1710   36.6650 H   0  0  0  0  0  0  0  0  0  0  0  0
   37.5480   32.2550   38.5060 C   0  0  0  0  0  3  0  0  0  0  0  0
   37.1150   32.1900   39.8330 C   0  0  0  0  0  3  0  0  0  0  0  0
  1 13  1  0  0  0  0
  1  6  1  0  0  0  0
  2  1  1  0  0  0  0
  3  1  1  0  0  0  0
  4 10  1  0  0  0  0
  5 11  1  0  0  0  0
  5  4  2  0  0  0  0
  6  7  2  0  0  0  0
  6  5  1  0  0  0  0
  7  8  1  0  0  0  0
  8 12  1  0  0  0  0
  8  9  2  0  0  0  0
  9  4  1  0  0  0  0
 13 15  1  0  0  0  0
 14 13  1  0  0  0  0
 17 16  1  0  0  0  0
 18 13  1  0  0  0  0
 18 17  2  0  0  0  0
 19 18  1  0  0  0  0
 20 19  1  0  0  0  0
 21 19  2  0  0  0  0
 21 23  1  0  0  0  0
 22 21  1  0  0  0  0
 23 24  2  0  0  0  0
 24 17  1  0  0  0  0
M  END
>  <minimizedAffinity>
-4.63782692

$$$$

 OpenBabel03252508573D

 24 25  0  0  0  0  0  0  0  0999 V2000
   35.3700   29.0910   40.2920 C   0  0  0  0  0  0  0  0  0  0  0  0
   35.2420   29.1960   41.3940 H   0  0  0  0  0  0  0  0  0  0  0  0
   34.4320   29.0520   39.7360 H   0  0  0  0  0  0  0  0  0  0  0  0
   37.3460   31.4490   38.1310 C   0  0  0  0  0  0  0  0  0  0  0  0
   36.5710   30.3420   38.5340 C   0  0  0  0  0  0  0  0  0  0  0  0
   36.1830   30.2480   39.8620 C   0  0  0  0  0  0  0  0  0  0  0  0
   36.5770   31.2390   40.7000 N   0  0  0  0  0  0  0  0  0  0  0  0
   37.3220   32.2940   40.2930 C   0  0  0  0  0  0  0  0  0  0  0  0
   37.7040   32.4030   39.0240 N   0  0  0  0  0  0  0  0  0  0  0  0
   37.5830   31.4030   37.0730 H   0  0  0  0  0  0  0  0  0  0  0  0
   36.2620   29.5590   37.8520 H   0  0  0  0  0  0  0  0  0  0  0  0
   37.6330   33.0830   40.9680 H   0  0  0  0  0  0  0  0  0  0  0  0
   36.1990   27.8240   40.1020 C   0  0  0  0  0  0  0  0  0  0  0  0
   35.5310   26.9610   40.0050 H   0  0  0  0  0  0  0  0  0  0  0  0
   36.8930   27.9340   39.2560 H   0  0  0  0  0  0  0  0  0  0  0  0
   38.9210   27.4880   39.8920 F   0  0  0  0  0  0  0  0  0  0  0  0
   38.3680   27.5340   41.1310 C   0  0  0  0  0  0  0  0  0  0  0  0
   37.0010   27.7010   41.3480 C   0  0  0  0  0  0  0  0  0  0  0  0
   36.5730   27.7290   42.6620 C   0  0  0  0  0  0  0  0  0  0  0  0
   35.5090   27.8610   42.7600 H   0  0  0  0  0  0  0  0  0  0  0  0
   37.4910   27.5950   43.6800 C   0  0  0  0  0  0  0  0  0  0  0  0
   37.1050   27.6250   44.6940 H   0  0  0  0  0  0  0  0  0  0  0  0
   38.8440   27.4310   43.4670 C   0  0  0  0  0  3  0  0  0  0  0  0
   39.2780   27.4020   42.1380 C   0  0  0  0  0  3  0  0  0  0  0  0
  1  2  1  0  0  0  0
  3  1  1  0  0  0  0
  4  5  2  0  0  0  0
  4  9  1  0  0  0  0
  5  6  1  0  0  0  0
  6  1  1  0  0  0  0
  6  7  2  0  0  0  0
  8  7  1  0  0  0  0
  8 12  1  0  0  0  0
  9  8  2  0  0  0  0
 10  4  1  0  0  0  0
 11  5  1  0  0  0  0
 13  1  1  0  0  0  0
 13 18  1  0  0  0  0
 14 13  1  0  0  0  0
 15 13  1  0  0  0  0
 16 17  1  0  0  0  0
 17 18  2  0  0  0  0
 17 24  1  0  0  0  0
 18 19  1  0  0  0  0
 19 20  1  0  0  0  0
 19 21  2  0  0  0  0
 21 22  1  0  0  0  0
 23 21  1  0  0  0  0
 24 23  2  0  0  0  0
M  END
>  <minimizedAffinity>
-4.52241611

$$$$

 OpenBabel03252508573D

 24 25  0  0  0  0  0  0  0  0999 V2000
   35.6670   29.3130   40.6300 C   0  0  0  0  0  0  0  0  0  0  0  0
   34.8390   29.7570   41.2280 H   0  0  0  0  0  0  0  0  0  0  0  0
   35.3400   28.5830   39.8880 H   0  0  0  0  0  0  0  0  0  0  0  0
   37.2600   31.4750   37.9980 C   0  0  0  0  0  0  0  0  0  0  0  0
   36.6040   30.3880   38.6140 C   0  0  0  0  0  0  0  0  0  0  0  0
   36.3550   30.4470   39.9770 C   0  0  0  0  0  0  0  0  0  0  0  0
   36.7620   31.5580   40.6410 N   0  0  0  0  0  0  0  0  0  0  0  0
   37.3900   32.5900   40.0290 C   0  0  0  0  0  0  0  0  0  0  0  0
   37.6380   32.5540   38.7240 N   0  0  0  0  0  0  0  0  0  0  0  0
   37.3950   31.3040   36.9350 H   0  0  0  0  0  0  0  0  0  0  0  0
   36.2840   29.5090   38.0710 H   0  0  0  0  0  0  0  0  0  0  0  0
   37.7120   33.4760   40.5660 H   0  0  0  0  0  0  0  0  0  0  0  0
   36.6180   28.7000   41.6540 C   0  0  0  0  0  0  0  0  0  0  0  0
   37.6010   29.1780   41.5730 H   0  0  0  0  0  0  0  0  0  0  0  0
   36.1900   28.7530   42.6650 H   0  0  0  0  0  0  0  0  0  0  0  0
   37.0920   26.8350   43.6200 F   0  0  0  0  0  0  0  0  0  0  0  0
   36.9650   26.4070   42.3380 C   0  0  0  0  0  0  0  0  0  0  0  0
   36.7240   27.2680   41.2690 C   0  0  0  0  0  0  0  0  0  0  0  0
   36.6180   26.6960   40.0140 C   0  0  0  0  0  0  0  0  0  0  0  0
   36.4320   27.4150   39.2330 H   0  0  0  0  0  0  0  0  0  0  0  0
   36.7500   25.3330   39.8740 C   0  0  0  0  0  0  0  0  0  0  0  0
   36.6580   24.9330   38.8690 H   0  0  0  0  0  0  0  0  0  0  0  0
   36.9880   24.4790   40.9310 C   0  0  0  0  0  3  0  0  0  0  0  0
   37.0960   25.0560   42.2000 C   0  0  0  0  0  3  0  0  0  0  0  0
  1  2  1  0  0  0  0
  1 13  1  0  0  0  0
  3  1  1  0  0  0  0
  4  5  2  0  0  0  0
  4  9  1  0  0  0  0
  5  6  1  0  0  0  0
  6  1  1  0  0  0  0
  6  7  2  0  0  0  0
  8 12  1  0  0  0  0
  8  7  1  0  0  0  0
  9  8  2  0  0  0  0
 10  4  1  0  0  0  0
 11  5  1  0  0  0  0
 13 15  1  0  0  0  0
 14 13  1  0  0  0  0
 17 16  1  0  0  0  0
 18 13  1  0  0  0  0
 18 17  2  0  0  0  0
 19 18  1  0  0  0  0
 20 19  1  0  0  0  0
 21 19  2  0  0  0  0
 21 23  1  0  0  0  0
 22 21  1  0  0  0  0
 23 24  2  0  0  0  0
 24 17  1  0  0  0  0
M  END
>  <minimizedAffinity>
-4.520576

$$$$

 OpenBabel03252508573D

 24 25  0  0  0  0  0  0  0  0999 V2000
   37.5100   30.7520   39.6650 C   0  0  0  0  0  0  0  0  0  0  0  0
   36.7990   30.9210   38.8250 H   0  0  0  0  0  0  0  0  0  0  0  0
   38.0610   29.8130   39.6030 H   0  0  0  0  0  0  0  0  0  0  0  0
   38.9670   34.1610   40.2910 C   0  0  0  0  0  0  0  0  0  0  0  0
   38.0740   33.0690   40.3070 C   0  0  0  0  0  0  0  0  0  0  0  0
   38.4390   31.9020   39.6530 C   0  0  0  0  0  0  0  0  0  0  0  0
   39.6450   31.8830   39.0320 N   0  0  0  0  0  0  0  0  0  0  0  0
   40.4870   32.9430   39.0290 C   0  0  0  0  0  0  0  0  0  0  0  0
   40.1570   34.0710   39.6500 N   0  0  0  0  0  0  0  0  0  0  0  0
   38.5640   35.0090   40.8350 H   0  0  0  0  0  0  0  0  0  0  0  0
   37.1160   33.0990   40.8080 H   0  0  0  0  0  0  0  0  0  0  0  0
   41.4500   32.9210   38.5310 H   0  0  0  0  0  0  0  0  0  0  0  0
   36.6620   30.8340   40.9310 C   0  0  0  0  0  0  0  0  0  0  0  0
   36.8440   31.7920   41.4320 H   0  0  0  0  0  0  0  0  0  0  0  0
   35.6010   30.6570   40.7030 H   0  0  0  0  0  0  0  0  0  0  0  0
   35.1770   28.5220   41.0550 F   0  0  0  0  0  0  0  0  0  0  0  0
   36.3210   28.5970   41.7810 C   0  0  0  0  0  0  0  0  0  0  0  0
   37.1450   29.7200   41.7890 C   0  0  0  0  0  0  0  0  0  0  0  0
   38.2810   29.6610   42.5760 C   0  0  0  0  0  0  0  0  0  0  0  0
   38.8740   30.5590   42.5370 H   0  0  0  0  0  0  0  0  0  0  0  0
   38.5470   28.5210   43.3010 C   0  0  0  0  0  0  0  0  0  0  0  0
   39.4510   28.5230   43.9020 H   0  0  0  0  0  0  0  0  0  0  0  0
   37.7330   27.4080   43.2940 C   0  0  0  0  0  3  0  0  0  0  0  0
   36.5840   27.4670   42.5000 C   0  0  0  0  0  3  0  0  0  0  0  0
  1 13  1  0  0  0  0
  2  1  1  0  0  0  0
  3  1  1  0  0  0  0
  4  5  1  0  0  0  0
  4 10  1  0  0  0  0
  5 11  1  0  0  0  0
  6  1  1  0  0  0  0
  6  5  2  0  0  0  0
  7  6  1  0  0  0  0
  8  7  2  0  0  0  0
  8  9  1  0  0  0  0
  9  4  2  0  0  0  0
 12  8  1  0  0  0  0
 13 14  1  0  0  0  0
 13 18  1  0  0  0  0
 15 13  1  0  0  0  0
 16 17  1  0  0  0  0
 17 18  2  0  0  0  0
 17 24  1  0  0  0  0
 18 19  1  0  0  0  0
 19 21  2  0  0  0  0
 20 19  1  0  0  0  0
 21 22  1  0  0  0  0
 23 21  1  0  0  0  0
 24 23  2  0  0  0  0
M  END
>  <minimizedAffinity>
-4.50020123

$$$$

 OpenBabel03252508573D

 24 25  0  0  0  0  0  0  0  0999 V2000
   36.7610   27.7860   40.9130 C   0  0  0  0  0  0  0  0  0  0  0  0
   35.7390   27.7030   40.4800 H   0  0  0  0  0  0  0  0  0  0  0  0
   37.5010   27.1370   40.4420 H   0  0  0  0  0  0  0  0  0  0  0  0
   38.8450   30.8750   40.4090 C   0  0  0  0  0  0  0  0  0  0  0  0
   38.4810   29.5180   40.5410 C   0  0  0  0  0  0  0  0  0  0  0  0
   37.1510   29.2060   40.7750 C   0  0  0  0  0  0  0  0  0  0  0  0
   36.2720   30.2340   40.8640 N   0  0  0  0  0  0  0  0  0  0  0  0
   36.6420   31.5310   40.7340 C   0  0  0  0  0  0  0  0  0  0  0  0
   37.9120   31.8520   40.5090 N   0  0  0  0  0  0  0  0  0  0  0  0
   39.9100   30.9830   40.2310 H   0  0  0  0  0  0  0  0  0  0  0  0
   39.1940   28.7070   40.4660 H   0  0  0  0  0  0  0  0  0  0  0  0
   35.9340   32.3490   40.8050 H   0  0  0  0  0  0  0  0  0  0  0  0
   36.5940   27.4770   42.3980 C   0  0  0  0  0  0  0  0  0  0  0  0
   36.6160   28.4110   42.9710 H   0  0  0  0  0  0  0  0  0  0  0  0
   35.6870   26.8800   42.5730 H   0  0  0  0  0  0  0  0  0  0  0  0
   36.6340   24.8420   41.6080 F   0  0  0  0  0  0  0  0  0  0  0  0
   37.6930   25.3260   42.3050 C   0  0  0  0  0  0  0  0  0  0  0  0
   37.7730   26.6430   42.7520 C   0  0  0  0  0  0  0  0  0  0  0  0
   38.9110   27.0020   43.4520 C   0  0  0  0  0  0  0  0  0  0  0  0
   38.9100   28.0320   43.7670 H   0  0  0  0  0  0  0  0  0  0  0  0
   39.8960   26.0660   43.6730 C   0  0  0  0  0  0  0  0  0  0  0  0
   40.7690   26.3970   44.2270 H   0  0  0  0  0  0  0  0  0  0  0  0
   39.8190   24.7620   43.2320 C   0  0  0  0  0  3  0  0  0  0  0  0
   38.6690   24.3980   42.5250 C   0  0  0  0  0  3  0  0  0  0  0  0
  1 13  1  0  0  0  0
  2  1  1  0  0  0  0
  3  1  1  0  0  0  0
  4  9  2  0  0  0  0
  4  5  1  0  0  0  0
  5  6  2  0  0  0  0
  6  7  1  0  0  0  0
  6  1  1  0  0  0  0
  8 12  1  0  0  0  0
  8  7  2  0  0  0  0
  9  8  1  0  0  0  0
 10  4  1  0  0  0  0
 11  5  1  0  0  0  0
 13 15  1  0  0  0  0
 13 18  1  0  0  0  0
 13 14  1  0  0  0  0
 16 17  1  0  0  0  0
 17 24  2  0  0  0  0
 17 18  1  0  0  0  0
 18 19  2  0  0  0  0
 19 21  1  0  0  0  0
 19 20  1  0  0  0  0
 21 22  1  0  0  0  0
 23 21  2  0  0  0  0
 24 23  1  0  0  0  0
M  END
>  <minimizedAffinity>
-4.462502

$$$$

 OpenBabel03252508573D

 24 25  0  0  0  0  0  0  0  0999 V2000
   37.5930   28.5330   43.3060 C   0  0  0  0  0  0  0  0  0  0  0  0
   38.6780   28.7830   43.2930 H   0  0  0  0  0  0  0  0  0  0  0  0
   37.0700   28.8590   44.2060 H   0  0  0  0  0  0  0  0  0  0  0  0
   35.5060   29.0940   40.2300 C   0  0  0  0  0  0  0  0  0  0  0  0
   36.0580   28.4780   41.3730 C   0  0  0  0  0  0  0  0  0  0  0  0
   37.0100   29.1700   42.1060 C   0  0  0  0  0  0  0  0  0  0  0  0
   37.3560   30.4080   41.6740 N   0  0  0  0  0  0  0  0  0  0  0  0
   36.8140   30.9800   40.5730 C   0  0  0  0  0  0  0  0  0  0  0  0
   35.8990   30.3350   39.8560 N   0  0  0  0  0  0  0  0  0  0  0  0
   34.7770   28.4500   39.7470 H   0  0  0  0  0  0  0  0  0  0  0  0
   35.7710   27.4900   41.7070 H   0  0  0  0  0  0  0  0  0  0  0  0
   37.0940   31.9710   40.2330 H   0  0  0  0  0  0  0  0  0  0  0  0
   37.5280   27.0190   43.1260 C   0  0  0  0  0  0  0  0  0  0  0  0
   36.9500   26.5770   43.9460 H   0  0  0  0  0  0  0  0  0  0  0  0
   37.1380   26.7600   42.1310 H   0  0  0  0  0  0  0  0  0  0  0  0
   38.1200   24.4260   42.4220 F   0  0  0  0  0  0  0  0  0  0  0  0
   39.1320   25.2350   42.8270 C   0  0  0  0  0  0  0  0  0  0  0  0
   38.9410   26.5630   43.2040 C   0  0  0  0  0  0  0  0  0  0  0  0
   40.0610   27.2720   43.5970 C   0  0  0  0  0  0  0  0  0  0  0  0
   39.8450   28.2900   43.8740 H   0  0  0  0  0  0  0  0  0  0  0  0
   41.2920   26.6540   43.5980 C   0  0  0  0  0  0  0  0  0  0  0  0
   42.1400   27.2530   43.9130 H   0  0  0  0  0  0  0  0  0  0  0  0
   41.4830   25.3400   43.2240 C   0  0  0  0  0  3  0  0  0  0  0  0
   40.3510   24.6220   42.8280 C   0  0  0  0  0  3  0  0  0  0  0  0
  1  3  1  0  0  0  0
  2  1  1  0  0  0  0
  4  5  1  0  0  0  0
  5 11  1  0  0  0  0
  5  6  2  0  0  0  0
  6  1  1  0  0  0  0
  7  6  1  0  0  0  0
  8  7  2  0  0  0  0
  9  4  2  0  0  0  0
  9  8  1  0  0  0  0
 10  4  1  0  0  0  0
 12  8  1  0  0  0  0
 13 18  1  0  0  0  0
 13  1  1  0  0  0  0
 13 14  1  0  0  0  0
 15 13  1  0  0  0  0
 16 17  1  0  0  0  0
 17 24  2  0  0  0  0
 17 18  1  0  0  0  0
 18 19  2  0  0  0  0
 19 21  1  0  0  0  0
 19 20  1  0  0  0  0
 21 22  1  0  0  0  0
 23 21  2  0  0  0  0
 24 23  1  0  0  0  0
M  END
>  <minimizedAffinity>
-4.439991

$$$$
