
 OpenBabel03252502363D

 24 25  0  0  1  0  0  0  0  0999 V2000
   48.0190   35.0300   41.7770 C   0  0  2  0  0  0  0  0  0  0  0  0
   48.0160   36.1210   41.5540 H   0  0  0  0  0  0  0  0  0  0  0  0
   45.9070   35.5150   42.9160 C   0  0  0  0  0  0  0  0  0  0  0  0
   47.0760   34.7680   42.8420 C   0  0  0  0  0  0  0  0  0  0  0  0
   47.2280   33.8020   43.8370 C   0  0  0  0  0  0  0  0  0  0  0  0
   46.2650   33.6580   44.7760 N   0  0  0  0  0  0  0  0  0  0  0  0
   45.1590   34.4030   44.8030 C   0  0  0  0  0  0  0  0  0  0  0  0
   44.9830   35.3390   43.8620 N   0  0  0  0  0  0  0  0  0  0  0  0
   45.6290   36.3130   42.2180 H   0  0  0  0  0  0  0  0  0  0  0  0
   48.1130   33.1860   43.8350 H   0  0  0  0  0  0  0  0  0  0  0  0
   44.4860   34.1670   45.6170 H   0  0  0  0  0  0  0  0  0  0  0  0
   48.9890   35.7140   39.1690 F   0  0  0  0  0  0  0  0  0  0  0  0
   48.1880   34.6420   39.3610 C   0  0  0  0  0  0  0  0  0  0  0  0
   47.6690   34.2320   40.5750 C   0  0  0  0  0  0  0  0  0  0  0  0
   46.8680   33.1080   40.5680 C   0  0  0  0  0  0  0  0  0  0  0  0
   46.4610   32.7750   41.4900 H   0  0  0  0  0  0  0  0  0  0  0  0
   46.5860   32.4110   39.4010 C   0  0  0  0  0  0  0  0  0  0  0  0
   45.9440   31.5380   39.5000 H   0  0  0  0  0  0  0  0  0  0  0  0
   47.1090   32.8360   38.2230 C   0  0  0  0  0  0  0  0  0  0  0  0
   47.9060   33.9470   38.1950 C   0  0  0  0  0  0  0  0  0  0  0  0
   49.3960   34.6340   42.2630 C   0  0  0  0  0  0  0  0  0  0  0  0
   49.3890   33.5530   42.5040 H   0  0  0  0  0  0  0  0  0  0  0  0
   50.1510   34.8100   41.4700 H   0  0  0  0  0  0  0  0  0  0  0  0
   49.6140   35.1780   43.1940 H   0  0  0  0  0  0  0  0  0  0  0  0
  1  2  1  6  0  0  0
  1 21  1  0  0  0  0
  1  4  1  0  0  0  0
  3  8  1  0  0  0  0
  4  3  2  0  0  0  0
  4  5  1  0  0  0  0
  5  6  2  0  0  0  0
  6  7  1  0  0  0  0
  7 11  1  0  0  0  0
  8  7  2  0  0  0  0
  9  3  1  0  0  0  0
 10  5  1  0  0  0  0
 12 13  1  0  0  0  0
 13 14  1  0  0  0  0
 14  1  1  0  0  0  0
 15 14  2  0  0  0  0
 15 16  1  0  0  0  0
 17 18  1  0  0  0  0
 17 15  1  0  0  0  0
 19 17  2  0  0  0  0
 20 19  1  0  0  0  0
 20 13  2  0  0  0  0
 21 22  1  0  0  0  0
 21 24  1  0  0  0  0
 23 21  1  0  0  0  0
M  END
>  <minimizedAffinity>
-4.52053356

>  <minimizedRMSD>
1.56275392

$$$$
