
 OpenBabel03252504223D

 32 35  0  0  0  0  0  0  0  0999 V2000
   46.7710   33.5190   39.5300 C   0  0  0  0  0  0  0  0  0  0  0  0
   48.1500   33.2960   39.6210 C   0  0  0  0  0  0  0  0  0  0  0  0
   48.7940   33.4640   40.8800 C   0  0  0  0  0  0  0  0  0  0  0  0
   48.0020   33.8390   41.9280 N   0  0  0  0  0  0  0  0  0  0  0  0
   46.6690   34.0440   41.7920 C   0  0  0  0  0  0  0  0  0  0  0  0
   46.0570   33.8870   40.6110 N   0  0  0  0  0  0  0  0  0  0  0  0
   45.9370   34.4330   42.9500 N   0  0  0  0  0  0  0  0  0  0  0  0
   45.0070   35.4190   43.0170 C   0  0  0  0  0  0  0  0  0  0  0  0
   44.5360   35.4880   44.2870 N   0  0  0  0  0  0  0  0  0  0  0  0
   45.1870   34.5400   44.9830 C   0  0  0  0  0  0  0  0  0  0  0  0
   45.1510   34.1220   46.2950 C   0  0  0  0  0  0  0  0  0  0  0  0
   45.9090   33.1430   46.7480 N   0  0  0  0  0  0  0  0  0  0  0  0
   46.7750   32.4780   45.9560 C   0  0  0  0  0  0  0  0  0  0  0  0
   46.8110   32.8830   44.6770 N   0  0  0  0  0  0  0  0  0  0  0  0
   46.0760   33.8600   44.1640 C   0  0  0  0  0  0  0  0  0  0  0  0
   48.8140   33.0020   38.8340 H   0  0  0  0  0  0  0  0  0  0  0  0
   49.8460   33.3000   40.9800 H   0  0  0  0  0  0  0  0  0  0  0  0
   44.6900   36.0470   42.1990 H   0  0  0  0  0  0  0  0  0  0  0  0
   47.4060   31.6700   46.3140 H   0  0  0  0  0  0  0  0  0  0  0  0
   44.2980   34.7220   47.2500 N   0  0  0  0  0  0  0  0  0  0  0  0
   44.4810   35.5400   47.8890 H   0  0  0  0  0  0  0  0  0  0  0  0
   43.3200   34.3330   47.3810 H   0  0  0  0  0  0  0  0  0  0  0  0
   46.0590   33.2770   37.9050 S   0  0  0  0  0  0  0  0  0  0  0  0
   48.5200   34.1980   36.3900 F   0  0  0  0  0  0  0  0  0  0  0  0
   48.3390   32.8610   36.2750 C   0  0  0  0  0  0  0  0  0  0  0  0
   47.2410   32.3580   36.9340 C   0  0  0  0  0  0  0  0  0  0  0  0
   46.9510   30.9950   36.8880 C   0  0  0  0  0  0  0  0  0  0  0  0
   46.1120   30.5020   37.3720 H   0  0  0  0  0  0  0  0  0  0  0  0
   47.7610   30.1030   36.1760 C   0  0  0  0  0  0  0  0  0  0  0  0
   47.5750   29.0490   36.1140 H   0  0  0  0  0  0  0  0  0  0  0  0
   48.8570   30.6360   35.5240 C   0  0  0  0  0  0  0  0  0  0  0  0
   49.1470   31.9920   35.5680 C   0  0  0  0  0  0  0  0  0  0  0  0
  1  2  2  0  0  0  0
  1  6  1  0  0  0  0
  2  3  1  0  0  0  0
  3 17  1  0  0  0  0
  3  4  2  0  0  0  0
  5  4  1  0  0  0  0
  5  7  1  0  0  0  0
  6  5  2  0  0  0  0
  7  8  1  0  0  0  0
  7 15  1  0  0  0  0
  8  9  2  0  0  0  0
  9 10  1  0  0  0  0
 10 11  1  0  0  0  0
 11 12  2  0  0  0  0
 11 20  1  0  0  0  0
 13 19  1  0  0  0  0
 13 12  1  0  0  0  0
 14 13  2  0  0  0  0
 15 14  1  0  0  0  0
 15 10  2  0  0  0  0
 16  2  1  0  0  0  0
 18  8  1  0  0  0  0
 20 22  1  0  0  0  0
 20 21  1  0  0  0  0
 23  1  1  0  0  0  0
 25 24  1  0  0  0  0
 25 26  1  0  0  0  0
 26 23  1  0  0  0  0
 27 26  2  0  0  0  0
 27 28  1  0  0  0  0
 29 27  1  0  0  0  0
 30 29  1  0  0  0  0
 31 32  1  0  0  0  0
 31 29  2  0  0  0  0
 32 25  2  0  0  0  0
M  END
>  <minimizedAffinity>
-5.85727739

>  <minimizedRMSD>
1.48438919

$$$$
