
 OpenBabel03252502373D

 24 25  0  0  1  0  0  0  0  0999 V2000
   37.6690   28.0080   43.2310 C   0  0  2  0  0  0  0  0  0  0  0  0
   37.9660   28.6890   44.0600 H   0  0  0  0  0  0  0  0  0  0  0  0
   36.9030   29.8960   41.8740 C   0  0  0  0  0  0  0  0  0  0  0  0
   37.6810   28.7510   41.9900 C   0  0  0  0  0  0  0  0  0  0  0  0
   38.4260   28.4200   40.8560 C   0  0  0  0  0  0  0  0  0  0  0  0
   38.3470   29.2060   39.7580 N   0  0  0  0  0  0  0  0  0  0  0  0
   37.5840   30.2980   39.6980 C   0  0  0  0  0  0  0  0  0  0  0  0
   36.8570   30.6420   40.7690 N   0  0  0  0  0  0  0  0  0  0  0  0
   36.2600   30.2970   42.6640 H   0  0  0  0  0  0  0  0  0  0  0  0
   39.0520   27.5430   40.8820 H   0  0  0  0  0  0  0  0  0  0  0  0
   37.6290   30.8190   38.7510 H   0  0  0  0  0  0  0  0  0  0  0  0
   36.9200   25.6050   41.8610 F   0  0  0  0  0  0  0  0  0  0  0  0
   38.1280   25.7260   42.4550 C   0  0  0  0  0  0  0  0  0  0  0  0
   38.5810   26.8400   43.1380 C   0  0  0  0  0  0  0  0  0  0  0  0
   39.8490   26.7730   43.6770 C   0  0  0  0  0  0  0  0  0  0  0  0
   40.2170   27.6180   44.2050 H   0  0  0  0  0  0  0  0  0  0  0  0
   40.6470   25.6440   43.5480 C   0  0  0  0  0  0  0  0  0  0  0  0
   41.6320   25.6890   44.0090 H   0  0  0  0  0  0  0  0  0  0  0  0
   40.1770   24.5650   42.8720 C   0  0  0  0  0  3  0  0  0  0  0  0
   38.9240   24.5990   42.3260 C   0  0  0  0  0  3  0  0  0  0  0  0
   36.2550   27.5260   43.4750 C   0  0  0  0  0  0  0  0  0  0  0  0
   35.9570   26.8670   42.6370 H   0  0  0  0  0  0  0  0  0  0  0  0
   36.2040   26.9420   44.4150 H   0  0  0  0  0  0  0  0  0  0  0  0
   35.5780   28.3940   43.4690 H   0  0  0  0  0  0  0  0  0  0  0  0
  1 21  1  0  0  0  0
  1  2  1  1  0  0  0
  3  4  1  0  0  0  0
  3  9  1  0  0  0  0
  4  1  1  0  0  0  0
  5 10  1  0  0  0  0
  5  4  2  0  0  0  0
  6  5  1  0  0  0  0
  7  6  2  0  0  0  0
  7  8  1  0  0  0  0
  8  3  2  0  0  0  0
 11  7  1  0  0  0  0
 12 13  1  0  0  0  0
 13 14  1  0  0  0  0
 14  1  1  0  0  0  0
 14 15  2  0  0  0  0
 15 16  1  0  0  0  0
 17 15  1  0  0  0  0
 17 18  1  0  0  0  0
 19 17  2  0  0  0  0
 20 13  2  0  0  0  0
 20 19  1  0  0  0  0
 21 23  1  0  0  0  0
 22 21  1  0  0  0  0
 24 21  1  0  0  0  0
M  END
>  <minimizedAffinity>
-4.66213942

$$$$

 OpenBabel03252502373D

 24 25  0  0  1  0  0  0  0  0999 V2000
   35.9690   29.0410   41.2790 C   0  0  2  0  0  0  0  0  0  0  0  0
   35.4260   29.1440   42.2450 H   0  0  0  0  0  0  0  0  0  0  0  0
   36.6720   31.2330   40.4440 C   0  0  0  0  0  0  0  0  0  0  0  0
   36.9570   30.0930   41.1850 C   0  0  0  0  0  0  0  0  0  0  0  0
   38.2150   30.0760   41.7900 C   0  0  0  0  0  0  0  0  0  0  0  0
   39.0460   31.1310   41.6230 N   0  0  0  0  0  0  0  0  0  0  0  0
   38.7230   32.2040   40.9000 C   0  0  0  0  0  0  0  0  0  0  0  0
   37.5230   32.2510   40.3070 N   0  0  0  0  0  0  0  0  0  0  0  0
   35.7350   31.4100   39.9050 H   0  0  0  0  0  0  0  0  0  0  0  0
   38.4980   29.2200   42.3810 H   0  0  0  0  0  0  0  0  0  0  0  0
   39.4940   32.9620   40.8630 H   0  0  0  0  0  0  0  0  0  0  0  0
   36.2880   27.3090   43.5390 F   0  0  0  0  0  0  0  0  0  0  0  0
   36.7270   26.9500   42.3120 C   0  0  0  0  0  0  0  0  0  0  0  0
   36.6210   27.7120   41.1640 C   0  0  0  0  0  0  0  0  0  0  0  0
   37.1300   27.1720   40.0010 C   0  0  0  0  0  0  0  0  0  0  0  0
   37.0580   27.7410   39.1070 H   0  0  0  0  0  0  0  0  0  0  0  0
   37.7260   25.9180   39.9700 C   0  0  0  0  0  0  0  0  0  0  0  0
   38.0970   25.5800   39.0050 H   0  0  0  0  0  0  0  0  0  0  0  0
   37.8170   25.1910   41.1130 C   0  0  0  0  0  3  0  0  0  0  0  0
   37.3220   25.6980   42.2820 C   0  0  0  0  0  3  0  0  0  0  0  0
   34.9850   29.2210   40.1430 C   0  0  0  0  0  0  0  0  0  0  0  0
   35.5330   29.1390   39.1840 H   0  0  0  0  0  0  0  0  0  0  0  0
   34.2130   28.4260   40.1720 H   0  0  0  0  0  0  0  0  0  0  0  0
   34.5620   30.2360   40.1960 H   0  0  0  0  0  0  0  0  0  0  0  0
  1  2  1  1  0  0  0
  3  4  1  0  0  0  0
  4  1  1  0  0  0  0
  4  5  2  0  0  0  0
  5 10  1  0  0  0  0
  6  5  1  0  0  0  0
  7  6  2  0  0  0  0
  8  3  2  0  0  0  0
  8  7  1  0  0  0  0
  9  3  1  0  0  0  0
 11  7  1  0  0  0  0
 13 12  1  0  0  0  0
 14  1  1  0  0  0  0
 14 13  2  0  0  0  0
 15 14  1  0  0  0  0
 16 15  1  0  0  0  0
 17 15  2  0  0  0  0
 17 19  1  0  0  0  0
 18 17  1  0  0  0  0
 19 20  2  0  0  0  0
 20 13  1  0  0  0  0
 21 23  1  0  0  0  0
 21 24  1  0  0  0  0
 21  1  1  0  0  0  0
 22 21  1  0  0  0  0
M  END
>  <minimizedAffinity>
-4.61069489

$$$$

 OpenBabel03252502373D

 24 25  0  0  1  0  0  0  0  0999 V2000
   36.3480   28.7910   40.7990 C   0  0  2  0  0  0  0  0  0  0  0  0
   35.4220   28.9050   41.4070 H   0  0  0  0  0  0  0  0  0  0  0  0
   36.8350   30.1100   38.7950 C   0  0  0  0  0  0  0  0  0  0  0  0
   36.6530   30.0580   40.1710 C   0  0  0  0  0  0  0  0  0  0  0  0
   36.7840   31.2790   40.8350 C   0  0  0  0  0  0  0  0  0  0  0  0
   37.0690   32.3940   40.1240 N   0  0  0  0  0  0  0  0  0  0  0  0
   37.2350   32.3900   38.8010 C   0  0  0  0  0  0  0  0  0  0  0  0
   37.1150   31.2350   38.1350 N   0  0  0  0  0  0  0  0  0  0  0  0
   36.7690   29.2480   38.1220 H   0  0  0  0  0  0  0  0  0  0  0  0
   36.6520   31.3070   41.9050 H   0  0  0  0  0  0  0  0  0  0  0  0
   37.4580   33.3610   38.3800 H   0  0  0  0  0  0  0  0  0  0  0  0
   35.9650   27.5300   43.3430 F   0  0  0  0  0  0  0  0  0  0  0  0
   37.2040   27.7450   42.8460 C   0  0  0  0  0  0  0  0  0  0  0  0
   37.4910   28.3440   41.6340 C   0  0  0  0  0  0  0  0  0  0  0  0
   38.8230   28.4760   41.2980 C   0  0  0  0  0  0  0  0  0  0  0  0
   39.0670   28.9320   40.3710 H   0  0  0  0  0  0  0  0  0  0  0  0
   39.8410   28.0310   42.1320 C   0  0  0  0  0  0  0  0  0  0  0  0
   40.8590   28.1800   41.7790 H   0  0  0  0  0  0  0  0  0  0  0  0
   39.5290   27.4470   43.3170 C   0  0  0  0  0  3  0  0  0  0  0  0
   38.2190   27.3010   43.6790 C   0  0  0  0  0  3  0  0  0  0  0  0
   36.0940   27.7760   39.7060 C   0  0  0  0  0  0  0  0  0  0  0  0
   37.0100   27.6820   39.0910 H   0  0  0  0  0  0  0  0  0  0  0  0
   35.8650   26.7840   40.1460 H   0  0  0  0  0  0  0  0  0  0  0  0
   35.2930   28.1520   39.0510 H   0  0  0  0  0  0  0  0  0  0  0  0
  1  2  1  1  0  0  0
  1 14  1  0  0  0  0
  3  4  1  0  0  0  0
  4  1  1  0  0  0  0
  4  5  2  0  0  0  0
  5 10  1  0  0  0  0
  6  5  1  0  0  0  0
  7  6  2  0  0  0  0
  8  3  2  0  0  0  0
  8  7  1  0  0  0  0
  9  3  1  0  0  0  0
 11  7  1  0  0  0  0
 13 12  1  0  0  0  0
 13 20  1  0  0  0  0
 14 13  2  0  0  0  0
 15 14  1  0  0  0  0
 15 17  2  0  0  0  0
 16 15  1  0  0  0  0
 17 19  1  0  0  0  0
 18 17  1  0  0  0  0
 19 20  2  0  0  0  0
 21 23  1  0  0  0  0
 21  1  1  0  0  0  0
 22 21  1  0  0  0  0
 24 21  1  0  0  0  0
M  END
>  <minimizedAffinity>
-4.56611061

$$$$

 OpenBabel03252502373D

 24 25  0  0  1  0  0  0  0  0999 V2000
   35.4430   29.3630   40.5750 C   0  0  2  0  0  0  0  0  0  0  0  0
   34.9740   29.7090   41.5240 H   0  0  0  0  0  0  0  0  0  0  0  0
   36.5340   30.4690   38.6830 C   0  0  0  0  0  0  0  0  0  0  0  0
   36.2650   30.4280   40.0450 C   0  0  0  0  0  0  0  0  0  0  0  0
   36.8350   31.4590   40.7950 C   0  0  0  0  0  0  0  0  0  0  0  0
   37.5830   32.3980   40.1710 N   0  0  0  0  0  0  0  0  0  0  0  0
   37.8110   32.3920   38.8570 C   0  0  0  0  0  0  0  0  0  0  0  0
   37.2780   31.4160   38.1100 N   0  0  0  0  0  0  0  0  0  0  0  0
   36.1670   29.7410   37.9510 H   0  0  0  0  0  0  0  0  0  0  0  0
   36.6630   31.4860   41.8590 H   0  0  0  0  0  0  0  0  0  0  0  0
   38.4280   33.2100   38.5110 H   0  0  0  0  0  0  0  0  0  0  0  0
   36.8880   28.9170   43.0090 F   0  0  0  0  0  0  0  0  0  0  0  0
   36.9200   28.0190   41.9990 C   0  0  0  0  0  0  0  0  0  0  0  0
   36.2610   28.1420   40.7900 C   0  0  0  0  0  0  0  0  0  0  0  0
   36.4170   27.1160   39.8810 C   0  0  0  0  0  0  0  0  0  0  0  0
   35.9180   27.1910   38.9470 H   0  0  0  0  0  0  0  0  0  0  0  0
   37.1990   26.0020   40.1550 C   0  0  0  0  0  0  0  0  0  0  0  0
   37.2590   25.2470   39.3740 H   0  0  0  0  0  0  0  0  0  0  0  0
   37.8350   25.9060   41.3500 C   0  0  0  0  0  3  0  0  0  0  0  0
   37.7010   26.9070   42.2730 C   0  0  0  0  0  3  0  0  0  0  0  0
   34.3520   29.0680   39.5680 C   0  0  0  0  0  0  0  0  0  0  0  0
   34.8240   28.7450   38.6200 H   0  0  0  0  0  0  0  0  0  0  0  0
   33.7030   28.2470   39.9330 H   0  0  0  0  0  0  0  0  0  0  0  0
   33.7990   29.9970   39.3620 H   0  0  0  0  0  0  0  0  0  0  0  0
  1 14  1  0  0  0  0
  1  2  1  1  0  0  0
  3  4  1  0  0  0  0
  4  1  1  0  0  0  0
  4  5  2  0  0  0  0
  5 10  1  0  0  0  0
  6  5  1  0  0  0  0
  7  6  2  0  0  0  0
  8  3  2  0  0  0  0
  8  7  1  0  0  0  0
  9  3  1  0  0  0  0
 11  7  1  0  0  0  0
 13 20  1  0  0  0  0
 13 12  1  0  0  0  0
 14 13  2  0  0  0  0
 15 17  2  0  0  0  0
 15 14  1  0  0  0  0
 16 15  1  0  0  0  0
 17 19  1  0  0  0  0
 18 17  1  0  0  0  0
 19 20  2  0  0  0  0
 21 23  1  0  0  0  0
 21  1  1  0  0  0  0
 22 21  1  0  0  0  0
 24 21  1  0  0  0  0
M  END
>  <minimizedAffinity>
-4.55226803

$$$$

 OpenBabel03252502373D

 24 25  0  0  1  0  0  0  0  0999 V2000
   37.7180   26.8690   43.0100 C   0  0  2  0  0  0  0  0  0  0  0  0
   38.1370   26.1030   43.7000 H   0  0  0  0  0  0  0  0  0  0  0  0
   38.3810   29.2240   42.9070 C   0  0  0  0  0  0  0  0  0  0  0  0
   38.7210   27.8840   42.7740 C   0  0  0  0  0  0  0  0  0  0  0  0
   40.0480   27.6400   42.4140 C   0  0  0  0  0  0  0  0  0  0  0  0
   40.8870   28.6840   42.2260 N   0  0  0  0  0  0  0  0  0  0  0  0
   40.5090   29.9560   42.3670 C   0  0  0  0  0  0  0  0  0  0  0  0
   39.2430   30.2230   42.7110 N   0  0  0  0  0  0  0  0  0  0  0  0
   37.3860   29.5920   43.1820 H   0  0  0  0  0  0  0  0  0  0  0  0
   40.3770   26.6200   42.2960 H   0  0  0  0  0  0  0  0  0  0  0  0
   41.2960   30.6750   42.1810 H   0  0  0  0  0  0  0  0  0  0  0  0
   37.6190   24.0310   42.6330 F   0  0  0  0  0  0  0  0  0  0  0  0
   37.2740   24.8830   41.6420 C   0  0  0  0  0  0  0  0  0  0  0  0
   37.2890   26.2620   41.7250 C   0  0  0  0  0  0  0  0  0  0  0  0
   36.9010   26.9640   40.6020 C   0  0  0  0  0  0  0  0  0  0  0  0
   36.9040   28.0250   40.6440 H   0  0  0  0  0  0  0  0  0  0  0  0
   36.5100   26.3250   39.4330 C   0  0  0  0  0  0  0  0  0  0  0  0
   36.2210   26.9650   38.6020 H   0  0  0  0  0  0  0  0  0  0  0  0
   36.5040   24.9690   39.3790 C   0  0  0  0  0  3  0  0  0  0  0  0
   36.8840   24.2440   40.4750 C   0  0  0  0  0  3  0  0  0  0  0  0
   36.5310   27.5310   43.6770 C   0  0  0  0  0  0  0  0  0  0  0  0
   36.1300   28.3070   42.9960 H   0  0  0  0  0  0  0  0  0  0  0  0
   35.7310   26.7880   43.8670 H   0  0  0  0  0  0  0  0  0  0  0  0
   36.8740   28.0390   44.5910 H   0  0  0  0  0  0  0  0  0  0  0  0
  1 21  1  0  0  0  0
  1  2  1  1  0  0  0
  3  9  1  0  0  0  0
  4  3  1  0  0  0  0
  4  1  1  0  0  0  0
  5  4  2  0  0  0  0
  6  7  2  0  0  0  0
  6  5  1  0  0  0  0
  7  8  1  0  0  0  0
  8  3  2  0  0  0  0
 10  5  1  0  0  0  0
 11  7  1  0  0  0  0
 13 14  1  0  0  0  0
 13 12  1  0  0  0  0
 14  1  1  0  0  0  0
 15 16  1  0  0  0  0
 15 14  2  0  0  0  0
 17 15  1  0  0  0  0
 18 17  1  0  0  0  0
 19 17  2  0  0  0  0
 19 20  1  0  0  0  0
 20 13  2  0  0  0  0
 21 23  1  0  0  0  0
 21 24  1  0  0  0  0
 22 21  1  0  0  0  0
M  END
>  <minimizedAffinity>
-4.54319191

$$$$

 OpenBabel03252502373D

 24 25  0  0  1  0  0  0  0  0999 V2000
   36.0430   30.3120   40.7640 C   0  0  2  0  0  0  0  0  0  0  0  0
   35.0870   30.5350   41.2910 H   0  0  0  0  0  0  0  0  0  0  0  0
   38.0340   29.8300   42.1050 C   0  0  0  0  0  0  0  0  0  0  0  0
   36.8220   29.4030   41.5770 C   0  0  0  0  0  0  0  0  0  0  0  0
   36.4620   28.0930   41.8960 C   0  0  0  0  0  0  0  0  0  0  0  0
   37.2850   27.3490   42.6710 N   0  0  0  0  0  0  0  0  0  0  0  0
   38.4400   27.8070   43.1550 C   0  0  0  0  0  0  0  0  0  0  0  0
   38.8140   29.0600   42.8660 N   0  0  0  0  0  0  0  0  0  0  0  0
   38.4660   30.8250   41.9540 H   0  0  0  0  0  0  0  0  0  0  0  0
   35.5310   27.7010   41.5190 H   0  0  0  0  0  0  0  0  0  0  0  0
   38.9840   27.0910   43.7560 H   0  0  0  0  0  0  0  0  0  0  0  0
   33.5170   29.1570   40.0600 F   0  0  0  0  0  0  0  0  0  0  0  0
   34.5430   29.1880   39.1820 C   0  0  0  0  0  0  0  0  0  0  0  0
   35.7960   29.7200   39.4260 C   0  0  0  0  0  0  0  0  0  0  0  0
   36.7160   29.6580   38.3990 C   0  0  0  0  0  0  0  0  0  0  0  0
   37.6840   30.0620   38.5650 H   0  0  0  0  0  0  0  0  0  0  0  0
   36.4110   29.0880   37.1700 C   0  0  0  0  0  0  0  0  0  0  0  0
   37.2040   29.0880   36.4250 H   0  0  0  0  0  0  0  0  0  0  0  0
   35.1730   28.5740   36.9580 C   0  0  0  0  0  3  0  0  0  0  0  0
   34.2380   28.6190   37.9550 C   0  0  0  0  0  3  0  0  0  0  0  0
   36.8290   31.5960   40.6120 C   0  0  0  0  0  0  0  0  0  0  0  0
   37.7870   31.3650   40.1070 H   0  0  0  0  0  0  0  0  0  0  0  0
   36.2690   32.3190   39.9850 H   0  0  0  0  0  0  0  0  0  0  0  0
   37.0690   31.9870   41.6120 H   0  0  0  0  0  0  0  0  0  0  0  0
  1  2  1  1  0  0  0
  1  4  1  0  0  0  0
  3  8  1  0  0  0  0
  4  5  1  0  0  0  0
  4  3  2  0  0  0  0
  5  6  2  0  0  0  0
  6  7  1  0  0  0  0
  7 11  1  0  0  0  0
  8  7  2  0  0  0  0
  9  3  1  0  0  0  0
 10  5  1  0  0  0  0
 13 14  1  0  0  0  0
 13 12  1  0  0  0  0
 14  1  1  0  0  0  0
 15 16  1  0  0  0  0
 15 14  2  0  0  0  0
 17 15  1  0  0  0  0
 18 17  1  0  0  0  0
 19 17  2  0  0  0  0
 19 20  1  0  0  0  0
 20 13  2  0  0  0  0
 21  1  1  0  0  0  0
 21 24  1  0  0  0  0
 22 21  1  0  0  0  0
 23 21  1  0  0  0  0
M  END
>  <minimizedAffinity>
-4.49695826

$$$$

 OpenBabel03252502373D

 24 25  0  0  1  0  0  0  0  0999 V2000
   36.1230   28.8490   39.7440 C   0  0  2  0  0  0  0  0  0  0  0  0
   36.1370   28.1170   38.9040 H   0  0  0  0  0  0  0  0  0  0  0  0
   38.2670   28.1170   40.6710 C   0  0  0  0  0  0  0  0  0  0  0  0
   36.9030   28.3160   40.8390 C   0  0  0  0  0  0  0  0  0  0  0  0
   36.4020   27.9730   42.0960 C   0  0  0  0  0  0  0  0  0  0  0  0
   37.2450   27.4860   43.0360 N   0  0  0  0  0  0  0  0  0  0  0  0
   38.5500   27.3140   42.8240 C   0  0  0  0  0  0  0  0  0  0  0  0
   39.0610   27.6340   41.6280 N   0  0  0  0  0  0  0  0  0  0  0  0
   38.8220   28.3330   39.7510 H   0  0  0  0  0  0  0  0  0  0  0  0
   35.3500   28.1050   42.2920 H   0  0  0  0  0  0  0  0  0  0  0  0
   39.0890   26.9160   43.6730 H   0  0  0  0  0  0  0  0  0  0  0  0
   36.0750   31.1300   41.4760 F   0  0  0  0  0  0  0  0  0  0  0  0
   36.5940   31.2060   40.2300 C   0  0  0  0  0  0  0  0  0  0  0  0
   36.6620   30.1660   39.3220 C   0  0  0  0  0  0  0  0  0  0  0  0
   37.2310   30.4390   38.0950 C   0  0  0  0  0  0  0  0  0  0  0  0
   37.2940   29.6540   37.3830 H   0  0  0  0  0  0  0  0  0  0  0  0
   37.7160   31.6990   37.7720 C   0  0  0  0  0  0  0  0  0  0  0  0
   38.1460   31.8150   36.7790 H   0  0  0  0  0  0  0  0  0  0  0  0
   37.6370   32.7020   38.6830 C   0  0  0  0  0  3  0  0  0  0  0  0
   37.0790   32.4640   39.9090 C   0  0  0  0  0  3  0  0  0  0  0  0
   34.6970   29.0170   40.2220 C   0  0  0  0  0  0  0  0  0  0  0  0
   34.6900   29.7280   41.0710 H   0  0  0  0  0  0  0  0  0  0  0  0
   34.0650   29.4330   39.4130 H   0  0  0  0  0  0  0  0  0  0  0  0
   34.3320   28.0490   40.6000 H   0  0  0  0  0  0  0  0  0  0  0  0
  1  2  1  6  0  0  0
  1 21  1  0  0  0  0
  1  4  1  0  0  0  0
  3  4  2  0  0  0  0
  3  8  1  0  0  0  0
  4  5  1  0  0  0  0
  5 10  1  0  0  0  0
  5  6  2  0  0  0  0
  7  6  1  0  0  0  0
  7 11  1  0  0  0  0
  8  7  2  0  0  0  0
  9  3  1  0  0  0  0
 13 12  1  0  0  0  0
 14  1  1  0  0  0  0
 14 13  2  0  0  0  0
 15 14  1  0  0  0  0
 16 15  1  0  0  0  0
 17 15  2  0  0  0  0
 17 19  1  0  0  0  0
 18 17  1  0  0  0  0
 19 20  2  0  0  0  0
 20 13  1  0  0  0  0
 21 24  1  0  0  0  0
 21 22  1  0  0  0  0
 23 21  1  0  0  0  0
M  END
>  <minimizedAffinity>
-4.4586978

$$$$

 OpenBabel03252502373D

 24 25  0  0  1  0  0  0  0  0999 V2000
   36.5630   27.7210   42.2210 C   0  0  2  0  0  0  0  0  0  0  0  0
   35.4770   27.4850   42.1490 H   0  0  0  0  0  0  0  0  0  0  0  0
   38.3220   26.0180   42.2550 C   0  0  0  0  0  0  0  0  0  0  0  0
   37.3110   26.6730   41.5620 C   0  0  0  0  0  0  0  0  0  0  0  0
   37.1100   26.2370   40.2510 C   0  0  0  0  0  0  0  0  0  0  0  0
   37.8820   25.2420   39.7570 N   0  0  0  0  0  0  0  0  0  0  0  0
   38.8410   24.6440   40.4650 C   0  0  0  0  0  0  0  0  0  0  0  0
   39.0580   25.0400   41.7260 N   0  0  0  0  0  0  0  0  0  0  0  0
   38.6120   26.2340   43.2890 H   0  0  0  0  0  0  0  0  0  0  0  0
   36.3390   26.7040   39.6590 H   0  0  0  0  0  0  0  0  0  0  0  0
   39.3690   23.8670   39.9290 H   0  0  0  0  0  0  0  0  0  0  0  0
   34.6580   29.1220   40.6030 F   0  0  0  0  0  0  0  0  0  0  0  0
   35.8860   29.6340   40.8430 C   0  0  0  0  0  0  0  0  0  0  0  0
   36.8720   29.0360   41.6060 C   0  0  0  0  0  0  0  0  0  0  0  0
   38.0650   29.7160   41.7360 C   0  0  0  0  0  0  0  0  0  0  0  0
   38.8360   29.2750   42.3180 H   0  0  0  0  0  0  0  0  0  0  0  0
   38.2810   30.9470   41.1310 C   0  0  0  0  0  0  0  0  0  0  0  0
   39.2560   31.4040   41.2920 H   0  0  0  0  0  0  0  0  0  0  0  0
   37.2960   31.5110   40.3870 C   0  0  0  0  0  3  0  0  0  0  0  0
   36.1010   30.8630   40.2390 C   0  0  0  0  0  3  0  0  0  0  0  0
   36.9650   27.7370   43.6800 C   0  0  0  0  0  0  0  0  0  0  0  0
   38.0500   27.9510   43.7440 H   0  0  0  0  0  0  0  0  0  0  0  0
   36.4190   28.5360   44.2210 H   0  0  0  0  0  0  0  0  0  0  0  0
   36.7990   26.7360   44.1050 H   0  0  0  0  0  0  0  0  0  0  0  0
  1  2  1  6  0  0  0
  1 21  1  0  0  0  0
  3  9  1  0  0  0  0
  4  1  1  0  0  0  0
  4  3  2  0  0  0  0
  5  4  1  0  0  0  0
  6  5  2  0  0  0  0
  6  7  1  0  0  0  0
  7  8  2  0  0  0  0
  8  3  1  0  0  0  0
 10  5  1  0  0  0  0
 11  7  1  0  0  0  0
 12 13  1  0  0  0  0
 13 14  1  0  0  0  0
 14 15  2  0  0  0  0
 14  1  1  0  0  0  0
 15 16  1  0  0  0  0
 17 18  1  0  0  0  0
 17 15  1  0  0  0  0
 19 17  2  0  0  0  0
 20 19  1  0  0  0  0
 20 13  2  0  0  0  0
 21 22  1  0  0  0  0
 21 24  1  0  0  0  0
 21 23  1  0  0  0  0
M  END
>  <minimizedAffinity>
-4.43897009

$$$$

 OpenBabel03252502373D

 24 25  0  0  1  0  0  0  0  0999 V2000
   36.0060   29.7920   40.7690 C   0  0  2  0  0  0  0  0  0  0  0  0
   35.7130   30.6450   41.4230 H   0  0  0  0  0  0  0  0  0  0  0  0
   36.4520   30.2280   38.4010 C   0  0  0  0  0  0  0  0  0  0  0  0
   36.8760   30.2830   39.7230 C   0  0  0  0  0  0  0  0  0  0  0  0
   38.1450   30.8300   39.9180 C   0  0  0  0  0  0  0  0  0  0  0  0
   38.8560   31.2560   38.8490 N   0  0  0  0  0  0  0  0  0  0  0  0
   38.4020   31.1800   37.5970 C   0  0  0  0  0  0  0  0  0  0  0  0
   37.1880   30.6600   37.3770 N   0  0  0  0  0  0  0  0  0  0  0  0
   35.4870   29.8300   38.0710 H   0  0  0  0  0  0  0  0  0  0  0  0
   38.5330   30.9040   40.9220 H   0  0  0  0  0  0  0  0  0  0  0  0
   39.0890   31.5620   36.8530 H   0  0  0  0  0  0  0  0  0  0  0  0
   36.4010   27.1620   39.7040 F   0  0  0  0  0  0  0  0  0  0  0  0
   36.8300   27.4890   40.9430 C   0  0  0  0  0  0  0  0  0  0  0  0
   36.6870   28.7260   41.5450 C   0  0  0  0  0  0  0  0  0  0  0  0
   37.1930   28.8670   42.8210 C   0  0  0  0  0  0  0  0  0  0  0  0
   37.0940   29.8090   43.3010 H   0  0  0  0  0  0  0  0  0  0  0  0
   37.8200   27.8210   43.4840 C   0  0  0  0  0  0  0  0  0  0  0  0
   38.1860   28.0310   44.4870 H   0  0  0  0  0  0  0  0  0  0  0  0
   37.9470   26.6170   42.8700 C   0  0  0  0  0  3  0  0  0  0  0  0
   37.4560   26.4440   41.6050 C   0  0  0  0  0  3  0  0  0  0  0  0
   34.7620   29.2280   40.1170 C   0  0  0  0  0  0  0  0  0  0  0  0
   35.0600   28.3940   39.4510 H   0  0  0  0  0  0  0  0  0  0  0  0
   34.0700   28.8300   40.8860 H   0  0  0  0  0  0  0  0  0  0  0  0
   34.3060   30.0060   39.4870 H   0  0  0  0  0  0  0  0  0  0  0  0
  1  2  1  1  0  0  0
  1 14  1  0  0  0  0
  3  4  1  0  0  0  0
  4  5  2  0  0  0  0
  4  1  1  0  0  0  0
  5 10  1  0  0  0  0
  6  5  1  0  0  0  0
  7  6  2  0  0  0  0
  8  7  1  0  0  0  0
  8  3  2  0  0  0  0
  9  3  1  0  0  0  0
 11  7  1  0  0  0  0
 12 13  1  0  0  0  0
 13 14  2  0  0  0  0
 13 20  1  0  0  0  0
 14 15  1  0  0  0  0
 15 16  1  0  0  0  0
 15 17  2  0  0  0  0
 17 18  1  0  0  0  0
 19 17  1  0  0  0  0
 20 19  2  0  0  0  0
 21  1  1  0  0  0  0
 21 23  1  0  0  0  0
 22 21  1  0  0  0  0
 24 21  1  0  0  0  0
M  END
>  <minimizedAffinity>
-4.42350197

$$$$
