
 OpenBabel03252500403D

 21 22  0  0  0  0  0  0  0  0999 V2000
   37.6870   28.5210   43.6640 C   0  0  0  0  0  0  0  0  0  0  0  0
   38.3890   28.7480   44.4960 H   0  0  0  0  0  0  0  0  0  0  0  0
   36.6660   28.6080   44.0880 H   0  0  0  0  0  0  0  0  0  0  0  0
   37.9210   29.5550   42.6150 C   0  0  0  0  0  0  0  0  0  0  0  0
   39.1690   30.1650   42.5570 C   0  0  0  0  0  0  0  0  0  0  0  0
   39.3870   31.1380   41.5770 C   0  0  0  0  0  0  0  0  0  0  0  0
   38.3600   31.4260   40.7370 N   0  0  0  0  0  0  0  0  0  0  0  0
   37.1590   30.8120   40.8230 C   0  0  0  0  0  0  0  0  0  0  0  0
   36.9350   29.8740   41.7610 N   0  0  0  0  0  0  0  0  0  0  0  0
   39.9980   29.9640   43.1990 H   0  0  0  0  0  0  0  0  0  0  0  0
   40.3530   31.6510   41.4850 H   0  0  0  0  0  0  0  0  0  0  0  0
   36.4290   31.1320   40.0990 H   0  0  0  0  0  0  0  0  0  0  0  0
   40.2420   27.1800   43.6800 F   0  0  0  0  0  0  0  0  0  0  0  0
   39.1840   26.5200   43.1830 C   0  0  0  0  0  0  0  0  0  0  0  0
   37.9760   27.1570   43.1750 C   0  0  0  0  0  0  0  0  0  0  0  0
   36.9410   26.3820   42.6310 C   0  0  0  0  0  0  0  0  0  0  0  0
   35.9490   26.8580   42.6050 H   0  0  0  0  0  0  0  0  0  0  0  0
   37.0650   25.1200   42.1460 C   0  0  0  0  0  0  0  0  0  0  0  0
   36.1830   24.6300   41.7490 H   0  0  0  0  0  0  0  0  0  0  0  0
   38.3050   24.5260   42.1790 C   0  0  0  0  0  3  0  0  0  0  0  0
   39.3580   25.2410   42.7010 C   0  0  0  0  0  3  0  0  0  0  0  0
  1  3  1  0  0  0  0
  1  2  1  0  0  0  0
  4  1  1  0  0  0  0
  5  4  1  0  0  0  0
  5 10  1  0  0  0  0
  6  5  2  0  0  0  0
  7  8  2  0  0  0  0
  7  6  1  0  0  0  0
  8  9  1  0  0  0  0
  9  4  2  0  0  0  0
 11  6  1  0  0  0  0
 12  8  1  0  0  0  0
 14 13  1  0  0  0  0
 15 14  1  0  0  0  0
 15  1  1  0  0  0  0
 16 15  2  0  0  0  0
 17 16  1  0  0  0  0
 18 20  2  0  0  0  0
 18 16  1  0  0  0  0
 19 18  1  0  0  0  0
 20 21  1  0  0  0  0
 21 14  2  0  0  0  0
M  END
>  <minimizedAffinity>
-4.63191175

$$$$

 OpenBabel03252500403D

 21 22  0  0  0  0  0  0  0  0999 V2000
   36.5760   27.6160   42.9540 C   0  0  0  0  0  0  0  0  0  0  0  0
   36.6120   28.2150   43.8910 H   0  0  0  0  0  0  0  0  0  0  0  0
   35.5950   27.0980   42.9560 H   0  0  0  0  0  0  0  0  0  0  0  0
   36.6660   28.5860   41.8250 C   0  0  0  0  0  0  0  0  0  0  0  0
   36.2070   28.1880   40.5740 C   0  0  0  0  0  0  0  0  0  0  0  0
   36.2970   29.0950   39.5150 C   0  0  0  0  0  0  0  0  0  0  0  0
   36.8280   30.3170   39.7760 N   0  0  0  0  0  0  0  0  0  0  0  0
   37.2640   30.6700   41.0050 C   0  0  0  0  0  0  0  0  0  0  0  0
   37.1840   29.8080   42.0340 N   0  0  0  0  0  0  0  0  0  0  0  0
   35.7860   27.2380   40.3330 H   0  0  0  0  0  0  0  0  0  0  0  0
   35.9490   28.8340   38.5070 H   0  0  0  0  0  0  0  0  0  0  0  0
   37.6640   31.6680   41.0800 H   0  0  0  0  0  0  0  0  0  0  0  0
   36.6390   24.9730   41.8000 F   0  0  0  0  0  0  0  0  0  0  0  0
   37.7430   25.4190   42.4190 C   0  0  0  0  0  0  0  0  0  0  0  0
   37.7110   26.6700   42.9660 C   0  0  0  0  0  0  0  0  0  0  0  0
   38.9120   27.0360   43.5920 C   0  0  0  0  0  0  0  0  0  0  0  0
   38.9290   28.0370   44.0470 H   0  0  0  0  0  0  0  0  0  0  0  0
   40.0280   26.2680   43.6780 C   0  0  0  0  0  0  0  0  0  0  0  0
   40.8930   26.6690   44.1930 H   0  0  0  0  0  0  0  0  0  0  0  0
   40.0050   25.0160   43.1080 C   0  0  0  0  0  3  0  0  0  0  0  0
   38.8520   24.6040   42.4810 C   0  0  0  0  0  3  0  0  0  0  0  0
  1  3  1  0  0  0  0
  1 15  1  0  0  0  0
  1  2  1  0  0  0  0
  4  9  1  0  0  0  0
  4  1  1  0  0  0  0
  5  4  2  0  0  0  0
  6  7  2  0  0  0  0
  6  5  1  0  0  0  0
  7  8  1  0  0  0  0
  8 12  1  0  0  0  0
  8  9  2  0  0  0  0
 10  5  1  0  0  0  0
 11  6  1  0  0  0  0
 13 14  1  0  0  0  0
 14 21  2  0  0  0  0
 14 15  1  0  0  0  0
 15 16  2  0  0  0  0
 16 18  1  0  0  0  0
 16 17  1  0  0  0  0
 18 19  1  0  0  0  0
 20 18  2  0  0  0  0
 21 20  1  0  0  0  0
M  END
>  <minimizedAffinity>
-4.57113791

$$$$

 OpenBabel03252500403D

 21 22  0  0  0  0  0  0  0  0999 V2000
   37.7790   28.2080   43.6790 C   0  0  0  0  0  0  0  0  0  0  0  0
   38.3400   28.5040   44.5930 H   0  0  0  0  0  0  0  0  0  0  0  0
   36.7170   28.1140   43.9850 H   0  0  0  0  0  0  0  0  0  0  0  0
   37.9560   29.3140   42.6950 C   0  0  0  0  0  0  0  0  0  0  0  0
   39.1960   29.9390   42.6190 C   0  0  0  0  0  0  0  0  0  0  0  0
   39.3610   30.9790   41.7000 C   0  0  0  0  0  0  0  0  0  0  0  0
   38.2930   31.3150   40.9320 N   0  0  0  0  0  0  0  0  0  0  0  0
   37.1010   30.6860   41.0320 C   0  0  0  0  0  0  0  0  0  0  0  0
   36.9280   29.6830   41.9120 N   0  0  0  0  0  0  0  0  0  0  0  0
   40.0550   29.7020   43.2060 H   0  0  0  0  0  0  0  0  0  0  0  0
   40.3180   31.5070   41.5980 H   0  0  0  0  0  0  0  0  0  0  0  0
   36.3350   31.0480   40.3680 H   0  0  0  0  0  0  0  0  0  0  0  0
   36.5920   26.4360   41.7370 F   0  0  0  0  0  0  0  0  0  0  0  0
   37.7760   26.0920   42.2660 C   0  0  0  0  0  0  0  0  0  0  0  0
   38.3350   26.9310   43.1870 C   0  0  0  0  0  0  0  0  0  0  0  0
   39.5680   26.4770   43.6790 C   0  0  0  0  0  0  0  0  0  0  0  0
   40.0540   27.1240   44.4250 H   0  0  0  0  0  0  0  0  0  0  0  0
   40.1920   25.3270   43.3170 C   0  0  0  0  0  0  0  0  0  0  0  0
   41.1450   25.0880   43.7770 H   0  0  0  0  0  0  0  0  0  0  0  0
   39.5830   24.5190   42.3850 C   0  0  0  0  0  3  0  0  0  0  0  0
   38.3720   24.9150   41.8680 C   0  0  0  0  0  3  0  0  0  0  0  0
  1  3  1  0  0  0  0
  1  2  1  0  0  0  0
  4  1  1  0  0  0  0
  5  4  1  0  0  0  0
  5 10  1  0  0  0  0
  6  5  2  0  0  0  0
  7  8  2  0  0  0  0
  7  6  1  0  0  0  0
  8  9  1  0  0  0  0
  9  4  2  0  0  0  0
 11  6  1  0  0  0  0
 12  8  1  0  0  0  0
 13 14  1  0  0  0  0
 14 15  1  0  0  0  0
 15 16  2  0  0  0  0
 15  1  1  0  0  0  0
 16 17  1  0  0  0  0
 18 16  1  0  0  0  0
 18 19  1  0  0  0  0
 20 18  2  0  0  0  0
 21 14  2  0  0  0  0
 21 20  1  0  0  0  0
M  END
>  <minimizedAffinity>
-4.56565762

$$$$

 OpenBabel03252500403D

 21 22  0  0  0  0  0  0  0  0999 V2000
   36.7130   27.3650   43.0180 C   0  0  0  0  0  0  0  0  0  0  0  0
   35.6860   26.9610   43.1490 H   0  0  0  0  0  0  0  0  0  0  0  0
   37.0600   27.6630   44.0290 H   0  0  0  0  0  0  0  0  0  0  0  0
   37.5430   26.2520   42.4740 C   0  0  0  0  0  0  0  0  0  0  0  0
   36.9050   25.0720   42.1070 C   0  0  0  0  0  0  0  0  0  0  0  0
   37.6840   24.0260   41.6020 C   0  0  0  0  0  0  0  0  0  0  0  0
   39.0220   24.2310   41.4990 N   0  0  0  0  0  0  0  0  0  0  0  0
   39.6080   25.3920   41.8650 C   0  0  0  0  0  0  0  0  0  0  0  0
   38.8720   26.4060   42.3530 N   0  0  0  0  0  0  0  0  0  0  0  0
   35.8580   24.8760   42.1740 H   0  0  0  0  0  0  0  0  0  0  0  0
   37.2330   23.0730   41.2960 H   0  0  0  0  0  0  0  0  0  0  0  0
   40.6760   25.4260   41.7350 H   0  0  0  0  0  0  0  0  0  0  0  0
   38.3430   29.7450   43.0800 F   0  0  0  0  0  0  0  0  0  0  0  0
   37.4160   29.6390   42.1150 C   0  0  0  0  0  0  0  0  0  0  0  0
   36.6440   28.5120   42.0890 C   0  0  0  0  0  0  0  0  0  0  0  0
   35.7060   28.5030   41.0460 C   0  0  0  0  0  0  0  0  0  0  0  0
   35.0630   27.6130   40.9870 H   0  0  0  0  0  0  0  0  0  0  0  0
   35.5340   29.4870   40.1250 C   0  0  0  0  0  0  0  0  0  0  0  0
   34.7680   29.3580   39.3690 H   0  0  0  0  0  0  0  0  0  0  0  0
   36.3390   30.6000   40.2000 C   0  0  0  0  0  3  0  0  0  0  0  0
   37.2770   30.6620   41.2030 C   0  0  0  0  0  3  0  0  0  0  0  0
  1  2  1  0  0  0  0
  1  3  1  0  0  0  0
  4  1  1  0  0  0  0
  5 10  1  0  0  0  0
  5  4  2  0  0  0  0
  6  5  1  0  0  0  0
  7  6  2  0  0  0  0
  7  8  1  0  0  0  0
  8  9  2  0  0  0  0
  9  4  1  0  0  0  0
 11  6  1  0  0  0  0
 12  8  1  0  0  0  0
 14 13  1  0  0  0  0
 15 14  1  0  0  0  0
 15  1  1  0  0  0  0
 16 15  2  0  0  0  0
 17 16  1  0  0  0  0
 18 20  2  0  0  0  0
 18 16  1  0  0  0  0
 19 18  1  0  0  0  0
 20 21  1  0  0  0  0
 21 14  2  0  0  0  0
M  END
>  <minimizedAffinity>
-4.55705166

$$$$

 OpenBabel03252500403D

 21 22  0  0  0  0  0  0  0  0999 V2000
   35.6430   29.5540   40.6120 C   0  0  0  0  0  0  0  0  0  0  0  0
   34.9610   28.8050   40.1510 H   0  0  0  0  0  0  0  0  0  0  0  0
   35.0010   30.2220   41.2220 H   0  0  0  0  0  0  0  0  0  0  0  0
   36.5910   28.7910   41.4730 C   0  0  0  0  0  0  0  0  0  0  0  0
   36.7990   27.4450   41.1950 C   0  0  0  0  0  0  0  0  0  0  0  0
   37.6850   26.7280   42.0060 C   0  0  0  0  0  0  0  0  0  0  0  0
   38.2920   27.3970   43.0190 N   0  0  0  0  0  0  0  0  0  0  0  0
   38.0660   28.7080   43.2600 C   0  0  0  0  0  0  0  0  0  0  0  0
   37.2160   29.4090   42.4890 N   0  0  0  0  0  0  0  0  0  0  0  0
   36.3410   26.8870   40.4090 H   0  0  0  0  0  0  0  0  0  0  0  0
   37.8870   25.6630   41.8310 H   0  0  0  0  0  0  0  0  0  0  0  0
   38.6080   29.1200   44.0950 H   0  0  0  0  0  0  0  0  0  0  0  0
   36.8640   32.1620   40.7770 F   0  0  0  0  0  0  0  0  0  0  0  0
   36.9170   31.5120   39.6030 C   0  0  0  0  0  0  0  0  0  0  0  0
   36.3360   30.2780   39.5270 C   0  0  0  0  0  0  0  0  0  0  0  0
   36.4430   29.6890   38.2590 C   0  0  0  0  0  0  0  0  0  0  0  0
   35.9880   28.6930   38.1530 H   0  0  0  0  0  0  0  0  0  0  0  0
   37.0490   30.2410   37.1760 C   0  0  0  0  0  0  0  0  0  0  0  0
   37.0610   29.6800   36.2480 H   0  0  0  0  0  0  0  0  0  0  0  0
   37.6180   31.4860   37.3100 C   0  0  0  0  0  3  0  0  0  0  0  0
   37.5420   32.1110   38.5330 C   0  0  0  0  0  3  0  0  0  0  0  0
  1  3  1  0  0  0  0
  1  4  1  0  0  0  0
  2  1  1  0  0  0  0
  4  9  1  0  0  0  0
  5  4  2  0  0  0  0
  5  6  1  0  0  0  0
  6  7  2  0  0  0  0
  7  8  1  0  0  0  0
  8 12  1  0  0  0  0
  9  8  2  0  0  0  0
 10  5  1  0  0  0  0
 11  6  1  0  0  0  0
 14 13  1  0  0  0  0
 15 14  1  0  0  0  0
 15  1  1  0  0  0  0
 16 15  2  0  0  0  0
 17 16  1  0  0  0  0
 18 20  2  0  0  0  0
 18 16  1  0  0  0  0
 19 18  1  0  0  0  0
 20 21  1  0  0  0  0
 21 14  2  0  0  0  0
M  END
>  <minimizedAffinity>
-4.49530411

$$$$

 OpenBabel03252500403D

 21 22  0  0  0  0  0  0  0  0999 V2000
   36.4930   27.7700   42.7150 C   0  0  0  0  0  0  0  0  0  0  0  0
   36.6020   28.3540   43.6550 H   0  0  0  0  0  0  0  0  0  0  0  0
   35.4490   27.3930   42.7040 H   0  0  0  0  0  0  0  0  0  0  0  0
   36.7300   28.7220   41.5920 C   0  0  0  0  0  0  0  0  0  0  0  0
   36.2390   28.3940   40.3330 C   0  0  0  0  0  0  0  0  0  0  0  0
   36.4660   29.2840   39.2790 C   0  0  0  0  0  0  0  0  0  0  0  0
   37.1550   30.4220   39.5540 N   0  0  0  0  0  0  0  0  0  0  0  0
   37.6170   30.7080   40.7910 C   0  0  0  0  0  0  0  0  0  0  0  0
   37.4070   29.8610   41.8140 N   0  0  0  0  0  0  0  0  0  0  0  0
   35.6950   27.5110   40.0810 H   0  0  0  0  0  0  0  0  0  0  0  0
   36.1000   29.0760   38.2660 H   0  0  0  0  0  0  0  0  0  0  0  0
   38.1490   31.6410   40.8760 H   0  0  0  0  0  0  0  0  0  0  0  0
   39.2080   27.9060   43.6800 F   0  0  0  0  0  0  0  0  0  0  0  0
   38.7690   26.7350   43.1910 C   0  0  0  0  0  0  0  0  0  0  0  0
   37.4840   26.6740   42.7340 C   0  0  0  0  0  0  0  0  0  0  0  0
   37.1270   25.4090   42.2420 C   0  0  0  0  0  0  0  0  0  0  0  0
   36.0990   25.3150   41.8620 H   0  0  0  0  0  0  0  0  0  0  0  0
   37.9340   24.3190   42.1980 C   0  0  0  0  0  0  0  0  0  0  0  0
   37.5360   23.3960   41.7880 H   0  0  0  0  0  0  0  0  0  0  0  0
   39.2200   24.4370   42.6720 C   0  0  0  0  0  3  0  0  0  0  0  0
   39.6240   25.6560   43.1670 C   0  0  0  0  0  3  0  0  0  0  0  0
  1 15  1  0  0  0  0
  1  2  1  0  0  0  0
  3  1  1  0  0  0  0
  4  9  1  0  0  0  0
  4  1  1  0  0  0  0
  5  4  2  0  0  0  0
  6  7  2  0  0  0  0
  6  5  1  0  0  0  0
  7  8  1  0  0  0  0
  8 12  1  0  0  0  0
  8  9  2  0  0  0  0
 10  5  1  0  0  0  0
 11  6  1  0  0  0  0
 14 13  1  0  0  0  0
 15 14  2  0  0  0  0
 16 15  1  0  0  0  0
 17 16  1  0  0  0  0
 18 16  2  0  0  0  0
 18 20  1  0  0  0  0
 19 18  1  0  0  0  0
 20 21  2  0  0  0  0
 21 14  1  0  0  0  0
M  END
>  <minimizedAffinity>
-4.45850658

$$$$

 OpenBabel03252500403D

 21 22  0  0  0  0  0  0  0  0999 V2000
   35.3340   29.2090   40.5580 C   0  0  0  0  0  0  0  0  0  0  0  0
   34.7800   29.6320   41.4240 H   0  0  0  0  0  0  0  0  0  0  0  0
   34.5650   28.8870   39.8260 H   0  0  0  0  0  0  0  0  0  0  0  0
   36.1680   30.3150   40.0050 C   0  0  0  0  0  0  0  0  0  0  0  0
   36.4750   30.2960   38.6490 C   0  0  0  0  0  0  0  0  0  0  0  0
   37.2610   31.3300   38.1320 C   0  0  0  0  0  0  0  0  0  0  0  0
   37.6750   32.2960   38.9920 N   0  0  0  0  0  0  0  0  0  0  0  0
   37.3560   32.2830   40.3050 C   0  0  0  0  0  0  0  0  0  0  0  0
   36.6020   31.2940   40.8160 N   0  0  0  0  0  0  0  0  0  0  0  0
   36.1680   29.5550   37.9460 H   0  0  0  0  0  0  0  0  0  0  0  0
   37.5330   31.3650   37.0690 H   0  0  0  0  0  0  0  0  0  0  0  0
   37.7480   33.1060   40.8790 H   0  0  0  0  0  0  0  0  0  0  0  0
   36.2950   26.9760   39.0030 F   0  0  0  0  0  0  0  0  0  0  0  0
   36.6140   27.0240   40.3060 C   0  0  0  0  0  0  0  0  0  0  0  0
   36.1570   28.0810   41.0400 C   0  0  0  0  0  0  0  0  0  0  0  0
   36.5430   28.0320   42.3880 C   0  0  0  0  0  0  0  0  0  0  0  0
   36.1950   28.8650   43.0170 H   0  0  0  0  0  0  0  0  0  0  0  0
   37.2930   27.0570   42.9640 C   0  0  0  0  0  0  0  0  0  0  0  0
   37.5200   27.1360   44.0210 H   0  0  0  0  0  0  0  0  0  0  0  0
   37.7270   26.0160   42.1770 C   0  0  0  0  0  3  0  0  0  0  0  0
   37.3780   26.0130   40.8460 C   0  0  0  0  0  3  0  0  0  0  0  0
  1 15  1  0  0  0  0
  1  2  1  0  0  0  0
  3  1  1  0  0  0  0
  4  1  1  0  0  0  0
  4  9  1  0  0  0  0
  5  4  2  0  0  0  0
  6  5  1  0  0  0  0
  6  7  2  0  0  0  0
  7  8  1  0  0  0  0
  8  9  2  0  0  0  0
  8 12  1  0  0  0  0
 10  5  1  0  0  0  0
 11  6  1  0  0  0  0
 13 14  1  0  0  0  0
 14 21  2  0  0  0  0
 14 15  1  0  0  0  0
 15 16  2  0  0  0  0
 16 18  1  0  0  0  0
 16 17  1  0  0  0  0
 18 19  1  0  0  0  0
 20 18  2  0  0  0  0
 21 20  1  0  0  0  0
M  END
>  <minimizedAffinity>
-4.45244074

$$$$

 OpenBabel03252500403D

 21 22  0  0  0  0  0  0  0  0999 V2000
   36.2030   30.5940   41.0480 C   0  0  0  0  0  0  0  0  0  0  0  0
   36.4390   31.5900   41.4830 H   0  0  0  0  0  0  0  0  0  0  0  0
   35.1060   30.4620   41.1570 H   0  0  0  0  0  0  0  0  0  0  0  0
   36.5940   30.6530   39.6110 C   0  0  0  0  0  0  0  0  0  0  0  0
   37.3500   31.7360   39.1760 C   0  0  0  0  0  0  0  0  0  0  0  0
   37.7130   31.7940   37.8270 C   0  0  0  0  0  0  0  0  0  0  0  0
   37.3030   30.7810   37.0220 N   0  0  0  0  0  0  0  0  0  0  0  0
   36.5700   29.7430   37.4790 C   0  0  0  0  0  0  0  0  0  0  0  0
   36.2130   29.6740   38.7740 N   0  0  0  0  0  0  0  0  0  0  0  0
   37.6880   32.5490   39.7800 H   0  0  0  0  0  0  0  0  0  0  0  0
   38.3090   32.6260   37.4310 H   0  0  0  0  0  0  0  0  0  0  0  0
   36.3080   29.0060   36.7380 H   0  0  0  0  0  0  0  0  0  0  0  0
   38.8550   30.8730   42.1480 F   0  0  0  0  0  0  0  0  0  0  0  0
   38.2220   29.7010   42.3140 C   0  0  0  0  0  0  0  0  0  0  0  0
   36.9670   29.5710   41.7910 C   0  0  0  0  0  0  0  0  0  0  0  0
   36.3970   28.3090   42.0170 C   0  0  0  0  0  0  0  0  0  0  0  0
   35.3850   28.1600   41.6120 H   0  0  0  0  0  0  0  0  0  0  0  0
   36.9850   27.2800   42.6800 C   0  0  0  0  0  0  0  0  0  0  0  0
   36.4350   26.3510   42.7840 H   0  0  0  0  0  0  0  0  0  0  0  0
   38.2500   27.4670   43.1860 C   0  0  0  0  0  3  0  0  0  0  0  0
   38.8570   28.6860   42.9940 C   0  0  0  0  0  3  0  0  0  0  0  0
  1  3  1  0  0  0  0
  1  2  1  0  0  0  0
  1 15  1  0  0  0  0
  4  1  1  0  0  0  0
  5  4  1  0  0  0  0
  5 10  1  0  0  0  0
  6  5  2  0  0  0  0
  7  8  2  0  0  0  0
  7  6  1  0  0  0  0
  8  9  1  0  0  0  0
  9  4  2  0  0  0  0
 11  6  1  0  0  0  0
 12  8  1  0  0  0  0
 13 14  1  0  0  0  0
 14 21  1  0  0  0  0
 15 16  1  0  0  0  0
 15 14  2  0  0  0  0
 16 18  2  0  0  0  0
 17 16  1  0  0  0  0
 18 19  1  0  0  0  0
 18 20  1  0  0  0  0
 21 20  2  0  0  0  0
M  END
>  <minimizedAffinity>
-4.4399128

$$$$

 OpenBabel03252500403D

 21 22  0  0  0  0  0  0  0  0999 V2000
   39.2310   29.7740   40.5810 C   0  0  0  0  0  0  0  0  0  0  0  0
   39.1970   29.2570   39.5970 H   0  0  0  0  0  0  0  0  0  0  0  0
   40.2980   29.7860   40.8870 H   0  0  0  0  0  0  0  0  0  0  0  0
   38.7240   31.1570   40.3530 C   0  0  0  0  0  0  0  0  0  0  0  0
   37.6130   31.3270   39.5350 C   0  0  0  0  0  0  0  0  0  0  0  0
   37.1400   32.6240   39.3170 C   0  0  0  0  0  0  0  0  0  0  0  0
   37.7990   33.6440   39.9240 N   0  0  0  0  0  0  0  0  0  0  0  0
   38.8770   33.4420   40.7150 C   0  0  0  0  0  0  0  0  0  0  0  0
   39.3430   32.1990   40.9330 N   0  0  0  0  0  0  0  0  0  0  0  0
   37.0710   30.5510   39.0420 H   0  0  0  0  0  0  0  0  0  0  0  0
   36.2670   32.8160   38.6800 H   0  0  0  0  0  0  0  0  0  0  0  0
   39.3090   34.3340   41.1360 H   0  0  0  0  0  0  0  0  0  0  0  0
   38.9860   30.2240   43.4200 F   0  0  0  0  0  0  0  0  0  0  0  0
   38.2650   29.2330   42.8730 C   0  0  0  0  0  0  0  0  0  0  0  0
   38.3850   29.0200   41.5290 C   0  0  0  0  0  0  0  0  0  0  0  0
   37.5950   27.9600   41.0600 C   0  0  0  0  0  0  0  0  0  0  0  0
   37.6610   27.7530   39.9810 H   0  0  0  0  0  0  0  0  0  0  0  0
   36.7750   27.1860   41.8170 C   0  0  0  0  0  0  0  0  0  0  0  0
   36.2190   26.3920   41.3300 H   0  0  0  0  0  0  0  0  0  0  0  0
   36.6940   27.4440   43.1650 C   0  0  0  0  0  3  0  0  0  0  0  0
   37.4470   28.4740   43.6800 C   0  0  0  0  0  3  0  0  0  0  0  0
  1  3  1  0  0  0  0
  1 15  1  0  0  0  0
  2  1  1  0  0  0  0
  4  1  1  0  0  0  0
  4  9  1  0  0  0  0
  5  4  2  0  0  0  0
  6  5  1  0  0  0  0
  6  7  2  0  0  0  0
  7  8  1  0  0  0  0
  8  9  2  0  0  0  0
  8 12  1  0  0  0  0
 10  5  1  0  0  0  0
 11  6  1  0  0  0  0
 14 13  1  0  0  0  0
 14 21  1  0  0  0  0
 15 14  2  0  0  0  0
 16 15  1  0  0  0  0
 16 18  2  0  0  0  0
 17 16  1  0  0  0  0
 18 20  1  0  0  0  0
 19 18  1  0  0  0  0
 20 21  2  0  0  0  0
M  END
>  <minimizedAffinity>
-4.41370296

$$$$
