
 OpenBabel03252509293D

 21 22  0  0  0  0  0  0  0  0999 V2000
   46.7390   35.0620   42.0300 C   0  0  0  0  0  0  0  0  0  0  0  0
   47.8420   34.9380   42.2290 H   0  0  0  0  0  0  0  0  0  0  0  0
   46.5030   36.0210   41.5630 H   0  0  0  0  0  0  0  0  0  0  0  0
   44.4930   35.8560   44.8880 C   0  0  0  0  0  0  0  0  0  0  0  0
   45.1450   35.9420   43.6420 C   0  0  0  0  0  0  0  0  0  0  0  0
   46.0810   34.9420   43.3300 C   0  0  0  0  0  0  0  0  0  0  0  0
   46.3050   33.9550   44.2360 N   0  0  0  0  0  0  0  0  0  0  0  0
   45.6600   33.9090   45.4190 C   0  0  0  0  0  0  0  0  0  0  0  0
   44.7610   34.8620   45.7290 N   0  0  0  0  0  0  0  0  0  0  0  0
   43.7770   36.6410   45.1010 H   0  0  0  0  0  0  0  0  0  0  0  0
   44.9280   36.7530   42.9540 H   0  0  0  0  0  0  0  0  0  0  0  0
   45.8600   33.1080   46.1240 H   0  0  0  0  0  0  0  0  0  0  0  0
   44.3300   34.9400   40.6140 F   0  0  0  0  0  0  0  0  0  0  0  0
   45.1980   33.9100   40.3570 C   0  0  0  0  0  0  0  0  0  0  0  0
   46.3950   33.9900   41.0730 C   0  0  0  0  0  0  0  0  0  0  0  0
   47.2980   32.9770   40.8480 C   0  0  0  0  0  0  0  0  0  0  0  0
   48.2610   32.9160   41.3350 H   0  0  0  0  0  0  0  0  0  0  0  0
   47.0380   31.9380   39.9610 C   0  0  0  0  0  0  0  0  0  0  0  0
   47.7380   31.1320   39.7700 H   0  0  0  0  0  0  0  0  0  0  0  0
   45.8600   31.8740   39.2650 C   0  0  0  0  0  3  0  0  0  0  0  0
   44.9370   32.8820   39.4770 C   0  0  0  0  0  3  0  0  0  0  0  0
  1  2  1  0  0  0  0
  1  6  1  0  0  0  0
  3  1  1  0  0  0  0
  4 10  1  0  0  0  0
  4  9  1  0  0  0  0
  5  4  2  0  0  0  0
  6  5  1  0  0  0  0
  6  7  2  0  0  0  0
  7  8  1  0  0  0  0
  8  9  2  0  0  0  0
  8 12  1  0  0  0  0
 11  5  1  0  0  0  0
 14 13  1  0  0  0  0
 14 15  1  0  0  0  0
 15  1  1  0  0  0  0
 16 15  2  0  0  0  0
 16 17  1  0  0  0  0
 18 16  1  0  0  0  0
 19 18  1  0  0  0  0
 20 21  1  0  0  0  0
 20 18  2  0  0  0  0
 21 14  2  0  0  0  0
M  END
>  <minimizedAffinity>
-3.94769526

>  <minimizedRMSD>
0.691690266

$$$$
