
 OpenBabel03242519533D

 40 42  0  0  1  0  0  0  0  0999 V2000
   47.3620   34.0780   42.5010 C   0  0  2  0  0  0  0  0  0  0  0  0
   48.7010   34.6860   42.6540 C   0  0  0  0  0  0  0  0  0  0  0  0
   48.9660   35.7530   41.6450 C   0  0  0  0  0  0  0  0  0  0  0  0
   48.7800   35.2900   40.2220 C   0  0  0  0  0  0  0  0  0  0  0  0
   47.6390   34.3390   40.0320 C   0  0  2  0  0  0  0  0  0  0  0  0
   46.6850   34.3660   41.2080 C   0  0  0  0  0  0  0  0  0  0  0  0
   47.5270   32.9550   42.5730 H   0  0  0  0  0  0  0  0  0  0  0  0
   48.7910   35.1280   43.6560 H   0  0  0  0  0  0  0  0  0  0  0  0
   49.5220   33.9460   42.5740 H   0  0  0  0  0  0  0  0  0  0  0  0
   50.0020   36.1150   41.7770 H   0  0  0  0  0  0  0  0  0  0  0  0
   48.3000   36.6390   41.8230 H   0  0  0  0  0  0  0  0  0  0  0  0
   49.7630   34.8380   39.9240 H   0  0  0  0  0  0  0  0  0  0  0  0
   48.7080   36.2080   39.5980 H   0  0  0  0  0  0  0  0  0  0  0  0
   47.0550   34.7410   39.1530 H   0  0  0  0  0  0  0  0  0  0  0  0
   46.0700   35.2390   41.1090 H   0  0  0  0  0  0  0  0  0  0  0  0
   45.9920   33.4860   41.0230 H   0  0  0  0  0  0  0  0  0  0  0  0
   46.4430   34.3830   43.6100 C   0  0  0  0  0  0  0  0  0  0  0  0
   45.6010   35.4640   43.3650 C   0  0  0  0  0  0  0  0  0  0  0  0
   44.6620   35.8480   44.3250 C   0  0  0  0  0  0  0  0  0  0  0  0
   44.6420   35.1010   45.4900 N   0  0  0  0  0  0  0  0  0  0  0  0
   45.4770   34.0630   45.6890 C   0  0  0  0  0  0  0  0  0  0  0  0
   46.3640   33.7180   44.7520 N   0  0  0  0  0  0  0  0  0  0  0  0
   45.4470   36.1780   42.5680 H   0  0  0  0  0  0  0  0  0  0  0  0
   43.9330   36.6230   44.3460 H   0  0  0  0  0  0  0  0  0  0  0  0
   45.4390   33.4980   46.6110 H   0  0  0  0  0  0  0  0  0  0  0  0
   48.1880   32.9990   39.7480 C   0  0  0  0  0  0  0  0  0  0  0  0
   48.9720   33.1210   38.9630 H   0  0  0  0  0  0  0  0  0  0  0  0
   48.7340   32.6430   40.6450 H   0  0  0  0  0  0  0  0  0  0  0  0
   47.2290   31.9600   39.2940 C   0  0  0  0  0  0  0  0  0  0  0  0
   46.3140   32.0180   39.9120 H   0  0  0  0  0  0  0  0  0  0  0  0
   47.6510   30.9500   39.5030 H   0  0  0  0  0  0  0  0  0  0  0  0
   44.9700   33.1830   38.2810 F   0  0  0  0  0  0  0  0  0  0  0  0
   45.7960   32.5930   37.3530 C   0  0  0  0  0  0  0  0  0  0  0  0
   46.9180   31.9860   37.8640 C   0  0  0  0  0  0  0  0  0  0  0  0
   47.7660   31.3850   36.9530 C   0  0  0  0  0  0  0  0  0  0  0  0
   48.6770   30.8780   37.2400 H   0  0  0  0  0  0  0  0  0  0  0  0
   47.4780   31.4090   35.6240 C   0  0  0  0  0  0  0  0  0  0  0  0
   48.1370   30.9400   34.8930 H   0  0  0  0  0  0  0  0  0  0  0  0
   46.3340   32.0360   35.1800 C   0  0  0  0  0  0  0  0  0  0  0  0
   45.4190   32.6700   36.0280 C   0  0  0  0  0  0  0  0  0  0  0  0
  1  7  1  1  0  0  0
  1  2  1  0  0  0  0
  1 17  1  0  0  0  0
  2  8  1  0  0  0  0
  3 10  1  0  0  0  0
  3 11  1  0  0  0  0
  3  2  1  0  0  0  0
  4  3  1  0  0  0  0
  5 14  1  6  0  0  0
  5  4  1  0  0  0  0
  5  6  1  0  0  0  0
  6  1  1  0  0  0  0
  9  2  1  0  0  0  0
 12  4  1  0  0  0  0
 13  4  1  0  0  0  0
 15  6  1  0  0  0  0
 16  6  1  0  0  0  0
 17 22  1  0  0  0  0
 18 17  2  0  0  0  0
 18 19  1  0  0  0  0
 19 24  1  0  0  0  0
 19 20  2  0  0  0  0
 20 21  1  0  0  0  0
 21 25  1  0  0  0  0
 22 21  2  0  0  0  0
 23 18  1  0  0  0  0
 26  5  1  0  0  0  0
 26 28  1  0  0  0  0
 27 26  1  0  0  0  0
 29 31  1  0  0  0  0
 29 26  1  0  0  0  0
 29 30  1  0  0  0  0
 33 34  1  0  0  0  0
 33 32  1  0  0  0  0
 34 29  1  0  0  0  0
 35 36  1  0  0  0  0
 35 34  2  0  0  0  0
 37 35  1  0  0  0  0
 38 37  1  0  0  0  0
 39 37  2  0  0  0  0
 39 40  1  0  0  0  0
 40 33  2  0  0  0  0
M  END
>  <minimizedAffinity>
-5.49603701

>  <minimizedRMSD>
0.782656074

$$$$
