
 OpenBabel03252508563D

 24 25  0  0  0  0  0  0  0  0999 V2000
   46.4360   34.5170   41.5660 C   0  0  0  0  0  0  0  0  0  0  0  0
   46.6660   33.4280   41.5100 H   0  0  0  0  0  0  0  0  0  0  0  0
   45.7560   34.8700   40.7900 H   0  0  0  0  0  0  0  0  0  0  0  0
   44.6170   36.1320   44.4320 C   0  0  0  0  0  0  0  0  0  0  0  0
   45.1640   35.9210   43.1490 C   0  0  0  0  0  0  0  0  0  0  0  0
   45.8610   34.7470   42.9080 C   0  0  0  0  0  0  0  0  0  0  0  0
   45.9740   33.8640   43.9320 N   0  0  0  0  0  0  0  0  0  0  0  0
   45.4400   34.0870   45.1560 C   0  0  0  0  0  0  0  0  0  0  0  0
   44.7690   35.2060   45.4090 N   0  0  0  0  0  0  0  0  0  0  0  0
   44.1000   37.0850   44.4900 H   0  0  0  0  0  0  0  0  0  0  0  0
   45.0640   36.6340   42.3410 H   0  0  0  0  0  0  0  0  0  0  0  0
   45.5340   33.3760   45.9710 H   0  0  0  0  0  0  0  0  0  0  0  0
   47.7910   35.2170   41.4990 C   0  0  0  0  0  0  0  0  0  0  0  0
   47.8420   35.8290   40.5910 H   0  0  0  0  0  0  0  0  0  0  0  0
   47.9830   35.7870   42.4190 H   0  0  0  0  0  0  0  0  0  0  0  0
   50.0060   35.3180   43.1270 F   0  0  0  0  0  0  0  0  0  0  0  0
   49.8700   34.2640   42.2830 C   0  0  0  0  0  0  0  0  0  0  0  0
   48.7870   34.1160   41.4180 C   0  0  0  0  0  0  0  0  0  0  0  0
   48.7760   32.9930   40.6110 C   0  0  0  0  0  0  0  0  0  0  0  0
   47.9140   32.9400   39.9680 H   0  0  0  0  0  0  0  0  0  0  0  0
   49.8090   32.0870   40.6930 C   0  0  0  0  0  0  0  0  0  0  0  0
   49.7540   31.2210   40.0400 H   0  0  0  0  0  0  0  0  0  0  0  0
   50.8810   32.2300   41.5490 C   0  0  0  0  0  0  0  0  0  0  0  0
   50.8930   33.3660   42.3640 C   0  0  0  0  0  0  0  0  0  0  0  0
  1  6  1  0  0  0  0
  2  1  1  0  0  0  0
  3  1  1  0  0  0  0
  4 10  1  0  0  0  0
  4  9  1  0  0  0  0
  5  4  2  0  0  0  0
  6  5  1  0  0  0  0
  6  7  2  0  0  0  0
  7  8  1  0  0  0  0
  8  9  2  0  0  0  0
  8 12  1  0  0  0  0
 11  5  1  0  0  0  0
 13  1  1  0  0  0  0
 13 15  1  0  0  0  0
 14 13  1  0  0  0  0
 17 24  1  0  0  0  0
 17 16  1  0  0  0  0
 18 13  1  0  0  0  0
 18 17  2  0  0  0  0
 19 21  2  0  0  0  0
 19 18  1  0  0  0  0
 20 19  1  0  0  0  0
 21 23  1  0  0  0  0
 22 21  1  0  0  0  0
 23 24  2  0  0  0  0
M  END
>  <minimizedAffinity>
-5.04468489

>  <minimizedRMSD>
2.30476832

$$$$
