
 OpenBabel03242521093D

 40 43  0  0  1  0  0  0  0  0999 V2000
   39.7570   29.6740   41.7570 C   0  0  2  0  0  0  0  0  0  0  0  0
   40.5390   30.3710   42.8040 C   0  0  0  0  0  0  0  0  0  0  0  0
   39.5280   31.0980   41.9140 C   0  0  1  0  0  0  0  0  0  0  0  0
   40.3170   29.3960   40.8100 H   0  0  0  0  0  0  0  0  0  0  0  0
   40.3490   30.2300   43.8680 H   0  0  0  0  0  0  0  0  0  0  0  0
   41.5980   30.6040   42.5540 H   0  0  0  0  0  0  0  0  0  0  0  0
   38.7660   31.5500   42.5650 H   0  0  0  0  0  0  0  0  0  0  0  0
   37.5810   26.7010   41.8130 C   0  0  0  0  0  0  0  0  0  0  0  0
   36.9220   26.9810   42.9970 C   0  0  0  0  0  0  0  0  0  0  0  0
   37.1420   28.0880   43.7950 C   0  0  0  0  0  0  0  0  0  0  0  0
   38.1010   28.9910   43.3720 C   0  0  0  0  0  0  0  0  0  0  0  0
   38.7410   28.6970   42.1990 C   0  0  0  0  0  0  0  0  0  0  0  0
   38.4870   27.6180   41.4770 N   0  0  0  0  0  0  0  0  0  0  0  0
   36.1570   26.2850   43.3580 H   0  0  0  0  0  0  0  0  0  0  0  0
   36.5870   28.2340   44.7030 H   0  0  0  0  0  0  0  0  0  0  0  0
   38.2770   29.8580   43.9910 H   0  0  0  0  0  0  0  0  0  0  0  0
   36.4000   24.2560   39.2110 C   0  0  0  0  0  0  0  0  0  0  0  0
   36.5670   25.4950   39.8480 C   0  0  0  0  0  0  0  0  0  0  0  0
   37.3050   25.5090   41.0180 C   0  0  0  0  0  0  0  0  0  0  0  0
   37.8210   24.3480   41.4840 N   0  0  0  0  0  0  0  0  0  0  0  0
   37.6330   23.1660   40.8330 C   0  0  0  0  0  0  0  0  0  0  0  0
   36.9270   23.1390   39.7100 N   0  0  0  0  0  0  0  0  0  0  0  0
   35.8110   24.3130   38.2970 H   0  0  0  0  0  0  0  0  0  0  0  0
   36.1650   26.4380   39.4960 H   0  0  0  0  0  0  0  0  0  0  0  0
   38.0900   22.2910   41.2930 H   0  0  0  0  0  0  0  0  0  0  0  0
   40.0720   32.0120   40.9960 O   0  0  0  0  0  0  0  0  0  0  0  0
   38.9120   34.2820   41.0720 O   0  0  0  0  0  0  0  0  0  0  0  0
   38.8860   32.9830   40.2690 P   0  0  1  0  0  0  0  0  0  0  0  0
   39.3800   33.3900   38.7020 O   0  0  0  0  0  0  0  0  0  0  0  0
   38.5820   33.6620   38.1860 H   0  0  0  0  0  0  0  0  0  0  0  0
   37.3490   32.3720   40.3490 O   0  0  0  0  0  0  0  0  0  0  0  0
   37.3320   31.4150   37.5910 F   0  0  0  0  0  0  0  0  0  0  0  0
   36.6640   30.7060   38.5240 C   0  0  0  0  0  0  0  0  0  0  0  0
   36.7720   31.2890   39.7630 C   0  0  0  0  0  0  0  0  0  0  0  0
   36.1000   30.6090   40.7960 C   0  0  0  0  0  0  0  0  0  0  0  0
   36.0070   30.8290   41.8650 H   0  0  0  0  0  0  0  0  0  0  0  0
   35.3820   29.4280   40.5560 C   0  0  0  0  0  0  0  0  0  0  0  0
   34.8360   28.8320   41.2690 H   0  0  0  0  0  0  0  0  0  0  0  0
   35.3200   28.9030   39.2820 C   0  0  0  0  0  3  0  0  0  0  0  0
   35.9710   29.5520   38.2550 C   0  0  0  0  0  3  0  0  0  0  0  0
  1  4  1  6  0  0  0
  1  3  1  0  0  0  0
  1 12  1  0  0  0  0
  1  2  1  0  0  0  0
  2  5  1  0  0  0  0
  3  7  1  1  0  0  0
  3  2  1  0  0  0  0
  6  2  1  0  0  0  0
  8  9  1  0  0  0  0
  9 14  1  0  0  0  0
  9 10  2  0  0  0  0
 10 15  1  0  0  0  0
 11 10  1  0  0  0  0
 11 16  1  0  0  0  0
 12 11  2  0  0  0  0
 13  8  2  0  0  0  0
 13 12  1  0  0  0  0
 17 22  2  0  0  0  0
 17 18  1  0  0  0  0
 18 19  2  0  0  0  0
 19 20  1  0  0  0  0
 19  8  1  0  0  0  0
 21 25  1  0  0  0  0
 21 20  2  0  0  0  0
 22 21  1  0  0  0  0
 23 17  1  0  0  0  0
 24 18  1  0  0  0  0
 26  3  1  0  0  0  0
 28 31  1  0  0  0  0
 28 26  1  0  0  0  0
 28 27  2  1  0  0  0
 29 28  1  0  0  0  0
 30 29  1  0  0  0  0
 32 33  1  0  0  0  0
 33 34  1  0  0  0  0
 34 31  1  0  0  0  0
 34 35  2  0  0  0  0
 35 36  1  0  0  0  0
 37 35  1  0  0  0  0
 37 38  1  0  0  0  0
 39 37  2  0  0  0  0
 40 33  2  0  0  0  0
 40 39  1  0  0  0  0
M  END
>  <minimizedAffinity>
-6.50699091

$$$$

 OpenBabel03242521093D

 40 43  0  0  1  0  0  0  0  0999 V2000
   37.9390   27.2890   39.1990 C   0  0  2  0  0  0  0  0  0  0  0  0
   37.3820   26.5990   38.0110 C   0  0  0  0  0  0  0  0  0  0  0  0
   37.3080   26.0000   39.4190 C   0  0  1  0  0  0  0  0  0  0  0  0
   39.0690   27.2760   39.3060 H   0  0  0  0  0  0  0  0  0  0  0  0
   36.4830   26.9450   37.5020 H   0  0  0  0  0  0  0  0  0  0  0  0
   38.1160   26.0880   37.3500 H   0  0  0  0  0  0  0  0  0  0  0  0
   36.2480   25.8480   39.6660 H   0  0  0  0  0  0  0  0  0  0  0  0
   37.4250   30.8220   40.1070 C   0  0  0  0  0  0  0  0  0  0  0  0
   36.0840   30.7320   40.4360 C   0  0  0  0  0  0  0  0  0  0  0  0
   35.3210   29.5810   40.3800 C   0  0  0  0  0  0  0  0  0  0  0  0
   35.9520   28.4240   39.9600 C   0  0  0  0  0  0  0  0  0  0  0  0
   37.2780   28.5340   39.6390 C   0  0  0  0  0  0  0  0  0  0  0  0
   37.9570   29.6660   39.7130 N   0  0  0  0  0  0  0  0  0  0  0  0
   35.5570   31.6310   40.7730 H   0  0  0  0  0  0  0  0  0  0  0  0
   34.2820   29.5930   40.6540 H   0  0  0  0  0  0  0  0  0  0  0  0
   35.3610   27.5210   39.9140 H   0  0  0  0  0  0  0  0  0  0  0  0
   38.5070   34.4240   40.0840 C   0  0  0  0  0  0  0  0  0  0  0  0
   37.6380   33.3290   39.9690 C   0  0  0  0  0  0  0  0  0  0  0  0
   38.1750   32.0720   40.1840 C   0  0  0  0  0  0  0  0  0  0  0  0
   39.4890   31.9610   40.4870 N   0  0  0  0  0  0  0  0  0  0  0  0
   40.2980   33.0530   40.5870 C   0  0  0  0  0  0  0  0  0  0  0  0
   39.7950   34.2630   40.3840 N   0  0  0  0  0  0  0  0  0  0  0  0
   38.0240   35.3830   39.9040 H   0  0  0  0  0  0  0  0  0  0  0  0
   36.5840   33.3900   39.7280 H   0  0  0  0  0  0  0  0  0  0  0  0
   41.3390   32.8530   40.8360 H   0  0  0  0  0  0  0  0  0  0  0  0
   38.0890   24.8530   39.6340 O   0  0  0  0  0  0  0  0  0  0  0  0
   36.3620   24.1330   41.3680 O   0  0  0  0  0  0  0  0  0  0  0  0
   37.8770   24.2070   41.1880 P   0  0  1  0  0  0  0  0  0  0  0  0
   38.4320   22.6080   41.2100 O   0  0  0  0  0  0  0  0  0  0  0  0
   38.6090   22.3540   42.1480 H   0  0  0  0  0  0  0  0  0  0  0  0
   38.4840   25.1420   42.4130 O   0  0  0  0  0  0  0  0  0  0  0  0
   36.1780   26.6190   43.4230 F   0  0  0  0  0  0  0  0  0  0  0  0
   37.3250   27.2910   43.1960 C   0  0  0  0  0  0  0  0  0  0  0  0
   38.3070   26.4540   42.7260 C   0  0  0  0  0  0  0  0  0  0  0  0
   39.5400   27.0800   42.4620 C   0  0  0  0  0  0  0  0  0  0  0  0
   40.4880   26.6790   42.0870 H   0  0  0  0  0  0  0  0  0  0  0  0
   39.7300   28.4530   42.6720 C   0  0  0  0  0  0  0  0  0  0  0  0
   40.6260   29.0280   42.5050 H   0  0  0  0  0  0  0  0  0  0  0  0
   38.6930   29.2300   43.1490 C   0  0  0  0  0  3  0  0  0  0  0  0
   37.4770   28.6380   43.4140 C   0  0  0  0  0  3  0  0  0  0  0  0
  1  4  1  1  0  0  0
  1  3  1  0  0  0  0
  1 12  1  0  0  0  0
  2  1  1  0  0  0  0
  2  3  1  0  0  0  0
  3 26  1  0  0  0  0
  3  7  1  1  0  0  0
  5  2  1  0  0  0  0
  6  2  1  0  0  0  0
  8 19  1  0  0  0  0
  8  9  1  0  0  0  0
  9 14  1  0  0  0  0
 10  9  2  0  0  0  0
 10 15  1  0  0  0  0
 11 10  1  0  0  0  0
 12 13  1  0  0  0  0
 12 11  2  0  0  0  0
 13  8  2  0  0  0  0
 16 11  1  0  0  0  0
 17 22  1  0  0  0  0
 18 17  2  0  0  0  0
 18 19  1  0  0  0  0
 19 20  2  0  0  0  0
 20 21  1  0  0  0  0
 21 25  1  0  0  0  0
 22 21  2  0  0  0  0
 23 17  1  0  0  0  0
 24 18  1  0  0  0  0
 26 28  1  0  0  0  0
 28 29  1  0  0  0  0
 28 27  2  1  0  0  0
 28 31  1  0  0  0  0
 29 30  1  0  0  0  0
 31 34  1  0  0  0  0
 33 40  1  0  0  0  0
 33 32  1  0  0  0  0
 34 33  2  0  0  0  0
 35 37  2  0  0  0  0
 35 34  1  0  0  0  0
 36 35  1  0  0  0  0
 37 39  1  0  0  0  0
 38 37  1  0  0  0  0
 39 40  2  0  0  0  0
M  END
>  <minimizedAffinity>
-6.27094173

$$$$

 OpenBabel03242521093D

 40 43  0  0  1  0  0  0  0  0999 V2000
   37.2400   27.7390   42.7930 C   0  0  2  0  0  0  0  0  0  0  0  0
   37.0260   28.0580   44.2250 C   0  0  0  0  0  0  0  0  0  0  0  0
   38.4230   27.8910   43.6190 C   0  0  1  0  0  0  0  0  0  0  0  0
   37.0290   26.6700   42.4780 H   0  0  0  0  0  0  0  0  0  0  0  0
   36.6740   29.0330   44.5610 H   0  0  0  0  0  0  0  0  0  0  0  0
   36.7220   27.2100   44.8770 H   0  0  0  0  0  0  0  0  0  0  0  0
   38.9720   28.8310   43.7730 H   0  0  0  0  0  0  0  0  0  0  0  0
   37.3620   30.8210   40.7770 C   0  0  0  0  0  0  0  0  0  0  0  0
   36.2110   30.6020   40.0410 C   0  0  0  0  0  0  0  0  0  0  0  0
   35.3840   29.5000   40.1550 C   0  0  0  0  0  0  0  0  0  0  0  0
   35.7380   28.5380   41.0830 C   0  0  0  0  0  0  0  0  0  0  0  0
   36.8790   28.7730   41.8010 C   0  0  0  0  0  0  0  0  0  0  0  0
   37.6320   29.8490   41.6480 N   0  0  0  0  0  0  0  0  0  0  0  0
   35.9050   31.3460   39.2980 H   0  0  0  0  0  0  0  0  0  0  0  0
   34.5060   29.4030   39.5440 H   0  0  0  0  0  0  0  0  0  0  0  0
   35.0970   27.6740   41.1760 H   0  0  0  0  0  0  0  0  0  0  0  0
   38.6770   34.2760   40.0860 C   0  0  0  0  0  0  0  0  0  0  0  0
   37.7330   33.2440   40.1970 C   0  0  0  0  0  0  0  0  0  0  0  0
   38.1960   32.0070   40.6060 C   0  0  0  0  0  0  0  0  0  0  0  0
   39.5130   31.8530   40.8740 N   0  0  0  0  0  0  0  0  0  0  0  0
   40.3960   32.8830   40.7510 C   0  0  0  0  0  0  0  0  0  0  0  0
   39.9650   34.0740   40.3600 N   0  0  0  0  0  0  0  0  0  0  0  0
   38.2490   35.2230   39.7600 H   0  0  0  0  0  0  0  0  0  0  0  0
   36.6740   33.3410   39.9890 H   0  0  0  0  0  0  0  0  0  0  0  0
   41.4340   32.6520   40.9910 H   0  0  0  0  0  0  0  0  0  0  0  0
   39.1410   26.7640   44.0480 O   0  0  0  0  0  0  0  0  0  0  0  0
   40.7570   27.6300   42.2750 O   0  0  0  0  0  0  0  0  0  0  0  0
   40.3650   26.3220   42.9600 P   0  0  1  0  0  0  0  0  0  0  0  0
   41.7290   25.8180   43.8260 O   0  0  0  0  0  0  0  0  0  0  0  0
   42.2940   25.2730   43.2260 H   0  0  0  0  0  0  0  0  0  0  0  0
   39.8910   25.2600   41.7820 O   0  0  0  0  0  0  0  0  0  0  0  0
   39.2240   26.6910   39.3270 F   0  0  0  0  0  0  0  0  0  0  0  0
   38.3300   25.8130   39.8250 C   0  0  0  0  0  0  0  0  0  0  0  0
   38.7950   25.2270   40.9760 C   0  0  0  0  0  0  0  0  0  0  0  0
   37.9180   24.2950   41.5610 C   0  0  0  0  0  0  0  0  0  0  0  0
   38.0120   23.6820   42.4640 H   0  0  0  0  0  0  0  0  0  0  0  0
   36.6700   24.0000   40.9940 C   0  0  0  0  0  0  0  0  0  0  0  0
   35.9270   23.3080   41.3570 H   0  0  0  0  0  0  0  0  0  0  0  0
   36.2720   24.6300   39.8330 C   0  0  0  0  0  3  0  0  0  0  0  0
   37.1150   25.5470   39.2430 C   0  0  0  0  0  3  0  0  0  0  0  0
  1  4  1  6  0  0  0
  1  3  1  0  0  0  0
  1  2  1  0  0  0  0
  2  5  1  0  0  0  0
  2  6  1  0  0  0  0
  3  7  1  6  0  0  0
  3 26  1  0  0  0  0
  3  2  1  0  0  0  0
  8 13  1  0  0  0  0
  9 10  1  0  0  0  0
  9  8  2  0  0  0  0
 10 11  2  0  0  0  0
 11 16  1  0  0  0  0
 11 12  1  0  0  0  0
 12  1  1  0  0  0  0
 13 12  2  0  0  0  0
 14  9  1  0  0  0  0
 15 10  1  0  0  0  0
 17 18  2  0  0  0  0
 17 22  1  0  0  0  0
 18 19  1  0  0  0  0
 19  8  1  0  0  0  0
 19 20  2  0  0  0  0
 21 20  1  0  0  0  0
 21 25  1  0  0  0  0
 22 21  2  0  0  0  0
 23 17  1  0  0  0  0
 24 18  1  0  0  0  0
 28 27  2  6  0  0  0
 28 29  1  0  0  0  0
 28 26  1  0  0  0  0
 30 29  1  0  0  0  0
 31 28  1  0  0  0  0
 32 33  1  0  0  0  0
 33 34  1  0  0  0  0
 34 35  2  0  0  0  0
 34 31  1  0  0  0  0
 35 36  1  0  0  0  0
 37 38  1  0  0  0  0
 37 35  1  0  0  0  0
 39 37  2  0  0  0  0
 40 33  2  0  0  0  0
 40 39  1  0  0  0  0
M  END
>  <minimizedAffinity>
-6.20053387

$$$$

 OpenBabel03242521093D

 40 43  0  0  1  0  0  0  0  0999 V2000
   36.6300   30.3060   41.5430 C   0  0  2  0  0  0  0  0  0  0  0  0
   35.9230   30.3600   40.2410 C   0  0  0  0  0  0  0  0  0  0  0  0
   37.2890   31.0170   40.4630 C   0  0  1  0  0  0  0  0  0  0  0  0
   36.2270   30.9790   42.3630 H   0  0  0  0  0  0  0  0  0  0  0  0
   35.8190   29.4880   39.5950 H   0  0  0  0  0  0  0  0  0  0  0  0
   35.0870   31.0900   40.1660 H   0  0  0  0  0  0  0  0  0  0  0  0
   37.9980   30.5710   39.7510 H   0  0  0  0  0  0  0  0  0  0  0  0
   37.3180   26.6880   41.6330 C   0  0  0  0  0  0  0  0  0  0  0  0
   38.0260   26.6670   42.8210 C   0  0  0  0  0  0  0  0  0  0  0  0
   38.3020   27.7690   43.6090 C   0  0  0  0  0  0  0  0  0  0  0  0
   37.8300   28.9930   43.1710 C   0  0  0  0  0  0  0  0  0  0  0  0
   37.1330   28.9920   41.9940 C   0  0  0  0  0  0  0  0  0  0  0  0
   36.9000   27.9030   41.2820 N   0  0  0  0  0  0  0  0  0  0  0  0
   38.4120   25.7130   43.1940 H   0  0  0  0  0  0  0  0  0  0  0  0
   38.8600   27.6700   44.5220 H   0  0  0  0  0  0  0  0  0  0  0  0
   38.0430   29.8580   43.7810 H   0  0  0  0  0  0  0  0  0  0  0  0
   37.1170   23.1660   40.3270 C   0  0  0  0  0  0  0  0  0  0  0  0
   37.4440   24.2080   41.2080 C   0  0  0  0  0  0  0  0  0  0  0  0
   37.0630   25.4870   40.8430 C   0  0  0  0  0  0  0  0  0  0  0  0
   36.4060   25.6690   39.6750 N   0  0  0  0  0  0  0  0  0  0  0  0
   36.1090   24.6280   38.8470 C   0  0  0  0  0  0  0  0  0  0  0  0
   36.4680   23.3970   39.1860 N   0  0  0  0  0  0  0  0  0  0  0  0
   37.4430   22.1860   40.6720 H   0  0  0  0  0  0  0  0  0  0  0  0
   37.9690   24.0890   42.1480 H   0  0  0  0  0  0  0  0  0  0  0  0
   35.5780   24.8840   37.9320 H   0  0  0  0  0  0  0  0  0  0  0  0
   37.2990   32.4210   40.4370 O   0  0  0  0  0  0  0  0  0  0  0  0
   38.6830   34.5530   40.6500 O   0  0  0  0  0  0  0  0  0  0  0  0
   38.8720   33.0570   40.4110 P   0  0  1  0  0  0  0  0  0  0  0  0
   39.7340   32.4730   41.7460 O   0  0  0  0  0  0  0  0  0  0  0  0
   40.6990   32.5710   41.5590 H   0  0  0  0  0  0  0  0  0  0  0  0
   39.6670   32.8730   38.9700 O   0  0  0  0  0  0  0  0  0  0  0  0
   41.1140   35.4080   38.9980 F   0  0  0  0  0  0  0  0  0  0  0  0
   41.7410   34.3130   38.5220 C   0  0  0  0  0  0  0  0  0  0  0  0
   40.9260   33.2090   38.5790 C   0  0  0  0  0  0  0  0  0  0  0  0
   41.5070   32.0200   38.0990 C   0  0  0  0  0  0  0  0  0  0  0  0
   41.1100   31.0030   38.0190 H   0  0  0  0  0  0  0  0  0  0  0  0
   42.8190   31.9880   37.6050 C   0  0  0  0  0  0  0  0  0  0  0  0
   43.3570   31.1380   37.2170 H   0  0  0  0  0  0  0  0  0  0  0  0
   43.5770   33.1410   37.5810 C   0  0  0  0  0  3  0  0  0  0  0  0
   43.0280   34.3160   38.0460 C   0  0  0  0  0  3  0  0  0  0  0  0
  1 12  1  0  0  0  0
  1  4  1  1  0  0  0
  2  3  1  0  0  0  0
  2  1  1  0  0  0  0
  3  7  1  6  0  0  0
  3  1  1  0  0  0  0
  5  2  1  0  0  0  0
  6  2  1  0  0  0  0
  8  9  1  0  0  0  0
  9 14  1  0  0  0  0
  9 10  2  0  0  0  0
 10 15  1  0  0  0  0
 11 10  1  0  0  0  0
 11 16  1  0  0  0  0
 12 11  2  0  0  0  0
 13  8  2  0  0  0  0
 13 12  1  0  0  0  0
 17 23  1  0  0  0  0
 17 18  1  0  0  0  0
 18 24  1  0  0  0  0
 19 18  2  0  0  0  0
 19  8  1  0  0  0  0
 20 19  1  0  0  0  0
 21 22  1  0  0  0  0
 21 20  2  0  0  0  0
 22 17  2  0  0  0  0
 25 21  1  0  0  0  0
 26  3  1  0  0  0  0
 28 26  1  0  0  0  0
 28 27  2  1  0  0  0
 28 29  1  0  0  0  0
 30 29  1  0  0  0  0
 31 28  1  0  0  0  0
 33 34  1  0  0  0  0
 33 32  1  0  0  0  0
 34 31  1  0  0  0  0
 35 34  2  0  0  0  0
 36 35  1  0  0  0  0
 37 35  1  0  0  0  0
 38 37  1  0  0  0  0
 39 37  2  0  0  0  0
 39 40  1  0  0  0  0
 40 33  2  0  0  0  0
M  END
>  <minimizedAffinity>
-6.10104179

$$$$

 OpenBabel03242521093D

 40 43  0  0  1  0  0  0  0  0999 V2000
   37.8210   28.8750   42.9950 C   0  0  2  0  0  0  0  0  0  0  0  0
   37.2210   27.6810   43.6360 C   0  0  0  0  0  0  0  0  0  0  0  0
   37.1080   27.9520   42.1320 C   0  0  1  0  0  0  0  0  0  0  0  0
   37.2840   29.8610   43.1640 H   0  0  0  0  0  0  0  0  0  0  0  0
   37.8240   26.8540   44.0110 H   0  0  0  0  0  0  0  0  0  0  0  0
   36.2700   27.8440   44.1880 H   0  0  0  0  0  0  0  0  0  0  0  0
   37.5610   27.1040   41.6000 H   0  0  0  0  0  0  0  0  0  0  0  0
   41.2160   30.2390   42.5620 C   0  0  0  0  0  0  0  0  0  0  0  0
   41.9150   29.0840   42.8630 C   0  0  0  0  0  0  0  0  0  0  0  0
   41.3490   27.8700   43.2060 C   0  0  0  0  0  0  0  0  0  0  0  0
   39.9680   27.8080   43.2510 C   0  0  0  0  0  0  0  0  0  0  0  0
   39.2950   28.9600   42.9500 C   0  0  0  0  0  0  0  0  0  0  0  0
   39.8940   30.0950   42.6280 N   0  0  0  0  0  0  0  0  0  0  0  0
   43.0100   29.1010   42.8360 H   0  0  0  0  0  0  0  0  0  0  0  0
   41.9630   27.0160   43.4260 H   0  0  0  0  0  0  0  0  0  0  0  0
   39.5190   26.8620   43.5180 H   0  0  0  0  0  0  0  0  0  0  0  0
   43.5320   33.1940   42.3360 C   0  0  0  0  0  0  0  0  0  0  0  0
   43.0360   31.9650   42.7980 C   0  0  0  0  0  0  0  0  0  0  0  0
   41.8750   31.4930   42.2110 C   0  0  0  0  0  0  0  0  0  0  0  0
   41.2850   32.2250   41.2390 N   0  0  0  0  0  0  0  0  0  0  0  0
   41.8010   33.4150   40.8210 C   0  0  0  0  0  0  0  0  0  0  0  0
   42.9130   33.8790   41.3760 N   0  0  0  0  0  0  0  0  0  0  0  0
   44.4460   33.5090   42.8380 H   0  0  0  0  0  0  0  0  0  0  0  0
   43.4880   31.3600   43.5740 H   0  0  0  0  0  0  0  0  0  0  0  0
   41.2480   33.9240   40.0330 H   0  0  0  0  0  0  0  0  0  0  0  0
   35.8200   28.2630   41.6660 O   0  0  0  0  0  0  0  0  0  0  0  0
   34.5800   29.2800   39.6830 O   0  0  0  0  0  0  0  0  0  0  0  0
   35.8300   29.5200   40.5260 P   0  0  1  0  0  0  0  0  0  0  0  0
   35.5860   30.9960   41.3180 O   0  0  0  0  0  0  0  0  0  0  0  0
   35.9090   31.7210   40.7290 H   0  0  0  0  0  0  0  0  0  0  0  0
   37.1340   29.5160   39.5060 O   0  0  0  0  0  0  0  0  0  0  0  0
   36.8580   30.5990   36.8100 F   0  0  0  0  0  0  0  0  0  0  0  0
   37.2420   29.3140   36.9520 C   0  0  0  0  0  0  0  0  0  0  0  0
   37.3230   28.9630   38.2780 C   0  0  0  0  0  0  0  0  0  0  0  0
   37.7190   27.6330   38.5140 C   0  0  0  0  0  0  0  0  0  0  0  0
   37.8680   27.0780   39.4450 H   0  0  0  0  0  0  0  0  0  0  0  0
   38.0040   26.7510   37.4610 C   0  0  0  0  0  0  0  0  0  0  0  0
   38.3120   25.7200   37.5300 H   0  0  0  0  0  0  0  0  0  0  0  0
   37.8990   27.1780   36.1530 C   0  0  0  0  0  3  0  0  0  0  0  0
   37.5140   28.4760   35.8990 C   0  0  0  0  0  3  0  0  0  0  0  0
  1  4  1  1  0  0  0
  1  2  1  0  0  0  0
  2  5  1  0  0  0  0
  2  6  1  0  0  0  0
  3  7  1  6  0  0  0
  3  1  1  0  0  0  0
  3  2  1  0  0  0  0
  8 13  2  0  0  0  0
  8  9  1  0  0  0  0
  9 10  2  0  0  0  0
 10 11  1  0  0  0  0
 10 15  1  0  0  0  0
 11 16  1  0  0  0  0
 12  1  1  0  0  0  0
 12 11  2  0  0  0  0
 13 12  1  0  0  0  0
 14  9  1  0  0  0  0
 17 18  1  0  0  0  0
 17 23  1  0  0  0  0
 18 24  1  0  0  0  0
 19  8  1  0  0  0  0
 19 18  2  0  0  0  0
 20 19  1  0  0  0  0
 21 20  2  0  0  0  0
 21 22  1  0  0  0  0
 22 17  2  0  0  0  0
 25 21  1  0  0  0  0
 26  3  1  0  0  0  0
 28 27  2  6  0  0  0
 28 29  1  0  0  0  0
 28 26  1  0  0  0  0
 30 29  1  0  0  0  0
 31 28  1  0  0  0  0
 32 33  1  0  0  0  0
 33 34  1  0  0  0  0
 34 35  2  0  0  0  0
 34 31  1  0  0  0  0
 35 36  1  0  0  0  0
 37 38  1  0  0  0  0
 37 35  1  0  0  0  0
 39 37  2  0  0  0  0
 40 39  1  0  0  0  0
 40 33  2  0  0  0  0
M  END
>  <minimizedAffinity>
-5.96196365

$$$$

 OpenBabel03242521093D

 40 43  0  0  1  0  0  0  0  0999 V2000
   37.4670   28.9640   39.8330 C   0  0  2  0  0  0  0  0  0  0  0  0
   36.1740   29.6860   39.7790 C   0  0  0  0  0  0  0  0  0  0  0  0
   36.9720   29.5240   41.0770 C   0  0  1  0  0  0  0  0  0  0  0  0
   37.4140   27.8310   39.7810 H   0  0  0  0  0  0  0  0  0  0  0  0
   36.0690   30.6620   39.3060 H   0  0  0  0  0  0  0  0  0  0  0  0
   35.2590   29.0550   39.7400 H   0  0  0  0  0  0  0  0  0  0  0  0
   37.2070   30.5280   41.4580 H   0  0  0  0  0  0  0  0  0  0  0  0
   39.9640   31.4530   38.7640 C   0  0  0  0  0  0  0  0  0  0  0  0
   40.6690   30.6410   37.8930 C   0  0  0  0  0  0  0  0  0  0  0  0
   40.3840   29.3140   37.6270 C   0  0  0  0  0  0  0  0  0  0  0  0
   39.3050   28.7550   38.2860 C   0  0  0  0  0  0  0  0  0  0  0  0
   38.6210   29.5740   39.1420 C   0  0  0  0  0  0  0  0  0  0  0  0
   38.9410   30.8390   39.3570 N   0  0  0  0  0  0  0  0  0  0  0  0
   41.5280   31.0550   37.3560 H   0  0  0  0  0  0  0  0  0  0  0  0
   40.9810   28.7500   36.9350 H   0  0  0  0  0  0  0  0  0  0  0  0
   39.0780   27.7190   38.0820 H   0  0  0  0  0  0  0  0  0  0  0  0
   41.6060   34.8360   38.8000 C   0  0  0  0  0  0  0  0  0  0  0  0
   41.4160   33.4890   38.4590 C   0  0  0  0  0  0  0  0  0  0  0  0
   40.3190   32.8480   39.0050 C   0  0  0  0  0  0  0  0  0  0  0  0
   39.4960   33.5390   39.8280 N   0  0  0  0  0  0  0  0  0  0  0  0
   39.7190   34.8480   40.1330 C   0  0  0  0  0  0  0  0  0  0  0  0
   40.7680   35.4730   39.6160 N   0  0  0  0  0  0  0  0  0  0  0  0
   42.4860   35.2820   38.3380 H   0  0  0  0  0  0  0  0  0  0  0  0
   42.0590   32.9130   37.8040 H   0  0  0  0  0  0  0  0  0  0  0  0
   38.9960   35.3100   40.8050 H   0  0  0  0  0  0  0  0  0  0  0  0
   36.3890   28.6950   42.0490 O   0  0  0  0  0  0  0  0  0  0  0  0
   38.4920   29.4840   43.2570 O   0  0  0  0  0  0  0  0  0  0  0  0
   37.4350   28.3860   43.3490 P   0  0  1  0  0  0  0  0  0  0  0  0
   36.6110   28.6480   44.8040 O   0  0  0  0  0  0  0  0  0  0  0  0
   37.0920   28.1710   45.5230 H   0  0  0  0  0  0  0  0  0  0  0  0
   38.2150   26.9270   43.2750 O   0  0  0  0  0  0  0  0  0  0  0  0
   36.5200   24.6420   42.6280 F   0  0  0  0  0  0  0  0  0  0  0  0
   37.6020   24.8790   41.8600 C   0  0  0  0  0  0  0  0  0  0  0  0
   38.2890   25.9860   42.2970 C   0  0  0  0  0  0  0  0  0  0  0  0
   39.4370   26.3030   41.5460 C   0  0  0  0  0  0  0  0  0  0  0  0
   40.1690   27.1100   41.6530 H   0  0  0  0  0  0  0  0  0  0  0  0
   39.8310   25.5350   40.4410 C   0  0  0  0  0  0  0  0  0  0  0  0
   40.6850   25.6880   39.8020 H   0  0  0  0  0  0  0  0  0  0  0  0
   39.0880   24.4350   40.0630 C   0  0  0  0  0  3  0  0  0  0  0  0
   37.9600   24.1070   40.7830 C   0  0  0  0  0  3  0  0  0  0  0  0
  1  4  1  6  0  0  0
  1  3  1  0  0  0  0
  2  1  1  0  0  0  0
  2  3  1  0  0  0  0
  3  7  1  1  0  0  0
  3 26  1  0  0  0  0
  5  2  1  0  0  0  0
  6  2  1  0  0  0  0
  8 19  1  0  0  0  0
  8 13  1  0  0  0  0
  9  8  2  0  0  0  0
 10  9  1  0  0  0  0
 10 11  2  0  0  0  0
 11 12  1  0  0  0  0
 12 13  2  0  0  0  0
 12  1  1  0  0  0  0
 14  9  1  0  0  0  0
 15 10  1  0  0  0  0
 16 11  1  0  0  0  0
 17 22  1  0  0  0  0
 18 17  2  0  0  0  0
 18 19  1  0  0  0  0
 19 20  2  0  0  0  0
 20 21  1  0  0  0  0
 21 25  1  0  0  0  0
 22 21  2  0  0  0  0
 23 17  1  0  0  0  0
 24 18  1  0  0  0  0
 26 28  1  0  0  0  0
 28 27  2  6  0  0  0
 28 29  1  0  0  0  0
 29 30  1  0  0  0  0
 31 28  1  0  0  0  0
 33 34  1  0  0  0  0
 33 32  1  0  0  0  0
 34 31  1  0  0  0  0
 35 36  1  0  0  0  0
 35 34  2  0  0  0  0
 37 35  1  0  0  0  0
 38 37  1  0  0  0  0
 39 37  2  0  0  0  0
 39 40  1  0  0  0  0
 40 33  2  0  0  0  0
M  END
>  <minimizedAffinity>
-5.94615555

$$$$

 OpenBabel03242521093D

 40 43  0  0  1  0  0  0  0  0999 V2000
   38.3200   27.9750   43.3860 C   0  0  2  0  0  0  0  0  0  0  0  0
   37.0590   28.1400   44.1460 C   0  0  0  0  0  0  0  0  0  0  0  0
   37.1990   28.5710   42.6830 C   0  0  1  0  0  0  0  0  0  0  0  0
   39.1550   28.7040   43.6300 H   0  0  0  0  0  0  0  0  0  0  0  0
   36.4280   27.2950   44.4220 H   0  0  0  0  0  0  0  0  0  0  0  0
   37.0210   28.9940   44.8570 H   0  0  0  0  0  0  0  0  0  0  0  0
   36.4540   28.0170   42.0940 H   0  0  0  0  0  0  0  0  0  0  0  0
   38.3960   24.5990   41.9130 C   0  0  0  0  0  0  0  0  0  0  0  0
   39.5430   24.1510   42.5440 C   0  0  0  0  0  0  0  0  0  0  0  0
   40.3090   24.8860   43.4300 C   0  0  0  0  0  0  0  0  0  0  0  0
   39.8920   26.1750   43.7070 C   0  0  0  0  0  0  0  0  0  0  0  0
   38.7560   26.5990   43.0740 C   0  0  0  0  0  0  0  0  0  0  0  0
   38.0630   25.8480   42.2330 N   0  0  0  0  0  0  0  0  0  0  0  0
   39.8980   23.1340   42.3450 H   0  0  0  0  0  0  0  0  0  0  0  0
   41.1890   24.4650   43.8790 H   0  0  0  0  0  0  0  0  0  0  0  0
   40.4870   26.7540   44.3980 H   0  0  0  0  0  0  0  0  0  0  0  0
   35.7830   23.1740   39.6140 C   0  0  0  0  0  0  0  0  0  0  0  0
   36.3720   24.0850   40.5040 C   0  0  0  0  0  0  0  0  0  0  0  0
   37.6320   23.7730   40.9820 C   0  0  0  0  0  0  0  0  0  0  0  0
   38.2240   22.6260   40.5780 N   0  0  0  0  0  0  0  0  0  0  0  0
   37.6150   21.7690   39.7120 C   0  0  0  0  0  0  0  0  0  0  0  0
   36.4070   22.0560   39.2450 N   0  0  0  0  0  0  0  0  0  0  0  0
   34.7930   23.4770   39.2740 H   0  0  0  0  0  0  0  0  0  0  0  0
   35.9200   25.0080   40.8430 H   0  0  0  0  0  0  0  0  0  0  0  0
   38.1780   20.8740   39.4510 H   0  0  0  0  0  0  0  0  0  0  0  0
   37.1590   29.9550   42.4500 O   0  0  0  0  0  0  0  0  0  0  0  0
   37.5660   31.7730   40.7080 O   0  0  0  0  0  0  0  0  0  0  0  0
   38.1280   30.4200   41.1370 P   0  0  1  0  0  0  0  0  0  0  0  0
   39.7030   30.7160   41.6810 O   0  0  0  0  0  0  0  0  0  0  0  0
   40.3140   30.6650   40.9060 H   0  0  0  0  0  0  0  0  0  0  0  0
   38.0510   29.4060   39.8300 O   0  0  0  0  0  0  0  0  0  0  0  0
   36.6910   31.0350   37.8260 F   0  0  0  0  0  0  0  0  0  0  0  0
   36.3120   29.7500   37.9780 C   0  0  0  0  0  0  0  0  0  0  0  0
   37.0480   29.1260   38.9560 C   0  0  0  0  0  0  0  0  0  0  0  0
   36.7120   27.7770   39.1780 C   0  0  0  0  0  0  0  0  0  0  0  0
   37.1160   27.0380   39.8770 H   0  0  0  0  0  0  0  0  0  0  0  0
   35.7020   27.1380   38.4440 C   0  0  0  0  0  0  0  0  0  0  0  0
   35.3680   26.1170   38.5330 H   0  0  0  0  0  0  0  0  0  0  0  0
   35.0060   27.8320   37.4760 C   0  0  0  0  0  3  0  0  0  0  0  0
   35.3180   29.1540   37.2420 C   0  0  0  0  0  3  0  0  0  0  0  0
  1  4  1  1  0  0  0
  1  2  1  0  0  0  0
  2  5  1  0  0  0  0
  2  6  1  0  0  0  0
  3  7  1  6  0  0  0
  3  1  1  0  0  0  0
  3  2  1  0  0  0  0
  8 13  2  0  0  0  0
  8  9  1  0  0  0  0
  9 10  2  0  0  0  0
 10 11  1  0  0  0  0
 10 15  1  0  0  0  0
 11 16  1  0  0  0  0
 12  1  1  0  0  0  0
 12 11  2  0  0  0  0
 13 12  1  0  0  0  0
 14  9  1  0  0  0  0
 17 18  1  0  0  0  0
 18 24  1  0  0  0  0
 18 19  2  0  0  0  0
 19  8  1  0  0  0  0
 20 19  1  0  0  0  0
 21 20  2  0  0  0  0
 22 17  2  0  0  0  0
 22 21  1  0  0  0  0
 23 17  1  0  0  0  0
 25 21  1  0  0  0  0
 26  3  1  0  0  0  0
 28 27  2  6  0  0  0
 28 29  1  0  0  0  0
 28 26  1  0  0  0  0
 30 29  1  0  0  0  0
 31 28  1  0  0  0  0
 32 33  1  0  0  0  0
 33 34  1  0  0  0  0
 34 35  2  0  0  0  0
 34 31  1  0  0  0  0
 35 36  1  0  0  0  0
 37 38  1  0  0  0  0
 37 35  1  0  0  0  0
 39 37  2  0  0  0  0
 40 39  1  0  0  0  0
 40 33  2  0  0  0  0
M  END
>  <minimizedAffinity>
-5.85682297

$$$$

 OpenBabel03242521093D

 40 43  0  0  1  0  0  0  0  0999 V2000
   37.2600   31.9090   39.1810 C   0  0  2  0  0  0  0  0  0  0  0  0
   36.5940   31.3170   40.3660 C   0  0  0  0  0  0  0  0  0  0  0  0
   37.4800   30.4950   39.4250 C   0  0  1  0  0  0  0  0  0  0  0  0
   36.5970   32.1270   38.2870 H   0  0  0  0  0  0  0  0  0  0  0  0
   36.9110   31.5360   41.3850 H   0  0  0  0  0  0  0  0  0  0  0  0
   35.5090   31.0950   40.2600 H   0  0  0  0  0  0  0  0  0  0  0  0
   38.3050   30.0760   40.0190 H   0  0  0  0  0  0  0  0  0  0  0  0
   40.6050   33.4490   39.2690 C   0  0  0  0  0  0  0  0  0  0  0  0
   40.2410   34.6410   39.8690 C   0  0  0  0  0  0  0  0  0  0  0  0
   38.9580   34.9860   40.2520 C   0  0  0  0  0  0  0  0  0  0  0  0
   37.9580   34.0610   40.0150 C   0  0  0  0  0  0  0  0  0  0  0  0
   38.3390   32.8890   39.4220 C   0  0  0  0  0  0  0  0  0  0  0  0
   39.5850   32.6150   39.0760 N   0  0  0  0  0  0  0  0  0  0  0  0
   41.0110   35.3930   40.0700 H   0  0  0  0  0  0  0  0  0  0  0  0
   38.7560   35.9350   40.7140 H   0  0  0  0  0  0  0  0  0  0  0  0
   36.9530   34.3250   40.3120 H   0  0  0  0  0  0  0  0  0  0  0  0
   43.8550   31.7650   38.4040 C   0  0  0  0  0  0  0  0  0  0  0  0
   42.5100   31.8710   38.7880 C   0  0  0  0  0  0  0  0  0  0  0  0
   41.9810   33.1460   38.8840 C   0  0  0  0  0  0  0  0  0  0  0  0
   42.7710   34.2090   38.6080 N   0  0  0  0  0  0  0  0  0  0  0  0
   44.0740   34.0590   38.2380 C   0  0  0  0  0  0  0  0  0  0  0  0
   44.5930   32.8420   38.1420 N   0  0  0  0  0  0  0  0  0  0  0  0
   44.2100   30.7370   38.3470 H   0  0  0  0  0  0  0  0  0  0  0  0
   41.8560   31.0380   39.0150 H   0  0  0  0  0  0  0  0  0  0  0  0
   44.6210   34.9790   38.0380 H   0  0  0  0  0  0  0  0  0  0  0  0
   36.8150   29.5280   38.6540 O   0  0  0  0  0  0  0  0  0  0  0  0
   37.0920   27.3800   37.3070 O   0  0  0  0  0  0  0  0  0  0  0  0
   37.7030   28.0890   38.5130 P   0  0  1  0  0  0  0  0  0  0  0  0
   39.2990   28.4560   38.0840 O   0  0  0  0  0  0  0  0  0  0  0  0
   39.8690   27.6830   38.3170 H   0  0  0  0  0  0  0  0  0  0  0  0
   37.5780   27.0710   39.8130 O   0  0  0  0  0  0  0  0  0  0  0  0
   35.5910   28.3690   41.5120 F   0  0  0  0  0  0  0  0  0  0  0  0
   36.7120   27.8850   42.0850 C   0  0  0  0  0  0  0  0  0  0  0  0
   37.5380   27.3080   41.1520 C   0  0  0  0  0  0  0  0  0  0  0  0
   38.7350   26.7770   41.6690 C   0  0  0  0  0  0  0  0  0  0  0  0
   39.5710   26.2680   41.1790 H   0  0  0  0  0  0  0  0  0  0  0  0
   39.0400   26.8430   43.0370 C   0  0  0  0  0  0  0  0  0  0  0  0
   39.9210   26.4710   43.5350 H   0  0  0  0  0  0  0  0  0  0  0  0
   38.1580   27.4390   43.9140 C   0  0  0  0  0  3  0  0  0  0  0  0
   36.9800   27.9650   43.4290 C   0  0  0  0  0  3  0  0  0  0  0  0
  1  4  1  6  0  0  0
  1 12  1  0  0  0  0
  1  3  1  0  0  0  0
  1  2  1  0  0  0  0
  2  5  1  0  0  0  0
  3  7  1  1  0  0  0
  3  2  1  0  0  0  0
  6  2  1  0  0  0  0
  8  9  1  0  0  0  0
  9 14  1  0  0  0  0
  9 10  2  0  0  0  0
 10 15  1  0  0  0  0
 11 10  1  0  0  0  0
 11 16  1  0  0  0  0
 12 11  2  0  0  0  0
 13  8  2  0  0  0  0
 13 12  1  0  0  0  0
 17 18  1  0  0  0  0
 18 19  2  0  0  0  0
 18 24  1  0  0  0  0
 19  8  1  0  0  0  0
 20 19  1  0  0  0  0
 21 20  2  0  0  0  0
 22 21  1  0  0  0  0
 22 17  2  0  0  0  0
 23 17  1  0  0  0  0
 25 21  1  0  0  0  0
 26  3  1  0  0  0  0
 28 27  2  6  0  0  0
 28 26  1  0  0  0  0
 28 31  1  0  0  0  0
 29 30  1  0  0  0  0
 29 28  1  0  0  0  0
 31 34  1  0  0  0  0
 32 33  1  0  0  0  0
 33 40  1  0  0  0  0
 34 35  1  0  0  0  0
 34 33  2  0  0  0  0
 35 37  2  0  0  0  0
 36 35  1  0  0  0  0
 37 38  1  0  0  0  0
 37 39  1  0  0  0  0
 40 39  2  0  0  0  0
M  END
>  <minimizedAffinity>
-5.76992846

$$$$

 OpenBabel03242521093D

 40 43  0  0  1  0  0  0  0  0999 V2000
   37.2980   27.7550   42.7150 C   0  0  2  0  0  0  0  0  0  0  0  0
   37.0650   28.0470   44.1490 C   0  0  0  0  0  0  0  0  0  0  0  0
   38.4710   27.9030   43.5570 C   0  0  1  0  0  0  0  0  0  0  0  0
   37.1010   26.6890   42.3790 H   0  0  0  0  0  0  0  0  0  0  0  0
   36.7010   29.0130   44.4970 H   0  0  0  0  0  0  0  0  0  0  0  0
   36.7610   27.1860   44.7830 H   0  0  0  0  0  0  0  0  0  0  0  0
   39.0100   28.8450   43.7330 H   0  0  0  0  0  0  0  0  0  0  0  0
   37.4640   30.8270   40.6880 C   0  0  0  0  0  0  0  0  0  0  0  0
   36.2760   30.6560   40.0010 C   0  0  0  0  0  0  0  0  0  0  0  0
   35.4090   29.5900   40.1530 C   0  0  0  0  0  0  0  0  0  0  0  0
   35.7610   28.6150   41.0680 C   0  0  0  0  0  0  0  0  0  0  0  0
   36.9390   28.8020   41.7360 C   0  0  0  0  0  0  0  0  0  0  0  0
   37.7300   29.8460   41.5480 N   0  0  0  0  0  0  0  0  0  0  0  0
   35.9700   31.4120   39.2700 H   0  0  0  0  0  0  0  0  0  0  0  0
   34.5020   29.5300   39.5800 H   0  0  0  0  0  0  0  0  0  0  0  0
   35.0880   27.7790   41.1900 H   0  0  0  0  0  0  0  0  0  0  0  0
   40.4070   33.1230   40.2220 C   0  0  0  0  0  0  0  0  0  0  0  0
   39.7210   31.9170   40.4320 C   0  0  0  0  0  0  0  0  0  0  0  0
   38.3400   31.9760   40.4790 C   0  0  0  0  0  0  0  0  0  0  0  0
   37.7280   33.1720   40.3240 N   0  0  0  0  0  0  0  0  0  0  0  0
   38.4330   34.3210   40.1230 C   0  0  0  0  0  0  0  0  0  0  0  0
   39.7580   34.2770   40.0760 N   0  0  0  0  0  0  0  0  0  0  0  0
   41.4900   33.0090   40.1960 H   0  0  0  0  0  0  0  0  0  0  0  0
   40.1870   30.9470   40.5590 H   0  0  0  0  0  0  0  0  0  0  0  0
   37.8430   35.2290   40.0100 H   0  0  0  0  0  0  0  0  0  0  0  0
   39.1940   26.7750   43.9750 O   0  0  0  0  0  0  0  0  0  0  0  0
   41.6300   26.0210   44.0550 O   0  0  0  0  0  0  0  0  0  0  0  0
   40.5940   26.5230   43.0510 P   0  0  1  0  0  0  0  0  0  0  0  0
   40.3300   25.2470   41.9700 O   0  0  0  0  0  0  0  0  0  0  0  0
   40.9920   25.3160   41.2410 H   0  0  0  0  0  0  0  0  0  0  0  0
   41.2050   27.8870   42.3380 O   0  0  0  0  0  0  0  0  0  0  0  0
   44.0360   27.6470   43.0020 F   0  0  0  0  0  0  0  0  0  0  0  0
   43.4500   28.8570   43.1070 C   0  0  0  0  0  0  0  0  0  0  0  0
   42.1230   28.7980   42.7590 C   0  0  0  0  0  0  0  0  0  0  0  0
   41.4350   30.0240   42.8410 C   0  0  0  0  0  0  0  0  0  0  0  0
   40.3920   30.2830   42.6330 H   0  0  0  0  0  0  0  0  0  0  0  0
   42.0770   31.2030   43.2490 C   0  0  0  0  0  0  0  0  0  0  0  0
   41.6480   32.1870   43.3460 H   0  0  0  0  0  0  0  0  0  0  0  0
   43.4150   31.1820   43.5820 C   0  0  0  0  0  3  0  0  0  0  0  0
   44.1080   29.9930   43.5080 C   0  0  0  0  0  3  0  0  0  0  0  0
  1  4  1  6  0  0  0
  1  3  1  0  0  0  0
  1  2  1  0  0  0  0
  2  5  1  0  0  0  0
  2  6  1  0  0  0  0
  3  7  1  6  0  0  0
  3 26  1  0  0  0  0
  3  2  1  0  0  0  0
  8 13  1  0  0  0  0
  9 10  1  0  0  0  0
  9  8  2  0  0  0  0
 10 11  2  0  0  0  0
 11 16  1  0  0  0  0
 11 12  1  0  0  0  0
 12  1  1  0  0  0  0
 13 12  2  0  0  0  0
 14  9  1  0  0  0  0
 15 10  1  0  0  0  0
 17 18  1  0  0  0  0
 18 19  2  0  0  0  0
 18 24  1  0  0  0  0
 19  8  1  0  0  0  0
 20 19  1  0  0  0  0
 21 20  2  0  0  0  0
 22 21  1  0  0  0  0
 22 17  2  0  0  0  0
 23 17  1  0  0  0  0
 25 21  1  0  0  0  0
 28 26  1  0  0  0  0
 28 27  2  1  0  0  0
 29 28  1  0  0  0  0
 30 29  1  0  0  0  0
 31 34  1  0  0  0  0
 31 28  1  0  0  0  0
 32 33  1  0  0  0  0
 33 40  1  0  0  0  0
 34 35  1  0  0  0  0
 34 33  2  0  0  0  0
 35 37  2  0  0  0  0
 36 35  1  0  0  0  0
 37 38  1  0  0  0  0
 37 39  1  0  0  0  0
 40 39  2  0  0  0  0
M  END
>  <minimizedAffinity>
-5.76873684

$$$$
