
 OpenBabel03242514583D

 25 26  0  0  0  0  0  0  0  0999 V2000
   36.3450   28.2810   40.8310 C   0  0  0  0  0  0  0  0  0  0  0  0
   37.4090   28.2110   40.4570 H   0  0  0  0  0  0  0  0  0  0  0  0
   35.7790   27.5850   40.1850 H   0  0  0  0  0  0  0  0  0  0  0  0
   36.3510   27.7860   42.2440 C   0  0  0  0  0  0  0  0  0  0  0  0
   36.4450   28.6650   42.9170 H   0  0  0  0  0  0  0  0  0  0  0  0
   35.3640   27.3180   42.4840 H   0  0  0  0  0  0  0  0  0  0  0  0
   38.4800   28.7490   43.6800 F   0  0  0  0  0  0  0  0  0  0  0  0
   38.4760   27.4520   43.2880 C   0  0  0  0  0  0  0  0  0  0  0  0
   37.4560   26.8500   42.5590 C   0  0  0  0  0  0  0  0  0  0  0  0
   37.4840   25.5330   42.1790 C   0  0  0  0  0  0  0  0  0  0  0  0
   36.6670   25.1310   41.6180 H   0  0  0  0  0  0  0  0  0  0  0  0
   38.6010   24.7870   42.5570 C   0  0  0  0  0  0  0  0  0  0  0  0
   38.6610   23.7380   42.2740 H   0  0  0  0  0  0  0  0  0  0  0  0
   39.6160   25.3680   43.2770 C   0  0  0  0  0  3  0  0  0  0  0  0
   39.5830   26.6960   43.6580 C   0  0  0  0  0  3  0  0  0  0  0  0
   35.8230   29.9560   40.5810 S   0  0  0  0  0  0  0  0  0  0  0  0
   37.1610   31.1480   40.6560 C   0  0  0  0  0  0  0  0  0  0  0  0
   36.9640   32.3260   39.9270 C   0  0  0  0  0  0  0  0  0  0  0  0
   37.9610   33.3040   39.9350 C   0  0  0  0  0  0  0  0  0  0  0  0
   39.0930   33.0510   40.6660 N   0  0  0  0  0  0  0  0  0  0  0  0
   39.2540   31.9090   41.3580 C   0  0  0  0  0  0  0  0  0  0  0  0
   38.3080   30.9690   41.3570 N   0  0  0  0  0  0  0  0  0  0  0  0
   36.0740   32.5300   39.3490 H   0  0  0  0  0  0  0  0  0  0  0  0
   37.8440   34.2280   39.3830 H   0  0  0  0  0  0  0  0  0  0  0  0
   40.1680   31.7270   41.9370 H   0  0  0  0  0  0  0  0  0  0  0  0
  1  4  1  0  0  0  0
  2  1  1  0  0  0  0
  3  1  1  0  0  0  0
  4  6  1  0  0  0  0
  4  9  1  0  0  0  0
  4  5  1  0  0  0  0
  8 15  1  0  0  0  0
  8  7  1  0  0  0  0
  9  8  2  0  0  0  0
 10 12  2  0  0  0  0
 10  9  1  0  0  0  0
 11 10  1  0  0  0  0
 12 14  1  0  0  0  0
 13 12  1  0  0  0  0
 14 15  2  0  0  0  0
 16 17  1  0  0  0  0
 16  1  1  0  0  0  0
 17 22  1  0  0  0  0
 18 19  1  0  0  0  0
 18 17  2  0  0  0  0
 19 20  2  0  0  0  0
 20 21  1  0  0  0  0
 21 25  1  0  0  0  0
 22 21  2  0  0  0  0
 23 18  1  0  0  0  0
 24 19  1  0  0  0  0
M  END
>  <minimizedAffinity>
-4.72828245

$$$$

 OpenBabel03242514583D

 25 26  0  0  0  0  0  0  0  0999 V2000
   36.3020   28.0050   40.6470 C   0  0  0  0  0  0  0  0  0  0  0  0
   35.6990   27.0850   40.3910 H   0  0  0  0  0  0  0  0  0  0  0  0
   37.2010   27.9320   40.0080 H   0  0  0  0  0  0  0  0  0  0  0  0
   35.4750   29.1870   40.2440 C   0  0  0  0  0  0  0  0  0  0  0  0
   34.8640   28.8960   39.3630 H   0  0  0  0  0  0  0  0  0  0  0  0
   34.7470   29.4330   41.0570 H   0  0  0  0  0  0  0  0  0  0  0  0
   36.1810   29.5040   37.6130 F   0  0  0  0  0  0  0  0  0  0  0  0
   36.5600   30.4370   38.5190 C   0  0  0  0  0  0  0  0  0  0  0  0
   36.2630   30.3870   39.8770 C   0  0  0  0  0  0  0  0  0  0  0  0
   36.6630   31.3510   40.7670 C   0  0  0  0  0  0  0  0  0  0  0  0
   36.4010   31.2520   41.7990 H   0  0  0  0  0  0  0  0  0  0  0  0
   37.4000   32.4190   40.2570 C   0  0  0  0  0  0  0  0  0  0  0  0
   37.7370   33.2040   40.9310 H   0  0  0  0  0  0  0  0  0  0  0  0
   37.7020   32.4820   38.9190 C   0  0  0  0  0  3  0  0  0  0  0  0
   37.2960   31.5090   38.0250 C   0  0  0  0  0  3  0  0  0  0  0  0
   36.7230   27.8820   42.3640 S   0  0  0  0  0  0  0  0  0  0  0  0
   37.9500   26.6230   42.7170 C   0  0  0  0  0  0  0  0  0  0  0  0
   37.7000   25.3610   42.1650 C   0  0  0  0  0  0  0  0  0  0  0  0
   38.6090   24.3270   42.3960 C   0  0  0  0  0  0  0  0  0  0  0  0
   39.7110   24.6080   43.1610 N   0  0  0  0  0  0  0  0  0  0  0  0
   39.9250   25.8310   43.6780 C   0  0  0  0  0  0  0  0  0  0  0  0
   39.0630   26.8260   43.4640 N   0  0  0  0  0  0  0  0  0  0  0  0
   36.8330   25.1340   41.5610 H   0  0  0  0  0  0  0  0  0  0  0  0
   38.4480   23.3380   41.9850 H   0  0  0  0  0  0  0  0  0  0  0  0
   40.8150   26.0340   44.2890 H   0  0  0  0  0  0  0  0  0  0  0  0
  1 16  1  0  0  0  0
  2  1  1  0  0  0  0
  3  1  1  0  0  0  0
  4  1  1  0  0  0  0
  4  6  1  0  0  0  0
  5  4  1  0  0  0  0
  7  8  1  0  0  0  0
  8  9  1  0  0  0  0
  9  4  1  0  0  0  0
  9 10  2  0  0  0  0
 10 11  1  0  0  0  0
 12 10  1  0  0  0  0
 12 13  1  0  0  0  0
 14 12  2  0  0  0  0
 15  8  2  0  0  0  0
 15 14  1  0  0  0  0
 16 17  1  0  0  0  0
 17 22  1  0  0  0  0
 18 19  1  0  0  0  0
 18 17  2  0  0  0  0
 19 20  2  0  0  0  0
 20 21  1  0  0  0  0
 21 25  1  0  0  0  0
 22 21  2  0  0  0  0
 23 18  1  0  0  0  0
 24 19  1  0  0  0  0
M  END
>  <minimizedAffinity>
-4.63974714

$$$$

 OpenBabel03242514583D

 25 26  0  0  0  0  0  0  0  0999 V2000
   39.6860   29.0610   42.1770 C   0  0  0  0  0  0  0  0  0  0  0  0
   40.7380   28.6880   42.3550 H   0  0  0  0  0  0  0  0  0  0  0  0
   39.4490   28.7380   41.1460 H   0  0  0  0  0  0  0  0  0  0  0  0
   38.8060   28.3490   43.1580 C   0  0  0  0  0  0  0  0  0  0  0  0
   39.2450   28.4740   44.1700 H   0  0  0  0  0  0  0  0  0  0  0  0
   37.8040   28.8460   43.1930 H   0  0  0  0  0  0  0  0  0  0  0  0
   36.4080   27.4660   42.1610 F   0  0  0  0  0  0  0  0  0  0  0  0
   37.3980   26.5720   42.3990 C   0  0  0  0  0  0  0  0  0  0  0  0
   38.6540   26.8990   42.9020 C   0  0  0  0  0  0  0  0  0  0  0  0
   39.6330   25.9660   43.1300 C   0  0  0  0  0  0  0  0  0  0  0  0
   40.5780   26.2840   43.5180 H   0  0  0  0  0  0  0  0  0  0  0  0
   39.3270   24.6380   42.8340 C   0  0  0  0  0  0  0  0  0  0  0  0
   40.0780   23.8690   43.0030 H   0  0  0  0  0  0  0  0  0  0  0  0
   38.0920   24.3010   42.3380 C   0  0  0  0  0  3  0  0  0  0  0  0
   37.1070   25.2440   42.1090 C   0  0  0  0  0  3  0  0  0  0  0  0
   39.7420   30.8280   42.2990 S   0  0  0  0  0  0  0  0  0  0  0  0
   38.6820   31.6660   41.1200 C   0  0  0  0  0  0  0  0  0  0  0  0
   38.9710   33.0180   40.9000 C   0  0  0  0  0  0  0  0  0  0  0  0
   38.1900   33.7400   39.9960 C   0  0  0  0  0  0  0  0  0  0  0  0
   37.1690   33.0770   39.3660 N   0  0  0  0  0  0  0  0  0  0  0  0
   36.9150   31.7760   39.5970 C   0  0  0  0  0  0  0  0  0  0  0  0
   37.6550   31.0770   40.4590 N   0  0  0  0  0  0  0  0  0  0  0  0
   39.7740   33.5460   41.3930 H   0  0  0  0  0  0  0  0  0  0  0  0
   38.3840   34.7880   39.8000 H   0  0  0  0  0  0  0  0  0  0  0  0
   36.0920   31.2650   39.0820 H   0  0  0  0  0  0  0  0  0  0  0  0
  1 16  1  0  0  0  0
  1  2  1  0  0  0  0
  1  4  1  0  0  0  0
  3  1  1  0  0  0  0
  4  6  1  0  0  0  0
  4  5  1  0  0  0  0
  7  8  1  0  0  0  0
  8  9  1  0  0  0  0
  9 10  2  0  0  0  0
  9  4  1  0  0  0  0
 10 11  1  0  0  0  0
 12 13  1  0  0  0  0
 12 10  1  0  0  0  0
 14 12  2  0  0  0  0
 15 14  1  0  0  0  0
 15  8  2  0  0  0  0
 17 16  1  0  0  0  0
 18 17  1  0  0  0  0
 18 23  1  0  0  0  0
 19 18  2  0  0  0  0
 20 21  2  0  0  0  0
 20 19  1  0  0  0  0
 21 22  1  0  0  0  0
 22 17  2  0  0  0  0
 24 19  1  0  0  0  0
 25 21  1  0  0  0  0
M  END
>  <minimizedAffinity>
-4.55593681

$$$$

 OpenBabel03242514583D

 25 26  0  0  0  0  0  0  0  0999 V2000
   35.9720   29.8330   39.6780 C   0  0  0  0  0  0  0  0  0  0  0  0
   36.1560   28.7220   39.5940 H   0  0  0  0  0  0  0  0  0  0  0  0
   34.8930   29.9510   39.4660 H   0  0  0  0  0  0  0  0  0  0  0  0
   36.2650   30.2120   41.0970 C   0  0  0  0  0  0  0  0  0  0  0  0
   36.9010   31.1220   41.0870 H   0  0  0  0  0  0  0  0  0  0  0  0
   35.3160   30.5040   41.6120 H   0  0  0  0  0  0  0  0  0  0  0  0
   38.7360   30.8260   42.1160 F   0  0  0  0  0  0  0  0  0  0  0  0
   38.2140   29.5960   42.3380 C   0  0  0  0  0  0  0  0  0  0  0  0
   36.9740   29.1690   41.8740 C   0  0  0  0  0  0  0  0  0  0  0  0
   36.4760   27.9150   42.1180 C   0  0  0  0  0  0  0  0  0  0  0  0
   35.5140   27.6480   41.7320 H   0  0  0  0  0  0  0  0  0  0  0  0
   37.2720   27.0500   42.8690 C   0  0  0  0  0  0  0  0  0  0  0  0
   36.9120   26.0460   43.0830 H   0  0  0  0  0  0  0  0  0  0  0  0
   38.4980   27.4580   43.3330 C   0  0  0  0  0  3  0  0  0  0  0  0
   38.9970   28.7230   43.0850 C   0  0  0  0  0  3  0  0  0  0  0  0
   36.9600   30.6120   38.4300 S   0  0  0  0  0  0  0  0  0  0  0  0
   38.0050   31.9290   39.0540 C   0  0  0  0  0  0  0  0  0  0  0  0
   37.3380   33.0900   39.4630 C   0  0  0  0  0  0  0  0  0  0  0  0
   38.0830   34.1610   39.9600 C   0  0  0  0  0  0  0  0  0  0  0  0
   39.4440   34.0150   40.0210 N   0  0  0  0  0  0  0  0  0  0  0  0
   40.0580   32.8870   39.6200 C   0  0  0  0  0  0  0  0  0  0  0  0
   39.3560   31.8580   39.1440 N   0  0  0  0  0  0  0  0  0  0  0  0
   36.2650   33.2100   39.4170 H   0  0  0  0  0  0  0  0  0  0  0  0
   37.6010   35.0750   40.2860 H   0  0  0  0  0  0  0  0  0  0  0  0
   41.1500   32.7910   39.6780 H   0  0  0  0  0  0  0  0  0  0  0  0
  1  4  1  0  0  0  0
  2  1  1  0  0  0  0
  3  1  1  0  0  0  0
  4  6  1  0  0  0  0
  4  9  1  0  0  0  0
  5  4  1  0  0  0  0
  7  8  1  0  0  0  0
  8 15  1  0  0  0  0
  9 10  1  0  0  0  0
  9  8  2  0  0  0  0
 10 12  2  0  0  0  0
 11 10  1  0  0  0  0
 12 13  1  0  0  0  0
 12 14  1  0  0  0  0
 15 14  2  0  0  0  0
 16 17  1  0  0  0  0
 16  1  1  0  0  0  0
 17 22  2  0  0  0  0
 17 18  1  0  0  0  0
 18 19  2  0  0  0  0
 19 20  1  0  0  0  0
 19 24  1  0  0  0  0
 21 25  1  0  0  0  0
 21 20  2  0  0  0  0
 22 21  1  0  0  0  0
 23 18  1  0  0  0  0
M  END
>  <minimizedAffinity>
-4.55512285

$$$$

 OpenBabel03242514583D

 25 26  0  0  0  0  0  0  0  0999 V2000
   38.0320   29.8180   41.8770 C   0  0  0  0  0  0  0  0  0  0  0  0
   38.4330   29.1710   41.0420 H   0  0  0  0  0  0  0  0  0  0  0  0
   38.8760   30.4830   42.1400 H   0  0  0  0  0  0  0  0  0  0  0  0
   36.9050   30.6170   41.2990 C   0  0  0  0  0  0  0  0  0  0  0  0
   36.0140   30.4740   41.9460 H   0  0  0  0  0  0  0  0  0  0  0  0
   37.1520   31.7070   41.3490 H   0  0  0  0  0  0  0  0  0  0  0  0
   34.8190   28.8680   40.9690 F   0  0  0  0  0  0  0  0  0  0  0  0
   35.4630   29.3460   39.8770 C   0  0  0  0  0  0  0  0  0  0  0  0
   36.5320   30.2360   39.9170 C   0  0  0  0  0  0  0  0  0  0  0  0
   37.1620   30.7000   38.7910 C   0  0  0  0  0  0  0  0  0  0  0  0
   37.9790   31.3840   38.8910 H   0  0  0  0  0  0  0  0  0  0  0  0
   36.6850   30.2420   37.5620 C   0  0  0  0  0  0  0  0  0  0  0  0
   37.1590   30.5860   36.6450 H   0  0  0  0  0  0  0  0  0  0  0  0
   35.6310   29.3630   37.5080 C   0  0  0  0  0  3  0  0  0  0  0  0
   35.0000   28.8980   38.6450 C   0  0  0  0  0  3  0  0  0  0  0  0
   37.6280   28.7330   43.2180 S   0  0  0  0  0  0  0  0  0  0  0  0
   38.2560   27.0660   43.0120 C   0  0  0  0  0  0  0  0  0  0  0  0
   39.4540   26.7830   43.6780 C   0  0  0  0  0  0  0  0  0  0  0  0
   40.0070   25.5060   43.5660 C   0  0  0  0  0  0  0  0  0  0  0  0
   39.3380   24.5880   42.7990 N   0  0  0  0  0  0  0  0  0  0  0  0
   38.1880   24.8890   42.1700 C   0  0  0  0  0  0  0  0  0  0  0  0
   37.6510   26.1060   42.2700 N   0  0  0  0  0  0  0  0  0  0  0  0
   39.9860   27.5020   44.2840 H   0  0  0  0  0  0  0  0  0  0  0  0
   40.9330   25.2510   44.0670 H   0  0  0  0  0  0  0  0  0  0  0  0
   37.6680   24.1390   41.5600 H   0  0  0  0  0  0  0  0  0  0  0  0
  1  3  1  0  0  0  0
  1 16  1  0  0  0  0
  2  1  1  0  0  0  0
  4  6  1  0  0  0  0
  4  1  1  0  0  0  0
  4  5  1  0  0  0  0
  8  9  1  0  0  0  0
  8  7  1  0  0  0  0
  9  4  1  0  0  0  0
 10 11  1  0  0  0  0
 10  9  2  0  0  0  0
 12 10  1  0  0  0  0
 13 12  1  0  0  0  0
 14 12  2  0  0  0  0
 14 15  1  0  0  0  0
 15  8  2  0  0  0  0
 17 16  1  0  0  0  0
 17 18  1  0  0  0  0
 18 23  1  0  0  0  0
 19 18  2  0  0  0  0
 19 24  1  0  0  0  0
 20 19  1  0  0  0  0
 21 22  1  0  0  0  0
 21 20  2  0  0  0  0
 22 17  2  0  0  0  0
 25 21  1  0  0  0  0
M  END
>  <minimizedAffinity>
-4.4746213

$$$$

 OpenBabel03242514583D

 25 26  0  0  0  0  0  0  0  0999 V2000
   36.8800   29.2230   42.1880 C   0  0  0  0  0  0  0  0  0  0  0  0
   36.0530   29.2980   42.9540 H   0  0  0  0  0  0  0  0  0  0  0  0
   37.7990   29.4740   42.7490 H   0  0  0  0  0  0  0  0  0  0  0  0
   36.9220   27.7950   41.7390 C   0  0  0  0  0  0  0  0  0  0  0  0
   35.9490   27.3240   41.9940 H   0  0  0  0  0  0  0  0  0  0  0  0
   37.0020   27.7530   40.6240 H   0  0  0  0  0  0  0  0  0  0  0  0
   36.9510   25.0960   41.2520 F   0  0  0  0  0  0  0  0  0  0  0  0
   37.9060   25.6380   42.0450 C   0  0  0  0  0  0  0  0  0  0  0  0
   37.9960   26.9890   42.3640 C   0  0  0  0  0  0  0  0  0  0  0  0
   38.9780   27.5040   43.1700 C   0  0  0  0  0  0  0  0  0  0  0  0
   38.9910   28.5530   43.3770 H   0  0  0  0  0  0  0  0  0  0  0  0
   39.9170   26.6060   43.6800 C   0  0  0  0  0  0  0  0  0  0  0  0
   40.7110   26.9760   44.3250 H   0  0  0  0  0  0  0  0  0  0  0  0
   39.8410   25.2700   43.3740 C   0  0  0  0  0  3  0  0  0  0  0  0
   38.8490   24.7550   42.5600 C   0  0  0  0  0  3  0  0  0  0  0  0
   36.5370   30.4350   40.9420 S   0  0  0  0  0  0  0  0  0  0  0  0
   37.8360   31.6550   40.7450 C   0  0  0  0  0  0  0  0  0  0  0  0
   39.1270   31.2230   41.0710 C   0  0  0  0  0  0  0  0  0  0  0  0
   40.1940   32.1150   40.9440 C   0  0  0  0  0  0  0  0  0  0  0  0
   39.9140   33.3820   40.5020 N   0  0  0  0  0  0  0  0  0  0  0  0
   38.6620   33.7690   40.1950 C   0  0  0  0  0  0  0  0  0  0  0  0
   37.6370   32.9240   40.3130 N   0  0  0  0  0  0  0  0  0  0  0  0
   39.3540   30.2260   41.4200 H   0  0  0  0  0  0  0  0  0  0  0  0
   41.2060   31.8160   41.1880 H   0  0  0  0  0  0  0  0  0  0  0  0
   38.4610   34.7880   39.8420 H   0  0  0  0  0  0  0  0  0  0  0  0
  1  3  1  0  0  0  0
  1  2  1  0  0  0  0
  4  5  1  0  0  0  0
  4  1  1  0  0  0  0
  4  9  1  0  0  0  0
  6  4  1  0  0  0  0
  7  8  1  0  0  0  0
  8  9  2  0  0  0  0
  8 15  1  0  0  0  0
  9 10  1  0  0  0  0
 10 11  1  0  0  0  0
 10 12  2  0  0  0  0
 12 13  1  0  0  0  0
 14 12  1  0  0  0  0
 15 14  2  0  0  0  0
 16  1  1  0  0  0  0
 17 16  1  0  0  0  0
 17 18  1  0  0  0  0
 18 23  1  0  0  0  0
 19 18  2  0  0  0  0
 19 24  1  0  0  0  0
 20 19  1  0  0  0  0
 21 22  1  0  0  0  0
 21 20  2  0  0  0  0
 22 17  2  0  0  0  0
 25 21  1  0  0  0  0
M  END
>  <minimizedAffinity>
-4.40229797

$$$$

 OpenBabel03242514583D

 25 26  0  0  0  0  0  0  0  0999 V2000
   36.8760   28.5460   38.6020 C   0  0  0  0  0  0  0  0  0  0  0  0
   37.7810   27.9380   38.8970 H   0  0  0  0  0  0  0  0  0  0  0  0
   36.3370   27.9060   37.8790 H   0  0  0  0  0  0  0  0  0  0  0  0
   36.0570   28.7290   39.8420 C   0  0  0  0  0  0  0  0  0  0  0  0
   35.8900   29.8170   39.9880 H   0  0  0  0  0  0  0  0  0  0  0  0
   35.0440   28.2780   39.6950 H   0  0  0  0  0  0  0  0  0  0  0  0
   36.6810   30.5010   41.8400 F   0  0  0  0  0  0  0  0  0  0  0  0
   36.9540   29.1860   42.0110 C   0  0  0  0  0  0  0  0  0  0  0  0
   36.6850   28.1940   41.0730 C   0  0  0  0  0  0  0  0  0  0  0  0
   36.9760   26.8700   41.2800 C   0  0  0  0  0  0  0  0  0  0  0  0
   36.7430   26.1570   40.5170 H   0  0  0  0  0  0  0  0  0  0  0  0
   37.5680   26.5320   42.4970 C   0  0  0  0  0  0  0  0  0  0  0  0
   37.8140   25.4920   42.6980 H   0  0  0  0  0  0  0  0  0  0  0  0
   37.8390   27.5000   43.4320 C   0  0  0  0  0  3  0  0  0  0  0  0
   37.5450   28.8340   43.2190 C   0  0  0  0  0  3  0  0  0  0  0  0
   37.4800   30.0210   37.8270 S   0  0  0  0  0  0  0  0  0  0  0  0
   38.0160   31.2780   38.9870 C   0  0  0  0  0  0  0  0  0  0  0  0
   37.2330   32.4380   39.0270 C   0  0  0  0  0  0  0  0  0  0  0  0
   37.5860   33.4650   39.9050 C   0  0  0  0  0  0  0  0  0  0  0  0
   38.6950   33.2780   40.6890 N   0  0  0  0  0  0  0  0  0  0  0  0
   39.4280   32.1520   40.6280 C   0  0  0  0  0  0  0  0  0  0  0  0
   39.0990   31.1650   39.7930 N   0  0  0  0  0  0  0  0  0  0  0  0
   36.3580   32.5910   38.4110 H   0  0  0  0  0  0  0  0  0  0  0  0
   37.0050   34.3770   39.9630 H   0  0  0  0  0  0  0  0  0  0  0  0
   40.3130   32.0230   41.2650 H   0  0  0  0  0  0  0  0  0  0  0  0
  1  2  1  0  0  0  0
  1  4  1  0  0  0  0
  3  1  1  0  0  0  0
  4  5  1  0  0  0  0
  4  9  1  0  0  0  0
  6  4  1  0  0  0  0
  7  8  1  0  0  0  0
  8 15  1  0  0  0  0
  9 10  1  0  0  0  0
  9  8  2  0  0  0  0
 10 12  2  0  0  0  0
 11 10  1  0  0  0  0
 12 13  1  0  0  0  0
 12 14  1  0  0  0  0
 15 14  2  0  0  0  0
 16  1  1  0  0  0  0
 16 17  1  0  0  0  0
 17 18  2  0  0  0  0
 17 22  1  0  0  0  0
 18 19  1  0  0  0  0
 19 24  1  0  0  0  0
 19 20  2  0  0  0  0
 21 20  1  0  0  0  0
 21 25  1  0  0  0  0
 22 21  2  0  0  0  0
 23 18  1  0  0  0  0
M  END
>  <minimizedAffinity>
-4.34685326

$$$$

 OpenBabel03242514583D

 25 26  0  0  0  0  0  0  0  0999 V2000
   35.8170   27.7680   38.7980 C   0  0  0  0  0  0  0  0  0  0  0  0
   34.8930   27.1430   38.6210 H   0  0  0  0  0  0  0  0  0  0  0  0
   36.2260   27.9480   37.7860 H   0  0  0  0  0  0  0  0  0  0  0  0
   35.3540   29.0570   39.4040 C   0  0  0  0  0  0  0  0  0  0  0  0
   34.3480   29.2890   38.9950 H   0  0  0  0  0  0  0  0  0  0  0  0
   35.2170   28.9260   40.5070 H   0  0  0  0  0  0  0  0  0  0  0  0
   35.9220   30.7610   41.4770 F   0  0  0  0  0  0  0  0  0  0  0  0
   36.4510   31.0040   40.2540 C   0  0  0  0  0  0  0  0  0  0  0  0
   36.2370   30.2140   39.1290 C   0  0  0  0  0  0  0  0  0  0  0  0
   36.7900   30.4900   37.9050 C   0  0  0  0  0  0  0  0  0  0  0  0
   36.5850   29.8420   37.0790 H   0  0  0  0  0  0  0  0  0  0  0  0
   37.6000   31.6220   37.8150 C   0  0  0  0  0  0  0  0  0  0  0  0
   38.0560   31.8750   36.8600 H   0  0  0  0  0  0  0  0  0  0  0  0
   37.8200   32.4110   38.9170 C   0  0  0  0  0  3  0  0  0  0  0  0
   37.2610   32.1290   40.1490 C   0  0  0  0  0  3  0  0  0  0  0  0
   36.9230   26.7860   39.7720 S   0  0  0  0  0  0  0  0  0  0  0  0
   37.4150   27.5650   41.3110 C   0  0  0  0  0  0  0  0  0  0  0  0
   38.6100   28.2940   41.2660 C   0  0  0  0  0  0  0  0  0  0  0  0
   39.0610   28.9290   42.4250 C   0  0  0  0  0  0  0  0  0  0  0  0
   38.2990   28.8020   43.5570 N   0  0  0  0  0  0  0  0  0  0  0  0
   37.1550   28.0940   43.5700 C   0  0  0  0  0  0  0  0  0  0  0  0
   36.7150   27.4840   42.4690 N   0  0  0  0  0  0  0  0  0  0  0  0
   39.2140   28.3970   40.3770 H   0  0  0  0  0  0  0  0  0  0  0  0
   39.9800   29.5010   42.4280 H   0  0  0  0  0  0  0  0  0  0  0  0
   36.5600   28.0050   44.4880 H   0  0  0  0  0  0  0  0  0  0  0  0
  1  4  1  0  0  0  0
  1 16  1  0  0  0  0
  2  1  1  0  0  0  0
  3  1  1  0  0  0  0
  4  6  1  0  0  0  0
  5  4  1  0  0  0  0
  8  7  1  0  0  0  0
  9  4  1  0  0  0  0
  9  8  2  0  0  0  0
 10  9  1  0  0  0  0
 11 10  1  0  0  0  0
 12 10  2  0  0  0  0
 12 14  1  0  0  0  0
 13 12  1  0  0  0  0
 14 15  2  0  0  0  0
 15  8  1  0  0  0  0
 16 17  1  0  0  0  0
 17 22  1  0  0  0  0
 18 17  2  0  0  0  0
 18 19  1  0  0  0  0
 19 24  1  0  0  0  0
 19 20  2  0  0  0  0
 20 21  1  0  0  0  0
 21 25  1  0  0  0  0
 22 21  2  0  0  0  0
 23 18  1  0  0  0  0
M  END
>  <minimizedAffinity>
-4.30212688

$$$$

 OpenBabel03242514583D

 25 26  0  0  0  0  0  0  0  0999 V2000
   39.0370   29.7810   42.7190 C   0  0  0  0  0  0  0  0  0  0  0  0
   39.3100   30.5520   43.4990 H   0  0  0  0  0  0  0  0  0  0  0  0
   40.0000   29.3060   42.4530 H   0  0  0  0  0  0  0  0  0  0  0  0
   38.1400   28.7880   43.3910 C   0  0  0  0  0  0  0  0  0  0  0  0
   38.1420   29.0040   44.4810 H   0  0  0  0  0  0  0  0  0  0  0  0
   37.0860   28.9410   43.0490 H   0  0  0  0  0  0  0  0  0  0  0  0
   36.3770   27.1070   42.1330 F   0  0  0  0  0  0  0  0  0  0  0  0
   37.5690   26.6220   42.5560 C   0  0  0  0  0  0  0  0  0  0  0  0
   38.5430   27.3760   43.2040 C   0  0  0  0  0  0  0  0  0  0  0  0
   39.7400   26.8520   43.6190 C   0  0  0  0  0  0  0  0  0  0  0  0
   40.4470   27.4860   44.1130 H   0  0  0  0  0  0  0  0  0  0  0  0
   39.9640   25.4990   43.3650 C   0  0  0  0  0  0  0  0  0  0  0  0
   40.9020   25.0460   43.6800 H   0  0  0  0  0  0  0  0  0  0  0  0
   39.0120   24.7430   42.7260 C   0  0  0  0  0  3  0  0  0  0  0  0
   37.8060   25.2750   42.3090 C   0  0  0  0  0  3  0  0  0  0  0  0
   38.3540   30.6620   41.3420 S   0  0  0  0  0  0  0  0  0  0  0  0
   37.1020   29.7430   40.4470 C   0  0  0  0  0  0  0  0  0  0  0  0
   37.5810   28.7840   39.5470 C   0  0  0  0  0  0  0  0  0  0  0  0
   36.6680   28.0270   38.8110 C   0  0  0  0  0  0  0  0  0  0  0  0
   35.3340   28.2690   39.0120 N   0  0  0  0  0  0  0  0  0  0  0  0
   34.9020   29.1980   39.8840 C   0  0  0  0  0  0  0  0  0  0  0  0
   35.7660   29.9260   40.5930 N   0  0  0  0  0  0  0  0  0  0  0  0
   38.6320   28.5890   39.3840 H   0  0  0  0  0  0  0  0  0  0  0  0
   37.0020   27.2770   38.1060 H   0  0  0  0  0  0  0  0  0  0  0  0
   33.8280   29.3750   40.0300 H   0  0  0  0  0  0  0  0  0  0  0  0
  1  4  1  0  0  0  0
  1  2  1  0  0  0  0
  3  1  1  0  0  0  0
  4  5  1  0  0  0  0
  6  4  1  0  0  0  0
  7  8  1  0  0  0  0
  8  9  1  0  0  0  0
  9  4  1  0  0  0  0
  9 10  2  0  0  0  0
 10 11  1  0  0  0  0
 12 10  1  0  0  0  0
 12 13  1  0  0  0  0
 14 12  2  0  0  0  0
 15  8  2  0  0  0  0
 15 14  1  0  0  0  0
 16  1  1  0  0  0  0
 17 22  1  0  0  0  0
 17 16  1  0  0  0  0
 18 17  2  0  0  0  0
 19 20  2  0  0  0  0
 19 18  1  0  0  0  0
 20 21  1  0  0  0  0
 21 25  1  0  0  0  0
 21 22  2  0  0  0  0
 23 18  1  0  0  0  0
 24 19  1  0  0  0  0
M  END
>  <minimizedAffinity>
-4.2600708

$$$$
