
 OpenBabel03252501363D

 25 26  0  0  0  0  0  0  0  0999 V2000
   37.8880   28.9120   42.4900 C   0  0  0  0  0  0  0  0  0  0  0  0
   38.3910   30.0360   42.8310 O   0  0  0  0  0  0  0  0  0  0  0  0
   37.4920   28.8710   41.1180 N   0  0  0  0  0  0  0  0  0  0  0  0
   37.0860   28.0290   40.7030 H   0  0  0  0  0  0  0  0  0  0  0  0
   37.7730   30.1750   40.5230 C   0  0  0  0  0  0  0  0  0  0  0  0
   36.9280   31.2540   40.5810 C   0  0  0  0  0  0  0  0  0  0  0  0
   37.3780   32.4130   39.9530 C   0  0  0  0  0  0  0  0  0  0  0  0
   38.5820   32.3900   39.3490 N   0  0  0  0  0  0  0  0  0  0  0  0
   39.3750   31.3060   39.3180 C   0  0  0  0  0  0  0  0  0  0  0  0
   38.9730   30.1600   39.9180 N   0  0  0  0  0  0  0  0  0  0  0  0
   36.7130   33.2640   39.9990 H   0  0  0  0  0  0  0  0  0  0  0  0
   40.3330   31.3620   38.8110 H   0  0  0  0  0  0  0  0  0  0  0  0
   35.7050   31.0900   41.2620 N   0  0  0  0  0  0  0  0  0  0  0  0
   35.0690   30.4270   40.7610 H   0  0  0  0  0  0  0  0  0  0  0  0
   35.3590   31.5140   42.1520 H   0  0  0  0  0  0  0  0  0  0  0  0
   37.7180   27.7970   43.3330 O   0  0  0  0  0  0  0  0  0  0  0  0
   36.8150   25.5820   42.0620 F   0  0  0  0  0  0  0  0  0  0  0  0
   38.0910   25.5840   42.5240 C   0  0  0  0  0  0  0  0  0  0  0  0
   38.5670   26.7070   43.1760 C   0  0  0  0  0  0  0  0  0  0  0  0
   39.8670   26.7580   43.6670 C   0  0  0  0  0  0  0  0  0  0  0  0
   40.2190   27.6370   44.1680 H   0  0  0  0  0  0  0  0  0  0  0  0
   40.6870   25.6400   43.4870 C   0  0  0  0  0  0  0  0  0  0  0  0
   41.7040   25.6640   43.8650 H   0  0  0  0  0  0  0  0  0  0  0  0
   40.1960   24.5180   42.8310 C   0  0  0  0  0  3  0  0  0  0  0  0
   38.9020   24.4650   42.3400 C   0  0  0  0  0  3  0  0  0  0  0  0
  1  2  2  0  0  0  0
  1 16  1  0  0  0  0
  3  1  1  0  0  0  0
  4  3  1  0  0  0  0
  5  6  1  0  0  0  0
  5  3  1  0  0  0  0
  6 13  1  0  0  0  0
  7 11  1  0  0  0  0
  7  6  2  0  0  0  0
  8  7  1  0  0  0  0
  9  8  2  0  0  0  0
  9 10  1  0  0  0  0
 10  5  2  0  0  0  0
 12  9  1  0  0  0  0
 13 15  1  0  0  0  0
 14 13  1  0  0  0  0
 17 18  1  0  0  0  0
 18 19  1  0  0  0  0
 19 16  1  0  0  0  0
 19 20  2  0  0  0  0
 20 21  1  0  0  0  0
 22 20  1  0  0  0  0
 22 23  1  0  0  0  0
 24 22  2  0  0  0  0
 25 18  2  0  0  0  0
 25 24  1  0  0  0  0
M  END
>  <minimizedAffinity>
-5.40202808

$$$$

 OpenBabel03252501363D

 25 26  0  0  0  0  0  0  0  0999 V2000
   37.7780   28.8570   42.3520 C   0  0  0  0  0  0  0  0  0  0  0  0
   38.3540   29.9650   42.6240 O   0  0  0  0  0  0  0  0  0  0  0  0
   37.2890   28.7970   41.0110 N   0  0  0  0  0  0  0  0  0  0  0  0
   36.8190   27.9640   40.6500 H   0  0  0  0  0  0  0  0  0  0  0  0
   37.5900   30.0690   40.3580 C   0  0  0  0  0  0  0  0  0  0  0  0
   36.8280   31.2030   40.4790 C   0  0  0  0  0  0  0  0  0  0  0  0
   37.2840   32.3180   39.7790 C   0  0  0  0  0  0  0  0  0  0  0  0
   38.4130   32.2040   39.0530 N   0  0  0  0  0  0  0  0  0  0  0  0
   39.1260   31.0690   38.9650 C   0  0  0  0  0  0  0  0  0  0  0  0
   38.7160   29.9630   39.6310 N   0  0  0  0  0  0  0  0  0  0  0  0
   36.6840   33.2120   39.8730 H   0  0  0  0  0  0  0  0  0  0  0  0
   40.0260   31.0510   38.3600 H   0  0  0  0  0  0  0  0  0  0  0  0
   35.6760   31.1330   41.2870 N   0  0  0  0  0  0  0  0  0  0  0  0
   34.9490   30.5060   40.8720 H   0  0  0  0  0  0  0  0  0  0  0  0
   35.4550   31.5950   42.1980 H   0  0  0  0  0  0  0  0  0  0  0  0
   37.6140   27.7760   43.2390 O   0  0  0  0  0  0  0  0  0  0  0  0
   40.2050   27.1010   43.6460 F   0  0  0  0  0  0  0  0  0  0  0  0
   39.3870   26.1890   43.0640 C   0  0  0  0  0  0  0  0  0  0  0  0
   38.0610   26.5180   42.8470 C   0  0  0  0  0  0  0  0  0  0  0  0
   37.1830   25.6190   42.2540 C   0  0  0  0  0  0  0  0  0  0  0  0
   36.1590   25.8920   42.0950 H   0  0  0  0  0  0  0  0  0  0  0  0
   37.6740   24.3660   41.8760 C   0  0  0  0  0  0  0  0  0  0  0  0
   37.0010   23.6530   41.4110 H   0  0  0  0  0  0  0  0  0  0  0  0
   39.0080   24.0480   42.0980 C   0  0  0  0  0  3  0  0  0  0  0  0
   39.8840   24.9410   42.6910 C   0  0  0  0  0  3  0  0  0  0  0  0
  1  2  2  0  0  0  0
  1 16  1  0  0  0  0
  3  1  1  0  0  0  0
  4  3  1  0  0  0  0
  5  6  1  0  0  0  0
  5  3  1  0  0  0  0
  6 13  1  0  0  0  0
  7 11  1  0  0  0  0
  7  6  2  0  0  0  0
  8  7  1  0  0  0  0
  9  8  2  0  0  0  0
  9 10  1  0  0  0  0
 10  5  2  0  0  0  0
 12  9  1  0  0  0  0
 13 15  1  0  0  0  0
 14 13  1  0  0  0  0
 18 17  1  0  0  0  0
 19 18  1  0  0  0  0
 19 16  1  0  0  0  0
 20 19  2  0  0  0  0
 21 20  1  0  0  0  0
 22 24  2  0  0  0  0
 22 20  1  0  0  0  0
 23 22  1  0  0  0  0
 24 25  1  0  0  0  0
 25 18  2  0  0  0  0
M  END
>  <minimizedAffinity>
-5.27336693

$$$$

 OpenBabel03252501363D

 25 26  0  0  0  0  0  0  0  0999 V2000
   39.1970   32.2490   40.1600 C   0  0  0  0  0  0  0  0  0  0  0  0
   40.1030   31.3520   40.0680 O   0  0  0  0  0  0  0  0  0  0  0  0
   39.5060   33.4310   39.4190 N   0  0  0  0  0  0  0  0  0  0  0  0
   38.8650   34.2270   39.3900 H   0  0  0  0  0  0  0  0  0  0  0  0
   40.8120   33.2460   38.7890 C   0  0  0  0  0  0  0  0  0  0  0  0
   41.0050   32.6720   37.5580 C   0  0  0  0  0  0  0  0  0  0  0  0
   42.3280   32.5870   37.1280 C   0  0  0  0  0  0  0  0  0  0  0  0
   43.2960   33.0650   37.9330 N   0  0  0  0  0  0  0  0  0  0  0  0
   43.0560   33.6200   39.1330 C   0  0  0  0  0  0  0  0  0  0  0  0
   41.7840   33.7200   39.5860 N   0  0  0  0  0  0  0  0  0  0  0  0
   42.4810   32.1350   36.1590 H   0  0  0  0  0  0  0  0  0  0  0  0
   43.8880   33.9830   39.7280 H   0  0  0  0  0  0  0  0  0  0  0  0
   39.8650   32.2300   36.8570 N   0  0  0  0  0  0  0  0  0  0  0  0
   39.4090   31.4180   37.3320 H   0  0  0  0  0  0  0  0  0  0  0  0
   39.4320   32.5810   35.9730 H   0  0  0  0  0  0  0  0  0  0  0  0
   38.0030   32.1400   40.8970 O   0  0  0  0  0  0  0  0  0  0  0  0
   38.3660   30.1730   42.7230 F   0  0  0  0  0  0  0  0  0  0  0  0
   37.4570   29.9740   41.7350 C   0  0  0  0  0  0  0  0  0  0  0  0
   37.2610   30.9680   40.7940 C   0  0  0  0  0  0  0  0  0  0  0  0
   36.3420   30.8120   39.7630 C   0  0  0  0  0  0  0  0  0  0  0  0
   36.2020   31.5940   39.0430 H   0  0  0  0  0  0  0  0  0  0  0  0
   35.6160   29.6190   39.6970 C   0  0  0  0  0  0  0  0  0  0  0  0
   34.8950   29.4820   38.8970 H   0  0  0  0  0  0  0  0  0  0  0  0
   35.8240   28.6280   40.6480 C   0  0  0  0  0  3  0  0  0  0  0  0
   36.7380   28.7810   41.6770 C   0  0  0  0  0  3  0  0  0  0  0  0
  1 16  1  0  0  0  0
  2  1  2  0  0  0  0
  3  1  1  0  0  0  0
  4  3  1  0  0  0  0
  5  3  1  0  0  0  0
  5 10  1  0  0  0  0
  6  5  2  0  0  0  0
  7  6  1  0  0  0  0
  7  8  2  0  0  0  0
  8  9  1  0  0  0  0
  9 10  2  0  0  0  0
  9 12  1  0  0  0  0
 11  7  1  0  0  0  0
 13 14  1  0  0  0  0
 13  6  1  0  0  0  0
 15 13  1  0  0  0  0
 18 17  1  0  0  0  0
 19 16  1  0  0  0  0
 19 18  2  0  0  0  0
 20 19  1  0  0  0  0
 21 20  1  0  0  0  0
 22 20  2  0  0  0  0
 22 24  1  0  0  0  0
 23 22  1  0  0  0  0
 24 25  2  0  0  0  0
 25 18  1  0  0  0  0
M  END
>  <minimizedAffinity>
-5.13803196

$$$$

 OpenBabel03252501363D

 25 26  0  0  0  0  0  0  0  0999 V2000
   39.2100   32.1360   38.1670 C   0  0  0  0  0  0  0  0  0  0  0  0
   39.9970   31.7900   39.1120 O   0  0  0  0  0  0  0  0  0  0  0  0
   39.8800   32.3090   36.9170 N   0  0  0  0  0  0  0  0  0  0  0  0
   39.3720   32.5720   36.0690 H   0  0  0  0  0  0  0  0  0  0  0  0
   41.3030   32.0500   37.1230 C   0  0  0  0  0  0  0  0  0  0  0  0
   41.8810   30.8070   37.0780 C   0  0  0  0  0  0  0  0  0  0  0  0
   43.2560   30.7680   37.2990 C   0  0  0  0  0  0  0  0  0  0  0  0
   43.9020   31.9260   37.5350 N   0  0  0  0  0  0  0  0  0  0  0  0
   43.2910   33.1220   37.5690 C   0  0  0  0  0  0  0  0  0  0  0  0
   41.9550   33.2020   37.3590 N   0  0  0  0  0  0  0  0  0  0  0  0
   43.7120   29.7890   37.2640 H   0  0  0  0  0  0  0  0  0  0  0  0
   43.8770   34.0140   37.7650 H   0  0  0  0  0  0  0  0  0  0  0  0
   41.0410   29.7060   36.8160 N   0  0  0  0  0  0  0  0  0  0  0  0
   40.3730   29.5330   37.6020 H   0  0  0  0  0  0  0  0  0  0  0  0
   40.9940   29.0680   35.9900 H   0  0  0  0  0  0  0  0  0  0  0  0
   37.8220   32.3400   38.2860 O   0  0  0  0  0  0  0  0  0  0  0  0
   36.7140   30.2300   36.9980 F   0  0  0  0  0  0  0  0  0  0  0  0
   36.5140   30.3450   38.3350 C   0  0  0  0  0  0  0  0  0  0  0  0
   37.0720   31.4160   39.0070 C   0  0  0  0  0  0  0  0  0  0  0  0
   36.8960   31.5790   40.3760 C   0  0  0  0  0  0  0  0  0  0  0  0
   37.3370   32.4150   40.8810 H   0  0  0  0  0  0  0  0  0  0  0  0
   36.1360   30.6280   41.0640 C   0  0  0  0  0  0  0  0  0  0  0  0
   35.9880   30.7400   42.1330 H   0  0  0  0  0  0  0  0  0  0  0  0
   35.5800   29.5560   40.3760 C   0  0  0  0  0  3  0  0  0  0  0  0
   35.7550   29.3920   39.0120 C   0  0  0  0  0  3  0  0  0  0  0  0
  1 16  1  0  0  0  0
  1  2  2  0  0  0  0
  3  5  1  0  0  0  0
  3  1  1  0  0  0  0
  4  3  1  0  0  0  0
  5 10  1  0  0  0  0
  6  5  2  0  0  0  0
  6  7  1  0  0  0  0
  7  8  2  0  0  0  0
  8  9  1  0  0  0  0
  9 12  1  0  0  0  0
 10  9  2  0  0  0  0
 11  7  1  0  0  0  0
 13  6  1  0  0  0  0
 13 14  1  0  0  0  0
 15 13  1  0  0  0  0
 16 19  1  0  0  0  0
 17 18  1  0  0  0  0
 18 19  2  0  0  0  0
 18 25  1  0  0  0  0
 19 20  1  0  0  0  0
 20 21  1  0  0  0  0
 20 22  2  0  0  0  0
 22 23  1  0  0  0  0
 24 22  1  0  0  0  0
 25 24  2  0  0  0  0
M  END
>  <minimizedAffinity>
-5.10679626

$$$$

 OpenBabel03252501363D

 25 26  0  0  0  0  0  0  0  0999 V2000
   37.5840   31.0950   40.9110 C   0  0  0  0  0  0  0  0  0  0  0  0
   37.3970   31.6650   39.7830 O   0  0  0  0  0  0  0  0  0  0  0  0
   38.8960   31.3090   41.4340 N   0  0  0  0  0  0  0  0  0  0  0  0
   39.1820   30.9240   42.3370 H   0  0  0  0  0  0  0  0  0  0  0  0
   39.6430   32.1190   40.4740 C   0  0  0  0  0  0  0  0  0  0  0  0
   39.6270   33.4900   40.4370 C   0  0  0  0  0  0  0  0  0  0  0  0
   40.4090   34.0800   39.4450 C   0  0  0  0  0  0  0  0  0  0  0  0
   41.1070   33.2790   38.6170 N   0  0  0  0  0  0  0  0  0  0  0  0
   41.0900   31.9380   38.6930 C   0  0  0  0  0  0  0  0  0  0  0  0
   40.3420   31.3280   39.6430 N   0  0  0  0  0  0  0  0  0  0  0  0
   40.3980   35.1600   39.4150 H   0  0  0  0  0  0  0  0  0  0  0  0
   41.6780   31.3570   37.9900 H   0  0  0  0  0  0  0  0  0  0  0  0
   38.8350   34.1610   41.3900 N   0  0  0  0  0  0  0  0  0  0  0  0
   37.8150   33.9940   41.2310 H   0  0  0  0  0  0  0  0  0  0  0  0
   39.1080   34.7710   42.1930 H   0  0  0  0  0  0  0  0  0  0  0  0
   36.6360   30.3250   41.6110 O   0  0  0  0  0  0  0  0  0  0  0  0
   36.1970   28.2900   39.8780 F   0  0  0  0  0  0  0  0  0  0  0  0
   36.7440   28.0000   41.0850 C   0  0  0  0  0  0  0  0  0  0  0  0
   36.9730   29.0270   41.9820 C   0  0  0  0  0  0  0  0  0  0  0  0
   37.5300   28.7810   43.2310 C   0  0  0  0  0  0  0  0  0  0  0  0
   37.7020   29.5900   43.9130 H   0  0  0  0  0  0  0  0  0  0  0  0
   37.8550   27.4630   43.5640 C   0  0  0  0  0  0  0  0  0  0  0  0
   38.2910   27.2540   44.5360 H   0  0  0  0  0  0  0  0  0  0  0  0
   37.6190   26.4410   42.6540 C   0  0  0  0  0  3  0  0  0  0  0  0
   37.0650   26.6830   41.4080 C   0  0  0  0  0  3  0  0  0  0  0  0
  1  3  1  0  0  0  0
  1 16  1  0  0  0  0
  2  1  2  0  0  0  0
  3  4  1  0  0  0  0
  5  3  1  0  0  0  0
  6  5  1  0  0  0  0
  6 13  1  0  0  0  0
  7  6  2  0  0  0  0
  8  9  2  0  0  0  0
  8  7  1  0  0  0  0
  9 10  1  0  0  0  0
 10  5  2  0  0  0  0
 11  7  1  0  0  0  0
 12  9  1  0  0  0  0
 13 15  1  0  0  0  0
 14 13  1  0  0  0  0
 16 19  1  0  0  0  0
 17 18  1  0  0  0  0
 18 25  2  0  0  0  0
 18 19  1  0  0  0  0
 19 20  2  0  0  0  0
 20 22  1  0  0  0  0
 20 21  1  0  0  0  0
 22 23  1  0  0  0  0
 24 22  2  0  0  0  0
 25 24  1  0  0  0  0
M  END
>  <minimizedAffinity>
-5.1060071

$$$$

 OpenBabel03252501363D

 25 26  0  0  0  0  0  0  0  0999 V2000
   37.3010   28.6580   41.6850 C   0  0  0  0  0  0  0  0  0  0  0  0
   37.9660   28.6820   40.5940 O   0  0  0  0  0  0  0  0  0  0  0  0
   36.9730   29.9620   42.1670 N   0  0  0  0  0  0  0  0  0  0  0  0
   36.4300   30.0960   43.0240 H   0  0  0  0  0  0  0  0  0  0  0  0
   37.5380   30.9450   41.2450 C   0  0  0  0  0  0  0  0  0  0  0  0
   38.8170   31.4330   41.3200 C   0  0  0  0  0  0  0  0  0  0  0  0
   39.1700   32.3640   40.3440 C   0  0  0  0  0  0  0  0  0  0  0  0
   38.2510   32.7070   39.4220 N   0  0  0  0  0  0  0  0  0  0  0  0
   37.0070   32.2000   39.3900 C   0  0  0  0  0  0  0  0  0  0  0  0
   36.6260   31.2920   40.3210 N   0  0  0  0  0  0  0  0  0  0  0  0
   40.1770   32.7500   40.4020 H   0  0  0  0  0  0  0  0  0  0  0  0
   36.3190   32.5240   38.6160 H   0  0  0  0  0  0  0  0  0  0  0  0
   39.6400   30.9540   42.3590 N   0  0  0  0  0  0  0  0  0  0  0  0
   39.3030   31.2710   43.2970 H   0  0  0  0  0  0  0  0  0  0  0  0
   40.4970   30.3570   42.3270 H   0  0  0  0  0  0  0  0  0  0  0  0
   36.9060   27.5010   42.3830 O   0  0  0  0  0  0  0  0  0  0  0  0
   36.5840   25.0080   41.3720 F   0  0  0  0  0  0  0  0  0  0  0  0
   37.6830   25.2590   42.1280 C   0  0  0  0  0  0  0  0  0  0  0  0
   37.8610   26.5260   42.6520 C   0  0  0  0  0  0  0  0  0  0  0  0
   38.9690   26.8330   43.4330 C   0  0  0  0  0  0  0  0  0  0  0  0
   39.0910   27.8210   43.8300 H   0  0  0  0  0  0  0  0  0  0  0  0
   39.9060   25.8240   43.6800 C   0  0  0  0  0  0  0  0  0  0  0  0
   40.7760   26.0480   44.2880 H   0  0  0  0  0  0  0  0  0  0  0  0
   39.7140   24.5560   43.1470 C   0  0  0  0  0  3  0  0  0  0  0  0
   38.6110   24.2480   42.3680 C   0  0  0  0  0  3  0  0  0  0  0  0
  1  3  1  0  0  0  0
  1 16  1  0  0  0  0
  2  1  2  0  0  0  0
  3  4  1  0  0  0  0
  5  6  1  0  0  0  0
  5  3  1  0  0  0  0
  6 13  1  0  0  0  0
  7 11  1  0  0  0  0
  7  6  2  0  0  0  0
  8  7  1  0  0  0  0
  9  8  2  0  0  0  0
  9 10  1  0  0  0  0
 10  5  2  0  0  0  0
 12  9  1  0  0  0  0
 13 14  1  0  0  0  0
 15 13  1  0  0  0  0
 16 19  1  0  0  0  0
 17 18  1  0  0  0  0
 18 25  2  0  0  0  0
 18 19  1  0  0  0  0
 19 20  2  0  0  0  0
 20 22  1  0  0  0  0
 20 21  1  0  0  0  0
 22 23  1  0  0  0  0
 24 22  2  0  0  0  0
 25 24  1  0  0  0  0
M  END
>  <minimizedAffinity>
-5.08957243

$$$$

 OpenBabel03252501363D

 25 26  0  0  0  0  0  0  0  0999 V2000
   38.6220   30.5610   39.4570 C   0  0  0  0  0  0  0  0  0  0  0  0
   39.5760   29.8510   38.9880 O   0  0  0  0  0  0  0  0  0  0  0  0
   38.9090   31.9600   39.4430 N   0  0  0  0  0  0  0  0  0  0  0  0
   38.2300   32.6490   39.7760 H   0  0  0  0  0  0  0  0  0  0  0  0
   40.2530   32.1450   38.9010 C   0  0  0  0  0  0  0  0  0  0  0  0
   40.5390   32.2880   37.5680 C   0  0  0  0  0  0  0  0  0  0  0  0
   41.8860   32.4570   37.2500 C   0  0  0  0  0  0  0  0  0  0  0  0
   42.7860   32.4670   38.2530 N   0  0  0  0  0  0  0  0  0  0  0  0
   42.4550   32.3230   39.5470 C   0  0  0  0  0  0  0  0  0  0  0  0
   41.1570   32.1570   39.8960 N   0  0  0  0  0  0  0  0  0  0  0  0
   42.1120   32.5690   36.2000 H   0  0  0  0  0  0  0  0  0  0  0  0
   43.2350   32.3410   40.3010 H   0  0  0  0  0  0  0  0  0  0  0  0
   39.4610   32.2520   36.6600 N   0  0  0  0  0  0  0  0  0  0  0  0
   39.0210   31.3040   36.6190 H   0  0  0  0  0  0  0  0  0  0  0  0
   39.0590   33.0010   36.0520 H   0  0  0  0  0  0  0  0  0  0  0  0
   37.3980   30.0700   39.9500 O   0  0  0  0  0  0  0  0  0  0  0  0
   35.6750   28.0140   40.3220 F   0  0  0  0  0  0  0  0  0  0  0  0
   36.5060   28.3500   41.3410 C   0  0  0  0  0  0  0  0  0  0  0  0
   37.3900   29.3980   41.1680 C   0  0  0  0  0  0  0  0  0  0  0  0
   38.2610   29.7820   42.1810 C   0  0  0  0  0  0  0  0  0  0  0  0
   38.9400   30.5960   42.0280 H   0  0  0  0  0  0  0  0  0  0  0  0
   38.2210   29.0790   43.3890 C   0  0  0  0  0  0  0  0  0  0  0  0
   38.8940   29.3670   44.1910 H   0  0  0  0  0  0  0  0  0  0  0  0
   37.3270   28.0290   43.5510 C   0  0  0  0  0  3  0  0  0  0  0  0
   36.4590   27.6440   42.5430 C   0  0  0  0  0  3  0  0  0  0  0  0
  1 16  1  0  0  0  0
  2  1  2  0  0  0  0
  3  1  1  0  0  0  0
  3  4  1  0  0  0  0
  5  3  1  0  0  0  0
  5 10  1  0  0  0  0
  6  5  2  0  0  0  0
  7  6  1  0  0  0  0
  7  8  2  0  0  0  0
  8  9  1  0  0  0  0
  9 10  2  0  0  0  0
  9 12  1  0  0  0  0
 11  7  1  0  0  0  0
 13  6  1  0  0  0  0
 14 13  1  0  0  0  0
 15 13  1  0  0  0  0
 16 19  1  0  0  0  0
 17 18  1  0  0  0  0
 18 25  1  0  0  0  0
 19 18  2  0  0  0  0
 19 20  1  0  0  0  0
 20 22  2  0  0  0  0
 21 20  1  0  0  0  0
 22 24  1  0  0  0  0
 22 23  1  0  0  0  0
 25 24  2  0  0  0  0
M  END
>  <minimizedAffinity>
-5.02190638

$$$$

 OpenBabel03252501363D

 25 26  0  0  0  0  0  0  0  0999 V2000
   36.9300   28.0080   41.2240 C   0  0  0  0  0  0  0  0  0  0  0  0
   37.9940   28.7160   41.1910 O   0  0  0  0  0  0  0  0  0  0  0  0
   35.9350   28.4520   40.2990 N   0  0  0  0  0  0  0  0  0  0  0  0
   35.0380   27.9700   40.2070 H   0  0  0  0  0  0  0  0  0  0  0  0
   36.4530   29.6260   39.6010 C   0  0  0  0  0  0  0  0  0  0  0  0
   36.3870   30.9080   40.0840 C   0  0  0  0  0  0  0  0  0  0  0  0
   36.9410   31.8930   39.2690 C   0  0  0  0  0  0  0  0  0  0  0  0
   37.4880   31.5230   38.0950 N   0  0  0  0  0  0  0  0  0  0  0  0
   37.5280   30.2510   37.6640 C   0  0  0  0  0  0  0  0  0  0  0  0
   37.0010   29.2650   38.4290 N   0  0  0  0  0  0  0  0  0  0  0  0
   36.8900   32.9040   39.6480 H   0  0  0  0  0  0  0  0  0  0  0  0
   37.9850   30.0280   36.7060 H   0  0  0  0  0  0  0  0  0  0  0  0
   35.7770   31.1030   41.3390 N   0  0  0  0  0  0  0  0  0  0  0  0
   34.7500   30.9020   41.3050 H   0  0  0  0  0  0  0  0  0  0  0  0
   36.1820   31.4060   42.2530 H   0  0  0  0  0  0  0  0  0  0  0  0
   36.7060   26.8980   42.0610 O   0  0  0  0  0  0  0  0  0  0  0  0
   39.1000   26.2610   43.1550 F   0  0  0  0  0  0  0  0  0  0  0  0
   38.5260   25.3750   42.3030 C   0  0  0  0  0  0  0  0  0  0  0  0
   37.3050   25.6860   41.7350 C   0  0  0  0  0  0  0  0  0  0  0  0
   36.6760   24.8120   40.8550 C   0  0  0  0  0  0  0  0  0  0  0  0
   35.7290   25.0690   40.4260 H   0  0  0  0  0  0  0  0  0  0  0  0
   37.3110   23.6030   40.5550 C   0  0  0  0  0  0  0  0  0  0  0  0
   36.8340   22.9100   39.8690 H   0  0  0  0  0  0  0  0  0  0  0  0
   38.5390   23.3040   41.1320 C   0  0  0  0  0  3  0  0  0  0  0  0
   39.1670   24.1720   42.0090 C   0  0  0  0  0  3  0  0  0  0  0  0
  1 16  1  0  0  0  0
  2  1  2  0  0  0  0
  3  1  1  0  0  0  0
  4  3  1  0  0  0  0
  5  6  1  0  0  0  0
  5  3  1  0  0  0  0
  6 13  1  0  0  0  0
  7 11  1  0  0  0  0
  7  6  2  0  0  0  0
  8  7  1  0  0  0  0
  9  8  2  0  0  0  0
  9 10  1  0  0  0  0
 10  5  2  0  0  0  0
 12  9  1  0  0  0  0
 13 15  1  0  0  0  0
 14 13  1  0  0  0  0
 18 17  1  0  0  0  0
 19 16  1  0  0  0  0
 19 18  2  0  0  0  0
 20 19  1  0  0  0  0
 21 20  1  0  0  0  0
 22 20  2  0  0  0  0
 22 24  1  0  0  0  0
 23 22  1  0  0  0  0
 24 25  2  0  0  0  0
 25 18  1  0  0  0  0
M  END
>  <minimizedAffinity>
-4.84853697

$$$$

 OpenBabel03252501363D

 25 26  0  0  0  0  0  0  0  0999 V2000
   37.1660   29.5720   40.6510 C   0  0  0  0  0  0  0  0  0  0  0  0
   37.8010   29.7890   39.5640 O   0  0  0  0  0  0  0  0  0  0  0  0
   37.5310   30.4710   41.7000 N   0  0  0  0  0  0  0  0  0  0  0  0
   37.0930   30.4230   42.6230 H   0  0  0  0  0  0  0  0  0  0  0  0
   38.5640   31.3700   41.1900 C   0  0  0  0  0  0  0  0  0  0  0  0
   38.3130   32.5460   40.5300 C   0  0  0  0  0  0  0  0  0  0  0  0
   39.4350   33.2660   40.1240 C   0  0  0  0  0  0  0  0  0  0  0  0
   40.6540   32.7670   40.4020 N   0  0  0  0  0  0  0  0  0  0  0  0
   40.8490   31.6070   41.0520 C   0  0  0  0  0  0  0  0  0  0  0  0
   39.7840   30.8780   41.4640 N   0  0  0  0  0  0  0  0  0  0  0  0
   39.2380   34.1930   39.6040 H   0  0  0  0  0  0  0  0  0  0  0  0
   41.8620   31.2670   41.2410 H   0  0  0  0  0  0  0  0  0  0  0  0
   36.9660   32.9090   40.3310 N   0  0  0  0  0  0  0  0  0  0  0  0
   36.4840   32.2590   39.6680 H   0  0  0  0  0  0  0  0  0  0  0  0
   36.4070   33.6960   40.7310 H   0  0  0  0  0  0  0  0  0  0  0  0
   36.2010   28.5680   40.8530 O   0  0  0  0  0  0  0  0  0  0  0  0
   36.8840   27.4970   43.2460 F   0  0  0  0  0  0  0  0  0  0  0  0
   36.9630   26.7100   42.1430 C   0  0  0  0  0  0  0  0  0  0  0  0
   36.6190   27.2420   40.9140 C   0  0  0  0  0  0  0  0  0  0  0  0
   36.6840   26.4780   39.7540 C   0  0  0  0  0  0  0  0  0  0  0  0
   36.4120   26.9070   38.8110 H   0  0  0  0  0  0  0  0  0  0  0  0
   37.1090   25.1500   39.8600 C   0  0  0  0  0  0  0  0  0  0  0  0
   37.1650   24.5400   38.9640 H   0  0  0  0  0  0  0  0  0  0  0  0
   37.4520   24.6290   41.1000 C   0  0  0  0  0  3  0  0  0  0  0  0
   37.3880   25.3880   42.2570 C   0  0  0  0  0  3  0  0  0  0  0  0
  1 16  1  0  0  0  0
  1  3  1  0  0  0  0
  2  1  2  0  0  0  0
  3  4  1  0  0  0  0
  5 10  1  0  0  0  0
  5  3  1  0  0  0  0
  6  5  2  0  0  0  0
  7  8  2  0  0  0  0
  7  6  1  0  0  0  0
  8  9  1  0  0  0  0
  9 12  1  0  0  0  0
  9 10  2  0  0  0  0
 11  7  1  0  0  0  0
 13  6  1  0  0  0  0
 13 15  1  0  0  0  0
 14 13  1  0  0  0  0
 16 19  1  0  0  0  0
 18 25  1  0  0  0  0
 18 17  1  0  0  0  0
 19 18  2  0  0  0  0
 20 22  2  0  0  0  0
 20 19  1  0  0  0  0
 21 20  1  0  0  0  0
 22 24  1  0  0  0  0
 23 22  1  0  0  0  0
 24 25  2  0  0  0  0
M  END
>  <minimizedAffinity>
-4.71168327

$$$$
