REMARK  Name = 
REMARK  2 active torsions:
REMARK  status: ('A' for Active; 'I' for Inactive)
REMARK    1  A    between atoms: C_3  and  C_7
REMARK    2  A    between atoms: C_7  and  C_15
REMARK                            x       y       z     vdW  Elec       q    Type
REMARK                         _______ _______ _______ _____ _____    ______ ____
ROOT
ATOM      1  C   UNL     1      46.955  34.784  41.925  0.00  0.00    +0.000 C 
ATOM      2  H   UNL     1      47.900  34.216  42.163  0.00  0.00    +0.000 HD
ATOM      3  H   UNL     1      47.156  35.788  41.543  0.00  0.00    +0.000 HD
ENDROOT
BRANCH   1   6
ATOM      4  C   UNL     1      44.560  36.011  44.495  0.00  0.00    +0.000 A 
ATOM      5  C   UNL     1      45.303  35.921  43.301  0.00  0.00    +0.000 A 
ATOM      6  C   UNL     1      46.200  34.847  43.176  0.00  0.00    +0.000 A 
ATOM      7  N   UNL     1      46.302  33.961  44.200  0.00  0.00    +0.000 NA
ATOM      8  C   UNL     1      45.572  34.083  45.327  0.00  0.00    +0.000 A 
ATOM      9  N   UNL     1      44.710  35.108  45.459  0.00  0.00    +0.000 NA
ATOM     10  H   UNL     1      43.877  36.849  44.564  0.00  0.00    +0.000 HD
ATOM     11  H   UNL     1      45.183  36.657  42.513  0.00  0.00    +0.000 HD
ATOM     12  H   UNL     1      45.675  33.359  46.130  0.00  0.00    +0.000 HD
ENDBRANCH   1   6
BRANCH   1  15
ATOM     13  F   UNL     1      46.225  35.848  39.444  0.00  0.00    +0.000 F 
ATOM     14  C   UNL     1      45.922  34.521  39.610  0.00  0.00    +0.000 A 
ATOM     15  C   UNL     1      46.295  34.010  40.855  0.00  0.00    +0.000 A 
ATOM     16  C   UNL     1      46.011  32.681  41.068  0.00  0.00    +0.000 A 
ATOM     17  H   UNL     1      46.244  32.158  41.984  0.00  0.00    +0.000 HD
ATOM     18  C   UNL     1      45.390  31.894  40.102  0.00  0.00    +0.000 A 
ATOM     19  H   UNL     1      45.159  30.844  40.252  0.00  0.00    +0.000 HD
ATOM     20  C   UNL     1      45.031  32.410  38.886  0.00  0.00    +0.000 A 
ATOM     21  C   UNL     1      45.308  33.744  38.652  0.00  0.00    +0.000 A 
ENDBRANCH   1  15
TORSDOF 2
