
 OpenBabel03252509293D

 21 22  0  0  0  0  0  0  0  0999 V2000
   47.2050   32.1470   44.7980 C   0  0  0  0  0  0  0  0  0  0  0  0
   48.2420   32.5890   44.8370 H   0  0  0  0  0  0  0  0  0  0  0  0
   47.1960   31.1400   44.3740 H   0  0  0  0  0  0  0  0  0  0  0  0
   44.4610   33.3770   42.6070 C   0  0  0  0  0  0  0  0  0  0  0  0
   45.2480   32.5220   43.4030 C   0  0  0  0  0  0  0  0  0  0  0  0
   46.4110   33.0610   43.9790 C   0  0  0  0  0  0  0  0  0  0  0  0
   46.7100   34.3650   43.7420 N   0  0  0  0  0  0  0  0  0  0  0  0
   45.9280   35.1500   42.9740 C   0  0  0  0  0  0  0  0  0  0  0  0
   44.8130   34.6440   42.4160 N   0  0  0  0  0  0  0  0  0  0  0  0
   43.5710   32.9340   42.1750 H   0  0  0  0  0  0  0  0  0  0  0  0
   44.9630   31.4870   43.5600 H   0  0  0  0  0  0  0  0  0  0  0  0
   46.1930   36.1890   42.8020 H   0  0  0  0  0  0  0  0  0  0  0  0
   48.2940   30.3720   46.6650 F   0  0  0  0  0  0  0  0  0  0  0  0
   47.2970   31.1770   47.1530 C   0  0  0  0  0  0  0  0  0  0  0  0
   46.7670   32.0550   46.2050 C   0  0  0  0  0  0  0  0  0  0  0  0
   45.7630   32.8830   46.6490 C   0  0  0  0  0  0  0  0  0  0  0  0
   45.2650   33.6090   46.0230 H   0  0  0  0  0  0  0  0  0  0  0  0
   45.3030   32.8480   47.9620 C   0  0  0  0  0  0  0  0  0  0  0  0
   44.5120   33.4950   48.3310 H   0  0  0  0  0  0  0  0  0  0  0  0
   45.8330   31.9820   48.8800 C   0  0  0  0  0  3  0  0  0  0  0  0
   46.8440   31.1410   48.4540 C   0  0  0  0  0  3  0  0  0  0  0  0
  1  2  1  0  0  0  0
  1 15  1  0  0  0  0
  3  1  1  0  0  0  0
  4  5  1  0  0  0  0
  5 11  1  0  0  0  0
  5  6  2  0  0  0  0
  6  1  1  0  0  0  0
  7  6  1  0  0  0  0
  8  7  2  0  0  0  0
  9  4  2  0  0  0  0
  9  8  1  0  0  0  0
 10  4  1  0  0  0  0
 12  8  1  0  0  0  0
 13 14  1  0  0  0  0
 14 21  1  0  0  0  0
 15 16  1  0  0  0  0
 15 14  2  0  0  0  0
 16 18  2  0  0  0  0
 17 16  1  0  0  0  0
 18 19  1  0  0  0  0
 18 20  1  0  0  0  0
 21 20  2  0  0  0  0
M  END
>  <minimizedAffinity>
-3.7951417

>  <minimizedRMSD>
6.2506156

$$$$
