
 OpenBabel03252503443D

 34 36  0  0  1  0  0  0  0  0999 V2000
   38.0370   29.5670   38.9210 C   0  0  0  0  0  0  0  0  0  0  0  0
   37.3470   29.7350   40.1300 C   0  0  0  0  0  0  0  0  0  0  0  0
   37.8160   30.7210   40.9970 C   0  0  0  0  0  0  0  0  0  0  0  0
   38.8880   31.4430   40.6270 N   0  0  0  0  0  0  0  0  0  0  0  0
   39.5260   31.2640   39.4720 C   0  0  0  0  0  0  0  0  0  0  0  0
   39.1120   30.3110   38.5800 N   0  0  0  0  0  0  0  0  0  0  0  0
   37.7340   28.8200   38.1920 H   0  0  0  0  0  0  0  0  0  0  0  0
   37.2660   30.8220   41.9090 H   0  0  0  0  0  0  0  0  0  0  0  0
   41.0710   32.1220   37.7040 C   0  0  2  0  0  0  0  0  0  0  0  0
   40.6610   32.1420   39.1960 C   0  0  1  0  0  0  0  0  0  0  0  0
   40.4270   33.4780   39.3590 O   0  0  0  0  0  0  0  0  0  0  0  0
   41.4430   34.1590   38.7580 C   0  0  0  0  0  0  0  0  0  0  0  0
   42.1480   33.2180   37.7980 C   0  0  2  0  0  0  0  0  0  0  0  0
   41.5010   31.1620   37.4080 H   0  0  0  0  0  0  0  0  0  0  0  0
   41.5890   31.8280   39.7410 H   0  0  0  0  0  0  0  0  0  0  0  0
   42.1960   34.6030   39.4310 H   0  0  0  0  0  0  0  0  0  0  0  0
   41.0330   34.9860   38.1080 H   0  0  0  0  0  0  0  0  0  0  0  0
   43.0310   32.7710   38.2860 H   0  0  0  0  0  0  0  0  0  0  0  0
   40.0530   32.6140   36.9600 O   0  0  0  0  0  0  0  0  0  0  0  0
   40.3210   33.3990   36.4460 H   0  0  0  0  0  0  0  0  0  0  0  0
   42.4220   33.7740   36.5720 O   0  0  0  0  0  0  0  0  0  0  0  0
   43.4010   33.8540   36.4870 H   0  0  0  0  0  0  0  0  0  0  0  0
   36.1880   28.8370   40.3310 C   0  0  0  0  0  0  0  0  0  0  0  0
   35.4990   29.3980   41.0260 H   0  0  0  0  0  0  0  0  0  0  0  0
   35.6350   28.7880   39.3720 H   0  0  0  0  0  0  0  0  0  0  0  0
   36.8320   28.3150   43.0780 F   0  0  0  0  0  0  0  0  0  0  0  0
   36.8600   27.2950   42.1890 C   0  0  0  0  0  0  0  0  0  0  0  0
   36.5520   27.5270   40.8670 C   0  0  0  0  0  0  0  0  0  0  0  0
   36.5770   26.4900   39.9510 C   0  0  0  0  0  0  0  0  0  0  0  0
   36.3370   26.6450   38.8930 H   0  0  0  0  0  0  0  0  0  0  0  0
   36.9120   25.2130   40.3530 C   0  0  0  0  0  0  0  0  0  0  0  0
   36.9230   24.4190   39.6020 H   0  0  0  0  0  0  0  0  0  0  0  0
   37.2300   24.9370   41.6730 C   0  0  0  0  0  3  0  0  0  0  0  0
   37.1920   26.0120   42.5670 C   0  0  0  0  0  3  0  0  0  0  0  0
  1  2  1  0  0  0  0
  2 23  1  0  0  0  0
  2  3  2  0  0  0  0
  3  8  1  0  0  0  0
  4  3  1  0  0  0  0
  5  4  2  0  0  0  0
  6  1  2  0  0  0  0
  6  5  1  0  0  0  0
  7  1  1  0  0  0  0
  9 14  1  6  0  0  0
  9 13  1  0  0  0  0
  9 10  1  0  0  0  0
 10 11  1  0  0  0  0
 10  5  1  0  0  0  0
 10 15  1  1  0  0  0
 12 11  1  0  0  0  0
 12 16  1  0  0  0  0
 13 18  1  1  0  0  0
 13 12  1  0  0  0  0
 17 12  1  0  0  0  0
 19  9  1  0  0  0  0
 20 19  1  0  0  0  0
 21 13  1  0  0  0  0
 22 21  1  0  0  0  0
 23 28  1  0  0  0  0
 23 24  1  0  0  0  0
 25 23  1  0  0  0  0
 27 34  1  0  0  0  0
 27 26  1  0  0  0  0
 28 27  2  0  0  0  0
 29 31  2  0  0  0  0
 29 28  1  0  0  0  0
 30 29  1  0  0  0  0
 31 33  1  0  0  0  0
 32 31  1  0  0  0  0
 33 34  2  0  0  0  0
M  END
>  <minimizedAffinity>
-6.04481411

$$$$

 OpenBabel03252503443D

 34 36  0  0  1  0  0  0  0  0999 V2000
   36.9380   28.2070   42.3860 C   0  0  0  0  0  0  0  0  0  0  0  0
   37.5670   27.0860   41.8250 C   0  0  0  0  0  0  0  0  0  0  0  0
   38.4550   27.3150   40.7760 C   0  0  0  0  0  0  0  0  0  0  0  0
   38.6550   28.5800   40.3690 N   0  0  0  0  0  0  0  0  0  0  0  0
   38.0450   29.6290   40.9190 C   0  0  0  0  0  0  0  0  0  0  0  0
   37.1620   29.4670   41.9520 N   0  0  0  0  0  0  0  0  0  0  0  0
   36.2320   28.1130   43.2070 H   0  0  0  0  0  0  0  0  0  0  0  0
   38.9170   26.4380   40.3730 H   0  0  0  0  0  0  0  0  0  0  0  0
   37.1480   31.6780   39.8020 C   0  0  2  0  0  0  0  0  0  0  0  0
   38.3810   30.9480   40.3860 C   0  0  1  0  0  0  0  0  0  0  0  0
   38.7860   31.8700   41.3100 O   0  0  0  0  0  0  0  0  0  0  0  0
   38.7360   33.1010   40.7240 C   0  0  0  0  0  0  0  0  0  0  0  0
   37.8550   33.0090   39.4920 C   0  0  2  0  0  0  0  0  0  0  0  0
   36.7780   31.1980   38.8920 H   0  0  0  0  0  0  0  0  0  0  0  0
   39.1010   30.8960   39.5300 H   0  0  0  0  0  0  0  0  0  0  0  0
   39.7050   33.5390   40.4320 H   0  0  0  0  0  0  0  0  0  0  0  0
   38.2150   33.8390   41.4010 H   0  0  0  0  0  0  0  0  0  0  0  0
   38.4770   32.8500   38.5930 H   0  0  0  0  0  0  0  0  0  0  0  0
   36.2600   31.9110   40.7980 O   0  0  0  0  0  0  0  0  0  0  0  0
   36.0740   32.8620   40.9050 H   0  0  0  0  0  0  0  0  0  0  0  0
   36.9640   34.0460   39.3640 O   0  0  0  0  0  0  0  0  0  0  0  0
   37.2240   34.5750   38.5740 H   0  0  0  0  0  0  0  0  0  0  0  0
   37.2070   25.7850   42.4340 C   0  0  0  0  0  0  0  0  0  0  0  0
   37.8880   25.6820   43.3280 H   0  0  0  0  0  0  0  0  0  0  0  0
   36.1930   25.8900   42.8680 H   0  0  0  0  0  0  0  0  0  0  0  0
   39.5120   24.0850   42.2560 F   0  0  0  0  0  0  0  0  0  0  0  0
   38.4560   23.8520   41.4420 C   0  0  0  0  0  0  0  0  0  0  0  0
   37.3410   24.6560   41.5150 C   0  0  0  0  0  0  0  0  0  0  0  0
   36.2560   24.4250   40.6880 C   0  0  0  0  0  0  0  0  0  0  0  0
   35.3560   25.0490   40.7240 H   0  0  0  0  0  0  0  0  0  0  0  0
   36.2810   23.3850   39.7810 C   0  0  0  0  0  0  0  0  0  0  0  0
   35.4060   23.2330   39.1430 H   0  0  0  0  0  0  0  0  0  0  0  0
   37.3830   22.5530   39.6750 C   0  0  0  0  0  3  0  0  0  0  0  0
   38.4580   22.8200   40.5280 C   0  0  0  0  0  3  0  0  0  0  0  0
  1  7  1  0  0  0  0
  2  1  2  0  0  0  0
  2 23  1  0  0  0  0
  3  2  1  0  0  0  0
  4  3  2  0  0  0  0
  4  5  1  0  0  0  0
  5  6  2  0  0  0  0
  6  1  1  0  0  0  0
  8  3  1  0  0  0  0
  9 14  1  6  0  0  0
  9 10  1  0  0  0  0
  9 19  1  0  0  0  0
 10 15  1  6  0  0  0
 10  5  1  0  0  0  0
 10 11  1  0  0  0  0
 12 11  1  0  0  0  0
 12 17  1  0  0  0  0
 13 18  1  6  0  0  0
 13  9  1  0  0  0  0
 13 12  1  0  0  0  0
 16 12  1  0  0  0  0
 19 20  1  0  0  0  0
 21 13  1  0  0  0  0
 22 21  1  0  0  0  0
 23 25  1  0  0  0  0
 23 24  1  0  0  0  0
 27 28  1  0  0  0  0
 27 26  1  0  0  0  0
 28 23  1  0  0  0  0
 29 30  1  0  0  0  0
 29 28  2  0  0  0  0
 31 29  1  0  0  0  0
 32 31  1  0  0  0  0
 33 31  2  0  0  0  0
 33 34  1  0  0  0  0
 34 27  2  0  0  0  0
M  END
>  <minimizedAffinity>
-6.01347876

$$$$

 OpenBabel03252503443D

 34 36  0  0  1  0  0  0  0  0999 V2000
   35.5390   29.4030   37.0400 C   0  0  0  0  0  0  0  0  0  0  0  0
   34.4680   28.9590   37.8300 C   0  0  0  0  0  0  0  0  0  0  0  0
   34.5840   29.1290   39.2100 C   0  0  0  0  0  0  0  0  0  0  0  0
   35.6990   29.7000   39.6940 N   0  0  0  0  0  0  0  0  0  0  0  0
   36.7020   30.1140   38.9220 C   0  0  0  0  0  0  0  0  0  0  0  0
   36.6470   29.9740   37.5610 N   0  0  0  0  0  0  0  0  0  0  0  0
   35.5250   29.3060   35.9580 H   0  0  0  0  0  0  0  0  0  0  0  0
   33.7490   28.7800   39.7810 H   0  0  0  0  0  0  0  0  0  0  0  0
   37.6430   32.2600   39.7950 C   0  0  2  0  0  0  0  0  0  0  0  0
   37.8420   30.7400   39.5890 C   0  0  1  0  0  0  0  0  0  0  0  0
   38.0530   30.3520   40.8820 O   0  0  0  0  0  0  0  0  0  0  0  0
   38.9120   31.2430   41.4540 C   0  0  0  0  0  0  0  0  0  0  0  0
   38.9260   32.5030   40.6080 C   0  0  2  0  0  0  0  0  0  0  0  0
   37.6560   32.8090   38.8500 H   0  0  0  0  0  0  0  0  0  0  0  0
   38.7860   30.6640   38.9900 H   0  0  0  0  0  0  0  0  0  0  0  0
   39.9510   30.8980   41.5880 H   0  0  0  0  0  0  0  0  0  0  0  0
   38.5270   31.5720   42.4620 H   0  0  0  0  0  0  0  0  0  0  0  0
   39.7740   32.4750   39.9010 H   0  0  0  0  0  0  0  0  0  0  0  0
   36.5910   32.4580   40.6250 O   0  0  0  0  0  0  0  0  0  0  0  0
   36.8470   32.9500   41.4280 H   0  0  0  0  0  0  0  0  0  0  0  0
   38.8600   33.6650   41.3370 O   0  0  0  0  0  0  0  0  0  0  0  0
   39.7180   34.1380   41.2340 H   0  0  0  0  0  0  0  0  0  0  0  0
   33.3330   28.3670   37.0880 C   0  0  0  0  0  0  0  0  0  0  0  0
   33.8080   27.7250   36.2900 H   0  0  0  0  0  0  0  0  0  0  0  0
   32.8340   27.6450   37.7640 H   0  0  0  0  0  0  0  0  0  0  0  0
   31.3320   29.7960   38.5670 F   0  0  0  0  0  0  0  0  0  0  0  0
   31.4710   30.0370   37.2420 C   0  0  0  0  0  0  0  0  0  0  0  0
   32.4280   29.3620   36.5170 C   0  0  0  0  0  0  0  0  0  0  0  0
   32.5780   29.6030   35.1630 C   0  0  0  0  0  0  0  0  0  0  0  0
   33.3290   29.0800   34.5610 H   0  0  0  0  0  0  0  0  0  0  0  0
   31.7690   30.5220   34.5250 C   0  0  0  0  0  0  0  0  0  0  0  0
   31.9160   30.6850   33.4540 H   0  0  0  0  0  0  0  0  0  0  0  0
   30.7950   31.2220   35.2180 C   0  0  0  0  0  3  0  0  0  0  0  0
   30.6760   30.9500   36.5840 C   0  0  0  0  0  3  0  0  0  0  0  0
  1  6  2  0  0  0  0
  1  2  1  0  0  0  0
  2  3  2  0  0  0  0
  3  4  1  0  0  0  0
  3  8  1  0  0  0  0
  5 10  1  0  0  0  0
  5  4  2  0  0  0  0
  6  5  1  0  0  0  0
  7  1  1  0  0  0  0
  9 14  1  6  0  0  0
  9 13  1  0  0  0  0
  9 19  1  0  0  0  0
 10 15  1  6  0  0  0
 10  9  1  0  0  0  0
 10 11  1  0  0  0  0
 11 12  1  0  0  0  0
 12 16  1  0  0  0  0
 12 17  1  0  0  0  0
 13 18  1  6  0  0  0
 13 21  1  0  0  0  0
 13 12  1  0  0  0  0
 19 20  1  0  0  0  0
 22 21  1  0  0  0  0
 23 25  1  0  0  0  0
 23  2  1  0  0  0  0
 24 23  1  0  0  0  0
 27 26  1  0  0  0  0
 28 23  1  0  0  0  0
 28 27  2  0  0  0  0
 29 28  1  0  0  0  0
 30 29  1  0  0  0  0
 31 29  2  0  0  0  0
 31 33  1  0  0  0  0
 32 31  1  0  0  0  0
 33 34  2  0  0  0  0
 34 27  1  0  0  0  0
M  END
>  <minimizedAffinity>
-5.8084383

$$$$

 OpenBabel03252503443D

 34 36  0  0  1  0  0  0  0  0999 V2000
   39.2320   29.7240   40.7100 C   0  0  0  0  0  0  0  0  0  0  0  0
   39.1730   29.9380   42.0940 C   0  0  0  0  0  0  0  0  0  0  0  0
   40.0490   30.8810   42.6290 C   0  0  0  0  0  0  0  0  0  0  0  0
   40.8880   31.5220   41.7970 N   0  0  0  0  0  0  0  0  0  0  0  0
   40.9240   31.3010   40.4840 C   0  0  0  0  0  0  0  0  0  0  0  0
   40.0890   30.3860   39.9010 N   0  0  0  0  0  0  0  0  0  0  0  0
   38.5830   29.0050   40.2160 H   0  0  0  0  0  0  0  0  0  0  0  0
   39.9760   31.0200   43.6880 H   0  0  0  0  0  0  0  0  0  0  0  0
   41.3860   32.3320   38.2540 C   0  0  2  0  0  0  0  0  0  0  0  0
   41.8730   32.0910   39.7020 C   0  0  1  0  0  0  0  0  0  0  0  0
   42.0420   33.3830   40.1120 O   0  0  0  0  0  0  0  0  0  0  0  0
   42.6760   34.0610   39.1140 C   0  0  0  0  0  0  0  0  0  0  0  0
   42.5320   33.2660   37.8290 C   0  0  2  0  0  0  0  0  0  0  0  0
   41.3780   31.4120   37.6630 H   0  0  0  0  0  0  0  0  0  0  0  0
   42.8610   31.5770   39.5790 H   0  0  0  0  0  0  0  0  0  0  0  0
   43.7450   34.2780   39.2760 H   0  0  0  0  0  0  0  0  0  0  0  0
   42.1550   35.0420   38.9100 H   0  0  0  0  0  0  0  0  0  0  0  0
   43.4270   32.6380   37.6710 H   0  0  0  0  0  0  0  0  0  0  0  0
   40.2510   33.0690   38.2870 O   0  0  0  0  0  0  0  0  0  0  0  0
   40.3460   33.9090   37.7990 H   0  0  0  0  0  0  0  0  0  0  0  0
   42.1970   34.0260   36.7360 O   0  0  0  0  0  0  0  0  0  0  0  0
   42.9610   34.0190   36.1140 H   0  0  0  0  0  0  0  0  0  0  0  0
   38.1680   29.1290   42.8200 C   0  0  0  0  0  0  0  0  0  0  0  0
   38.1390   29.5630   43.8610 H   0  0  0  0  0  0  0  0  0  0  0  0
   37.1750   29.3690   42.3910 H   0  0  0  0  0  0  0  0  0  0  0  0
   36.6690   27.1220   41.4180 F   0  0  0  0  0  0  0  0  0  0  0  0
   37.7400   26.7500   42.1580 C   0  0  0  0  0  0  0  0  0  0  0  0
   38.4720   27.6990   42.8350 C   0  0  0  0  0  0  0  0  0  0  0  0
   39.5690   27.3280   43.5930 C   0  0  0  0  0  0  0  0  0  0  0  0
   40.1680   28.0610   44.1430 H   0  0  0  0  0  0  0  0  0  0  0  0
   39.9400   26.0010   43.6770 C   0  0  0  0  0  0  0  0  0  0  0  0
   40.8110   25.7450   44.2860 H   0  0  0  0  0  0  0  0  0  0  0  0
   39.2300   25.0150   43.0120 C   0  0  0  0  0  3  0  0  0  0  0  0
   38.1300   25.4310   42.2580 C   0  0  0  0  0  3  0  0  0  0  0  0
  1  2  1  0  0  0  0
  2  3  2  0  0  0  0
  2 23  1  0  0  0  0
  3  8  1  0  0  0  0
  4  3  1  0  0  0  0
  5  4  2  0  0  0  0
  6  5  1  0  0  0  0
  6  1  2  0  0  0  0
  7  1  1  0  0  0  0
  9 14  1  6  0  0  0
  9 19  1  0  0  0  0
  9 10  1  0  0  0  0
 10 15  1  6  0  0  0
 10 11  1  0  0  0  0
 10  5  1  0  0  0  0
 12 16  1  0  0  0  0
 12 11  1  0  0  0  0
 13 18  1  6  0  0  0
 13  9  1  0  0  0  0
 13 12  1  0  0  0  0
 17 12  1  0  0  0  0
 20 19  1  0  0  0  0
 21 13  1  0  0  0  0
 22 21  1  0  0  0  0
 23 28  1  0  0  0  0
 23 24  1  0  0  0  0
 25 23  1  0  0  0  0
 26 27  1  0  0  0  0
 27 34  2  0  0  0  0
 27 28  1  0  0  0  0
 28 29  2  0  0  0  0
 29 31  1  0  0  0  0
 29 30  1  0  0  0  0
 31 32  1  0  0  0  0
 33 31  2  0  0  0  0
 34 33  1  0  0  0  0
M  END
>  <minimizedAffinity>
-5.74208307

$$$$

 OpenBabel03252503443D

 34 36  0  0  1  0  0  0  0  0999 V2000
   38.1020   28.6660   42.6860 C   0  0  0  0  0  0  0  0  0  0  0  0
   37.0980   27.7570   42.3220 C   0  0  0  0  0  0  0  0  0  0  0  0
   36.1290   28.2050   41.4250 C   0  0  0  0  0  0  0  0  0  0  0  0
   36.2150   29.4660   40.9660 N   0  0  0  0  0  0  0  0  0  0  0  0
   37.1800   30.3100   41.3270 C   0  0  0  0  0  0  0  0  0  0  0  0
   38.1580   29.9280   42.2050 N   0  0  0  0  0  0  0  0  0  0  0  0
   38.8920   28.3940   43.3800 H   0  0  0  0  0  0  0  0  0  0  0  0
   35.3800   27.4860   41.1690 H   0  0  0  0  0  0  0  0  0  0  0  0
   38.5580   32.2970   40.6910 C   0  0  2  0  0  0  0  0  0  0  0  0
   37.1560   31.6430   40.7260 C   0  0  1  0  0  0  0  0  0  0  0  0
   36.8420   31.6850   39.3970 O   0  0  0  0  0  0  0  0  0  0  0  0
   37.1830   32.9170   38.9240 C   0  0  0  0  0  0  0  0  0  0  0  0
   38.1510   33.5550   39.9030 C   0  0  2  0  0  0  0  0  0  0  0  0
   38.9200   32.5500   41.6910 H   0  0  0  0  0  0  0  0  0  0  0  0
   36.5290   32.3650   41.3090 H   0  0  0  0  0  0  0  0  0  0  0  0
   36.3490   33.6170   38.7470 H   0  0  0  0  0  0  0  0  0  0  0  0
   37.7630   32.8230   37.9600 H   0  0  0  0  0  0  0  0  0  0  0  0
   37.6050   34.2160   40.5990 H   0  0  0  0  0  0  0  0  0  0  0  0
   39.3680   31.5620   39.8940 O   0  0  0  0  0  0  0  0  0  0  0  0
   39.7200   32.0840   39.1490 H   0  0  0  0  0  0  0  0  0  0  0  0
   39.2300   34.1600   39.3080 O   0  0  0  0  0  0  0  0  0  0  0  0
   39.1570   35.1310   39.4580 H   0  0  0  0  0  0  0  0  0  0  0  0
   37.2010   26.4160   42.9410 C   0  0  0  0  0  0  0  0  0  0  0  0
   37.9250   26.5430   43.7970 H   0  0  0  0  0  0  0  0  0  0  0  0
   36.2300   26.2000   43.4290 H   0  0  0  0  0  0  0  0  0  0  0  0
   39.9140   26.0030   42.1030 F   0  0  0  0  0  0  0  0  0  0  0  0
   38.9430   25.1950   41.6170 C   0  0  0  0  0  0  0  0  0  0  0  0
   37.6360   25.3770   42.0100 C   0  0  0  0  0  0  0  0  0  0  0  0
   36.6370   24.5550   41.5190 C   0  0  0  0  0  0  0  0  0  0  0  0
   35.5890   24.6770   41.8140 H   0  0  0  0  0  0  0  0  0  0  0  0
   36.9410   23.5430   40.6310 C   0  0  0  0  0  0  0  0  0  0  0  0
   36.1260   22.9150   40.2630 H   0  0  0  0  0  0  0  0  0  0  0  0
   38.2430   23.3270   40.2100 C   0  0  0  0  0  3  0  0  0  0  0  0
   39.2220   24.1790   40.7280 C   0  0  0  0  0  3  0  0  0  0  0  0
  1  7  1  0  0  0  0
  2  1  1  0  0  0  0
  2 23  1  0  0  0  0
  3  2  2  0  0  0  0
  4  5  2  0  0  0  0
  4  3  1  0  0  0  0
  5  6  1  0  0  0  0
  6  1  2  0  0  0  0
  8  3  1  0  0  0  0
  9 10  1  0  0  0  0
  9 14  1  1  0  0  0
 10 15  1  1  0  0  0
 10  5  1  0  0  0  0
 11 10  1  0  0  0  0
 12 11  1  0  0  0  0
 12 13  1  0  0  0  0
 13 18  1  1  0  0  0
 13  9  1  0  0  0  0
 16 12  1  0  0  0  0
 17 12  1  0  0  0  0
 19  9  1  0  0  0  0
 20 19  1  0  0  0  0
 21 22  1  0  0  0  0
 21 13  1  0  0  0  0
 23 25  1  0  0  0  0
 23 24  1  0  0  0  0
 27 28  1  0  0  0  0
 27 26  1  0  0  0  0
 28 23  1  0  0  0  0
 29 30  1  0  0  0  0
 29 28  2  0  0  0  0
 31 29  1  0  0  0  0
 32 31  1  0  0  0  0
 33 31  2  0  0  0  0
 33 34  1  0  0  0  0
 34 27  2  0  0  0  0
M  END
>  <minimizedAffinity>
-5.66347742

$$$$

 OpenBabel03252503443D

 34 36  0  0  1  0  0  0  0  0999 V2000
   38.1080   27.3260   42.2150 C   0  0  0  0  0  0  0  0  0  0  0  0
   37.2150   26.5710   41.4400 C   0  0  0  0  0  0  0  0  0  0  0  0
   36.6560   27.1960   40.3260 C   0  0  0  0  0  0  0  0  0  0  0  0
   37.0030   28.4670   40.0620 N   0  0  0  0  0  0  0  0  0  0  0  0
   37.8550   29.1620   40.8130 C   0  0  0  0  0  0  0  0  0  0  0  0
   38.4350   28.6030   41.9200 N   0  0  0  0  0  0  0  0  0  0  0  0
   38.5850   26.9120   43.0990 H   0  0  0  0  0  0  0  0  0  0  0  0
   35.9810   26.5910   39.7580 H   0  0  0  0  0  0  0  0  0  0  0  0
   36.8910   31.2950   39.9340 C   0  0  2  0  0  0  0  0  0  0  0  0
   38.1550   30.5280   40.3890 C   0  0  1  0  0  0  0  0  0  0  0  0
   38.5990   31.3670   41.3720 O   0  0  0  0  0  0  0  0  0  0  0  0
   38.5130   32.6450   40.9050 C   0  0  0  0  0  0  0  0  0  0  0  0
   37.5740   32.6560   39.7130 C   0  0  2  0  0  0  0  0  0  0  0  0
   36.4810   30.8960   39.0020 H   0  0  0  0  0  0  0  0  0  0  0  0
   38.8340   30.5620   39.4980 H   0  0  0  0  0  0  0  0  0  0  0  0
   39.4640   33.1180   40.6080 H   0  0  0  0  0  0  0  0  0  0  0  0
   38.0210   33.3130   41.6710 H   0  0  0  0  0  0  0  0  0  0  0  0
   38.1510   32.5860   38.7750 H   0  0  0  0  0  0  0  0  0  0  0  0
   36.0510   31.4260   40.9870 O   0  0  0  0  0  0  0  0  0  0  0  0
   35.8640   32.3620   41.1910 H   0  0  0  0  0  0  0  0  0  0  0  0
   36.6710   33.6910   39.7230 O   0  0  0  0  0  0  0  0  0  0  0  0
   36.8890   34.2920   38.9740 H   0  0  0  0  0  0  0  0  0  0  0  0
   36.9820   25.1860   41.9080 C   0  0  0  0  0  0  0  0  0  0  0  0
   37.6310   25.0730   42.8240 H   0  0  0  0  0  0  0  0  0  0  0  0
   35.9450   25.1350   42.2950 H   0  0  0  0  0  0  0  0  0  0  0  0
   35.0200   23.5850   40.5590 F   0  0  0  0  0  0  0  0  0  0  0  0
   36.3290   23.4120   40.2630 C   0  0  0  0  0  0  0  0  0  0  0  0
   37.2840   24.1730   40.8990 C   0  0  0  0  0  0  0  0  0  0  0  0
   38.6250   24.0030   40.6020 C   0  0  0  0  0  0  0  0  0  0  0  0
   39.4060   24.5930   41.0930 H   0  0  0  0  0  0  0  0  0  0  0  0
   39.0190   23.0690   39.6660 C   0  0  0  0  0  0  0  0  0  0  0  0
   40.0870   22.9620   39.4580 H   0  0  0  0  0  0  0  0  0  0  0  0
   38.0900   22.2830   39.0040 C   0  0  0  0  0  3  0  0  0  0  0  0
   36.7460   22.4850   39.3320 C   0  0  0  0  0  3  0  0  0  0  0  0
  1  7  1  0  0  0  0
  2 23  1  0  0  0  0
  2  1  2  0  0  0  0
  3  2  1  0  0  0  0
  4  3  2  0  0  0  0
  4  5  1  0  0  0  0
  5  6  2  0  0  0  0
  6  1  1  0  0  0  0
  8  3  1  0  0  0  0
  9 14  1  6  0  0  0
  9 10  1  0  0  0  0
  9 19  1  0  0  0  0
 10 15  1  6  0  0  0
 10  5  1  0  0  0  0
 10 11  1  0  0  0  0
 12 11  1  0  0  0  0
 12 17  1  0  0  0  0
 13 18  1  6  0  0  0
 13 21  1  0  0  0  0
 13  9  1  0  0  0  0
 13 12  1  0  0  0  0
 16 12  1  0  0  0  0
 19 20  1  0  0  0  0
 22 21  1  0  0  0  0
 23 25  1  0  0  0  0
 23 24  1  0  0  0  0
 27 26  1  0  0  0  0
 27 28  1  0  0  0  0
 28 23  1  0  0  0  0
 29 28  2  0  0  0  0
 29 30  1  0  0  0  0
 31 29  1  0  0  0  0
 32 31  1  0  0  0  0
 33 34  1  0  0  0  0
 33 31  2  0  0  0  0
 34 27  2  0  0  0  0
M  END
>  <minimizedAffinity>
-5.64160395

$$$$

 OpenBabel03252503443D

 34 36  0  0  1  0  0  0  0  0999 V2000
   33.5430   29.0710   38.8410 C   0  0  0  0  0  0  0  0  0  0  0  0
   33.7190   28.9750   37.4540 C   0  0  0  0  0  0  0  0  0  0  0  0
   35.0150   29.1320   36.9650 C   0  0  0  0  0  0  0  0  0  0  0  0
   36.0080   29.3620   37.8420 N   0  0  0  0  0  0  0  0  0  0  0  0
   35.8150   29.4480   39.1570 C   0  0  0  0  0  0  0  0  0  0  0  0
   34.5640   29.3030   39.6950 N   0  0  0  0  0  0  0  0  0  0  0  0
   32.5640   28.9610   39.3000 H   0  0  0  0  0  0  0  0  0  0  0  0
   35.1130   29.0520   35.9020 H   0  0  0  0  0  0  0  0  0  0  0  0
   36.6380   29.8190   41.4880 C   0  0  2  0  0  0  0  0  0  0  0  0
   36.9940   29.6780   39.9890 C   0  0  1  0  0  0  0  0  0  0  0  0
   37.8810   28.6410   40.0530 O   0  0  0  0  0  0  0  0  0  0  0  0
   38.7240   28.8740   41.0990 C   0  0  0  0  0  0  0  0  0  0  0  0
   38.0830   29.9040   42.0100 C   0  0  2  0  0  0  0  0  0  0  0  0
   36.0820   30.7370   41.6950 H   0  0  0  0  0  0  0  0  0  0  0  0
   37.5160   30.6370   39.7390 H   0  0  0  0  0  0  0  0  0  0  0  0
   39.7390   29.2180   40.8380 H   0  0  0  0  0  0  0  0  0  0  0  0
   38.8300   27.9470   41.7340 H   0  0  0  0  0  0  0  0  0  0  0  0
   38.4620   30.9120   41.7670 H   0  0  0  0  0  0  0  0  0  0  0  0
   36.1140   28.6510   41.9290 O   0  0  0  0  0  0  0  0  0  0  0  0
   36.6340   28.2710   42.6620 H   0  0  0  0  0  0  0  0  0  0  0  0
   38.1660   29.5960   43.3460 O   0  0  0  0  0  0  0  0  0  0  0  0
   38.7560   30.2580   43.7750 H   0  0  0  0  0  0  0  0  0  0  0  0
   32.4890   28.7080   36.6740 C   0  0  0  0  0  0  0  0  0  0  0  0
   32.8080   27.9960   35.8580 H   0  0  0  0  0  0  0  0  0  0  0  0
   31.8120   28.1100   37.3150 H   0  0  0  0  0  0  0  0  0  0  0  0
   30.7220   30.4380   38.1300 F   0  0  0  0  0  0  0  0  0  0  0  0
   31.0230   30.7330   36.8440 C   0  0  0  0  0  0  0  0  0  0  0  0
   31.8710   29.9150   36.1310 C   0  0  0  0  0  0  0  0  0  0  0  0
   32.1850   30.2100   34.8160 C   0  0  0  0  0  0  0  0  0  0  0  0
   32.8550   29.5780   34.2240 H   0  0  0  0  0  0  0  0  0  0  0  0
   31.6510   31.3270   34.2050 C   0  0  0  0  0  0  0  0  0  0  0  0
   31.9200   31.5270   33.1650 H   0  0  0  0  0  0  0  0  0  0  0  0
   30.7930   32.1750   34.8870 C   0  0  0  0  0  3  0  0  0  0  0  0
   30.5010   31.8420   36.2130 C   0  0  0  0  0  3  0  0  0  0  0  0
  1  7  1  0  0  0  0
  1  6  1  0  0  0  0
  2  1  2  0  0  0  0
  3  2  1  0  0  0  0
  3  4  2  0  0  0  0
  4  5  1  0  0  0  0
  5  6  2  0  0  0  0
  5 10  1  0  0  0  0
  8  3  1  0  0  0  0
  9 14  1  1  0  0  0
  9 19  1  0  0  0  0
  9 13  1  0  0  0  0
 10 15  1  6  0  0  0
 10 11  1  0  0  0  0
 10  9  1  0  0  0  0
 11 12  1  0  0  0  0
 12 17  1  0  0  0  0
 12 13  1  0  0  0  0
 13 18  1  6  0  0  0
 13 21  1  0  0  0  0
 16 12  1  0  0  0  0
 19 20  1  0  0  0  0
 21 22  1  0  0  0  0
 23 25  1  0  0  0  0
 23  2  1  0  0  0  0
 24 23  1  0  0  0  0
 27 26  1  0  0  0  0
 28 23  1  0  0  0  0
 28 27  2  0  0  0  0
 29 28  1  0  0  0  0
 30 29  1  0  0  0  0
 31 29  2  0  0  0  0
 31 33  1  0  0  0  0
 32 31  1  0  0  0  0
 33 34  2  0  0  0  0
 34 27  1  0  0  0  0
M  END
>  <minimizedAffinity>
-5.48402071

$$$$

 OpenBabel03252503443D

 34 36  0  0  1  0  0  0  0  0999 V2000
   37.0030   30.1360   39.2580 C   0  0  0  0  0  0  0  0  0  0  0  0
   36.0460   29.7920   40.2230 C   0  0  0  0  0  0  0  0  0  0  0  0
   34.8650   29.2070   39.7680 C   0  0  0  0  0  0  0  0  0  0  0  0
   34.7160   29.0100   38.4460 N   0  0  0  0  0  0  0  0  0  0  0  0
   35.6400   29.3460   37.5490 C   0  0  0  0  0  0  0  0  0  0  0  0
   36.8200   29.9230   37.9360 N   0  0  0  0  0  0  0  0  0  0  0  0
   37.9490   30.5960   39.5320 H   0  0  0  0  0  0  0  0  0  0  0  0
   34.1590   28.9570   40.5310 H   0  0  0  0  0  0  0  0  0  0  0  0
   36.4350   29.5900   35.1910 C   0  0  2  0  0  0  0  0  0  0  0  0
   35.3470   29.0480   36.1480 C   0  0  1  0  0  0  0  0  0  0  0  0
   35.3720   27.7250   35.8090 O   0  0  0  0  0  0  0  0  0  0  0  0
   35.4130   27.6410   34.4490 C   0  0  0  0  0  0  0  0  0  0  0  0
   35.8600   28.9830   33.9000 C   0  0  2  0  0  0  0  0  0  0  0  0
   36.4430   30.6830   35.1520 H   0  0  0  0  0  0  0  0  0  0  0  0
   34.4020   29.5350   35.7940 H   0  0  0  0  0  0  0  0  0  0  0  0
   34.4720   27.3520   33.9520 H   0  0  0  0  0  0  0  0  0  0  0  0
   36.2110   26.9110   34.1230 H   0  0  0  0  0  0  0  0  0  0  0  0
   34.9800   29.5870   33.6150 H   0  0  0  0  0  0  0  0  0  0  0  0
   37.6050   28.9600   35.4510 O   0  0  0  0  0  0  0  0  0  0  0  0
   37.9460   28.4860   34.6700 H   0  0  0  0  0  0  0  0  0  0  0  0
   36.8060   28.8940   32.9080 O   0  0  0  0  0  0  0  0  0  0  0  0
   36.3960   29.2040   32.0680 H   0  0  0  0  0  0  0  0  0  0  0  0
   36.4220   30.0900   41.6240 C   0  0  0  0  0  0  0  0  0  0  0  0
   36.9290   31.0970   41.5830 H   0  0  0  0  0  0  0  0  0  0  0  0
   35.4850   30.2730   42.1870 H   0  0  0  0  0  0  0  0  0  0  0  0
   39.1470   30.5100   42.4170 F   0  0  0  0  0  0  0  0  0  0  0  0
   38.5880   29.2910   42.5980 C   0  0  0  0  0  0  0  0  0  0  0  0
   37.2800   29.0720   42.2260 C   0  0  0  0  0  0  0  0  0  0  0  0
   36.7000   27.8290   42.4090 C   0  0  0  0  0  0  0  0  0  0  0  0
   35.6630   27.6260   42.1220 H   0  0  0  0  0  0  0  0  0  0  0  0
   37.4260   26.7960   42.9670 C   0  0  0  0  0  0  0  0  0  0  0  0
   36.9350   25.8280   43.0950 H   0  0  0  0  0  0  0  0  0  0  0  0
   38.7440   26.9750   43.3540 C   0  0  0  0  0  3  0  0  0  0  0  0
   39.2930   28.2440   43.1530 C   0  0  0  0  0  3  0  0  0  0  0  0
  1  7  1  0  0  0  0
  1  2  1  0  0  0  0
  2 23  1  0  0  0  0
  3  2  2  0  0  0  0
  3  8  1  0  0  0  0
  4  3  1  0  0  0  0
  5  6  1  0  0  0  0
  5  4  2  0  0  0  0
  6  1  2  0  0  0  0
  9 14  1  6  0  0  0
  9 19  1  0  0  0  0
  9 10  1  0  0  0  0
 10 15  1  6  0  0  0
 10  5  1  0  0  0  0
 11 10  1  0  0  0  0
 12 11  1  0  0  0  0
 13 18  1  6  0  0  0
 13 12  1  0  0  0  0
 13  9  1  0  0  0  0
 16 12  1  0  0  0  0
 17 12  1  0  0  0  0
 20 19  1  0  0  0  0
 21 13  1  0  0  0  0
 22 21  1  0  0  0  0
 23 25  1  0  0  0  0
 23 28  1  0  0  0  0
 24 23  1  0  0  0  0
 26 27  1  0  0  0  0
 27 34  1  0  0  0  0
 28 29  1  0  0  0  0
 28 27  2  0  0  0  0
 29 31  2  0  0  0  0
 30 29  1  0  0  0  0
 31 32  1  0  0  0  0
 31 33  1  0  0  0  0
 34 33  2  0  0  0  0
M  END
>  <minimizedAffinity>
-5.44993019

$$$$

 OpenBabel03252503443D

 34 36  0  0  1  0  0  0  0  0999 V2000
   37.0740   29.1740   41.2530 C   0  0  0  0  0  0  0  0  0  0  0  0
   37.6130   28.4310   42.3120 C   0  0  0  0  0  0  0  0  0  0  0  0
   38.7210   28.9690   42.9660 C   0  0  0  0  0  0  0  0  0  0  0  0
   39.2000   30.1530   42.5490 N   0  0  0  0  0  0  0  0  0  0  0  0
   38.6680   30.8410   41.5400 C   0  0  0  0  0  0  0  0  0  0  0  0
   37.5800   30.3630   40.8590 N   0  0  0  0  0  0  0  0  0  0  0  0
   36.2110   28.8230   40.6930 H   0  0  0  0  0  0  0  0  0  0  0  0
   39.1060   28.3760   43.7700 H   0  0  0  0  0  0  0  0  0  0  0  0
   40.1110   32.0700   39.9090 C   0  0  2  0  0  0  0  0  0  0  0  0
   39.2810   32.1270   41.2140 C   0  0  1  0  0  0  0  0  0  0  0  0
   38.4110   33.1310   40.8970 O   0  0  0  0  0  0  0  0  0  0  0  0
   39.1230   34.1340   40.3080 C   0  0  0  0  0  0  0  0  0  0  0  0
   40.4540   33.5680   39.8460 C   0  0  2  0  0  0  0  0  0  0  0  0
   41.0090   31.4570   40.0190 H   0  0  0  0  0  0  0  0  0  0  0  0
   40.0140   32.4630   41.9920 H   0  0  0  0  0  0  0  0  0  0  0  0
   39.3170   35.0230   40.9320 H   0  0  0  0  0  0  0  0  0  0  0  0
   38.6100   34.4820   39.3650 H   0  0  0  0  0  0  0  0  0  0  0  0
   41.2310   33.7600   40.6060 H   0  0  0  0  0  0  0  0  0  0  0  0
   39.2840   31.7970   38.8720 O   0  0  0  0  0  0  0  0  0  0  0  0
   39.3050   32.4980   38.1940 H   0  0  0  0  0  0  0  0  0  0  0  0
   40.8170   33.9590   38.5810 O   0  0  0  0  0  0  0  0  0  0  0  0
   41.6110   34.5370   38.6570 H   0  0  0  0  0  0  0  0  0  0  0  0
   36.9230   27.1550   42.6100 C   0  0  0  0  0  0  0  0  0  0  0  0
   36.9750   27.0500   43.7330 H   0  0  0  0  0  0  0  0  0  0  0  0
   35.8470   27.3010   42.3940 H   0  0  0  0  0  0  0  0  0  0  0  0
   36.1700   26.2450   39.9950 F   0  0  0  0  0  0  0  0  0  0  0  0
   37.1340   25.5790   40.6740 C   0  0  0  0  0  0  0  0  0  0  0  0
   37.5100   26.0030   41.9290 C   0  0  0  0  0  0  0  0  0  0  0  0
   38.4950   25.3300   42.6290 C   0  0  0  0  0  0  0  0  0  0  0  0
   38.8140   25.6440   43.6280 H   0  0  0  0  0  0  0  0  0  0  0  0
   39.1110   24.2250   42.0760 C   0  0  0  0  0  0  0  0  0  0  0  0
   39.8850   23.7180   42.6580 H   0  0  0  0  0  0  0  0  0  0  0  0
   38.7620   23.7650   40.8160 C   0  0  0  0  0  3  0  0  0  0  0  0
   37.7630   24.4730   40.1420 C   0  0  0  0  0  3  0  0  0  0  0  0
  1  2  1  0  0  0  0
  2 23  1  0  0  0  0
  2  3  2  0  0  0  0
  3  8  1  0  0  0  0
  4  3  1  0  0  0  0
  5  4  2  0  0  0  0
  6  1  2  0  0  0  0
  6  5  1  0  0  0  0
  7  1  1  0  0  0  0
  9 14  1  1  0  0  0
  9 10  1  0  0  0  0
 10  5  1  0  0  0  0
 10 15  1  1  0  0  0
 11 10  1  0  0  0  0
 12 11  1  0  0  0  0
 12 16  1  0  0  0  0
 13  9  1  0  0  0  0
 13 12  1  0  0  0  0
 13 18  1  1  0  0  0
 17 12  1  0  0  0  0
 19  9  1  0  0  0  0
 20 19  1  0  0  0  0
 21 22  1  0  0  0  0
 21 13  1  0  0  0  0
 23 24  1  0  0  0  0
 25 23  1  0  0  0  0
 26 27  1  0  0  0  0
 27 28  1  0  0  0  0
 28 23  1  0  0  0  0
 28 29  2  0  0  0  0
 29 30  1  0  0  0  0
 31 29  1  0  0  0  0
 31 32  1  0  0  0  0
 33 31  2  0  0  0  0
 34 27  2  0  0  0  0
 34 33  1  0  0  0  0
M  END
>  <minimizedAffinity>
-5.39235878

$$$$
