
 OpenBabel03252509033D

 48 50  0  0  1  0  0  0  0  0999 V2000
   46.7230   34.4370   43.3290 N   0  0  0  0  0  0  0  0  0  0  0  0
   46.4810   34.8680   42.0070 C   0  0  0  0  0  0  0  0  0  0  0  0
   45.0370   34.7660   41.5620 C   0  0  0  0  0  0  0  0  0  0  0  0
   44.0250   34.9680   42.6680 C   0  0  0  0  0  0  0  0  0  0  0  0
   44.7080   35.3780   43.9640 C   0  0  0  0  0  0  0  0  0  0  0  0
   45.7110   34.1880   44.2200 C   0  0  2  0  0  0  0  0  0  0  0  0
   46.7390   35.9660   41.9590 H   0  0  0  0  0  0  0  0  0  0  0  0
   47.0810   34.4060   41.2190 H   0  0  0  0  0  0  0  0  0  0  0  0
   44.8510   33.8180   40.9860 H   0  0  0  0  0  0  0  0  0  0  0  0
   44.8360   35.5700   40.8130 H   0  0  0  0  0  0  0  0  0  0  0  0
   43.1910   35.6170   42.3830 H   0  0  0  0  0  0  0  0  0  0  0  0
   43.5820   33.9640   42.8660 H   0  0  0  0  0  0  0  0  0  0  0  0
   43.9470   35.3670   44.7660 H   0  0  0  0  0  0  0  0  0  0  0  0
   45.2840   36.3090   43.8770 H   0  0  0  0  0  0  0  0  0  0  0  0
   45.1210   33.2520   44.1090 H   0  0  0  0  0  0  0  0  0  0  0  0
   47.9710   33.7160   43.4890 C   0  0  0  0  0  0  0  0  0  0  0  0
   48.1790   33.5840   44.5730 H   0  0  0  0  0  0  0  0  0  0  0  0
   48.7990   34.2780   43.0460 H   0  0  0  0  0  0  0  0  0  0  0  0
   47.8120   32.3590   42.8860 C   0  0  0  0  0  0  0  0  0  0  0  0
   47.7760   31.5380   43.6220 H   0  0  0  0  0  0  0  0  0  0  0  0
   46.8660   32.2920   42.2900 H   0  0  0  0  0  0  0  0  0  0  0  0
   51.2420   32.0970   41.3690 C   0  0  0  0  0  0  0  0  0  0  0  0
   50.2040   32.3100   42.2930 C   0  0  0  0  0  0  0  0  0  0  0  0
   48.9040   32.1300   41.9010 C   0  0  0  0  0  0  0  0  0  0  0  0
   48.6930   31.7530   40.6330 N   0  0  0  0  0  0  0  0  0  0  0  0
   49.6810   31.5510   39.7560 C   0  0  0  0  0  0  0  0  0  0  0  0
   50.9650   31.7180   40.1060 N   0  0  0  0  0  0  0  0  0  0  0  0
   52.2180   32.2730   41.8000 H   0  0  0  0  0  0  0  0  0  0  0  0
   50.3910   32.6190   43.3250 H   0  0  0  0  0  0  0  0  0  0  0  0
   49.5380   31.2480   38.7310 H   0  0  0  0  0  0  0  0  0  0  0  0
   46.0770   34.4210   45.5350 O   0  0  0  0  0  0  0  0  0  0  0  0
   45.5890   31.8090   45.6690 O   0  0  0  0  0  0  0  0  0  0  0  0
   45.9950   33.0340   46.4940 P   0  0  2  0  0  0  0  0  0  0  0  0
   44.7250   33.3000   47.5890 O   0  0  0  0  0  0  0  0  0  0  0  0
   44.9760   34.0210   48.2070 H   0  0  0  0  0  0  0  0  0  0  0  0
   47.4020   32.7850   47.3650 O   0  0  0  0  0  0  0  0  0  0  0  0
   47.1050   31.9010   48.4120 C   0  0  0  0  0  0  0  0  0  0  0  0
   46.8500   32.4660   49.3360 H   0  0  0  0  0  0  0  0  0  0  0  0
   46.2760   31.2220   48.1820 H   0  0  0  0  0  0  0  0  0  0  0  0
   47.3920   29.5780   46.9930 F   0  0  0  0  0  0  0  0  0  0  0  0
   48.3700   29.9260   47.8760 C   0  0  0  0  0  0  0  0  0  0  0  0
   48.3250   31.0920   48.6510 C   0  0  0  0  0  0  0  0  0  0  0  0
   49.3740   31.3390   49.5090 C   0  0  0  0  0  0  0  0  0  0  0  0
   49.2600   32.2490   50.0620 H   0  0  0  0  0  0  0  0  0  0  0  0
   50.4360   30.4670   49.6080 C   0  0  0  0  0  0  0  0  0  0  0  0
   51.2250   30.6960   50.2860 H   0  0  0  0  0  0  0  0  0  0  0  0
   50.5050   29.3010   48.8510 C   0  0  0  0  0  3  0  0  0  0  0  0
   49.4510   29.0720   48.0010 C   0  0  0  0  0  3  0  0  0  0  0  0
  1 16  1  0  0  0  0
  1  6  1  0  0  0  0
  2  1  1  0  0  0  0
  3  2  1  0  0  0  0
  3  4  1  0  0  0  0
  4 12  1  0  0  0  0
  4  5  1  0  0  0  0
  5  6  1  0  0  0  0
  5 13  1  0  0  0  0
  6 15  1  6  0  0  0
  6 31  1  0  0  0  0
  7  2  1  0  0  0  0
  8  2  1  0  0  0  0
  9  3  1  0  0  0  0
 10  3  1  0  0  0  0
 11  4  1  0  0  0  0
 14  5  1  0  0  0  0
 16 17  1  0  0  0  0
 18 16  1  0  0  0  0
 19 16  1  0  0  0  0
 19 20  1  0  0  0  0
 21 19  1  0  0  0  0
 22 28  1  0  0  0  0
 22 23  1  0  0  0  0
 23 29  1  0  0  0  0
 24 23  2  0  0  0  0
 24 19  1  0  0  0  0
 25 24  1  0  0  0  0
 26 27  1  0  0  0  0
 26 25  2  0  0  0  0
 27 22  2  0  0  0  0
 30 26  1  0  0  0  0
 31 33  1  0  0  0  0
 33 32  2  6  0  0  0
 33 36  1  0  0  0  0
 33 34  1  0  0  0  0
 34 35  1  0  0  0  0
 36 37  1  0  0  0  0
 37 42  1  0  0  0  0
 37 38  1  0  0  0  0
 39 37  1  0  0  0  0
 40 41  1  0  0  0  0
 41 48  2  0  0  0  0
 41 42  1  0  0  0  0
 42 43  2  0  0  0  0
 43 45  1  0  0  0  0
 43 44  1  0  0  0  0
 45 46  1  0  0  0  0
 47 45  2  0  0  0  0
 48 47  1  0  0  0  0
M  END
>  <minimizedAffinity>
-5.19330692

>  <minimizedRMSD>
3.05274558

$$$$
