
 OpenBabel03242521573D

 48 52  0  0  0  0  0  0  0  0999 V2000
   36.5870   27.0270   39.9030 C   0  0  0  0  0  0  0  0  0  0  0  0
   36.6360   25.6340   39.8840 C   0  0  0  0  0  0  0  0  0  0  0  0
   36.9680   24.8690   41.0080 C   0  0  0  0  0  0  0  0  0  0  0  0
   37.2640   25.4720   42.2000 C   0  0  0  0  0  0  0  0  0  0  0  0
   37.2290   26.8830   42.2460 C   0  0  0  0  0  0  0  0  0  0  0  0
   37.5810   27.4450   43.4290 C   0  0  0  0  0  0  0  0  0  0  0  0
   37.6300   28.8370   43.4880 C   0  0  0  0  0  0  0  0  0  0  0  0
   37.3140   29.5890   42.2980 C   0  0  0  0  0  0  0  0  0  0  0  0
   36.9770   28.8660   41.1770 C   0  0  0  0  0  0  0  0  0  0  0  0
   36.8930   27.5500   41.0650 C   0  0  0  0  0  0  0  0  0  0  0  0
   36.3980   25.1370   38.9280 H   0  0  0  0  0  0  0  0  0  0  0  0
   36.9830   23.7930   40.9050 H   0  0  0  0  0  0  0  0  0  0  0  0
   37.5090   24.8870   43.0530 H   0  0  0  0  0  0  0  0  0  0  0  0
   37.8130   26.8350   44.2910 H   0  0  0  0  0  0  0  0  0  0  0  0
   37.9110   29.2170   44.4580 H   0  0  0  0  0  0  0  0  0  0  0  0
   37.4350   30.6060   42.6360 H   0  0  0  0  0  0  0  0  0  0  0  0
   38.5650   30.0310   39.9260 C   0  0  0  0  0  0  0  0  0  0  0  0
   37.1660   30.0090   40.3080 C   0  0  0  0  0  0  0  0  0  0  0  0
   36.5460   31.1000   39.8650 C   0  0  0  0  0  0  0  0  0  0  0  0
   37.1220   32.1260   39.1480 C   0  0  0  0  0  0  0  0  0  0  0  0
   38.4430   32.1300   38.8020 C   0  0  0  0  0  0  0  0  0  0  0  0
   39.1780   31.0410   39.2110 C   0  0  0  0  0  0  0  0  0  0  0  0
   35.4980   30.9930   40.1960 H   0  0  0  0  0  0  0  0  0  0  0  0
   36.4370   32.9110   38.8920 H   0  0  0  0  0  0  0  0  0  0  0  0
   38.8420   32.9620   38.2400 H   0  0  0  0  0  0  0  0  0  0  0  0
   39.5350   29.0320   40.2170 O   0  0  0  0  0  0  0  0  0  0  0  0
   39.4840   28.1790   39.6590 H   0  0  0  0  0  0  0  0  0  0  0  0
   40.5040   31.1020   38.8370 O   0  0  0  0  0  0  0  0  0  0  0  0
   41.4930   33.1080   37.3210 F   0  0  0  0  0  0  0  0  0  0  0  0
   41.8020   33.1240   38.6450 C   0  0  0  0  0  0  0  0  0  0  0  0
   41.2900   32.0930   39.4100 C   0  0  0  0  0  0  0  0  0  0  0  0
   41.5950   32.0920   40.7700 C   0  0  0  0  0  0  0  0  0  0  0  0
   41.2280   31.3190   41.4110 H   0  0  0  0  0  0  0  0  0  0  0  0
   42.3790   33.1230   41.2170 C   0  0  0  0  0  0  0  0  0  0  0  0
   42.6400   33.1540   42.2860 H   0  0  0  0  0  0  0  0  0  0  0  0
   42.9000   34.1610   40.4730 C   0  0  0  0  0  3  0  0  0  0  0  0
   42.5930   34.1590   39.1160 C   0  0  0  0  0  3  0  0  0  0  0  0
   34.5380   29.0280   37.5090 C   0  0  0  0  0  0  0  0  0  0  0  0
   35.4910   29.2220   36.4790 C   0  0  0  0  0  0  0  0  0  0  0  0
   36.7250   28.6400   36.6740 C   0  0  0  0  0  0  0  0  0  0  0  0
   36.8620   27.9700   37.8150 N   0  0  0  0  0  0  0  0  0  0  0  0
   35.9960   27.7680   38.7990 C   0  0  0  0  0  0  0  0  0  0  0  0
   34.8350   28.3180   38.6030 N   0  0  0  0  0  0  0  0  0  0  0  0
   33.5490   29.4730   37.3890 H   0  0  0  0  0  0  0  0  0  0  0  0
   35.2780   29.7920   35.5860 H   0  0  0  0  0  0  0  0  0  0  0  0
   37.7530   28.7020   35.7000 N   0  0  0  0  0  0  0  0  0  0  0  0
   37.3750   27.8460   35.2090 H   0  0  0  0  0  0  0  0  0  0  0  0
   38.5190   29.4180   35.6570 H   0  0  0  0  0  0  0  0  0  0  0  0
  1 10  1  0  0  0  0
  2  1  2  0  0  0  0
  2  3  1  0  0  0  0
  3  4  2  0  0  0  0
  4  5  1  0  0  0  0
  4 13  1  0  0  0  0
  5  6  1  0  0  0  0
  6  7  2  0  0  0  0
  6 14  1  0  0  0  0
  7 15  1  0  0  0  0
  8 16  1  0  0  0  0
  8  7  1  0  0  0  0
  9  8  2  0  0  0  0
 10  9  1  0  0  0  0
 10  5  2  0  0  0  0
 11  2  1  0  0  0  0
 12  3  1  0  0  0  0
 17 26  1  0  0  0  0
 17 18  1  0  0  0  0
 18  9  1  0  0  0  0
 19 23  1  0  0  0  0
 19 18  2  0  0  0  0
 20 19  1  0  0  0  0
 21 20  2  0  0  0  0
 21 22  1  0  0  0  0
 22 17  2  0  0  0  0
 24 20  1  0  0  0  0
 25 21  1  0  0  0  0
 27 26  1  0  0  0  0
 28 22  1  0  0  0  0
 28 31  1  0  0  0  0
 29 30  1  0  0  0  0
 30 37  2  0  0  0  0
 30 31  1  0  0  0  0
 31 32  2  0  0  0  0
 32 34  1  0  0  0  0
 32 33  1  0  0  0  0
 34 35  1  0  0  0  0
 36 34  2  0  0  0  0
 37 36  1  0  0  0  0
 38 43  1  0  0  0  0
 39 40  1  0  0  0  0
 39 38  2  0  0  0  0
 40 41  2  0  0  0  0
 41 42  1  0  0  0  0
 42  1  1  0  0  0  0
 43 42  2  0  0  0  0
 44 38  1  0  0  0  0
 45 39  1  0  0  0  0
 46 40  1  0  0  0  0
 47 46  1  0  0  0  0
 48 46  1  0  0  0  0
M  END
>  <minimizedAffinity>
-7.46635008

$$$$

 OpenBabel03242521573D

 48 52  0  0  0  0  0  0  0  0999 V2000
   37.7590   31.8470   40.4170 C   0  0  0  0  0  0  0  0  0  0  0  0
   37.5310   33.1280   39.9140 C   0  0  0  0  0  0  0  0  0  0  0  0
   38.5020   34.1360   39.9300 C   0  0  0  0  0  0  0  0  0  0  0  0
   39.7450   33.8980   40.4520 C   0  0  0  0  0  0  0  0  0  0  0  0
   40.0020   32.6120   40.9750 C   0  0  0  0  0  0  0  0  0  0  0  0
   41.2250   32.4330   41.5310 C   0  0  0  0  0  0  0  0  0  0  0  0
   41.4840   31.1980   42.1240 C   0  0  0  0  0  0  0  0  0  0  0  0
   40.4450   30.1980   42.1170 C   0  0  0  0  0  0  0  0  0  0  0  0
   39.2580   30.5390   41.5110 C   0  0  0  0  0  0  0  0  0  0  0  0
   38.9600   31.6830   40.9160 C   0  0  0  0  0  0  0  0  0  0  0  0
   36.5330   33.3300   39.4910 H   0  0  0  0  0  0  0  0  0  0  0  0
   38.2410   35.1010   39.5200 H   0  0  0  0  0  0  0  0  0  0  0  0
   40.4820   34.6640   40.4560 H   0  0  0  0  0  0  0  0  0  0  0  0
   41.9680   33.2180   41.5140 H   0  0  0  0  0  0  0  0  0  0  0  0
   42.4760   31.1210   42.5420 H   0  0  0  0  0  0  0  0  0  0  0  0
   40.9190   29.3760   42.6310 H   0  0  0  0  0  0  0  0  0  0  0  0
   38.8750   28.2420   41.3590 C   0  0  0  0  0  0  0  0  0  0  0  0
   38.5550   29.4310   42.1250 C   0  0  0  0  0  0  0  0  0  0  0  0
   37.6280   29.1590   43.0400 C   0  0  0  0  0  0  0  0  0  0  0  0
   37.0320   27.9340   43.2520 C   0  0  0  0  0  0  0  0  0  0  0  0
   37.3440   26.8280   42.5150 C   0  0  0  0  0  0  0  0  0  0  0  0
   38.2990   27.0000   41.5400 C   0  0  0  0  0  0  0  0  0  0  0  0
   37.4550   30.1110   43.5700 H   0  0  0  0  0  0  0  0  0  0  0  0
   36.3080   27.9390   44.0430 H   0  0  0  0  0  0  0  0  0  0  0  0
   36.8440   25.8930   42.7250 H   0  0  0  0  0  0  0  0  0  0  0  0
   39.8240   28.1490   40.3030 O   0  0  0  0  0  0  0  0  0  0  0  0
   40.8060   28.1310   40.5800 H   0  0  0  0  0  0  0  0  0  0  0  0
   38.5700   25.8510   40.8260 O   0  0  0  0  0  0  0  0  0  0  0  0
   37.3240   23.6610   41.8030 F   0  0  0  0  0  0  0  0  0  0  0  0
   36.8790   24.1460   40.6140 C   0  0  0  0  0  0  0  0  0  0  0  0
   37.5240   25.2670   40.1250 C   0  0  0  0  0  0  0  0  0  0  0  0
   37.0800   25.7800   38.9070 C   0  0  0  0  0  0  0  0  0  0  0  0
   37.5410   26.6440   38.4790 H   0  0  0  0  0  0  0  0  0  0  0  0
   36.0410   25.1160   38.3100 C   0  0  0  0  0  0  0  0  0  0  0  0
   35.6660   25.4940   37.3470 H   0  0  0  0  0  0  0  0  0  0  0  0
   35.3840   23.9980   38.7790 C   0  0  0  0  0  3  0  0  0  0  0  0
   35.8280   23.4890   39.9960 C   0  0  0  0  0  3  0  0  0  0  0  0
   35.0430   29.2890   40.3230 C   0  0  0  0  0  0  0  0  0  0  0  0
   35.2650   28.7480   39.0340 C   0  0  0  0  0  0  0  0  0  0  0  0
   36.3240   29.2760   38.3260 C   0  0  0  0  0  0  0  0  0  0  0  0
   37.0010   30.2340   38.9510 N   0  0  0  0  0  0  0  0  0  0  0  0
   36.8230   30.7660   40.1540 C   0  0  0  0  0  0  0  0  0  0  0  0
   35.8240   30.2570   40.8130 N   0  0  0  0  0  0  0  0  0  0  0  0
   34.2150   28.8940   40.9130 H   0  0  0  0  0  0  0  0  0  0  0  0
   34.6490   27.9660   38.6130 H   0  0  0  0  0  0  0  0  0  0  0  0
   36.6990   28.7880   37.0490 N   0  0  0  0  0  0  0  0  0  0  0  0
   37.3030   28.0380   37.4840 H   0  0  0  0  0  0  0  0  0  0  0  0
   36.3810   29.1710   36.1250 H   0  0  0  0  0  0  0  0  0  0  0  0
  1 10  1  0  0  0  0
  2  3  1  0  0  0  0
  2  1  2  0  0  0  0
  3  4  2  0  0  0  0
  4 13  1  0  0  0  0
  4  5  1  0  0  0  0
  5  6  1  0  0  0  0
  6  7  2  0  0  0  0
  7 15  1  0  0  0  0
  8  7  1  0  0  0  0
  8 16  1  0  0  0  0
  9  8  2  0  0  0  0
  9 18  1  0  0  0  0
 10  5  2  0  0  0  0
 10  9  1  0  0  0  0
 11  2  1  0  0  0  0
 12  3  1  0  0  0  0
 14  6  1  0  0  0  0
 17 22  2  0  0  0  0
 17 18  1  0  0  0  0
 18 19  2  0  0  0  0
 19 20  1  0  0  0  0
 19 23  1  0  0  0  0
 20 24  1  0  0  0  0
 21 25  1  0  0  0  0
 21 20  2  0  0  0  0
 22 21  1  0  0  0  0
 26 27  1  0  0  0  0
 26 17  1  0  0  0  0
 28 22  1  0  0  0  0
 30 29  1  0  0  0  0
 31 30  1  0  0  0  0
 31 28  1  0  0  0  0
 32 31  2  0  0  0  0
 33 32  1  0  0  0  0
 34 36  2  0  0  0  0
 34 32  1  0  0  0  0
 35 34  1  0  0  0  0
 36 37  1  0  0  0  0
 37 30  2  0  0  0  0
 38 43  1  0  0  0  0
 38 44  1  0  0  0  0
 39 38  2  0  0  0  0
 40 41  2  0  0  0  0
 40 39  1  0  0  0  0
 41 42  1  0  0  0  0
 42  1  1  0  0  0  0
 42 43  2  0  0  0  0
 45 39  1  0  0  0  0
 46 47  1  0  0  0  0
 46 40  1  0  0  0  0
 48 46  1  0  0  0  0
M  END
>  <minimizedAffinity>
-7.31191301

$$$$

 OpenBabel03242521573D

 48 52  0  0  0  0  0  0  0  0999 V2000
   36.6810   26.8770   39.9090 C   0  0  0  0  0  0  0  0  0  0  0  0
   36.6320   25.4840   39.8630 C   0  0  0  0  0  0  0  0  0  0  0  0
   36.7750   24.6800   41.0010 C   0  0  0  0  0  0  0  0  0  0  0  0
   36.9730   25.2430   42.2330 C   0  0  0  0  0  0  0  0  0  0  0  0
   37.0330   26.6520   42.3070 C   0  0  0  0  0  0  0  0  0  0  0  0
   37.2830   27.1690   43.5350 C   0  0  0  0  0  0  0  0  0  0  0  0
   37.4250   28.5530   43.6310 C   0  0  0  0  0  0  0  0  0  0  0  0
   37.3050   29.3430   42.4300 C   0  0  0  0  0  0  0  0  0  0  0  0
   37.0500   28.6630   41.2620 C   0  0  0  0  0  0  0  0  0  0  0  0
   36.8860   27.3590   41.1110 C   0  0  0  0  0  0  0  0  0  0  0  0
   36.4740   25.0200   38.8760 H   0  0  0  0  0  0  0  0  0  0  0  0
   36.7250   23.6080   40.8760 H   0  0  0  0  0  0  0  0  0  0  0  0
   37.0740   24.6290   43.0940 H   0  0  0  0  0  0  0  0  0  0  0  0
   37.3690   26.5310   44.4040 H   0  0  0  0  0  0  0  0  0  0  0  0
   37.6170   28.8970   44.6360 H   0  0  0  0  0  0  0  0  0  0  0  0
   37.4580   30.3440   42.8030 H   0  0  0  0  0  0  0  0  0  0  0  0
   38.8690   29.8260   40.3770 C   0  0  0  0  0  0  0  0  0  0  0  0
   37.4200   29.8020   40.4470 C   0  0  0  0  0  0  0  0  0  0  0  0
   36.9090   30.8880   39.8730 C   0  0  0  0  0  0  0  0  0  0  0  0
   37.6250   31.9120   39.2910 C   0  0  0  0  0  0  0  0  0  0  0  0
   38.9890   31.9180   39.2400 C   0  0  0  0  0  0  0  0  0  0  0  0
   39.6200   30.8340   39.8050 C   0  0  0  0  0  0  0  0  0  0  0  0
   35.8150   30.7800   39.9700 H   0  0  0  0  0  0  0  0  0  0  0  0
   37.0100   32.6930   38.8880 H   0  0  0  0  0  0  0  0  0  0  0  0
   39.4980   32.7490   38.7720 H   0  0  0  0  0  0  0  0  0  0  0  0
   39.7550   28.8320   40.8770 O   0  0  0  0  0  0  0  0  0  0  0  0
   39.8270   27.9750   40.3270 H   0  0  0  0  0  0  0  0  0  0  0  0
   40.9960   30.8970   39.7270 O   0  0  0  0  0  0  0  0  0  0  0  0
   42.6650   32.6840   38.5780 F   0  0  0  0  0  0  0  0  0  0  0  0
   42.4400   31.5260   37.9030 C   0  0  0  0  0  0  0  0  0  0  0  0
   41.5850   30.6200   38.5000 C   0  0  0  0  0  0  0  0  0  0  0  0
   41.3430   29.4260   37.8230 C   0  0  0  0  0  0  0  0  0  0  0  0
   40.6890   28.6880   38.2360 H   0  0  0  0  0  0  0  0  0  0  0  0
   41.9820   29.2690   36.6210 C   0  0  0  0  0  0  0  0  0  0  0  0
   41.8130   28.3380   36.0590 H   0  0  0  0  0  0  0  0  0  0  0  0
   42.8380   30.1580   36.0080 C   0  0  0  0  0  3  0  0  0  0  0  0
   43.0790   31.3490   36.6860 C   0  0  0  0  0  3  0  0  0  0  0  0
   35.0810   29.0680   37.3460 C   0  0  0  0  0  0  0  0  0  0  0  0
   36.1510   29.1850   36.4270 C   0  0  0  0  0  0  0  0  0  0  0  0
   37.3020   28.4950   36.7410 C   0  0  0  0  0  0  0  0  0  0  0  0
   37.2580   27.8070   37.8780 N   0  0  0  0  0  0  0  0  0  0  0  0
   36.2780   27.6750   38.7620 C   0  0  0  0  0  0  0  0  0  0  0  0
   35.1960   28.3270   38.4540 N   0  0  0  0  0  0  0  0  0  0  0  0
   34.1530   29.6000   37.1300 H   0  0  0  0  0  0  0  0  0  0  0  0
   36.0850   29.7780   35.5250 H   0  0  0  0  0  0  0  0  0  0  0  0
   38.4300   28.4730   35.8810 N   0  0  0  0  0  0  0  0  0  0  0  0
   38.0320   27.6570   35.3390 H   0  0  0  0  0  0  0  0  0  0  0  0
   39.2550   29.1190   35.9300 H   0  0  0  0  0  0  0  0  0  0  0  0
  1 10  1  0  0  0  0
  2  1  2  0  0  0  0
  2  3  1  0  0  0  0
  3  4  2  0  0  0  0
  4  5  1  0  0  0  0
  4 13  1  0  0  0  0
  5  6  1  0  0  0  0
  6  7  2  0  0  0  0
  6 14  1  0  0  0  0
  7 15  1  0  0  0  0
  8 16  1  0  0  0  0
  8  7  1  0  0  0  0
  9  8  2  0  0  0  0
 10  9  1  0  0  0  0
 10  5  2  0  0  0  0
 11  2  1  0  0  0  0
 12  3  1  0  0  0  0
 17 18  1  0  0  0  0
 17 26  1  0  0  0  0
 18  9  1  0  0  0  0
 19 23  1  0  0  0  0
 19 18  2  0  0  0  0
 20 19  1  0  0  0  0
 21 20  2  0  0  0  0
 21 22  1  0  0  0  0
 22 17  2  0  0  0  0
 24 20  1  0  0  0  0
 25 21  1  0  0  0  0
 27 26  1  0  0  0  0
 28 22  1  0  0  0  0
 30 31  1  0  0  0  0
 30 29  1  0  0  0  0
 31 28  1  0  0  0  0
 32 33  1  0  0  0  0
 32 31  2  0  0  0  0
 34 32  1  0  0  0  0
 35 34  1  0  0  0  0
 36 34  2  0  0  0  0
 36 37  1  0  0  0  0
 37 30  2  0  0  0  0
 38 43  1  0  0  0  0
 39 40  1  0  0  0  0
 39 38  2  0  0  0  0
 40 41  2  0  0  0  0
 41 42  1  0  0  0  0
 42  1  1  0  0  0  0
 43 42  2  0  0  0  0
 44 38  1  0  0  0  0
 45 39  1  0  0  0  0
 46 48  1  0  0  0  0
 46 40  1  0  0  0  0
 47 46  1  0  0  0  0
M  END
>  <minimizedAffinity>
-7.17217064

$$$$

 OpenBabel03242521573D

 48 52  0  0  0  0  0  0  0  0999 V2000
   36.7840   26.9130   39.8750 C   0  0  0  0  0  0  0  0  0  0  0  0
   36.7150   25.5200   39.8730 C   0  0  0  0  0  0  0  0  0  0  0  0
   36.8260   24.7520   41.0380 C   0  0  0  0  0  0  0  0  0  0  0  0
   37.0080   25.3510   42.2550 C   0  0  0  0  0  0  0  0  0  0  0  0
   37.0880   26.7610   42.2850 C   0  0  0  0  0  0  0  0  0  0  0  0
   37.3240   27.3130   43.5000 C   0  0  0  0  0  0  0  0  0  0  0  0
   37.4840   28.6970   43.5550 C   0  0  0  0  0  0  0  0  0  0  0  0
   37.3970   29.4500   42.3270 C   0  0  0  0  0  0  0  0  0  0  0  0
   37.1530   28.7370   41.1770 C   0  0  0  0  0  0  0  0  0  0  0  0
   36.9730   27.4300   41.0640 C   0  0  0  0  0  0  0  0  0  0  0  0
   36.5680   25.0270   38.8980 H   0  0  0  0  0  0  0  0  0  0  0  0
   36.7620   23.6770   40.9460 H   0  0  0  0  0  0  0  0  0  0  0  0
   37.0850   24.7640   43.1370 H   0  0  0  0  0  0  0  0  0  0  0  0
   37.3840   26.7020   44.3910 H   0  0  0  0  0  0  0  0  0  0  0  0
   37.6620   29.0710   44.5510 H   0  0  0  0  0  0  0  0  0  0  0  0
   37.5570   30.4600   42.6710 H   0  0  0  0  0  0  0  0  0  0  0  0
   39.0030   29.8130   40.2450 C   0  0  0  0  0  0  0  0  0  0  0  0
   37.5550   29.8430   40.3330 C   0  0  0  0  0  0  0  0  0  0  0  0
   37.0770   30.9350   39.7410 C   0  0  0  0  0  0  0  0  0  0  0  0
   37.8220   31.9190   39.1290 C   0  0  0  0  0  0  0  0  0  0  0  0
   39.1850   31.8730   39.0620 C   0  0  0  0  0  0  0  0  0  0  0  0
   39.7830   30.7800   39.6430 C   0  0  0  0  0  0  0  0  0  0  0  0
   35.9810   30.8690   39.8530 H   0  0  0  0  0  0  0  0  0  0  0  0
   37.2320   32.7130   38.7160 H   0  0  0  0  0  0  0  0  0  0  0  0
   39.7190   32.6750   38.5690 H   0  0  0  0  0  0  0  0  0  0  0  0
   39.8580   28.7980   40.7570 O   0  0  0  0  0  0  0  0  0  0  0  0
   39.8920   27.9270   40.2250 H   0  0  0  0  0  0  0  0  0  0  0  0
   41.1590   30.7900   39.5480 O   0  0  0  0  0  0  0  0  0  0  0  0
   42.8500   32.5040   38.3210 F   0  0  0  0  0  0  0  0  0  0  0  0
   42.5890   31.3330   37.6840 C   0  0  0  0  0  0  0  0  0  0  0  0
   41.7230   30.4640   38.3210 C   0  0  0  0  0  0  0  0  0  0  0  0
   41.4440   29.2570   37.6830 C   0  0  0  0  0  0  0  0  0  0  0  0
   40.7800   28.5460   38.1270 H   0  0  0  0  0  0  0  0  0  0  0  0
   42.0600   29.0490   36.4770 C   0  0  0  0  0  0  0  0  0  0  0  0
   41.8610   28.1060   35.9460 H   0  0  0  0  0  0  0  0  0  0  0  0
   42.9260   29.9010   35.8250 C   0  0  0  0  0  3  0  0  0  0  0  0
   43.2040   31.1050   36.4640 C   0  0  0  0  0  3  0  0  0  0  0  0
   36.4770   28.7290   36.6280 C   0  0  0  0  0  0  0  0  0  0  0  0
   35.0900   29.0130   36.6410 C   0  0  0  0  0  0  0  0  0  0  0  0
   34.3910   28.5900   37.7510 C   0  0  0  0  0  0  0  0  0  0  0  0
   35.1180   27.9630   38.6720 N   0  0  0  0  0  0  0  0  0  0  0  0
   36.4130   27.6790   38.6960 C   0  0  0  0  0  0  0  0  0  0  0  0
   37.0620   28.0850   37.6440 N   0  0  0  0  0  0  0  0  0  0  0  0
   37.0620   29.0500   35.7660 H   0  0  0  0  0  0  0  0  0  0  0  0
   34.5910   29.5300   35.8330 H   0  0  0  0  0  0  0  0  0  0  0  0
   33.0100   28.8600   37.9250 N   0  0  0  0  0  0  0  0  0  0  0  0
   33.2230   29.8010   38.3580 H   0  0  0  0  0  0  0  0  0  0  0  0
   32.2200   28.2260   37.6550 H   0  0  0  0  0  0  0  0  0  0  0  0
  1 10  1  0  0  0  0
  2  1  2  0  0  0  0
  2  3  1  0  0  0  0
  3  4  2  0  0  0  0
  4  5  1  0  0  0  0
  4 13  1  0  0  0  0
  5  6  1  0  0  0  0
  6  7  2  0  0  0  0
  6 14  1  0  0  0  0
  7 15  1  0  0  0  0
  8 16  1  0  0  0  0
  8  7  1  0  0  0  0
  9  8  2  0  0  0  0
 10  9  1  0  0  0  0
 10  5  2  0  0  0  0
 11  2  1  0  0  0  0
 12  3  1  0  0  0  0
 17 18  1  0  0  0  0
 17 26  1  0  0  0  0
 18  9  1  0  0  0  0
 19 23  1  0  0  0  0
 19 18  2  0  0  0  0
 20 19  1  0  0  0  0
 21 20  2  0  0  0  0
 21 22  1  0  0  0  0
 22 17  2  0  0  0  0
 24 20  1  0  0  0  0
 25 21  1  0  0  0  0
 27 26  1  0  0  0  0
 28 22  1  0  0  0  0
 30 31  1  0  0  0  0
 30 29  1  0  0  0  0
 31 28  1  0  0  0  0
 32 33  1  0  0  0  0
 32 31  2  0  0  0  0
 34 32  1  0  0  0  0
 35 34  1  0  0  0  0
 36 37  1  0  0  0  0
 36 34  2  0  0  0  0
 37 30  2  0  0  0  0
 38 39  2  0  0  0  0
 38 43  1  0  0  0  0
 39 40  1  0  0  0  0
 40 46  1  0  0  0  0
 40 41  2  0  0  0  0
 41 42  1  0  0  0  0
 42  1  1  0  0  0  0
 43 42  2  0  0  0  0
 44 38  1  0  0  0  0
 45 39  1  0  0  0  0
 46 47  1  0  0  0  0
 48 46  1  0  0  0  0
M  END
>  <minimizedAffinity>
-7.11593151

$$$$

 OpenBabel03242521573D

 48 52  0  0  0  0  0  0  0  0999 V2000
   36.6780   27.0100   39.7330 C   0  0  0  0  0  0  0  0  0  0  0  0
   36.6830   25.6160   39.7300 C   0  0  0  0  0  0  0  0  0  0  0  0
   36.8990   24.8530   40.8840 C   0  0  0  0  0  0  0  0  0  0  0  0
   37.1190   25.4600   42.0910 C   0  0  0  0  0  0  0  0  0  0  0  0
   37.1260   26.8720   42.1220 C   0  0  0  0  0  0  0  0  0  0  0  0
   37.4000   27.4340   43.3240 C   0  0  0  0  0  0  0  0  0  0  0  0
   37.4900   28.8250   43.3750 C   0  0  0  0  0  0  0  0  0  0  0  0
   37.2950   29.5740   42.1570 C   0  0  0  0  0  0  0  0  0  0  0  0
   37.0240   28.8500   41.0200 C   0  0  0  0  0  0  0  0  0  0  0  0
   36.9070   27.5360   40.9120 C   0  0  0  0  0  0  0  0  0  0  0  0
   36.5060   25.1160   38.7630 H   0  0  0  0  0  0  0  0  0  0  0  0
   36.8870   23.7760   40.7910 H   0  0  0  0  0  0  0  0  0  0  0  0
   37.2760   24.8770   42.9650 H   0  0  0  0  0  0  0  0  0  0  0  0
   37.5430   26.8270   44.2070 H   0  0  0  0  0  0  0  0  0  0  0  0
   37.7050   29.2070   44.3610 H   0  0  0  0  0  0  0  0  0  0  0  0
   37.4210   30.5900   42.4950 H   0  0  0  0  0  0  0  0  0  0  0  0
   38.7510   29.9750   39.9240 C   0  0  0  0  0  0  0  0  0  0  0  0
   37.3190   29.9770   40.1590 C   0  0  0  0  0  0  0  0  0  0  0  0
   36.7640   31.0680   39.6370 C   0  0  0  0  0  0  0  0  0  0  0  0
   37.4270   32.0760   38.9700 C   0  0  0  0  0  0  0  0  0  0  0  0
   38.7760   32.0570   38.7650 C   0  0  0  0  0  0  0  0  0  0  0  0
   39.4490   30.9650   39.2630 C   0  0  0  0  0  0  0  0  0  0  0  0
   35.6870   30.9800   39.8590 H   0  0  0  0  0  0  0  0  0  0  0  0
   36.7840   32.8650   38.6330 H   0  0  0  0  0  0  0  0  0  0  0  0
   39.2430   32.8760   38.2350 H   0  0  0  0  0  0  0  0  0  0  0  0
   39.6700   28.9680   40.3290 O   0  0  0  0  0  0  0  0  0  0  0  0
   39.6660   28.1070   39.7810 H   0  0  0  0  0  0  0  0  0  0  0  0
   40.8080   31.0030   39.0290 O   0  0  0  0  0  0  0  0  0  0  0  0
   41.9100   33.1680   37.8450 F   0  0  0  0  0  0  0  0  0  0  0  0
   42.1330   33.0110   39.1770 C   0  0  0  0  0  0  0  0  0  0  0  0
   41.5640   31.9010   39.7710 C   0  0  0  0  0  0  0  0  0  0  0  0
   41.7820   31.7240   41.1360 C   0  0  0  0  0  0  0  0  0  0  0  0
   41.3670   30.8820   41.6500 H   0  0  0  0  0  0  0  0  0  0  0  0
   42.5450   32.6760   41.7590 C   0  0  0  0  0  0  0  0  0  0  0  0
   42.7370   32.5670   42.8370 H   0  0  0  0  0  0  0  0  0  0  0  0
   43.1210   33.7900   41.1870 C   0  0  0  0  0  3  0  0  0  0  0  0
   42.9020   33.9650   39.8240 C   0  0  0  0  0  3  0  0  0  0  0  0
   36.0780   28.7740   36.4990 C   0  0  0  0  0  0  0  0  0  0  0  0
   34.6970   29.0560   36.6300 C   0  0  0  0  0  0  0  0  0  0  0  0
   34.1010   28.6500   37.8060 C   0  0  0  0  0  0  0  0  0  0  0  0
   34.9080   28.0390   38.6680 N   0  0  0  0  0  0  0  0  0  0  0  0
   36.2020   27.7570   38.5800 C   0  0  0  0  0  0  0  0  0  0  0  0
   36.7530   28.1470   37.4690 N   0  0  0  0  0  0  0  0  0  0  0  0
   36.5830   29.0810   35.5820 H   0  0  0  0  0  0  0  0  0  0  0  0
   34.1270   29.5590   35.8620 H   0  0  0  0  0  0  0  0  0  0  0  0
   32.7400   28.9210   38.0970 N   0  0  0  0  0  0  0  0  0  0  0  0
   32.9880   29.8680   38.4950 H   0  0  0  0  0  0  0  0  0  0  0  0
   31.9310   28.2810   37.9090 H   0  0  0  0  0  0  0  0  0  0  0  0
  1 10  1  0  0  0  0
  2  1  2  0  0  0  0
  2  3  1  0  0  0  0
  3  4  2  0  0  0  0
  4  5  1  0  0  0  0
  4 13  1  0  0  0  0
  5  6  1  0  0  0  0
  6  7  2  0  0  0  0
  6 14  1  0  0  0  0
  7 15  1  0  0  0  0
  8 16  1  0  0  0  0
  8  7  1  0  0  0  0
  9  8  2  0  0  0  0
 10  9  1  0  0  0  0
 10  5  2  0  0  0  0
 11  2  1  0  0  0  0
 12  3  1  0  0  0  0
 17 18  1  0  0  0  0
 17 26  1  0  0  0  0
 18  9  1  0  0  0  0
 19 23  1  0  0  0  0
 19 18  2  0  0  0  0
 20 19  1  0  0  0  0
 21 20  2  0  0  0  0
 21 22  1  0  0  0  0
 22 17  2  0  0  0  0
 24 20  1  0  0  0  0
 25 21  1  0  0  0  0
 27 26  1  0  0  0  0
 28 22  1  0  0  0  0
 28 31  1  0  0  0  0
 29 30  1  0  0  0  0
 30 31  2  0  0  0  0
 30 37  1  0  0  0  0
 31 32  1  0  0  0  0
 32 33  1  0  0  0  0
 32 34  2  0  0  0  0
 34 35  1  0  0  0  0
 36 34  1  0  0  0  0
 37 36  2  0  0  0  0
 38 39  2  0  0  0  0
 38 43  1  0  0  0  0
 39 40  1  0  0  0  0
 40 46  1  0  0  0  0
 40 41  2  0  0  0  0
 42 41  1  0  0  0  0
 42  1  1  0  0  0  0
 43 42  2  0  0  0  0
 44 38  1  0  0  0  0
 45 39  1  0  0  0  0
 46 47  1  0  0  0  0
 48 46  1  0  0  0  0
M  END
>  <minimizedAffinity>
-7.09490585

$$$$

 OpenBabel03242521573D

 48 52  0  0  0  0  0  0  0  0999 V2000
   36.3790   26.2100   38.8380 C   0  0  0  0  0  0  0  0  0  0  0  0
   36.9700   25.1730   39.5600 C   0  0  0  0  0  0  0  0  0  0  0  0
   37.3710   25.3070   40.8950 C   0  0  0  0  0  0  0  0  0  0  0  0
   37.1940   26.4900   41.5610 C   0  0  0  0  0  0  0  0  0  0  0  0
   36.6050   27.5590   40.8520 C   0  0  0  0  0  0  0  0  0  0  0  0
   36.4970   28.7290   41.5290 C   0  0  0  0  0  0  0  0  0  0  0  0
   35.9880   29.8260   40.8350 C   0  0  0  0  0  0  0  0  0  0  0  0
   35.6180   29.6560   39.4510 C   0  0  0  0  0  0  0  0  0  0  0  0
   35.7920   28.4030   38.9110 C   0  0  0  0  0  0  0  0  0  0  0  0
   36.2480   27.3210   39.5220 C   0  0  0  0  0  0  0  0  0  0  0  0
   37.1170   24.2160   39.0330 H   0  0  0  0  0  0  0  0  0  0  0  0
   37.8220   24.4530   41.3790 H   0  0  0  0  0  0  0  0  0  0  0  0
   37.4940   26.5850   42.5760 H   0  0  0  0  0  0  0  0  0  0  0  0
   36.7930   28.8050   42.5660 H   0  0  0  0  0  0  0  0  0  0  0  0
   35.9240   30.7220   41.4330 H   0  0  0  0  0  0  0  0  0  0  0  0
   35.2720   30.6430   39.1870 H   0  0  0  0  0  0  0  0  0  0  0  0
   34.2660   28.8290   37.1980 C   0  0  0  0  0  0  0  0  0  0  0  0
   35.6690   28.9020   37.5570 C   0  0  0  0  0  0  0  0  0  0  0  0
   36.4010   29.2620   36.5050 C   0  0  0  0  0  0  0  0  0  0  0  0
   35.9250   29.5280   35.2390 C   0  0  0  0  0  0  0  0  0  0  0  0
   34.6000   29.4490   34.9210 C   0  0  0  0  0  0  0  0  0  0  0  0
   33.7520   29.0860   35.9420 C   0  0  0  0  0  0  0  0  0  0  0  0
   37.4410   29.2940   36.8720 H   0  0  0  0  0  0  0  0  0  0  0  0
   36.6900   29.8000   34.5400 H   0  0  0  0  0  0  0  0  0  0  0  0
   34.2830   29.6680   33.9100 H   0  0  0  0  0  0  0  0  0  0  0  0
   33.1910   28.4850   38.0630 O   0  0  0  0  0  0  0  0  0  0  0  0
   32.8960   29.2050   38.7240 H   0  0  0  0  0  0  0  0  0  0  0  0
   32.4290   29.0190   35.5610 O   0  0  0  0  0  0  0  0  0  0  0  0
   30.9550   29.9630   37.6190 F   0  0  0  0  0  0  0  0  0  0  0  0
   30.9750   30.7070   36.4820 C   0  0  0  0  0  0  0  0  0  0  0  0
   31.7330   30.2140   35.4360 C   0  0  0  0  0  0  0  0  0  0  0  0
   31.7670   30.9640   34.2620 C   0  0  0  0  0  0  0  0  0  0  0  0
   32.3350   30.6320   33.4190 H   0  0  0  0  0  0  0  0  0  0  0  0
   31.0390   32.1250   34.2600 C   0  0  0  0  0  0  0  0  0  0  0  0
   31.0430   32.7410   33.3490 H   0  0  0  0  0  0  0  0  0  0  0  0
   30.2780   32.6350   35.2910 C   0  0  0  0  0  3  0  0  0  0  0  0
   30.2460   31.8850   36.4620 C   0  0  0  0  0  3  0  0  0  0  0  0
   35.4140   25.6030   35.2850 C   0  0  0  0  0  0  0  0  0  0  0  0
   34.0580   25.2380   35.4620 C   0  0  0  0  0  0  0  0  0  0  0  0
   33.5860   25.2550   36.7570 C   0  0  0  0  0  0  0  0  0  0  0  0
   34.4760   25.6130   37.6790 N   0  0  0  0  0  0  0  0  0  0  0  0
   35.7500   25.9590   37.5520 C   0  0  0  0  0  0  0  0  0  0  0  0
   36.1830   25.9420   36.3250 N   0  0  0  0  0  0  0  0  0  0  0  0
   35.8220   25.6020   34.2730 H   0  0  0  0  0  0  0  0  0  0  0  0
   33.4150   24.9590   34.6390 H   0  0  0  0  0  0  0  0  0  0  0  0
   32.2340   24.9720   37.0740 N   0  0  0  0  0  0  0  0  0  0  0  0
   31.9580   25.9790   36.9100 H   0  0  0  0  0  0  0  0  0  0  0  0
   31.8480   24.0360   37.3480 H   0  0  0  0  0  0  0  0  0  0  0  0
  1 10  2  0  0  0  0
  1  2  1  0  0  0  0
  2  3  2  0  0  0  0
  3 12  1  0  0  0  0
  3  4  1  0  0  0  0
  4 13  1  0  0  0  0
  5  6  1  0  0  0  0
  5  4  2  0  0  0  0
  6 14  1  0  0  0  0
  7 15  1  0  0  0  0
  7  6  2  0  0  0  0
  8  7  1  0  0  0  0
  9  8  2  0  0  0  0
  9 10  1  0  0  0  0
 10  5  1  0  0  0  0
 11  2  1  0  0  0  0
 16  8  1  0  0  0  0
 17 18  1  0  0  0  0
 17 26  1  0  0  0  0
 18  9  1  0  0  0  0
 19 23  1  0  0  0  0
 19 18  2  0  0  0  0
 20 19  1  0  0  0  0
 21 20  2  0  0  0  0
 21 22  1  0  0  0  0
 22 17  2  0  0  0  0
 24 20  1  0  0  0  0
 25 21  1  0  0  0  0
 26 27  1  0  0  0  0
 28 22  1  0  0  0  0
 30 29  1  0  0  0  0
 31 28  1  0  0  0  0
 31 30  2  0  0  0  0
 32 31  1  0  0  0  0
 33 32  1  0  0  0  0
 34 32  2  0  0  0  0
 34 36  1  0  0  0  0
 35 34  1  0  0  0  0
 36 37  2  0  0  0  0
 37 30  1  0  0  0  0
 38 39  2  0  0  0  0
 38 43  1  0  0  0  0
 39 40  1  0  0  0  0
 40 46  1  0  0  0  0
 40 41  2  0  0  0  0
 42 41  1  0  0  0  0
 42  1  1  0  0  0  0
 43 42  2  0  0  0  0
 44 38  1  0  0  0  0
 45 39  1  0  0  0  0
 46 48  1  0  0  0  0
 47 46  1  0  0  0  0
M  END
>  <minimizedAffinity>
-6.98632431

$$$$

 OpenBabel03242521573D

 48 52  0  0  0  0  0  0  0  0999 V2000
   39.2400   30.8280   39.9200 C   0  0  0  0  0  0  0  0  0  0  0  0
   39.2890   31.7880   38.9100 C   0  0  0  0  0  0  0  0  0  0  0  0
   40.2710   32.7850   38.8560 C   0  0  0  0  0  0  0  0  0  0  0  0
   41.2450   32.8580   39.8150 C   0  0  0  0  0  0  0  0  0  0  0  0
   41.2150   31.9010   40.8530 C   0  0  0  0  0  0  0  0  0  0  0  0
   42.1630   32.0400   41.8120 C   0  0  0  0  0  0  0  0  0  0  0  0
   42.1160   31.1580   42.8920 C   0  0  0  0  0  0  0  0  0  0  0  0
   41.0680   30.1670   42.9270 C   0  0  0  0  0  0  0  0  0  0  0  0
   40.1830   30.1610   41.8750 C   0  0  0  0  0  0  0  0  0  0  0  0
   40.1880   30.9550   40.8160 C   0  0  0  0  0  0  0  0  0  0  0  0
   38.5090   31.7390   38.1320 H   0  0  0  0  0  0  0  0  0  0  0  0
   40.2350   33.4910   38.0390 H   0  0  0  0  0  0  0  0  0  0  0  0
   41.9920   33.6120   39.7660 H   0  0  0  0  0  0  0  0  0  0  0  0
   42.9250   32.8040   41.7400 H   0  0  0  0  0  0  0  0  0  0  0  0
   42.9020   31.3200   43.6140 H   0  0  0  0  0  0  0  0  0  0  0  0
   41.2800   29.6490   43.8500 H   0  0  0  0  0  0  0  0  0  0  0  0
   39.6260   27.9560   42.3980 C   0  0  0  0  0  0  0  0  0  0  0  0
   39.2350   29.3380   42.5980 C   0  0  0  0  0  0  0  0  0  0  0  0
   38.0750   29.4040   43.2480 C   0  0  0  0  0  0  0  0  0  0  0  0
   37.3250   28.3320   43.6790 C   0  0  0  0  0  0  0  0  0  0  0  0
   37.7090   27.0380   43.4760 C   0  0  0  0  0  0  0  0  0  0  0  0
   38.9000   26.8570   42.8120 C   0  0  0  0  0  0  0  0  0  0  0  0
   37.8650   30.4820   43.3560 H   0  0  0  0  0  0  0  0  0  0  0  0
   36.4210   28.6130   44.1820 H   0  0  0  0  0  0  0  0  0  0  0  0
   37.0790   26.2350   43.8350 H   0  0  0  0  0  0  0  0  0  0  0  0
   40.8060   27.4980   41.7500 O   0  0  0  0  0  0  0  0  0  0  0  0
   41.6730   27.5770   42.2840 H   0  0  0  0  0  0  0  0  0  0  0  0
   39.2340   25.5300   42.6330 O   0  0  0  0  0  0  0  0  0  0  0  0
   40.5190   24.7460   40.3890 F   0  0  0  0  0  0  0  0  0  0  0  0
   39.2040   24.4170   40.4950 C   0  0  0  0  0  0  0  0  0  0  0  0
   38.5580   24.8240   41.6470 C   0  0  0  0  0  0  0  0  0  0  0  0
   37.2100   24.4940   41.7750 C   0  0  0  0  0  0  0  0  0  0  0  0
   36.6570   24.7830   42.6440 H   0  0  0  0  0  0  0  0  0  0  0  0
   36.6540   23.7950   40.7360 C   0  0  0  0  0  0  0  0  0  0  0  0
   35.5900   23.5190   40.8040 H   0  0  0  0  0  0  0  0  0  0  0  0
   37.2790   23.3800   39.5790 C   0  0  0  0  0  3  0  0  0  0  0  0
   38.6250   23.7090   39.4550 C   0  0  0  0  0  3  0  0  0  0  0  0
   37.5980   27.5010   39.5050 C   0  0  0  0  0  0  0  0  0  0  0  0
   36.2840   27.8270   39.9200 C   0  0  0  0  0  0  0  0  0  0  0  0
   36.0660   29.1410   40.2750 C   0  0  0  0  0  0  0  0  0  0  0  0
   37.1280   29.9360   40.1840 N   0  0  0  0  0  0  0  0  0  0  0  0
   38.3700   29.6680   39.8030 C   0  0  0  0  0  0  0  0  0  0  0  0
   38.5630   28.4270   39.4670 N   0  0  0  0  0  0  0  0  0  0  0  0
   37.8080   26.4710   39.2150 H   0  0  0  0  0  0  0  0  0  0  0  0
   35.4870   27.0990   39.9610 H   0  0  0  0  0  0  0  0  0  0  0  0
   34.7850   29.6210   40.6510 N   0  0  0  0  0  0  0  0  0  0  0  0
   34.5290   29.8020   39.6410 H   0  0  0  0  0  0  0  0  0  0  0  0
   34.4170   29.6900   41.6300 H   0  0  0  0  0  0  0  0  0  0  0  0
  1 10  1  0  0  0  0
  2  1  2  0  0  0  0
  3  2  1  0  0  0  0
  3  4  2  0  0  0  0
  4  5  1  0  0  0  0
  5  6  1  0  0  0  0
  6  7  2  0  0  0  0
  7  8  1  0  0  0  0
  7 15  1  0  0  0  0
  8 16  1  0  0  0  0
  9 18  1  0  0  0  0
  9  8  2  0  0  0  0
 10  5  2  0  0  0  0
 10  9  1  0  0  0  0
 11  2  1  0  0  0  0
 12  3  1  0  0  0  0
 13  4  1  0  0  0  0
 14  6  1  0  0  0  0
 17 18  2  0  0  0  0
 17 22  1  0  0  0  0
 18 19  1  0  0  0  0
 19 23  1  0  0  0  0
 19 20  2  0  0  0  0
 20 24  1  0  0  0  0
 21 20  1  0  0  0  0
 21 25  1  0  0  0  0
 22 21  2  0  0  0  0
 26 27  1  0  0  0  0
 26 17  1  0  0  0  0
 28 22  1  0  0  0  0
 29 30  1  0  0  0  0
 30 31  1  0  0  0  0
 31 32  2  0  0  0  0
 31 28  1  0  0  0  0
 32 33  1  0  0  0  0
 34 35  1  0  0  0  0
 34 32  1  0  0  0  0
 36 34  2  0  0  0  0
 37 36  1  0  0  0  0
 37 30  2  0  0  0  0
 38 39  1  0  0  0  0
 39 45  1  0  0  0  0
 39 40  2  0  0  0  0
 40 46  1  0  0  0  0
 41 40  1  0  0  0  0
 42  1  1  0  0  0  0
 42 41  2  0  0  0  0
 43 38  2  0  0  0  0
 43 42  1  0  0  0  0
 44 38  1  0  0  0  0
 46 48  1  0  0  0  0
 47 46  1  0  0  0  0
M  END
>  <minimizedAffinity>
-6.88500166

$$$$

 OpenBabel03242521573D

 48 52  0  0  0  0  0  0  0  0999 V2000
   37.5980   26.4350   41.5290 C   0  0  0  0  0  0  0  0  0  0  0  0
   37.7620   25.2600   42.2640 C   0  0  0  0  0  0  0  0  0  0  0  0
   37.3140   24.0130   41.8140 C   0  0  0  0  0  0  0  0  0  0  0  0
   36.6840   23.8920   40.6050 C   0  0  0  0  0  0  0  0  0  0  0  0
   36.4980   25.0670   39.8430 C   0  0  0  0  0  0  0  0  0  0  0  0
   35.8220   24.9140   38.6780 C   0  0  0  0  0  0  0  0  0  0  0  0
   35.5550   26.0650   37.9370 C   0  0  0  0  0  0  0  0  0  0  0  0
   36.0030   27.3360   38.4520 C   0  0  0  0  0  0  0  0  0  0  0  0
   36.6760   27.3180   39.6510 C   0  0  0  0  0  0  0  0  0  0  0  0
   36.9760   26.2610   40.3880 C   0  0  0  0  0  0  0  0  0  0  0  0
   38.2700   25.3460   43.2390 H   0  0  0  0  0  0  0  0  0  0  0  0
   37.4820   23.1530   42.4470 H   0  0  0  0  0  0  0  0  0  0  0  0
   36.3520   22.9420   40.2640 H   0  0  0  0  0  0  0  0  0  0  0  0
   35.5040   23.9380   38.3390 H   0  0  0  0  0  0  0  0  0  0  0  0
   35.0200   25.8720   37.0200 H   0  0  0  0  0  0  0  0  0  0  0  0
   35.6630   28.0200   37.6900 H   0  0  0  0  0  0  0  0  0  0  0  0
   37.5630   29.4000   39.0830 C   0  0  0  0  0  0  0  0  0  0  0  0
   36.5100   28.7450   39.8360 C   0  0  0  0  0  0  0  0  0  0  0  0
   35.8290   29.6350   40.5550 C   0  0  0  0  0  0  0  0  0  0  0  0
   36.0680   30.9910   40.6040 C   0  0  0  0  0  0  0  0  0  0  0  0
   37.0680   31.5880   39.8910 C   0  0  0  0  0  0  0  0  0  0  0  0
   37.8330   30.7550   39.1080 C   0  0  0  0  0  0  0  0  0  0  0  0
   35.0570   29.0500   41.0830 H   0  0  0  0  0  0  0  0  0  0  0  0
   35.3980   31.5230   41.2500 H   0  0  0  0  0  0  0  0  0  0  0  0
   37.2100   32.6570   39.9690 H   0  0  0  0  0  0  0  0  0  0  0  0
   38.4850   28.7730   38.2010 O   0  0  0  0  0  0  0  0  0  0  0  0
   38.1200   28.4980   37.2880 H   0  0  0  0  0  0  0  0  0  0  0  0
   38.8280   31.4120   38.4150 O   0  0  0  0  0  0  0  0  0  0  0  0
   41.2300   30.1740   38.4540 F   0  0  0  0  0  0  0  0  0  0  0  0
   41.1140   31.3200   39.1760 C   0  0  0  0  0  0  0  0  0  0  0  0
   39.8810   31.9440   39.1480 C   0  0  0  0  0  0  0  0  0  0  0  0
   39.7420   33.1210   39.8820 C   0  0  0  0  0  0  0  0  0  0  0  0
   38.8110   33.6470   39.8990 H   0  0  0  0  0  0  0  0  0  0  0  0
   40.8520   33.5460   40.5640 C   0  0  0  0  0  0  0  0  0  0  0  0
   40.7780   34.4720   41.1540 H   0  0  0  0  0  0  0  0  0  0  0  0
   42.0900   32.9400   40.6060 C   0  0  0  0  0  3  0  0  0  0  0  0
   42.2250   31.7660   39.8720 C   0  0  0  0  0  3  0  0  0  0  0  0
   38.8250   29.6840   42.8950 C   0  0  0  0  0  0  0  0  0  0  0  0
   40.1600   29.6550   42.4250 C   0  0  0  0  0  0  0  0  0  0  0  0
   40.5160   28.5580   41.6700 C   0  0  0  0  0  0  0  0  0  0  0  0
   39.5520   27.6620   41.4840 N   0  0  0  0  0  0  0  0  0  0  0  0
   38.2950   27.6540   41.9080 C   0  0  0  0  0  0  0  0  0  0  0  0
   37.9700   28.6950   42.6160 N   0  0  0  0  0  0  0  0  0  0  0  0
   38.5070   30.5380   43.4960 H   0  0  0  0  0  0  0  0  0  0  0  0
   40.8720   30.4400   42.6370 H   0  0  0  0  0  0  0  0  0  0  0  0
   41.8010   28.4280   41.0840 N   0  0  0  0  0  0  0  0  0  0  0  0
   41.4950   28.9740   40.2320 H   0  0  0  0  0  0  0  0  0  0  0  0
   42.6220   27.9310   41.5050 H   0  0  0  0  0  0  0  0  0  0  0  0
  1 42  1  0  0  0  0
  1  2  1  0  0  0  0
  2 11  1  0  0  0  0
  3  2  2  0  0  0  0
  3 12  1  0  0  0  0
  4  3  1  0  0  0  0
  5 10  1  0  0  0  0
  5  4  2  0  0  0  0
  6  5  1  0  0  0  0
  7  8  1  0  0  0  0
  7  6  2  0  0  0  0
  8  9  2  0  0  0  0
  9 18  1  0  0  0  0
  9 10  1  0  0  0  0
 10  1  2  0  0  0  0
 13  4  1  0  0  0  0
 14  6  1  0  0  0  0
 15  7  1  0  0  0  0
 16  8  1  0  0  0  0
 17 22  2  0  0  0  0
 17 18  1  0  0  0  0
 18 19  2  0  0  0  0
 19 20  1  0  0  0  0
 19 23  1  0  0  0  0
 20 24  1  0  0  0  0
 21 25  1  0  0  0  0
 21 20  2  0  0  0  0
 22 21  1  0  0  0  0
 26 17  1  0  0  0  0
 27 26  1  0  0  0  0
 28 22  1  0  0  0  0
 28 31  1  0  0  0  0
 29 30  1  0  0  0  0
 30 37  1  0  0  0  0
 31 30  2  0  0  0  0
 31 32  1  0  0  0  0
 32 33  1  0  0  0  0
 32 34  2  0  0  0  0
 34 36  1  0  0  0  0
 34 35  1  0  0  0  0
 37 36  2  0  0  0  0
 38 44  1  0  0  0  0
 39 45  1  0  0  0  0
 39 38  2  0  0  0  0
 40 39  1  0  0  0  0
 41 40  2  0  0  0  0
 41 42  1  0  0  0  0
 42 43  2  0  0  0  0
 43 38  1  0  0  0  0
 46 48  1  0  0  0  0
 46 40  1  0  0  0  0
 47 46  1  0  0  0  0
M  END
>  <minimizedAffinity>
-6.7471199

$$$$

 OpenBabel03242521573D

 48 52  0  0  0  0  0  0  0  0999 V2000
   37.4790   30.7690   40.2730 C   0  0  0  0  0  0  0  0  0  0  0  0
   36.3540   30.6120   39.4650 C   0  0  0  0  0  0  0  0  0  0  0  0
   35.3930   29.6180   39.6840 C   0  0  0  0  0  0  0  0  0  0  0  0
   35.5210   28.7400   40.7270 C   0  0  0  0  0  0  0  0  0  0  0  0
   36.6550   28.8730   41.5580 C   0  0  0  0  0  0  0  0  0  0  0  0
   36.7740   27.9520   42.5460 C   0  0  0  0  0  0  0  0  0  0  0  0
   37.9210   28.0070   43.3380 C   0  0  0  0  0  0  0  0  0  0  0  0
   38.9040   29.0250   43.0580 C   0  0  0  0  0  0  0  0  0  0  0  0
   38.6320   29.8830   42.0180 C   0  0  0  0  0  0  0  0  0  0  0  0
   37.5570   29.8930   41.2460 C   0  0  0  0  0  0  0  0  0  0  0  0
   36.2400   31.3130   38.6220 H   0  0  0  0  0  0  0  0  0  0  0  0
   34.5510   29.5660   39.0080 H   0  0  0  0  0  0  0  0  0  0  0  0
   34.7860   27.9920   40.8940 H   0  0  0  0  0  0  0  0  0  0  0  0
   36.0090   27.2060   42.7110 H   0  0  0  0  0  0  0  0  0  0  0  0
   37.9490   27.2510   44.1070 H   0  0  0  0  0  0  0  0  0  0  0  0
   39.6550   28.8250   43.8070 H   0  0  0  0  0  0  0  0  0  0  0  0
   40.6840   29.5320   40.9640 C   0  0  0  0  0  0  0  0  0  0  0  0
   40.0040   30.3420   41.9570 C   0  0  0  0  0  0  0  0  0  0  0  0
   40.8710   31.1350   42.5820 C   0  0  0  0  0  0  0  0  0  0  0  0
   42.2280   31.1980   42.3490 C   0  0  0  0  0  0  0  0  0  0  0  0
   42.8490   30.4230   41.4130 C   0  0  0  0  0  0  0  0  0  0  0  0
   42.0400   29.5650   40.7040 C   0  0  0  0  0  0  0  0  0  0  0  0
   40.2670   31.7100   43.3060 H   0  0  0  0  0  0  0  0  0  0  0  0
   42.7390   31.9080   42.9690 H   0  0  0  0  0  0  0  0  0  0  0  0
   43.9170   30.5140   41.2730 H   0  0  0  0  0  0  0  0  0  0  0  0
   40.0830   28.5760   40.0990 O   0  0  0  0  0  0  0  0  0  0  0  0
   39.5570   28.9510   39.3090 H   0  0  0  0  0  0  0  0  0  0  0  0
   42.7230   28.8060   39.7770 O   0  0  0  0  0  0  0  0  0  0  0  0
   41.6170   27.6830   37.5820 F   0  0  0  0  0  0  0  0  0  0  0  0
   42.3760   28.7940   37.3910 C   0  0  0  0  0  0  0  0  0  0  0  0
   42.9360   29.3590   38.5220 C   0  0  0  0  0  0  0  0  0  0  0  0
   43.7170   30.5010   38.3460 C   0  0  0  0  0  0  0  0  0  0  0  0
   44.1760   30.9810   39.1840 H   0  0  0  0  0  0  0  0  0  0  0  0
   43.8530   30.9520   37.0600 C   0  0  0  0  0  0  0  0  0  0  0  0
   44.4640   31.8510   36.8850 H   0  0  0  0  0  0  0  0  0  0  0  0
   43.3050   30.4050   35.9200 C   0  0  0  0  0  3  0  0  0  0  0  0
   42.5250   29.2660   36.0970 C   0  0  0  0  0  3  0  0  0  0  0  0
   39.4040   33.9440   40.6590 C   0  0  0  0  0  0  0  0  0  0  0  0
   40.1940   33.8910   39.4850 C   0  0  0  0  0  0  0  0  0  0  0  0
   39.9880   32.8060   38.6600 C   0  0  0  0  0  0  0  0  0  0  0  0
   39.0680   31.9420   39.0800 N   0  0  0  0  0  0  0  0  0  0  0  0
   38.3110   31.9570   40.1690 C   0  0  0  0  0  0  0  0  0  0  0  0
   38.5120   32.9870   40.9380 N   0  0  0  0  0  0  0  0  0  0  0  0
   39.5390   34.7890   41.3360 H   0  0  0  0  0  0  0  0  0  0  0  0
   40.9220   34.6500   39.2360 H   0  0  0  0  0  0  0  0  0  0  0  0
   40.6650   32.6570   37.4230 N   0  0  0  0  0  0  0  0  0  0  0  0
   39.9340   33.2350   36.9240 H   0  0  0  0  0  0  0  0  0  0  0  0
   41.5560   32.1250   37.2690 H   0  0  0  0  0  0  0  0  0  0  0  0
  1 10  1  0  0  0  0
  2  3  1  0  0  0  0
  2  1  2  0  0  0  0
  3  4  2  0  0  0  0
  4 13  1  0  0  0  0
  4  5  1  0  0  0  0
  5  6  1  0  0  0  0
  6 14  1  0  0  0  0
  6  7  2  0  0  0  0
  7 15  1  0  0  0  0
  8  7  1  0  0  0  0
  8 16  1  0  0  0  0
  9  8  2  0  0  0  0
 10  5  2  0  0  0  0
 10  9  1  0  0  0  0
 11  2  1  0  0  0  0
 12  3  1  0  0  0  0
 17 18  1  0  0  0  0
 18  9  1  0  0  0  0
 18 19  2  0  0  0  0
 19 23  1  0  0  0  0
 20 19  1  0  0  0  0
 20 24  1  0  0  0  0
 21 20  2  0  0  0  0
 22 17  2  0  0  0  0
 22 21  1  0  0  0  0
 25 21  1  0  0  0  0
 26 17  1  0  0  0  0
 27 26  1  0  0  0  0
 28 22  1  0  0  0  0
 30 29  1  0  0  0  0
 30 31  1  0  0  0  0
 31 28  1  0  0  0  0
 32 31  2  0  0  0  0
 32 33  1  0  0  0  0
 34 32  1  0  0  0  0
 35 34  1  0  0  0  0
 36 37  1  0  0  0  0
 36 34  2  0  0  0  0
 37 30  2  0  0  0  0
 38 43  1  0  0  0  0
 38 44  1  0  0  0  0
 39 38  2  0  0  0  0
 40 41  2  0  0  0  0
 40 39  1  0  0  0  0
 41 42  1  0  0  0  0
 42  1  1  0  0  0  0
 42 43  2  0  0  0  0
 45 39  1  0  0  0  0
 46 40  1  0  0  0  0
 47 46  1  0  0  0  0
 48 46  1  0  0  0  0
M  END
>  <minimizedAffinity>
-6.73494625

$$$$
