
 OpenBabel03252509033D

 48 50  0  0  1  0  0  0  0  0999 V2000
   47.1470   34.1900   43.0990 N   0  0  0  0  0  0  0  0  0  0  0  0
   46.6660   35.2170   42.2590 C   0  0  0  0  0  0  0  0  0  0  0  0
   45.1700   35.4460   42.3320 C   0  0  0  0  0  0  0  0  0  0  0  0
   44.5610   35.1700   43.6890 C   0  0  0  0  0  0  0  0  0  0  0  0
   45.6370   34.8590   44.7180 C   0  0  0  0  0  0  0  0  0  0  0  0
   46.3790   33.6210   44.0820 C   0  0  2  0  0  0  0  0  0  0  0  0
   47.1410   36.1820   42.6000 H   0  0  0  0  0  0  0  0  0  0  0  0
   46.9150   35.1440   41.1970 H   0  0  0  0  0  0  0  0  0  0  0  0
   44.6310   34.9050   41.5070 H   0  0  0  0  0  0  0  0  0  0  0  0
   44.9630   36.5220   42.1180 H   0  0  0  0  0  0  0  0  0  0  0  0
   43.8480   35.9350   44.0120 H   0  0  0  0  0  0  0  0  0  0  0  0
   43.9730   34.2290   43.5750 H   0  0  0  0  0  0  0  0  0  0  0  0
   45.1340   34.5230   45.6430 H   0  0  0  0  0  0  0  0  0  0  0  0
   46.3630   35.6730   44.8480 H   0  0  0  0  0  0  0  0  0  0  0  0
   45.5860   32.8980   43.7890 H   0  0  0  0  0  0  0  0  0  0  0  0
   48.1980   33.3900   42.5000 C   0  0  0  0  0  0  0  0  0  0  0  0
   48.7890   32.9040   43.3070 H   0  0  0  0  0  0  0  0  0  0  0  0
   48.8730   34.0200   41.9130 H   0  0  0  0  0  0  0  0  0  0  0  0
   47.5640   32.3120   41.6850 C   0  0  0  0  0  0  0  0  0  0  0  0
   47.6330   31.3060   42.1330 H   0  0  0  0  0  0  0  0  0  0  0  0
   46.4740   32.5150   41.5280 H   0  0  0  0  0  0  0  0  0  0  0  0
   49.5900   31.3180   38.6770 C   0  0  0  0  0  0  0  0  0  0  0  0
   49.0240   31.3200   39.9650 C   0  0  0  0  0  0  0  0  0  0  0  0
   48.1570   32.3190   40.3200 C   0  0  0  0  0  0  0  0  0  0  0  0
   47.8910   33.2550   39.4000 N   0  0  0  0  0  0  0  0  0  0  0  0
   48.4290   33.2520   38.1750 C   0  0  0  0  0  0  0  0  0  0  0  0
   49.2820   32.2890   37.7950 N   0  0  0  0  0  0  0  0  0  0  0  0
   50.2560   30.4810   38.5220 H   0  0  0  0  0  0  0  0  0  0  0  0
   49.2520   30.5490   40.7060 H   0  0  0  0  0  0  0  0  0  0  0  0
   48.2310   33.9920   37.4180 H   0  0  0  0  0  0  0  0  0  0  0  0
   47.1250   33.1710   45.1590 O   0  0  0  0  0  0  0  0  0  0  0  0
   46.1420   30.7530   44.6390 O   0  0  0  0  0  0  0  0  0  0  0  0
   46.5710   31.6960   45.7680 P   0  0  2  0  0  0  0  0  0  0  0  0
   45.1580   32.0530   46.6390 O   0  0  0  0  0  0  0  0  0  0  0  0
   45.3920   32.5830   47.4310 H   0  0  0  0  0  0  0  0  0  0  0  0
   47.6730   30.9910   46.8110 O   0  0  0  0  0  0  0  0  0  0  0  0
   47.6390   29.6060   46.5950 C   0  0  0  0  0  0  0  0  0  0  0  0
   46.6210   29.2060   46.8020 H   0  0  0  0  0  0  0  0  0  0  0  0
   47.9210   29.3200   45.5760 H   0  0  0  0  0  0  0  0  0  0  0  0
   47.8800   26.8790   46.6000 F   0  0  0  0  0  0  0  0  0  0  0  0
   48.6490   27.6010   47.4610 C   0  0  0  0  0  0  0  0  0  0  0  0
   48.6070   28.9990   47.5400 C   0  0  0  0  0  0  0  0  0  0  0  0
   49.4330   29.6210   48.4510 C   0  0  0  0  0  0  0  0  0  0  0  0
   49.3400   30.6880   48.4450 H   0  0  0  0  0  0  0  0  0  0  0  0
   50.2770   28.8940   49.2630 C   0  0  0  0  0  0  0  0  0  0  0  0
   50.8980   29.4140   49.9530 H   0  0  0  0  0  0  0  0  0  0  0  0
   50.3380   27.5050   49.2060 C   0  0  0  0  0  3  0  0  0  0  0  0
   49.5060   26.9020   48.2910 C   0  0  0  0  0  3  0  0  0  0  0  0
  1  6  1  0  0  0  0
  2  3  1  0  0  0  0
  2  7  1  0  0  0  0
  2  1  1  0  0  0  0
  3  4  1  0  0  0  0
  4 11  1  0  0  0  0
  4  5  1  0  0  0  0
  5 14  1  0  0  0  0
  5 13  1  0  0  0  0
  6 15  1  6  0  0  0
  6  5  1  0  0  0  0
  6 31  1  0  0  0  0
  8  2  1  0  0  0  0
  9  3  1  0  0  0  0
 10  3  1  0  0  0  0
 12  4  1  0  0  0  0
 16  1  1  0  0  0  0
 16 17  1  0  0  0  0
 18 16  1  0  0  0  0
 19 20  1  0  0  0  0
 19 16  1  0  0  0  0
 21 19  1  0  0  0  0
 22 23  1  0  0  0  0
 23 24  2  0  0  0  0
 23 29  1  0  0  0  0
 24 19  1  0  0  0  0
 25 24  1  0  0  0  0
 26 25  2  0  0  0  0
 27 26  1  0  0  0  0
 27 22  2  0  0  0  0
 28 22  1  0  0  0  0
 30 26  1  0  0  0  0
 31 33  1  0  0  0  0
 33 32  2  6  0  0  0
 33 34  1  0  0  0  0
 33 36  1  0  0  0  0
 34 35  1  0  0  0  0
 37 38  1  0  0  0  0
 37 36  1  0  0  0  0
 37 42  1  0  0  0  0
 39 37  1  0  0  0  0
 40 41  1  0  0  0  0
 41 42  2  0  0  0  0
 41 48  1  0  0  0  0
 42 43  1  0  0  0  0
 43 45  2  0  0  0  0
 44 43  1  0  0  0  0
 45 46  1  0  0  0  0
 47 45  1  0  0  0  0
 48 47  2  0  0  0  0
M  END
>  <minimizedAffinity>
-3.92300224

>  <minimizedRMSD>
1.44650841

$$$$
