
 OpenBabel03252509063D

 48 50  0  0  1  0  0  0  0  0999 V2000
   37.3070   29.1920   37.2770 N   0  0  0  0  0  0  0  0  0  0  0  0
   37.7810   28.3970   36.2120 C   0  0  0  0  0  0  0  0  0  0  0  0
   38.3120   27.0390   36.6220 C   0  0  0  0  0  0  0  0  0  0  0  0
   37.6230   26.4350   37.8260 C   0  0  0  0  0  0  0  0  0  0  0  0
   36.4400   27.2860   38.2620 C   0  0  0  0  0  0  0  0  0  0  0  0
   37.1050   28.6900   38.5380 C   0  0  2  0  0  0  0  0  0  0  0  0
   36.9050   28.1900   35.5300 H   0  0  0  0  0  0  0  0  0  0  0  0
   38.5400   28.8420   35.5630 H   0  0  0  0  0  0  0  0  0  0  0  0
   39.4300   27.0530   36.7360 H   0  0  0  0  0  0  0  0  0  0  0  0
   38.1440   26.3210   35.7830 H   0  0  0  0  0  0  0  0  0  0  0  0
   37.3830   25.3740   37.7060 H   0  0  0  0  0  0  0  0  0  0  0  0
   38.3590   26.4930   38.6620 H   0  0  0  0  0  0  0  0  0  0  0  0
   36.0700   26.8850   39.2230 H   0  0  0  0  0  0  0  0  0  0  0  0
   35.6790   27.4070   37.4800 H   0  0  0  0  0  0  0  0  0  0  0  0
   37.9900   28.4960   39.1830 H   0  0  0  0  0  0  0  0  0  0  0  0
   37.6250   30.6000   37.1420 C   0  0  0  0  0  0  0  0  0  0  0  0
   36.8340   31.2010   37.6410 H   0  0  0  0  0  0  0  0  0  0  0  0
   37.6590   30.8860   36.0870 H   0  0  0  0  0  0  0  0  0  0  0  0
   38.9140   30.8620   37.8500 C   0  0  0  0  0  0  0  0  0  0  0  0
   39.2770   30.0170   38.4590 H   0  0  0  0  0  0  0  0  0  0  0  0
   39.7300   31.1020   37.1220 H   0  0  0  0  0  0  0  0  0  0  0  0
   39.7770   33.8970   39.8940 C   0  0  0  0  0  0  0  0  0  0  0  0
   39.9000   32.7410   39.1040 C   0  0  0  0  0  0  0  0  0  0  0  0
   38.7720   32.0860   38.6850 C   0  0  0  0  0  0  0  0  0  0  0  0
   37.5920   32.5970   39.0590 N   0  0  0  0  0  0  0  0  0  0  0  0
   37.4770   33.6970   39.8110 C   0  0  0  0  0  0  0  0  0  0  0  0
   38.5600   34.3630   40.2380 N   0  0  0  0  0  0  0  0  0  0  0  0
   40.7360   34.3180   40.1600 H   0  0  0  0  0  0  0  0  0  0  0  0
   40.8710   32.3340   38.8070 H   0  0  0  0  0  0  0  0  0  0  0  0
   36.5400   34.1280   40.1250 H   0  0  0  0  0  0  0  0  0  0  0  0
   36.0910   29.3390   39.2230 O   0  0  0  0  0  0  0  0  0  0  0  0
   35.7480   28.3980   41.6880 O   0  0  0  0  0  0  0  0  0  0  0  0
   36.4180   29.5080   40.8710 P   0  0  2  0  0  0  0  0  0  0  0  0
   35.6670   30.9550   41.3480 O   0  0  0  0  0  0  0  0  0  0  0  0
   36.1240   31.7110   40.9200 H   0  0  0  0  0  0  0  0  0  0  0  0
   38.0570   29.6340   41.1790 O   0  0  0  0  0  0  0  0  0  0  0  0
   38.2270   29.6760   42.5710 C   0  0  0  0  0  0  0  0  0  0  0  0
   38.5640   30.6880   42.8890 H   0  0  0  0  0  0  0  0  0  0  0  0
   37.3170   29.4250   43.1250 H   0  0  0  0  0  0  0  0  0  0  0  0
   37.4550   27.4150   43.9090 F   0  0  0  0  0  0  0  0  0  0  0  0
   38.7720   27.5670   43.5910 C   0  0  0  0  0  0  0  0  0  0  0  0
   39.2750   28.6810   42.9060 C   0  0  0  0  0  0  0  0  0  0  0  0
   40.6250   28.7210   42.6400 C   0  0  0  0  0  0  0  0  0  0  0  0
   40.9240   29.6050   42.1140 H   0  0  0  0  0  0  0  0  0  0  0  0
   41.4620   27.6990   43.0340 C   0  0  0  0  0  0  0  0  0  0  0  0
   42.4990   27.7730   42.8090 H   0  0  0  0  0  0  0  0  0  0  0  0
   40.9900   26.5820   43.7160 C   0  0  0  0  0  3  0  0  0  0  0  0
   39.6400   26.5590   43.9730 C   0  0  0  0  0  3  0  0  0  0  0  0
  1  6  1  0  0  0  0
  2  3  1  0  0  0  0
  2  1  1  0  0  0  0
  3  9  1  0  0  0  0
  3  4  1  0  0  0  0
  4  5  1  0  0  0  0
  4 12  1  0  0  0  0
  5  6  1  0  0  0  0
  5 13  1  0  0  0  0
  6 15  1  1  0  0  0
  6 31  1  0  0  0  0
  7  2  1  0  0  0  0
  8  2  1  0  0  0  0
 10  3  1  0  0  0  0
 11  4  1  0  0  0  0
 14  5  1  0  0  0  0
 16  1  1  0  0  0  0
 16 17  1  0  0  0  0
 16 19  1  0  0  0  0
 18 16  1  0  0  0  0
 19 20  1  0  0  0  0
 19 24  1  0  0  0  0
 21 19  1  0  0  0  0
 22 28  1  0  0  0  0
 22 27  1  0  0  0  0
 23 22  2  0  0  0  0
 24 25  2  0  0  0  0
 24 23  1  0  0  0  0
 25 26  1  0  0  0  0
 26 30  1  0  0  0  0
 26 27  2  0  0  0  0
 29 23  1  0  0  0  0
 31 33  1  0  0  0  0
 33 36  1  0  0  0  0
 33 34  1  0  0  0  0
 33 32  2  1  0  0  0
 35 34  1  0  0  0  0
 36 37  1  0  0  0  0
 37 38  1  0  0  0  0
 37 42  1  0  0  0  0
 37 39  1  0  0  0  0
 41 40  1  0  0  0  0
 41 48  1  0  0  0  0
 42 41  2  0  0  0  0
 43 42  1  0  0  0  0
 43 45  2  0  0  0  0
 44 43  1  0  0  0  0
 45 47  1  0  0  0  0
 46 45  1  0  0  0  0
 47 48  2  0  0  0  0
M  END
>  <minimizedAffinity>
-5.71792841

$$$$

 OpenBabel03252509063D

 48 50  0  0  1  0  0  0  0  0999 V2000
   36.4710   29.4120   39.2690 N   0  0  0  0  0  0  0  0  0  0  0  0
   36.5530   29.2280   37.8720 C   0  0  0  0  0  0  0  0  0  0  0  0
   37.3220   27.9980   37.4380 C   0  0  0  0  0  0  0  0  0  0  0  0
   37.2240   26.8290   38.3950 C   0  0  0  0  0  0  0  0  0  0  0  0
   36.2390   27.1240   39.5160 C   0  0  0  0  0  0  0  0  0  0  0  0
   36.8300   28.4360   40.1630 C   0  0  2  0  0  0  0  0  0  0  0  0
   35.5010   29.0830   37.4890 H   0  0  0  0  0  0  0  0  0  0  0  0
   36.9490   30.0620   37.2870 H   0  0  0  0  0  0  0  0  0  0  0  0
   38.3880   28.2480   37.1840 H   0  0  0  0  0  0  0  0  0  0  0  0
   36.9000   27.6350   36.4700 H   0  0  0  0  0  0  0  0  0  0  0  0
   37.0520   25.8700   37.8970 H   0  0  0  0  0  0  0  0  0  0  0  0
   38.2220   26.7490   38.8850 H   0  0  0  0  0  0  0  0  0  0  0  0
   36.3180   26.3080   40.2590 H   0  0  0  0  0  0  0  0  0  0  0  0
   35.2230   27.3370   39.1590 H   0  0  0  0  0  0  0  0  0  0  0  0
   37.9120   28.2410   40.3330 H   0  0  0  0  0  0  0  0  0  0  0  0
   36.5820   30.7970   39.6830 C   0  0  0  0  0  0  0  0  0  0  0  0
   37.2940   30.8660   40.5340 H   0  0  0  0  0  0  0  0  0  0  0  0
   35.6120   31.1770   40.0170 H   0  0  0  0  0  0  0  0  0  0  0  0
   37.1480   31.5850   38.5490 C   0  0  0  0  0  0  0  0  0  0  0  0
   37.6060   30.9710   37.7540 H   0  0  0  0  0  0  0  0  0  0  0  0
   36.3560   32.2030   38.0540 H   0  0  0  0  0  0  0  0  0  0  0  0
   38.5910   34.5950   40.2790 C   0  0  0  0  0  0  0  0  0  0  0  0
   37.6720   33.6580   39.7750 C   0  0  0  0  0  0  0  0  0  0  0  0
   38.1290   32.5710   39.0790 C   0  0  0  0  0  0  0  0  0  0  0  0
   39.4540   32.4600   38.9170 N   0  0  0  0  0  0  0  0  0  0  0  0
   40.3270   33.3510   39.3970 C   0  0  0  0  0  0  0  0  0  0  0  0
   39.9140   34.4270   40.0830 N   0  0  0  0  0  0  0  0  0  0  0  0
   38.1060   35.4040   40.8060 H   0  0  0  0  0  0  0  0  0  0  0  0
   36.5930   33.7620   39.9150 H   0  0  0  0  0  0  0  0  0  0  0  0
   41.3970   33.2850   39.2800 H   0  0  0  0  0  0  0  0  0  0  0  0
   36.1170   28.4990   41.3480 O   0  0  0  0  0  0  0  0  0  0  0  0
   36.2340   27.1450   43.6370 O   0  0  0  0  0  0  0  0  0  0  0  0
   37.0360   28.0450   42.6900 P   0  0  2  0  0  0  0  0  0  0  0  0
   37.3380   29.4760   43.5530 O   0  0  0  0  0  0  0  0  0  0  0  0
   37.9300   30.0530   43.0230 H   0  0  0  0  0  0  0  0  0  0  0  0
   38.5030   27.3710   42.2510 O   0  0  0  0  0  0  0  0  0  0  0  0
   38.5480   26.0690   42.7720 C   0  0  0  0  0  0  0  0  0  0  0  0
   39.4600   25.9330   43.3950 H   0  0  0  0  0  0  0  0  0  0  0  0
   37.6730   25.8170   43.3810 H   0  0  0  0  0  0  0  0  0  0  0  0
   36.4160   24.3940   42.3840 F   0  0  0  0  0  0  0  0  0  0  0  0
   37.4620   24.3320   41.5110 C   0  0  0  0  0  0  0  0  0  0  0  0
   38.5990   25.1440   41.6140 C   0  0  0  0  0  0  0  0  0  0  0  0
   39.5900   24.9910   40.6710 C   0  0  0  0  0  0  0  0  0  0  0  0
   40.4220   25.6500   40.8230 H   0  0  0  0  0  0  0  0  0  0  0  0
   39.4730   24.0680   39.6530 C   0  0  0  0  0  0  0  0  0  0  0  0
   40.2640   23.9820   38.9480 H   0  0  0  0  0  0  0  0  0  0  0  0
   38.3550   23.2480   39.5280 C   0  0  0  0  0  3  0  0  0  0  0  0
   37.3770   23.4150   40.4780 C   0  0  0  0  0  3  0  0  0  0  0  0
  1 16  1  0  0  0  0
  1  6  1  0  0  0  0
  2  1  1  0  0  0  0
  3  2  1  0  0  0  0
  3  4  1  0  0  0  0
  4 12  1  0  0  0  0
  4  5  1  0  0  0  0
  5  6  1  0  0  0  0
  5 13  1  0  0  0  0
  6 15  1  1  0  0  0
  6 31  1  0  0  0  0
  7  2  1  0  0  0  0
  8  2  1  0  0  0  0
  9  3  1  0  0  0  0
 10  3  1  0  0  0  0
 11  4  1  0  0  0  0
 14  5  1  0  0  0  0
 16 18  1  0  0  0  0
 16 17  1  0  0  0  0
 19 24  1  0  0  0  0
 19 16  1  0  0  0  0
 20 19  1  0  0  0  0
 21 19  1  0  0  0  0
 22 28  1  0  0  0  0
 23 29  1  0  0  0  0
 23 22  2  0  0  0  0
 24 23  1  0  0  0  0
 25 24  2  0  0  0  0
 25 26  1  0  0  0  0
 26 27  2  0  0  0  0
 27 22  1  0  0  0  0
 30 26  1  0  0  0  0
 31 33  1  0  0  0  0
 33 34  1  0  0  0  0
 33 32  2  1  0  0  0
 35 34  1  0  0  0  0
 36 33  1  0  0  0  0
 36 37  1  0  0  0  0
 37 39  1  0  0  0  0
 37 38  1  0  0  0  0
 41 42  1  0  0  0  0
 41 40  1  0  0  0  0
 42 37  1  0  0  0  0
 43 44  1  0  0  0  0
 43 42  2  0  0  0  0
 45 43  1  0  0  0  0
 46 45  1  0  0  0  0
 47 45  2  0  0  0  0
 47 48  1  0  0  0  0
 48 41  2  0  0  0  0
M  END
>  <minimizedAffinity>
-5.64127064

$$$$

 OpenBabel03252509063D

 48 50  0  0  1  0  0  0  0  0999 V2000
   37.9670   27.2840   42.9030 N   0  0  0  0  0  0  0  0  0  0  0  0
   39.1720   26.9340   43.5480 C   0  0  0  0  0  0  0  0  0  0  0  0
   40.3880   27.7070   43.0830 C   0  0  0  0  0  0  0  0  0  0  0  0
   40.0980   29.1270   42.6470 C   0  0  0  0  0  0  0  0  0  0  0  0
   38.6470   29.4950   42.9190 C   0  0  0  0  0  0  0  0  0  0  0  0
   37.8520   28.3980   42.1110 C   0  0  2  0  0  0  0  0  0  0  0  0
   39.0520   27.1800   44.6430 H   0  0  0  0  0  0  0  0  0  0  0  0
   39.4530   25.8770   43.5290 H   0  0  0  0  0  0  0  0  0  0  0  0
   40.9670   27.1360   42.3070 H   0  0  0  0  0  0  0  0  0  0  0  0
   41.1060   27.7910   43.9350 H   0  0  0  0  0  0  0  0  0  0  0  0
   40.8190   29.8570   43.0270 H   0  0  0  0  0  0  0  0  0  0  0  0
   40.2070   29.1350   41.5370 H   0  0  0  0  0  0  0  0  0  0  0  0
   38.4540   30.4780   42.4500 H   0  0  0  0  0  0  0  0  0  0  0  0
   38.3700   29.4190   43.9790 H   0  0  0  0  0  0  0  0  0  0  0  0
   38.2970   28.3770   41.0920 H   0  0  0  0  0  0  0  0  0  0  0  0
   37.1020   26.1540   42.6260 C   0  0  0  0  0  0  0  0  0  0  0  0
   36.1720   26.5190   42.1380 H   0  0  0  0  0  0  0  0  0  0  0  0
   36.8240   25.6470   43.5550 H   0  0  0  0  0  0  0  0  0  0  0  0
   37.7990   25.2500   41.6650 C   0  0  0  0  0  0  0  0  0  0  0  0
   38.7980   25.6010   41.3560 H   0  0  0  0  0  0  0  0  0  0  0  0
   37.9430   24.2300   42.1040 H   0  0  0  0  0  0  0  0  0  0  0  0
   35.4510   23.6300   39.2150 C   0  0  0  0  0  0  0  0  0  0  0  0
   36.2750   23.8420   40.3350 C   0  0  0  0  0  0  0  0  0  0  0  0
   36.9290   25.0360   40.4760 C   0  0  0  0  0  0  0  0  0  0  0  0
   36.7420   25.9540   39.5190 N   0  0  0  0  0  0  0  0  0  0  0  0
   35.9590   25.7510   38.4540 C   0  0  0  0  0  0  0  0  0  0  0  0
   35.3030   24.5940   38.2850 N   0  0  0  0  0  0  0  0  0  0  0  0
   34.9940   22.6500   39.2200 H   0  0  0  0  0  0  0  0  0  0  0  0
   36.4180   23.0820   41.1090 H   0  0  0  0  0  0  0  0  0  0  0  0
   35.7920   26.4720   37.6700 H   0  0  0  0  0  0  0  0  0  0  0  0
   36.5750   28.9350   42.1120 O   0  0  0  0  0  0  0  0  0  0  0  0
   34.7470   29.0730   40.1840 O   0  0  0  0  0  0  0  0  0  0  0  0
   36.1300   29.5720   40.6130 P   0  0  2  0  0  0  0  0  0  0  0  0
   37.2280   28.9260   39.4900 O   0  0  0  0  0  0  0  0  0  0  0  0
   38.1220   29.2910   39.6650 H   0  0  0  0  0  0  0  0  0  0  0  0
   36.2530   31.2400   40.5760 O   0  0  0  0  0  0  0  0  0  0  0  0
   36.9520   31.5900   39.4120 C   0  0  0  0  0  0  0  0  0  0  0  0
   37.3210   30.6780   38.8920 H   0  0  0  0  0  0  0  0  0  0  0  0
   36.3510   32.1710   38.7050 H   0  0  0  0  0  0  0  0  0  0  0  0
   36.6750   34.3130   39.3270 F   0  0  0  0  0  0  0  0  0  0  0  0
   37.8610   33.7920   39.7510 C   0  0  0  0  0  0  0  0  0  0  0  0
   38.1100   32.4150   39.8360 C   0  0  0  0  0  0  0  0  0  0  0  0
   39.3470   32.0080   40.2810 C   0  0  0  0  0  0  0  0  0  0  0  0
   39.4530   30.9420   40.3160 H   0  0  0  0  0  0  0  0  0  0  0  0
   40.3170   32.9230   40.6330 C   0  0  0  0  0  0  0  0  0  0  0  0
   41.2600   32.5630   40.9690 H   0  0  0  0  0  0  0  0  0  0  0  0
   40.0970   34.2950   40.5570 C   0  0  0  0  0  3  0  0  0  0  0  0
   38.8570   34.6830   40.1120 C   0  0  0  0  0  3  0  0  0  0  0  0
  1  2  1  0  0  0  0
  2  7  1  0  0  0  0
  3  2  1  0  0  0  0
  3 10  1  0  0  0  0
  4  5  1  0  0  0  0
  4 11  1  0  0  0  0
  4  3  1  0  0  0  0
  5 14  1  0  0  0  0
  6 15  1  6  0  0  0
  6 31  1  0  0  0  0
  6  1  1  0  0  0  0
  6  5  1  0  0  0  0
  8  2  1  0  0  0  0
  9  3  1  0  0  0  0
 12  4  1  0  0  0  0
 13  5  1  0  0  0  0
 16  1  1  0  0  0  0
 16 18  1  0  0  0  0
 17 16  1  0  0  0  0
 19 21  1  0  0  0  0
 19 16  1  0  0  0  0
 20 19  1  0  0  0  0
 22 28  1  0  0  0  0
 22 23  1  0  0  0  0
 23 24  2  0  0  0  0
 23 29  1  0  0  0  0
 24 19  1  0  0  0  0
 25 24  1  0  0  0  0
 26 25  2  0  0  0  0
 27 26  1  0  0  0  0
 27 22  2  0  0  0  0
 30 26  1  0  0  0  0
 33 32  2  6  0  0  0
 33 31  1  0  0  0  0
 34 35  1  0  0  0  0
 34 33  1  0  0  0  0
 36 33  1  0  0  0  0
 37 42  1  0  0  0  0
 37 36  1  0  0  0  0
 38 37  1  0  0  0  0
 39 37  1  0  0  0  0
 40 41  1  0  0  0  0
 41 42  2  0  0  0  0
 41 48  1  0  0  0  0
 42 43  1  0  0  0  0
 43 44  1  0  0  0  0
 43 45  2  0  0  0  0
 45 46  1  0  0  0  0
 47 45  1  0  0  0  0
 48 47  2  0  0  0  0
M  END
>  <minimizedAffinity>
-5.61648083

$$$$

 OpenBabel03252509063D

 48 50  0  0  1  0  0  0  0  0999 V2000
   40.9230   31.2870   41.6120 N   0  0  0  0  0  0  0  0  0  0  0  0
   41.6110   31.2870   42.8440 C   0  0  0  0  0  0  0  0  0  0  0  0
   43.0570   31.7300   42.7620 C   0  0  0  0  0  0  0  0  0  0  0  0
   43.3360   32.7610   41.6900 C   0  0  0  0  0  0  0  0  0  0  0  0
   42.0460   33.2240   41.0300 C   0  0  0  0  0  0  0  0  0  0  0  0
   41.4320   31.8780   40.4830 C   0  0  2  0  0  0  0  0  0  0  0  0
   41.0990   32.0350   43.5160 H   0  0  0  0  0  0  0  0  0  0  0  0
   41.6060   30.3520   43.4110 H   0  0  0  0  0  0  0  0  0  0  0  0
   43.7530   30.8500   42.6940 H   0  0  0  0  0  0  0  0  0  0  0  0
   43.3380   32.2120   43.7290 H   0  0  0  0  0  0  0  0  0  0  0  0
   43.9780   33.5800   42.0280 H   0  0  0  0  0  0  0  0  0  0  0  0
   43.9070   32.2290   40.8940 H   0  0  0  0  0  0  0  0  0  0  0  0
   42.3170   33.8570   40.1640 H   0  0  0  0  0  0  0  0  0  0  0  0
   41.3330   33.6730   41.7350 H   0  0  0  0  0  0  0  0  0  0  0  0
   42.2500   31.3620   39.9340 H   0  0  0  0  0  0  0  0  0  0  0  0
   40.0120   30.1710   41.4500 C   0  0  0  0  0  0  0  0  0  0  0  0
   40.6000   29.2470   41.2590 H   0  0  0  0  0  0  0  0  0  0  0  0
   39.3480   30.3370   40.5970 H   0  0  0  0  0  0  0  0  0  0  0  0
   39.2670   29.9810   42.7300 C   0  0  0  0  0  0  0  0  0  0  0  0
   39.9080   29.9420   43.6260 H   0  0  0  0  0  0  0  0  0  0  0  0
   38.5390   30.8150   42.8970 H   0  0  0  0  0  0  0  0  0  0  0  0
   36.6760   27.3670   43.4970 C   0  0  0  0  0  0  0  0  0  0  0  0
   37.4710   28.5240   43.5810 C   0  0  0  0  0  0  0  0  0  0  0  0
   38.4300   28.7550   42.6310 C   0  0  0  0  0  0  0  0  0  0  0  0
   38.5560   27.8470   41.6550 N   0  0  0  0  0  0  0  0  0  0  0  0
   37.7990   26.7470   41.5760 C   0  0  0  0  0  0  0  0  0  0  0  0
   36.8510   26.4900   42.4890 N   0  0  0  0  0  0  0  0  0  0  0  0
   35.9600   27.3000   44.3040 H   0  0  0  0  0  0  0  0  0  0  0  0
   37.3570   29.2560   44.3850 H   0  0  0  0  0  0  0  0  0  0  0  0
   37.8810   26.0010   40.8010 H   0  0  0  0  0  0  0  0  0  0  0  0
   40.4500   32.3560   39.6310 O   0  0  0  0  0  0  0  0  0  0  0  0
   41.7720   30.7800   37.9430 O   0  0  0  0  0  0  0  0  0  0  0  0
   40.5560   31.7030   38.0780 P   0  0  2  0  0  0  0  0  0  0  0  0
   40.8510   33.0160   37.0410 O   0  0  0  0  0  0  0  0  0  0  0  0
   40.0580   33.5940   37.0200 H   0  0  0  0  0  0  0  0  0  0  0  0
   39.1320   30.9640   37.6050 O   0  0  0  0  0  0  0  0  0  0  0  0
   38.0690   31.7770   38.0250 C   0  0  0  0  0  0  0  0  0  0  0  0
   38.4430   32.5950   38.6800 H   0  0  0  0  0  0  0  0  0  0  0  0
   37.5150   32.2270   37.1940 H   0  0  0  0  0  0  0  0  0  0  0  0
   37.3840   32.5810   40.5510 F   0  0  0  0  0  0  0  0  0  0  0  0
   36.8630   31.4150   40.0750 C   0  0  0  0  0  0  0  0  0  0  0  0
   37.1440   30.9130   38.7970 C   0  0  0  0  0  0  0  0  0  0  0  0
   36.5570   29.7240   38.4270 C   0  0  0  0  0  0  0  0  0  0  0  0
   36.8240   29.4130   37.4360 H   0  0  0  0  0  0  0  0  0  0  0  0
   35.7170   29.0440   39.2830 C   0  0  0  0  0  0  0  0  0  0  0  0
   35.2870   28.1270   38.9550 H   0  0  0  0  0  0  0  0  0  0  0  0
   35.4220   29.5190   40.5570 C   0  0  0  0  0  3  0  0  0  0  0  0
   36.0170   30.7060   40.9090 C   0  0  0  0  0  3  0  0  0  0  0  0
  1  2  1  0  0  0  0
  2  8  1  0  0  0  0
  2  7  1  0  0  0  0
  3  2  1  0  0  0  0
  3 10  1  0  0  0  0
  4 11  1  0  0  0  0
  4  3  1  0  0  0  0
  5  4  1  0  0  0  0
  5 14  1  0  0  0  0
  6 15  1  6  0  0  0
  6  5  1  0  0  0  0
  6  1  1  0  0  0  0
  9  3  1  0  0  0  0
 12  4  1  0  0  0  0
 13  5  1  0  0  0  0
 16  1  1  0  0  0  0
 16 19  1  0  0  0  0
 17 16  1  0  0  0  0
 18 16  1  0  0  0  0
 19 21  1  0  0  0  0
 19 20  1  0  0  0  0
 22 23  1  0  0  0  0
 22 28  1  0  0  0  0
 23 29  1  0  0  0  0
 24 19  1  0  0  0  0
 24 23  2  0  0  0  0
 25 24  1  0  0  0  0
 26 25  2  0  0  0  0
 26 27  1  0  0  0  0
 27 22  2  0  0  0  0
 30 26  1  0  0  0  0
 31  6  1  0  0  0  0
 33 32  2  6  0  0  0
 33 31  1  0  0  0  0
 34 33  1  0  0  0  0
 35 34  1  0  0  0  0
 36 37  1  0  0  0  0
 36 33  1  0  0  0  0
 37 38  1  0  0  0  0
 37 42  1  0  0  0  0
 39 37  1  0  0  0  0
 41 40  1  0  0  0  0
 41 48  1  0  0  0  0
 42 41  2  0  0  0  0
 43 42  1  0  0  0  0
 43 45  2  0  0  0  0
 44 43  1  0  0  0  0
 45 47  1  0  0  0  0
 46 45  1  0  0  0  0
 47 48  2  0  0  0  0
M  END
>  <minimizedAffinity>
-5.60531092

$$$$

 OpenBabel03252509063D

 48 50  0  0  1  0  0  0  0  0999 V2000
   38.5410   26.3360   42.0900 N   0  0  0  0  0  0  0  0  0  0  0  0
   38.1480   24.9990   41.8630 C   0  0  0  0  0  0  0  0  0  0  0  0
   36.8870   24.8400   41.0390 C   0  0  0  0  0  0  0  0  0  0  0  0
   36.6760   25.9230   40.0030 C   0  0  0  0  0  0  0  0  0  0  0  0
   37.8760   26.8550   39.9360 C   0  0  0  0  0  0  0  0  0  0  0  0
   37.9840   27.3920   41.4160 C   0  0  2  0  0  0  0  0  0  0  0  0
   38.9690   24.5040   41.2660 H   0  0  0  0  0  0  0  0  0  0  0  0
   38.0230   24.3650   42.7440 H   0  0  0  0  0  0  0  0  0  0  0  0
   35.9840   24.6980   41.6930 H   0  0  0  0  0  0  0  0  0  0  0  0
   36.9510   23.8820   40.4680 H   0  0  0  0  0  0  0  0  0  0  0  0
   36.3580   25.5400   39.0290 H   0  0  0  0  0  0  0  0  0  0  0  0
   35.8310   26.5470   40.3800 H   0  0  0  0  0  0  0  0  0  0  0  0
   37.6090   27.7050   39.2800 H   0  0  0  0  0  0  0  0  0  0  0  0
   38.8120   26.3420   39.6810 H   0  0  0  0  0  0  0  0  0  0  0  0
   36.9630   27.7280   41.7010 H   0  0  0  0  0  0  0  0  0  0  0  0
   39.0680   26.5720   43.4200 C   0  0  0  0  0  0  0  0  0  0  0  0
   38.2470   26.4620   44.1610 H   0  0  0  0  0  0  0  0  0  0  0  0
   39.4690   27.5870   43.4990 H   0  0  0  0  0  0  0  0  0  0  0  0
   40.0920   25.5260   43.7130 C   0  0  0  0  0  0  0  0  0  0  0  0
   39.9190   24.9730   44.6520 H   0  0  0  0  0  0  0  0  0  0  0  0
   40.1300   24.7600   42.8970 H   0  0  0  0  0  0  0  0  0  0  0  0
   43.8080   25.9770   43.3590 C   0  0  0  0  0  0  0  0  0  0  0  0
   42.5280   25.3950   43.3590 C   0  0  0  0  0  0  0  0  0  0  0  0
   41.4430   26.1510   43.7160 C   0  0  0  0  0  0  0  0  0  0  0  0
   41.6690   27.4280   44.0500 N   0  0  0  0  0  0  0  0  0  0  0  0
   42.8870   27.9800   44.0490 C   0  0  0  0  0  0  0  0  0  0  0  0
   43.9710   27.2690   43.7050 N   0  0  0  0  0  0  0  0  0  0  0  0
   44.5770   25.2780   43.0600 H   0  0  0  0  0  0  0  0  0  0  0  0
   42.3580   24.3510   43.0840 H   0  0  0  0  0  0  0  0  0  0  0  0
   43.0960   29.0040   44.3140 H   0  0  0  0  0  0  0  0  0  0  0  0
   38.8580   28.4540   41.2550 O   0  0  0  0  0  0  0  0  0  0  0  0
   39.3570   30.4260   42.9710 O   0  0  0  0  0  0  0  0  0  0  0  0
   38.3130   29.8690   41.9970 P   0  0  2  0  0  0  0  0  0  0  0  0
   36.9840   29.4130   42.9500 O   0  0  0  0  0  0  0  0  0  0  0  0
   36.2470   29.1340   42.3630 H   0  0  0  0  0  0  0  0  0  0  0  0
   37.8010   31.0080   40.8830 O   0  0  0  0  0  0  0  0  0  0  0  0
   36.4070   30.8990   40.7720 C   0  0  0  0  0  0  0  0  0  0  0  0
   36.0010   30.2720   41.5970 H   0  0  0  0  0  0  0  0  0  0  0  0
   35.8950   31.8670   40.7890 H   0  0  0  0  0  0  0  0  0  0  0  0
   34.4480   28.9870   40.7040 F   0  0  0  0  0  0  0  0  0  0  0  0
   35.1140   29.2780   39.5510 C   0  0  0  0  0  0  0  0  0  0  0  0
   36.1310   30.2400   39.4720 C   0  0  0  0  0  0  0  0  0  0  0  0
   36.7300   30.4480   38.2500 C   0  0  0  0  0  0  0  0  0  0  0  0
   37.4940   31.1990   38.2780 H   0  0  0  0  0  0  0  0  0  0  0  0
   36.3460   29.7350   37.1350 C   0  0  0  0  0  0  0  0  0  0  0  0
   36.8380   29.9270   36.2110 H   0  0  0  0  0  0  0  0  0  0  0  0
   35.3410   28.7740   37.1850 C   0  0  0  0  0  3  0  0  0  0  0  0
   34.7540   28.5800   38.4120 C   0  0  0  0  0  3  0  0  0  0  0  0
  1 16  1  0  0  0  0
  2  1  1  0  0  0  0
  2  8  1  0  0  0  0
  3  9  1  0  0  0  0
  3  2  1  0  0  0  0
  4 12  1  0  0  0  0
  4  3  1  0  0  0  0
  5  4  1  0  0  0  0
  5  6  1  0  0  0  0
  6 15  1  1  0  0  0
  6  1  1  0  0  0  0
  7  2  1  0  0  0  0
 10  3  1  0  0  0  0
 11  4  1  0  0  0  0
 13  5  1  0  0  0  0
 14  5  1  0  0  0  0
 16 18  1  0  0  0  0
 16 19  1  0  0  0  0
 16 17  1  0  0  0  0
 19 24  1  0  0  0  0
 19 20  1  0  0  0  0
 21 19  1  0  0  0  0
 22 27  1  0  0  0  0
 23 22  2  0  0  0  0
 23 24  1  0  0  0  0
 24 25  2  0  0  0  0
 26 25  1  0  0  0  0
 26 30  1  0  0  0  0
 27 26  2  0  0  0  0
 28 22  1  0  0  0  0
 29 23  1  0  0  0  0
 31  6  1  0  0  0  0
 31 33  1  0  0  0  0
 33 34  1  0  0  0  0
 33 32  2  1  0  0  0
 35 34  1  0  0  0  0
 36 33  1  0  0  0  0
 37 39  1  0  0  0  0
 37 36  1  0  0  0  0
 37 38  1  0  0  0  0
 41 40  1  0  0  0  0
 42 41  1  0  0  0  0
 42 37  1  0  0  0  0
 43 44  1  0  0  0  0
 43 42  2  0  0  0  0
 45 47  2  0  0  0  0
 45 43  1  0  0  0  0
 46 45  1  0  0  0  0
 47 48  1  0  0  0  0
 48 41  2  0  0  0  0
M  END
>  <minimizedAffinity>
-5.57899857

$$$$

 OpenBabel03252509063D

 48 50  0  0  1  0  0  0  0  0999 V2000
   38.1020   28.7500   37.8650 N   0  0  0  0  0  0  0  0  0  0  0  0
   38.0140   28.0110   36.6650 C   0  0  0  0  0  0  0  0  0  0  0  0
   36.8070   28.3350   35.8090 C   0  0  0  0  0  0  0  0  0  0  0  0
   36.3420   29.7720   35.9010 C   0  0  0  0  0  0  0  0  0  0  0  0
   37.3030   30.6040   36.7360 C   0  0  0  0  0  0  0  0  0  0  0  0
   37.3130   29.8420   38.1180 C   0  0  2  0  0  0  0  0  0  0  0  0
   38.9150   28.2780   36.0380 H   0  0  0  0  0  0  0  0  0  0  0  0
   38.0480   26.9220   36.7520 H   0  0  0  0  0  0  0  0  0  0  0  0
   35.9690   27.6070   35.9890 H   0  0  0  0  0  0  0  0  0  0  0  0
   37.0730   28.1680   34.7380 H   0  0  0  0  0  0  0  0  0  0  0  0
   36.1020   30.2160   34.9300 H   0  0  0  0  0  0  0  0  0  0  0  0
   35.3860   29.7490   36.4750 H   0  0  0  0  0  0  0  0  0  0  0  0
   36.8430   31.5970   36.8930 H   0  0  0  0  0  0  0  0  0  0  0  0
   38.3260   30.6190   36.3380 H   0  0  0  0  0  0  0  0  0  0  0  0
   36.2480   29.6780   38.3920 H   0  0  0  0  0  0  0  0  0  0  0  0
   38.5860   27.9770   38.9920 C   0  0  0  0  0  0  0  0  0  0  0  0
   38.9510   28.6720   39.7790 H   0  0  0  0  0  0  0  0  0  0  0  0
   39.4190   27.3350   38.6890 H   0  0  0  0  0  0  0  0  0  0  0  0
   37.4420   27.2030   39.5590 C   0  0  0  0  0  0  0  0  0  0  0  0
   36.7650   27.7980   40.1960 H   0  0  0  0  0  0  0  0  0  0  0  0
   36.8090   26.7670   38.7450 H   0  0  0  0  0  0  0  0  0  0  0  0
   37.5810   24.1140   41.6980 C   0  0  0  0  0  0  0  0  0  0  0  0
   37.0930   25.2250   40.9870 C   0  0  0  0  0  0  0  0  0  0  0  0
   37.9680   26.0300   40.3080 C   0  0  0  0  0  0  0  0  0  0  0  0
   39.2670   25.7050   40.3610 N   0  0  0  0  0  0  0  0  0  0  0  0
   39.7290   24.6480   41.0380 C   0  0  0  0  0  0  0  0  0  0  0  0
   38.9000   23.8390   41.7130 N   0  0  0  0  0  0  0  0  0  0  0  0
   36.7920   23.5620   42.1900 H   0  0  0  0  0  0  0  0  0  0  0  0
   36.0300   25.4780   40.9530 H   0  0  0  0  0  0  0  0  0  0  0  0
   40.7680   24.3650   41.0960 H   0  0  0  0  0  0  0  0  0  0  0  0
   37.9260   30.7760   38.9370 O   0  0  0  0  0  0  0  0  0  0  0  0
   35.7430   30.2950   40.3810 O   0  0  0  0  0  0  0  0  0  0  0  0
   37.0860   31.0340   40.3780 P   0  0  2  0  0  0  0  0  0  0  0  0
   36.7060   32.6900   40.4050 O   0  0  0  0  0  0  0  0  0  0  0  0
   37.5340   33.2090   40.4970 H   0  0  0  0  0  0  0  0  0  0  0  0
   38.0170   30.6820   41.7230 O   0  0  0  0  0  0  0  0  0  0  0  0
   37.4560   29.5590   42.3470 C   0  0  0  0  0  0  0  0  0  0  0  0
   36.8500   29.8670   43.2280 H   0  0  0  0  0  0  0  0  0  0  0  0
   36.8210   28.9660   41.6810 H   0  0  0  0  0  0  0  0  0  0  0  0
   36.8650   27.3370   43.8360 F   0  0  0  0  0  0  0  0  0  0  0  0
   38.1720   27.6050   43.5560 C   0  0  0  0  0  0  0  0  0  0  0  0
   38.5860   28.7110   42.8010 C   0  0  0  0  0  0  0  0  0  0  0  0
   39.9350   28.8760   42.5830 C   0  0  0  0  0  0  0  0  0  0  0  0
   40.1640   29.7440   41.9980 H   0  0  0  0  0  0  0  0  0  0  0  0
   40.8560   27.9830   43.0890 C   0  0  0  0  0  0  0  0  0  0  0  0
   41.8890   28.1510   42.8970 H   0  0  0  0  0  0  0  0  0  0  0  0
   40.4730   26.8770   43.8420 C   0  0  0  0  0  3  0  0  0  0  0  0
   39.1230   26.7290   44.0500 C   0  0  0  0  0  3  0  0  0  0  0  0
  1  6  1  0  0  0  0
  1 16  1  0  0  0  0
  2  8  1  0  0  0  0
  2  1  1  0  0  0  0
  3  4  1  0  0  0  0
  3  9  1  0  0  0  0
  3  2  1  0  0  0  0
  4 12  1  0  0  0  0
  4  5  1  0  0  0  0
  5 13  1  0  0  0  0
  5  6  1  0  0  0  0
  6 15  1  1  0  0  0
  6 31  1  0  0  0  0
  7  2  1  0  0  0  0
 10  3  1  0  0  0  0
 11  4  1  0  0  0  0
 14  5  1  0  0  0  0
 16 19  1  0  0  0  0
 16 17  1  0  0  0  0
 18 16  1  0  0  0  0
 19 20  1  0  0  0  0
 19 24  1  0  0  0  0
 21 19  1  0  0  0  0
 22 27  1  0  0  0  0
 22 28  1  0  0  0  0
 23 22  2  0  0  0  0
 24 25  2  0  0  0  0
 24 23  1  0  0  0  0
 25 26  1  0  0  0  0
 26 30  1  0  0  0  0
 26 27  2  0  0  0  0
 29 23  1  0  0  0  0
 31 33  1  0  0  0  0
 33 32  2  1  0  0  0
 33 34  1  0  0  0  0
 33 36  1  0  0  0  0
 34 35  1  0  0  0  0
 36 37  1  0  0  0  0
 37 42  1  0  0  0  0
 37 38  1  0  0  0  0
 39 37  1  0  0  0  0
 41 40  1  0  0  0  0
 41 48  1  0  0  0  0
 42 41  2  0  0  0  0
 43 42  1  0  0  0  0
 43 45  2  0  0  0  0
 44 43  1  0  0  0  0
 45 47  1  0  0  0  0
 46 45  1  0  0  0  0
 47 48  2  0  0  0  0
M  END
>  <minimizedAffinity>
-5.57817459

$$$$

 OpenBabel03252509063D

 48 50  0  0  1  0  0  0  0  0999 V2000
   37.4190   28.8340   37.9320 N   0  0  0  0  0  0  0  0  0  0  0  0
   38.0630   28.3400   36.7770 C   0  0  0  0  0  0  0  0  0  0  0  0
   39.4680   27.8210   37.0080 C   0  0  0  0  0  0  0  0  0  0  0  0
   39.6920   27.2090   38.3740 C   0  0  0  0  0  0  0  0  0  0  0  0
   38.3890   27.1270   39.1550 C   0  0  0  0  0  0  0  0  0  0  0  0
   37.9120   28.6300   39.1950 C   0  0  2  0  0  0  0  0  0  0  0  0
   37.4660   27.4550   36.4100 H   0  0  0  0  0  0  0  0  0  0  0  0
   38.1210   29.0130   35.9180 H   0  0  0  0  0  0  0  0  0  0  0  0
   40.2390   28.6010   36.7620 H   0  0  0  0  0  0  0  0  0  0  0  0
   39.6740   27.0070   36.2720 H   0  0  0  0  0  0  0  0  0  0  0  0
   40.2490   26.2670   38.3440 H   0  0  0  0  0  0  0  0  0  0  0  0
   40.3330   27.9300   38.9320 H   0  0  0  0  0  0  0  0  0  0  0  0
   38.6320   26.8150   40.1880 H   0  0  0  0  0  0  0  0  0  0  0  0
   37.6170   26.5280   38.6540 H   0  0  0  0  0  0  0  0  0  0  0  0
   38.7890   29.2280   39.5280 H   0  0  0  0  0  0  0  0  0  0  0  0
   36.6140   30.0160   37.6910 C   0  0  0  0  0  0  0  0  0  0  0  0
   36.2680   30.4240   38.6650 H   0  0  0  0  0  0  0  0  0  0  0  0
   35.7340   29.7660   37.0910 H   0  0  0  0  0  0  0  0  0  0  0  0
   37.4750   31.0490   37.0430 C   0  0  0  0  0  0  0  0  0  0  0  0
   38.2740   30.6360   36.4030 H   0  0  0  0  0  0  0  0  0  0  0  0
   36.8680   31.7280   36.3930 H   0  0  0  0  0  0  0  0  0  0  0  0
   37.7450   33.5550   39.8330 C   0  0  0  0  0  0  0  0  0  0  0  0
   37.2110   32.7150   38.8400 C   0  0  0  0  0  0  0  0  0  0  0  0
   38.0510   31.9340   38.0920 C   0  0  0  0  0  0  0  0  0  0  0  0
   39.3610   32.0160   38.3570 N   0  0  0  0  0  0  0  0  0  0  0  0
   39.8680   32.8150   39.3020 C   0  0  0  0  0  0  0  0  0  0  0  0
   39.0740   33.5930   40.0520 N   0  0  0  0  0  0  0  0  0  0  0  0
   36.9810   34.1190   40.3490 H   0  0  0  0  0  0  0  0  0  0  0  0
   36.1380   32.6590   38.6350 H   0  0  0  0  0  0  0  0  0  0  0  0
   40.9170   32.9000   39.5340 H   0  0  0  0  0  0  0  0  0  0  0  0
   36.9210   28.5740   40.1610 O   0  0  0  0  0  0  0  0  0  0  0  0
   36.1400   30.8030   41.3870 O   0  0  0  0  0  0  0  0  0  0  0  0
   37.1710   29.6700   41.4210 P   0  0  2  0  0  0  0  0  0  0  0  0
   38.6740   30.3980   41.1120 O   0  0  0  0  0  0  0  0  0  0  0  0
   39.3850   29.7280   41.2140 H   0  0  0  0  0  0  0  0  0  0  0  0
   37.2460   28.9120   42.9100 O   0  0  0  0  0  0  0  0  0  0  0  0
   36.7690   27.6030   42.7470 C   0  0  0  0  0  0  0  0  0  0  0  0
   35.9840   27.3790   43.5040 H   0  0  0  0  0  0  0  0  0  0  0  0
   36.3530   27.4160   41.7520 H   0  0  0  0  0  0  0  0  0  0  0  0
   36.6800   25.1350   41.5640 F   0  0  0  0  0  0  0  0  0  0  0  0
   37.7750   25.4610   42.3090 C   0  0  0  0  0  0  0  0  0  0  0  0
   37.9250   26.6970   42.9550 C   0  0  0  0  0  0  0  0  0  0  0  0
   39.0760   26.9110   43.6780 C   0  0  0  0  0  0  0  0  0  0  0  0
   39.1100   27.8790   44.1380 H   0  0  0  0  0  0  0  0  0  0  0  0
   40.0550   25.9450   43.7680 C   0  0  0  0  0  0  0  0  0  0  0  0
   40.9270   26.1530   44.3400 H   0  0  0  0  0  0  0  0  0  0  0  0
   39.9310   24.7100   43.1380 C   0  0  0  0  0  3  0  0  0  0  0  0
   38.7760   24.5130   42.4210 C   0  0  0  0  0  3  0  0  0  0  0  0
  1  6  1  0  0  0  0
  2  3  1  0  0  0  0
  2  1  1  0  0  0  0
  3  4  1  0  0  0  0
  4 12  1  0  0  0  0
  4  5  1  0  0  0  0
  5  6  1  0  0  0  0
  5 13  1  0  0  0  0
  6 15  1  1  0  0  0
  6 31  1  0  0  0  0
  7  2  1  0  0  0  0
  8  2  1  0  0  0  0
  9  3  1  0  0  0  0
 10  3  1  0  0  0  0
 11  4  1  0  0  0  0
 14  5  1  0  0  0  0
 16  1  1  0  0  0  0
 16 17  1  0  0  0  0
 18 16  1  0  0  0  0
 19 16  1  0  0  0  0
 19 24  1  0  0  0  0
 20 19  1  0  0  0  0
 21 19  1  0  0  0  0
 22 27  1  0  0  0  0
 22 28  1  0  0  0  0
 23 22  2  0  0  0  0
 24 25  2  0  0  0  0
 24 23  1  0  0  0  0
 25 26  1  0  0  0  0
 26 30  1  0  0  0  0
 26 27  2  0  0  0  0
 29 23  1  0  0  0  0
 31 33  1  0  0  0  0
 33 32  2  1  0  0  0
 33 36  1  0  0  0  0
 34 35  1  0  0  0  0
 34 33  1  0  0  0  0
 37 36  1  0  0  0  0
 37 42  1  0  0  0  0
 37 38  1  0  0  0  0
 39 37  1  0  0  0  0
 40 41  1  0  0  0  0
 41 48  2  0  0  0  0
 41 42  1  0  0  0  0
 42 43  2  0  0  0  0
 43 45  1  0  0  0  0
 43 44  1  0  0  0  0
 45 46  1  0  0  0  0
 47 45  2  0  0  0  0
 48 47  1  0  0  0  0
M  END
>  <minimizedAffinity>
-5.57540131

$$$$

 OpenBabel03252509063D

 48 50  0  0  1  0  0  0  0  0999 V2000
   38.6900   29.2360   37.9120 N   0  0  0  0  0  0  0  0  0  0  0  0
   39.5890   28.3580   37.2710 C   0  0  0  0  0  0  0  0  0  0  0  0
   40.0930   27.2230   38.1380 C   0  0  0  0  0  0  0  0  0  0  0  0
   39.1030   26.7380   39.1740 C   0  0  0  0  0  0  0  0  0  0  0  0
   37.7550   27.4220   39.0010 C   0  0  0  0  0  0  0  0  0  0  0  0
   38.1210   28.9510   39.1270 C   0  0  2  0  0  0  0  0  0  0  0  0
   39.0320   27.8680   36.4190 H   0  0  0  0  0  0  0  0  0  0  0  0
   40.4700   28.8060   36.8060 H   0  0  0  0  0  0  0  0  0  0  0  0
   41.0940   27.4650   38.5900 H   0  0  0  0  0  0  0  0  0  0  0  0
   40.3070   26.3420   37.4860 H   0  0  0  0  0  0  0  0  0  0  0  0
   39.0400   25.6480   39.2420 H   0  0  0  0  0  0  0  0  0  0  0  0
   39.4920   27.0870   40.1590 H   0  0  0  0  0  0  0  0  0  0  0  0
   37.1210   27.1460   39.8650 H   0  0  0  0  0  0  0  0  0  0  0  0
   37.3030   27.2510   38.0150 H   0  0  0  0  0  0  0  0  0  0  0  0
   38.7440   29.0490   40.0440 H   0  0  0  0  0  0  0  0  0  0  0  0
   38.8750   30.6280   37.5520 C   0  0  0  0  0  0  0  0  0  0  0  0
   37.9440   31.1900   37.7810 H   0  0  0  0  0  0  0  0  0  0  0  0
   39.0790   30.7240   36.4810 H   0  0  0  0  0  0  0  0  0  0  0  0
   39.9690   31.1930   38.3960 C   0  0  0  0  0  0  0  0  0  0  0  0
   40.3860   30.4830   39.1320 H   0  0  0  0  0  0  0  0  0  0  0  0
   40.8290   31.5340   37.7650 H   0  0  0  0  0  0  0  0  0  0  0  0
   39.9270   34.5450   40.0970 C   0  0  0  0  0  0  0  0  0  0  0  0
   40.3810   33.3800   39.4540 C   0  0  0  0  0  0  0  0  0  0  0  0
   39.4780   32.4220   39.0750 C   0  0  0  0  0  0  0  0  0  0  0  0
   38.1870   32.6570   39.3440 N   0  0  0  0  0  0  0  0  0  0  0  0
   37.7560   33.7660   39.9550 C   0  0  0  0  0  0  0  0  0  0  0  0
   38.6130   34.7240   40.3390 N   0  0  0  0  0  0  0  0  0  0  0  0
   40.7340   35.2200   40.3450 H   0  0  0  0  0  0  0  0  0  0  0  0
   41.4390   33.2020   39.2420 H   0  0  0  0  0  0  0  0  0  0  0  0
   36.7240   33.9780   40.1820 H   0  0  0  0  0  0  0  0  0  0  0  0
   36.8670   29.5180   39.2850 O   0  0  0  0  0  0  0  0  0  0  0  0
   35.1000   28.6490   41.0760 O   0  0  0  0  0  0  0  0  0  0  0  0
   36.3470   29.5210   40.8910 P   0  0  2  0  0  0  0  0  0  0  0  0
   35.8530   31.1130   41.2160 O   0  0  0  0  0  0  0  0  0  0  0  0
   36.6370   31.7040   41.2020 H   0  0  0  0  0  0  0  0  0  0  0  0
   37.5760   29.1200   41.9530 O   0  0  0  0  0  0  0  0  0  0  0  0
   37.0280   28.2990   42.9490 C   0  0  0  0  0  0  0  0  0  0  0  0
   37.3170   28.6680   43.9580 H   0  0  0  0  0  0  0  0  0  0  0  0
   35.9350   28.2360   42.9050 H   0  0  0  0  0  0  0  0  0  0  0  0
   39.6340   27.8720   43.6730 F   0  0  0  0  0  0  0  0  0  0  0  0
   38.9270   26.8340   43.1440 C   0  0  0  0  0  0  0  0  0  0  0  0
   37.5880   26.9410   42.7430 C   0  0  0  0  0  0  0  0  0  0  0  0
   36.9780   25.8220   42.2230 C   0  0  0  0  0  0  0  0  0  0  0  0
   35.9570   25.9900   41.9430 H   0  0  0  0  0  0  0  0  0  0  0  0
   37.6580   24.6290   42.0970 C   0  0  0  0  0  0  0  0  0  0  0  0
   37.1470   23.7910   41.6880 H   0  0  0  0  0  0  0  0  0  0  0  0
   38.9870   24.4960   42.4860 C   0  0  0  0  0  3  0  0  0  0  0  0
   39.5800   25.6220   43.0030 C   0  0  0  0  0  3  0  0  0  0  0  0
  1  6  1  0  0  0  0
  2  1  1  0  0  0  0
  2  3  1  0  0  0  0
  3  9  1  0  0  0  0
  3  4  1  0  0  0  0
  4 11  1  0  0  0  0
  4 12  1  0  0  0  0
  5  6  1  0  0  0  0
  5  4  1  0  0  0  0
  5 13  1  0  0  0  0
  6 31  1  0  0  0  0
  6 15  1  1  0  0  0
  7  2  1  0  0  0  0
  8  2  1  0  0  0  0
 10  3  1  0  0  0  0
 14  5  1  0  0  0  0
 16 17  1  0  0  0  0
 16  1  1  0  0  0  0
 16 19  1  0  0  0  0
 18 16  1  0  0  0  0
 19 24  1  0  0  0  0
 19 20  1  0  0  0  0
 21 19  1  0  0  0  0
 22 27  1  0  0  0  0
 22 28  1  0  0  0  0
 23 22  2  0  0  0  0
 24 25  2  0  0  0  0
 24 23  1  0  0  0  0
 25 26  1  0  0  0  0
 26 30  1  0  0  0  0
 26 27  2  0  0  0  0
 29 23  1  0  0  0  0
 31 33  1  0  0  0  0
 33 32  2  1  0  0  0
 33 34  1  0  0  0  0
 33 36  1  0  0  0  0
 35 34  1  0  0  0  0
 36 37  1  0  0  0  0
 37 38  1  0  0  0  0
 39 37  1  0  0  0  0
 41 40  1  0  0  0  0
 42 37  1  0  0  0  0
 42 41  2  0  0  0  0
 43 42  1  0  0  0  0
 44 43  1  0  0  0  0
 45 43  2  0  0  0  0
 45 47  1  0  0  0  0
 46 45  1  0  0  0  0
 47 48  2  0  0  0  0
 48 41  1  0  0  0  0
M  END
>  <minimizedAffinity>
-5.49605656

$$$$

 OpenBabel03252509063D

 48 50  0  0  1  0  0  0  0  0999 V2000
   36.3930   29.9420   39.7870 N   0  0  0  0  0  0  0  0  0  0  0  0
   36.4450   30.1470   38.3920 C   0  0  0  0  0  0  0  0  0  0  0  0
   37.1180   29.0360   37.6130 C   0  0  0  0  0  0  0  0  0  0  0  0
   36.9460   27.6580   38.2130 C   0  0  0  0  0  0  0  0  0  0  0  0
   35.9990   27.6960   39.4020 C   0  0  0  0  0  0  0  0  0  0  0  0
   36.6910   28.7350   40.3660 C   0  0  2  0  0  0  0  0  0  0  0  0
   35.3810   30.1840   38.0160 H   0  0  0  0  0  0  0  0  0  0  0  0
   36.8940   31.0820   38.0470 H   0  0  0  0  0  0  0  0  0  0  0  0
   38.1970   29.2760   37.4040 H   0  0  0  0  0  0  0  0  0  0  0  0
   36.6600   28.9840   36.5950 H   0  0  0  0  0  0  0  0  0  0  0  0
   36.7000   26.8880   37.4760 H   0  0  0  0  0  0  0  0  0  0  0  0
   37.9420   27.3790   38.6310 H   0  0  0  0  0  0  0  0  0  0  0  0
   36.0260   26.7030   39.8890 H   0  0  0  0  0  0  0  0  0  0  0  0
   34.9960   28.0660   39.1490 H   0  0  0  0  0  0  0  0  0  0  0  0
   37.7570   28.4290   40.4430 H   0  0  0  0  0  0  0  0  0  0  0  0
   36.6090   31.1480   40.5630 C   0  0  0  0  0  0  0  0  0  0  0  0
   37.4800   30.9950   41.2360 H   0  0  0  0  0  0  0  0  0  0  0  0
   35.7330   31.3690   41.1810 H   0  0  0  0  0  0  0  0  0  0  0  0
   36.9440   32.2590   39.6250 C   0  0  0  0  0  0  0  0  0  0  0  0
   36.9040   31.9790   38.5580 H   0  0  0  0  0  0  0  0  0  0  0  0
   36.2400   33.1200   39.7530 H   0  0  0  0  0  0  0  0  0  0  0  0
   39.7030   34.6840   40.4270 C   0  0  0  0  0  0  0  0  0  0  0  0
   38.4410   34.1590   40.1000 C   0  0  0  0  0  0  0  0  0  0  0  0
   38.2850   32.8050   39.9720 C   0  0  0  0  0  0  0  0  0  0  0  0
   39.3670   32.0420   40.1720 N   0  0  0  0  0  0  0  0  0  0  0  0
   40.5680   32.5430   40.4840 C   0  0  0  0  0  0  0  0  0  0  0  0
   40.7550   33.8640   40.6170 N   0  0  0  0  0  0  0  0  0  0  0  0
   39.6950   35.7630   40.4970 H   0  0  0  0  0  0  0  0  0  0  0  0
   37.5650   34.7950   39.9390 H   0  0  0  0  0  0  0  0  0  0  0  0
   41.4540   31.9510   40.6500 H   0  0  0  0  0  0  0  0  0  0  0  0
   35.9970   28.5140   41.5450 O   0  0  0  0  0  0  0  0  0  0  0  0
   36.2320   27.0950   43.7840 O   0  0  0  0  0  0  0  0  0  0  0  0
   36.9940   27.9930   42.8040 P   0  0  2  0  0  0  0  0  0  0  0  0
   37.4090   29.3890   43.6770 O   0  0  0  0  0  0  0  0  0  0  0  0
   37.9820   29.9600   43.1200 H   0  0  0  0  0  0  0  0  0  0  0  0
   38.4000   27.2820   42.2410 O   0  0  0  0  0  0  0  0  0  0  0  0
   38.3860   25.9360   42.6370 C   0  0  0  0  0  0  0  0  0  0  0  0
   39.4170   25.5910   42.8740 H   0  0  0  0  0  0  0  0  0  0  0  0
   37.7500   25.7490   43.5080 H   0  0  0  0  0  0  0  0  0  0  0  0
   39.9950   25.6560   40.4380 F   0  0  0  0  0  0  0  0  0  0  0  0
   38.7600   25.0790   40.4200 C   0  0  0  0  0  0  0  0  0  0  0  0
   37.8580   25.1570   41.4900 C   0  0  0  0  0  0  0  0  0  0  0  0
   36.6400   24.5310   41.3550 C   0  0  0  0  0  0  0  0  0  0  0  0
   36.0130   24.6400   42.2180 H   0  0  0  0  0  0  0  0  0  0  0  0
   36.3100   23.8470   40.2050 C   0  0  0  0  0  0  0  0  0  0  0  0
   35.3560   23.3810   40.1430 H   0  0  0  0  0  0  0  0  0  0  0  0
   37.1860   23.7550   39.1270 C   0  0  0  0  0  3  0  0  0  0  0  0
   38.3970   24.3850   39.2790 C   0  0  0  0  0  3  0  0  0  0  0  0
  1  6  1  0  0  0  0
  1 16  1  0  0  0  0
  2  1  1  0  0  0  0
  3  4  1  0  0  0  0
  3  2  1  0  0  0  0
  4 12  1  0  0  0  0
  4  5  1  0  0  0  0
  5 13  1  0  0  0  0
  5  6  1  0  0  0  0
  6 15  1  1  0  0  0
  6 31  1  0  0  0  0
  7  2  1  0  0  0  0
  8  2  1  0  0  0  0
  9  3  1  0  0  0  0
 10  3  1  0  0  0  0
 11  4  1  0  0  0  0
 14  5  1  0  0  0  0
 16 18  1  0  0  0  0
 16 17  1  0  0  0  0
 19 21  1  0  0  0  0
 19 24  1  0  0  0  0
 19 16  1  0  0  0  0
 20 19  1  0  0  0  0
 22 28  1  0  0  0  0
 22 27  1  0  0  0  0
 23 22  2  0  0  0  0
 24 23  1  0  0  0  0
 24 25  2  0  0  0  0
 25 26  1  0  0  0  0
 26 27  2  0  0  0  0
 26 30  1  0  0  0  0
 29 23  1  0  0  0  0
 31 33  1  0  0  0  0
 33 34  1  0  0  0  0
 33 32  2  1  0  0  0
 35 34  1  0  0  0  0
 36 37  1  0  0  0  0
 36 33  1  0  0  0  0
 37 38  1  0  0  0  0
 37 39  1  0  0  0  0
 41 40  1  0  0  0  0
 41 42  1  0  0  0  0
 42 37  1  0  0  0  0
 43 42  2  0  0  0  0
 43 44  1  0  0  0  0
 45 43  1  0  0  0  0
 46 45  1  0  0  0  0
 47 48  1  0  0  0  0
 47 45  2  0  0  0  0
 48 41  2  0  0  0  0
M  END
>  <minimizedAffinity>
-5.49320412

$$$$
