
 OpenBabel03252509043D

 48 50  0  0  1  0  0  0  0  0999 V2000
   46.7240   34.3640   43.4910 N   0  0  0  0  0  0  0  0  0  0  0  0
   46.4510   34.9220   42.2230 C   0  0  0  0  0  0  0  0  0  0  0  0
   44.9840   34.9570   41.8500 C   0  0  0  0  0  0  0  0  0  0  0  0
   44.0430   35.1340   43.0210 C   0  0  0  0  0  0  0  0  0  0  0  0
   44.8160   35.3840   44.3080 C   0  0  0  0  0  0  0  0  0  0  0  0
   45.7410   34.1100   44.4120 C   0  0  2  0  0  0  0  0  0  0  0  0
   46.7860   36.0000   42.2500 H   0  0  0  0  0  0  0  0  0  0  0  0
   46.9770   34.4880   41.3690 H   0  0  0  0  0  0  0  0  0  0  0  0
   44.7020   34.0760   41.2100 H   0  0  0  0  0  0  0  0  0  0  0  0
   44.8060   35.8330   41.1810 H   0  0  0  0  0  0  0  0  0  0  0  0
   43.2460   35.8600   42.8360 H   0  0  0  0  0  0  0  0  0  0  0  0
   43.5380   34.1490   43.1610 H   0  0  0  0  0  0  0  0  0  0  0  0
   44.0950   35.3570   45.1470 H   0  0  0  0  0  0  0  0  0  0  0  0
   45.4530   36.2770   44.2660 H   0  0  0  0  0  0  0  0  0  0  0  0
   45.0790   33.2300   44.2570 H   0  0  0  0  0  0  0  0  0  0  0  0
   47.9230   33.5480   43.5240 C   0  0  0  0  0  0  0  0  0  0  0  0
   48.1120   33.2230   44.5700 H   0  0  0  0  0  0  0  0  0  0  0  0
   48.7880   34.1230   43.1810 H   0  0  0  0  0  0  0  0  0  0  0  0
   47.6840   32.3260   42.7010 C   0  0  0  0  0  0  0  0  0  0  0  0
   47.4630   31.4190   43.2900 H   0  0  0  0  0  0  0  0  0  0  0  0
   46.8170   32.4720   42.0070 H   0  0  0  0  0  0  0  0  0  0  0  0
   51.2230   32.1660   41.4440 C   0  0  0  0  0  0  0  0  0  0  0  0
   50.1110   32.3770   42.2780 C   0  0  0  0  0  0  0  0  0  0  0  0
   48.8540   32.0990   41.8110 C   0  0  0  0  0  0  0  0  0  0  0  0
   48.7550   31.6320   40.5590 N   0  0  0  0  0  0  0  0  0  0  0  0
   49.8150   31.4320   39.7670 C   0  0  0  0  0  0  0  0  0  0  0  0
   51.0590   31.6930   40.1930 N   0  0  0  0  0  0  0  0  0  0  0  0
   52.1550   32.4240   41.9280 H   0  0  0  0  0  0  0  0  0  0  0  0
   50.2070   32.7600   43.2980 H   0  0  0  0  0  0  0  0  0  0  0  0
   49.7620   31.0570   38.7570 H   0  0  0  0  0  0  0  0  0  0  0  0
   46.1860   34.2060   45.7200 O   0  0  0  0  0  0  0  0  0  0  0  0
   45.7270   31.5870   45.6200 O   0  0  0  0  0  0  0  0  0  0  0  0
   46.0640   32.7470   46.5620 P   0  0  2  0  0  0  0  0  0  0  0  0
   44.7240   32.9160   47.5920 O   0  0  0  0  0  0  0  0  0  0  0  0
   44.9260   33.5880   48.2780 H   0  0  0  0  0  0  0  0  0  0  0  0
   47.4170   32.4440   47.4980 O   0  0  0  0  0  0  0  0  0  0  0  0
   47.6010   31.0540   47.5440 C   0  0  0  0  0  0  0  0  0  0  0  0
   46.6640   30.5500   47.8720 H   0  0  0  0  0  0  0  0  0  0  0  0
   47.9050   30.6270   46.5830 H   0  0  0  0  0  0  0  0  0  0  0  0
   48.5180   28.4870   47.7910 F   0  0  0  0  0  0  0  0  0  0  0  0
   49.0640   29.4510   48.5830 C   0  0  0  0  0  0  0  0  0  0  0  0
   48.6720   30.7950   48.5360 C   0  0  0  0  0  0  0  0  0  0  0  0
   49.2980   31.6810   49.3860 C   0  0  0  0  0  0  0  0  0  0  0  0
   48.9390   32.6860   49.2860 H   0  0  0  0  0  0  0  0  0  0  0  0
   50.2810   31.2630   50.2570 C   0  0  0  0  0  0  0  0  0  0  0  0
   50.7370   31.9810   50.8960 H   0  0  0  0  0  0  0  0  0  0  0  0
   50.6880   29.9340   50.3240 C   0  0  0  0  0  3  0  0  0  0  0  0
   50.0540   29.0650   49.4690 C   0  0  0  0  0  3  0  0  0  0  0  0
  1 16  1  0  0  0  0
  1  6  1  0  0  0  0
  2  7  1  0  0  0  0
  2  1  1  0  0  0  0
  3  2  1  0  0  0  0
  3  4  1  0  0  0  0
  4 12  1  0  0  0  0
  4  5  1  0  0  0  0
  5  6  1  0  0  0  0
  5 13  1  0  0  0  0
  6 15  1  6  0  0  0
  6 31  1  0  0  0  0
  8  2  1  0  0  0  0
  9  3  1  0  0  0  0
 10  3  1  0  0  0  0
 11  4  1  0  0  0  0
 14  5  1  0  0  0  0
 16 17  1  0  0  0  0
 18 16  1  0  0  0  0
 19 20  1  0  0  0  0
 19 16  1  0  0  0  0
 21 19  1  0  0  0  0
 22 28  1  0  0  0  0
 22 23  1  0  0  0  0
 23 29  1  0  0  0  0
 24 23  2  0  0  0  0
 24 19  1  0  0  0  0
 25 24  1  0  0  0  0
 26 27  1  0  0  0  0
 26 25  2  0  0  0  0
 27 22  2  0  0  0  0
 30 26  1  0  0  0  0
 31 33  1  0  0  0  0
 33 32  2  6  0  0  0
 33 36  1  0  0  0  0
 33 34  1  0  0  0  0
 34 35  1  0  0  0  0
 36 37  1  0  0  0  0
 37 38  1  0  0  0  0
 37 42  1  0  0  0  0
 39 37  1  0  0  0  0
 40 41  1  0  0  0  0
 41 48  1  0  0  0  0
 42 41  2  0  0  0  0
 42 43  1  0  0  0  0
 43 45  2  0  0  0  0
 44 43  1  0  0  0  0
 45 47  1  0  0  0  0
 45 46  1  0  0  0  0
 48 47  2  0  0  0  0
M  END
>  <minimizedAffinity>
-5.20779753

>  <minimizedRMSD>
3.04247546

$$$$
