
     RDKit          3D

 50 52  0  0  0  0  0  0  0  0999 V2000
   47.1559   34.1627   43.0837 N   0  0  0  0  0  0  0  0  0  0  0  0
   46.6596   35.3571   42.5181 C   0  0  0  0  0  0  0  0  0  0  0  0
   45.1771   35.5874   42.7227 C   0  0  0  0  0  0  0  0  0  0  0  0
   44.6300   35.0283   44.0178 C   0  0  0  0  0  0  0  0  0  0  0  0
   45.7494   34.4824   44.8917 C   0  0  0  0  0  0  0  0  0  0  0  0
   46.4239   33.4033   43.9603 C   0  0  2  0  0  0  0  0  0  0  0  0
   48.1526   33.4988   42.2666 C   0  0  0  0  0  0  0  0  0  0  0  0
   47.4493   32.6497   41.2609 C   0  0  0  0  0  0  0  0  0  0  0  0
   49.3297   32.2778   38.0271 C   0  0  0  0  0  0  0  0  0  0  0  0
   48.8072   32.0138   39.3052 C   0  0  0  0  0  0  0  0  0  0  0  0
   47.9972   32.9387   39.9079 C   0  0  0  0  0  0  0  0  0  0  0  0
   47.7437   34.0665   39.2301 N   0  0  0  0  0  0  0  0  0  0  0  0
   48.2420   34.3161   38.0136 C   0  0  0  0  0  0  0  0  0  0  0  0
   49.0382   33.4325   37.3946 N   0  0  0  0  0  0  0  0  0  0  0  0
   47.2106   32.7147   44.8691 O   0  0  0  0  0  0  0  0  0  0  0  0
   46.0415   30.5395   43.8780 O   0  0  0  0  0  0  0  0  0  0  0  0
   46.6725   31.1376   45.1397 P   0  0  2  0  0  0  0  0  0  0  0  0
   45.4137   31.2647   46.2743 O   0  0  0  0  0  0  0  0  0  0  0  0
   47.8695   30.1640   45.7843 O   0  0  0  0  0  0  0  0  0  0  0  0
   47.7386   28.8913   45.2104 C   0  0  0  0  0  0  0  0  0  0  0  0
   47.1781   36.2160   43.0360 H   0  0  0  0  0  0  0  0  0  0  0  0
   46.8531   35.5160   41.4536 H   0  0  0  0  0  0  0  0  0  0  0  0
   44.5822   35.2492   41.8311 H   0  0  0  0  0  0  0  0  0  0  0  0
   44.9876   36.6871   42.7621 H   0  0  0  0  0  0  0  0  0  0  0  0
   43.9556   35.7136   44.5399 H   0  0  0  0  0  0  0  0  0  0  0  0
   44.0122   34.1443   43.7339 H   0  0  0  0  0  0  0  0  0  0  0  0
   45.2848   33.9569   45.7475 H   0  0  0  0  0  0  0  0  0  0  0  0
   46.5025   35.2356   45.1565 H   0  0  0  0  0  0  0  0  0  0  0  0
   45.5984   32.7746   43.5604 H   0  0  0  0  0  0  0  0  0  0  0  0
   48.7628   32.8289   42.9113 H   0  0  0  0  0  0  0  0  0  0  0  0
   48.8213   34.2322   41.8052 H   0  0  0  0  0  0  0  0  0  0  0  0
   47.4899   31.5683   41.4729 H   0  0  0  0  0  0  0  0  0  0  0  0
   46.3635   32.9185   41.1975 H   0  0  0  0  0  0  0  0  0  0  0  0
   49.9528   31.4731   37.6635 H   0  0  0  0  0  0  0  0  0  0  0  0
   49.0226   31.0892   39.8475 H   0  0  0  0  0  0  0  0  0  0  0  0
   48.0543   35.2138   37.4480 H   0  0  0  0  0  0  0  0  0  0  0  0
   45.7837   31.5575   47.1347 H   0  0  0  0  0  0  0  0  0  0  0  0
   46.7538   28.4458   45.4746 H   0  0  0  0  0  0  0  0  0  0  0  0
   47.8330   28.8971   44.1189 H   0  0  0  0  0  0  0  0  0  0  0  0
   48.6769   26.8239   43.6793 F   0  0  0  0  0  0  0  0  0  0  0  0
   49.2271   27.0244   44.9096 C   0  0  0  0  0  0  0  0  0  0  0  0
   48.8254   28.0525   45.7730 C   0  0  0  0  0  0  0  0  0  0  0  0
   49.4565   28.1561   46.9925 C   0  0  0  0  0  0  0  0  0  0  0  0
   49.0897   28.9674   47.5887 H   0  0  0  0  0  0  0  0  0  0  0  0
   50.4538   27.2781   47.3587 C   0  0  0  0  0  0  0  0  0  0  0  0
   50.9136   27.3942   48.3111 H   0  0  0  0  0  0  0  0  0  0  0  0
   50.8714   26.2481   46.5210 C   0  0  0  0  0  0  0  0  0  0  0  0
   50.2310   26.1600   45.3084 C   0  0  0  0  0  0  0  0  0  0  0  0
   51.6465   25.5681   46.8163 H   0  0  0  0  0  0  0  0  0  0  0  0
   50.5475   25.3522   44.6350 H   0  0  0  0  0  0  0  0  0  0  0  0
  1  6  1  0
  2  3  1  0
  2  1  1  0
  3  4  1  0
  4  5  1  0
  6 15  1  0
  6  5  1  0
  7  1  1  0
  8  7  1  0
  9 10  2  0
 10 11  1  0
 11  8  1  0
 12 11  2  0
 13 12  1  0
 14 13  2  0
 14  9  1  0
 17 15  1  6
 17 16  2  0
 17 19  1  0
 17 18  1  0
 20 19  1  0
  2 21  1  0
  2 22  1  0
  3 23  1  0
  3 24  1  0
  4 25  1  0
  4 26  1  0
  5 27  1  0
  5 28  1  0
  6 29  1  6
  7 30  1  0
  7 31  1  0
  8 32  1  0
  8 33  1  0
  9 34  1  0
 10 35  1  0
 13 36  1  0
 18 37  1  0
 20 38  1  0
 20 39  1  0
 40 41  1  0
 41 42  2  0
 42 43  1  0
 43 44  1  0
 43 45  2  0
 45 46  1  0
 45 47  1  0
 47 48  2  0
 48 41  1  0
 47 49  1  0
 48 50  1  0
 20 42  1  0
M  ISO  8  21  13  22  13  23  13  24  13  25  13  26  13  27  13  28  13
M  ISO  8  29  13  30   8  31   8  32   8  33   8  34  14  35  14  36  14
M  ISO  5  37   3  38   8  39   8  44  15  46  16
M  END
>  <DihAtoms>  (1) 
18,19,41,40

>  <DihDeg>  (1) 
-77.02890506814254

$$$$
