
 OpenBabel03252503203D

 39 42  0  0  0  0  0  0  0  0999 V2000
   37.5930   31.7540   40.5440 C   0  0  0  0  0  0  0  0  0  0  0  0
   38.2900   31.0700   41.5030 C   0  0  0  0  0  0  0  0  0  0  0  0
   37.5050   30.0510   41.8890 N   0  0  0  0  0  0  0  0  0  0  0  0
   36.3560   30.1090   41.1830 C   0  0  0  0  0  0  0  0  0  0  0  0
   36.4020   31.1660   40.3450 N   0  0  0  0  0  0  0  0  0  0  0  0
   35.2090   29.2710   41.2130 N   0  0  0  0  0  0  0  0  0  0  0  0
   39.2660   31.2930   41.8780 H   0  0  0  0  0  0  0  0  0  0  0  0
   35.2970   28.2260   41.1910 H   0  0  0  0  0  0  0  0  0  0  0  0
   34.2130   29.6070   41.2580 H   0  0  0  0  0  0  0  0  0  0  0  0
   37.7330   29.0140   42.8670 C   0  0  0  0  0  0  0  0  0  0  0  0
   36.8430   28.9940   43.5470 H   0  0  0  0  0  0  0  0  0  0  0  0
   38.5840   29.3230   43.5420 H   0  0  0  0  0  0  0  0  0  0  0  0
   36.1250   26.7130   43.4920 F   0  0  0  0  0  0  0  0  0  0  0  0
   37.1520   26.6710   42.6320 C   0  0  0  0  0  0  0  0  0  0  0  0
   37.9950   27.6920   42.2510 C   0  0  0  0  0  0  0  0  0  0  0  0
   39.0080   27.4200   41.3330 C   0  0  0  0  0  0  0  0  0  0  0  0
   39.6470   28.2640   41.0640 H   0  0  0  0  0  0  0  0  0  0  0  0
   39.2030   26.1680   40.7900 C   0  0  0  0  0  0  0  0  0  0  0  0
   40.0080   26.0160   40.0800 H   0  0  0  0  0  0  0  0  0  0  0  0
   38.3470   25.1600   41.1860 C   0  0  0  0  0  3  0  0  0  0  0  0
   37.3150   25.3870   42.1040 C   0  0  0  0  0  3  0  0  0  0  0  0
   38.0480   32.9850   39.8020 C   0  0  0  0  0  0  0  0  0  0  0  0
   37.3700   34.0390   39.6940 O   0  0  0  0  0  0  0  0  0  0  0  0
   40.3020   33.9230   39.6000 C   0  0  0  0  0  0  0  0  0  0  0  0
   39.3190   32.9970   39.1690 C   0  0  0  0  0  0  0  0  0  0  0  0
   39.7170   32.1700   38.1370 C   0  0  0  0  0  0  0  0  0  0  0  0
   40.9190   32.2200   37.5770 N   0  0  0  0  0  0  0  0  0  0  0  0
   41.8340   33.1360   38.0310 C   0  0  0  0  0  0  0  0  0  0  0  0
   41.5150   33.9640   39.0250 N   0  0  0  0  0  0  0  0  0  0  0  0
   40.1120   34.6260   40.4020 H   0  0  0  0  0  0  0  0  0  0  0  0
   42.8310   33.1890   37.5770 H   0  0  0  0  0  0  0  0  0  0  0  0
   38.7750   31.2140   37.6530 C   0  0  0  0  0  0  0  0  0  0  0  0
   37.6540   31.2710   36.8950 C   0  0  0  0  0  0  0  0  0  0  0  0
   36.9470   30.2030   36.5860 C   0  0  0  0  0  0  0  0  0  0  0  0
   37.3940   29.0320   37.0620 C   0  0  0  0  0  0  0  0  0  0  0  0
   38.9000   29.4680   38.0010 S   0  0  0  0  0  0  0  0  0  0  0  0
   37.3790   32.2910   36.5570 H   0  0  0  0  0  0  0  0  0  0  0  0
   36.0450   30.1520   35.9910 H   0  0  0  0  0  0  0  0  0  0  0  0
   37.0690   27.9720   37.0040 H   0  0  0  0  0  0  0  0  0  0  0  0
  1  2  2  0  0  0  0
  2  7  1  0  0  0  0
  2  3  1  0  0  0  0
  3 10  1  0  0  0  0
  4  6  1  0  0  0  0
  4  3  1  0  0  0  0
  5  1  1  0  0  0  0
  5  4  2  0  0  0  0
  6  9  1  0  0  0  0
  8  6  1  0  0  0  0
 10 12  1  0  0  0  0
 10 11  1  0  0  0  0
 14 13  1  0  0  0  0
 15 14  1  0  0  0  0
 15 10  1  0  0  0  0
 16 15  2  0  0  0  0
 17 16  1  0  0  0  0
 18 20  2  0  0  0  0
 18 16  1  0  0  0  0
 19 18  1  0  0  0  0
 20 21  1  0  0  0  0
 21 14  2  0  0  0  0
 22  1  1  0  0  0  0
 23 22  2  0  0  0  0
 24 30  1  0  0  0  0
 25 24  1  0  0  0  0
 25 22  1  0  0  0  0
 26 25  2  0  0  0  0
 27 28  2  0  0  0  0
 27 26  1  0  0  0  0
 28 29  1  0  0  0  0
 29 24  2  0  0  0  0
 31 28  1  0  0  0  0
 32 36  1  0  0  0  0
 32 26  1  0  0  0  0
 33 32  2  0  0  0  0
 34 33  1  0  0  0  0
 34 35  2  0  0  0  0
 35 36  1  0  0  0  0
 37 33  1  0  0  0  0
 38 34  1  0  0  0  0
 39 35  1  0  0  0  0
M  END
>  <minimizedAffinity>
-6.29574919

$$$$

 OpenBabel03252503203D

 39 42  0  0  0  0  0  0  0  0999 V2000
   37.1500   28.6860   41.5370 C   0  0  0  0  0  0  0  0  0  0  0  0
   37.1760   28.5230   40.1780 C   0  0  0  0  0  0  0  0  0  0  0  0
   36.9760   29.7410   39.6460 N   0  0  0  0  0  0  0  0  0  0  0  0
   36.8320   30.6260   40.6540 C   0  0  0  0  0  0  0  0  0  0  0  0
   36.9390   29.9780   41.8330 N   0  0  0  0  0  0  0  0  0  0  0  0
   36.6030   32.0280   40.6280 N   0  0  0  0  0  0  0  0  0  0  0  0
   37.3250   27.6140   39.6370 H   0  0  0  0  0  0  0  0  0  0  0  0
   37.1640   32.6600   40.0060 H   0  0  0  0  0  0  0  0  0  0  0  0
   35.8820   32.5360   41.2020 H   0  0  0  0  0  0  0  0  0  0  0  0
   36.9060   30.1570   38.2660 C   0  0  0  0  0  0  0  0  0  0  0  0
   37.8850   29.8970   37.7870 H   0  0  0  0  0  0  0  0  0  0  0  0
   36.8720   31.2850   38.2210 H   0  0  0  0  0  0  0  0  0  0  0  0
   37.0360   29.5520   35.4580 F   0  0  0  0  0  0  0  0  0  0  0  0
   35.9470   29.3170   36.2030 C   0  0  0  0  0  0  0  0  0  0  0  0
   35.7570   29.5600   37.5450 C   0  0  0  0  0  0  0  0  0  0  0  0
   34.5290   29.2340   38.1200 C   0  0  0  0  0  0  0  0  0  0  0  0
   34.4310   29.4460   39.1860 H   0  0  0  0  0  0  0  0  0  0  0  0
   33.4950   28.6780   37.3980 C   0  0  0  0  0  0  0  0  0  0  0  0
   32.5620   28.4450   37.9000 H   0  0  0  0  0  0  0  0  0  0  0  0
   33.7080   28.4430   36.0540 C   0  0  0  0  0  3  0  0  0  0  0  0
   34.9240   28.7540   35.4350 C   0  0  0  0  0  3  0  0  0  0  0  0
   37.3240   27.6100   42.5790 C   0  0  0  0  0  0  0  0  0  0  0  0
   36.4130   27.2210   43.3550 O   0  0  0  0  0  0  0  0  0  0  0  0
   39.5870   27.5790   43.5170 C   0  0  0  0  0  0  0  0  0  0  0  0
   38.5810   26.9680   42.7260 C   0  0  0  0  0  0  0  0  0  0  0  0
   38.9460   25.7620   42.1610 C   0  0  0  0  0  0  0  0  0  0  0  0
   40.1360   25.2000   42.3290 N   0  0  0  0  0  0  0  0  0  0  0  0
   41.0750   25.8340   43.1040 C   0  0  0  0  0  0  0  0  0  0  0  0
   40.7880   27.0020   43.6790 N   0  0  0  0  0  0  0  0  0  0  0  0
   39.4240   28.5290   44.0140 H   0  0  0  0  0  0  0  0  0  0  0  0
   42.0620   25.3830   43.2510 H   0  0  0  0  0  0  0  0  0  0  0  0
   37.9810   25.0920   41.3520 C   0  0  0  0  0  0  0  0  0  0  0  0
   36.8610   24.3680   41.5950 C   0  0  0  0  0  0  0  0  0  0  0  0
   36.1290   23.8430   40.6330 C   0  0  0  0  0  0  0  0  0  0  0  0
   36.5470   24.0600   39.3780 C   0  0  0  0  0  0  0  0  0  0  0  0
   38.0620   25.0640   39.5690 S   0  0  0  0  0  0  0  0  0  0  0  0
   36.6120   24.2530   42.6700 H   0  0  0  0  0  0  0  0  0  0  0  0
   35.2270   23.2550   40.7300 H   0  0  0  0  0  0  0  0  0  0  0  0
   36.1950   23.7830   38.3620 H   0  0  0  0  0  0  0  0  0  0  0  0
  1  5  1  0  0  0  0
  1 22  1  0  0  0  0
  2  1  2  0  0  0  0
  3  2  1  0  0  0  0
  3  4  1  0  0  0  0
  4  5  2  0  0  0  0
  6  4  1  0  0  0  0
  6  9  1  0  0  0  0
  7  2  1  0  0  0  0
  8  6  1  0  0  0  0
 10  3  1  0  0  0  0
 11 10  1  0  0  0  0
 12 10  1  0  0  0  0
 13 14  1  0  0  0  0
 14 15  1  0  0  0  0
 15 16  2  0  0  0  0
 15 10  1  0  0  0  0
 16 17  1  0  0  0  0
 18 19  1  0  0  0  0
 18 16  1  0  0  0  0
 20 18  2  0  0  0  0
 21 20  1  0  0  0  0
 21 14  2  0  0  0  0
 22 25  1  0  0  0  0
 22 23  2  0  0  0  0
 24 29  1  0  0  0  0
 24 30  1  0  0  0  0
 25 24  2  0  0  0  0
 26 27  2  0  0  0  0
 26 25  1  0  0  0  0
 27 28  1  0  0  0  0
 28 31  1  0  0  0  0
 28 29  2  0  0  0  0
 32 33  2  0  0  0  0
 32 26  1  0  0  0  0
 33 37  1  0  0  0  0
 34 38  1  0  0  0  0
 34 33  1  0  0  0  0
 35 36  1  0  0  0  0
 35 34  2  0  0  0  0
 36 32  1  0  0  0  0
 39 35  1  0  0  0  0
M  END
>  <minimizedAffinity>
-6.06016397

$$$$

 OpenBabel03252503203D

 39 42  0  0  0  0  0  0  0  0999 V2000
   40.1730   29.9540   42.0260 C   0  0  0  0  0  0  0  0  0  0  0  0
   40.4400   28.6820   42.4580 C   0  0  0  0  0  0  0  0  0  0  0  0
   39.3140   28.2360   43.0410 N   0  0  0  0  0  0  0  0  0  0  0  0
   38.3830   29.2090   42.9670 C   0  0  0  0  0  0  0  0  0  0  0  0
   38.9090   30.2810   42.3370 N   0  0  0  0  0  0  0  0  0  0  0  0
   37.0390   29.2400   43.4280 N   0  0  0  0  0  0  0  0  0  0  0  0
   41.3560   28.1420   42.3580 H   0  0  0  0  0  0  0  0  0  0  0  0
   36.3810   28.4440   43.2430 H   0  0  0  0  0  0  0  0  0  0  0  0
   36.6030   30.0270   43.9730 H   0  0  0  0  0  0  0  0  0  0  0  0
   39.0270   26.9680   43.6680 C   0  0  0  0  0  0  0  0  0  0  0  0
   38.2010   27.1380   44.4050 H   0  0  0  0  0  0  0  0  0  0  0  0
   39.9060   26.6640   44.3090 H   0  0  0  0  0  0  0  0  0  0  0  0
   36.3010   26.2470   43.1000 F   0  0  0  0  0  0  0  0  0  0  0  0
   37.3480   25.6590   42.5050 C   0  0  0  0  0  0  0  0  0  0  0  0
   38.6910   25.9080   42.6880 C   0  0  0  0  0  0  0  0  0  0  0  0
   39.6170   25.1670   41.9560 C   0  0  0  0  0  0  0  0  0  0  0  0
   40.6670   25.4050   42.1380 H   0  0  0  0  0  0  0  0  0  0  0  0
   39.2450   24.1920   41.0550 C   0  0  0  0  0  0  0  0  0  0  0  0
   40.0120   23.6490   40.5140 H   0  0  0  0  0  0  0  0  0  0  0  0
   37.8950   23.9600   40.8880 C   0  0  0  0  0  3  0  0  0  0  0  0
   36.9280   24.6790   41.6000 C   0  0  0  0  0  3  0  0  0  0  0  0
   41.1210   30.8810   41.3100 C   0  0  0  0  0  0  0  0  0  0  0  0
   41.7400   31.8270   41.8630 O   0  0  0  0  0  0  0  0  0  0  0  0
   42.4210   29.8740   39.4950 C   0  0  0  0  0  0  0  0  0  0  0  0
   41.3600   30.7120   39.9210 C   0  0  0  0  0  0  0  0  0  0  0  0
   40.6400   31.2980   38.8990 C   0  0  0  0  0  0  0  0  0  0  0  0
   40.9030   31.1090   37.6120 N   0  0  0  0  0  0  0  0  0  0  0  0
   41.9420   30.2880   37.2520 C   0  0  0  0  0  0  0  0  0  0  0  0
   42.6770   29.6900   38.1890 N   0  0  0  0  0  0  0  0  0  0  0  0
   43.0600   29.3560   40.2010 H   0  0  0  0  0  0  0  0  0  0  0  0
   42.1710   30.1220   36.1930 H   0  0  0  0  0  0  0  0  0  0  0  0
   39.5580   32.1550   39.2570 C   0  0  0  0  0  0  0  0  0  0  0  0
   38.2100   32.0260   39.3120 C   0  0  0  0  0  0  0  0  0  0  0  0
   37.4150   33.0070   39.6900 C   0  0  0  0  0  0  0  0  0  0  0  0
   38.0080   34.1610   40.0260 C   0  0  0  0  0  0  0  0  0  0  0  0
   39.7920   33.8410   39.7940 S   0  0  0  0  0  0  0  0  0  0  0  0
   37.8310   31.0280   39.0110 H   0  0  0  0  0  0  0  0  0  0  0  0
   36.3370   32.9970   39.7630 H   0  0  0  0  0  0  0  0  0  0  0  0
   37.6690   35.1580   40.3780 H   0  0  0  0  0  0  0  0  0  0  0  0
  1  5  1  0  0  0  0
  1  2  2  0  0  0  0
  2  3  1  0  0  0  0
  3 10  1  0  0  0  0
  4  3  1  0  0  0  0
  4  6  1  0  0  0  0
  5  4  2  0  0  0  0
  6  9  1  0  0  0  0
  7  2  1  0  0  0  0
  8  6  1  0  0  0  0
 10 12  1  0  0  0  0
 10 11  1  0  0  0  0
 14 15  1  0  0  0  0
 14 13  1  0  0  0  0
 15 10  1  0  0  0  0
 16 17  1  0  0  0  0
 16 15  2  0  0  0  0
 18 16  1  0  0  0  0
 19 18  1  0  0  0  0
 20 18  2  0  0  0  0
 20 21  1  0  0  0  0
 21 14  2  0  0  0  0
 22 23  2  0  0  0  0
 22  1  1  0  0  0  0
 24 25  1  0  0  0  0
 24 30  1  0  0  0  0
 25 22  1  0  0  0  0
 26 32  1  0  0  0  0
 26 25  2  0  0  0  0
 27 26  1  0  0  0  0
 28 27  2  0  0  0  0
 28 29  1  0  0  0  0
 29 24  2  0  0  0  0
 31 28  1  0  0  0  0
 32 33  2  0  0  0  0
 32 36  1  0  0  0  0
 33 34  1  0  0  0  0
 34 38  1  0  0  0  0
 34 35  2  0  0  0  0
 35 39  1  0  0  0  0
 36 35  1  0  0  0  0
 37 33  1  0  0  0  0
M  END
>  <minimizedAffinity>
-6.00122595

$$$$

 OpenBabel03252503203D

 39 42  0  0  0  0  0  0  0  0999 V2000
   36.8820   30.5630   37.9640 C   0  0  0  0  0  0  0  0  0  0  0  0
   36.5110   29.8360   39.0640 C   0  0  0  0  0  0  0  0  0  0  0  0
   36.5840   30.6710   40.1130 N   0  0  0  0  0  0  0  0  0  0  0  0
   36.9880   31.8790   39.6680 C   0  0  0  0  0  0  0  0  0  0  0  0
   37.1770   31.8200   38.3330 N   0  0  0  0  0  0  0  0  0  0  0  0
   37.2200   33.0930   40.3690 N   0  0  0  0  0  0  0  0  0  0  0  0
   36.2200   28.8090   39.0930 H   0  0  0  0  0  0  0  0  0  0  0  0
   36.5270   33.4600   41.0660 H   0  0  0  0  0  0  0  0  0  0  0  0
   38.0690   33.7050   40.2580 H   0  0  0  0  0  0  0  0  0  0  0  0
   36.3070   30.4410   41.5110 C   0  0  0  0  0  0  0  0  0  0  0  0
   35.2030   30.2870   41.6130 H   0  0  0  0  0  0  0  0  0  0  0  0
   36.5030   31.3920   42.0890 H   0  0  0  0  0  0  0  0  0  0  0  0
   39.0400   30.7530   42.3500 F   0  0  0  0  0  0  0  0  0  0  0  0
   38.3810   29.5890   42.4360 C   0  0  0  0  0  0  0  0  0  0  0  0
   37.0830   29.3090   42.0700 C   0  0  0  0  0  0  0  0  0  0  0  0
   36.6000   28.0130   42.2480 C   0  0  0  0  0  0  0  0  0  0  0  0
   35.5650   27.8450   41.9430 H   0  0  0  0  0  0  0  0  0  0  0  0
   37.3690   26.9990   42.7770 C   0  0  0  0  0  0  0  0  0  0  0  0
   36.9380   26.0110   42.8930 H   0  0  0  0  0  0  0  0  0  0  0  0
   38.6670   27.3030   43.1370 C   0  0  0  0  0  3  0  0  0  0  0  0
   39.1950   28.5890   42.9760 C   0  0  0  0  0  3  0  0  0  0  0  0
   36.9650   30.0710   36.5420 C   0  0  0  0  0  0  0  0  0  0  0  0
   36.9770   30.8210   35.5320 O   0  0  0  0  0  0  0  0  0  0  0  0
   38.2910   28.0230   36.3230 C   0  0  0  0  0  0  0  0  0  0  0  0
   37.0350   28.6780   36.2800 C   0  0  0  0  0  0  0  0  0  0  0  0
   35.9660   27.8560   35.9770 C   0  0  0  0  0  0  0  0  0  0  0  0
   36.0820   26.5560   35.7400 N   0  0  0  0  0  0  0  0  0  0  0  0
   37.3230   25.9710   35.7930 C   0  0  0  0  0  0  0  0  0  0  0  0
   38.3970   26.7070   36.0810 N   0  0  0  0  0  0  0  0  0  0  0  0
   39.2060   28.5580   36.5500 H   0  0  0  0  0  0  0  0  0  0  0  0
   37.4340   24.8990   35.5980 H   0  0  0  0  0  0  0  0  0  0  0  0
   34.6710   28.4500   35.9160 C   0  0  0  0  0  0  0  0  0  0  0  0
   33.9470   29.0770   34.9580 C   0  0  0  0  0  0  0  0  0  0  0  0
   32.7340   29.5460   35.1720 C   0  0  0  0  0  0  0  0  0  0  0  0
   32.2360   29.3730   36.4050 C   0  0  0  0  0  0  0  0  0  0  0  0
   33.5580   28.4960   37.3110 S   0  0  0  0  0  0  0  0  0  0  0  0
   34.4590   29.1640   33.9780 H   0  0  0  0  0  0  0  0  0  0  0  0
   32.0860   30.0570   34.4740 H   0  0  0  0  0  0  0  0  0  0  0  0
   31.2880   29.6260   36.9240 H   0  0  0  0  0  0  0  0  0  0  0  0
  1  5  1  0  0  0  0
  1  2  2  0  0  0  0
  2  7  1  0  0  0  0
  2  3  1  0  0  0  0
  3 10  1  0  0  0  0
  4  3  1  0  0  0  0
  4  6  1  0  0  0  0
  5  4  2  0  0  0  0
  6  8  1  0  0  0  0
  9  6  1  0  0  0  0
 10 11  1  0  0  0  0
 10 15  1  0  0  0  0
 10 12  1  0  0  0  0
 13 14  1  0  0  0  0
 14 21  1  0  0  0  0
 15 16  1  0  0  0  0
 15 14  2  0  0  0  0
 16 18  2  0  0  0  0
 17 16  1  0  0  0  0
 18 19  1  0  0  0  0
 18 20  1  0  0  0  0
 21 20  2  0  0  0  0
 22  1  1  0  0  0  0
 23 22  2  0  0  0  0
 24 30  1  0  0  0  0
 25 24  1  0  0  0  0
 25 22  1  0  0  0  0
 26 25  2  0  0  0  0
 27 28  2  0  0  0  0
 27 26  1  0  0  0  0
 28 29  1  0  0  0  0
 29 24  2  0  0  0  0
 31 28  1  0  0  0  0
 32 26  1  0  0  0  0
 32 36  1  0  0  0  0
 33 34  1  0  0  0  0
 33 32  2  0  0  0  0
 34 35  2  0  0  0  0
 35 39  1  0  0  0  0
 35 36  1  0  0  0  0
 37 33  1  0  0  0  0
 38 34  1  0  0  0  0
M  END
>  <minimizedAffinity>
-5.92263031

$$$$

 OpenBabel03252503203D

 39 42  0  0  0  0  0  0  0  0999 V2000
   39.0400   29.3240   40.9690 C   0  0  0  0  0  0  0  0  0  0  0  0
   39.5330   28.0590   41.1510 C   0  0  0  0  0  0  0  0  0  0  0  0
   38.8540   27.5330   42.1840 N   0  0  0  0  0  0  0  0  0  0  0  0
   37.9670   28.4500   42.6220 C   0  0  0  0  0  0  0  0  0  0  0  0
   38.0770   29.5680   41.8720 N   0  0  0  0  0  0  0  0  0  0  0  0
   37.0200   28.3910   43.6790 N   0  0  0  0  0  0  0  0  0  0  0  0
   40.3030   27.5770   40.5900 H   0  0  0  0  0  0  0  0  0  0  0  0
   36.3870   27.5630   43.7970 H   0  0  0  0  0  0  0  0  0  0  0  0
   36.8750   29.1370   44.4070 H   0  0  0  0  0  0  0  0  0  0  0  0
   38.9580   26.2350   42.8050 C   0  0  0  0  0  0  0  0  0  0  0  0
   38.4010   26.2810   43.7760 H   0  0  0  0  0  0  0  0  0  0  0  0
   40.0300   26.0580   43.1150 H   0  0  0  0  0  0  0  0  0  0  0  0
   36.1880   25.4630   42.7630 F   0  0  0  0  0  0  0  0  0  0  0  0
   37.1210   24.8700   42.0040 C   0  0  0  0  0  0  0  0  0  0  0  0
   38.4690   25.1410   41.9330 C   0  0  0  0  0  0  0  0  0  0  0  0
   39.2610   24.3890   41.0660 C   0  0  0  0  0  0  0  0  0  0  0  0
   40.3220   24.6450   41.0470 H   0  0  0  0  0  0  0  0  0  0  0  0
   38.7480   23.3830   40.2750 C   0  0  0  0  0  0  0  0  0  0  0  0
   39.4140   22.8320   39.6190 H   0  0  0  0  0  0  0  0  0  0  0  0
   37.3950   23.1290   40.3630 C   0  0  0  0  0  3  0  0  0  0  0  0
   36.5610   23.8570   41.2180 C   0  0  0  0  0  3  0  0  0  0  0  0
   39.4810   30.3240   39.9310 C   0  0  0  0  0  0  0  0  0  0  0  0
   40.3740   30.1050   39.0710 O   0  0  0  0  0  0  0  0  0  0  0  0
   39.5070   32.6980   40.5310 C   0  0  0  0  0  0  0  0  0  0  0  0
   38.8750   31.6060   39.8840 C   0  0  0  0  0  0  0  0  0  0  0  0
   37.6890   31.9190   39.2500 C   0  0  0  0  0  0  0  0  0  0  0  0
   37.1610   33.1370   39.2350 N   0  0  0  0  0  0  0  0  0  0  0  0
   37.8140   34.1590   39.8770 C   0  0  0  0  0  0  0  0  0  0  0  0
   38.9640   33.9260   40.5090 N   0  0  0  0  0  0  0  0  0  0  0  0
   40.4440   32.5830   41.0640 H   0  0  0  0  0  0  0  0  0  0  0  0
   37.3900   35.1700   39.8740 H   0  0  0  0  0  0  0  0  0  0  0  0
   36.9990   30.8660   38.5790 C   0  0  0  0  0  0  0  0  0  0  0  0
   36.0280   29.9850   38.9220 C   0  0  0  0  0  0  0  0  0  0  0  0
   35.5530   29.0850   38.0830 C   0  0  0  0  0  0  0  0  0  0  0  0
   36.0830   29.0790   36.8520 C   0  0  0  0  0  0  0  0  0  0  0  0
   37.3220   30.4220   36.8810 S   0  0  0  0  0  0  0  0  0  0  0  0
   35.6650   30.0830   39.9660 H   0  0  0  0  0  0  0  0  0  0  0  0
   34.7860   28.3470   38.2660 H   0  0  0  0  0  0  0  0  0  0  0  0
   35.9340   28.4880   35.9240 H   0  0  0  0  0  0  0  0  0  0  0  0
  1  2  2  0  0  0  0
  1  5  1  0  0  0  0
  2  3  1  0  0  0  0
  3  4  1  0  0  0  0
  3 10  1  0  0  0  0
  4  6  1  0  0  0  0
  5  4  2  0  0  0  0
  6  8  1  0  0  0  0
  6  9  1  0  0  0  0
  7  2  1  0  0  0  0
 10 12  1  0  0  0  0
 10 11  1  0  0  0  0
 14 13  1  0  0  0  0
 15 14  1  0  0  0  0
 15 10  1  0  0  0  0
 16 15  2  0  0  0  0
 17 16  1  0  0  0  0
 18 20  2  0  0  0  0
 18 16  1  0  0  0  0
 19 18  1  0  0  0  0
 20 21  1  0  0  0  0
 21 14  2  0  0  0  0
 22  1  1  0  0  0  0
 23 22  2  0  0  0  0
 24 30  1  0  0  0  0
 25 22  1  0  0  0  0
 25 24  2  0  0  0  0
 26 25  1  0  0  0  0
 27 26  2  0  0  0  0
 27 28  1  0  0  0  0
 28 29  2  0  0  0  0
 29 24  1  0  0  0  0
 31 28  1  0  0  0  0
 32 33  2  0  0  0  0
 32 26  1  0  0  0  0
 33 37  1  0  0  0  0
 34 38  1  0  0  0  0
 34 33  1  0  0  0  0
 35 36  1  0  0  0  0
 35 34  2  0  0  0  0
 36 32  1  0  0  0  0
 39 35  1  0  0  0  0
M  END
>  <minimizedAffinity>
-5.89735031

$$$$

 OpenBabel03252503203D

 39 42  0  0  0  0  0  0  0  0999 V2000
   37.4160   29.2840   38.8440 C   0  0  0  0  0  0  0  0  0  0  0  0
   37.4560   28.2600   39.7530 C   0  0  0  0  0  0  0  0  0  0  0  0
   36.8090   28.6970   40.8460 N   0  0  0  0  0  0  0  0  0  0  0  0
   36.3830   29.9560   40.6120 C   0  0  0  0  0  0  0  0  0  0  0  0
   36.7570   30.3280   39.3700 N   0  0  0  0  0  0  0  0  0  0  0  0
   35.6560   30.8550   41.4380 N   0  0  0  0  0  0  0  0  0  0  0  0
   37.9080   27.3000   39.6280 H   0  0  0  0  0  0  0  0  0  0  0  0
   34.8000   30.5450   41.9590 H   0  0  0  0  0  0  0  0  0  0  0  0
   35.9000   31.8660   41.5970 H   0  0  0  0  0  0  0  0  0  0  0  0
   36.5490   28.0380   42.1030 C   0  0  0  0  0  0  0  0  0  0  0  0
   35.6130   27.4360   41.9790 H   0  0  0  0  0  0  0  0  0  0  0  0
   36.2730   28.8130   42.8770 H   0  0  0  0  0  0  0  0  0  0  0  0
   36.6720   25.2150   41.5710 F   0  0  0  0  0  0  0  0  0  0  0  0
   37.6290   25.8710   42.2420 C   0  0  0  0  0  0  0  0  0  0  0  0
   37.6890   27.2100   42.5620 C   0  0  0  0  0  0  0  0  0  0  0  0
   38.7900   27.6810   43.2740 C   0  0  0  0  0  0  0  0  0  0  0  0
   38.7880   28.7500   43.5010 H   0  0  0  0  0  0  0  0  0  0  0  0
   39.8240   26.8620   43.6730 C   0  0  0  0  0  0  0  0  0  0  0  0
   40.6560   27.2870   44.2250 H   0  0  0  0  0  0  0  0  0  0  0  0
   39.7430   25.5250   43.3420 C   0  0  0  0  0  3  0  0  0  0  0  0
   38.6570   25.0060   42.6280 C   0  0  0  0  0  3  0  0  0  0  0  0
   38.0080   29.2840   37.4580 C   0  0  0  0  0  0  0  0  0  0  0  0
   37.4880   29.8560   36.4650 O   0  0  0  0  0  0  0  0  0  0  0  0
   39.2070   27.2960   36.6790 C   0  0  0  0  0  0  0  0  0  0  0  0
   39.2320   28.6080   37.2130 C   0  0  0  0  0  0  0  0  0  0  0  0
   40.4960   29.1120   37.4490 C   0  0  0  0  0  0  0  0  0  0  0  0
   41.6140   28.4390   37.2030 N   0  0  0  0  0  0  0  0  0  0  0  0
   41.5340   27.1700   36.6850 C   0  0  0  0  0  0  0  0  0  0  0  0
   40.3440   26.6240   36.4340 N   0  0  0  0  0  0  0  0  0  0  0  0
   38.2770   26.7890   36.4500 H   0  0  0  0  0  0  0  0  0  0  0  0
   42.4480   26.6030   36.4780 H   0  0  0  0  0  0  0  0  0  0  0  0
   40.5950   30.4290   37.9880 C   0  0  0  0  0  0  0  0  0  0  0  0
   40.6280   31.6790   37.4660 C   0  0  0  0  0  0  0  0  0  0  0  0
   40.7270   32.7610   38.2120 C   0  0  0  0  0  0  0  0  0  0  0  0
   40.7940   32.5680   39.5370 C   0  0  0  0  0  0  0  0  0  0  0  0
   40.7130   30.7540   39.7390 S   0  0  0  0  0  0  0  0  0  0  0  0
   40.5670   31.7170   36.3590 H   0  0  0  0  0  0  0  0  0  0  0  0
   40.7620   33.7910   37.8870 H   0  0  0  0  0  0  0  0  0  0  0  0
   40.8790   33.2180   40.4330 H   0  0  0  0  0  0  0  0  0  0  0  0
  1  5  1  0  0  0  0
  1  2  2  0  0  0  0
  2  3  1  0  0  0  0
  3 10  1  0  0  0  0
  4  3  1  0  0  0  0
  4  6  1  0  0  0  0
  5  4  2  0  0  0  0
  6  9  1  0  0  0  0
  6  8  1  0  0  0  0
  7  2  1  0  0  0  0
 10 15  1  0  0  0  0
 10 12  1  0  0  0  0
 11 10  1  0  0  0  0
 13 14  1  0  0  0  0
 14 15  2  0  0  0  0
 14 21  1  0  0  0  0
 15 16  1  0  0  0  0
 16 17  1  0  0  0  0
 16 18  2  0  0  0  0
 18 19  1  0  0  0  0
 20 18  1  0  0  0  0
 21 20  2  0  0  0  0
 22  1  1  0  0  0  0
 23 22  2  0  0  0  0
 24 25  1  0  0  0  0
 25 26  2  0  0  0  0
 25 22  1  0  0  0  0
 26 32  1  0  0  0  0
 27 26  1  0  0  0  0
 28 27  2  0  0  0  0
 29 24  2  0  0  0  0
 29 28  1  0  0  0  0
 30 24  1  0  0  0  0
 31 28  1  0  0  0  0
 32 36  1  0  0  0  0
 33 32  2  0  0  0  0
 33 34  1  0  0  0  0
 34 35  2  0  0  0  0
 35 36  1  0  0  0  0
 35 39  1  0  0  0  0
 37 33  1  0  0  0  0
 38 34  1  0  0  0  0
M  END
>  <minimizedAffinity>
-5.87885714

$$$$

 OpenBabel03252503203D

 39 42  0  0  0  0  0  0  0  0999 V2000
   38.5040   31.3950   40.9070 C   0  0  0  0  0  0  0  0  0  0  0  0
   37.3720   30.6430   41.0790 C   0  0  0  0  0  0  0  0  0  0  0  0
   37.7260   29.5950   41.8410 N   0  0  0  0  0  0  0  0  0  0  0  0
   39.0390   29.7030   42.1290 C   0  0  0  0  0  0  0  0  0  0  0  0
   39.5310   30.8200   41.5520 N   0  0  0  0  0  0  0  0  0  0  0  0
   39.8900   28.8620   42.8950 N   0  0  0  0  0  0  0  0  0  0  0  0
   36.3980   30.8410   40.6890 H   0  0  0  0  0  0  0  0  0  0  0  0
   39.6000   28.5080   43.8400 H   0  0  0  0  0  0  0  0  0  0  0  0
   40.8440   28.5320   42.5990 H   0  0  0  0  0  0  0  0  0  0  0  0
   36.9390   28.4890   42.3310 C   0  0  0  0  0  0  0  0  0  0  0  0
   35.9020   28.8700   42.5150 H   0  0  0  0  0  0  0  0  0  0  0  0
   37.3080   28.1980   43.3580 H   0  0  0  0  0  0  0  0  0  0  0  0
   38.1130   25.9770   43.0920 F   0  0  0  0  0  0  0  0  0  0  0  0
   37.5420   26.1800   41.8970 C   0  0  0  0  0  0  0  0  0  0  0  0
   36.9510   27.3260   41.4120 C   0  0  0  0  0  0  0  0  0  0  0  0
   36.4160   27.3130   40.1250 C   0  0  0  0  0  0  0  0  0  0  0  0
   35.9590   28.2460   39.7900 H   0  0  0  0  0  0  0  0  0  0  0  0
   36.4550   26.1980   39.3150 C   0  0  0  0  0  0  0  0  0  0  0  0
   36.0210   26.2480   38.3220 H   0  0  0  0  0  0  0  0  0  0  0  0
   37.0520   25.0610   39.8210 C   0  0  0  0  0  3  0  0  0  0  0  0
   37.6020   25.0280   41.1070 C   0  0  0  0  0  3  0  0  0  0  0  0
   38.6260   32.6760   40.1220 C   0  0  0  0  0  0  0  0  0  0  0  0
   37.8060   33.6300   40.1900 O   0  0  0  0  0  0  0  0  0  0  0  0
   40.7280   33.8020   39.5640 C   0  0  0  0  0  0  0  0  0  0  0  0
   39.7200   32.8610   39.2380 C   0  0  0  0  0  0  0  0  0  0  0  0
   39.9180   32.1940   38.0440 C   0  0  0  0  0  0  0  0  0  0  0  0
   40.9600   32.4020   37.2490 N   0  0  0  0  0  0  0  0  0  0  0  0
   41.9080   33.3250   37.6120 C   0  0  0  0  0  0  0  0  0  0  0  0
   41.7780   34.0040   38.7520 N   0  0  0  0  0  0  0  0  0  0  0  0
   40.6880   34.3890   40.4750 H   0  0  0  0  0  0  0  0  0  0  0  0
   42.7740   33.5080   36.9660 H   0  0  0  0  0  0  0  0  0  0  0  0
   38.9400   31.2320   37.6530 C   0  0  0  0  0  0  0  0  0  0  0  0
   37.6880   31.2920   37.1380 C   0  0  0  0  0  0  0  0  0  0  0  0
   36.9790   30.2170   36.8590 C   0  0  0  0  0  0  0  0  0  0  0  0
   37.5620   29.0360   37.1100 C   0  0  0  0  0  0  0  0  0  0  0  0
   39.2060   29.4720   37.7790 S   0  0  0  0  0  0  0  0  0  0  0  0
   37.3070   32.3210   36.9730 H   0  0  0  0  0  0  0  0  0  0  0  0
   35.9800   30.1670   36.4500 H   0  0  0  0  0  0  0  0  0  0  0  0
   37.2770   27.9680   37.0030 H   0  0  0  0  0  0  0  0  0  0  0  0
  1  2  2  0  0  0  0
  1  5  1  0  0  0  0
  2  3  1  0  0  0  0
  3  4  1  0  0  0  0
  3 10  1  0  0  0  0
  4  6  1  0  0  0  0
  5  4  2  0  0  0  0
  6  8  1  0  0  0  0
  7  2  1  0  0  0  0
  9  6  1  0  0  0  0
 10 11  1  0  0  0  0
 10 12  1  0  0  0  0
 14 13  1  0  0  0  0
 15 14  1  0  0  0  0
 15 10  1  0  0  0  0
 16 15  2  0  0  0  0
 17 16  1  0  0  0  0
 18 20  2  0  0  0  0
 18 16  1  0  0  0  0
 19 18  1  0  0  0  0
 20 21  1  0  0  0  0
 21 14  2  0  0  0  0
 22 23  2  0  0  0  0
 22  1  1  0  0  0  0
 24 30  1  0  0  0  0
 25 24  1  0  0  0  0
 25 22  1  0  0  0  0
 26 25  2  0  0  0  0
 27 28  2  0  0  0  0
 27 26  1  0  0  0  0
 28 29  1  0  0  0  0
 29 24  2  0  0  0  0
 31 28  1  0  0  0  0
 32 36  1  0  0  0  0
 32 26  1  0  0  0  0
 33 32  2  0  0  0  0
 34 35  2  0  0  0  0
 34 33  1  0  0  0  0
 35 36  1  0  0  0  0
 37 33  1  0  0  0  0
 38 34  1  0  0  0  0
 39 35  1  0  0  0  0
M  END
>  <minimizedAffinity>
-5.84498835

$$$$

 OpenBabel03252503203D

 39 42  0  0  0  0  0  0  0  0999 V2000
   36.3790   30.2560   39.0960 C   0  0  0  0  0  0  0  0  0  0  0  0
   36.8570   31.2240   39.9370 C   0  0  0  0  0  0  0  0  0  0  0  0
   37.6090   32.0440   39.1830 N   0  0  0  0  0  0  0  0  0  0  0  0
   37.5910   31.5890   37.9130 C   0  0  0  0  0  0  0  0  0  0  0  0
   36.8290   30.4770   37.8500 N   0  0  0  0  0  0  0  0  0  0  0  0
   38.2190   32.0910   36.7420 N   0  0  0  0  0  0  0  0  0  0  0  0
   36.6750   31.3200   40.9850 H   0  0  0  0  0  0  0  0  0  0  0  0
   38.1750   33.1090   36.4930 H   0  0  0  0  0  0  0  0  0  0  0  0
   38.7620   31.5130   36.0500 H   0  0  0  0  0  0  0  0  0  0  0  0
   38.3520   33.2270   39.5460 C   0  0  0  0  0  0  0  0  0  0  0  0
   37.8660   33.6620   40.4560 H   0  0  0  0  0  0  0  0  0  0  0  0
   38.1990   34.0170   38.7530 H   0  0  0  0  0  0  0  0  0  0  0  0
   39.3120   31.9450   41.9340 F   0  0  0  0  0  0  0  0  0  0  0  0
   40.1230   32.3350   40.9410 C   0  0  0  0  0  0  0  0  0  0  0  0
   39.7930   32.9560   39.7570 C   0  0  0  0  0  0  0  0  0  0  0  0
   40.8120   33.2770   38.8600 C   0  0  0  0  0  0  0  0  0  0  0  0
   40.4960   33.7670   37.9370 H   0  0  0  0  0  0  0  0  0  0  0  0
   42.1380   32.9980   39.1110 C   0  0  0  0  0  0  0  0  0  0  0  0
   42.8860   33.2710   38.3740 H   0  0  0  0  0  0  0  0  0  0  0  0
   42.4450   32.3750   40.3030 C   0  0  0  0  0  3  0  0  0  0  0  0
   41.4570   32.0340   41.2340 C   0  0  0  0  0  3  0  0  0  0  0  0
   35.4860   29.0990   39.4660 C   0  0  0  0  0  0  0  0  0  0  0  0
   34.3510   29.2220   39.9970 O   0  0  0  0  0  0  0  0  0  0  0  0
   35.5020   27.1180   38.0270 C   0  0  0  0  0  0  0  0  0  0  0  0
   35.9130   27.7690   39.2160 C   0  0  0  0  0  0  0  0  0  0  0  0
   36.7200   27.0100   40.0410 C   0  0  0  0  0  0  0  0  0  0  0  0
   37.0930   25.7670   39.7640 N   0  0  0  0  0  0  0  0  0  0  0  0
   36.6670   25.1820   38.5980 C   0  0  0  0  0  0  0  0  0  0  0  0
   35.8860   25.8600   37.7560 N   0  0  0  0  0  0  0  0  0  0  0  0
   34.8670   27.6070   37.2970 H   0  0  0  0  0  0  0  0  0  0  0  0
   36.9670   24.1560   38.3560 H   0  0  0  0  0  0  0  0  0  0  0  0
   37.1700   27.6040   41.2570 C   0  0  0  0  0  0  0  0  0  0  0  0
   36.6500   27.7580   42.4990 C   0  0  0  0  0  0  0  0  0  0  0  0
   37.2970   28.3670   43.4730 C   0  0  0  0  0  0  0  0  0  0  0  0
   38.5170   28.8360   43.1760 C   0  0  0  0  0  0  0  0  0  0  0  0
   38.7630   28.3910   41.4210 S   0  0  0  0  0  0  0  0  0  0  0  0
   35.6340   27.3320   42.6290 H   0  0  0  0  0  0  0  0  0  0  0  0
   36.9640   28.5370   44.4870 H   0  0  0  0  0  0  0  0  0  0  0  0
   39.3170   29.3780   43.7240 H   0  0  0  0  0  0  0  0  0  0  0  0
  1 22  1  0  0  0  0
  1  2  2  0  0  0  0
  2  7  1  0  0  0  0
  3 10  1  0  0  0  0
  3  2  1  0  0  0  0
  4  3  1  0  0  0  0
  5  4  2  0  0  0  0
  5  1  1  0  0  0  0
  6  4  1  0  0  0  0
  8  6  1  0  0  0  0
  9  6  1  0  0  0  0
 10 15  1  0  0  0  0
 10 11  1  0  0  0  0
 12 10  1  0  0  0  0
 14 21  1  0  0  0  0
 14 13  1  0  0  0  0
 15 14  2  0  0  0  0
 16 18  2  0  0  0  0
 16 15  1  0  0  0  0
 17 16  1  0  0  0  0
 18 20  1  0  0  0  0
 19 18  1  0  0  0  0
 20 21  2  0  0  0  0
 22 23  2  0  0  0  0
 24 25  1  0  0  0  0
 25 22  1  0  0  0  0
 25 26  2  0  0  0  0
 26 32  1  0  0  0  0
 27 26  1  0  0  0  0
 28 27  2  0  0  0  0
 29 24  2  0  0  0  0
 29 28  1  0  0  0  0
 30 24  1  0  0  0  0
 31 28  1  0  0  0  0
 32 36  1  0  0  0  0
 32 33  2  0  0  0  0
 33 37  1  0  0  0  0
 33 34  1  0  0  0  0
 34 38  1  0  0  0  0
 35 34  2  0  0  0  0
 35 39  1  0  0  0  0
 36 35  1  0  0  0  0
M  END
>  <minimizedAffinity>
-5.84247255

$$$$

 OpenBabel03252503203D

 39 42  0  0  0  0  0  0  0  0999 V2000
   38.3030   30.9250   41.2890 C   0  0  0  0  0  0  0  0  0  0  0  0
   38.5430   30.1290   42.3770 C   0  0  0  0  0  0  0  0  0  0  0  0
   37.5160   29.2650   42.4480 N   0  0  0  0  0  0  0  0  0  0  0  0
   36.6700   29.5250   41.4290 C   0  0  0  0  0  0  0  0  0  0  0  0
   37.1520   30.5570   40.7040 N   0  0  0  0  0  0  0  0  0  0  0  0
   35.4470   28.9040   41.0610 N   0  0  0  0  0  0  0  0  0  0  0  0
   39.3760   30.1750   43.0430 H   0  0  0  0  0  0  0  0  0  0  0  0
   35.3590   27.8600   41.0110 H   0  0  0  0  0  0  0  0  0  0  0  0
   34.5570   29.4120   40.8180 H   0  0  0  0  0  0  0  0  0  0  0  0
   37.2510   28.2060   43.3910 C   0  0  0  0  0  0  0  0  0  0  0  0
   36.1490   28.2030   43.5910 H   0  0  0  0  0  0  0  0  0  0  0  0
   37.7070   28.4750   44.3880 H   0  0  0  0  0  0  0  0  0  0  0  0
   40.0030   27.4210   43.6780 F   0  0  0  0  0  0  0  0  0  0  0  0
   39.0750   26.6310   43.1190 C   0  0  0  0  0  0  0  0  0  0  0  0
   37.7360   26.8860   42.9220 C   0  0  0  0  0  0  0  0  0  0  0  0
   36.9490   25.9100   42.3130 C   0  0  0  0  0  0  0  0  0  0  0  0
   35.8950   26.1620   42.1820 H   0  0  0  0  0  0  0  0  0  0  0  0
   37.4560   24.6970   41.8990 C   0  0  0  0  0  0  0  0  0  0  0  0
   36.7940   23.9760   41.4310 H   0  0  0  0  0  0  0  0  0  0  0  0
   38.8000   24.4630   42.1070 C   0  0  0  0  0  3  0  0  0  0  0  0
   39.6300   25.4130   42.7140 C   0  0  0  0  0  3  0  0  0  0  0  0
   39.1670   32.0550   40.7890 C   0  0  0  0  0  0  0  0  0  0  0  0
   39.1630   33.2170   41.2720 O   0  0  0  0  0  0  0  0  0  0  0  0
   39.6370   32.1410   38.3870 C   0  0  0  0  0  0  0  0  0  0  0  0
   40.0570   31.8360   39.7060 C   0  0  0  0  0  0  0  0  0  0  0  0
   41.3420   31.3390   39.8010 C   0  0  0  0  0  0  0  0  0  0  0  0
   42.1380   31.1510   38.7560 N   0  0  0  0  0  0  0  0  0  0  0  0
   41.6810   31.4630   37.5000 C   0  0  0  0  0  0  0  0  0  0  0  0
   40.4510   31.9480   37.3370 N   0  0  0  0  0  0  0  0  0  0  0  0
   38.6500   32.5390   38.1790 H   0  0  0  0  0  0  0  0  0  0  0  0
   42.3270   31.3130   36.6270 H   0  0  0  0  0  0  0  0  0  0  0  0
   41.8300   31.0090   41.1000 C   0  0  0  0  0  0  0  0  0  0  0  0
   42.2150   31.7180   42.1890 C   0  0  0  0  0  0  0  0  0  0  0  0
   42.6390   31.1470   43.2990 C   0  0  0  0  0  0  0  0  0  0  0  0
   42.6720   29.8070   43.3060 C   0  0  0  0  0  0  0  0  0  0  0  0
   42.0700   29.3270   41.6490 S   0  0  0  0  0  0  0  0  0  0  0  0
   42.1470   32.8190   42.0680 H   0  0  0  0  0  0  0  0  0  0  0  0
   42.9660   31.6280   44.2100 H   0  0  0  0  0  0  0  0  0  0  0  0
   42.9590   29.0220   44.0360 H   0  0  0  0  0  0  0  0  0  0  0  0
  1  2  2  0  0  0  0
  2  3  1  0  0  0  0
  2  7  1  0  0  0  0
  3 10  1  0  0  0  0
  4  3  1  0  0  0  0
  5  1  1  0  0  0  0
  5  4  2  0  0  0  0
  6  4  1  0  0  0  0
  8  6  1  0  0  0  0
  9  6  1  0  0  0  0
 10 11  1  0  0  0  0
 10 12  1  0  0  0  0
 14 13  1  0  0  0  0
 15 14  1  0  0  0  0
 15 10  1  0  0  0  0
 16 15  2  0  0  0  0
 17 16  1  0  0  0  0
 18 20  2  0  0  0  0
 18 16  1  0  0  0  0
 19 18  1  0  0  0  0
 20 21  1  0  0  0  0
 21 14  2  0  0  0  0
 22 23  2  0  0  0  0
 22  1  1  0  0  0  0
 24 25  1  0  0  0  0
 25 26  2  0  0  0  0
 25 22  1  0  0  0  0
 26 32  1  0  0  0  0
 27 26  1  0  0  0  0
 28 27  2  0  0  0  0
 29 28  1  0  0  0  0
 29 24  2  0  0  0  0
 30 24  1  0  0  0  0
 31 28  1  0  0  0  0
 32 36  1  0  0  0  0
 32 33  2  0  0  0  0
 33 34  1  0  0  0  0
 34 35  2  0  0  0  0
 34 38  1  0  0  0  0
 35 39  1  0  0  0  0
 36 35  1  0  0  0  0
 37 33  1  0  0  0  0
M  END
>  <minimizedAffinity>
-5.83912563

$$$$
