
 OpenBabel03252509043D

 48 50  0  0  1  0  0  0  0  0999 V2000
   46.7390   34.3510   43.4850 N   0  0  0  0  0  0  0  0  0  0  0  0
   46.4810   34.9420   42.2290 C   0  0  0  0  0  0  0  0  0  0  0  0
   45.0150   35.0150   41.8530 C   0  0  0  0  0  0  0  0  0  0  0  0
   44.0760   35.1860   43.0260 C   0  0  0  0  0  0  0  0  0  0  0  0
   44.8500   35.3930   44.3190 C   0  0  0  0  0  0  0  0  0  0  0  0
   45.7480   34.0980   44.3980 C   0  0  2  0  0  0  0  0  0  0  0  0
   46.8380   36.0110   42.2800 H   0  0  0  0  0  0  0  0  0  0  0  0
   47.0000   34.5150   41.3670 H   0  0  0  0  0  0  0  0  0  0  0  0
   44.7170   34.1540   41.1940 H   0  0  0  0  0  0  0  0  0  0  0  0
   44.8580   35.9090   41.2030 H   0  0  0  0  0  0  0  0  0  0  0  0
   43.2940   35.9330   42.8550 H   0  0  0  0  0  0  0  0  0  0  0  0
   43.5500   34.2100   43.1430 H   0  0  0  0  0  0  0  0  0  0  0  0
   44.1270   35.3630   45.1560 H   0  0  0  0  0  0  0  0  0  0  0  0
   45.5060   36.2730   44.2980 H   0  0  0  0  0  0  0  0  0  0  0  0
   45.0680   33.2350   44.2230 H   0  0  0  0  0  0  0  0  0  0  0  0
   47.9200   33.5100   43.5030 C   0  0  0  0  0  0  0  0  0  0  0  0
   48.0930   33.1500   44.5400 H   0  0  0  0  0  0  0  0  0  0  0  0
   48.8000   34.0760   43.1850 H   0  0  0  0  0  0  0  0  0  0  0  0
   47.6630   32.3180   42.6420 C   0  0  0  0  0  0  0  0  0  0  0  0
   47.4110   31.4000   43.2010 H   0  0  0  0  0  0  0  0  0  0  0  0
   46.8100   32.5050   41.9410 H   0  0  0  0  0  0  0  0  0  0  0  0
   51.2120   32.1600   41.4110 C   0  0  0  0  0  0  0  0  0  0  0  0
   50.0930   32.3730   42.2350 C   0  0  0  0  0  0  0  0  0  0  0  0
   48.8400   32.0870   41.7620 C   0  0  0  0  0  0  0  0  0  0  0  0
   48.7510   31.6100   40.5130 N   0  0  0  0  0  0  0  0  0  0  0  0
   49.8160   31.4070   39.7300 C   0  0  0  0  0  0  0  0  0  0  0  0
   51.0570   31.6760   40.1620 N   0  0  0  0  0  0  0  0  0  0  0  0
   52.1390   32.4250   41.8990 H   0  0  0  0  0  0  0  0  0  0  0  0
   50.1810   32.7650   43.2520 H   0  0  0  0  0  0  0  0  0  0  0  0
   49.7720   31.0240   38.7230 H   0  0  0  0  0  0  0  0  0  0  0  0
   46.1910   34.1560   45.7090 O   0  0  0  0  0  0  0  0  0  0  0  0
   45.5770   31.5710   45.5730 O   0  0  0  0  0  0  0  0  0  0  0  0
   46.0190   32.6880   46.5240 P   0  0  2  0  0  0  0  0  0  0  0  0
   44.7340   32.9080   47.6130 O   0  0  0  0  0  0  0  0  0  0  0  0
   45.0030   33.5520   48.3040 H   0  0  0  0  0  0  0  0  0  0  0  0
   47.3890   32.2860   47.3960 O   0  0  0  0  0  0  0  0  0  0  0  0
   47.6190   30.9140   47.2200 C   0  0  0  0  0  0  0  0  0  0  0  0
   46.6780   30.3400   47.3740 H   0  0  0  0  0  0  0  0  0  0  0  0
   48.0170   30.6650   46.2310 H   0  0  0  0  0  0  0  0  0  0  0  0
   49.4600   29.0080   46.5280 F   0  0  0  0  0  0  0  0  0  0  0  0
   49.5040   29.5290   47.7870 C   0  0  0  0  0  0  0  0  0  0  0  0
   48.6130   30.5100   48.2450 C   0  0  0  0  0  0  0  0  0  0  0  0
   48.7570   30.9590   49.5380 C   0  0  0  0  0  0  0  0  0  0  0  0
   48.0360   31.7060   49.8050 H   0  0  0  0  0  0  0  0  0  0  0  0
   49.7440   30.4650   50.3620 C   0  0  0  0  0  0  0  0  0  0  0  0
   49.8170   30.8400   51.3550 H   0  0  0  0  0  0  0  0  0  0  0  0
   50.6400   29.4900   49.9340 C   0  0  0  0  0  3  0  0  0  0  0  0
   50.4830   29.0530   48.6400 C   0  0  0  0  0  3  0  0  0  0  0  0
  1 16  1  0  0  0  0
  1  6  1  0  0  0  0
  2  7  1  0  0  0  0
  2  1  1  0  0  0  0
  3  2  1  0  0  0  0
  3  4  1  0  0  0  0
  4 12  1  0  0  0  0
  4  5  1  0  0  0  0
  5  6  1  0  0  0  0
  5 13  1  0  0  0  0
  6 15  1  6  0  0  0
  6 31  1  0  0  0  0
  8  2  1  0  0  0  0
  9  3  1  0  0  0  0
 10  3  1  0  0  0  0
 11  4  1  0  0  0  0
 14  5  1  0  0  0  0
 16 17  1  0  0  0  0
 18 16  1  0  0  0  0
 19 20  1  0  0  0  0
 19 16  1  0  0  0  0
 21 19  1  0  0  0  0
 22 28  1  0  0  0  0
 22 23  1  0  0  0  0
 23 29  1  0  0  0  0
 24 23  2  0  0  0  0
 24 19  1  0  0  0  0
 25 24  1  0  0  0  0
 26 27  1  0  0  0  0
 26 25  2  0  0  0  0
 27 22  2  0  0  0  0
 30 26  1  0  0  0  0
 31 33  1  0  0  0  0
 33 32  2  6  0  0  0
 33 36  1  0  0  0  0
 33 34  1  0  0  0  0
 34 35  1  0  0  0  0
 37 38  1  0  0  0  0
 37 36  1  0  0  0  0
 37 42  1  0  0  0  0
 39 37  1  0  0  0  0
 40 41  1  0  0  0  0
 41 42  2  0  0  0  0
 41 48  1  0  0  0  0
 42 43  1  0  0  0  0
 43 44  1  0  0  0  0
 43 45  2  0  0  0  0
 45 46  1  0  0  0  0
 47 45  1  0  0  0  0
 48 47  2  0  0  0  0
M  END
>  <minimizedAffinity>
-5.11927414

>  <minimizedRMSD>
2.82498741

$$$$
