
 OpenBabel03242519333D

 48 51  0  0  0  0  0  0  0  0999 V2000
   41.6680   34.9480   40.8520 C   0  0  0  0  0  0  0  0  0  0  0  0
   41.0130   36.1950   40.6750 C   0  0  0  0  0  0  0  0  0  0  0  0
   39.6700   36.2230   40.2840 C   0  0  0  0  0  0  0  0  0  0  0  0
   39.0660   35.0070   40.0930 N   0  0  0  0  0  0  0  0  0  0  0  0
   39.7430   33.8280   40.2760 C   0  0  0  0  0  0  0  0  0  0  0  0
   41.0100   33.8220   40.6470 N   0  0  0  0  0  0  0  0  0  0  0  0
   41.4310   37.1930   40.8090 H   0  0  0  0  0  0  0  0  0  0  0  0
   39.1280   37.1450   40.1370 H   0  0  0  0  0  0  0  0  0  0  0  0
   43.0760   35.0560   41.2600 C   0  0  0  0  0  0  0  0  0  0  0  0
   43.7500   33.8020   41.4790 C   0  0  0  0  0  0  0  0  0  0  0  0
   44.1290   33.5230   42.8820 C   0  0  0  0  0  0  0  0  0  0  0  0
   44.9850   34.6570   43.4380 C   0  0  0  0  0  0  0  0  0  0  0  0
   44.4840   36.0240   43.0970 C   0  0  0  0  0  0  0  0  0  0  0  0
   43.0730   35.9720   42.5300 C   0  0  0  0  0  0  0  0  0  0  0  0
   43.5860   35.7180   40.5030 H   0  0  0  0  0  0  0  0  0  0  0  0
   44.6620   33.7150   40.8430 H   0  0  0  0  0  0  0  0  0  0  0  0
   43.0980   32.9460   41.1420 H   0  0  0  0  0  0  0  0  0  0  0  0
   44.7900   32.6070   42.8710 H   0  0  0  0  0  0  0  0  0  0  0  0
   43.3390   33.3010   43.5900 H   0  0  0  0  0  0  0  0  0  0  0  0
   45.1290   34.5720   44.5200 H   0  0  0  0  0  0  0  0  0  0  0  0
   46.0030   34.5470   42.9730 H   0  0  0  0  0  0  0  0  0  0  0  0
   44.4140   36.6820   43.9840 H   0  0  0  0  0  0  0  0  0  0  0  0
   45.1100   36.5410   42.3270 H   0  0  0  0  0  0  0  0  0  0  0  0
   42.4160   35.4170   43.2320 H   0  0  0  0  0  0  0  0  0  0  0  0
   42.7280   36.9750   42.2690 H   0  0  0  0  0  0  0  0  0  0  0  0
   38.9330   32.6420   40.0240 C   0  0  0  0  0  0  0  0  0  0  0  0
   39.4980   31.5740   39.4440 N   0  0  0  0  0  0  0  0  0  0  0  0
   38.5650   30.5930   39.3080 C   0  0  0  0  0  0  0  0  0  0  0  0
   37.4170   31.0820   39.8180 N   0  0  0  0  0  0  0  0  0  0  0  0
   37.6310   32.3310   40.2580 N   0  0  0  0  0  0  0  0  0  0  0  0
   38.6550   29.6070   38.8900 H   0  0  0  0  0  0  0  0  0  0  0  0
   36.1500   30.4030   39.9260 C   0  0  0  0  0  0  0  0  0  0  0  0
   35.8650   29.8370   39.0530 H   0  0  0  0  0  0  0  0  0  0  0  0
   35.3530   31.1700   40.0730 H   0  0  0  0  0  0  0  0  0  0  0  0
   36.1470   29.5610   41.1230 C   0  0  0  0  0  3  0  0  0  0  0  0
   36.4920   28.3060   41.3690 C   0  0  0  0  0  3  0  0  0  0  0  0
   36.4950   27.6090   42.7440 C   0  0  0  0  0  0  0  0  0  0  0  0
   35.4740   27.3020   42.9910 H   0  0  0  0  0  0  0  0  0  0  0  0
   36.9340   28.3710   43.4170 H   0  0  0  0  0  0  0  0  0  0  0  0
   39.0560   27.8520   43.6800 F   0  0  0  0  0  0  0  0  0  0  0  0
   38.7060   26.6260   43.1670 C   0  0  0  0  0  0  0  0  0  0  0  0
   37.4070   26.4570   42.6760 C   0  0  0  0  0  0  0  0  0  0  0  0
   37.1340   25.1810   42.1740 C   0  0  0  0  0  0  0  0  0  0  0  0
   36.1280   25.0590   41.7970 H   0  0  0  0  0  0  0  0  0  0  0  0
   38.1110   24.2100   42.1890 C   0  0  0  0  0  0  0  0  0  0  0  0
   37.8540   23.2190   41.7840 H   0  0  0  0  0  0  0  0  0  0  0  0
   39.3810   24.4040   42.6790 C   0  0  0  0  0  3  0  0  0  0  0  0
   39.6800   25.6640   43.1850 C   0  0  0  0  0  3  0  0  0  0  0  0
  1  9  1  0  0  0  0
  2  7  1  0  0  0  0
  2  1  1  0  0  0  0
  3  2  2  0  0  0  0
  4  5  2  0  0  0  0
  4  3  1  0  0  0  0
  5  6  1  0  0  0  0
  6  1  2  0  0  0  0
  8  3  1  0  0  0  0
  9 10  1  0  0  0  0
  9 14  1  0  0  0  0
 10 11  1  0  0  0  0
 11 12  1  0  0  0  0
 11 19  1  0  0  0  0
 12 20  1  0  0  0  0
 13 12  1  0  0  0  0
 13 22  1  0  0  0  0
 14 13  1  0  0  0  0
 14 24  1  0  0  0  0
 15  9  1  0  0  0  0
 16 10  1  0  0  0  0
 17 10  1  0  0  0  0
 18 11  1  0  0  0  0
 21 12  1  0  0  0  0
 23 13  1  0  0  0  0
 25 14  1  0  0  0  0
 26 30  2  0  0  0  0
 26  5  1  0  0  0  0
 27 26  1  0  0  0  0
 28 27  2  0  0  0  0
 28 29  1  0  0  0  0
 29 32  1  0  0  0  0
 29 30  1  0  0  0  0
 31 28  1  0  0  0  0
 32 34  1  0  0  0  0
 32 35  1  0  0  0  0
 33 32  1  0  0  0  0
 35 36  2  0  0  0  0
 36 37  1  0  0  0  0
 37 38  1  0  0  0  0
 37 39  1  0  0  0  0
 41 48  1  0  0  0  0
 41 40  1  0  0  0  0
 42 37  1  0  0  0  0
 42 41  2  0  0  0  0
 43 45  2  0  0  0  0
 43 42  1  0  0  0  0
 44 43  1  0  0  0  0
 45 47  1  0  0  0  0
 46 45  1  0  0  0  0
 47 48  2  0  0  0  0
M  END
>  <minimizedAffinity>
-7.16001081

$$$$

 OpenBabel03242519333D

 48 51  0  0  0  0  0  0  0  0999 V2000
   40.8360   34.2330   39.3320 C   0  0  0  0  0  0  0  0  0  0  0  0
   40.2300   35.2800   40.0740 C   0  0  0  0  0  0  0  0  0  0  0  0
   38.9170   35.1340   40.5330 C   0  0  0  0  0  0  0  0  0  0  0  0
   38.2910   33.9540   40.2230 N   0  0  0  0  0  0  0  0  0  0  0  0
   38.9190   32.9710   39.5020 C   0  0  0  0  0  0  0  0  0  0  0  0
   40.1600   33.1270   39.0770 N   0  0  0  0  0  0  0  0  0  0  0  0
   40.6680   36.2380   40.3540 H   0  0  0  0  0  0  0  0  0  0  0  0
   38.4130   35.9010   41.1030 H   0  0  0  0  0  0  0  0  0  0  0  0
   42.2140   34.5120   38.9040 C   0  0  0  0  0  0  0  0  0  0  0  0
   42.5230   34.1430   37.5470 C   0  0  0  0  0  0  0  0  0  0  0  0
   43.4830   33.0260   37.3960 C   0  0  0  0  0  0  0  0  0  0  0  0
   44.7790   33.3340   38.1390 C   0  0  0  0  0  0  0  0  0  0  0  0
   44.5770   33.9180   39.5020 C   0  0  0  0  0  0  0  0  0  0  0  0
   43.1290   33.7910   39.9500 C   0  0  0  0  0  0  0  0  0  0  0  0
   42.4150   35.5970   39.1350 H   0  0  0  0  0  0  0  0  0  0  0  0
   42.9020   35.0150   36.9650 H   0  0  0  0  0  0  0  0  0  0  0  0
   41.5830   33.8390   37.0020 H   0  0  0  0  0  0  0  0  0  0  0  0
   43.7550   32.9690   36.3010 H   0  0  0  0  0  0  0  0  0  0  0  0
   43.1520   32.0300   37.6640 H   0  0  0  0  0  0  0  0  0  0  0  0
   45.4350   32.4600   38.2010 H   0  0  0  0  0  0  0  0  0  0  0  0
   45.3260   34.1000   37.5240 H   0  0  0  0  0  0  0  0  0  0  0  0
   45.1660   33.3920   40.2770 H   0  0  0  0  0  0  0  0  0  0  0  0
   44.8250   35.0070   39.5520 H   0  0  0  0  0  0  0  0  0  0  0  0
   42.8110   32.7300   39.8660 H   0  0  0  0  0  0  0  0  0  0  0  0
   42.9940   34.2370   40.9380 H   0  0  0  0  0  0  0  0  0  0  0  0
   38.0910   31.7930   39.2710 C   0  0  0  0  0  0  0  0  0  0  0  0
   38.4890   30.8780   38.3760 N   0  0  0  0  0  0  0  0  0  0  0  0
   37.5730   29.8740   38.3270 C   0  0  0  0  0  0  0  0  0  0  0  0
   36.6060   30.1920   39.2110 N   0  0  0  0  0  0  0  0  0  0  0  0
   36.9130   31.3620   39.7920 N   0  0  0  0  0  0  0  0  0  0  0  0
   37.5590   28.9800   37.7300 H   0  0  0  0  0  0  0  0  0  0  0  0
   35.4320   29.4220   39.5370 C   0  0  0  0  0  0  0  0  0  0  0  0
   35.1380   28.7060   38.7850 H   0  0  0  0  0  0  0  0  0  0  0  0
   34.5720   30.1250   39.6500 H   0  0  0  0  0  0  0  0  0  0  0  0
   35.6170   28.7750   40.8360 C   0  0  0  0  0  3  0  0  0  0  0  0
   36.6390   28.1790   41.4330 C   0  0  0  0  0  3  0  0  0  0  0  0
   36.6630   27.6200   42.8690 C   0  0  0  0  0  0  0  0  0  0  0  0
   35.7400   27.0600   43.0490 H   0  0  0  0  0  0  0  0  0  0  0  0
   36.7970   28.5240   43.4940 H   0  0  0  0  0  0  0  0  0  0  0  0
   36.6530   25.0940   41.8100 F   0  0  0  0  0  0  0  0  0  0  0  0
   37.8030   25.4830   42.4550 C   0  0  0  0  0  0  0  0  0  0  0  0
   37.8520   26.7650   43.0120 C   0  0  0  0  0  0  0  0  0  0  0  0
   39.0560   27.0800   43.6480 C   0  0  0  0  0  0  0  0  0  0  0  0
   39.0850   28.0730   44.0760 H   0  0  0  0  0  0  0  0  0  0  0  0
   40.0770   26.1560   43.6900 C   0  0  0  0  0  0  0  0  0  0  0  0
   41.0090   26.4450   44.2010 H   0  0  0  0  0  0  0  0  0  0  0  0
   40.0020   24.9010   43.1320 C   0  0  0  0  0  3  0  0  0  0  0  0
   38.8140   24.5620   42.4920 C   0  0  0  0  0  3  0  0  0  0  0  0
  1  2  1  0  0  0  0
  2  7  1  0  0  0  0
  2  3  2  0  0  0  0
  3  8  1  0  0  0  0
  4  3  1  0  0  0  0
  5  4  2  0  0  0  0
  6  1  2  0  0  0  0
  6  5  1  0  0  0  0
  9 15  1  0  0  0  0
  9  1  1  0  0  0  0
  9 14  1  0  0  0  0
 10  9  1  0  0  0  0
 11 10  1  0  0  0  0
 11 19  1  0  0  0  0
 11 12  1  0  0  0  0
 12 20  1  0  0  0  0
 12 13  1  0  0  0  0
 13 23  1  0  0  0  0
 13 14  1  0  0  0  0
 13 22  1  0  0  0  0
 14 25  1  0  0  0  0
 16 10  1  0  0  0  0
 17 10  1  0  0  0  0
 18 11  1  0  0  0  0
 21 12  1  0  0  0  0
 24 14  1  0  0  0  0
 26  5  1  0  0  0  0
 26 30  2  0  0  0  0
 27 26  1  0  0  0  0
 28 27  2  0  0  0  0
 28 29  1  0  0  0  0
 29 32  1  0  0  0  0
 29 30  1  0  0  0  0
 31 28  1  0  0  0  0
 32 34  1  0  0  0  0
 32 35  1  0  0  0  0
 33 32  1  0  0  0  0
 35 36  2  0  0  0  0
 36 37  1  0  0  0  0
 37 42  1  0  0  0  0
 37 38  1  0  0  0  0
 37 39  1  0  0  0  0
 40 41  1  0  0  0  0
 41 48  2  0  0  0  0
 41 42  1  0  0  0  0
 42 43  2  0  0  0  0
 43 45  1  0  0  0  0
 43 44  1  0  0  0  0
 45 46  1  0  0  0  0
 47 45  2  0  0  0  0
 48 47  1  0  0  0  0
M  END
>  <minimizedAffinity>
-6.86689997

$$$$

 OpenBabel03242519333D

 48 51  0  0  0  0  0  0  0  0999 V2000
   40.9470   34.4210   40.4150 C   0  0  0  0  0  0  0  0  0  0  0  0
   40.3790   35.7220   40.4340 C   0  0  0  0  0  0  0  0  0  0  0  0
   39.0120   35.8840   40.1800 C   0  0  0  0  0  0  0  0  0  0  0  0
   38.3000   34.7400   39.9230 N   0  0  0  0  0  0  0  0  0  0  0  0
   38.8970   33.5050   39.9160 C   0  0  0  0  0  0  0  0  0  0  0  0
   40.1880   33.3720   40.1580 N   0  0  0  0  0  0  0  0  0  0  0  0
   40.8840   36.6670   40.6300 H   0  0  0  0  0  0  0  0  0  0  0  0
   38.5330   36.8510   40.1840 H   0  0  0  0  0  0  0  0  0  0  0  0
   42.3910   34.3880   40.6920 C   0  0  0  0  0  0  0  0  0  0  0  0
   42.9190   33.0930   41.0380 C   0  0  0  0  0  0  0  0  0  0  0  0
   43.3940   32.9540   42.4340 C   0  0  0  0  0  0  0  0  0  0  0  0
   44.4350   34.0230   42.7510 C   0  0  0  0  0  0  0  0  0  0  0  0
   44.0790   35.3890   42.2550 C   0  0  0  0  0  0  0  0  0  0  0  0
   42.6250   35.4560   41.8120 C   0  0  0  0  0  0  0  0  0  0  0  0
   42.9050   34.8650   39.8100 H   0  0  0  0  0  0  0  0  0  0  0  0
   43.7480   32.7970   40.3530 H   0  0  0  0  0  0  0  0  0  0  0  0
   42.1360   32.2970   40.8800 H   0  0  0  0  0  0  0  0  0  0  0  0
   43.9300   31.9630   42.5040 H   0  0  0  0  0  0  0  0  0  0  0  0
   42.6530   32.9400   43.2240 H   0  0  0  0  0  0  0  0  0  0  0  0
   44.6700   34.0640   43.8200 H   0  0  0  0  0  0  0  0  0  0  0  0
   45.3810   33.7130   42.2290 H   0  0  0  0  0  0  0  0  0  0  0  0
   44.1770   36.1620   43.0400 H   0  0  0  0  0  0  0  0  0  0  0  0
   44.6880   35.7060   41.3720 H   0  0  0  0  0  0  0  0  0  0  0  0
   41.9730   35.0960   42.6370 H   0  0  0  0  0  0  0  0  0  0  0  0
   42.3850   36.4530   41.4370 H   0  0  0  0  0  0  0  0  0  0  0  0
   37.9780   32.4120   39.6210 C   0  0  0  0  0  0  0  0  0  0  0  0
   37.7670   32.0590   38.3450 N   0  0  0  0  0  0  0  0  0  0  0  0
   36.8820   31.0270   38.3070 C   0  0  0  0  0  0  0  0  0  0  0  0
   36.5570   30.7530   39.5860 N   0  0  0  0  0  0  0  0  0  0  0  0
   37.2190   31.5930   40.3960 N   0  0  0  0  0  0  0  0  0  0  0  0
   36.4820   30.4900   37.4660 H   0  0  0  0  0  0  0  0  0  0  0  0
   35.6710   29.7190   40.0600 C   0  0  0  0  0  0  0  0  0  0  0  0
   35.5330   28.8950   39.3780 H   0  0  0  0  0  0  0  0  0  0  0  0
   34.6600   30.1680   40.2150 H   0  0  0  0  0  0  0  0  0  0  0  0
   36.1250   29.2490   41.3690 C   0  0  0  0  0  3  0  0  0  0  0  0
   36.4230   28.0590   41.8700 C   0  0  0  0  0  3  0  0  0  0  0  0
   36.9760   27.7700   43.2790 C   0  0  0  0  0  0  0  0  0  0  0  0
   36.3840   26.9720   43.7390 H   0  0  0  0  0  0  0  0  0  0  0  0
   36.9160   28.7530   43.7850 H   0  0  0  0  0  0  0  0  0  0  0  0
   38.8960   29.7200   43.1780 F   0  0  0  0  0  0  0  0  0  0  0  0
   39.3390   28.4200   43.1040 C   0  0  0  0  0  0  0  0  0  0  0  0
   38.3920   27.3910   43.1510 C   0  0  0  0  0  0  0  0  0  0  0  0
   38.9260   26.1020   43.0710 C   0  0  0  0  0  0  0  0  0  0  0  0
   38.1870   25.3130   43.1080 H   0  0  0  0  0  0  0  0  0  0  0  0
   40.2870   25.9250   42.9560 C   0  0  0  0  0  0  0  0  0  0  0  0
   40.6660   24.8930   42.8950 H   0  0  0  0  0  0  0  0  0  0  0  0
   41.1960   26.9550   42.9120 C   0  0  0  0  0  3  0  0  0  0  0  0
   40.6920   28.2500   42.9910 C   0  0  0  0  0  3  0  0  0  0  0  0
  1  2  1  0  0  0  0
  1  9  1  0  0  0  0
  2  7  1  0  0  0  0
  3  8  1  0  0  0  0
  3  2  2  0  0  0  0
  4  3  1  0  0  0  0
  5  4  2  0  0  0  0
  5  6  1  0  0  0  0
  6  1  2  0  0  0  0
  9 10  1  0  0  0  0
  9 14  1  0  0  0  0
 10 11  1  0  0  0  0
 11 18  1  0  0  0  0
 11 12  1  0  0  0  0
 11 19  1  0  0  0  0
 12 20  1  0  0  0  0
 13 12  1  0  0  0  0
 13 22  1  0  0  0  0
 14 13  1  0  0  0  0
 14 24  1  0  0  0  0
 15  9  1  0  0  0  0
 16 10  1  0  0  0  0
 17 10  1  0  0  0  0
 21 12  1  0  0  0  0
 23 13  1  0  0  0  0
 25 14  1  0  0  0  0
 26  5  1  0  0  0  0
 26 30  2  0  0  0  0
 27 26  1  0  0  0  0
 28 27  2  0  0  0  0
 28 29  1  0  0  0  0
 29 32  1  0  0  0  0
 29 30  1  0  0  0  0
 31 28  1  0  0  0  0
 32 34  1  0  0  0  0
 32 35  1  0  0  0  0
 33 32  1  0  0  0  0
 35 36  2  0  0  0  0
 36 37  1  0  0  0  0
 37 38  1  0  0  0  0
 37 39  1  0  0  0  0
 41 42  1  0  0  0  0
 41 40  1  0  0  0  0
 42 37  1  0  0  0  0
 43 44  1  0  0  0  0
 43 42  2  0  0  0  0
 45 43  1  0  0  0  0
 46 45  1  0  0  0  0
 47 45  2  0  0  0  0
 47 48  1  0  0  0  0
 48 41  2  0  0  0  0
M  END
>  <minimizedAffinity>
-6.69094086

$$$$

 OpenBabel03242519333D

 48 51  0  0  0  0  0  0  0  0999 V2000
   37.9150   26.5720   42.1560 C   0  0  0  0  0  0  0  0  0  0  0  0
   38.9640   26.4170   43.0990 C   0  0  0  0  0  0  0  0  0  0  0  0
   39.7290   27.5270   43.4740 C   0  0  0  0  0  0  0  0  0  0  0  0
   39.4000   28.7200   42.8840 N   0  0  0  0  0  0  0  0  0  0  0  0
   38.3760   28.8190   41.9760 C   0  0  0  0  0  0  0  0  0  0  0  0
   37.6650   27.7600   41.6350 N   0  0  0  0  0  0  0  0  0  0  0  0
   39.2770   25.5030   43.6040 H   0  0  0  0  0  0  0  0  0  0  0  0
   40.5360   27.4600   44.1880 H   0  0  0  0  0  0  0  0  0  0  0  0
   37.1920   25.3310   41.8450 C   0  0  0  0  0  0  0  0  0  0  0  0
   37.9250   24.1160   42.0870 C   0  0  0  0  0  0  0  0  0  0  0  0
   38.2870   23.3410   40.8790 C   0  0  0  0  0  0  0  0  0  0  0  0
   37.0410   23.0200   40.0600 C   0  0  0  0  0  0  0  0  0  0  0  0
   36.0960   24.1700   39.9100 C   0  0  0  0  0  0  0  0  0  0  0  0
   36.7370   25.4760   40.3540 C   0  0  0  0  0  0  0  0  0  0  0  0
   36.2060   25.3800   42.3900 H   0  0  0  0  0  0  0  0  0  0  0  0
   37.3760   23.4420   42.7870 H   0  0  0  0  0  0  0  0  0  0  0  0
   38.8890   24.3430   42.6280 H   0  0  0  0  0  0  0  0  0  0  0  0
   38.6950   22.3480   41.2310 H   0  0  0  0  0  0  0  0  0  0  0  0
   39.0450   23.7480   40.2200 H   0  0  0  0  0  0  0  0  0  0  0  0
   37.2900   22.6110   39.0750 H   0  0  0  0  0  0  0  0  0  0  0  0
   36.4950   22.2070   40.6130 H   0  0  0  0  0  0  0  0  0  0  0  0
   35.7990   24.3370   38.8570 H   0  0  0  0  0  0  0  0  0  0  0  0
   35.1660   24.0550   40.5220 H   0  0  0  0  0  0  0  0  0  0  0  0
   37.6990   25.6140   39.8150 H   0  0  0  0  0  0  0  0  0  0  0  0
   36.0300   26.3020   40.2550 H   0  0  0  0  0  0  0  0  0  0  0  0
   38.1810   30.1680   41.4580 C   0  0  0  0  0  0  0  0  0  0  0  0
   36.9820   30.5140   40.9670 N   0  0  0  0  0  0  0  0  0  0  0  0
   37.0280   31.8060   40.5450 C   0  0  0  0  0  0  0  0  0  0  0  0
   38.2790   32.2450   40.7890 N   0  0  0  0  0  0  0  0  0  0  0  0
   38.9900   31.2530   41.3450 N   0  0  0  0  0  0  0  0  0  0  0  0
   36.2620   32.4150   40.1010 H   0  0  0  0  0  0  0  0  0  0  0  0
   38.8060   33.5640   40.5390 C   0  0  0  0  0  0  0  0  0  0  0  0
   38.5620   34.2970   41.2910 H   0  0  0  0  0  0  0  0  0  0  0  0
   38.3690   33.9400   39.5830 H   0  0  0  0  0  0  0  0  0  0  0  0
   40.2520   33.4810   40.3340 C   0  0  0  0  0  3  0  0  0  0  0  0
   41.2600   34.3220   40.5160 C   0  0  0  0  0  3  0  0  0  0  0  0
   42.7570   34.0150   40.3170 C   0  0  0  0  0  0  0  0  0  0  0  0
   43.0460   34.2900   39.2980 H   0  0  0  0  0  0  0  0  0  0  0  0
   42.8320   32.9350   40.5520 H   0  0  0  0  0  0  0  0  0  0  0  0
   45.4940   33.9270   40.2840 F   0  0  0  0  0  0  0  0  0  0  0  0
   44.9180   34.6980   41.2650 C   0  0  0  0  0  0  0  0  0  0  0  0
   43.5220   34.7710   41.3210 C   0  0  0  0  0  0  0  0  0  0  0  0
   43.0190   35.5760   42.3470 C   0  0  0  0  0  0  0  0  0  0  0  0
   41.9390   35.6260   42.3820 H   0  0  0  0  0  0  0  0  0  0  0  0
   43.8830   36.2200   43.2040 C   0  0  0  0  0  0  0  0  0  0  0  0
   43.4450   36.8440   43.9990 H   0  0  0  0  0  0  0  0  0  0  0  0
   45.2530   36.1310   43.1270 C   0  0  0  0  0  3  0  0  0  0  0  0
   45.7810   35.3370   42.1140 C   0  0  0  0  0  3  0  0  0  0  0  0
  1  2  1  0  0  0  0
  2  3  2  0  0  0  0
  2  7  1  0  0  0  0
  3  8  1  0  0  0  0
  4  3  1  0  0  0  0
  5  4  2  0  0  0  0
  6  5  1  0  0  0  0
  6  1  2  0  0  0  0
  9 10  1  0  0  0  0
  9  1  1  0  0  0  0
  9 15  1  0  0  0  0
 10 17  1  0  0  0  0
 10 16  1  0  0  0  0
 11 18  1  0  0  0  0
 11 10  1  0  0  0  0
 12 21  1  0  0  0  0
 12 11  1  0  0  0  0
 13 12  1  0  0  0  0
 13 14  1  0  0  0  0
 13 23  1  0  0  0  0
 14  9  1  0  0  0  0
 19 11  1  0  0  0  0
 20 12  1  0  0  0  0
 22 13  1  0  0  0  0
 24 14  1  0  0  0  0
 25 14  1  0  0  0  0
 26  5  1  0  0  0  0
 27 26  1  0  0  0  0
 28 29  1  0  0  0  0
 28 27  2  0  0  0  0
 29 30  1  0  0  0  0
 30 26  2  0  0  0  0
 31 28  1  0  0  0  0
 32 29  1  0  0  0  0
 32 33  1  0  0  0  0
 34 32  1  0  0  0  0
 35 36  2  0  0  0  0
 35 32  1  0  0  0  0
 37 36  1  0  0  0  0
 37 39  1  0  0  0  0
 37 42  1  0  0  0  0
 38 37  1  0  0  0  0
 40 41  1  0  0  0  0
 41 42  2  0  0  0  0
 41 48  1  0  0  0  0
 42 43  1  0  0  0  0
 43 44  1  0  0  0  0
 43 45  2  0  0  0  0
 45 46  1  0  0  0  0
 47 45  1  0  0  0  0
 48 47  2  0  0  0  0
M  END
>  <minimizedAffinity>
-6.55167675

$$$$

 OpenBabel03242519333D

 48 51  0  0  0  0  0  0  0  0999 V2000
   40.4680   28.5280   42.9770 C   0  0  0  0  0  0  0  0  0  0  0  0
   41.1230   27.4200   43.5760 C   0  0  0  0  0  0  0  0  0  0  0  0
   42.4410   27.5530   44.0230 C   0  0  0  0  0  0  0  0  0  0  0  0
   43.0250   28.7810   43.8430 N   0  0  0  0  0  0  0  0  0  0  0  0
   42.3490   29.8220   43.2560 C   0  0  0  0  0  0  0  0  0  0  0  0
   41.1050   29.6770   42.8420 N   0  0  0  0  0  0  0  0  0  0  0  0
   40.7200   26.4220   43.7490 H   0  0  0  0  0  0  0  0  0  0  0  0
   42.9820   26.7410   44.4860 H   0  0  0  0  0  0  0  0  0  0  0  0
   39.0890   28.2560   42.5470 C   0  0  0  0  0  0  0  0  0  0  0  0
   38.0770   29.0560   43.1880 C   0  0  0  0  0  0  0  0  0  0  0  0
   37.1620   28.3190   44.0880 C   0  0  0  0  0  0  0  0  0  0  0  0
   36.4940   27.1690   43.3430 C   0  0  0  0  0  0  0  0  0  0  0  0
   37.4240   26.3810   42.4760 C   0  0  0  0  0  0  0  0  0  0  0  0
   38.8770   26.7210   42.7700 C   0  0  0  0  0  0  0  0  0  0  0  0
   39.0760   28.3270   41.4220 H   0  0  0  0  0  0  0  0  0  0  0  0
   37.4650   29.6120   42.4400 H   0  0  0  0  0  0  0  0  0  0  0  0
   38.5570   29.8690   43.8060 H   0  0  0  0  0  0  0  0  0  0  0  0
   36.3330   29.0320   44.3740 H   0  0  0  0  0  0  0  0  0  0  0  0
   37.5590   27.9470   45.0250 H   0  0  0  0  0  0  0  0  0  0  0  0
   35.9550   26.4970   44.0200 H   0  0  0  0  0  0  0  0  0  0  0  0
   35.7190   27.6300   42.6710 H   0  0  0  0  0  0  0  0  0  0  0  0
   37.3420   25.2910   42.6510 H   0  0  0  0  0  0  0  0  0  0  0  0
   37.2730   26.5730   41.3840 H   0  0  0  0  0  0  0  0  0  0  0  0
   39.0690   26.6010   43.8570 H   0  0  0  0  0  0  0  0  0  0  0  0
   39.5430   26.1510   42.1180 H   0  0  0  0  0  0  0  0  0  0  0  0
   43.1360   31.0450   43.1520 C   0  0  0  0  0  0  0  0  0  0  0  0
   44.2500   31.1730   43.8860 N   0  0  0  0  0  0  0  0  0  0  0  0
   44.8180   32.3820   43.6300 C   0  0  0  0  0  0  0  0  0  0  0  0
   44.0290   32.9920   42.7230 N   0  0  0  0  0  0  0  0  0  0  0  0
   43.0000   32.1860   42.4250 N   0  0  0  0  0  0  0  0  0  0  0  0
   45.7110   32.8250   44.0310 H   0  0  0  0  0  0  0  0  0  0  0  0
   44.2310   34.2860   42.1190 C   0  0  0  0  0  0  0  0  0  0  0  0
   44.8980   34.2890   41.2720 H   0  0  0  0  0  0  0  0  0  0  0  0
   44.6910   34.9600   42.8800 H   0  0  0  0  0  0  0  0  0  0  0  0
   42.9360   34.8700   41.7700 C   0  0  0  0  0  3  0  0  0  0  0  0
   42.1940   34.8830   40.6730 C   0  0  0  0  0  3  0  0  0  0  0  0
   40.7880   35.4960   40.5240 C   0  0  0  0  0  0  0  0  0  0  0  0
   40.7670   36.1310   39.6320 H   0  0  0  0  0  0  0  0  0  0  0  0
   40.6360   36.0270   41.4840 H   0  0  0  0  0  0  0  0  0  0  0  0
   38.2450   36.0130   39.6480 F   0  0  0  0  0  0  0  0  0  0  0  0
   38.5260   34.7090   39.9780 C   0  0  0  0  0  0  0  0  0  0  0  0
   39.8130   34.3990   40.4310 C   0  0  0  0  0  0  0  0  0  0  0  0
   40.0130   33.0510   40.7430 C   0  0  0  0  0  0  0  0  0  0  0  0
   41.0100   32.8210   41.0930 H   0  0  0  0  0  0  0  0  0  0  0  0
   38.9840   32.1480   40.5960 C   0  0  0  0  0  0  0  0  0  0  0  0
   39.1840   31.0960   40.8530 H   0  0  0  0  0  0  0  0  0  0  0  0
   37.7270   32.4800   40.1470 C   0  0  0  0  0  3  0  0  0  0  0  0
   37.4990   33.8150   39.8290 C   0  0  0  0  0  3  0  0  0  0  0  0
  1  2  1  0  0  0  0
  2  7  1  0  0  0  0
  2  3  2  0  0  0  0
  3  8  1  0  0  0  0
  4  3  1  0  0  0  0
  5  4  2  0  0  0  0
  6  1  2  0  0  0  0
  6  5  1  0  0  0  0
  9 14  1  0  0  0  0
  9  1  1  0  0  0  0
  9 10  1  0  0  0  0
 10 17  1  0  0  0  0
 10 11  1  0  0  0  0
 11 18  1  0  0  0  0
 11 19  1  0  0  0  0
 12 20  1  0  0  0  0
 12 11  1  0  0  0  0
 13 22  1  0  0  0  0
 13 14  1  0  0  0  0
 13 12  1  0  0  0  0
 14 24  1  0  0  0  0
 15  9  1  0  0  0  0
 16 10  1  0  0  0  0
 21 12  1  0  0  0  0
 23 13  1  0  0  0  0
 25 14  1  0  0  0  0
 26  5  1  0  0  0  0
 26 27  1  0  0  0  0
 28 27  2  0  0  0  0
 28 31  1  0  0  0  0
 29 28  1  0  0  0  0
 30 29  1  0  0  0  0
 30 26  2  0  0  0  0
 32 29  1  0  0  0  0
 32 34  1  0  0  0  0
 33 32  1  0  0  0  0
 35 32  1  0  0  0  0
 36 35  2  0  0  0  0
 37 36  1  0  0  0  0
 37 39  1  0  0  0  0
 38 37  1  0  0  0  0
 40 41  1  0  0  0  0
 41 42  1  0  0  0  0
 42 37  1  0  0  0  0
 42 43  2  0  0  0  0
 43 44  1  0  0  0  0
 45 43  1  0  0  0  0
 45 46  1  0  0  0  0
 47 45  2  0  0  0  0
 48 41  2  0  0  0  0
 48 47  1  0  0  0  0
M  END
>  <minimizedAffinity>
-6.43789005

$$$$

 OpenBabel03242519333D

 48 51  0  0  0  0  0  0  0  0999 V2000
   37.1520   30.2300   40.9840 C   0  0  0  0  0  0  0  0  0  0  0  0
   37.5600   31.5900   40.9550 C   0  0  0  0  0  0  0  0  0  0  0  0
   37.4800   32.3110   39.7590 C   0  0  0  0  0  0  0  0  0  0  0  0
   37.0000   31.6330   38.6690 N   0  0  0  0  0  0  0  0  0  0  0  0
   36.6190   30.3170   38.7480 C   0  0  0  0  0  0  0  0  0  0  0  0
   36.7010   29.6530   39.8850 N   0  0  0  0  0  0  0  0  0  0  0  0
   37.9480   32.1870   41.7800 H   0  0  0  0  0  0  0  0  0  0  0  0
   37.7770   33.3470   39.6860 H   0  0  0  0  0  0  0  0  0  0  0  0
   37.2890   29.5850   42.2980 C   0  0  0  0  0  0  0  0  0  0  0  0
   38.6210   29.5820   42.8440 C   0  0  0  0  0  0  0  0  0  0  0  0
   39.2630   28.2510   42.9430 C   0  0  0  0  0  0  0  0  0  0  0  0
   38.3880   27.2970   43.7490 C   0  0  0  0  0  0  0  0  0  0  0  0
   36.9340   27.3600   43.4000 C   0  0  0  0  0  0  0  0  0  0  0  0
   36.7050   28.1440   42.1170 C   0  0  0  0  0  0  0  0  0  0  0  0
   36.5230   30.0580   42.9770 H   0  0  0  0  0  0  0  0  0  0  0  0
   38.6490   30.0620   43.8500 H   0  0  0  0  0  0  0  0  0  0  0  0
   39.3020   30.2250   42.2150 H   0  0  0  0  0  0  0  0  0  0  0  0
   40.2130   28.3850   43.5390 H   0  0  0  0  0  0  0  0  0  0  0  0
   39.5640   27.7610   42.0240 H   0  0  0  0  0  0  0  0  0  0  0  0
   38.7420   26.2620   43.6860 H   0  0  0  0  0  0  0  0  0  0  0  0
   38.4890   27.6030   44.8260 H   0  0  0  0  0  0  0  0  0  0  0  0
   36.5020   26.3590   43.2080 H   0  0  0  0  0  0  0  0  0  0  0  0
   36.3170   27.8620   44.1870 H   0  0  0  0  0  0  0  0  0  0  0  0
   37.3400   27.7200   41.3100 H   0  0  0  0  0  0  0  0  0  0  0  0
   35.6390   28.1960   41.8850 H   0  0  0  0  0  0  0  0  0  0  0  0
   36.1380   29.7690   37.4850 C   0  0  0  0  0  0  0  0  0  0  0  0
   36.9480   29.7760   36.4170 N   0  0  0  0  0  0  0  0  0  0  0  0
   36.2980   29.2210   35.3590 C   0  0  0  0  0  0  0  0  0  0  0  0
   35.0730   28.8730   35.8010 N   0  0  0  0  0  0  0  0  0  0  0  0
   34.9650   29.2040   37.0960 N   0  0  0  0  0  0  0  0  0  0  0  0
   36.6320   29.0600   34.3500 H   0  0  0  0  0  0  0  0  0  0  0  0
   34.0270   28.2230   35.0520 C   0  0  0  0  0  0  0  0  0  0  0  0
   33.7240   27.2630   35.4400 H   0  0  0  0  0  0  0  0  0  0  0  0
   34.4000   28.0370   34.0170 H   0  0  0  0  0  0  0  0  0  0  0  0
   32.8810   29.1250   34.9290 C   0  0  0  0  0  3  0  0  0  0  0  0
   31.6100   28.9620   34.5930 C   0  0  0  0  0  3  0  0  0  0  0  0
   30.5140   30.0460   34.6020 C   0  0  0  0  0  0  0  0  0  0  0  0
   29.7050   29.7410   33.9300 H   0  0  0  0  0  0  0  0  0  0  0  0
   31.0570   30.9630   34.3010 H   0  0  0  0  0  0  0  0  0  0  0  0
   30.8020   32.4640   35.8530 F   0  0  0  0  0  0  0  0  0  0  0  0
   30.2050   31.4650   36.5840 C   0  0  0  0  0  0  0  0  0  0  0  0
   30.0380   30.2110   35.9850 C   0  0  0  0  0  0  0  0  0  0  0  0
   29.4240   29.2530   36.7950 C   0  0  0  0  0  0  0  0  0  0  0  0
   29.2990   28.2880   36.3240 H   0  0  0  0  0  0  0  0  0  0  0  0
   29.0350   29.5790   38.0760 C   0  0  0  0  0  0  0  0  0  0  0  0
   28.5540   28.7950   38.6810 H   0  0  0  0  0  0  0  0  0  0  0  0
   29.2110   30.8210   38.6400 C   0  0  0  0  0  3  0  0  0  0  0  0
   29.8210   31.7940   37.8550 C   0  0  0  0  0  3  0  0  0  0  0  0
  1  9  1  0  0  0  0
  2  1  1  0  0  0  0
  2  7  1  0  0  0  0
  3  2  2  0  0  0  0
  4  5  2  0  0  0  0
  4  3  1  0  0  0  0
  5  6  1  0  0  0  0
  6  1  2  0  0  0  0
  8  3  1  0  0  0  0
  9 10  1  0  0  0  0
  9 15  1  0  0  0  0
 10 11  1  0  0  0  0
 10 16  1  0  0  0  0
 11 18  1  0  0  0  0
 11 12  1  0  0  0  0
 12 21  1  0  0  0  0
 13 12  1  0  0  0  0
 13 23  1  0  0  0  0
 14  9  1  0  0  0  0
 14 13  1  0  0  0  0
 17 10  1  0  0  0  0
 19 11  1  0  0  0  0
 20 12  1  0  0  0  0
 22 13  1  0  0  0  0
 24 14  1  0  0  0  0
 25 14  1  0  0  0  0
 26  5  1  0  0  0  0
 27 26  1  0  0  0  0
 28 29  1  0  0  0  0
 28 27  2  0  0  0  0
 29 30  1  0  0  0  0
 30 26  2  0  0  0  0
 31 28  1  0  0  0  0
 32 33  1  0  0  0  0
 32 29  1  0  0  0  0
 34 32  1  0  0  0  0
 35 32  1  0  0  0  0
 36 37  1  0  0  0  0
 36 35  2  0  0  0  0
 37 42  1  0  0  0  0
 38 37  1  0  0  0  0
 39 37  1  0  0  0  0
 40 41  1  0  0  0  0
 41 48  1  0  0  0  0
 42 41  2  0  0  0  0
 42 43  1  0  0  0  0
 43 45  2  0  0  0  0
 44 43  1  0  0  0  0
 45 47  1  0  0  0  0
 45 46  1  0  0  0  0
 48 47  2  0  0  0  0
M  END
>  <minimizedAffinity>
-6.32405615

$$$$

 OpenBabel03242519333D

 48 51  0  0  0  0  0  0  0  0999 V2000
   37.2730   30.1200   41.0810 C   0  0  0  0  0  0  0  0  0  0  0  0
   36.5660   29.8730   39.8750 C   0  0  0  0  0  0  0  0  0  0  0  0
   36.5980   30.8210   38.8470 C   0  0  0  0  0  0  0  0  0  0  0  0
   37.3300   31.9550   39.0870 N   0  0  0  0  0  0  0  0  0  0  0  0
   37.9950   32.1480   40.2710 C   0  0  0  0  0  0  0  0  0  0  0  0
   37.9550   31.2410   41.2290 N   0  0  0  0  0  0  0  0  0  0  0  0
   35.9680   28.9980   39.6200 H   0  0  0  0  0  0  0  0  0  0  0  0
   36.0780   30.6790   37.9110 H   0  0  0  0  0  0  0  0  0  0  0  0
   37.1560   29.0490   42.0810 C   0  0  0  0  0  0  0  0  0  0  0  0
   38.1180   29.1010   43.1520 C   0  0  0  0  0  0  0  0  0  0  0  0
   39.1100   28.0020   43.1670 C   0  0  0  0  0  0  0  0  0  0  0  0
   38.4050   26.6490   43.1910 C   0  0  0  0  0  0  0  0  0  0  0  0
   37.2470   26.5470   42.2490 C   0  0  0  0  0  0  0  0  0  0  0  0
   37.2250   27.7120   41.2710 C   0  0  0  0  0  0  0  0  0  0  0  0
   36.0850   29.0460   42.4350 H   0  0  0  0  0  0  0  0  0  0  0  0
   37.6170   29.1370   44.1470 H   0  0  0  0  0  0  0  0  0  0  0  0
   38.7020   30.0650   43.1050 H   0  0  0  0  0  0  0  0  0  0  0  0
   39.6750   28.0790   44.1420 H   0  0  0  0  0  0  0  0  0  0  0  0
   39.8680   27.9890   42.3930 H   0  0  0  0  0  0  0  0  0  0  0  0
   39.1000   25.8210   43.0190 H   0  0  0  0  0  0  0  0  0  0  0  0
   38.0040   26.5160   44.2330 H   0  0  0  0  0  0  0  0  0  0  0  0
   37.2950   25.6400   41.6180 H   0  0  0  0  0  0  0  0  0  0  0  0
   36.2570   26.5590   42.7710 H   0  0  0  0  0  0  0  0  0  0  0  0
   38.2100   27.7820   40.7620 H   0  0  0  0  0  0  0  0  0  0  0  0
   36.3650   27.6330   40.6020 H   0  0  0  0  0  0  0  0  0  0  0  0
   38.7160   33.4140   40.3390 C   0  0  0  0  0  0  0  0  0  0  0  0
   38.0900   34.5440   39.9820 N   0  0  0  0  0  0  0  0  0  0  0  0
   38.9450   35.5920   40.1240 C   0  0  0  0  0  0  0  0  0  0  0  0
   40.1070   35.0810   40.5760 N   0  0  0  0  0  0  0  0  0  0  0  0
   39.9790   33.7530   40.7100 N   0  0  0  0  0  0  0  0  0  0  0  0
   38.7920   36.6390   39.9340 H   0  0  0  0  0  0  0  0  0  0  0  0
   41.3100   35.8050   40.9060 C   0  0  0  0  0  0  0  0  0  0  0  0
   41.2460   36.4030   41.8010 H   0  0  0  0  0  0  0  0  0  0  0  0
   41.5330   36.5130   40.0720 H   0  0  0  0  0  0  0  0  0  0  0  0
   42.4370   34.8730   40.9760 C   0  0  0  0  0  3  0  0  0  0  0  0
   43.4470   34.7070   41.8170 C   0  0  0  0  0  3  0  0  0  0  0  0
   44.5090   33.5920   41.7650 C   0  0  0  0  0  0  0  0  0  0  0  0
   45.4980   34.0450   41.6500 H   0  0  0  0  0  0  0  0  0  0  0  0
   44.1780   32.9600   40.9180 H   0  0  0  0  0  0  0  0  0  0  0  0
   42.6870   31.5550   41.9400 F   0  0  0  0  0  0  0  0  0  0  0  0
   43.4690   31.7730   43.0490 C   0  0  0  0  0  0  0  0  0  0  0  0
   44.4140   32.8050   43.0050 C   0  0  0  0  0  0  0  0  0  0  0  0
   45.1660   32.9590   44.1720 C   0  0  0  0  0  0  0  0  0  0  0  0
   45.8930   33.7580   44.1290 H   0  0  0  0  0  0  0  0  0  0  0  0
   44.9480   32.1280   45.2490 C   0  0  0  0  0  0  0  0  0  0  0  0
   45.5630   32.2830   46.1490 H   0  0  0  0  0  0  0  0  0  0  0  0
   44.0120   31.1200   45.2650 C   0  0  0  0  0  3  0  0  0  0  0  0
   43.2490   30.9440   44.1160 C   0  0  0  0  0  3  0  0  0  0  0  0
  1  6  1  0  0  0  0
  1  9  1  0  0  0  0
  2  1  2  0  0  0  0
  3  4  2  0  0  0  0
  3  2  1  0  0  0  0
  4  5  1  0  0  0  0
  5 26  1  0  0  0  0
  5  6  2  0  0  0  0
  7  2  1  0  0  0  0
  8  3  1  0  0  0  0
  9 15  1  0  0  0  0
  9 10  1  0  0  0  0
 10 11  1  0  0  0  0
 10 16  1  0  0  0  0
 11 12  1  0  0  0  0
 11 18  1  0  0  0  0
 12 21  1  0  0  0  0
 13 23  1  0  0  0  0
 13 12  1  0  0  0  0
 14  9  1  0  0  0  0
 14 13  1  0  0  0  0
 17 10  1  0  0  0  0
 19 11  1  0  0  0  0
 20 12  1  0  0  0  0
 22 13  1  0  0  0  0
 24 14  1  0  0  0  0
 25 14  1  0  0  0  0
 26 30  2  0  0  0  0
 27 28  2  0  0  0  0
 27 26  1  0  0  0  0
 28 29  1  0  0  0  0
 29 30  1  0  0  0  0
 29 32  1  0  0  0  0
 31 28  1  0  0  0  0
 32 35  1  0  0  0  0
 32 33  1  0  0  0  0
 34 32  1  0  0  0  0
 35 36  2  0  0  0  0
 37 36  1  0  0  0  0
 37 42  1  0  0  0  0
 38 37  1  0  0  0  0
 39 37  1  0  0  0  0
 40 41  1  0  0  0  0
 41 48  1  0  0  0  0
 42 41  2  0  0  0  0
 42 43  1  0  0  0  0
 43 45  2  0  0  0  0
 44 43  1  0  0  0  0
 45 47  1  0  0  0  0
 45 46  1  0  0  0  0
 48 47  2  0  0  0  0
M  END
>  <minimizedAffinity>
-6.32296467

$$$$

 OpenBabel03242519333D

 48 51  0  0  0  0  0  0  0  0999 V2000
   40.4490   28.0290   43.2740 C   0  0  0  0  0  0  0  0  0  0  0  0
   41.6400   27.3970   43.7160 C   0  0  0  0  0  0  0  0  0  0  0  0
   42.8640   28.0630   43.5910 C   0  0  0  0  0  0  0  0  0  0  0  0
   42.8230   29.3140   43.0330 N   0  0  0  0  0  0  0  0  0  0  0  0
   41.6440   29.8820   42.6200 C   0  0  0  0  0  0  0  0  0  0  0  0
   40.4990   29.2390   42.7470 N   0  0  0  0  0  0  0  0  0  0  0  0
   41.7440   26.4100   44.1670 H   0  0  0  0  0  0  0  0  0  0  0  0
   43.7980   27.6250   43.9130 H   0  0  0  0  0  0  0  0  0  0  0  0
   39.2320   27.2240   43.4580 C   0  0  0  0  0  0  0  0  0  0  0  0
   39.0330   26.1820   42.4830 C   0  0  0  0  0  0  0  0  0  0  0  0
   37.8820   26.3760   41.5730 C   0  0  0  0  0  0  0  0  0  0  0  0
   36.5980   26.5680   42.3730 C   0  0  0  0  0  0  0  0  0  0  0  0
   36.7390   27.4870   43.5450 C   0  0  0  0  0  0  0  0  0  0  0  0
   38.0530   28.2520   43.4940 C   0  0  0  0  0  0  0  0  0  0  0  0
   39.2430   26.8510   44.5220 H   0  0  0  0  0  0  0  0  0  0  0  0
   38.9330   25.1840   42.9700 H   0  0  0  0  0  0  0  0  0  0  0  0
   39.9490   26.0770   41.8320 H   0  0  0  0  0  0  0  0  0  0  0  0
   37.7510   25.4150   40.9940 H   0  0  0  0  0  0  0  0  0  0  0  0
   37.9500   27.1580   40.8260 H   0  0  0  0  0  0  0  0  0  0  0  0
   35.7650   26.8940   41.7410 H   0  0  0  0  0  0  0  0  0  0  0  0
   36.3160   25.5550   42.7720 H   0  0  0  0  0  0  0  0  0  0  0  0
   35.9530   28.2650   43.5690 H   0  0  0  0  0  0  0  0  0  0  0  0
   36.7300   26.9490   44.5260 H   0  0  0  0  0  0  0  0  0  0  0  0
   38.1410   28.7630   42.5120 H   0  0  0  0  0  0  0  0  0  0  0  0
   38.1500   28.9050   44.3640 H   0  0  0  0  0  0  0  0  0  0  0  0
   41.8040   31.2150   42.0510 C   0  0  0  0  0  0  0  0  0  0  0  0
   42.8910   31.9350   42.3630 N   0  0  0  0  0  0  0  0  0  0  0  0
   42.8310   33.1340   41.7250 C   0  0  0  0  0  0  0  0  0  0  0  0
   41.6860   33.1340   41.0140 N   0  0  0  0  0  0  0  0  0  0  0  0
   41.0510   31.9680   41.2070 N   0  0  0  0  0  0  0  0  0  0  0  0
   43.5200   33.9590   41.7380 H   0  0  0  0  0  0  0  0  0  0  0  0
   41.1940   34.1780   40.1500 C   0  0  0  0  0  0  0  0  0  0  0  0
   41.8350   34.4130   39.3150 H   0  0  0  0  0  0  0  0  0  0  0  0
   41.1050   35.1160   40.7490 H   0  0  0  0  0  0  0  0  0  0  0  0
   39.8430   33.8420   39.6980 C   0  0  0  0  0  3  0  0  0  0  0  0
   38.6300   34.0310   40.1940 C   0  0  0  0  0  3  0  0  0  0  0  0
   37.2950   33.6700   39.5140 C   0  0  0  0  0  0  0  0  0  0  0  0
   37.3240   34.0000   38.4710 H   0  0  0  0  0  0  0  0  0  0  0  0
   36.5390   34.1750   40.1470 H   0  0  0  0  0  0  0  0  0  0  0  0
   37.4750   32.1170   37.2670 F   0  0  0  0  0  0  0  0  0  0  0  0
   37.2040   31.4610   38.4440 C   0  0  0  0  0  0  0  0  0  0  0  0
   37.1020   32.2150   39.6180 C   0  0  0  0  0  0  0  0  0  0  0  0
   36.8250   31.4710   40.7680 C   0  0  0  0  0  0  0  0  0  0  0  0
   36.7480   32.0620   41.6710 H   0  0  0  0  0  0  0  0  0  0  0  0
   36.6760   30.1050   40.6870 C   0  0  0  0  0  0  0  0  0  0  0  0
   36.4590   29.5570   41.6170 H   0  0  0  0  0  0  0  0  0  0  0  0
   36.7820   29.3870   39.5190 C   0  0  0  0  0  3  0  0  0  0  0  0
   37.0560   30.1030   38.3580 C   0  0  0  0  0  3  0  0  0  0  0  0
  1  9  1  0  0  0  0
  1  2  1  0  0  0  0
  2  7  1  0  0  0  0
  3  2  2  0  0  0  0
  3  8  1  0  0  0  0
  4  3  1  0  0  0  0
  5  6  1  0  0  0  0
  5  4  2  0  0  0  0
  6  1  2  0  0  0  0
  9 14  1  0  0  0  0
  9 15  1  0  0  0  0
 10 16  1  0  0  0  0
 10  9  1  0  0  0  0
 11 12  1  0  0  0  0
 11 10  1  0  0  0  0
 12 21  1  0  0  0  0
 12 13  1  0  0  0  0
 13 22  1  0  0  0  0
 13 23  1  0  0  0  0
 14 13  1  0  0  0  0
 14 25  1  0  0  0  0
 17 10  1  0  0  0  0
 18 11  1  0  0  0  0
 19 11  1  0  0  0  0
 20 12  1  0  0  0  0
 24 14  1  0  0  0  0
 26 27  1  0  0  0  0
 26  5  1  0  0  0  0
 28 31  1  0  0  0  0
 28 27  2  0  0  0  0
 29 30  1  0  0  0  0
 29 28  1  0  0  0  0
 30 26  2  0  0  0  0
 32 34  1  0  0  0  0
 32 29  1  0  0  0  0
 33 32  1  0  0  0  0
 35 32  1  0  0  0  0
 35 36  2  0  0  0  0
 37 42  1  0  0  0  0
 37 39  1  0  0  0  0
 37 36  1  0  0  0  0
 38 37  1  0  0  0  0
 40 41  1  0  0  0  0
 41 42  1  0  0  0  0
 42 43  2  0  0  0  0
 43 44  1  0  0  0  0
 45 43  1  0  0  0  0
 45 46  1  0  0  0  0
 47 45  2  0  0  0  0
 48 41  2  0  0  0  0
 48 47  1  0  0  0  0
M  END
>  <minimizedAffinity>
-6.32167482

$$$$

 OpenBabel03242519333D

 48 51  0  0  0  0  0  0  0  0999 V2000
   37.7350   32.0190   40.0540 C   0  0  0  0  0  0  0  0  0  0  0  0
   37.6800   33.4270   39.8760 C   0  0  0  0  0  0  0  0  0  0  0  0
   38.7870   34.2120   40.2140 C   0  0  0  0  0  0  0  0  0  0  0  0
   39.8780   33.5450   40.7110 N   0  0  0  0  0  0  0  0  0  0  0  0
   39.8820   32.1820   40.8650 C   0  0  0  0  0  0  0  0  0  0  0  0
   38.8280   31.4580   40.5390 N   0  0  0  0  0  0  0  0  0  0  0  0
   36.8490   34.0170   39.4890 H   0  0  0  0  0  0  0  0  0  0  0  0
   38.7940   35.2850   40.0960 H   0  0  0  0  0  0  0  0  0  0  0  0
   36.5070   31.3110   39.6650 C   0  0  0  0  0  0  0  0  0  0  0  0
   35.8880   30.5360   40.7090 C   0  0  0  0  0  0  0  0  0  0  0  0
   35.9200   29.0690   40.5140 C   0  0  0  0  0  0  0  0  0  0  0  0
   35.2940   28.6960   39.1740 C   0  0  0  0  0  0  0  0  0  0  0  0
   35.7170   29.5720   38.0380 C   0  0  0  0  0  0  0  0  0  0  0  0
   36.9020   30.4450   38.4220 C   0  0  0  0  0  0  0  0  0  0  0  0
   35.8210   32.0750   39.2010 H   0  0  0  0  0  0  0  0  0  0  0  0
   34.8300   30.8470   40.8720 H   0  0  0  0  0  0  0  0  0  0  0  0
   36.3890   30.7440   41.6980 H   0  0  0  0  0  0  0  0  0  0  0  0
   35.2560   28.6150   41.3080 H   0  0  0  0  0  0  0  0  0  0  0  0
   36.8730   28.5630   40.6090 H   0  0  0  0  0  0  0  0  0  0  0  0
   35.4650   27.6450   38.9190 H   0  0  0  0  0  0  0  0  0  0  0  0
   34.1830   28.8170   39.2960 H   0  0  0  0  0  0  0  0  0  0  0  0
   36.0590   28.9910   37.1610 H   0  0  0  0  0  0  0  0  0  0  0  0
   34.9110   30.2720   37.7020 H   0  0  0  0  0  0  0  0  0  0  0  0
   37.7170   29.8020   38.8180 H   0  0  0  0  0  0  0  0  0  0  0  0
   37.1880   31.0910   37.5890 H   0  0  0  0  0  0  0  0  0  0  0  0
   41.1300   31.6580   41.4080 C   0  0  0  0  0  0  0  0  0  0  0  0
   42.2100   32.4510   41.4510 N   0  0  0  0  0  0  0  0  0  0  0  0
   43.2490   31.7600   41.9910 C   0  0  0  0  0  0  0  0  0  0  0  0
   42.7840   30.5280   42.2790 N   0  0  0  0  0  0  0  0  0  0  0  0
   41.4920   30.4550   41.9270 N   0  0  0  0  0  0  0  0  0  0  0  0
   44.2610   32.0710   42.1800 H   0  0  0  0  0  0  0  0  0  0  0  0
   43.5080   29.4430   42.8930 C   0  0  0  0  0  0  0  0  0  0  0  0
   44.3170   29.7460   43.5370 H   0  0  0  0  0  0  0  0  0  0  0  0
   43.9680   28.8270   42.0830 H   0  0  0  0  0  0  0  0  0  0  0  0
   42.5700   28.5700   43.6010 C   0  0  0  0  0  3  0  0  0  0  0  0
   42.1610   27.3220   43.4280 C   0  0  0  0  0  3  0  0  0  0  0  0
   41.2090   26.5340   44.3490 C   0  0  0  0  0  0  0  0  0  0  0  0
   41.1340   27.0500   45.3110 H   0  0  0  0  0  0  0  0  0  0  0  0
   41.6660   25.5260   44.3890 H   0  0  0  0  0  0  0  0  0  0  0  0
   40.5230   24.2200   43.0550 F   0  0  0  0  0  0  0  0  0  0  0  0
   39.5920   25.2310   43.0360 C   0  0  0  0  0  0  0  0  0  0  0  0
   39.9010   26.4320   43.6840 C   0  0  0  0  0  0  0  0  0  0  0  0
   38.9000   27.4050   43.6160 C   0  0  0  0  0  0  0  0  0  0  0  0
   39.1470   28.3300   44.1200 H   0  0  0  0  0  0  0  0  0  0  0  0
   37.7250   27.1420   42.9490 C   0  0  0  0  0  0  0  0  0  0  0  0
   36.9620   27.9360   42.9200 H   0  0  0  0  0  0  0  0  0  0  0  0
   37.4470   25.9510   42.3210 C   0  0  0  0  0  3  0  0  0  0  0  0
   38.4260   24.9640   42.3720 C   0  0  0  0  0  3  0  0  0  0  0  0
  1  6  1  0  0  0  0
  2  1  2  0  0  0  0
  2  3  1  0  0  0  0
  3  4  2  0  0  0  0
  4  5  1  0  0  0  0
  5 26  1  0  0  0  0
  6  5  2  0  0  0  0
  7  2  1  0  0  0  0
  8  3  1  0  0  0  0
  9  1  1  0  0  0  0
  9 10  1  0  0  0  0
 10 16  1  0  0  0  0
 10 17  1  0  0  0  0
 11 19  1  0  0  0  0
 11 10  1  0  0  0  0
 11 18  1  0  0  0  0
 12 21  1  0  0  0  0
 12 11  1  0  0  0  0
 13 14  1  0  0  0  0
 13 12  1  0  0  0  0
 14 24  1  0  0  0  0
 14  9  1  0  0  0  0
 15  9  1  0  0  0  0
 20 12  1  0  0  0  0
 22 13  1  0  0  0  0
 23 13  1  0  0  0  0
 25 14  1  0  0  0  0
 26 27  1  0  0  0  0
 26 30  2  0  0  0  0
 27 28  2  0  0  0  0
 28 31  1  0  0  0  0
 28 29  1  0  0  0  0
 29 32  1  0  0  0  0
 30 29  1  0  0  0  0
 32 33  1  0  0  0  0
 32 35  1  0  0  0  0
 34 32  1  0  0  0  0
 36 35  2  0  0  0  0
 36 37  1  0  0  0  0
 37 39  1  0  0  0  0
 37 38  1  0  0  0  0
 41 40  1  0  0  0  0
 41 42  1  0  0  0  0
 42 37  1  0  0  0  0
 43 42  2  0  0  0  0
 43 44  1  0  0  0  0
 45 43  1  0  0  0  0
 46 45  1  0  0  0  0
 47 48  1  0  0  0  0
 47 45  2  0  0  0  0
 48 41  2  0  0  0  0
M  END
>  <minimizedAffinity>
-6.26797628

$$$$
