
     RDKit          3D

 26 27  0  0  0  0  0  0  0  0999 V2000
   47.2815   34.2045   43.2799 C   0  0  0  0  0  0  0  0  0  0  0  0
   46.6168   35.1846   42.5574 C   0  0  0  0  0  0  0  0  0  0  0  0
   45.3640   35.6362   43.0346 C   0  0  0  0  0  0  0  0  0  0  0  0
   44.8841   35.0769   44.1827 N   0  0  0  0  0  0  0  0  0  0  0  0
   45.5682   34.1322   44.8426 C   0  0  0  0  0  0  0  0  0  0  0  0
   46.7458   33.6942   44.4116 N   0  0  0  0  0  0  0  0  0  0  0  0
   48.5694   33.6604   42.8665 C   0  0  0  0  0  0  0  0  0  0  0  0
   49.5042   34.8079   42.5867 C   0  0  0  0  0  0  0  0  0  0  0  0
   47.0481   35.5896   41.6544 H   0  0  0  0  0  0  0  0  0  0  0  0
   44.8596   36.3966   42.4636 H   0  0  0  0  0  0  0  0  0  0  0  0
   45.1114   33.7406   45.7497 H   0  0  0  0  0  0  0  0  0  0  0  0
   49.0165   32.9877   43.6171 H   0  0  0  0  0  0  0  0  0  0  0  0
   48.3838   33.1092   41.8957 H   0  0  0  0  0  0  0  0  0  0  0  0
   49.1150   35.4900   41.8191 H   0  0  0  0  0  0  0  0  0  0  0  0
   49.6699   35.4247   43.4926 H   0  0  0  0  0  0  0  0  0  0  0  0
   49.9085   32.1333   43.0326 F   0  0  0  0  0  0  0  0  0  0  0  0
   50.8944   32.8450   42.4434 C   0  0  0  0  0  0  0  0  0  0  0  0
   50.8114   34.1917   42.1669 C   0  0  0  0  0  0  0  0  0  0  0  0
   51.8348   34.8970   41.5632 C   0  0  0  0  0  0  0  0  0  0  0  0
   51.6896   35.9545   41.3811 H   0  0  0  0  0  0  0  0  0  0  0  0
   52.9742   34.1911   41.2368 C   0  0  0  0  0  0  0  0  0  0  0  0
   53.8021   34.7301   40.7557 H   0  0  0  0  0  0  0  0  0  0  0  0
   53.0893   32.8449   41.4993 C   0  0  0  0  0  0  0  0  0  0  0  0
   52.0540   32.1451   42.1069 C   0  0  0  0  0  0  0  0  0  0  0  0
   53.9947   32.2821   41.2403 H   0  0  0  0  0  0  0  0  0  0  0  0
   52.1928   31.0728   42.2957 H   0  0  0  0  0  0  0  0  0  0  0  0
  1  6  2  0
  2  3  2  0
  2  1  1  0
  3  4  1  0
  4  5  2  0
  6  5  1  0
  7  1  1  0
  8  7  1  0
  2  9  1  0
  3 10  1  0
  5 11  1  0
  7 12  1  0
  7 13  1  0
  8 14  1  0
  8 15  1  0
 16 17  1  0
 17 18  2  0
 18 19  1  0
 19 20  1  0
 19 21  2  0
 21 22  1  0
 21 23  1  0
 23 24  2  0
 24 17  1  0
 23 25  1  0
 24 26  1  0
  8 18  1  0
M  ISO  8   9  14  10  14  11  14  12   8  13   8  14   8  15   8  20  15
M  ISO  1  22  16
M  END
>  <DihAtoms>  (1) 
6,7,17,16

>  <DihDeg>  (1) 
76.03415048129375

$$$$
