
 OpenBabel03242518013D

 37 39  0  0  0  0  0  0  0  0999 V2000
   46.3510   31.6070   45.6600 C   0  0  0  0  0  0  0  0  0  0  0  0
   45.3350   31.9150   45.9610 H   0  0  0  0  0  0  0  0  0  0  0  0
   46.2090   30.5960   45.1820 H   0  0  0  0  0  0  0  0  0  0  0  0
   47.3480   32.3950   47.7970 C   0  0  0  0  0  0  0  0  0  0  0  0
   47.2480   31.4220   46.7860 C   0  0  0  0  0  0  0  0  0  0  0  0
   48.0510   30.2940   46.9340 C   0  0  0  0  0  0  0  0  0  0  0  0
   48.8630   30.1850   48.0050 N   0  0  0  0  0  0  0  0  0  0  0  0
   48.9400   31.1270   48.9550 C   0  0  0  0  0  0  0  0  0  0  0  0
   48.1890   32.2130   48.8420 N   0  0  0  0  0  0  0  0  0  0  0  0
   46.7670   33.3080   47.7740 H   0  0  0  0  0  0  0  0  0  0  0  0
   48.0220   29.5110   46.1960 H   0  0  0  0  0  0  0  0  0  0  0  0
   50.7140   33.1220   49.9170 F   0  0  0  0  0  0  0  0  0  0  0  0
   50.7040   31.9020   50.4940 C   0  0  0  0  0  0  0  0  0  0  0  0
   49.8600   30.8910   50.0660 C   0  0  0  0  0  0  0  0  0  0  0  0
   49.8630   29.6480   50.6690 C   0  0  0  0  0  0  0  0  0  0  0  0
   49.2010   28.8360   50.3430 H   0  0  0  0  0  0  0  0  0  0  0  0
   50.7200   29.3620   51.7370 C   0  0  0  0  0  0  0  0  0  0  0  0
   50.7710   28.4120   52.2520 H   0  0  0  0  0  0  0  0  0  0  0  0
   51.5230   30.4070   52.1050 C   0  0  0  0  0  0  0  0  0  0  0  0
   51.5820   31.6710   51.5590 C   0  0  0  0  0  0  0  0  0  0  0  0
   47.0150   32.5670   44.6950 C   0  0  0  0  0  0  0  0  0  0  0  0
   47.2630   31.9830   43.7840 H   0  0  0  0  0  0  0  0  0  0  0  0
   48.0230   32.9090   45.0750 H   0  0  0  0  0  0  0  0  0  0  0  0
   46.4670   34.4700   43.2390 C   0  0  0  0  0  0  0  0  0  0  0  0
   46.2550   33.7860   44.4210 C   0  0  0  0  0  0  0  0  0  0  0  0
   45.3510   34.1950   45.3630 C   0  0  0  0  0  0  0  0  0  0  0  0
   44.6170   35.3380   45.1280 C   0  0  0  0  0  0  0  0  0  0  0  0
   44.7640   36.0750   43.9870 C   0  0  0  0  0  0  0  0  0  0  0  0
   45.7010   35.6060   43.0650 C   0  0  0  0  0  0  0  0  0  0  0  0
   45.1160   33.7430   46.3090 H   0  0  0  0  0  0  0  0  0  0  0  0
   43.8750   35.7390   45.8190 H   0  0  0  0  0  0  0  0  0  0  0  0
   44.2230   36.9790   43.7360 H   0  0  0  0  0  0  0  0  0  0  0  0
   45.8360   36.1770   42.1440 H   0  0  0  0  0  0  0  0  0  0  0  0
   47.6150   33.9890   42.0090 S   0  0  0  0  0  0  0  0  0  0  0  0
   48.9720   34.6290   42.2120 O   0  0  0  0  0  0  0  0  0  0  0  0
   47.1490   34.5170   40.6770 O   0  0  0  0  0  0  0  0  0  0  0  0
   47.7240   32.6440   41.8630 H   0  0  0  0  0  0  0  0  0  0  0  0
  1  2  1  0  0  0  0
  1  5  1  0  0  0  0
  3  1  1  0  0  0  0
  4  9  1  0  0  0  0
  5  6  1  0  0  0  0
  5  4  2  0  0  0  0
  6  7  2  0  0  0  0
  7  8  1  0  0  0  0
  8 14  1  0  0  0  0
  9  8  2  0  0  0  0
 10  4  1  0  0  0  0
 11  6  1  0  0  0  0
 12 13  1  0  0  0  0
 13 20  1  0  0  0  0
 14 13  2  0  0  0  0
 14 15  1  0  0  0  0
 15 17  2  0  0  0  0
 16 15  1  0  0  0  0
 17 19  1  0  0  0  0
 17 18  1  0  0  0  0
 20 19  2  0  0  0  0
 21 23  1  0  0  0  0
 21  1  1  0  0  0  0
 22 21  1  0  0  0  0
 24 25  1  0  0  0  0
 25 21  1  0  0  0  0
 25 26  2  0  0  0  0
 26 30  1  0  0  0  0
 27 26  1  0  0  0  0
 27 31  1  0  0  0  0
 28 27  2  0  0  0  0
 29 24  2  0  0  0  0
 29 28  1  0  0  0  0
 32 28  1  0  0  0  0
 33 29  1  0  0  0  0
 34 35  2  0  0  0  0
 34 24  1  0  0  0  0
 36 34  2  0  0  0  0
 37 34  1  0  0  0  0
M  END
>  <minimizedAffinity>
-6.13280249

>  <minimizedRMSD>
0.594025731

$$$$
