
 OpenBabel03252507223D

 47 50  0  0  1  0  0  0  0  0999 V2000
   43.2280   29.4250   42.2860 C   0  0  0  0  0  0  0  0  0  0  0  0
   43.2810   30.0160   43.4150 O   0  0  0  0  0  0  0  0  0  0  0  0
   44.3510   28.7900   41.6940 N   0  0  0  0  0  0  0  0  0  0  0  0
   44.4570   27.4810   41.0270 C   0  0  0  0  0  0  0  0  0  0  0  0
   45.1090   27.6780   39.6600 C   0  0  0  0  0  0  0  0  0  0  0  0
   46.5220   28.1310   39.8380 C   0  0  0  0  0  0  0  0  0  0  0  0
   46.7350   28.6330   41.2570 C   0  0  0  0  0  0  0  0  0  0  0  0
   45.6090   29.4840   41.7260 C   0  0  2  0  0  0  0  0  0  0  0  0
   45.0150   26.8210   41.6910 H   0  0  0  0  0  0  0  0  0  0  0  0
   43.4110   27.1080   40.8440 H   0  0  0  0  0  0  0  0  0  0  0  0
   45.0000   26.7750   39.0490 H   0  0  0  0  0  0  0  0  0  0  0  0
   44.5400   28.5430   39.2070 H   0  0  0  0  0  0  0  0  0  0  0  0
   47.2210   27.2660   39.6650 H   0  0  0  0  0  0  0  0  0  0  0  0
   46.8170   28.9180   39.1140 H   0  0  0  0  0  0  0  0  0  0  0  0
   47.6300   29.3200   41.1750 H   0  0  0  0  0  0  0  0  0  0  0  0
   47.0160   27.8310   41.9530 H   0  0  0  0  0  0  0  0  0  0  0  0
   45.5400   30.3550   41.0060 H   0  0  0  0  0  0  0  0  0  0  0  0
   41.8370   30.2150   40.4460 C   0  0  0  0  0  0  0  0  0  0  0  0
   41.9640   29.4060   41.5880 C   0  0  0  0  0  0  0  0  0  0  0  0
   40.9060   28.6190   42.0210 C   0  0  0  0  0  0  0  0  0  0  0  0
   39.7620   28.6770   41.2910 N   0  0  0  0  0  0  0  0  0  0  0  0
   39.6180   29.4460   40.1910 C   0  0  0  0  0  0  0  0  0  0  0  0
   40.6640   30.2110   39.7810 N   0  0  0  0  0  0  0  0  0  0  0  0
   42.6580   30.8310   40.1040 H   0  0  0  0  0  0  0  0  0  0  0  0
   38.6960   29.4750   39.6260 H   0  0  0  0  0  0  0  0  0  0  0  0
   41.0720   27.8070   43.1960 C   0  0  0  0  0  0  0  0  0  0  0  0
   41.3930   26.4970   43.0900 C   0  0  0  0  0  0  0  0  0  0  0  0
   41.5450   25.7450   44.2370 C   0  0  0  0  0  0  0  0  0  0  0  0
   41.3820   26.2760   45.5130 C   0  0  0  0  0  0  0  0  0  0  0  0
   41.0560   27.6190   45.5630 C   0  0  0  0  0  0  0  0  0  0  0  0
   40.9110   28.3390   44.4300 N   0  0  0  0  0  0  0  0  0  0  0  0
   41.5450   25.9550   42.1780 H   0  0  0  0  0  0  0  0  0  0  0  0
   41.7990   24.6940   44.2030 H   0  0  0  0  0  0  0  0  0  0  0  0
   41.4950   25.7130   46.4090 H   0  0  0  0  0  0  0  0  0  0  0  0
   40.9000   28.1620   46.4730 H   0  0  0  0  0  0  0  0  0  0  0  0
   45.9380   30.1030   43.0520 C   0  0  0  0  0  0  0  0  0  0  0  0
   46.6010   29.5060   43.6780 H   0  0  0  0  0  0  0  0  0  0  0  0
   45.0250   30.4610   43.6180 H   0  0  0  0  0  0  0  0  0  0  0  0
   44.6480   32.1580   41.5870 F   0  0  0  0  0  0  0  0  0  0  0  0
   45.9410   32.3970   41.9870 C   0  0  0  0  0  0  0  0  0  0  0  0
   46.5970   31.4190   42.7000 C   0  0  0  0  0  0  0  0  0  0  0  0
   47.8720   31.6710   43.0880 C   0  0  0  0  0  0  0  0  0  0  0  0
   48.3700   30.8910   43.6470 H   0  0  0  0  0  0  0  0  0  0  0  0
   48.5850   32.8380   42.8270 C   0  0  0  0  0  0  0  0  0  0  0  0
   49.6010   33.0310   43.1390 H   0  0  0  0  0  0  0  0  0  0  0  0
   47.8400   33.7660   42.1020 C   0  0  0  0  0  3  0  0  0  0  0  0
   46.5430   33.5960   41.6680 C   0  0  0  0  0  3  0  0  0  0  0  0
  1  2  2  0  0  0  0
  3  8  1  0  0  0  0
  3  1  1  0  0  0  0
  4  9  1  0  0  0  0
  4  3  1  0  0  0  0
  5  6  1  0  0  0  0
  5  4  1  0  0  0  0
  6  7  1  0  0  0  0
  7  8  1  0  0  0  0
  7 16  1  0  0  0  0
  8 17  1  6  0  0  0
  8 36  1  0  0  0  0
 10  4  1  0  0  0  0
 11  5  1  0  0  0  0
 12  5  1  0  0  0  0
 13  6  1  0  0  0  0
 14  6  1  0  0  0  0
 15  7  1  0  0  0  0
 18 19  1  0  0  0  0
 19 20  2  0  0  0  0
 19  1  1  0  0  0  0
 20 26  1  0  0  0  0
 21 20  1  0  0  0  0
 22 21  2  0  0  0  0
 23 22  1  0  0  0  0
 23 18  2  0  0  0  0
 24 18  1  0  0  0  0
 25 22  1  0  0  0  0
 26 31  1  0  0  0  0
 27 26  2  0  0  0  0
 27 28  1  0  0  0  0
 28 29  2  0  0  0  0
 29 30  1  0  0  0  0
 29 34  1  0  0  0  0
 30 35  1  0  0  0  0
 31 30  2  0  0  0  0
 32 27  1  0  0  0  0
 33 28  1  0  0  0  0
 36 38  1  0  0  0  0
 36 37  1  0  0  0  0
 39 40  1  0  0  0  0
 40 41  1  0  0  0  0
 41 36  1  0  0  0  0
 41 42  2  0  0  0  0
 42 43  1  0  0  0  0
 44 42  1  0  0  0  0
 44 45  1  0  0  0  0
 46 44  2  0  0  0  0
 47 40  2  0  0  0  0
 47 46  1  0  0  0  0
M  END
>  <minimizedAffinity>
-2.67795205

>  <minimizedRMSD>
6.4640255

$$$$
