
     RDKit          3D

 49 52  0  0  0  0  0  0  0  0999 V2000
   47.3203   33.6285   42.8376 C   0  0  0  0  0  0  0  0  0  0  0  0
   48.4212   33.4042   43.4395 O   0  0  0  0  0  0  0  0  0  0  0  0
   47.0304   33.1238   41.5434 N   0  0  0  0  0  0  0  0  0  0  0  0
   45.8048   32.4939   41.0239 C   0  0  0  0  0  0  0  0  0  0  0  0
   45.3876   33.2117   39.7426 C   0  0  0  0  0  0  0  0  0  0  0  0
   46.4149   32.9827   38.6807 C   0  0  0  0  0  0  0  0  0  0  0  0
   47.7042   32.4706   39.3032 C   0  0  0  0  0  0  0  0  0  0  0  0
   48.0588   33.2102   40.5443 C   0  0  2  0  0  0  0  0  0  0  0  0
   45.9673   35.6562   42.9215 C   0  0  0  0  0  0  0  0  0  0  0  0
   46.3292   34.4342   43.5129 C   0  0  0  0  0  0  0  0  0  0  0  0
   45.7485   34.0234   44.7045 C   0  0  0  0  0  0  0  0  0  0  0  0
   44.8271   34.8558   45.2555 N   0  0  0  0  0  0  0  0  0  0  0  0
   44.4641   36.0338   44.7054 C   0  0  0  0  0  0  0  0  0  0  0  0
   45.0426   36.4209   43.5385 N   0  0  0  0  0  0  0  0  0  0  0  0
   46.1463   32.7678   45.2819 C   0  0  0  0  0  0  0  0  0  0  0  0
   45.7729   31.5970   44.7153 C   0  0  0  0  0  0  0  0  0  0  0  0
   46.1707   30.4096   45.2937 C   0  0  0  0  0  0  0  0  0  0  0  0
   46.9483   30.3576   46.4483 C   0  0  0  0  0  0  0  0  0  0  0  0
   47.3007   31.5822   46.9847 C   0  0  0  0  0  0  0  0  0  0  0  0
   46.9023   32.7340   46.4045 N   0  0  0  0  0  0  0  0  0  0  0  0
   49.4208   32.8008   41.0239 C   0  0  0  0  0  0  0  0  0  0  0  0
   46.0170   31.4343   40.8861 H   0  0  0  0  0  0  0  0  0  0  0  0
   44.9894   32.6649   41.7803 H   0  0  0  0  0  0  0  0  0  0  0  0
   44.3715   32.9242   39.4538 H   0  0  0  0  0  0  0  0  0  0  0  0
   45.4349   34.3079   40.0148 H   0  0  0  0  0  0  0  0  0  0  0  0
   46.0434   32.2051   37.9579 H   0  0  0  0  0  0  0  0  0  0  0  0
   46.6239   33.8907   38.0792 H   0  0  0  0  0  0  0  0  0  0  0  0
   48.4996   32.7372   38.5455 H   0  0  0  0  0  0  0  0  0  0  0  0
   47.7211   31.3778   39.4070 H   0  0  0  0  0  0  0  0  0  0  0  0
   48.1666   34.2994   40.2529 H   0  0  0  0  0  0  0  0  0  0  0  0
   46.4170   35.9810   41.9929 H   0  0  0  0  0  0  0  0  0  0  0  0
   43.7281   36.6811   45.1617 H   0  0  0  0  0  0  0  0  0  0  0  0
   45.1760   31.4846   43.8323 H   0  0  0  0  0  0  0  0  0  0  0  0
   45.8966   29.4504   44.8776 H   0  0  0  0  0  0  0  0  0  0  0  0
   47.2650   29.4533   46.9087 H   0  0  0  0  0  0  0  0  0  0  0  0
   47.8952   31.6978   47.8687 H   0  0  0  0  0  0  0  0  0  0  0  0
   49.4793   31.7817   41.4050 H   0  0  0  0  0  0  0  0  0  0  0  0
   49.8886   33.5495   41.7326 H   0  0  0  0  0  0  0  0  0  0  0  0
   52.0036   31.6484   40.8155 F   0  0  0  0  0  0  0  0  0  0  0  0
   51.5606   32.3818   39.7407 C   0  0  0  0  0  0  0  0  0  0  0  0
   50.3101   32.9554   39.8091 C   0  0  0  0  0  0  0  0  0  0  0  0
   49.8886   33.6746   38.7394 C   0  0  0  0  0  0  0  0  0  0  0  0
   48.9044   34.1163   38.8128 H   0  0  0  0  0  0  0  0  0  0  0  0
   50.6102   33.8884   37.5683 C   0  0  0  0  0  0  0  0  0  0  0  0
   50.2672   34.4637   36.7209 H   0  0  0  0  0  0  0  0  0  0  0  0
   51.8591   33.2708   37.5928 C   0  0  0  0  0  0  0  0  0  0  0  0
   52.3676   32.5236   38.6325 C   0  0  0  0  0  0  0  0  0  0  0  0
   52.5181   33.3675   36.7275 H   0  0  0  0  0  0  0  0  0  0  0  0
   53.3500   32.0756   38.5715 H   0  0  0  0  0  0  0  0  0  0  0  0
  1  2  2  0
  1 10  1  0
  3  1  1  0
  4  3  1  0
  5  4  1  0
  6  7  1  0
  6  5  1  0
  7  8  1  0
  8 21  1  0
  8  3  1  0
  9 10  2  0
  9 14  1  0
 10 11  1  0
 11 12  2  0
 11 15  1  0
 13 12  1  0
 14 13  2  0
 15 20  1  0
 16 15  2  0
 16 17  1  0
 17 18  2  0
 18 19  1  0
 20 19  2  0
  4 22  1  0
  4 23  1  0
  5 24  1  0
  5 25  1  0
  6 26  1  0
  6 27  1  0
  7 28  1  0
  7 29  1  0
  8 30  1  6
  9 31  1  0
 13 32  1  0
 16 33  1  0
 17 34  1  0
 18 35  1  0
 19 36  1  0
 21 37  1  0
 21 38  1  0
 39 40  1  0
 40 41  2  0
 41 42  1  0
 42 43  1  0
 42 44  2  0
 44 45  1  0
 44 46  1  0
 46 47  2  0
 47 40  1  0
 46 48  1  0
 47 49  1  0
 21 41  1  0
M  ISO  8  22  13  23  13  24  13  25  13  26  13  27  13  28  13  29  13
M  ISO  8  30  13  31  14  32  14  33  14  34  14  35  14  36  14  37   8
M  ISO  3  38   8  43  15  45  16
M  END
>  <DihAtoms>  (1) 
7,20,40,39

>  <DihDeg>  (1) 
75.90495051529456

$$$$
