
     RDKit          3D

 26 27  0  0  0  0  0  0  0  0999 V2000
   44.5630   36.0409   44.4797 C   0  0  0  0  0  0  0  0  0  0  0  0
   45.2231   35.9424   43.2368 C   0  0  0  0  0  0  0  0  0  0  0  0
   46.0813   34.8740   43.0225 C   0  0  0  0  0  0  0  0  0  0  0  0
   46.2339   33.9815   44.0319 N   0  0  0  0  0  0  0  0  0  0  0  0
   45.5901   34.0949   45.2181 C   0  0  0  0  0  0  0  0  0  0  0  0
   44.7631   35.1114   45.4441 N   0  0  0  0  0  0  0  0  0  0  0  0
   46.7757   34.7623   41.7234 C   0  0  0  0  0  0  0  0  0  0  0  0
   48.1879   35.3175   41.8844 C   0  0  0  0  0  0  0  0  0  0  0  0
   43.9246   36.9177   44.5205 H   0  0  0  0  0  0  0  0  0  0  0  0
   45.0905   36.6624   42.4397 H   0  0  0  0  0  0  0  0  0  0  0  0
   45.7157   33.3769   46.0214 H   0  0  0  0  0  0  0  0  0  0  0  0
   46.9101   33.6715   41.5370 H   0  0  0  0  0  0  0  0  0  0  0  0
   46.2195   35.2835   40.9432 H   0  0  0  0  0  0  0  0  0  0  0  0
   48.1351   36.3786   42.1534 H   0  0  0  0  0  0  0  0  0  0  0  0
   48.7656   34.7157   42.5997 H   0  0  0  0  0  0  0  0  0  0  0  0
   49.6610   37.4117   40.8781 F   0  0  0  0  0  0  0  0  0  0  0  0
   49.5365   36.2873   40.1275 C   0  0  0  0  0  0  0  0  0  0  0  0
   48.8134   35.1711   40.5434 C   0  0  0  0  0  0  0  0  0  0  0  0
   48.7694   34.0935   39.6779 C   0  0  0  0  0  0  0  0  0  0  0  0
   48.1959   33.2648   40.0582 H   0  0  0  0  0  0  0  0  0  0  0  0
   49.4257   34.1643   38.4691 C   0  0  0  0  0  0  0  0  0  0  0  0
   49.3610   33.2932   37.8255 H   0  0  0  0  0  0  0  0  0  0  0  0
   50.1418   35.2678   38.0562 C   0  0  0  0  0  0  0  0  0  0  0  0
   50.1872   36.3585   38.9303 C   0  0  0  0  0  0  0  0  0  0  0  0
   50.6453   35.2900   37.1019 H   0  0  0  0  0  0  0  0  0  0  0  0
   50.7558   37.1999   38.5725 H   0  0  0  0  0  0  0  0  0  0  0  0
  1  6  2  0
  2  1  1  0
  3  2  2  0
  3  4  1  0
  4  5  2  0
  5  6  1  0
  7  8  1  0
  7  3  1  0
  1  9  1  0
  2 10  1  0
  5 11  1  0
  7 12  1  0
  7 13  1  0
  8 14  1  0
  8 15  1  0
 16 17  1  0
 17 18  2  0
 18 19  1  0
 19 20  1  0
 19 21  2  0
 21 22  1  0
 21 23  1  0
 23 24  2  0
 24 17  1  0
 23 25  1  0
 24 26  1  0
  8 18  1  0
M  ISO  8   9  14  10  14  11  14  12   8  13   8  14   8  15   8  20  15
M  ISO  1  22  16
M  END
>  <DihAtoms>  (1) 
6,7,17,16

>  <DihDeg>  (1) 
76.03701545832206

$$$$
