REMARK  Name = 
REMARK  4 active torsions:
REMARK  status: ('A' for Active; 'I' for Inactive)
REMARK    1  A    between atoms: C_1  and  C_10
REMARK    2  A    between atoms: C_8  and  C_21
REMARK    3  A    between atoms: C_11  and  C_15
REMARK    4  A    between atoms: C_21  and  C_41
REMARK                            x       y       z     vdW  Elec       q    Type
REMARK                         _______ _______ _______ _____ _____    ______ ____
ROOT
ATOM      1  C   UNL     1      47.320  33.629  42.838  0.00  0.00    +0.000 C 
ATOM      2  O   UNL     1      48.421  33.404  43.440  0.00  0.00    +0.000 OA
ATOM      3  N   UNL     1      47.030  33.124  41.543  0.00  0.00    +0.000 N 
ATOM      4  C   UNL     1      45.805  32.494  41.024  0.00  0.00    +0.000 C 
ATOM      5  C   UNL     1      45.388  33.212  39.743  0.00  0.00    +0.000 C 
ATOM      6  C   UNL     1      46.415  32.983  38.681  0.00  0.00    +0.000 C 
ATOM      7  C   UNL     1      47.704  32.471  39.303  0.00  0.00    +0.000 C 
ATOM      8  C   UNL     1      48.059  33.210  40.544  0.00  0.00    +0.000 C 
ATOM      9  H   UNL     1      46.017  31.434  40.886  0.00  0.00    +0.000 HD
ATOM     10  H   UNL     1      44.989  32.665  41.780  0.00  0.00    +0.000 HD
ATOM     11  H   UNL     1      44.371  32.924  39.454  0.00  0.00    +0.000 HD
ATOM     12  H   UNL     1      45.435  34.308  40.015  0.00  0.00    +0.000 HD
ATOM     13  H   UNL     1      46.043  32.205  37.958  0.00  0.00    +0.000 HD
ATOM     14  H   UNL     1      46.624  33.891  38.079  0.00  0.00    +0.000 HD
ATOM     15  H   UNL     1      48.500  32.737  38.545  0.00  0.00    +0.000 HD
ATOM     16  H   UNL     1      47.721  31.378  39.407  0.00  0.00    +0.000 HD
ATOM     17  H   UNL     1      48.167  34.299  40.253  0.00  0.00    +0.000 HD
ENDROOT
BRANCH   1  19
ATOM     18  C   UNL     1      45.967  35.656  42.922  0.00  0.00    +0.000 A 
ATOM     19  C   UNL     1      46.329  34.434  43.513  0.00  0.00    +0.000 A 
ATOM     20  C   UNL     1      45.748  34.023  44.705  0.00  0.00    +0.000 A 
ATOM     21  N   UNL     1      44.827  34.856  45.255  0.00  0.00    +0.000 NA
ATOM     22  C   UNL     1      44.464  36.034  44.705  0.00  0.00    +0.000 A 
ATOM     23  N   UNL     1      45.043  36.421  43.538  0.00  0.00    +0.000 NA
ATOM     24  H   UNL     1      46.417  35.981  41.993  0.00  0.00    +0.000 HD
ATOM     25  H   UNL     1      43.728  36.681  45.162  0.00  0.00    +0.000 HD
BRANCH  20  26
ATOM     26  C   UNL     1      46.146  32.768  45.282  0.00  0.00    +0.000 A 
ATOM     27  C   UNL     1      45.773  31.597  44.715  0.00  0.00    +0.000 A 
ATOM     28  C   UNL     1      46.171  30.410  45.294  0.00  0.00    +0.000 A 
ATOM     29  C   UNL     1      46.948  30.358  46.448  0.00  0.00    +0.000 A 
ATOM     30  C   UNL     1      47.301  31.582  46.985  0.00  0.00    +0.000 A 
ATOM     31  N   UNL     1      46.902  32.734  46.404  0.00  0.00    +0.000 NA
ATOM     32  H   UNL     1      45.176  31.485  43.832  0.00  0.00    +0.000 HD
ATOM     33  H   UNL     1      45.897  29.450  44.878  0.00  0.00    +0.000 HD
ATOM     34  H   UNL     1      47.265  29.453  46.909  0.00  0.00    +0.000 HD
ATOM     35  H   UNL     1      47.895  31.698  47.869  0.00  0.00    +0.000 HD
ENDBRANCH  20  26
ENDBRANCH   1  19
BRANCH   8  36
ATOM     36  C   UNL     1      49.421  32.801  41.024  0.00  0.00    +0.000 C 
ATOM     37  H   UNL     1      49.479  31.782  41.405  0.00  0.00    +0.000 HD
ATOM     38  H   UNL     1      49.889  33.550  41.733  0.00  0.00    +0.000 HD
BRANCH  36  41
ATOM     39  F   UNL     1      52.004  31.648  40.816  0.00  0.00    +0.000 F 
ATOM     40  C   UNL     1      51.561  32.382  39.741  0.00  0.00    +0.000 A 
ATOM     41  C   UNL     1      50.310  32.955  39.809  0.00  0.00    +0.000 A 
ATOM     42  C   UNL     1      49.889  33.675  38.739  0.00  0.00    +0.000 A 
ATOM     43  H   UNL     1      48.904  34.116  38.813  0.00  0.00    +0.000 HD
ATOM     44  C   UNL     1      50.610  33.888  37.568  0.00  0.00    +0.000 A 
ATOM     45  H   UNL     1      50.267  34.464  36.721  0.00  0.00    +0.000 HD
ATOM     46  C   UNL     1      51.859  33.271  37.593  0.00  0.00    +0.000 A 
ATOM     47  C   UNL     1      52.368  32.524  38.633  0.00  0.00    +0.000 A 
ENDBRANCH  36  41
ENDBRANCH   8  36
TORSDOF 4
