
 OpenBabel03242523353D

 37 40  0  0  0  0  0  0  0  0999 V2000
   41.4590   32.2040   40.7700 C   0  0  0  0  0  0  0  0  0  0  0  0
   41.8460   31.5700   39.9470 H   0  0  0  0  0  0  0  0  0  0  0  0
   42.1240   33.1100   40.8250 H   0  0  0  0  0  0  0  0  0  0  0  0
   38.4850   34.3510   40.1790 C   0  0  0  0  0  0  0  0  0  0  0  0
   37.5180   33.3850   39.8350 C   0  0  0  0  0  0  0  0  0  0  0  0
   37.9130   32.0450   39.8180 C   0  0  0  0  0  0  0  0  0  0  0  0
   39.1850   31.6900   40.1200 N   0  0  0  0  0  0  0  0  0  0  0  0
   40.0960   32.6720   40.4500 C   0  0  0  0  0  0  0  0  0  0  0  0
   39.7410   33.9710   40.4750 N   0  0  0  0  0  0  0  0  0  0  0  0
   38.2470   35.4120   40.2130 H   0  0  0  0  0  0  0  0  0  0  0  0
   36.5450   33.7360   39.6110 H   0  0  0  0  0  0  0  0  0  0  0  0
   36.1380   30.8680   41.7150 F   0  0  0  0  0  0  0  0  0  0  0  0
   36.1070   30.4790   40.4190 C   0  0  0  0  0  0  0  0  0  0  0  0
   36.9450   31.0180   39.4670 C   0  0  0  0  0  0  0  0  0  0  0  0
   36.7680   30.5010   38.2110 C   0  0  0  0  0  0  0  0  0  0  0  0
   37.3740   30.8560   37.3950 H   0  0  0  0  0  0  0  0  0  0  0  0
   35.8460   29.5260   37.8910 C   0  0  0  0  0  0  0  0  0  0  0  0
   35.7500   29.1490   36.8610 H   0  0  0  0  0  0  0  0  0  0  0  0
   35.0310   29.0180   38.8760 C   0  0  0  0  0  3  0  0  0  0  0  0
   35.1630   29.5010   40.1610 C   0  0  0  0  0  3  0  0  0  0  0  0
   41.3830   31.3400   42.3490 S   0  0  0  0  0  0  0  0  0  0  0  0
   40.4100   29.8580   42.2270 C   0  0  0  0  0  0  0  0  0  0  0  0
   40.9120   28.8400   41.4520 C   0  0  0  0  0  0  0  0  0  0  0  0
   40.1750   27.6790   41.3410 C   0  0  0  0  0  0  0  0  0  0  0  0
   38.9510   27.5210   41.9900 C   0  0  0  0  0  0  0  0  0  0  0  0
   38.2560   26.3790   41.8620 N   0  0  0  0  0  0  0  0  0  0  0  0
   37.0750   26.2150   42.4800 C   0  0  0  0  0  0  0  0  0  0  0  0
   36.5680   27.2320   43.2580 C   0  0  0  0  0  0  0  0  0  0  0  0
   37.2770   28.3970   43.3890 C   0  0  0  0  0  0  0  0  0  0  0  0
   38.5130   28.5810   42.7480 C   0  0  0  0  0  0  0  0  0  0  0  0
   39.2170   29.7670   42.8890 C   0  0  0  0  0  0  0  0  0  0  0  0
   41.8310   28.7980   40.8870 H   0  0  0  0  0  0  0  0  0  0  0  0
   40.4940   26.8140   40.7460 H   0  0  0  0  0  0  0  0  0  0  0  0
   36.4910   25.2950   42.3910 H   0  0  0  0  0  0  0  0  0  0  0  0
   35.6400   27.1990   43.7890 H   0  0  0  0  0  0  0  0  0  0  0  0
   36.9300   29.2380   43.9890 H   0  0  0  0  0  0  0  0  0  0  0  0
   38.8360   30.5630   43.4880 H   0  0  0  0  0  0  0  0  0  0  0  0
  1  3  1  0  0  0  0
  1 21  1  0  0  0  0
  2  1  1  0  0  0  0
  4 10  1  0  0  0  0
  4  9  1  0  0  0  0
  5  4  2  0  0  0  0
  6  5  1  0  0  0  0
  6  7  2  0  0  0  0
  7  8  1  0  0  0  0
  8  9  2  0  0  0  0
  8  1  1  0  0  0  0
 11  5  1  0  0  0  0
 13 12  1  0  0  0  0
 14  6  1  0  0  0  0
 14 13  2  0  0  0  0
 15 14  1  0  0  0  0
 16 15  1  0  0  0  0
 17 15  2  0  0  0  0
 17 19  1  0  0  0  0
 18 17  1  0  0  0  0
 19 20  2  0  0  0  0
 20 13  1  0  0  0  0
 22 21  1  0  0  0  0
 22 31  1  0  0  0  0
 23 22  2  0  0  0  0
 24 23  1  0  0  0  0
 24 25  2  0  0  0  0
 25 30  1  0  0  0  0
 26 25  1  0  0  0  0
 26 27  2  0  0  0  0
 27 28  1  0  0  0  0
 28 29  2  0  0  0  0
 28 35  1  0  0  0  0
 29 36  1  0  0  0  0
 30 31  2  0  0  0  0
 30 29  1  0  0  0  0
 31 37  1  0  0  0  0
 32 23  1  0  0  0  0
 33 24  1  0  0  0  0
 34 27  1  0  0  0  0
M  END
>  <minimizedAffinity>
-6.65018129

$$$$

 OpenBabel03242523353D

 37 40  0  0  0  0  0  0  0  0999 V2000
   41.4560   31.9940   40.6400 C   0  0  0  0  0  0  0  0  0  0  0  0
   41.7880   31.3280   39.8190 H   0  0  0  0  0  0  0  0  0  0  0  0
   42.1520   32.8800   40.6400 H   0  0  0  0  0  0  0  0  0  0  0  0
   38.5280   34.2210   40.1140 C   0  0  0  0  0  0  0  0  0  0  0  0
   37.5170   33.2770   39.8440 C   0  0  0  0  0  0  0  0  0  0  0  0
   37.8680   31.9250   39.8510 C   0  0  0  0  0  0  0  0  0  0  0  0
   39.1400   31.5370   40.1080 N   0  0  0  0  0  0  0  0  0  0  0  0
   40.0960   32.4980   40.3660 C   0  0  0  0  0  0  0  0  0  0  0  0
   39.7840   33.8080   40.3650 N   0  0  0  0  0  0  0  0  0  0  0  0
   38.3260   35.2890   40.1250 H   0  0  0  0  0  0  0  0  0  0  0  0
   36.5470   33.6530   39.6530 H   0  0  0  0  0  0  0  0  0  0  0  0
   37.2730   30.9910   37.2230 F   0  0  0  0  0  0  0  0  0  0  0  0
   36.6000   30.5000   38.2890 C   0  0  0  0  0  0  0  0  0  0  0  0
   36.8530   30.9210   39.5770 C   0  0  0  0  0  0  0  0  0  0  0  0
   36.0740   30.3120   40.5260 C   0  0  0  0  0  0  0  0  0  0  0  0
   36.1920   30.5700   41.5640 H   0  0  0  0  0  0  0  0  0  0  0  0
   35.1130   29.3600   40.2530 C   0  0  0  0  0  0  0  0  0  0  0  0
   34.5160   28.9060   41.0590 H   0  0  0  0  0  0  0  0  0  0  0  0
   34.8970   28.9720   38.9510 C   0  0  0  0  0  3  0  0  0  0  0  0
   35.6520   29.5510   37.9520 C   0  0  0  0  0  3  0  0  0  0  0  0
   41.4240   31.1760   42.2430 S   0  0  0  0  0  0  0  0  0  0  0  0
   40.4110   29.7160   42.2010 C   0  0  0  0  0  0  0  0  0  0  0  0
   40.8720   28.6530   41.4620 C   0  0  0  0  0  0  0  0  0  0  0  0
   40.1030   27.5080   41.4130 C   0  0  0  0  0  0  0  0  0  0  0  0
   38.8880   27.4110   42.0890 C   0  0  0  0  0  0  0  0  0  0  0  0
   38.1610   26.2840   42.0220 N   0  0  0  0  0  0  0  0  0  0  0  0
   36.9870   26.1780   42.6660 C   0  0  0  0  0  0  0  0  0  0  0  0
   36.5210   27.2400   43.4080 C   0  0  0  0  0  0  0  0  0  0  0  0
   37.2610   28.3900   43.4770 C   0  0  0  0  0  0  0  0  0  0  0  0
   38.4900   28.5130   42.8080 C   0  0  0  0  0  0  0  0  0  0  0  0
   39.2270   29.6850   42.8860 C   0  0  0  0  0  0  0  0  0  0  0  0
   41.7790   28.5620   40.8850 H   0  0  0  0  0  0  0  0  0  0  0  0
   40.3890   26.6110   40.8510 H   0  0  0  0  0  0  0  0  0  0  0  0
   36.3780   25.2700   42.6260 H   0  0  0  0  0  0  0  0  0  0  0  0
   35.6020   27.2540   43.9550 H   0  0  0  0  0  0  0  0  0  0  0  0
   36.9480   29.2640   44.0460 H   0  0  0  0  0  0  0  0  0  0  0  0
   38.8790   30.5160   43.4580 H   0  0  0  0  0  0  0  0  0  0  0  0
  1 21  1  0  0  0  0
  2  1  1  0  0  0  0
  3  1  1  0  0  0  0
  4 10  1  0  0  0  0
  4  9  1  0  0  0  0
  5  6  1  0  0  0  0
  5  4  2  0  0  0  0
  6  7  2  0  0  0  0
  7  8  1  0  0  0  0
  8  1  1  0  0  0  0
  9  8  2  0  0  0  0
 11  5  1  0  0  0  0
 12 13  1  0  0  0  0
 13 14  1  0  0  0  0
 14  6  1  0  0  0  0
 14 15  2  0  0  0  0
 15 16  1  0  0  0  0
 17 15  1  0  0  0  0
 17 18  1  0  0  0  0
 19 17  2  0  0  0  0
 20 13  2  0  0  0  0
 20 19  1  0  0  0  0
 22 21  1  0  0  0  0
 22 31  1  0  0  0  0
 23 22  2  0  0  0  0
 24 23  1  0  0  0  0
 24 25  2  0  0  0  0
 25 30  1  0  0  0  0
 26 25  1  0  0  0  0
 26 27  2  0  0  0  0
 27 28  1  0  0  0  0
 28 29  2  0  0  0  0
 28 35  1  0  0  0  0
 29 36  1  0  0  0  0
 30 31  2  0  0  0  0
 30 29  1  0  0  0  0
 31 37  1  0  0  0  0
 32 23  1  0  0  0  0
 33 24  1  0  0  0  0
 34 27  1  0  0  0  0
M  END
>  <minimizedAffinity>
-6.5350275

$$$$

 OpenBabel03242523353D

 37 40  0  0  0  0  0  0  0  0999 V2000
   36.1010   26.2290   37.4150 C   0  0  0  0  0  0  0  0  0  0  0  0
   37.1010   26.6370   37.1680 H   0  0  0  0  0  0  0  0  0  0  0  0
   35.8060   25.5530   36.5640 H   0  0  0  0  0  0  0  0  0  0  0  0
   35.6020   23.5250   39.9140 C   0  0  0  0  0  0  0  0  0  0  0  0
   36.4250   23.9750   40.9660 C   0  0  0  0  0  0  0  0  0  0  0  0
   37.1150   25.1760   40.7870 C   0  0  0  0  0  0  0  0  0  0  0  0
   36.9960   25.8820   39.6370 N   0  0  0  0  0  0  0  0  0  0  0  0
   36.1800   25.4010   38.6340 C   0  0  0  0  0  0  0  0  0  0  0  0
   35.5030   24.2450   38.7820 N   0  0  0  0  0  0  0  0  0  0  0  0
   35.0370   22.5990   39.9850 H   0  0  0  0  0  0  0  0  0  0  0  0
   36.4680   23.3720   41.8350 H   0  0  0  0  0  0  0  0  0  0  0  0
   36.4260   27.4040   42.4290 F   0  0  0  0  0  0  0  0  0  0  0  0
   37.5970   26.7550   42.6180 C   0  0  0  0  0  0  0  0  0  0  0  0
   37.9730   25.6740   41.8490 C   0  0  0  0  0  0  0  0  0  0  0  0
   39.1920   25.1470   42.1870 C   0  0  0  0  0  0  0  0  0  0  0  0
   39.5780   24.2990   41.6460 H   0  0  0  0  0  0  0  0  0  0  0  0
   39.9980   25.6280   43.1980 C   0  0  0  0  0  0  0  0  0  0  0  0
   40.9700   25.1620   43.4220 H   0  0  0  0  0  0  0  0  0  0  0  0
   39.5800   26.7100   43.9380 C   0  0  0  0  0  3  0  0  0  0  0  0
   38.3600   27.2830   43.6440 C   0  0  0  0  0  3  0  0  0  0  0  0
   34.8680   27.5090   37.7030 S   0  0  0  0  0  0  0  0  0  0  0  0
   35.5630   28.8860   38.5860 C   0  0  0  0  0  0  0  0  0  0  0  0
   35.1630   29.0640   39.8880 C   0  0  0  0  0  0  0  0  0  0  0  0
   35.6880   30.1260   40.5950 C   0  0  0  0  0  0  0  0  0  0  0  0
   36.6030   31.0080   40.0210 C   0  0  0  0  0  0  0  0  0  0  0  0
   37.0960   32.0340   40.7340 N   0  0  0  0  0  0  0  0  0  0  0  0
   37.9760   32.8930   40.1930 C   0  0  0  0  0  0  0  0  0  0  0  0
   38.3800   32.7200   38.8880 C   0  0  0  0  0  0  0  0  0  0  0  0
   37.8770   31.6730   38.1600 C   0  0  0  0  0  0  0  0  0  0  0  0
   36.9570   30.7690   38.7150 C   0  0  0  0  0  0  0  0  0  0  0  0
   36.4560   29.7160   37.9650 C   0  0  0  0  0  0  0  0  0  0  0  0
   34.4710   28.4810   40.4780 H   0  0  0  0  0  0  0  0  0  0  0  0
   35.4290   30.3470   41.6380 H   0  0  0  0  0  0  0  0  0  0  0  0
   38.3910   33.7350   40.7540 H   0  0  0  0  0  0  0  0  0  0  0  0
   39.0740   33.3460   38.3690 H   0  0  0  0  0  0  0  0  0  0  0  0
   38.1570   31.4830   37.1250 H   0  0  0  0  0  0  0  0  0  0  0  0
   36.7600   29.5690   36.9520 H   0  0  0  0  0  0  0  0  0  0  0  0
  1 21  1  0  0  0  0
  1  8  1  0  0  0  0
  2  1  1  0  0  0  0
  3  1  1  0  0  0  0
  4 10  1  0  0  0  0
  4  5  1  0  0  0  0
  5 11  1  0  0  0  0
  6  5  2  0  0  0  0
  6 14  1  0  0  0  0
  7  6  1  0  0  0  0
  8  9  1  0  0  0  0
  8  7  2  0  0  0  0
  9  4  2  0  0  0  0
 12 13  1  0  0  0  0
 13 20  1  0  0  0  0
 14 15  1  0  0  0  0
 14 13  2  0  0  0  0
 15 17  2  0  0  0  0
 16 15  1  0  0  0  0
 17 18  1  0  0  0  0
 17 19  1  0  0  0  0
 20 19  2  0  0  0  0
 21 22  1  0  0  0  0
 22 23  1  0  0  0  0
 23 32  1  0  0  0  0
 23 24  2  0  0  0  0
 24 33  1  0  0  0  0
 25 24  1  0  0  0  0
 25 26  1  0  0  0  0
 27 26  2  0  0  0  0
 27 34  1  0  0  0  0
 28 27  1  0  0  0  0
 29 30  1  0  0  0  0
 29 28  2  0  0  0  0
 30 25  2  0  0  0  0
 31 22  2  0  0  0  0
 31 30  1  0  0  0  0
 35 28  1  0  0  0  0
 36 29  1  0  0  0  0
 37 31  1  0  0  0  0
M  END
>  <minimizedAffinity>
-6.22972488

$$$$

 OpenBabel03242523353D

 37 40  0  0  0  0  0  0  0  0999 V2000
   36.2000   24.8530   37.6400 C   0  0  0  0  0  0  0  0  0  0  0  0
   35.9650   24.2290   36.7550 H   0  0  0  0  0  0  0  0  0  0  0  0
   37.2890   25.1280   37.5650 H   0  0  0  0  0  0  0  0  0  0  0  0
   33.5680   27.3800   36.9380 C   0  0  0  0  0  0  0  0  0  0  0  0
   34.0920   28.5070   37.6030 C   0  0  0  0  0  0  0  0  0  0  0  0
   35.3150   28.3650   38.2630 C   0  0  0  0  0  0  0  0  0  0  0  0
   35.9740   27.1810   38.2620 N   0  0  0  0  0  0  0  0  0  0  0  0
   35.4210   26.1060   37.5970 C   0  0  0  0  0  0  0  0  0  0  0  0
   34.2420   26.2160   36.9540 N   0  0  0  0  0  0  0  0  0  0  0  0
   32.6210   27.4190   36.4050 H   0  0  0  0  0  0  0  0  0  0  0  0
   33.5230   29.3980   37.5610 H   0  0  0  0  0  0  0  0  0  0  0  0
   35.1200   28.7190   41.0860 F   0  0  0  0  0  0  0  0  0  0  0  0
   35.7690   29.6320   40.3280 C   0  0  0  0  0  0  0  0  0  0  0  0
   35.8890   29.5040   38.9610 C   0  0  0  0  0  0  0  0  0  0  0  0
   36.5790   30.5260   38.3630 C   0  0  0  0  0  0  0  0  0  0  0  0
   36.7280   30.5210   37.2970 H   0  0  0  0  0  0  0  0  0  0  0  0
   37.1180   31.6030   39.0370 C   0  0  0  0  0  0  0  0  0  0  0  0
   37.6630   32.3950   38.5000 H   0  0  0  0  0  0  0  0  0  0  0  0
   36.9720   31.6870   40.4020 C   0  0  0  0  0  3  0  0  0  0  0  0
   36.2870   30.6860   41.0600 C   0  0  0  0  0  3  0  0  0  0  0  0
   35.8290   24.0320   39.2000 S   0  0  0  0  0  0  0  0  0  0  0  0
   36.9870   24.4980   40.4640 C   0  0  0  0  0  0  0  0  0  0  0  0
   37.9420   23.5750   40.8130 C   0  0  0  0  0  0  0  0  0  0  0  0
   38.8530   23.9140   41.7930 C   0  0  0  0  0  0  0  0  0  0  0  0
   38.8220   25.1560   42.4250 C   0  0  0  0  0  0  0  0  0  0  0  0
   39.7210   25.4560   43.3770 N   0  0  0  0  0  0  0  0  0  0  0  0
   39.7010   26.6480   43.9960 C   0  0  0  0  0  0  0  0  0  0  0  0
   38.7460   27.5770   43.6500 C   0  0  0  0  0  0  0  0  0  0  0  0
   37.8290   27.2720   42.6790 C   0  0  0  0  0  0  0  0  0  0  0  0
   37.8390   26.0290   42.0250 C   0  0  0  0  0  0  0  0  0  0  0  0
   36.9030   25.7340   41.0470 C   0  0  0  0  0  0  0  0  0  0  0  0
   38.1050   22.5790   40.4290 H   0  0  0  0  0  0  0  0  0  0  0  0
   39.6500   23.2420   42.1360 H   0  0  0  0  0  0  0  0  0  0  0  0
   40.4230   26.9150   44.7730 H   0  0  0  0  0  0  0  0  0  0  0  0
   38.6470   28.5510   44.0820 H   0  0  0  0  0  0  0  0  0  0  0  0
   37.0490   27.9620   42.3620 H   0  0  0  0  0  0  0  0  0  0  0  0
   36.1560   26.4440   40.7680 H   0  0  0  0  0  0  0  0  0  0  0  0
  1 21  1  0  0  0  0
  2  1  1  0  0  0  0
  3  1  1  0  0  0  0
  4  9  2  0  0  0  0
  4  5  1  0  0  0  0
  5  6  2  0  0  0  0
  6 14  1  0  0  0  0
  7  6  1  0  0  0  0
  8  1  1  0  0  0  0
  8  7  2  0  0  0  0
  9  8  1  0  0  0  0
 10  4  1  0  0  0  0
 11  5  1  0  0  0  0
 13 20  1  0  0  0  0
 13 12  1  0  0  0  0
 14 13  2  0  0  0  0
 15 14  1  0  0  0  0
 15 17  2  0  0  0  0
 16 15  1  0  0  0  0
 17 19  1  0  0  0  0
 18 17  1  0  0  0  0
 19 20  2  0  0  0  0
 21 22  1  0  0  0  0
 22 23  2  0  0  0  0
 22 31  1  0  0  0  0
 23 24  1  0  0  0  0
 24 33  1  0  0  0  0
 24 25  2  0  0  0  0
 25 26  1  0  0  0  0
 26 27  2  0  0  0  0
 27 34  1  0  0  0  0
 28 27  1  0  0  0  0
 28 35  1  0  0  0  0
 29 28  2  0  0  0  0
 30 25  1  0  0  0  0
 30 29  1  0  0  0  0
 31 30  2  0  0  0  0
 32 23  1  0  0  0  0
 36 29  1  0  0  0  0
 37 31  1  0  0  0  0
M  END
>  <minimizedAffinity>
-6.18452263

$$$$

 OpenBabel03242523353D

 37 40  0  0  0  0  0  0  0  0999 V2000
   39.2040   30.0980   42.4850 C   0  0  0  0  0  0  0  0  0  0  0  0
   40.0740   29.5450   42.0770 H   0  0  0  0  0  0  0  0  0  0  0  0
   39.6110   30.8410   43.2270 H   0  0  0  0  0  0  0  0  0  0  0  0
   38.0780   32.8400   40.2460 C   0  0  0  0  0  0  0  0  0  0  0  0
   37.2270   32.1400   39.3680 C   0  0  0  0  0  0  0  0  0  0  0  0
   37.0690   30.7660   39.5710 C   0  0  0  0  0  0  0  0  0  0  0  0
   37.7160   30.1320   40.5770 N   0  0  0  0  0  0  0  0  0  0  0  0
   38.5390   30.8600   41.4110 C   0  0  0  0  0  0  0  0  0  0  0  0
   38.7090   32.1860   41.2370 N   0  0  0  0  0  0  0  0  0  0  0  0
   38.2480   33.9100   40.1470 H   0  0  0  0  0  0  0  0  0  0  0  0
   36.7550   32.7010   38.6050 H   0  0  0  0  0  0  0  0  0  0  0  0
   37.5270   30.5300   36.7650 F   0  0  0  0  0  0  0  0  0  0  0  0
   36.4610   29.9220   37.3350 C   0  0  0  0  0  0  0  0  0  0  0  0
   36.1990   30.0080   38.6860 C   0  0  0  0  0  0  0  0  0  0  0  0
   35.0770   29.3280   39.0800 C   0  0  0  0  0  0  0  0  0  0  0  0
   34.7840   29.3320   40.1160 H   0  0  0  0  0  0  0  0  0  0  0  0
   34.2590   28.6120   38.2310 C   0  0  0  0  0  0  0  0  0  0  0  0
   33.3680   28.0850   38.6080 H   0  0  0  0  0  0  0  0  0  0  0  0
   34.5620   28.5560   36.8900 C   0  0  0  0  0  3  0  0  0  0  0  0
   35.6810   29.2210   36.4340 C   0  0  0  0  0  3  0  0  0  0  0  0
   37.9720   29.0190   43.2340 S   0  0  0  0  0  0  0  0  0  0  0  0
   38.1480   27.3460   42.6630 C   0  0  0  0  0  0  0  0  0  0  0  0
   39.2410   26.6420   43.1080 C   0  0  0  0  0  0  0  0  0  0  0  0
   39.4000   25.3400   42.6790 C   0  0  0  0  0  0  0  0  0  0  0  0
   38.4870   24.7360   41.8160 C   0  0  0  0  0  0  0  0  0  0  0  0
   38.6690   23.4670   41.4150 N   0  0  0  0  0  0  0  0  0  0  0  0
   37.7990   22.8730   40.5820 C   0  0  0  0  0  0  0  0  0  0  0  0
   36.7020   23.5740   40.1330 C   0  0  0  0  0  0  0  0  0  0  0  0
   36.5150   24.8680   40.5420 C   0  0  0  0  0  0  0  0  0  0  0  0
   37.4180   25.5000   41.4120 C   0  0  0  0  0  0  0  0  0  0  0  0
   37.2160   26.8100   41.8160 C   0  0  0  0  0  0  0  0  0  0  0  0
   40.0340   26.9560   43.7700 H   0  0  0  0  0  0  0  0  0  0  0  0
   40.2390   24.7020   42.9810 H   0  0  0  0  0  0  0  0  0  0  0  0
   37.9260   21.8410   40.2410 H   0  0  0  0  0  0  0  0  0  0  0  0
   35.9540   23.1910   39.4710 H   0  0  0  0  0  0  0  0  0  0  0  0
   35.6690   25.4740   40.2220 H   0  0  0  0  0  0  0  0  0  0  0  0
   36.3710   27.3660   41.4760 H   0  0  0  0  0  0  0  0  0  0  0  0
  1  3  1  0  0  0  0
  1 21  1  0  0  0  0
  2  1  1  0  0  0  0
  4  9  1  0  0  0  0
  5  6  1  0  0  0  0
  5  4  2  0  0  0  0
  6  7  2  0  0  0  0
  7  8  1  0  0  0  0
  8  1  1  0  0  0  0
  9  8  2  0  0  0  0
 10  4  1  0  0  0  0
 11  5  1  0  0  0  0
 12 13  1  0  0  0  0
 13 14  1  0  0  0  0
 14 15  2  0  0  0  0
 14  6  1  0  0  0  0
 15 16  1  0  0  0  0
 17 18  1  0  0  0  0
 17 15  1  0  0  0  0
 19 17  2  0  0  0  0
 20 19  1  0  0  0  0
 20 13  2  0  0  0  0
 22 23  1  0  0  0  0
 22 21  1  0  0  0  0
 23 32  1  0  0  0  0
 24 33  1  0  0  0  0
 24 23  2  0  0  0  0
 25 24  1  0  0  0  0
 26 25  1  0  0  0  0
 27 26  2  0  0  0  0
 28 29  2  0  0  0  0
 28 27  1  0  0  0  0
 29 30  1  0  0  0  0
 30 25  2  0  0  0  0
 30 31  1  0  0  0  0
 31 22  2  0  0  0  0
 34 27  1  0  0  0  0
 35 28  1  0  0  0  0
 36 29  1  0  0  0  0
 37 31  1  0  0  0  0
M  END
>  <minimizedAffinity>
-6.15082788

$$$$

 OpenBabel03242523353D

 37 40  0  0  0  0  0  0  0  0999 V2000
   36.6740   31.0680   41.0320 C   0  0  0  0  0  0  0  0  0  0  0  0
   35.6750   30.6070   41.1650 H   0  0  0  0  0  0  0  0  0  0  0  0
   36.6980   31.9880   41.6800 H   0  0  0  0  0  0  0  0  0  0  0  0
   39.7770   29.7080   42.5600 C   0  0  0  0  0  0  0  0  0  0  0  0
   39.5840   28.3240   42.3770 C   0  0  0  0  0  0  0  0  0  0  0  0
   38.4100   27.9080   41.7440 C   0  0  0  0  0  0  0  0  0  0  0  0
   37.4890   28.8070   41.3220 N   0  0  0  0  0  0  0  0  0  0  0  0
   37.7230   30.1520   41.5230 C   0  0  0  0  0  0  0  0  0  0  0  0
   38.8460   30.5800   42.1310 N   0  0  0  0  0  0  0  0  0  0  0  0
   40.6670   30.1030   43.0440 H   0  0  0  0  0  0  0  0  0  0  0  0
   40.3450   27.6810   42.7310 H   0  0  0  0  0  0  0  0  0  0  0  0
   36.4140   26.4400   43.1570 F   0  0  0  0  0  0  0  0  0  0  0  0
   37.1970   25.8210   42.2430 C   0  0  0  0  0  0  0  0  0  0  0  0
   38.1740   26.4880   41.5370 C   0  0  0  0  0  0  0  0  0  0  0  0
   38.8650   25.6960   40.6570 C   0  0  0  0  0  0  0  0  0  0  0  0
   39.6500   26.1220   40.0560 H   0  0  0  0  0  0  0  0  0  0  0  0
   38.6320   24.3490   40.4700 C   0  0  0  0  0  0  0  0  0  0  0  0
   39.2220   23.7640   39.7470 H   0  0  0  0  0  0  0  0  0  0  0  0
   37.6450   23.7270   41.2000 C   0  0  0  0  0  3  0  0  0  0  0  0
   36.9150   24.4740   42.1010 C   0  0  0  0  0  3  0  0  0  0  0  0
   37.0490   31.4560   39.3140 S   0  0  0  0  0  0  0  0  0  0  0  0
   38.5470   32.4030   39.1790 C   0  0  0  0  0  0  0  0  0  0  0  0
   38.6670   33.5060   39.9890 C   0  0  0  0  0  0  0  0  0  0  0  0
   39.8210   34.2580   39.9020 C   0  0  0  0  0  0  0  0  0  0  0  0
   40.8500   33.9240   39.0230 C   0  0  0  0  0  0  0  0  0  0  0  0
   41.9610   34.6760   38.9610 N   0  0  0  0  0  0  0  0  0  0  0  0
   42.9600   34.3670   38.1170 C   0  0  0  0  0  0  0  0  0  0  0  0
   42.8440   33.2620   37.3030 C   0  0  0  0  0  0  0  0  0  0  0  0
   41.7110   32.4940   37.3660 C   0  0  0  0  0  0  0  0  0  0  0  0
   40.6600   32.8070   38.2440 C   0  0  0  0  0  0  0  0  0  0  0  0
   39.5190   32.0220   38.2950 C   0  0  0  0  0  0  0  0  0  0  0  0
   37.9740   33.9010   40.7160 H   0  0  0  0  0  0  0  0  0  0  0  0
   40.0060   35.1540   40.5080 H   0  0  0  0  0  0  0  0  0  0  0  0
   43.8730   34.9640   38.0480 H   0  0  0  0  0  0  0  0  0  0  0  0
   43.5800   32.9340   36.6010 H   0  0  0  0  0  0  0  0  0  0  0  0
   41.5590   31.6100   36.7500 H   0  0  0  0  0  0  0  0  0  0  0  0
   39.4160   31.1620   37.6710 H   0  0  0  0  0  0  0  0  0  0  0  0
  1  2  1  0  0  0  0
  1  8  1  0  0  0  0
  1  3  1  0  0  0  0
  4 10  1  0  0  0  0
  5  4  1  0  0  0  0
  5 11  1  0  0  0  0
  6  5  2  0  0  0  0
  7  8  2  0  0  0  0
  7  6  1  0  0  0  0
  8  9  1  0  0  0  0
  9  4  2  0  0  0  0
 13 12  1  0  0  0  0
 14  6  1  0  0  0  0
 14 13  2  0  0  0  0
 15 14  1  0  0  0  0
 16 15  1  0  0  0  0
 17 15  2  0  0  0  0
 17 19  1  0  0  0  0
 18 17  1  0  0  0  0
 19 20  2  0  0  0  0
 20 13  1  0  0  0  0
 21  1  1  0  0  0  0
 22 21  1  0  0  0  0
 22 23  1  0  0  0  0
 23 32  1  0  0  0  0
 24 23  2  0  0  0  0
 24 33  1  0  0  0  0
 25 24  1  0  0  0  0
 26 25  1  0  0  0  0
 27 26  2  0  0  0  0
 28 29  2  0  0  0  0
 28 27  1  0  0  0  0
 29 30  1  0  0  0  0
 30 31  1  0  0  0  0
 30 25  2  0  0  0  0
 31 22  2  0  0  0  0
 34 27  1  0  0  0  0
 35 28  1  0  0  0  0
 36 29  1  0  0  0  0
 37 31  1  0  0  0  0
M  END
>  <minimizedAffinity>
-6.13805866

$$$$

 OpenBabel03242523353D

 37 40  0  0  0  0  0  0  0  0999 V2000
   35.7950   25.6150   37.2660 C   0  0  0  0  0  0  0  0  0  0  0  0
   36.7040   25.8340   36.6690 H   0  0  0  0  0  0  0  0  0  0  0  0
   35.2730   24.7550   36.7600 H   0  0  0  0  0  0  0  0  0  0  0  0
   36.5280   23.5150   40.2430 C   0  0  0  0  0  0  0  0  0  0  0  0
   36.8990   24.4980   41.1810 C   0  0  0  0  0  0  0  0  0  0  0  0
   36.8870   25.8320   40.7680 C   0  0  0  0  0  0  0  0  0  0  0  0
   36.5310   26.1670   39.5040 N   0  0  0  0  0  0  0  0  0  0  0  0
   36.1750   25.1690   38.6210 C   0  0  0  0  0  0  0  0  0  0  0  0
   36.1780   23.8750   38.9940 N   0  0  0  0  0  0  0  0  0  0  0  0
   36.5140   22.4580   40.4960 H   0  0  0  0  0  0  0  0  0  0  0  0
   37.1660   24.1630   42.1490 H   0  0  0  0  0  0  0  0  0  0  0  0
   38.7980   27.8600   40.1550 F   0  0  0  0  0  0  0  0  0  0  0  0
   38.1940   27.8360   41.3660 C   0  0  0  0  0  0  0  0  0  0  0  0
   37.2650   26.8760   41.7070 C   0  0  0  0  0  0  0  0  0  0  0  0
   36.7620   27.0130   42.9740 C   0  0  0  0  0  0  0  0  0  0  0  0
   36.0290   26.3130   43.3380 H   0  0  0  0  0  0  0  0  0  0  0  0
   37.1280   28.0080   43.8570 C   0  0  0  0  0  0  0  0  0  0  0  0
   36.6880   28.0660   44.8640 H   0  0  0  0  0  0  0  0  0  0  0  0
   38.0600   28.9430   43.4700 C   0  0  0  0  0  3  0  0  0  0  0  0
   38.6020   28.8570   42.2050 C   0  0  0  0  0  3  0  0  0  0  0  0
   34.7080   27.0390   37.4430 S   0  0  0  0  0  0  0  0  0  0  0  0
   35.6390   28.5340   37.6850 C   0  0  0  0  0  0  0  0  0  0  0  0
   36.3380   29.0200   36.6070 C   0  0  0  0  0  0  0  0  0  0  0  0
   37.0690   30.1790   36.7700 C   0  0  0  0  0  0  0  0  0  0  0  0
   37.1100   30.8550   37.9880 C   0  0  0  0  0  0  0  0  0  0  0  0
   37.8310   31.9810   38.1160 N   0  0  0  0  0  0  0  0  0  0  0  0
   37.8810   32.6410   39.2850 C   0  0  0  0  0  0  0  0  0  0  0  0
   37.1820   32.1590   40.3690 C   0  0  0  0  0  0  0  0  0  0  0  0
   36.4460   31.0100   40.2390 C   0  0  0  0  0  0  0  0  0  0  0  0
   36.3860   30.3110   39.0220 C   0  0  0  0  0  0  0  0  0  0  0  0
   35.6380   29.1490   38.9070 C   0  0  0  0  0  0  0  0  0  0  0  0
   36.4150   28.6240   35.6060 H   0  0  0  0  0  0  0  0  0  0  0  0
   37.6570   30.6410   35.9680 H   0  0  0  0  0  0  0  0  0  0  0  0
   38.4610   33.5600   39.4140 H   0  0  0  0  0  0  0  0  0  0  0  0
   37.1570   32.6100   41.3380 H   0  0  0  0  0  0  0  0  0  0  0  0
   35.8720   30.5780   41.0570 H   0  0  0  0  0  0  0  0  0  0  0  0
   35.0910   28.7630   39.7380 H   0  0  0  0  0  0  0  0  0  0  0  0
  1 21  1  0  0  0  0
  1  8  1  0  0  0  0
  2  1  1  0  0  0  0
  3  1  1  0  0  0  0
  4 10  1  0  0  0  0
  4  5  1  0  0  0  0
  5 11  1  0  0  0  0
  6  5  2  0  0  0  0
  6 14  1  0  0  0  0
  7  6  1  0  0  0  0
  8  9  1  0  0  0  0
  8  7  2  0  0  0  0
  9  4  2  0  0  0  0
 12 13  1  0  0  0  0
 13 14  2  0  0  0  0
 13 20  1  0  0  0  0
 14 15  1  0  0  0  0
 15 16  1  0  0  0  0
 15 17  2  0  0  0  0
 17 18  1  0  0  0  0
 19 17  1  0  0  0  0
 20 19  2  0  0  0  0
 21 22  1  0  0  0  0
 22 31  1  0  0  0  0
 23 24  1  0  0  0  0
 23 22  2  0  0  0  0
 24 25  2  0  0  0  0
 25 26  1  0  0  0  0
 25 30  1  0  0  0  0
 26 27  2  0  0  0  0
 27 34  1  0  0  0  0
 27 28  1  0  0  0  0
 28 35  1  0  0  0  0
 29 28  2  0  0  0  0
 29 36  1  0  0  0  0
 30 29  1  0  0  0  0
 31 30  2  0  0  0  0
 31 37  1  0  0  0  0
 32 23  1  0  0  0  0
 33 24  1  0  0  0  0
M  END
>  <minimizedAffinity>
-6.1357336

$$$$

 OpenBabel03242523353D

 37 40  0  0  0  0  0  0  0  0999 V2000
   36.3530   26.0440   37.3220 C   0  0  0  0  0  0  0  0  0  0  0  0
   37.3630   26.4560   37.1240 H   0  0  0  0  0  0  0  0  0  0  0  0
   36.1280   25.3190   36.4900 H   0  0  0  0  0  0  0  0  0  0  0  0
   35.7380   23.4520   39.9120 C   0  0  0  0  0  0  0  0  0  0  0  0
   36.4520   23.9860   41.0040 C   0  0  0  0  0  0  0  0  0  0  0  0
   37.1130   25.2020   40.8170 C   0  0  0  0  0  0  0  0  0  0  0  0
   37.0690   25.8440   39.6260 N   0  0  0  0  0  0  0  0  0  0  0  0
   36.3570   25.2820   38.5860 C   0  0  0  0  0  0  0  0  0  0  0  0
   35.7100   24.1100   38.7390 N   0  0  0  0  0  0  0  0  0  0  0  0
   35.2000   22.5100   39.9860 H   0  0  0  0  0  0  0  0  0  0  0  0
   36.4430   23.4300   41.9040 H   0  0  0  0  0  0  0  0  0  0  0  0
   39.5780   24.1250   41.7680 F   0  0  0  0  0  0  0  0  0  0  0  0
   39.0490   25.2300   42.3440 C   0  0  0  0  0  0  0  0  0  0  0  0
   37.8620   25.7850   41.9200 C   0  0  0  0  0  0  0  0  0  0  0  0
   37.4850   26.9000   42.6220 C   0  0  0  0  0  0  0  0  0  0  0  0
   36.5720   27.4100   42.3690 H   0  0  0  0  0  0  0  0  0  0  0  0
   38.2040   27.4440   43.6670 C   0  0  0  0  0  0  0  0  0  0  0  0
   37.8490   28.3430   44.1950 H   0  0  0  0  0  0  0  0  0  0  0  0
   39.3840   26.8530   44.0550 C   0  0  0  0  0  3  0  0  0  0  0  0
   39.8150   25.7270   43.3830 C   0  0  0  0  0  3  0  0  0  0  0  0
   35.0860   27.3170   37.4550 S   0  0  0  0  0  0  0  0  0  0  0  0
   35.6580   28.6980   38.4160 C   0  0  0  0  0  0  0  0  0  0  0  0
   35.2630   28.7550   39.7310 C   0  0  0  0  0  0  0  0  0  0  0  0
   35.6950   29.8170   40.4980 C   0  0  0  0  0  0  0  0  0  0  0  0
   36.5110   30.8180   39.9720 C   0  0  0  0  0  0  0  0  0  0  0  0
   36.9130   31.8410   40.7440 N   0  0  0  0  0  0  0  0  0  0  0  0
   37.6970   32.8140   40.2500 C   0  0  0  0  0  0  0  0  0  0  0  0
   38.0960   32.7610   38.9330 C   0  0  0  0  0  0  0  0  0  0  0  0
   37.6860   31.7180   38.1450 C   0  0  0  0  0  0  0  0  0  0  0  0
   36.8660   30.6950   38.6500 C   0  0  0  0  0  0  0  0  0  0  0  0
   36.4580   29.6470   37.8400 C   0  0  0  0  0  0  0  0  0  0  0  0
   34.6400   28.0720   40.2890 H   0  0  0  0  0  0  0  0  0  0  0  0
   35.4310   29.9470   41.5550 H   0  0  0  0  0  0  0  0  0  0  0  0
   38.0380   33.6560   40.8580 H   0  0  0  0  0  0  0  0  0  0  0  0
   38.7180   33.4830   38.4470 H   0  0  0  0  0  0  0  0  0  0  0  0
   37.9670   31.6200   37.0980 H   0  0  0  0  0  0  0  0  0  0  0  0
   36.7590   29.5930   36.8180 H   0  0  0  0  0  0  0  0  0  0  0  0
  1 21  1  0  0  0  0
  1  8  1  0  0  0  0
  2  1  1  0  0  0  0
  3  1  1  0  0  0  0
  4 10  1  0  0  0  0
  4  5  1  0  0  0  0
  5 11  1  0  0  0  0
  6  5  2  0  0  0  0
  6 14  1  0  0  0  0
  7  6  1  0  0  0  0
  8  9  1  0  0  0  0
  8  7  2  0  0  0  0
  9  4  2  0  0  0  0
 12 13  1  0  0  0  0
 13 20  1  0  0  0  0
 14 13  2  0  0  0  0
 14 15  1  0  0  0  0
 15 17  2  0  0  0  0
 16 15  1  0  0  0  0
 17 19  1  0  0  0  0
 17 18  1  0  0  0  0
 20 19  2  0  0  0  0
 21 22  1  0  0  0  0
 22 23  1  0  0  0  0
 23 32  1  0  0  0  0
 23 24  2  0  0  0  0
 24 33  1  0  0  0  0
 25 24  1  0  0  0  0
 25 26  1  0  0  0  0
 27 26  2  0  0  0  0
 27 34  1  0  0  0  0
 28 27  1  0  0  0  0
 29 30  1  0  0  0  0
 29 28  2  0  0  0  0
 30 25  2  0  0  0  0
 31 22  2  0  0  0  0
 31 30  1  0  0  0  0
 35 28  1  0  0  0  0
 36 29  1  0  0  0  0
 37 31  1  0  0  0  0
M  END
>  <minimizedAffinity>
-6.12630653

$$$$

 OpenBabel03242523353D

 37 40  0  0  0  0  0  0  0  0999 V2000
   39.6540   29.7430   41.7060 C   0  0  0  0  0  0  0  0  0  0  0  0
   40.3540   30.0780   42.4980 H   0  0  0  0  0  0  0  0  0  0  0  0
   40.2680   29.1900   40.9420 H   0  0  0  0  0  0  0  0  0  0  0  0
   37.1020   28.1250   43.8690 C   0  0  0  0  0  0  0  0  0  0  0  0
   36.8970   26.9120   43.1820 C   0  0  0  0  0  0  0  0  0  0  0  0
   37.6300   26.6910   42.0140 C   0  0  0  0  0  0  0  0  0  0  0  0
   38.5090   27.6160   41.5580 N   0  0  0  0  0  0  0  0  0  0  0  0
   38.6760   28.7890   42.2650 C   0  0  0  0  0  0  0  0  0  0  0  0
   37.9810   29.0260   43.3940 N   0  0  0  0  0  0  0  0  0  0  0  0
   36.5650   28.3630   44.7840 H   0  0  0  0  0  0  0  0  0  0  0  0
   36.1950   26.2370   43.5970 H   0  0  0  0  0  0  0  0  0  0  0  0
   36.1600   26.5360   39.5750 F   0  0  0  0  0  0  0  0  0  0  0  0
   36.7270   25.4250   40.1010 C   0  0  0  0  0  0  0  0  0  0  0  0
   37.4460   25.4520   41.2770 C   0  0  0  0  0  0  0  0  0  0  0  0
   37.9440   24.2320   41.6520 C   0  0  0  0  0  0  0  0  0  0  0  0
   38.5210   24.1440   42.5570 H   0  0  0  0  0  0  0  0  0  0  0  0
   37.7620   23.0620   40.9440 C   0  0  0  0  0  0  0  0  0  0  0  0
   38.1880   22.1100   41.2980 H   0  0  0  0  0  0  0  0  0  0  0  0
   37.0360   23.0860   39.7760 C   0  0  0  0  0  3  0  0  0  0  0  0
   36.5090   24.2870   39.3460 C   0  0  0  0  0  3  0  0  0  0  0  0
   38.7310   31.0980   40.9620 S   0  0  0  0  0  0  0  0  0  0  0  0
   37.7020   30.5230   39.6320 C   0  0  0  0  0  0  0  0  0  0  0  0
   38.2390   30.5480   38.3670 C   0  0  0  0  0  0  0  0  0  0  0  0
   37.4600   30.1070   37.3170 C   0  0  0  0  0  0  0  0  0  0  0  0
   36.1600   29.6440   37.5120 C   0  0  0  0  0  0  0  0  0  0  0  0
   35.4260   29.2220   36.4700 N   0  0  0  0  0  0  0  0  0  0  0  0
   34.1710   28.7750   36.6430 C   0  0  0  0  0  0  0  0  0  0  0  0
   33.6280   28.7480   37.9090 C   0  0  0  0  0  0  0  0  0  0  0  0
   34.3760   29.1780   38.9730 C   0  0  0  0  0  0  0  0  0  0  0  0
   35.6900   29.6480   38.8040 C   0  0  0  0  0  0  0  0  0  0  0  0
   36.4340   30.0810   39.8900 C   0  0  0  0  0  0  0  0  0  0  0  0
   39.2170   30.8730   38.0440 H   0  0  0  0  0  0  0  0  0  0  0  0
   37.8030   30.0900   36.2750 H   0  0  0  0  0  0  0  0  0  0  0  0
   33.5540   28.4270   35.8100 H   0  0  0  0  0  0  0  0  0  0  0  0
   32.6420   28.4110   38.1500 H   0  0  0  0  0  0  0  0  0  0  0  0
   34.0050   29.1820   39.9960 H   0  0  0  0  0  0  0  0  0  0  0  0
   36.0260   30.0660   40.8760 H   0  0  0  0  0  0  0  0  0  0  0  0
  1  8  1  0  0  0  0
  1  2  1  0  0  0  0
  3  1  1  0  0  0  0
  4 10  1  0  0  0  0
  5 11  1  0  0  0  0
  5  4  2  0  0  0  0
  6  5  1  0  0  0  0
  7  6  2  0  0  0  0
  7  8  1  0  0  0  0
  8  9  2  0  0  0  0
  9  4  1  0  0  0  0
 12 13  1  0  0  0  0
 13 14  1  0  0  0  0
 14 15  2  0  0  0  0
 14  6  1  0  0  0  0
 15 16  1  0  0  0  0
 17 18  1  0  0  0  0
 17 15  1  0  0  0  0
 19 17  2  0  0  0  0
 20 19  1  0  0  0  0
 20 13  2  0  0  0  0
 21  1  1  0  0  0  0
 22 31  1  0  0  0  0
 22 21  1  0  0  0  0
 23 22  2  0  0  0  0
 24 25  2  0  0  0  0
 24 23  1  0  0  0  0
 25 30  1  0  0  0  0
 26 27  2  0  0  0  0
 26 25  1  0  0  0  0
 27 28  1  0  0  0  0
 28 35  1  0  0  0  0
 28 29  2  0  0  0  0
 29 36  1  0  0  0  0
 30 29  1  0  0  0  0
 30 31  2  0  0  0  0
 31 37  1  0  0  0  0
 32 23  1  0  0  0  0
 33 24  1  0  0  0  0
 34 27  1  0  0  0  0
M  END
>  <minimizedAffinity>
-5.93803644

$$$$
