
 OpenBabel03252502423D

 24 25  0  0  0  0  0  0  0  0999 V2000
   46.2490   34.9750   41.7440 C   0  0  0  0  0  0  0  0  0  0  0  0
   46.0200   33.9710   41.3190 H   0  0  0  0  0  0  0  0  0  0  0  0
   45.8110   35.8060   41.1890 H   0  0  0  0  0  0  0  0  0  0  0  0
   44.4750   35.9750   44.9050 C   0  0  0  0  0  0  0  0  0  0  0  0
   44.9500   36.0010   43.5760 C   0  0  0  0  0  0  0  0  0  0  0  0
   45.7470   34.9560   43.1350 C   0  0  0  0  0  0  0  0  0  0  0  0
   46.0240   33.9630   44.0160 N   0  0  0  0  0  0  0  0  0  0  0  0
   45.5560   33.9570   45.2870 C   0  0  0  0  0  0  0  0  0  0  0  0
   44.7910   34.9490   45.7310 N   0  0  0  0  0  0  0  0  0  0  0  0
   43.8670   36.8460   45.1240 H   0  0  0  0  0  0  0  0  0  0  0  0
   44.7200   36.8000   42.8840 H   0  0  0  0  0  0  0  0  0  0  0  0
   45.7800   33.1590   45.9870 H   0  0  0  0  0  0  0  0  0  0  0  0
   47.7720   35.0550   41.7840 C   0  0  0  0  0  0  0  0  0  0  0  0
   48.0910   36.0780   41.5540 H   0  0  0  0  0  0  0  0  0  0  0  0
   48.1580   34.6850   42.7450 H   0  0  0  0  0  0  0  0  0  0  0  0
   49.2200   32.8250   42.4920 F   0  0  0  0  0  0  0  0  0  0  0  0
   48.9560   33.0370   41.1770 C   0  0  0  0  0  0  0  0  0  0  0  0
   48.2330   34.1330   40.7130 C   0  0  0  0  0  0  0  0  0  0  0  0
   48.0390   34.2260   39.3460 C   0  0  0  0  0  0  0  0  0  0  0  0
   47.4740   35.0940   39.0540 H   0  0  0  0  0  0  0  0  0  0  0  0
   48.5560   33.2530   38.5190 C   0  0  0  0  0  0  0  0  0  0  0  0
   48.3760   33.3700   37.4550 H   0  0  0  0  0  0  0  0  0  0  0  0
   49.2710   32.1670   38.9770 C   0  0  0  0  0  3  0  0  0  0  0  0
   49.4690   32.0730   40.3580 C   0  0  0  0  0  3  0  0  0  0  0  0
  1 13  1  0  0  0  0
  1  6  1  0  0  0  0
  2  1  1  0  0  0  0
  3  1  1  0  0  0  0
  4 10  1  0  0  0  0
  4  9  1  0  0  0  0
  5  4  2  0  0  0  0
  6  5  1  0  0  0  0
  6  7  2  0  0  0  0
  7  8  1  0  0  0  0
  8  9  2  0  0  0  0
  8 12  1  0  0  0  0
 11  5  1  0  0  0  0
 13 15  1  0  0  0  0
 14 13  1  0  0  0  0
 17 16  1  0  0  0  0
 18 17  1  0  0  0  0
 18 13  1  0  0  0  0
 19 18  2  0  0  0  0
 20 19  1  0  0  0  0
 21 23  2  0  0  0  0
 21 19  1  0  0  0  0
 22 21  1  0  0  0  0
 23 24  1  0  0  0  0
 24 17  2  0  0  0  0
M  END
>  <minimizedAffinity>
-4.47681618

>  <minimizedRMSD>
1.58781517

$$$$
