REMARK  Name = 
REMARK  4 active torsions:
REMARK  status: ('A' for Active; 'I' for Inactive)
REMARK    1  A    between atoms: C_1  and  C_8
REMARK    2  A    between atoms: C_2  and  S_7
REMARK    3  A    between atoms: C_8  and  C_9
REMARK    4  A    between atoms: C_9  and  C_19
REMARK                            x       y       z     vdW  Elec       q    Type
REMARK                         _______ _______ _______ _____ _____    ______ ____
ROOT
ATOM      1  C   UNL     1      48.548  35.347  40.960  0.00  0.00    +0.000 C 
ATOM      2  H   UNL     1      49.629  35.276  41.218  0.00  0.00    +0.000 HD
ATOM      3  H   UNL     1      48.266  36.436  40.837  0.00  0.00    +0.000 HD
ENDROOT
BRANCH   1   4
ATOM      4  C   UNL     1      47.751  34.840  42.095  0.00  0.00    +0.000 A 
ATOM      5  C   UNL     1      48.317  33.802  42.830  0.00  0.00    +0.000 A 
ATOM      6  C   UNL     1      47.590  33.293  43.917  0.00  0.00    +0.000 A 
ATOM      7  N   UNL     1      46.368  33.833  44.205  0.00  0.00    +0.000 NA
ATOM      8  C   UNL     1      45.867  34.828  43.468  0.00  0.00    +0.000 A 
ATOM      9  N   UNL     1      46.526  35.337  42.430  0.00  0.00    +0.000 NA
ATOM     10  H   UNL     1      48.017  32.479  44.508  0.00  0.00    +0.000 HD
ATOM     11  H   UNL     1      44.890  35.255  43.702  0.00  0.00    +0.000 HD
BRANCH   5  12
ATOM     12  S   UNL     1      49.910  33.143  42.410  0.00  0.00    +0.000 S 
ATOM     13  H   UNL     1      49.892  31.790  42.109  0.00  0.00    +0.000 HD
ENDBRANCH   5  12
ENDBRANCH   1   4
BRANCH   1  14
ATOM     14  C   UNL     1      48.188  34.706  39.655  0.00  0.00    +0.000 C 
ATOM     15  H   UNL     1      48.196  33.577  39.735  0.00  0.00    +0.000 HD
ATOM     16  H   UNL     1      47.111  34.930  39.485  0.00  0.00    +0.000 HD
BRANCH  14  19
ATOM     17  F   UNL     1      50.643  36.168  39.756  0.00  0.00    +0.000 F 
ATOM     18  C   UNL     1      50.139  35.894  38.551  0.00  0.00    +0.000 A 
ATOM     19  C   UNL     1      48.950  35.186  38.503  0.00  0.00    +0.000 A 
ATOM     20  C   UNL     1      48.474  34.935  37.209  0.00  0.00    +0.000 A 
ATOM     21  H   UNL     1      47.550  34.384  37.131  0.00  0.00    +0.000 HD
ATOM     22  C   UNL     1      49.126  35.353  36.069  0.00  0.00    +0.000 A 
ATOM     23  H   UNL     1      48.691  35.119  35.099  0.00  0.00    +0.000 HD
ATOM     24  C   UNL     1      50.304  36.053  36.209  0.00  0.00    +0.000 A 
ATOM     25  C   UNL     1      50.842  36.343  37.452  0.00  0.00    +0.000 A 
ENDBRANCH  14  19
ENDBRANCH   1  14
TORSDOF 4
