
 OpenBabel03252507413D

 25 26  0  0  0  0  0  0  0  0999 V2000
   38.9970   29.4670   42.7610 C   0  0  0  0  0  0  0  0  0  0  0  0
   39.5760   30.1660   43.4070 H   0  0  0  0  0  0  0  0  0  0  0  0
   39.7160   28.8560   42.1370 H   0  0  0  0  0  0  0  0  0  0  0  0
   38.1900   30.2550   41.8090 C   0  0  0  0  0  0  0  0  0  0  0  0
   38.8590   31.2630   41.1200 C   0  0  0  0  0  0  0  0  0  0  0  0
   38.1260   32.0340   40.2050 C   0  0  0  0  0  0  0  0  0  0  0  0
   36.7970   31.7650   40.0310 N   0  0  0  0  0  0  0  0  0  0  0  0
   36.2000   30.7880   40.7170 C   0  0  0  0  0  0  0  0  0  0  0  0
   36.8610   30.0350   41.5930 N   0  0  0  0  0  0  0  0  0  0  0  0
   38.6330   32.8290   39.6530 H   0  0  0  0  0  0  0  0  0  0  0  0
   35.1380   30.5780   40.5750 H   0  0  0  0  0  0  0  0  0  0  0  0
   40.5880   31.5630   41.3860 S   0  0  0  0  0  0  0  0  0  0  0  0
   40.8690   32.8450   41.8310 H   0  0  0  0  0  0  0  0  0  0  0  0
   38.1920   28.4580   43.5200 C   0  0  0  0  0  0  0  0  0  0  0  0
   38.2500   28.6400   44.6360 H   0  0  0  0  0  0  0  0  0  0  0  0
   37.1250   28.6760   43.2940 H   0  0  0  0  0  0  0  0  0  0  0  0
   36.5730   26.7960   41.8480 F   0  0  0  0  0  0  0  0  0  0  0  0
   37.6820   26.2590   42.3620 C   0  0  0  0  0  0  0  0  0  0  0  0
   38.4660   27.0640   43.1710 C   0  0  0  0  0  0  0  0  0  0  0  0
   39.6130   26.4380   43.6800 C   0  0  0  0  0  0  0  0  0  0  0  0
   40.2490   27.0350   44.3140 H   0  0  0  0  0  0  0  0  0  0  0  0
   39.9450   25.1300   43.4030 C   0  0  0  0  0  0  0  0  0  0  0  0
   40.8530   24.7150   43.8370 H   0  0  0  0  0  0  0  0  0  0  0  0
   39.1070   24.4010   42.5890 C   0  0  0  0  0  3  0  0  0  0  0  0
   37.9540   24.9440   42.0460 C   0  0  0  0  0  3  0  0  0  0  0  0
  1  2  1  0  0  0  0
  1 14  1  0  0  0  0
  3  1  1  0  0  0  0
  4  1  1  0  0  0  0
  5 12  1  0  0  0  0
  5  4  2  0  0  0  0
  6  5  1  0  0  0  0
  7  6  2  0  0  0  0
  7  8  1  0  0  0  0
  8  9  2  0  0  0  0
  9  4  1  0  0  0  0
 10  6  1  0  0  0  0
 11  8  1  0  0  0  0
 12 13  1  0  0  0  0
 14 15  1  0  0  0  0
 16 14  1  0  0  0  0
 17 18  1  0  0  0  0
 18 19  1  0  0  0  0
 19 14  1  0  0  0  0
 19 20  2  0  0  0  0
 20 21  1  0  0  0  0
 22 20  1  0  0  0  0
 22 23  1  0  0  0  0
 24 22  2  0  0  0  0
 25 18  2  0  0  0  0
 25 24  1  0  0  0  0
M  END
>  <minimizedAffinity>
-4.89998293

$$$$

 OpenBabel03252507413D

 25 26  0  0  0  0  0  0  0  0999 V2000
   36.9630   30.8250   39.9180 C   0  0  0  0  0  0  0  0  0  0  0  0
   37.3820   29.9360   39.3940 H   0  0  0  0  0  0  0  0  0  0  0  0
   36.0450   31.1850   39.3630 H   0  0  0  0  0  0  0  0  0  0  0  0
   37.9440   31.9270   39.8490 C   0  0  0  0  0  0  0  0  0  0  0  0
   39.2340   31.5790   39.4560 C   0  0  0  0  0  0  0  0  0  0  0  0
   40.1950   32.5990   39.3780 C   0  0  0  0  0  0  0  0  0  0  0  0
   39.8280   33.8780   39.6880 N   0  0  0  0  0  0  0  0  0  0  0  0
   38.5770   34.1610   40.0620 C   0  0  0  0  0  0  0  0  0  0  0  0
   37.6380   33.2220   40.1480 N   0  0  0  0  0  0  0  0  0  0  0  0
   41.2130   32.3470   39.0700 H   0  0  0  0  0  0  0  0  0  0  0  0
   38.2890   35.1840   40.3100 H   0  0  0  0  0  0  0  0  0  0  0  0
   39.6510   29.9000   39.0610 S   0  0  0  0  0  0  0  0  0  0  0  0
   40.6610   29.3760   39.8530 H   0  0  0  0  0  0  0  0  0  0  0  0
   36.4880   30.5470   41.3100 C   0  0  0  0  0  0  0  0  0  0  0  0
   36.5390   31.4750   41.9560 H   0  0  0  0  0  0  0  0  0  0  0  0
   35.3930   30.3630   41.2350 H   0  0  0  0  0  0  0  0  0  0  0  0
   38.9830   30.5410   42.7080 F   0  0  0  0  0  0  0  0  0  0  0  0
   38.3180   29.3860   42.6290 C   0  0  0  0  0  0  0  0  0  0  0  0
   37.1110   29.3900   41.9530 C   0  0  0  0  0  0  0  0  0  0  0  0
   36.4660   28.1450   41.9040 C   0  0  0  0  0  0  0  0  0  0  0  0
   35.5220   28.1080   41.3850 H   0  0  0  0  0  0  0  0  0  0  0  0
   36.9830   27.0040   42.4790 C   0  0  0  0  0  0  0  0  0  0  0  0
   36.4230   26.0750   42.3970 H   0  0  0  0  0  0  0  0  0  0  0  0
   38.1920   27.0910   43.1320 C   0  0  0  0  0  3  0  0  0  0  0  0
   38.8920   28.2820   43.2260 C   0  0  0  0  0  3  0  0  0  0  0  0
  1 14  1  0  0  0  0
  2  1  1  0  0  0  0
  3  1  1  0  0  0  0
  4  1  1  0  0  0  0
  4  9  1  0  0  0  0
  5  4  2  0  0  0  0
  6  5  1  0  0  0  0
  6  7  2  0  0  0  0
  7  8  1  0  0  0  0
  8  9  2  0  0  0  0
  8 11  1  0  0  0  0
 10  6  1  0  0  0  0
 12  5  1  0  0  0  0
 12 13  1  0  0  0  0
 14 19  1  0  0  0  0
 14 15  1  0  0  0  0
 16 14  1  0  0  0  0
 18 17  1  0  0  0  0
 18 25  1  0  0  0  0
 19 18  2  0  0  0  0
 20 19  1  0  0  0  0
 20 22  2  0  0  0  0
 21 20  1  0  0  0  0
 22 24  1  0  0  0  0
 23 22  1  0  0  0  0
 24 25  2  0  0  0  0
M  END
>  <minimizedAffinity>
-4.68928623

$$$$

 OpenBabel03252507413D

 25 26  0  0  0  0  0  0  0  0999 V2000
   37.3550   28.5820   43.1430 C   0  0  0  0  0  0  0  0  0  0  0  0
   36.5230   28.1610   42.5350 H   0  0  0  0  0  0  0  0  0  0  0  0
   36.9300   29.0490   44.0820 H   0  0  0  0  0  0  0  0  0  0  0  0
   37.9910   29.6800   42.3880 C   0  0  0  0  0  0  0  0  0  0  0  0
   37.3260   30.1060   41.2420 C   0  0  0  0  0  0  0  0  0  0  0  0
   37.8990   31.1480   40.4970 C   0  0  0  0  0  0  0  0  0  0  0  0
   39.0750   31.6960   40.9250 N   0  0  0  0  0  0  0  0  0  0  0  0
   39.6760   31.2510   42.0320 C   0  0  0  0  0  0  0  0  0  0  0  0
   39.1640   30.2650   42.7650 N   0  0  0  0  0  0  0  0  0  0  0  0
   37.3920   31.4980   39.5950 H   0  0  0  0  0  0  0  0  0  0  0  0
   40.6170   31.6920   42.3690 H   0  0  0  0  0  0  0  0  0  0  0  0
   35.7980   29.3570   40.7370 S   0  0  0  0  0  0  0  0  0  0  0  0
   35.8470   28.7880   39.4740 H   0  0  0  0  0  0  0  0  0  0  0  0
   38.3340   27.5590   43.6310 C   0  0  0  0  0  0  0  0  0  0  0  0
   39.3820   27.9820   43.6800 H   0  0  0  0  0  0  0  0  0  0  0  0
   38.0930   27.3840   44.7040 H   0  0  0  0  0  0  0  0  0  0  0  0
   40.4580   25.6500   43.4690 F   0  0  0  0  0  0  0  0  0  0  0  0
   39.3130   25.3530   42.8500 C   0  0  0  0  0  0  0  0  0  0  0  0
   38.2850   26.2770   42.9290 C   0  0  0  0  0  0  0  0  0  0  0  0
   37.1130   25.9050   42.2550 C   0  0  0  0  0  0  0  0  0  0  0  0
   36.2900   26.5990   42.2950 H   0  0  0  0  0  0  0  0  0  0  0  0
   36.9830   24.7180   41.5670 C   0  0  0  0  0  0  0  0  0  0  0  0
   36.0400   24.5010   41.0680 H   0  0  0  0  0  0  0  0  0  0  0  0
   38.0570   23.8570   41.5390 C   0  0  0  0  0  3  0  0  0  0  0  0
   39.2500   24.1490   42.1790 C   0  0  0  0  0  3  0  0  0  0  0  0
  1 14  1  0  0  0  0
  1  3  1  0  0  0  0
  2  1  1  0  0  0  0
  4  9  1  0  0  0  0
  4  1  1  0  0  0  0
  5  4  2  0  0  0  0
  6  7  2  0  0  0  0
  6  5  1  0  0  0  0
  7  8  1  0  0  0  0
  8 11  1  0  0  0  0
  8  9  2  0  0  0  0
 10  6  1  0  0  0  0
 12  5  1  0  0  0  0
 13 12  1  0  0  0  0
 14 15  1  0  0  0  0
 14 16  1  0  0  0  0
 18 19  1  0  0  0  0
 18 17  1  0  0  0  0
 19 14  1  0  0  0  0
 20 21  1  0  0  0  0
 20 19  2  0  0  0  0
 22 20  1  0  0  0  0
 23 22  1  0  0  0  0
 24 22  2  0  0  0  0
 24 25  1  0  0  0  0
 25 18  2  0  0  0  0
M  END
>  <minimizedAffinity>
-4.66767597

$$$$

 OpenBabel03252507413D

 25 26  0  0  0  0  0  0  0  0999 V2000
   36.2570   27.6740   40.0360 C   0  0  0  0  0  0  0  0  0  0  0  0
   35.6740   26.7260   39.9920 H   0  0  0  0  0  0  0  0  0  0  0  0
   37.0200   27.6800   39.2000 H   0  0  0  0  0  0  0  0  0  0  0  0
   37.0250   27.7060   41.2960 C   0  0  0  0  0  0  0  0  0  0  0  0
   38.4090   27.6190   41.1760 C   0  0  0  0  0  0  0  0  0  0  0  0
   39.1740   27.6460   42.3520 C   0  0  0  0  0  0  0  0  0  0  0  0
   38.5340   27.7550   43.5550 N   0  0  0  0  0  0  0  0  0  0  0  0
   37.2020   27.8340   43.6170 C   0  0  0  0  0  0  0  0  0  0  0  0
   36.4420   27.8120   42.5250 N   0  0  0  0  0  0  0  0  0  0  0  0
   40.2630   27.5810   42.2800 H   0  0  0  0  0  0  0  0  0  0  0  0
   36.6950   27.9200   44.5800 H   0  0  0  0  0  0  0  0  0  0  0  0
   39.1850   27.4820   39.5870 S   0  0  0  0  0  0  0  0  0  0  0  0
   39.9470   26.3340   39.4360 H   0  0  0  0  0  0  0  0  0  0  0  0
   35.4340   28.9070   39.8160 C   0  0  0  0  0  0  0  0  0  0  0  0
   34.5950   28.7160   39.0810 H   0  0  0  0  0  0  0  0  0  0  0  0
   34.8870   29.0890   40.7680 H   0  0  0  0  0  0  0  0  0  0  0  0
   36.0350   31.0640   41.5960 F   0  0  0  0  0  0  0  0  0  0  0  0
   36.4920   31.1510   40.3440 C   0  0  0  0  0  0  0  0  0  0  0  0
   36.2010   30.1060   39.4840 C   0  0  0  0  0  0  0  0  0  0  0  0
   36.7070   30.2630   38.1850 C   0  0  0  0  0  0  0  0  0  0  0  0
   36.5010   29.4680   37.4860 H   0  0  0  0  0  0  0  0  0  0  0  0
   37.4370   31.3620   37.7870 C   0  0  0  0  0  0  0  0  0  0  0  0
   37.7950   31.4100   36.7600 H   0  0  0  0  0  0  0  0  0  0  0  0
   37.6790   32.3560   38.7090 C   0  0  0  0  0  3  0  0  0  0  0  0
   37.2150   32.2780   40.0110 C   0  0  0  0  0  3  0  0  0  0  0  0
  1  4  1  0  0  0  0
  2  1  1  0  0  0  0
  3  1  1  0  0  0  0
  4  9  1  0  0  0  0
  5  4  2  0  0  0  0
  5  6  1  0  0  0  0
  6  7  2  0  0  0  0
  7  8  1  0  0  0  0
  8 11  1  0  0  0  0
  9  8  2  0  0  0  0
 10  6  1  0  0  0  0
 12  5  1  0  0  0  0
 13 12  1  0  0  0  0
 14  1  1  0  0  0  0
 14 16  1  0  0  0  0
 15 14  1  0  0  0  0
 18 17  1  0  0  0  0
 19 14  1  0  0  0  0
 19 18  2  0  0  0  0
 20 19  1  0  0  0  0
 21 20  1  0  0  0  0
 22 20  2  0  0  0  0
 22 24  1  0  0  0  0
 23 22  1  0  0  0  0
 24 25  2  0  0  0  0
 25 18  1  0  0  0  0
M  END
>  <minimizedAffinity>
-4.64101696

$$$$

 OpenBabel03252507413D

 25 26  0  0  0  0  0  0  0  0999 V2000
   38.5810   29.4600   42.8510 C   0  0  0  0  0  0  0  0  0  0  0  0
   38.7850   30.3810   43.4420 H   0  0  0  0  0  0  0  0  0  0  0  0
   39.5630   28.9670   42.5800 H   0  0  0  0  0  0  0  0  0  0  0  0
   37.9460   29.8410   41.5740 C   0  0  0  0  0  0  0  0  0  0  0  0
   38.6870   29.6010   40.4210 C   0  0  0  0  0  0  0  0  0  0  0  0
   38.1170   29.9500   39.1870 C   0  0  0  0  0  0  0  0  0  0  0  0
   36.8690   30.5060   39.1700 N   0  0  0  0  0  0  0  0  0  0  0  0
   36.1970   30.7180   40.3050 C   0  0  0  0  0  0  0  0  0  0  0  0
   36.7040   30.4010   41.4940 N   0  0  0  0  0  0  0  0  0  0  0  0
   38.6820   29.7680   38.2690 H   0  0  0  0  0  0  0  0  0  0  0  0
   35.2010   31.1630   40.2860 H   0  0  0  0  0  0  0  0  0  0  0  0
   40.3030   28.8730   40.5050 S   0  0  0  0  0  0  0  0  0  0  0  0
   41.3020   29.6680   39.9640 H   0  0  0  0  0  0  0  0  0  0  0  0
   37.8170   28.4110   43.5990 C   0  0  0  0  0  0  0  0  0  0  0  0
   37.9710   28.5080   44.7160 H   0  0  0  0  0  0  0  0  0  0  0  0
   36.7400   28.6670   43.4790 H   0  0  0  0  0  0  0  0  0  0  0  0
   40.2820   26.9640   43.6790 F   0  0  0  0  0  0  0  0  0  0  0  0
   39.2180   26.3420   43.1650 C   0  0  0  0  0  0  0  0  0  0  0  0
   38.0250   27.0430   43.1270 C   0  0  0  0  0  0  0  0  0  0  0  0
   36.9500   26.3340   42.5720 C   0  0  0  0  0  0  0  0  0  0  0  0
   36.0040   26.8480   42.5260 H   0  0  0  0  0  0  0  0  0  0  0  0
   37.0600   25.0440   42.1000 C   0  0  0  0  0  0  0  0  0  0  0  0
   36.1780   24.5610   41.6820 H   0  0  0  0  0  0  0  0  0  0  0  0
   38.2860   24.4220   42.1760 C   0  0  0  0  0  3  0  0  0  0  0  0
   39.3970   25.0520   42.7100 C   0  0  0  0  0  3  0  0  0  0  0  0
  1  2  1  0  0  0  0
  1 14  1  0  0  0  0
  3  1  1  0  0  0  0
  4  1  1  0  0  0  0
  5 12  1  0  0  0  0
  5  4  2  0  0  0  0
  6  5  1  0  0  0  0
  7  6  2  0  0  0  0
  7  8  1  0  0  0  0
  8  9  2  0  0  0  0
  9  4  1  0  0  0  0
 10  6  1  0  0  0  0
 11  8  1  0  0  0  0
 13 12  1  0  0  0  0
 14 15  1  0  0  0  0
 16 14  1  0  0  0  0
 18 17  1  0  0  0  0
 19 18  1  0  0  0  0
 19 14  1  0  0  0  0
 20 19  2  0  0  0  0
 21 20  1  0  0  0  0
 22 24  2  0  0  0  0
 22 20  1  0  0  0  0
 23 22  1  0  0  0  0
 24 25  1  0  0  0  0
 25 18  2  0  0  0  0
M  END
>  <minimizedAffinity>
-4.62288475

$$$$

 OpenBabel03252507413D

 25 26  0  0  0  0  0  0  0  0999 V2000
   36.8090   30.7110   39.4830 C   0  0  0  0  0  0  0  0  0  0  0  0
   37.3250   29.8600   38.9830 H   0  0  0  0  0  0  0  0  0  0  0  0
   35.9840   31.0930   38.8090 H   0  0  0  0  0  0  0  0  0  0  0  0
   37.7650   31.8260   39.6370 C   0  0  0  0  0  0  0  0  0  0  0  0
   39.1090   31.5140   39.4580 C   0  0  0  0  0  0  0  0  0  0  0  0
   40.0490   32.5470   39.5960 C   0  0  0  0  0  0  0  0  0  0  0  0
   39.6070   33.8050   39.8990 N   0  0  0  0  0  0  0  0  0  0  0  0
   38.3050   34.0530   40.0630 C   0  0  0  0  0  0  0  0  0  0  0  0
   37.3850   33.1000   39.9400 N   0  0  0  0  0  0  0  0  0  0  0  0
   41.1090   32.3240   39.4570 H   0  0  0  0  0  0  0  0  0  0  0  0
   37.9580   35.0590   40.3050 H   0  0  0  0  0  0  0  0  0  0  0  0
   39.6230   29.8620   39.0620 S   0  0  0  0  0  0  0  0  0  0  0  0
   40.4910   29.3110   39.9920 H   0  0  0  0  0  0  0  0  0  0  0  0
   36.1230   30.3420   40.7620 C   0  0  0  0  0  0  0  0  0  0  0  0
   35.9780   31.2470   41.4270 H   0  0  0  0  0  0  0  0  0  0  0  0
   35.0780   30.0720   40.4880 H   0  0  0  0  0  0  0  0  0  0  0  0
   35.8120   27.5760   40.1070 F   0  0  0  0  0  0  0  0  0  0  0  0
   36.5710   27.8780   41.1630 C   0  0  0  0  0  0  0  0  0  0  0  0
   36.7210   29.2170   41.4790 C   0  0  0  0  0  0  0  0  0  0  0  0
   37.5280   29.4650   42.6000 C   0  0  0  0  0  0  0  0  0  0  0  0
   37.6690   30.4970   42.8770 H   0  0  0  0  0  0  0  0  0  0  0  0
   38.1270   28.4640   43.3340 C   0  0  0  0  0  0  0  0  0  0  0  0
   38.7380   28.7370   44.1920 H   0  0  0  0  0  0  0  0  0  0  0  0
   37.9230   27.1580   42.9490 C   0  0  0  0  0  3  0  0  0  0  0  0
   37.1410   26.8290   41.8550 C   0  0  0  0  0  3  0  0  0  0  0  0
  1  4  1  0  0  0  0
  1 14  1  0  0  0  0
  2  1  1  0  0  0  0
  3  1  1  0  0  0  0
  4  9  1  0  0  0  0
  5  6  1  0  0  0  0
  5  4  2  0  0  0  0
  6  7  2  0  0  0  0
  7  8  1  0  0  0  0
  8 11  1  0  0  0  0
  9  8  2  0  0  0  0
 10  6  1  0  0  0  0
 12  5  1  0  0  0  0
 12 13  1  0  0  0  0
 14 15  1  0  0  0  0
 14 19  1  0  0  0  0
 16 14  1  0  0  0  0
 17 18  1  0  0  0  0
 18 19  2  0  0  0  0
 18 25  1  0  0  0  0
 19 20  1  0  0  0  0
 20 21  1  0  0  0  0
 20 22  2  0  0  0  0
 22 23  1  0  0  0  0
 24 22  1  0  0  0  0
 25 24  2  0  0  0  0
M  END
>  <minimizedAffinity>
-4.56777382

$$$$

 OpenBabel03252507413D

 25 26  0  0  0  0  0  0  0  0999 V2000
   38.8620   27.0190   43.5060 C   0  0  0  0  0  0  0  0  0  0  0  0
   39.8380   27.3760   43.1060 H   0  0  0  0  0  0  0  0  0  0  0  0
   39.0120   26.6270   44.5570 H   0  0  0  0  0  0  0  0  0  0  0  0
   38.4060   25.8700   42.6980 C   0  0  0  0  0  0  0  0  0  0  0  0
   39.3890   24.9700   42.2960 C   0  0  0  0  0  0  0  0  0  0  0  0
   38.9950   23.8650   41.5270 C   0  0  0  0  0  0  0  0  0  0  0  0
   37.6740   23.7200   41.2070 N   0  0  0  0  0  0  0  0  0  0  0  0
   36.7680   24.6130   41.6160 C   0  0  0  0  0  0  0  0  0  0  0  0
   37.1030   25.6730   42.3460 N   0  0  0  0  0  0  0  0  0  0  0  0
   39.7510   23.1460   41.2020 H   0  0  0  0  0  0  0  0  0  0  0  0
   35.7150   24.4930   41.3570 H   0  0  0  0  0  0  0  0  0  0  0  0
   41.0900   25.2090   42.7450 S   0  0  0  0  0  0  0  0  0  0  0  0
   41.9420   25.3230   41.6580 H   0  0  0  0  0  0  0  0  0  0  0  0
   37.8270   28.0930   43.6400 C   0  0  0  0  0  0  0  0  0  0  0  0
   36.7820   27.6580   43.6520 H   0  0  0  0  0  0  0  0  0  0  0  0
   37.9320   28.5000   44.6700 H   0  0  0  0  0  0  0  0  0  0  0  0
   35.9350   28.7960   41.6130 F   0  0  0  0  0  0  0  0  0  0  0  0
   37.0430   29.5360   41.7070 C   0  0  0  0  0  0  0  0  0  0  0  0
   37.9570   29.1950   42.6880 C   0  0  0  0  0  0  0  0  0  0  0  0
   39.0980   30.0100   42.7300 C   0  0  0  0  0  0  0  0  0  0  0  0
   39.8330   29.7760   43.4830 H   0  0  0  0  0  0  0  0  0  0  0  0
   39.3030   31.0670   41.8700 C   0  0  0  0  0  0  0  0  0  0  0  0
   40.2150   31.6530   41.9660 H   0  0  0  0  0  0  0  0  0  0  0  0
   38.3400   31.3350   40.9220 C   0  0  0  0  0  3  0  0  0  0  0  0
   37.1850   30.5790   40.8140 C   0  0  0  0  0  3  0  0  0  0  0  0
  1 14  1  0  0  0  0
  1  3  1  0  0  0  0
  2  1  1  0  0  0  0
  4  1  1  0  0  0  0
  5  4  2  0  0  0  0
  5 12  1  0  0  0  0
  6  5  1  0  0  0  0
  7  6  2  0  0  0  0
  7  8  1  0  0  0  0
  8  9  2  0  0  0  0
  9  4  1  0  0  0  0
 10  6  1  0  0  0  0
 11  8  1  0  0  0  0
 13 12  1  0  0  0  0
 14 15  1  0  0  0  0
 14 16  1  0  0  0  0
 17 18  1  0  0  0  0
 18 19  1  0  0  0  0
 19 20  2  0  0  0  0
 19 14  1  0  0  0  0
 20 21  1  0  0  0  0
 22 23  1  0  0  0  0
 22 20  1  0  0  0  0
 24 22  2  0  0  0  0
 25 24  1  0  0  0  0
 25 18  2  0  0  0  0
M  END
>  <minimizedAffinity>
-4.54754829

$$$$

 OpenBabel03252507413D

 25 26  0  0  0  0  0  0  0  0999 V2000
   36.5000   28.1510   40.8060 C   0  0  0  0  0  0  0  0  0  0  0  0
   37.0300   27.4470   40.1250 H   0  0  0  0  0  0  0  0  0  0  0  0
   35.3940   28.1360   40.5690 H   0  0  0  0  0  0  0  0  0  0  0  0
   36.9630   29.5250   40.5280 C   0  0  0  0  0  0  0  0  0  0  0  0
   36.5120   30.0990   39.3420 C   0  0  0  0  0  0  0  0  0  0  0  0
   36.9300   31.4040   39.0430 C   0  0  0  0  0  0  0  0  0  0  0  0
   37.7550   32.0520   39.9200 N   0  0  0  0  0  0  0  0  0  0  0  0
   38.1610   31.4570   41.0450 C   0  0  0  0  0  0  0  0  0  0  0  0
   37.7860   30.2210   41.3640 N   0  0  0  0  0  0  0  0  0  0  0  0
   36.5870   31.8740   38.1180 H   0  0  0  0  0  0  0  0  0  0  0  0
   38.8200   31.9790   41.7420 H   0  0  0  0  0  0  0  0  0  0  0  0
   35.4400   29.2100   38.2430 S   0  0  0  0  0  0  0  0  0  0  0  0
   35.9640   29.0370   36.9710 H   0  0  0  0  0  0  0  0  0  0  0  0
   36.5890   27.7810   42.2550 C   0  0  0  0  0  0  0  0  0  0  0  0
   36.6290   28.7020   42.9130 H   0  0  0  0  0  0  0  0  0  0  0  0
   35.6060   27.3340   42.5230 H   0  0  0  0  0  0  0  0  0  0  0  0
   36.6310   25.0190   41.5140 F   0  0  0  0  0  0  0  0  0  0  0  0
   37.6630   25.4830   42.2230 C   0  0  0  0  0  0  0  0  0  0  0  0
   37.6420   26.8200   42.5810 C   0  0  0  0  0  0  0  0  0  0  0  0
   38.7530   27.2410   43.3270 C   0  0  0  0  0  0  0  0  0  0  0  0
   38.7720   28.2770   43.6230 H   0  0  0  0  0  0  0  0  0  0  0  0
   39.7870   26.4020   43.6800 C   0  0  0  0  0  0  0  0  0  0  0  0
   40.6150   26.8040   44.2610 H   0  0  0  0  0  0  0  0  0  0  0  0
   39.7250   25.0850   43.2820 C   0  0  0  0  0  3  0  0  0  0  0  0
   38.6640   24.5890   42.5440 C   0  0  0  0  0  3  0  0  0  0  0  0
  1 14  1  0  0  0  0
  2  1  1  0  0  0  0
  3  1  1  0  0  0  0
  4  1  1  0  0  0  0
  4  9  1  0  0  0  0
  5  4  2  0  0  0  0
  6  5  1  0  0  0  0
  6  7  2  0  0  0  0
  7  8  1  0  0  0  0
  8  9  2  0  0  0  0
  8 11  1  0  0  0  0
 10  6  1  0  0  0  0
 12  5  1  0  0  0  0
 13 12  1  0  0  0  0
 14 16  1  0  0  0  0
 14 19  1  0  0  0  0
 14 15  1  0  0  0  0
 17 18  1  0  0  0  0
 18 25  2  0  0  0  0
 18 19  1  0  0  0  0
 19 20  2  0  0  0  0
 20 21  1  0  0  0  0
 20 22  1  0  0  0  0
 22 23  1  0  0  0  0
 24 22  2  0  0  0  0
 25 24  1  0  0  0  0
M  END
>  <minimizedAffinity>
-4.54200411

$$$$

 OpenBabel03252507413D

 25 26  0  0  0  0  0  0  0  0999 V2000
   37.9300   27.4420   43.6450 C   0  0  0  0  0  0  0  0  0  0  0  0
   37.6580   27.2480   44.7080 H   0  0  0  0  0  0  0  0  0  0  0  0
   37.1090   27.0470   42.9740 H   0  0  0  0  0  0  0  0  0  0  0  0
   39.1430   26.6690   43.3130 C   0  0  0  0  0  0  0  0  0  0  0  0
   38.9470   25.4960   42.5900 C   0  0  0  0  0  0  0  0  0  0  0  0
   40.0760   24.7330   42.2540 C   0  0  0  0  0  0  0  0  0  0  0  0
   41.3090   25.1710   42.6480 N   0  0  0  0  0  0  0  0  0  0  0  0
   41.4450   26.3040   43.3420 C   0  0  0  0  0  0  0  0  0  0  0  0
   40.3990   27.0540   43.6790 N   0  0  0  0  0  0  0  0  0  0  0  0
   39.9440   23.8090   41.6860 H   0  0  0  0  0  0  0  0  0  0  0  0
   42.4330   26.6490   43.6540 H   0  0  0  0  0  0  0  0  0  0  0  0
   37.3200   24.9790   42.1040 S   0  0  0  0  0  0  0  0  0  0  0  0
   36.9590   23.7350   42.5980 H   0  0  0  0  0  0  0  0  0  0  0  0
   38.0440   28.8950   43.3000 C   0  0  0  0  0  0  0  0  0  0  0  0
   37.8060   29.5500   44.1920 H   0  0  0  0  0  0  0  0  0  0  0  0
   39.1270   29.0910   43.1360 H   0  0  0  0  0  0  0  0  0  0  0  0
   38.6420   31.1540   41.6510 F   0  0  0  0  0  0  0  0  0  0  0  0
   37.6000   30.3950   41.3030 C   0  0  0  0  0  0  0  0  0  0  0  0
   37.3110   29.3020   42.1020 C   0  0  0  0  0  0  0  0  0  0  0  0
   36.2030   28.5500   41.6830 C   0  0  0  0  0  0  0  0  0  0  0  0
   35.9480   27.6900   42.2800 H   0  0  0  0  0  0  0  0  0  0  0  0
   35.4560   28.8640   40.5680 C   0  0  0  0  0  0  0  0  0  0  0  0
   34.6100   28.2310   40.3080 H   0  0  0  0  0  0  0  0  0  0  0  0
   35.8140   29.9710   39.8310 C   0  0  0  0  0  3  0  0  0  0  0  0
   36.8940   30.7660   40.1770 C   0  0  0  0  0  3  0  0  0  0  0  0
  1  2  1  0  0  0  0
  3  1  1  0  0  0  0
  4  1  1  0  0  0  0
  4  9  1  0  0  0  0
  5  4  2  0  0  0  0
  6  5  1  0  0  0  0
  6  7  2  0  0  0  0
  7  8  1  0  0  0  0
  8 11  1  0  0  0  0
  8  9  2  0  0  0  0
 10  6  1  0  0  0  0
 12  5  1  0  0  0  0
 12 13  1  0  0  0  0
 14  1  1  0  0  0  0
 14 15  1  0  0  0  0
 16 14  1  0  0  0  0
 18 17  1  0  0  0  0
 18 19  1  0  0  0  0
 19 14  1  0  0  0  0
 20 19  2  0  0  0  0
 20 21  1  0  0  0  0
 22 20  1  0  0  0  0
 23 22  1  0  0  0  0
 24 25  1  0  0  0  0
 24 22  2  0  0  0  0
 25 18  2  0  0  0  0
M  END
>  <minimizedAffinity>
-4.46839666

$$$$
