
     RDKit          3D

 27 28  0  0  0  0  0  0  0  0999 V2000
   47.7505   34.8401   42.0946 C   0  0  0  0  0  0  0  0  0  0  0  0
   48.3169   33.8022   42.8297 C   0  0  0  0  0  0  0  0  0  0  0  0
   47.5903   33.2929   43.9167 C   0  0  0  0  0  0  0  0  0  0  0  0
   46.3678   33.8328   44.2047 N   0  0  0  0  0  0  0  0  0  0  0  0
   45.8668   34.8284   43.4678 C   0  0  0  0  0  0  0  0  0  0  0  0
   46.5265   35.3373   42.4304 N   0  0  0  0  0  0  0  0  0  0  0  0
   49.9103   33.1426   42.4099 S   0  0  0  0  0  0  0  0  0  0  0  0
   48.5476   35.3470   40.9604 C   0  0  0  0  0  0  0  0  0  0  0  0
   48.1883   34.7056   39.6548 C   0  0  0  0  0  0  0  0  0  0  0  0
   48.0165   32.4794   44.5080 H   0  0  0  0  0  0  0  0  0  0  0  0
   44.8904   35.2546   43.7023 H   0  0  0  0  0  0  0  0  0  0  0  0
   49.8923   31.7895   42.1088 H   0  0  0  0  0  0  0  0  0  0  0  0
   49.6294   35.2765   41.2181 H   0  0  0  0  0  0  0  0  0  0  0  0
   48.2656   36.4356   40.8374 H   0  0  0  0  0  0  0  0  0  0  0  0
   48.1959   33.5772   39.7349 H   0  0  0  0  0  0  0  0  0  0  0  0
   47.1109   34.9296   39.4853 H   0  0  0  0  0  0  0  0  0  0  0  0
   50.6434   36.1683   39.7559 F   0  0  0  0  0  0  0  0  0  0  0  0
   50.1389   35.8943   38.5509 C   0  0  0  0  0  0  0  0  0  0  0  0
   48.9496   35.1858   38.5028 C   0  0  0  0  0  0  0  0  0  0  0  0
   48.4737   34.9347   37.2085 C   0  0  0  0  0  0  0  0  0  0  0  0
   47.5497   34.3841   37.1311 H   0  0  0  0  0  0  0  0  0  0  0  0
   49.1260   35.3530   36.0686 C   0  0  0  0  0  0  0  0  0  0  0  0
   48.6912   35.1194   35.0985 H   0  0  0  0  0  0  0  0  0  0  0  0
   50.3039   36.0535   36.2095 C   0  0  0  0  0  0  0  0  0  0  0  0
   50.8424   36.3428   37.4520 C   0  0  0  0  0  0  0  0  0  0  0  0
   50.8419   36.3984   35.3320 H   0  0  0  0  0  0  0  0  0  0  0  0
   51.7593   36.8909   37.5183 H   0  0  0  0  0  0  0  0  0  0  0  0
  1  6  1  0
  1  2  2  0
  2  3  1  0
  3  4  2  0
  5  4  1  0
  6  5  2  0
  7  2  1  0
  8  1  1  0
  9  8  1  0
  3 10  1  0
  5 11  1  0
  7 12  1  0
  8 13  1  0
  8 14  1  0
  9 15  1  0
  9 16  1  0
 17 18  1  0
 18 19  2  0
 19 20  1  0
 20 21  1  0
 20 22  2  0
 22 23  1  0
 22 24  1  0
 24 25  2  0
 25 18  1  0
 24 26  1  0
 25 27  1  0
  9 19  1  0
M  ISO  8  10  14  11  14  12  11  13   8  14   8  15   8  16   8  21  15
M  ISO  1  23  16
M  END
>  <DihAtoms>  (1) 
7,8,18,17

>  <DihDeg>  (1) 
76.76402802386882

$$$$
