
 OpenBabel03252507233D

 47 50  0  0  1  0  0  0  0  0999 V2000
   39.1010   29.4970   40.3640 C   0  0  0  0  0  0  0  0  0  0  0  0
   39.7100   29.0120   39.3550 O   0  0  0  0  0  0  0  0  0  0  0  0
   38.6710   28.7040   41.4620 N   0  0  0  0  0  0  0  0  0  0  0  0
   38.7740   28.9540   42.9090 C   0  0  0  0  0  0  0  0  0  0  0  0
   37.3930   28.7840   43.5360 C   0  0  0  0  0  0  0  0  0  0  0  0
   36.9630   27.3570   43.4250 C   0  0  0  0  0  0  0  0  0  0  0  0
   37.8170   26.6320   42.3970 C   0  0  0  0  0  0  0  0  0  0  0  0
   38.0340   27.4490   41.1730 C   0  0  2  0  0  0  0  0  0  0  0  0
   39.5260   28.2710   43.3050 H   0  0  0  0  0  0  0  0  0  0  0  0
   39.0700   30.0310   43.0470 H   0  0  0  0  0  0  0  0  0  0  0  0
   37.3840   29.1770   44.5590 H   0  0  0  0  0  0  0  0  0  0  0  0
   36.7110   29.3870   42.8670 H   0  0  0  0  0  0  0  0  0  0  0  0
   37.0980   26.8430   44.4170 H   0  0  0  0  0  0  0  0  0  0  0  0
   35.8900   27.2480   43.1640 H   0  0  0  0  0  0  0  0  0  0  0  0
   37.1780   25.7560   42.0760 H   0  0  0  0  0  0  0  0  0  0  0  0
   38.7350   26.2110   42.8290 H   0  0  0  0  0  0  0  0  0  0  0  0
   37.0090   27.6720   40.7470 H   0  0  0  0  0  0  0  0  0  0  0  0
   39.8730   31.7630   40.8290 C   0  0  0  0  0  0  0  0  0  0  0  0
   38.8430   30.9180   40.3840 C   0  0  0  0  0  0  0  0  0  0  0  0
   37.6220   31.4400   39.9790 C   0  0  0  0  0  0  0  0  0  0  0  0
   37.4860   32.7900   40.0370 N   0  0  0  0  0  0  0  0  0  0  0  0
   38.4620   33.6210   40.4610 C   0  0  0  0  0  0  0  0  0  0  0  0
   39.6510   33.0920   40.8540 N   0  0  0  0  0  0  0  0  0  0  0  0
   40.8270   31.3600   41.1460 H   0  0  0  0  0  0  0  0  0  0  0  0
   38.3300   34.6930   40.4980 H   0  0  0  0  0  0  0  0  0  0  0  0
   36.5900   30.5440   39.5330 C   0  0  0  0  0  0  0  0  0  0  0  0
   35.6930   30.0330   40.4080 C   0  0  0  0  0  0  0  0  0  0  0  0
   34.7150   29.1760   39.9480 C   0  0  0  0  0  0  0  0  0  0  0  0
   34.6050   28.8070   38.6110 C   0  0  0  0  0  0  0  0  0  0  0  0
   35.5460   29.3580   37.7610 C   0  0  0  0  0  0  0  0  0  0  0  0
   36.4960   30.1960   38.2290 N   0  0  0  0  0  0  0  0  0  0  0  0
   35.6590   30.2260   41.4620 H   0  0  0  0  0  0  0  0  0  0  0  0
   33.9780   28.7410   40.6100 H   0  0  0  0  0  0  0  0  0  0  0  0
   33.8580   28.1470   38.2370 H   0  0  0  0  0  0  0  0  0  0  0  0
   35.5860   29.1650   36.7070 H   0  0  0  0  0  0  0  0  0  0  0  0
   38.7240   26.6350   40.1180 C   0  0  0  0  0  0  0  0  0  0  0  0
   39.6310   26.1340   40.4540 H   0  0  0  0  0  0  0  0  0  0  0  0
   38.8820   27.2010   39.1490 H   0  0  0  0  0  0  0  0  0  0  0  0
   38.8610   23.8870   40.8040 F   0  0  0  0  0  0  0  0  0  0  0  0
   37.7870   24.2860   40.0440 C   0  0  0  0  0  0  0  0  0  0  0  0
   37.6900   25.6150   39.6940 C   0  0  0  0  0  0  0  0  0  0  0  0
   36.6230   25.9910   38.9450 C   0  0  0  0  0  0  0  0  0  0  0  0
   36.5660   27.0390   38.6810 H   0  0  0  0  0  0  0  0  0  0  0  0
   35.6090   25.1510   38.4950 C   0  0  0  0  0  0  0  0  0  0  0  0
   34.7630   25.4600   37.8980 H   0  0  0  0  0  0  0  0  0  0  0  0
   35.7940   23.8310   38.8990 C   0  0  0  0  0  3  0  0  0  0  0  0
   36.8440   23.3600   39.6570 C   0  0  0  0  0  3  0  0  0  0  0  0
  1 19  1  0  0  0  0
  1  3  1  0  0  0  0
  2  1  2  0  0  0  0
  3  4  1  0  0  0  0
  4 10  1  0  0  0  0
  4  9  1  0  0  0  0
  4  5  1  0  0  0  0
  5 11  1  0  0  0  0
  6  5  1  0  0  0  0
  6 13  1  0  0  0  0
  7 16  1  0  0  0  0
  7  6  1  0  0  0  0
  8 17  1  6  0  0  0
  8  3  1  0  0  0  0
  8  7  1  0  0  0  0
 12  5  1  0  0  0  0
 14  6  1  0  0  0  0
 15  7  1  0  0  0  0
 18 23  1  0  0  0  0
 18 24  1  0  0  0  0
 19 18  2  0  0  0  0
 20 21  2  0  0  0  0
 20 19  1  0  0  0  0
 21 22  1  0  0  0  0
 22 25  1  0  0  0  0
 22 23  2  0  0  0  0
 26 20  1  0  0  0  0
 26 27  1  0  0  0  0
 27 32  1  0  0  0  0
 28 27  2  0  0  0  0
 28 33  1  0  0  0  0
 29 28  1  0  0  0  0
 30 31  1  0  0  0  0
 30 29  2  0  0  0  0
 31 26  2  0  0  0  0
 34 29  1  0  0  0  0
 35 30  1  0  0  0  0
 36 37  1  0  0  0  0
 36  8  1  0  0  0  0
 38 36  1  0  0  0  0
 40 39  1  0  0  0  0
 41 40  1  0  0  0  0
 41 36  1  0  0  0  0
 42 41  2  0  0  0  0
 43 42  1  0  0  0  0
 44 46  2  0  0  0  0
 44 42  1  0  0  0  0
 45 44  1  0  0  0  0
 46 47  1  0  0  0  0
 47 40  2  0  0  0  0
M  END
>  <minimizedAffinity>
-6.44315338

$$$$

 OpenBabel03252507233D

 47 50  0  0  1  0  0  0  0  0999 V2000
   37.8340   26.8510   39.7410 C   0  0  0  0  0  0  0  0  0  0  0  0
   38.5020   27.2720   38.7400 O   0  0  0  0  0  0  0  0  0  0  0  0
   37.5960   27.6400   40.8980 N   0  0  0  0  0  0  0  0  0  0  0  0
   36.3600   27.8350   41.6730 C   0  0  0  0  0  0  0  0  0  0  0  0
   36.6560   27.5610   43.1460 C   0  0  0  0  0  0  0  0  0  0  0  0
   37.6030   28.5930   43.6690 C   0  0  0  0  0  0  0  0  0  0  0  0
   38.2710   29.3210   42.5150 C   0  0  0  0  0  0  0  0  0  0  0  0
   38.6970   28.3890   41.4360 C   0  0  2  0  0  0  0  0  0  0  0  0
   36.0080   28.8470   41.4750 H   0  0  0  0  0  0  0  0  0  0  0  0
   35.6200   27.0580   41.3340 H   0  0  0  0  0  0  0  0  0  0  0  0
   35.7240   27.4760   43.7160 H   0  0  0  0  0  0  0  0  0  0  0  0
   37.2130   26.5780   43.1350 H   0  0  0  0  0  0  0  0  0  0  0  0
   37.0360   29.3500   44.2790 H   0  0  0  0  0  0  0  0  0  0  0  0
   38.3750   28.1680   44.3420 H   0  0  0  0  0  0  0  0  0  0  0  0
   39.2250   29.7320   42.9640 H   0  0  0  0  0  0  0  0  0  0  0  0
   37.6910   30.1850   42.1630 H   0  0  0  0  0  0  0  0  0  0  0  0
   39.4170   27.6540   41.9080 H   0  0  0  0  0  0  0  0  0  0  0  0
   36.1650   25.2940   38.8850 C   0  0  0  0  0  0  0  0  0  0  0  0
   37.2990   25.5110   39.6850 C   0  0  0  0  0  0  0  0  0  0  0  0
   37.8780   24.4670   40.3930 C   0  0  0  0  0  0  0  0  0  0  0  0
   37.2940   23.2470   40.2690 N   0  0  0  0  0  0  0  0  0  0  0  0
   36.2050   23.0150   39.5060 C   0  0  0  0  0  0  0  0  0  0  0  0
   35.6510   24.0490   38.8200 N   0  0  0  0  0  0  0  0  0  0  0  0
   35.7100   26.1050   38.3300 H   0  0  0  0  0  0  0  0  0  0  0  0
   35.7570   22.0350   39.4240 H   0  0  0  0  0  0  0  0  0  0  0  0
   39.0350   24.7280   41.2040 C   0  0  0  0  0  0  0  0  0  0  0  0
   38.9440   24.7450   42.5550 C   0  0  0  0  0  0  0  0  0  0  0  0
   40.0730   24.9990   43.3040 C   0  0  0  0  0  0  0  0  0  0  0  0
   41.3190   25.2420   42.7310 C   0  0  0  0  0  0  0  0  0  0  0  0
   41.3560   25.2130   41.3500 C   0  0  0  0  0  0  0  0  0  0  0  0
   40.2390   24.9620   40.6320 N   0  0  0  0  0  0  0  0  0  0  0  0
   38.0550   24.5790   43.1290 H   0  0  0  0  0  0  0  0  0  0  0  0
   40.0500   25.0240   44.3850 H   0  0  0  0  0  0  0  0  0  0  0  0
   42.2010   25.4400   43.2920 H   0  0  0  0  0  0  0  0  0  0  0  0
   42.2420   25.3810   40.7720 H   0  0  0  0  0  0  0  0  0  0  0  0
   39.5090   29.1190   40.4060 C   0  0  0  0  0  0  0  0  0  0  0  0
   39.5610   28.6240   39.4370 H   0  0  0  0  0  0  0  0  0  0  0  0
   40.5310   29.4320   40.7820 H   0  0  0  0  0  0  0  0  0  0  0  0
   40.4930   31.5050   41.5840 F   0  0  0  0  0  0  0  0  0  0  0  0
   39.3300   31.6020   40.8560 C   0  0  0  0  0  0  0  0  0  0  0  0
   38.8260   30.4620   40.2700 C   0  0  0  0  0  0  0  0  0  0  0  0
   37.6780   30.5770   39.5550 C   0  0  0  0  0  0  0  0  0  0  0  0
   37.3000   29.6700   39.1030 H   0  0  0  0  0  0  0  0  0  0  0  0
   36.9590   31.7520   39.3560 C   0  0  0  0  0  0  0  0  0  0  0  0
   36.0450   31.8340   38.7860 H   0  0  0  0  0  0  0  0  0  0  0  0
   37.5450   32.8480   39.9850 C   0  0  0  0  0  3  0  0  0  0  0  0
   38.7050   32.8240   40.7300 C   0  0  0  0  0  3  0  0  0  0  0  0
  1  3  1  0  0  0  0
  2  1  2  0  0  0  0
  3  8  1  0  0  0  0
  3  4  1  0  0  0  0
  4  5  1  0  0  0  0
  5  6  1  0  0  0  0
  5 11  1  0  0  0  0
  6 13  1  0  0  0  0
  6 14  1  0  0  0  0
  7 15  1  0  0  0  0
  7  6  1  0  0  0  0
  8 17  1  1  0  0  0
  8  7  1  0  0  0  0
  9  4  1  0  0  0  0
 10  4  1  0  0  0  0
 12  5  1  0  0  0  0
 16  7  1  0  0  0  0
 18 19  1  0  0  0  0
 19  1  1  0  0  0  0
 19 20  2  0  0  0  0
 20 26  1  0  0  0  0
 21 20  1  0  0  0  0
 22 21  2  0  0  0  0
 23 18  2  0  0  0  0
 23 22  1  0  0  0  0
 24 18  1  0  0  0  0
 25 22  1  0  0  0  0
 26 27  1  0  0  0  0
 27 32  1  0  0  0  0
 27 28  2  0  0  0  0
 28 33  1  0  0  0  0
 29 34  1  0  0  0  0
 29 28  1  0  0  0  0
 30 29  2  0  0  0  0
 31 26  2  0  0  0  0
 31 30  1  0  0  0  0
 35 30  1  0  0  0  0
 36 38  1  0  0  0  0
 36  8  1  0  0  0  0
 37 36  1  0  0  0  0
 40 39  1  0  0  0  0
 41 36  1  0  0  0  0
 41 40  2  0  0  0  0
 42 41  1  0  0  0  0
 43 42  1  0  0  0  0
 44 42  2  0  0  0  0
 44 46  1  0  0  0  0
 45 44  1  0  0  0  0
 46 47  2  0  0  0  0
 47 40  1  0  0  0  0
M  END
>  <minimizedAffinity>
-6.13098907

$$$$

 OpenBabel03252507233D

 47 50  0  0  1  0  0  0  0  0999 V2000
   39.0050   30.7930   41.5210 C   0  0  0  0  0  0  0  0  0  0  0  0
   39.5690   30.5630   42.6420 O   0  0  0  0  0  0  0  0  0  0  0  0
   37.6780   30.3850   41.2260 N   0  0  0  0  0  0  0  0  0  0  0  0
   36.5840   31.1210   40.5710 C   0  0  0  0  0  0  0  0  0  0  0  0
   36.0320   30.2690   39.4310 C   0  0  0  0  0  0  0  0  0  0  0  0
   35.3870   29.0410   39.9880 C   0  0  0  0  0  0  0  0  0  0  0  0
   35.8250   28.8280   41.4280 C   0  0  0  0  0  0  0  0  0  0  0  0
   37.2830   29.0580   41.6090 C   0  0  2  0  0  0  0  0  0  0  0  0
   35.8480   31.3610   41.3370 H   0  0  0  0  0  0  0  0  0  0  0  0
   37.0270   32.0460   40.1080 H   0  0  0  0  0  0  0  0  0  0  0  0
   35.3790   30.8660   38.7850 H   0  0  0  0  0  0  0  0  0  0  0  0
   36.9530   29.9300   38.8700 H   0  0  0  0  0  0  0  0  0  0  0  0
   34.2680   29.1650   39.9780 H   0  0  0  0  0  0  0  0  0  0  0  0
   35.6030   28.1310   39.3920 H   0  0  0  0  0  0  0  0  0  0  0  0
   35.6610   27.7230   41.6050 H   0  0  0  0  0  0  0  0  0  0  0  0
   35.1900   29.3600   42.1480 H   0  0  0  0  0  0  0  0  0  0  0  0
   37.8140   28.3290   40.9230 H   0  0  0  0  0  0  0  0  0  0  0  0
   39.9270   32.8880   40.6790 C   0  0  0  0  0  0  0  0  0  0  0  0
   39.7600   31.5020   40.5150 C   0  0  0  0  0  0  0  0  0  0  0  0
   40.3050   30.8470   39.4190 C   0  0  0  0  0  0  0  0  0  0  0  0
   40.9960   31.6100   38.5330 N   0  0  0  0  0  0  0  0  0  0  0  0
   41.1690   32.9410   38.6700 C   0  0  0  0  0  0  0  0  0  0  0  0
   40.6290   33.5670   39.7490 N   0  0  0  0  0  0  0  0  0  0  0  0
   39.5040   33.4030   41.5310 H   0  0  0  0  0  0  0  0  0  0  0  0
   41.7240   33.5280   37.9510 H   0  0  0  0  0  0  0  0  0  0  0  0
   40.1100   29.4300   39.2820 C   0  0  0  0  0  0  0  0  0  0  0  0
   40.8810   28.5560   39.9710 C   0  0  0  0  0  0  0  0  0  0  0  0
   40.6690   27.2020   39.8170 C   0  0  0  0  0  0  0  0  0  0  0  0
   39.6870   26.6840   38.9770 C   0  0  0  0  0  0  0  0  0  0  0  0
   38.9290   27.6200   38.2980 C   0  0  0  0  0  0  0  0  0  0  0  0
   39.1510   28.9410   38.4610 N   0  0  0  0  0  0  0  0  0  0  0  0
   41.6720   28.8100   40.6480 H   0  0  0  0  0  0  0  0  0  0  0  0
   41.2590   26.4660   40.3460 H   0  0  0  0  0  0  0  0  0  0  0  0
   39.5080   25.6430   38.8450 H   0  0  0  0  0  0  0  0  0  0  0  0
   38.1390   27.3700   37.6180 H   0  0  0  0  0  0  0  0  0  0  0  0
   37.7060   28.6640   42.9940 C   0  0  0  0  0  0  0  0  0  0  0  0
   36.9120   28.7070   43.7390 H   0  0  0  0  0  0  0  0  0  0  0  0
   38.6470   29.1890   43.3410 H   0  0  0  0  0  0  0  0  0  0  0  0
   40.3340   27.8440   43.6790 F   0  0  0  0  0  0  0  0  0  0  0  0
   39.4880   26.8780   43.1870 C   0  0  0  0  0  0  0  0  0  0  0  0
   38.2040   27.2420   42.8450 C   0  0  0  0  0  0  0  0  0  0  0  0
   37.3840   26.2760   42.3620 C   0  0  0  0  0  0  0  0  0  0  0  0
   36.3800   26.5830   42.1000 H   0  0  0  0  0  0  0  0  0  0  0  0
   37.7220   24.9390   42.1800 C   0  0  0  0  0  0  0  0  0  0  0  0
   37.0630   24.1760   41.7930 H   0  0  0  0  0  0  0  0  0  0  0  0
   39.0370   24.6670   42.5520 C   0  0  0  0  0  3  0  0  0  0  0  0
   39.9390   25.5830   43.0500 C   0  0  0  0  0  3  0  0  0  0  0  0
  1  2  2  0  0  0  0
  3  1  1  0  0  0  0
  3  8  1  0  0  0  0
  4  3  1  0  0  0  0
  4  9  1  0  0  0  0
  5  6  1  0  0  0  0
  5  4  1  0  0  0  0
  6  7  1  0  0  0  0
  7 15  1  0  0  0  0
  7  8  1  0  0  0  0
  7 16  1  0  0  0  0
  8 17  1  6  0  0  0
  8 36  1  0  0  0  0
 10  4  1  0  0  0  0
 11  5  1  0  0  0  0
 12  5  1  0  0  0  0
 13  6  1  0  0  0  0
 14  6  1  0  0  0  0
 18 24  1  0  0  0  0
 19 18  1  0  0  0  0
 19  1  1  0  0  0  0
 20 19  2  0  0  0  0
 21 22  2  0  0  0  0
 21 20  1  0  0  0  0
 22 23  1  0  0  0  0
 23 18  2  0  0  0  0
 25 22  1  0  0  0  0
 26 20  1  0  0  0  0
 26 27  1  0  0  0  0
 27 32  1  0  0  0  0
 28 27  2  0  0  0  0
 28 33  1  0  0  0  0
 29 28  1  0  0  0  0
 30 31  1  0  0  0  0
 30 29  2  0  0  0  0
 31 26  2  0  0  0  0
 34 29  1  0  0  0  0
 35 30  1  0  0  0  0
 36 38  1  0  0  0  0
 36 37  1  0  0  0  0
 40 39  1  0  0  0  0
 41 36  1  0  0  0  0
 41 40  2  0  0  0  0
 42 41  1  0  0  0  0
 43 42  1  0  0  0  0
 44 42  2  0  0  0  0
 44 46  1  0  0  0  0
 45 44  1  0  0  0  0
 46 47  2  0  0  0  0
 47 40  1  0  0  0  0
M  END
>  <minimizedAffinity>
-5.97736645

$$$$

 OpenBabel03252507233D

 47 50  0  0  1  0  0  0  0  0999 V2000
   36.9570   30.6030   39.7610 C   0  0  0  0  0  0  0  0  0  0  0  0
   35.8950   30.3410   40.4160 O   0  0  0  0  0  0  0  0  0  0  0  0
   37.4510   29.7680   38.7240 N   0  0  0  0  0  0  0  0  0  0  0  0
   37.9750   30.1180   37.3940 C   0  0  0  0  0  0  0  0  0  0  0  0
   39.3370   29.4520   37.2120 C   0  0  0  0  0  0  0  0  0  0  0  0
   39.1700   27.9670   37.1780 C   0  0  0  0  0  0  0  0  0  0  0  0
   37.8060   27.5820   37.7260 C   0  0  0  0  0  0  0  0  0  0  0  0
   37.4580   28.3490   38.9530 C   0  0  2  0  0  0  0  0  0  0  0  0
   37.2310   29.8090   36.6590 H   0  0  0  0  0  0  0  0  0  0  0  0
   38.1450   31.2300   37.3790 H   0  0  0  0  0  0  0  0  0  0  0  0
   39.8530   29.8670   36.3390 H   0  0  0  0  0  0  0  0  0  0  0  0
   39.8920   29.7000   38.1640 H   0  0  0  0  0  0  0  0  0  0  0  0
   39.2340   27.6040   36.1150 H   0  0  0  0  0  0  0  0  0  0  0  0
   39.9640   27.4310   37.7370 H   0  0  0  0  0  0  0  0  0  0  0  0
   37.9350   26.5090   38.0580 H   0  0  0  0  0  0  0  0  0  0  0  0
   37.0230   27.5810   36.9560 H   0  0  0  0  0  0  0  0  0  0  0  0
   38.2660   28.1270   39.7140 H   0  0  0  0  0  0  0  0  0  0  0  0
   37.1800   33.0270   39.6150 C   0  0  0  0  0  0  0  0  0  0  0  0
   37.6820   31.8060   40.0960 C   0  0  0  0  0  0  0  0  0  0  0  0
   38.8370   31.7680   40.8650 C   0  0  0  0  0  0  0  0  0  0  0  0
   39.4410   32.9570   41.1210 N   0  0  0  0  0  0  0  0  0  0  0  0
   38.9760   34.1420   40.6700 C   0  0  0  0  0  0  0  0  0  0  0  0
   37.8440   34.1610   39.9180 N   0  0  0  0  0  0  0  0  0  0  0  0
   36.2800   33.0620   39.0150 H   0  0  0  0  0  0  0  0  0  0  0  0
   39.4740   35.0770   40.8860 H   0  0  0  0  0  0  0  0  0  0  0  0
   39.3240   30.5000   41.3360 C   0  0  0  0  0  0  0  0  0  0  0  0
   38.8840   29.9820   42.5070 C   0  0  0  0  0  0  0  0  0  0  0  0
   39.3710   28.7630   42.9310 C   0  0  0  0  0  0  0  0  0  0  0  0
   40.3050   28.0310   42.2030 C   0  0  0  0  0  0  0  0  0  0  0  0
   40.7190   28.6050   41.0160 C   0  0  0  0  0  0  0  0  0  0  0  0
   40.2310   29.7990   40.6170 N   0  0  0  0  0  0  0  0  0  0  0  0
   38.1720   30.4330   43.1690 H   0  0  0  0  0  0  0  0  0  0  0  0
   39.0500   28.3100   43.8590 H   0  0  0  0  0  0  0  0  0  0  0  0
   40.6920   27.0890   42.5140 H   0  0  0  0  0  0  0  0  0  0  0  0
   41.4330   28.1580   40.3530 H   0  0  0  0  0  0  0  0  0  0  0  0
   36.1950   27.8150   39.5620 C   0  0  0  0  0  0  0  0  0  0  0  0
   35.4760   27.4240   38.8430 H   0  0  0  0  0  0  0  0  0  0  0  0
   35.7170   28.5300   40.2990 H   0  0  0  0  0  0  0  0  0  0  0  0
   36.2350   28.0510   42.3880 F   0  0  0  0  0  0  0  0  0  0  0  0
   36.6680   26.8600   41.8570 C   0  0  0  0  0  0  0  0  0  0  0  0
   36.6610   26.7120   40.4870 C   0  0  0  0  0  0  0  0  0  0  0  0
   37.0910   25.5290   39.9800 C   0  0  0  0  0  0  0  0  0  0  0  0
   37.0770   25.4330   38.9030 H   0  0  0  0  0  0  0  0  0  0  0  0
   37.5410   24.4420   40.7230 C   0  0  0  0  0  0  0  0  0  0  0  0
   37.8830   23.5040   40.3100 H   0  0  0  0  0  0  0  0  0  0  0  0
   37.5110   24.6860   42.0940 C   0  0  0  0  0  3  0  0  0  0  0  0
   37.0920   25.8530   42.6960 C   0  0  0  0  0  3  0  0  0  0  0  0
  1 19  1  0  0  0  0
  1  2  2  0  0  0  0
  3  8  1  0  0  0  0
  3  1  1  0  0  0  0
  4  3  1  0  0  0  0
  5  4  1  0  0  0  0
  5 12  1  0  0  0  0
  6  5  1  0  0  0  0
  6  7  1  0  0  0  0
  6 14  1  0  0  0  0
  7 15  1  0  0  0  0
  7  8  1  0  0  0  0
  8 36  1  0  0  0  0
  8 17  1  1  0  0  0
  9  4  1  0  0  0  0
 10  4  1  0  0  0  0
 11  5  1  0  0  0  0
 13  6  1  0  0  0  0
 16  7  1  0  0  0  0
 18 23  2  0  0  0  0
 18 19  1  0  0  0  0
 19 20  2  0  0  0  0
 20 21  1  0  0  0  0
 20 26  1  0  0  0  0
 22 25  1  0  0  0  0
 22 21  2  0  0  0  0
 23 22  1  0  0  0  0
 24 18  1  0  0  0  0
 26 27  1  0  0  0  0
 27 28  2  0  0  0  0
 27 32  1  0  0  0  0
 28 33  1  0  0  0  0
 29 34  1  0  0  0  0
 29 28  1  0  0  0  0
 30 29  2  0  0  0  0
 31 30  1  0  0  0  0
 31 26  2  0  0  0  0
 35 30  1  0  0  0  0
 36 38  1  0  0  0  0
 36 41  1  0  0  0  0
 37 36  1  0  0  0  0
 40 39  1  0  0  0  0
 40 47  1  0  0  0  0
 41 40  2  0  0  0  0
 42 41  1  0  0  0  0
 42 44  2  0  0  0  0
 43 42  1  0  0  0  0
 44 46  1  0  0  0  0
 45 44  1  0  0  0  0
 46 47  2  0  0  0  0
M  END
>  <minimizedAffinity>
-5.97680521

$$$$

 OpenBabel03252507233D

 47 50  0  0  1  0  0  0  0  0999 V2000
   39.8470   29.1330   39.7090 C   0  0  0  0  0  0  0  0  0  0  0  0
   39.4900   28.4770   38.6760 O   0  0  0  0  0  0  0  0  0  0  0  0
   40.7050   28.5980   40.7060 N   0  0  0  0  0  0  0  0  0  0  0  0
   41.8560   29.2070   41.3920 C   0  0  0  0  0  0  0  0  0  0  0  0
   41.6640   29.0590   42.8990 C   0  0  0  0  0  0  0  0  0  0  0  0
   41.7190   27.6120   43.2730 C   0  0  0  0  0  0  0  0  0  0  0  0
   41.5420   26.7460   42.0360 C   0  0  0  0  0  0  0  0  0  0  0  0
   40.4620   27.2530   41.1480 C   0  0  2  0  0  0  0  0  0  0  0  0
   42.7550   28.7230   41.0120 H   0  0  0  0  0  0  0  0  0  0  0  0
   41.8430   30.3090   41.1640 H   0  0  0  0  0  0  0  0  0  0  0  0
   42.3770   29.6900   43.4420 H   0  0  0  0  0  0  0  0  0  0  0  0
   40.6030   29.4050   43.0760 H   0  0  0  0  0  0  0  0  0  0  0  0
   42.7220   27.3770   43.7240 H   0  0  0  0  0  0  0  0  0  0  0  0
   40.9630   27.3350   44.0360 H   0  0  0  0  0  0  0  0  0  0  0  0
   41.1720   25.7580   42.4430 H   0  0  0  0  0  0  0  0  0  0  0  0
   42.4910   26.5400   41.5230 H   0  0  0  0  0  0  0  0  0  0  0  0
   39.5120   27.2580   41.7640 H   0  0  0  0  0  0  0  0  0  0  0  0
   39.9240   31.4830   39.0620 C   0  0  0  0  0  0  0  0  0  0  0  0
   39.3510   30.4810   39.8630 C   0  0  0  0  0  0  0  0  0  0  0  0
   38.3440   30.7860   40.7680 C   0  0  0  0  0  0  0  0  0  0  0  0
   37.9530   32.0850   40.8320 N   0  0  0  0  0  0  0  0  0  0  0  0
   38.4880   33.0640   40.0720 C   0  0  0  0  0  0  0  0  0  0  0  0
   39.4740   32.7470   39.1920 N   0  0  0  0  0  0  0  0  0  0  0  0
   40.7090   31.2500   38.3550 H   0  0  0  0  0  0  0  0  0  0  0  0
   38.1600   34.0920   40.1410 H   0  0  0  0  0  0  0  0  0  0  0  0
   37.7840   29.7350   41.5740 C   0  0  0  0  0  0  0  0  0  0  0  0
   36.8370   28.9090   41.0720 C   0  0  0  0  0  0  0  0  0  0  0  0
   36.3200   27.9110   41.8720 C   0  0  0  0  0  0  0  0  0  0  0  0
   36.7310   27.7100   43.1870 C   0  0  0  0  0  0  0  0  0  0  0  0
   37.7010   28.5810   43.6480 C   0  0  0  0  0  0  0  0  0  0  0  0
   38.1950   29.5520   42.8510 N   0  0  0  0  0  0  0  0  0  0  0  0
   36.4250   28.9480   40.0840 H   0  0  0  0  0  0  0  0  0  0  0  0
   35.5610   27.2270   41.5150 H   0  0  0  0  0  0  0  0  0  0  0  0
   36.3450   26.9460   43.8180 H   0  0  0  0  0  0  0  0  0  0  0  0
   38.1120   28.5480   44.6370 H   0  0  0  0  0  0  0  0  0  0  0  0
   40.1980   26.2770   40.0390 C   0  0  0  0  0  0  0  0  0  0  0  0
   41.0050   25.5680   39.8580 H   0  0  0  0  0  0  0  0  0  0  0  0
   39.8410   26.7710   39.0840 H   0  0  0  0  0  0  0  0  0  0  0  0
   37.9170   25.9550   38.3840 F   0  0  0  0  0  0  0  0  0  0  0  0
   37.8550   25.4060   39.6430 C   0  0  0  0  0  0  0  0  0  0  0  0
   38.9470   25.5440   40.4720 C   0  0  0  0  0  0  0  0  0  0  0  0
   38.8680   24.9960   41.7110 C   0  0  0  0  0  0  0  0  0  0  0  0
   39.7360   25.1150   42.3460 H   0  0  0  0  0  0  0  0  0  0  0  0
   37.7780   24.3000   42.2250 C   0  0  0  0  0  0  0  0  0  0  0  0
   37.7240   23.8680   43.2130 H   0  0  0  0  0  0  0  0  0  0  0  0
   36.7260   24.2130   41.3150 C   0  0  0  0  0  3  0  0  0  0  0  0
   36.7170   24.7380   40.0410 C   0  0  0  0  0  3  0  0  0  0  0  0
  1 19  1  0  0  0  0
  1  3  1  0  0  0  0
  2  1  2  0  0  0  0
  3  8  1  0  0  0  0
  3  4  1  0  0  0  0
  4  5  1  0  0  0  0
  5 12  1  0  0  0  0
  5  6  1  0  0  0  0
  5 11  1  0  0  0  0
  6 13  1  0  0  0  0
  6 14  1  0  0  0  0
  7 15  1  0  0  0  0
  7  6  1  0  0  0  0
  8 17  1  1  0  0  0
  8  7  1  0  0  0  0
  9  4  1  0  0  0  0
 10  4  1  0  0  0  0
 16  7  1  0  0  0  0
 18 23  2  0  0  0  0
 18 19  1  0  0  0  0
 19 20  2  0  0  0  0
 20 21  1  0  0  0  0
 20 26  1  0  0  0  0
 22 25  1  0  0  0  0
 22 21  2  0  0  0  0
 23 22  1  0  0  0  0
 24 18  1  0  0  0  0
 26 31  1  0  0  0  0
 27 26  2  0  0  0  0
 27 28  1  0  0  0  0
 28 29  2  0  0  0  0
 29 30  1  0  0  0  0
 29 34  1  0  0  0  0
 30 35  1  0  0  0  0
 31 30  2  0  0  0  0
 32 27  1  0  0  0  0
 33 28  1  0  0  0  0
 36 41  1  0  0  0  0
 36  8  1  0  0  0  0
 37 36  1  0  0  0  0
 38 36  1  0  0  0  0
 39 40  1  0  0  0  0
 40 47  2  0  0  0  0
 40 41  1  0  0  0  0
 41 42  2  0  0  0  0
 42 44  1  0  0  0  0
 42 43  1  0  0  0  0
 44 45  1  0  0  0  0
 46 44  2  0  0  0  0
 47 46  1  0  0  0  0
M  END
>  <minimizedAffinity>
-5.84986591

$$$$

 OpenBabel03252507233D

 47 50  0  0  1  0  0  0  0  0999 V2000
   37.9190   29.5100   39.7290 C   0  0  0  0  0  0  0  0  0  0  0  0
   37.7160   28.9840   38.5860 O   0  0  0  0  0  0  0  0  0  0  0  0
   37.8980   28.7650   40.9380 N   0  0  0  0  0  0  0  0  0  0  0  0
   38.8160   28.7990   42.0880 C   0  0  0  0  0  0  0  0  0  0  0  0
   37.9990   28.9880   43.3630 C   0  0  0  0  0  0  0  0  0  0  0  0
   37.1410   27.7860   43.5940 C   0  0  0  0  0  0  0  0  0  0  0  0
   37.0460   26.9600   42.3220 C   0  0  0  0  0  0  0  0  0  0  0  0
   36.8410   27.8090   41.1180 C   0  0  2  0  0  0  0  0  0  0  0  0
   39.3960   27.8760   42.0690 H   0  0  0  0  0  0  0  0  0  0  0  0
   39.4690   29.7080   41.9740 H   0  0  0  0  0  0  0  0  0  0  0  0
   38.6530   29.2420   44.2050 H   0  0  0  0  0  0  0  0  0  0  0  0
   37.3050   29.8460   43.1190 H   0  0  0  0  0  0  0  0  0  0  0  0
   37.6010   27.1420   44.3950 H   0  0  0  0  0  0  0  0  0  0  0  0
   36.1230   28.0440   43.9510 H   0  0  0  0  0  0  0  0  0  0  0  0
   36.0910   26.3670   42.4490 H   0  0  0  0  0  0  0  0  0  0  0  0
   37.8600   26.2300   42.2270 H   0  0  0  0  0  0  0  0  0  0  0  0
   35.8800   28.3850   41.2870 H   0  0  0  0  0  0  0  0  0  0  0  0
   37.1430   31.7700   40.2140 C   0  0  0  0  0  0  0  0  0  0  0  0
   38.1830   30.9290   39.7870 C   0  0  0  0  0  0  0  0  0  0  0  0
   39.4200   31.4530   39.4340 C   0  0  0  0  0  0  0  0  0  0  0  0
   39.5610   32.8000   39.5260 N   0  0  0  0  0  0  0  0  0  0  0  0
   38.5750   33.6280   39.9340 C   0  0  0  0  0  0  0  0  0  0  0  0
   37.3710   33.0980   40.2750 N   0  0  0  0  0  0  0  0  0  0  0  0
   36.1770   31.3670   40.4900 H   0  0  0  0  0  0  0  0  0  0  0  0
   38.7110   34.6980   39.9980 H   0  0  0  0  0  0  0  0  0  0  0  0
   40.4600   30.5610   38.9980 C   0  0  0  0  0  0  0  0  0  0  0  0
   40.6740   30.3410   37.6800 C   0  0  0  0  0  0  0  0  0  0  0  0
   41.6800   29.4790   37.2950 C   0  0  0  0  0  0  0  0  0  0  0  0
   42.4950   28.8170   38.2080 C   0  0  0  0  0  0  0  0  0  0  0  0
   42.2330   29.0770   39.5400 C   0  0  0  0  0  0  0  0  0  0  0  0
   41.2440   29.9240   39.8980 N   0  0  0  0  0  0  0  0  0  0  0  0
   40.1250   30.7780   36.8700 H   0  0  0  0  0  0  0  0  0  0  0  0
   41.8880   29.2720   36.2540 H   0  0  0  0  0  0  0  0  0  0  0  0
   43.2750   28.1490   37.9300 H   0  0  0  0  0  0  0  0  0  0  0  0
   42.7770   28.6410   40.3530 H   0  0  0  0  0  0  0  0  0  0  0  0
   36.5710   26.9530   39.9150 C   0  0  0  0  0  0  0  0  0  0  0  0
   36.8860   27.3910   38.9680 H   0  0  0  0  0  0  0  0  0  0  0  0
   35.5090   26.5620   39.8730 H   0  0  0  0  0  0  0  0  0  0  0  0
   39.3110   26.6130   39.2660 F   0  0  0  0  0  0  0  0  0  0  0  0
   38.6730   25.5460   39.8520 C   0  0  0  0  0  0  0  0  0  0  0  0
   37.3410   25.6780   40.1800 C   0  0  0  0  0  0  0  0  0  0  0  0
   36.7270   24.6150   40.7580 C   0  0  0  0  0  0  0  0  0  0  0  0
   35.6820   24.7390   41.0080 H   0  0  0  0  0  0  0  0  0  0  0  0
   37.3250   23.3930   41.0530 C   0  0  0  0  0  0  0  0  0  0  0  0
   36.8280   22.5510   41.5120 H   0  0  0  0  0  0  0  0  0  0  0  0
   38.6680   23.3550   40.6860 C   0  0  0  0  0  3  0  0  0  0  0  0
   39.3710   24.3830   40.0950 C   0  0  0  0  0  3  0  0  0  0  0  0
  1 19  1  0  0  0  0
  1  3  1  0  0  0  0
  2  1  2  0  0  0  0
  3  8  1  0  0  0  0
  3  4  1  0  0  0  0
  4  5  1  0  0  0  0
  5  6  1  0  0  0  0
  5 11  1  0  0  0  0
  6 14  1  0  0  0  0
  6 13  1  0  0  0  0
  7 15  1  0  0  0  0
  7  6  1  0  0  0  0
  8 17  1  1  0  0  0
  8  7  1  0  0  0  0
  9  4  1  0  0  0  0
 10  4  1  0  0  0  0
 12  5  1  0  0  0  0
 16  7  1  0  0  0  0
 18 23  1  0  0  0  0
 18 24  1  0  0  0  0
 19 18  2  0  0  0  0
 20 21  2  0  0  0  0
 20 19  1  0  0  0  0
 21 22  1  0  0  0  0
 22 25  1  0  0  0  0
 22 23  2  0  0  0  0
 26 20  1  0  0  0  0
 26 31  1  0  0  0  0
 27 26  2  0  0  0  0
 28 27  1  0  0  0  0
 28 29  2  0  0  0  0
 29 30  1  0  0  0  0
 30 31  2  0  0  0  0
 30 35  1  0  0  0  0
 32 27  1  0  0  0  0
 33 28  1  0  0  0  0
 34 29  1  0  0  0  0
 36 41  1  0  0  0  0
 36  8  1  0  0  0  0
 37 36  1  0  0  0  0
 38 36  1  0  0  0  0
 39 40  1  0  0  0  0
 40 47  2  0  0  0  0
 40 41  1  0  0  0  0
 41 42  2  0  0  0  0
 42 43  1  0  0  0  0
 42 44  1  0  0  0  0
 44 45  1  0  0  0  0
 46 44  2  0  0  0  0
 47 46  1  0  0  0  0
M  END
>  <minimizedAffinity>
-5.84460545

$$$$

 OpenBabel03252507233D

 47 50  0  0  1  0  0  0  0  0999 V2000
   39.2880   29.9830   40.3740 C   0  0  0  0  0  0  0  0  0  0  0  0
   40.0170   29.5230   39.4340 O   0  0  0  0  0  0  0  0  0  0  0  0
   38.8960   29.2080   41.4980 N   0  0  0  0  0  0  0  0  0  0  0  0
   38.8750   29.5570   42.9280 C   0  0  0  0  0  0  0  0  0  0  0  0
   37.4900   29.2430   43.4900 C   0  0  0  0  0  0  0  0  0  0  0  0
   37.2560   27.7670   43.4520 C   0  0  0  0  0  0  0  0  0  0  0  0
   38.2600   27.1020   42.5250 C   0  0  0  0  0  0  0  0  0  0  0  0
   38.4460   27.8640   41.2620 C   0  0  2  0  0  0  0  0  0  0  0  0
   39.6820   29.0060   43.4100 H   0  0  0  0  0  0  0  0  0  0  0  0
   39.0190   30.6700   43.0080 H   0  0  0  0  0  0  0  0  0  0  0  0
   37.3660   29.6920   44.4810 H   0  0  0  0  0  0  0  0  0  0  0  0
   36.7800   29.7070   42.7440 H   0  0  0  0  0  0  0  0  0  0  0  0
   37.3940   27.3370   44.4830 H   0  0  0  0  0  0  0  0  0  0  0  0
   36.2250   27.5010   43.1410 H   0  0  0  0  0  0  0  0  0  0  0  0
   37.7620   26.1300   42.2300 H   0  0  0  0  0  0  0  0  0  0  0  0
   39.1960   26.8340   43.0340 H   0  0  0  0  0  0  0  0  0  0  0  0
   37.4300   27.9230   40.7660 H   0  0  0  0  0  0  0  0  0  0  0  0
   39.7560   32.3590   40.6570 C   0  0  0  0  0  0  0  0  0  0  0  0
   38.8470   31.3550   40.2820 C   0  0  0  0  0  0  0  0  0  0  0  0
   37.5730   31.6810   39.8400 C   0  0  0  0  0  0  0  0  0  0  0  0
   37.2620   33.0020   39.7920 N   0  0  0  0  0  0  0  0  0  0  0  0
   38.1180   33.9840   40.1470 C   0  0  0  0  0  0  0  0  0  0  0  0
   39.3620   33.6470   40.5780 N   0  0  0  0  0  0  0  0  0  0  0  0
   40.7510   32.1100   41.0030 H   0  0  0  0  0  0  0  0  0  0  0  0
   37.8480   35.0300   40.1000 H   0  0  0  0  0  0  0  0  0  0  0  0
   36.6690   30.6270   39.4680 C   0  0  0  0  0  0  0  0  0  0  0  0
   35.7530   30.1590   40.3480 C   0  0  0  0  0  0  0  0  0  0  0  0
   34.9010   29.1460   39.9600 C   0  0  0  0  0  0  0  0  0  0  0  0
   34.9390   28.5740   38.6910 C   0  0  0  0  0  0  0  0  0  0  0  0
   35.8930   29.0890   37.8330 C   0  0  0  0  0  0  0  0  0  0  0  0
   36.7180   30.0810   38.2310 N   0  0  0  0  0  0  0  0  0  0  0  0
   35.6120   30.5010   41.3540 H   0  0  0  0  0  0  0  0  0  0  0  0
   34.1530   28.7400   40.6280 H   0  0  0  0  0  0  0  0  0  0  0  0
   34.2900   27.7930   38.3740 H   0  0  0  0  0  0  0  0  0  0  0  0
   36.0390   28.7480   36.8280 H   0  0  0  0  0  0  0  0  0  0  0  0
   39.3010   27.0870   40.3030 C   0  0  0  0  0  0  0  0  0  0  0  0
   39.7210   27.6780   39.4910 H   0  0  0  0  0  0  0  0  0  0  0  0
   38.8060   26.1390   39.9310 H   0  0  0  0  0  0  0  0  0  0  0  0
   39.3060   24.4310   41.2980 F   0  0  0  0  0  0  0  0  0  0  0  0
   40.3800   25.2230   41.6310 C   0  0  0  0  0  0  0  0  0  0  0  0
   40.4090   26.5190   41.1630 C   0  0  0  0  0  0  0  0  0  0  0  0
   41.4760   27.2850   41.5010 C   0  0  0  0  0  0  0  0  0  0  0  0
   41.4790   28.2990   41.1230 H   0  0  0  0  0  0  0  0  0  0  0  0
   42.5540   26.8800   42.2810 C   0  0  0  0  0  0  0  0  0  0  0  0
   43.4000   27.4980   42.5460 H   0  0  0  0  0  0  0  0  0  0  0  0
   42.4360   25.5580   42.7060 C   0  0  0  0  0  3  0  0  0  0  0  0
   41.3910   24.7080   42.4130 C   0  0  0  0  0  3  0  0  0  0  0  0
  1  3  1  0  0  0  0
  2  1  2  0  0  0  0
  3  4  1  0  0  0  0
  4 10  1  0  0  0  0
  4  9  1  0  0  0  0
  4  5  1  0  0  0  0
  5 11  1  0  0  0  0
  6  5  1  0  0  0  0
  6 13  1  0  0  0  0
  7 16  1  0  0  0  0
  7  6  1  0  0  0  0
  8 17  1  6  0  0  0
  8  3  1  0  0  0  0
  8  7  1  0  0  0  0
 12  5  1  0  0  0  0
 14  6  1  0  0  0  0
 15  7  1  0  0  0  0
 18 24  1  0  0  0  0
 19  1  1  0  0  0  0
 19 18  2  0  0  0  0
 20 19  1  0  0  0  0
 21 20  2  0  0  0  0
 21 22  1  0  0  0  0
 22 23  2  0  0  0  0
 23 18  1  0  0  0  0
 25 22  1  0  0  0  0
 26 20  1  0  0  0  0
 26 27  1  0  0  0  0
 27 32  1  0  0  0  0
 28 27  2  0  0  0  0
 28 33  1  0  0  0  0
 29 28  1  0  0  0  0
 30 31  1  0  0  0  0
 30 29  2  0  0  0  0
 31 26  2  0  0  0  0
 34 29  1  0  0  0  0
 35 30  1  0  0  0  0
 36 41  1  0  0  0  0
 36  8  1  0  0  0  0
 37 36  1  0  0  0  0
 38 36  1  0  0  0  0
 39 40  1  0  0  0  0
 40 47  1  0  0  0  0
 41 42  1  0  0  0  0
 41 40  2  0  0  0  0
 42 44  2  0  0  0  0
 43 42  1  0  0  0  0
 44 45  1  0  0  0  0
 44 46  1  0  0  0  0
 47 46  2  0  0  0  0
M  END
>  <minimizedAffinity>
-5.80885267

$$$$

 OpenBabel03252507233D

 47 50  0  0  1  0  0  0  0  0999 V2000
   37.8670   27.3170   39.6510 C   0  0  0  0  0  0  0  0  0  0  0  0
   38.5630   27.7770   38.6860 O   0  0  0  0  0  0  0  0  0  0  0  0
   37.6410   28.0390   40.8530 N   0  0  0  0  0  0  0  0  0  0  0  0
   36.4030   28.2290   41.6250 C   0  0  0  0  0  0  0  0  0  0  0  0
   36.6690   27.8530   43.0810 C   0  0  0  0  0  0  0  0  0  0  0  0
   37.6440   28.8170   43.6790 C   0  0  0  0  0  0  0  0  0  0  0  0
   38.3520   29.5920   42.5800 C   0  0  0  0  0  0  0  0  0  0  0  0
   38.7600   28.7150   41.4490 C   0  0  2  0  0  0  0  0  0  0  0  0
   36.0880   29.2630   41.4880 H   0  0  0  0  0  0  0  0  0  0  0  0
   35.6410   27.5010   41.2300 H   0  0  0  0  0  0  0  0  0  0  0  0
   35.7280   27.7660   43.6340 H   0  0  0  0  0  0  0  0  0  0  0  0
   37.1930   26.8540   43.0150 H   0  0  0  0  0  0  0  0  0  0  0  0
   37.0960   29.5540   44.3280 H   0  0  0  0  0  0  0  0  0  0  0  0
   38.3930   28.3240   44.3320 H   0  0  0  0  0  0  0  0  0  0  0  0
   39.3130   29.9400   43.0640 H   0  0  0  0  0  0  0  0  0  0  0  0
   37.8070   30.4950   42.2770 H   0  0  0  0  0  0  0  0  0  0  0  0
   39.4480   27.9270   41.8820 H   0  0  0  0  0  0  0  0  0  0  0  0
   37.8130   24.9650   40.2930 C   0  0  0  0  0  0  0  0  0  0  0  0
   37.2870   26.0030   39.5050 C   0  0  0  0  0  0  0  0  0  0  0  0
   36.2450   25.7630   38.6200 C   0  0  0  0  0  0  0  0  0  0  0  0
   35.7730   24.4910   38.5620 N   0  0  0  0  0  0  0  0  0  0  0  0
   36.2630   23.4790   39.3090 C   0  0  0  0  0  0  0  0  0  0  0  0
   37.2830   23.7310   40.1700 N   0  0  0  0  0  0  0  0  0  0  0  0
   38.6250   25.1470   40.9840 H   0  0  0  0  0  0  0  0  0  0  0  0
   35.8710   22.4730   39.2440 H   0  0  0  0  0  0  0  0  0  0  0  0
   35.7350   26.8490   37.8280 C   0  0  0  0  0  0  0  0  0  0  0  0
   34.9100   27.7740   38.3720 C   0  0  0  0  0  0  0  0  0  0  0  0
   34.4370   28.8030   37.5840 C   0  0  0  0  0  0  0  0  0  0  0  0
   34.7730   28.9380   36.2400 C   0  0  0  0  0  0  0  0  0  0  0  0
   35.6180   27.9670   35.7360 C   0  0  0  0  0  0  0  0  0  0  0  0
   36.0710   26.9670   36.5220 N   0  0  0  0  0  0  0  0  0  0  0  0
   34.5660   27.7950   39.3870 H   0  0  0  0  0  0  0  0  0  0  0  0
   33.7750   29.5650   37.9740 H   0  0  0  0  0  0  0  0  0  0  0  0
   34.4190   29.7240   35.6160 H   0  0  0  0  0  0  0  0  0  0  0  0
   35.9610   27.9410   34.7210 H   0  0  0  0  0  0  0  0  0  0  0  0
   39.6100   29.4790   40.4760 C   0  0  0  0  0  0  0  0  0  0  0  0
   39.7120   29.0090   39.4990 H   0  0  0  0  0  0  0  0  0  0  0  0
   40.6100   29.7920   40.9060 H   0  0  0  0  0  0  0  0  0  0  0  0
   40.5420   31.8550   41.7130 F   0  0  0  0  0  0  0  0  0  0  0  0
   39.3970   31.9540   40.9570 C   0  0  0  0  0  0  0  0  0  0  0  0
   38.9180   30.8180   40.3420 C   0  0  0  0  0  0  0  0  0  0  0  0
   37.7880   30.9340   39.6000 C   0  0  0  0  0  0  0  0  0  0  0  0
   37.4290   30.0300   39.1260 H   0  0  0  0  0  0  0  0  0  0  0  0
   37.0630   32.1050   39.4000 C   0  0  0  0  0  0  0  0  0  0  0  0
   36.1640   32.1870   38.8080 H   0  0  0  0  0  0  0  0  0  0  0  0
   37.6240   33.1960   40.0600 C   0  0  0  0  0  3  0  0  0  0  0  0
   38.7640   33.1720   40.8330 C   0  0  0  0  0  3  0  0  0  0  0  0
  1  3  1  0  0  0  0
  2  1  2  0  0  0  0
  3  8  1  0  0  0  0
  3  4  1  0  0  0  0
  4  5  1  0  0  0  0
  5 11  1  0  0  0  0
  5  6  1  0  0  0  0
  6 13  1  0  0  0  0
  6 14  1  0  0  0  0
  7 15  1  0  0  0  0
  7  6  1  0  0  0  0
  8 17  1  1  0  0  0
  8  7  1  0  0  0  0
  9  4  1  0  0  0  0
 10  4  1  0  0  0  0
 12  5  1  0  0  0  0
 16  7  1  0  0  0  0
 18 24  1  0  0  0  0
 19  1  1  0  0  0  0
 19 18  2  0  0  0  0
 20 19  1  0  0  0  0
 21 20  2  0  0  0  0
 21 22  1  0  0  0  0
 22 23  2  0  0  0  0
 23 18  1  0  0  0  0
 25 22  1  0  0  0  0
 26 27  1  0  0  0  0
 26 20  1  0  0  0  0
 27 32  1  0  0  0  0
 28 33  1  0  0  0  0
 28 27  2  0  0  0  0
 29 28  1  0  0  0  0
 30 29  2  0  0  0  0
 30 31  1  0  0  0  0
 31 26  2  0  0  0  0
 34 29  1  0  0  0  0
 35 30  1  0  0  0  0
 36 38  1  0  0  0  0
 36  8  1  0  0  0  0
 37 36  1  0  0  0  0
 40 39  1  0  0  0  0
 41 36  1  0  0  0  0
 41 40  2  0  0  0  0
 42 41  1  0  0  0  0
 43 42  1  0  0  0  0
 44 42  2  0  0  0  0
 44 46  1  0  0  0  0
 45 44  1  0  0  0  0
 46 47  2  0  0  0  0
 47 40  1  0  0  0  0
M  END
>  <minimizedAffinity>
-5.78538752

$$$$

 OpenBabel03252507233D

 47 50  0  0  1  0  0  0  0  0999 V2000
   39.4920   29.6650   40.6000 C   0  0  0  0  0  0  0  0  0  0  0  0
   40.3270   28.7590   40.9280 O   0  0  0  0  0  0  0  0  0  0  0  0
   38.0970   29.5560   40.8460 N   0  0  0  0  0  0  0  0  0  0  0  0
   37.1480   30.5490   41.3740 C   0  0  0  0  0  0  0  0  0  0  0  0
   35.9560   30.6430   40.4250 C   0  0  0  0  0  0  0  0  0  0  0  0
   35.2030   29.3520   40.4340 C   0  0  0  0  0  0  0  0  0  0  0  0
   36.0570   28.2540   41.0460 C   0  0  0  0  0  0  0  0  0  0  0  0
   37.4620   28.3000   40.5590 C   0  0  2  0  0  0  0  0  0  0  0  0
   36.8830   30.2410   42.3860 H   0  0  0  0  0  0  0  0  0  0  0  0
   37.6620   31.5510   41.3610 H   0  0  0  0  0  0  0  0  0  0  0  0
   35.3450   31.5220   40.6600 H   0  0  0  0  0  0  0  0  0  0  0  0
   36.4280   30.7420   39.4020 H   0  0  0  0  0  0  0  0  0  0  0  0
   34.2740   29.4620   41.0600 H   0  0  0  0  0  0  0  0  0  0  0  0
   34.8620   29.0440   39.4250 H   0  0  0  0  0  0  0  0  0  0  0  0
   35.6160   27.2990   40.6310 H   0  0  0  0  0  0  0  0  0  0  0  0
   35.9590   28.1970   42.1380 H   0  0  0  0  0  0  0  0  0  0  0  0
   37.4190   28.1850   39.4330 H   0  0  0  0  0  0  0  0  0  0  0  0
   40.5860   31.8380   40.7580 C   0  0  0  0  0  0  0  0  0  0  0  0
   39.9970   30.8510   39.9500 C   0  0  0  0  0  0  0  0  0  0  0  0
   39.9080   31.0210   38.5750 C   0  0  0  0  0  0  0  0  0  0  0  0
   40.4150   32.1740   38.0670 N   0  0  0  0  0  0  0  0  0  0  0  0
   40.9850   33.1350   38.8240 C   0  0  0  0  0  0  0  0  0  0  0  0
   41.0630   32.9530   40.1690 N   0  0  0  0  0  0  0  0  0  0  0  0
   40.6570   31.7110   41.8310 H   0  0  0  0  0  0  0  0  0  0  0  0
   41.3810   34.0460   38.3970 H   0  0  0  0  0  0  0  0  0  0  0  0
   39.2960   29.9910   37.7810 C   0  0  0  0  0  0  0  0  0  0  0  0
   38.0070   30.1000   37.3830 C   0  0  0  0  0  0  0  0  0  0  0  0
   37.4480   29.0940   36.6220 C   0  0  0  0  0  0  0  0  0  0  0  0
   38.1560   27.9580   36.2390 C   0  0  0  0  0  0  0  0  0  0  0  0
   39.4680   27.8980   36.6720 C   0  0  0  0  0  0  0  0  0  0  0  0
   39.9970   28.8930   37.4160 N   0  0  0  0  0  0  0  0  0  0  0  0
   37.3440   30.9120   37.6040 H   0  0  0  0  0  0  0  0  0  0  0  0
   36.4230   29.1360   36.2810 H   0  0  0  0  0  0  0  0  0  0  0  0
   37.7430   27.1720   35.6520 H   0  0  0  0  0  0  0  0  0  0  0  0
   40.1320   27.0860   36.4550 H   0  0  0  0  0  0  0  0  0  0  0  0
   38.2220   27.0990   41.0410 C   0  0  0  0  0  0  0  0  0  0  0  0
   38.2400   26.9800   42.1240 H   0  0  0  0  0  0  0  0  0  0  0  0
   39.2540   27.0090   40.5840 H   0  0  0  0  0  0  0  0  0  0  0  0
   36.9750   25.0230   42.5190 F   0  0  0  0  0  0  0  0  0  0  0  0
   36.9210   24.9320   41.1480 C   0  0  0  0  0  0  0  0  0  0  0  0
   37.5150   25.9240   40.4000 C   0  0  0  0  0  0  0  0  0  0  0  0
   37.4510   25.8180   39.0490 C   0  0  0  0  0  0  0  0  0  0  0  0
   37.9240   26.6080   38.4810 H   0  0  0  0  0  0  0  0  0  0  0  0
   36.8320   24.7910   38.3430 C   0  0  0  0  0  0  0  0  0  0  0  0
   36.7870   24.7140   37.2670 H   0  0  0  0  0  0  0  0  0  0  0  0
   36.2610   23.8380   39.1830 C   0  0  0  0  0  3  0  0  0  0  0  0
   36.2780   23.8630   40.5610 C   0  0  0  0  0  3  0  0  0  0  0  0
  1  3  1  0  0  0  0
  1  2  2  0  0  0  0
  3  4  1  0  0  0  0
  4  9  1  0  0  0  0
  5  6  1  0  0  0  0
  5 11  1  0  0  0  0
  5  4  1  0  0  0  0
  6  7  1  0  0  0  0
  6 13  1  0  0  0  0
  7 16  1  0  0  0  0
  8 17  1  6  0  0  0
  8  3  1  0  0  0  0
  8 36  1  0  0  0  0
  8  7  1  0  0  0  0
 10  4  1  0  0  0  0
 12  5  1  0  0  0  0
 14  6  1  0  0  0  0
 15  7  1  0  0  0  0
 18 24  1  0  0  0  0
 19  1  1  0  0  0  0
 19 18  2  0  0  0  0
 20 19  1  0  0  0  0
 21 20  2  0  0  0  0
 21 22  1  0  0  0  0
 22 23  2  0  0  0  0
 23 18  1  0  0  0  0
 25 22  1  0  0  0  0
 26 20  1  0  0  0  0
 27 32  1  0  0  0  0
 27 26  2  0  0  0  0
 28 27  1  0  0  0  0
 29 28  2  0  0  0  0
 29 30  1  0  0  0  0
 30 31  2  0  0  0  0
 31 26  1  0  0  0  0
 33 28  1  0  0  0  0
 34 29  1  0  0  0  0
 35 30  1  0  0  0  0
 36 37  1  0  0  0  0
 38 36  1  0  0  0  0
 40 39  1  0  0  0  0
 41 36  1  0  0  0  0
 41 40  2  0  0  0  0
 42 41  1  0  0  0  0
 43 42  1  0  0  0  0
 44 42  2  0  0  0  0
 44 46  1  0  0  0  0
 45 44  1  0  0  0  0
 46 47  2  0  0  0  0
 47 40  1  0  0  0  0
M  END
>  <minimizedAffinity>
-5.72174501

$$$$
