
 OpenBabel03242519473D

 38 40  0  0  1  0  0  0  0  0999 V2000
   46.6820   32.8200   46.6090 C   0  0  2  0  0  0  0  0  0  0  0  0
   47.0750   32.7520   45.1850 C   0  0  1  0  0  0  0  0  0  0  0  0
   46.5980   31.4310   44.7550 O   0  0  0  0  0  0  0  0  0  0  0  0
   47.2660   30.7110   45.7720 C   0  0  0  0  0  0  0  0  0  0  0  0
   46.6070   31.3590   47.0190 C   0  0  2  0  0  0  0  0  0  0  0  0
   47.3780   33.4010   47.2440 H   0  0  0  0  0  0  0  0  0  0  0  0
   48.1610   32.6530   45.0420 H   0  0  0  0  0  0  0  0  0  0  0  0
   47.1950   29.6520   45.7330 H   0  0  0  0  0  0  0  0  0  0  0  0
   48.3150   31.1060   45.7630 H   0  0  0  0  0  0  0  0  0  0  0  0
   47.2530   31.0790   47.8850 H   0  0  0  0  0  0  0  0  0  0  0  0
   44.7140   35.2580   43.9810 C   0  0  0  0  0  0  0  0  0  0  0  0
   45.3350   35.7770   42.8340 C   0  0  0  0  0  0  0  0  0  0  0  0
   46.5910   35.2510   42.4600 C   0  0  0  0  0  0  0  0  0  0  0  0
   47.1430   34.2750   43.2140 N   0  0  0  0  0  0  0  0  0  0  0  0
   46.5130   33.7930   44.3240 C   0  0  0  0  0  0  0  0  0  0  0  0
   45.3130   34.2750   44.7080 N   0  0  0  0  0  0  0  0  0  0  0  0
   44.7930   36.5530   42.3170 H   0  0  0  0  0  0  0  0  0  0  0  0
   47.0390   35.6680   41.5810 H   0  0  0  0  0  0  0  0  0  0  0  0
   43.4770   35.7370   44.4000 O   0  0  0  0  0  0  0  0  0  0  0  0
   43.4110   36.5300   45.0460 H   0  0  0  0  0  0  0  0  0  0  0  0
   45.3560   33.3700   46.7070 O   0  0  0  0  0  0  0  0  0  0  0  0
   44.7210   32.6350   46.4510 H   0  0  0  0  0  0  0  0  0  0  0  0
   45.3180   30.9160   47.0810 O   0  0  0  0  0  0  0  0  0  0  0  0
   45.0720   29.9200   47.9960 C   0  0  0  0  0  0  0  0  0  0  0  0
   45.1300   30.2650   49.0110 H   0  0  0  0  0  0  0  0  0  0  0  0
   43.8860   29.7450   47.9410 H   0  0  0  0  0  0  0  0  0  0  0  0
   45.5910   28.5830   47.7040 C   0  0  0  0  0  0  0  0  0  0  0  0
   46.3390   28.5530   46.8670 H   0  0  0  0  0  0  0  0  0  0  0  0
   46.1810   28.2410   48.5800 H   0  0  0  0  0  0  0  0  0  0  0  0
   44.6970   26.2160   49.3000 F   0  0  0  0  0  0  0  0  0  0  0  0
   44.0640   26.4710   48.1420 C   0  0  0  0  0  0  0  0  0  0  0  0
   44.5140   27.5790   47.4800 C   0  0  0  0  0  0  0  0  0  0  0  0
   43.7750   27.7440   46.2900 C   0  0  0  0  0  0  0  0  0  0  0  0
   44.0050   28.5970   45.6240 H   0  0  0  0  0  0  0  0  0  0  0  0
   42.7550   26.9580   45.8070 C   0  0  0  0  0  0  0  0  0  0  0  0
   42.2560   27.1780   44.8760 H   0  0  0  0  0  0  0  0  0  0  0  0
   42.4080   25.8730   46.5800 C   0  0  0  0  0  0  0  0  0  0  0  0
   43.0640   25.6180   47.7630 C   0  0  0  0  0  0  0  0  0  0  0  0
  1 21  1  0  0  0  0
  1  5  1  0  0  0  0
  1  6  1  1  0  0  0
  2  7  1  6  0  0  0
  2  1  1  0  0  0  0
  3  2  1  0  0  0  0
  3  4  1  0  0  0  0
  4  5  1  0  0  0  0
  5 23  1  0  0  0  0
  5 10  1  1  0  0  0
  8  4  1  0  0  0  0
  9  4  1  0  0  0  0
 11 19  1  0  0  0  0
 11 16  1  0  0  0  0
 12 11  2  0  0  0  0
 13 12  1  0  0  0  0
 13 14  2  0  0  0  0
 14 15  1  0  0  0  0
 15 16  2  0  0  0  0
 15  2  1  0  0  0  0
 17 12  1  0  0  0  0
 18 13  1  0  0  0  0
 19 20  1  0  0  0  0
 22 21  1  0  0  0  0
 23 24  1  0  0  0  0
 24 25  1  0  0  0  0
 26 24  1  0  0  0  0
 27 24  1  0  0  0  0
 27 29  1  0  0  0  0
 28 27  1  0  0  0  0
 31 30  1  0  0  0  0
 32 27  1  0  0  0  0
 32 31  2  0  0  0  0
 33 32  1  0  0  0  0
 34 33  1  0  0  0  0
 35 33  2  0  0  0  0
 35 37  1  0  0  0  0
 36 35  1  0  0  0  0
 37 38  2  0  0  0  0
 38 31  1  0  0  0  0
M  END
>  <minimizedAffinity>
-5.94183731

>  <minimizedRMSD>
1.14981914

$$$$
