
 OpenBabel03252509243D

 27 29  0  0  1  0  0  0  0  0999 V2000
   46.4620   35.0090   41.9150 C   0  0  1  0  0  0  0  0  0  0  0  0
   47.9890   35.2590   41.8550 C   0  0  0  0  0  0  0  0  0  0  0  0
   47.2490   34.0100   41.2870 C   0  0  2  0  0  0  0  0  0  0  0  0
   45.8700   35.7740   41.3950 H   0  0  0  0  0  0  0  0  0  0  0  0
   48.5990   35.0730   42.7340 H   0  0  0  0  0  0  0  0  0  0  0  0
   48.2770   36.0170   41.1230 H   0  0  0  0  0  0  0  0  0  0  0  0
   47.4880   33.0500   41.8130 H   0  0  0  0  0  0  0  0  0  0  0  0
   45.3070   32.6210   39.6480 F   0  0  0  0  0  0  0  0  0  0  0  0
   46.3250   33.2140   39.0010 C   0  0  0  0  0  0  0  0  0  0  0  0
   47.2210   33.8570   39.8290 C   0  0  0  0  0  0  0  0  0  0  0  0
   48.2880   34.4760   39.1660 C   0  0  0  0  0  0  0  0  0  0  0  0
   49.0670   35.0170   39.6820 H   0  0  0  0  0  0  0  0  0  0  0  0
   48.4540   34.4610   37.7970 C   0  0  0  0  0  0  0  0  0  0  0  0
   49.2630   34.9300   37.2920 H   0  0  0  0  0  0  0  0  0  0  0  0
   47.5320   33.8050   37.0140 C   0  0  0  0  0  3  0  0  0  0  0  0
   46.4730   33.1880   37.6470 C   0  0  0  0  0  3  0  0  0  0  0  0
   44.6910   35.3650   45.2110 C   0  0  0  0  0  0  0  0  0  0  0  0
   45.1090   35.6720   43.8700 C   0  0  0  0  0  0  0  0  0  0  0  0
   46.0270   34.7930   43.3590 C   0  0  0  0  0  0  0  0  0  0  0  0
   46.5100   33.7040   44.0750 N   0  0  0  0  0  0  0  0  0  0  0  0
   46.0780   33.4770   45.3200 C   0  0  0  0  0  0  0  0  0  0  0  0
   45.1650   34.3110   45.8900 N   0  0  0  0  0  0  0  0  0  0  0  0
   43.9740   36.0170   45.6610 H   0  0  0  0  0  0  0  0  0  0  0  0
   46.5520   32.5980   45.7250 H   0  0  0  0  0  0  0  0  0  0  0  0
   44.6250   36.8020   43.1560 N   0  0  0  0  0  0  0  0  0  0  0  0
   44.0600   36.6360   42.2900 H   0  0  0  0  0  0  0  0  0  0  0  0
   44.8700   37.7400   43.5520 H   0  0  0  0  0  0  0  0  0  0  0  0
  1  4  1  6  0  0  0
  1 19  1  0  0  0  0
  2  1  1  0  0  0  0
  2  5  1  0  0  0  0
  3  7  1  1  0  0  0
  3  2  1  0  0  0  0
  3  1  1  0  0  0  0
  6  2  1  0  0  0  0
  9  8  1  0  0  0  0
  9 10  1  0  0  0  0
 10  3  1  0  0  0  0
 11 12  1  0  0  0  0
 11 10  2  0  0  0  0
 13 11  1  0  0  0  0
 14 13  1  0  0  0  0
 15 16  1  0  0  0  0
 15 13  2  0  0  0  0
 16  9  2  0  0  0  0
 17 23  1  0  0  0  0
 17 22  1  0  0  0  0
 18 17  2  0  0  0  0
 19 18  1  0  0  0  0
 19 20  2  0  0  0  0
 20 21  1  0  0  0  0
 21 24  1  0  0  0  0
 21 22  2  0  0  0  0
 25 27  1  0  0  0  0
 25 18  1  0  0  0  0
 26 25  1  0  0  0  0
M  END
>  <minimizedAffinity>
-5.57208014

>  <minimizedRMSD>
0.496722609

$$$$
