
 OpenBabel03252509233D

 27 29  0  0  1  0  0  0  0  0999 V2000
   46.6140   35.0600   41.9920 C   0  0  1  0  0  0  0  0  0  0  0  0
   48.1310   35.3700   42.0320 C   0  0  0  0  0  0  0  0  0  0  0  0
   47.4800   34.0860   41.4320 C   0  0  2  0  0  0  0  0  0  0  0  0
   46.0300   35.7960   41.4220 H   0  0  0  0  0  0  0  0  0  0  0  0
   48.6850   35.2170   42.9540 H   0  0  0  0  0  0  0  0  0  0  0  0
   48.4380   36.1310   41.3120 H   0  0  0  0  0  0  0  0  0  0  0  0
   47.7200   33.1430   41.9860 H   0  0  0  0  0  0  0  0  0  0  0  0
   48.9560   35.6630   39.5020 F   0  0  0  0  0  0  0  0  0  0  0  0
   48.2440   34.6310   39.0180 C   0  0  0  0  0  0  0  0  0  0  0  0
   47.5580   33.9180   39.9780 C   0  0  0  0  0  0  0  0  0  0  0  0
   46.8100   32.8420   39.4830 C   0  0  0  0  0  0  0  0  0  0  0  0
   46.2230   32.1940   40.1160 H   0  0  0  0  0  0  0  0  0  0  0  0
   46.7460   32.5000   38.1480 C   0  0  0  0  0  0  0  0  0  0  0  0
   46.1790   31.6840   37.7710 H   0  0  0  0  0  0  0  0  0  0  0  0
   47.4490   33.2440   37.2280 C   0  0  0  0  0  3  0  0  0  0  0  0
   48.1920   34.3080   37.6940 C   0  0  0  0  0  3  0  0  0  0  0  0
   44.6220   35.3940   45.1620 C   0  0  0  0  0  0  0  0  0  0  0  0
   45.1210   35.7030   43.8490 C   0  0  0  0  0  0  0  0  0  0  0  0
   46.0900   34.8420   43.4060 C   0  0  0  0  0  0  0  0  0  0  0  0
   46.5480   33.7680   44.1590 N   0  0  0  0  0  0  0  0  0  0  0  0
   46.0400   33.5380   45.3750 C   0  0  0  0  0  0  0  0  0  0  0  0
   45.0740   34.3540   45.8780 N   0  0  0  0  0  0  0  0  0  0  0  0
   43.8630   36.0320   45.5590 H   0  0  0  0  0  0  0  0  0  0  0  0
   46.5060   32.6720   45.8160 H   0  0  0  0  0  0  0  0  0  0  0  0
   44.6600   36.8180   43.0970 N   0  0  0  0  0  0  0  0  0  0  0  0
   44.1570   36.6350   42.1970 H   0  0  0  0  0  0  0  0  0  0  0  0
   44.8580   37.7630   43.5020 H   0  0  0  0  0  0  0  0  0  0  0  0
  1  4  1  6  0  0  0
  1  2  1  0  0  0  0
  1 19  1  0  0  0  0
  2  5  1  0  0  0  0
  3  7  1  1  0  0  0
  3  1  1  0  0  0  0
  3  2  1  0  0  0  0
  6  2  1  0  0  0  0
  9  8  1  0  0  0  0
  9 10  1  0  0  0  0
 10  3  1  0  0  0  0
 11 10  2  0  0  0  0
 11 12  1  0  0  0  0
 13 11  1  0  0  0  0
 14 13  1  0  0  0  0
 15 16  1  0  0  0  0
 15 13  2  0  0  0  0
 16  9  2  0  0  0  0
 17 23  1  0  0  0  0
 17 22  1  0  0  0  0
 18 17  2  0  0  0  0
 19 18  1  0  0  0  0
 19 20  2  0  0  0  0
 20 21  1  0  0  0  0
 21 24  1  0  0  0  0
 21 22  2  0  0  0  0
 25 27  1  0  0  0  0
 25 18  1  0  0  0  0
 26 25  1  0  0  0  0
M  END
>  <minimizedAffinity>
-5.58772993

>  <minimizedRMSD>
0.408013761

$$$$
