
 OpenBabel03252509233D

 27 29  0  0  1  0  0  0  0  0999 V2000
   48.6290   33.8930   42.2720 C   0  0  1  0  0  0  0  0  0  0  0  0
   48.3750   35.2980   41.6710 C   0  0  0  0  0  0  0  0  0  0  0  0
   47.2780   34.2500   42.0290 C   0  0  2  0  0  0  0  0  0  0  0  0
   49.1280   33.9180   43.2510 H   0  0  0  0  0  0  0  0  0  0  0  0
   48.5260   35.4620   40.6080 H   0  0  0  0  0  0  0  0  0  0  0  0
   48.5130   36.1090   42.3890 H   0  0  0  0  0  0  0  0  0  0  0  0
   46.7240   33.8390   41.1470 H   0  0  0  0  0  0  0  0  0  0  0  0
   46.9560   32.8600   44.5490 F   0  0  0  0  0  0  0  0  0  0  0  0
   46.1980   33.9530   44.3650 C   0  0  0  0  0  0  0  0  0  0  0  0
   46.3880   34.5730   43.1480 C   0  0  0  0  0  0  0  0  0  0  0  0
   45.6000   35.7130   42.9450 C   0  0  0  0  0  0  0  0  0  0  0  0
   45.6400   36.3010   42.0400 H   0  0  0  0  0  0  0  0  0  0  0  0
   44.6980   36.1990   43.8680 C   0  0  0  0  0  0  0  0  0  0  0  0
   44.0990   37.0630   43.7150 H   0  0  0  0  0  0  0  0  0  0  0  0
   44.5450   35.5430   45.0680 C   0  0  0  0  0  3  0  0  0  0  0  0
   45.3120   34.4180   45.2900 C   0  0  0  0  0  3  0  0  0  0  0  0
   51.2270   31.7760   40.5710 C   0  0  0  0  0  0  0  0  0  0  0  0
   50.6390   32.6640   41.5370 C   0  0  0  0  0  0  0  0  0  0  0  0
   49.3450   33.0140   41.2550 C   0  0  0  0  0  0  0  0  0  0  0  0
   48.6640   32.5500   40.1350 N   0  0  0  0  0  0  0  0  0  0  0  0
   49.2720   31.7250   39.2760 C   0  0  0  0  0  0  0  0  0  0  0  0
   50.5580   31.3370   39.4950 N   0  0  0  0  0  0  0  0  0  0  0  0
   52.2360   31.4680   40.7410 H   0  0  0  0  0  0  0  0  0  0  0  0
   48.6040   31.4670   38.4710 H   0  0  0  0  0  0  0  0  0  0  0  0
   51.3530   33.1500   42.6660 N   0  0  0  0  0  0  0  0  0  0  0  0
   51.0180   32.8750   43.6200 H   0  0  0  0  0  0  0  0  0  0  0  0
   52.1810   33.7580   42.4640 H   0  0  0  0  0  0  0  0  0  0  0  0
  1  4  1  1  0  0  0
  2  3  1  0  0  0  0
  2  1  1  0  0  0  0
  2  6  1  0  0  0  0
  3  7  1  6  0  0  0
  3  1  1  0  0  0  0
  3 10  1  0  0  0  0
  5  2  1  0  0  0  0
  9  8  1  0  0  0  0
  9 16  1  0  0  0  0
 10  9  2  0  0  0  0
 11 10  1  0  0  0  0
 11 13  2  0  0  0  0
 12 11  1  0  0  0  0
 13 15  1  0  0  0  0
 14 13  1  0  0  0  0
 15 16  2  0  0  0  0
 17 23  1  0  0  0  0
 17 18  1  0  0  0  0
 18 25  1  0  0  0  0
 19 18  2  0  0  0  0
 19  1  1  0  0  0  0
 20 19  1  0  0  0  0
 21 22  1  0  0  0  0
 21 20  2  0  0  0  0
 22 17  2  0  0  0  0
 24 21  1  0  0  0  0
 25 26  1  0  0  0  0
 27 25  1  0  0  0  0
M  END
>  <minimizedAffinity>
-5.51440763

>  <minimizedRMSD>
6.26741838

$$$$
