
 OpenBabel03242518373D

 35 38  0  0  1  0  0  0  0  0999 V2000
   39.6010   29.4720   41.6210 C   0  0  0  0  0  0  0  0  0  0  0  0
   40.2240   29.0870   40.4350 C   0  0  0  0  0  0  0  0  0  0  0  0
   40.0350   30.0800   39.4890 C   0  0  0  0  0  0  0  0  0  0  0  0
   39.2990   31.0310   40.1480 C   0  0  0  0  0  0  0  0  0  0  0  0
   39.0510   30.6670   41.3900 O   0  0  0  0  0  0  0  0  0  0  0  0
   40.7470   28.1330   40.3800 H   0  0  0  0  0  0  0  0  0  0  0  0
   40.4210   30.0230   38.4850 H   0  0  0  0  0  0  0  0  0  0  0  0
   38.8460   32.2980   39.5560 C   0  0  2  0  0  0  0  0  0  0  0  0
   37.7970   33.0840   40.2370 C   0  0  0  0  0  0  0  0  0  0  0  0
   37.3840   32.2610   39.0640 C   0  0  2  0  0  0  0  0  0  0  0  0
   39.5630   32.7810   38.8520 H   0  0  0  0  0  0  0  0  0  0  0  0
   37.8840   34.1990   40.1090 H   0  0  0  0  0  0  0  0  0  0  0  0
   37.4250   32.7600   41.2300 H   0  0  0  0  0  0  0  0  0  0  0  0
   37.2250   32.8420   38.1360 H   0  0  0  0  0  0  0  0  0  0  0  0
   37.2000   30.6580   36.8490 F   0  0  0  0  0  0  0  0  0  0  0  0
   36.5890   30.2910   38.0230 C   0  0  0  0  0  0  0  0  0  0  0  0
   36.6150   31.0270   39.2140 C   0  0  0  0  0  0  0  0  0  0  0  0
   35.9500   30.5100   40.2870 C   0  0  0  0  0  0  0  0  0  0  0  0
   36.0220   31.1460   41.1700 H   0  0  0  0  0  0  0  0  0  0  0  0
   35.2770   29.3080   40.2120 C   0  0  0  0  0  0  0  0  0  0  0  0
   34.7690   28.9610   41.1130 H   0  0  0  0  0  0  0  0  0  0  0  0
   35.2420   28.5730   39.0430 C   0  0  0  0  0  3  0  0  0  0  0  0
   35.9070   29.0720   37.9410 C   0  0  0  0  0  3  0  0  0  0  0  0
   39.4990   28.8310   42.8730 O   0  0  0  0  0  0  0  0  0  0  0  0
   38.3420   28.0910   43.1860 C   0  0  0  0  0  0  0  0  0  0  0  0
   37.3910   28.7570   43.6800 O   0  0  0  0  0  0  0  0  0  0  0  0
   38.3810   26.6990   42.9150 C   0  0  0  0  0  0  0  0  0  0  0  0
   37.2740   26.2100   42.2760 C   0  0  0  0  0  0  0  0  0  0  0  0
   37.2390   24.8490   41.9770 C   0  0  0  0  0  0  0  0  0  0  0  0
   38.2910   24.0910   42.3300 N   0  0  0  0  0  0  0  0  0  0  0  0
   39.3580   24.6040   42.9540 C   0  0  0  0  0  0  0  0  0  0  0  0
   39.3910   25.9180   43.2430 N   0  0  0  0  0  0  0  0  0  0  0  0
   36.3770   26.7520   41.9540 H   0  0  0  0  0  0  0  0  0  0  0  0
   36.3900   24.4010   41.4720 H   0  0  0  0  0  0  0  0  0  0  0  0
   40.1520   23.9050   43.1950 H   0  0  0  0  0  0  0  0  0  0  0  0
  1 24  1  0  0  0  0
  2  1  2  0  0  0  0
  3  4  2  0  0  0  0
  3  2  1  0  0  0  0
  4  5  1  0  0  0  0
  5  1  1  0  0  0  0
  6  2  1  0  0  0  0
  7  3  1  0  0  0  0
  8 11  1  6  0  0  0
  8  4  1  0  0  0  0
  8  9  1  0  0  0  0
  9 13  1  0  0  0  0
 10 14  1  6  0  0  0
 10 17  1  0  0  0  0
 10  8  1  0  0  0  0
 10  9  1  0  0  0  0
 12  9  1  0  0  0  0
 15 16  1  0  0  0  0
 16 17  1  0  0  0  0
 17 18  2  0  0  0  0
 18 19  1  0  0  0  0
 20 18  1  0  0  0  0
 20 21  1  0  0  0  0
 22 20  2  0  0  0  0
 23 16  2  0  0  0  0
 23 22  1  0  0  0  0
 24 25  1  0  0  0  0
 25 26  2  0  0  0  0
 27 25  1  0  0  0  0
 27 32  1  0  0  0  0
 28 27  2  0  0  0  0
 29 28  1  0  0  0  0
 29 30  2  0  0  0  0
 30 31  1  0  0  0  0
 31 35  1  0  0  0  0
 31 32  2  0  0  0  0
 33 28  1  0  0  0  0
 34 29  1  0  0  0  0
M  END
>  <minimizedAffinity>
-5.75058889

$$$$

 OpenBabel03242518373D

 35 38  0  0  1  0  0  0  0  0999 V2000
   36.6790   28.5380   39.5440 C   0  0  0  0  0  0  0  0  0  0  0  0
   37.6320   27.5900   39.1750 C   0  0  0  0  0  0  0  0  0  0  0  0
   37.8650   26.7510   40.2510 C   0  0  0  0  0  0  0  0  0  0  0  0
   37.0370   27.2300   41.2330 C   0  0  0  0  0  0  0  0  0  0  0  0
   36.3490   28.2730   40.8110 O   0  0  0  0  0  0  0  0  0  0  0  0
   38.0550   27.6060   38.1720 H   0  0  0  0  0  0  0  0  0  0  0  0
   38.5630   25.9310   40.2210 H   0  0  0  0  0  0  0  0  0  0  0  0
   36.9200   26.6590   42.5830 C   0  0  2  0  0  0  0  0  0  0  0  0
   36.3840   27.4900   43.6790 C   0  0  0  0  0  0  0  0  0  0  0  0
   37.8630   27.3140   43.6130 C   0  0  2  0  0  0  0  0  0  0  0  0
   36.8790   25.5460   42.6290 H   0  0  0  0  0  0  0  0  0  0  0  0
   35.8080   26.9240   44.4640 H   0  0  0  0  0  0  0  0  0  0  0  0
   35.9920   28.5040   43.4590 H   0  0  0  0  0  0  0  0  0  0  0  0
   38.2680   26.5930   44.3490 H   0  0  0  0  0  0  0  0  0  0  0  0
   40.4860   26.6340   43.1970 F   0  0  0  0  0  0  0  0  0  0  0  0
   40.0640   27.9260   42.9980 C   0  0  0  0  0  0  0  0  0  0  0  0
   38.7550   28.3880   43.1780 C   0  0  0  0  0  0  0  0  0  0  0  0
   38.5140   29.7080   42.9360 C   0  0  0  0  0  0  0  0  0  0  0  0
   37.4720   29.9810   43.1000 H   0  0  0  0  0  0  0  0  0  0  0  0
   39.5170   30.5640   42.5250 C   0  0  0  0  0  0  0  0  0  0  0  0
   39.2470   31.6060   42.3510 H   0  0  0  0  0  0  0  0  0  0  0  0
   40.8120   30.1210   42.3450 C   0  0  0  0  0  3  0  0  0  0  0  0
   41.0850   28.7890   42.5840 C   0  0  0  0  0  3  0  0  0  0  0  0
   36.0950   29.6040   38.8280 O   0  0  0  0  0  0  0  0  0  0  0  0
   36.9040   30.4290   38.0210 C   0  0  0  0  0  0  0  0  0  0  0  0
   36.9050   30.1480   36.7910 O   0  0  0  0  0  0  0  0  0  0  0  0
   37.6160   31.4650   38.6770 C   0  0  0  0  0  0  0  0  0  0  0  0
   38.9780   31.3480   38.6190 C   0  0  0  0  0  0  0  0  0  0  0  0
   39.7460   32.3300   39.2430 C   0  0  0  0  0  0  0  0  0  0  0  0
   39.1110   33.3370   39.8660 N   0  0  0  0  0  0  0  0  0  0  0  0
   37.7760   33.4190   39.9020 C   0  0  0  0  0  0  0  0  0  0  0  0
   37.0350   32.4710   39.3000 N   0  0  0  0  0  0  0  0  0  0  0  0
   39.5760   30.5660   38.1360 H   0  0  0  0  0  0  0  0  0  0  0  0
   40.8310   32.2940   39.2320 H   0  0  0  0  0  0  0  0  0  0  0  0
   37.3650   34.2720   40.4320 H   0  0  0  0  0  0  0  0  0  0  0  0
  1  5  1  0  0  0  0
  2  1  2  0  0  0  0
  2  3  1  0  0  0  0
  3  4  2  0  0  0  0
  4  8  1  0  0  0  0
  5  4  1  0  0  0  0
  6  2  1  0  0  0  0
  7  3  1  0  0  0  0
  8 11  1  1  0  0  0
  8 10  1  0  0  0  0
  8  9  1  0  0  0  0
  9 12  1  0  0  0  0
 10  9  1  0  0  0  0
 10 14  1  1  0  0  0
 13  9  1  0  0  0  0
 16 17  1  0  0  0  0
 16 15  1  0  0  0  0
 17 10  1  0  0  0  0
 18 19  1  0  0  0  0
 18 17  2  0  0  0  0
 20 18  1  0  0  0  0
 21 20  1  0  0  0  0
 22 20  2  0  0  0  0
 22 23  1  0  0  0  0
 23 16  2  0  0  0  0
 24  1  1  0  0  0  0
 25 27  1  0  0  0  0
 25 24  1  0  0  0  0
 26 25  2  0  0  0  0
 27 32  1  0  0  0  0
 28 27  2  0  0  0  0
 28 29  1  0  0  0  0
 29 30  2  0  0  0  0
 30 31  1  0  0  0  0
 31 35  1  0  0  0  0
 32 31  2  0  0  0  0
 33 28  1  0  0  0  0
 34 29  1  0  0  0  0
M  END
>  <minimizedAffinity>
-5.7311945

$$$$

 OpenBabel03242518373D

 35 38  0  0  1  0  0  0  0  0999 V2000
   37.5620   29.0010   39.5880 C   0  0  0  0  0  0  0  0  0  0  0  0
   36.2430   28.7510   39.9640 C   0  0  0  0  0  0  0  0  0  0  0  0
   36.2230   28.3840   41.2980 C   0  0  0  0  0  0  0  0  0  0  0  0
   37.5390   28.4270   41.6760 C   0  0  0  0  0  0  0  0  0  0  0  0
   38.3130   28.7880   40.6720 O   0  0  0  0  0  0  0  0  0  0  0  0
   35.4400   28.8600   39.2360 H   0  0  0  0  0  0  0  0  0  0  0  0
   35.3190   28.1370   41.8310 H   0  0  0  0  0  0  0  0  0  0  0  0
   38.0340   28.1180   43.0260 C   0  0  2  0  0  0  0  0  0  0  0  0
   39.4680   27.8230   43.2240 C   0  0  0  0  0  0  0  0  0  0  0  0
   38.5290   26.6650   43.1840 C   0  0  2  0  0  0  0  0  0  0  0  0
   37.4000   28.4890   43.8640 H   0  0  0  0  0  0  0  0  0  0  0  0
   39.8840   28.1450   44.2190 H   0  0  0  0  0  0  0  0  0  0  0  0
   40.1730   27.9240   42.3740 H   0  0  0  0  0  0  0  0  0  0  0  0
   38.2970   26.2340   44.1760 H   0  0  0  0  0  0  0  0  0  0  0  0
   36.2700   25.1270   42.9740 F   0  0  0  0  0  0  0  0  0  0  0  0
   37.2650   25.0290   42.0330 C   0  0  0  0  0  0  0  0  0  0  0  0
   38.4580   25.7620   42.0360 C   0  0  0  0  0  0  0  0  0  0  0  0
   39.3390   25.5350   41.0190 C   0  0  0  0  0  0  0  0  0  0  0  0
   40.2380   26.1460   41.1000 H   0  0  0  0  0  0  0  0  0  0  0  0
   39.0710   24.6230   40.0190 C   0  0  0  0  0  0  0  0  0  0  0  0
   39.8240   24.4970   39.2400 H   0  0  0  0  0  0  0  0  0  0  0  0
   37.8980   23.8930   40.0050 C   0  0  0  0  0  3  0  0  0  0  0  0
   36.9880   24.1020   41.0220 C   0  0  0  0  0  3  0  0  0  0  0  0
   38.1230   29.4030   38.3580 O   0  0  0  0  0  0  0  0  0  0  0  0
   37.8120   30.6730   37.8310 C   0  0  0  0  0  0  0  0  0  0  0  0
   37.1900   30.6650   36.7330 O   0  0  0  0  0  0  0  0  0  0  0  0
   38.2300   31.7980   38.5860 C   0  0  0  0  0  0  0  0  0  0  0  0
   37.2150   32.6120   39.0090 C   0  0  0  0  0  0  0  0  0  0  0  0
   37.5490   33.7410   39.7570 C   0  0  0  0  0  0  0  0  0  0  0  0
   38.8460   33.9680   40.0230 N   0  0  0  0  0  0  0  0  0  0  0  0
   39.8140   33.1490   39.5930 C   0  0  0  0  0  0  0  0  0  0  0  0
   39.4900   32.0600   38.8710 N   0  0  0  0  0  0  0  0  0  0  0  0
   36.1370   32.5040   38.8380 H   0  0  0  0  0  0  0  0  0  0  0  0
   36.7900   34.4250   40.1200 H   0  0  0  0  0  0  0  0  0  0  0  0
   40.8280   33.4250   39.8630 H   0  0  0  0  0  0  0  0  0  0  0  0
  1  2  2  0  0  0  0
  1  5  1  0  0  0  0
  2  3  1  0  0  0  0
  3  4  2  0  0  0  0
  3  7  1  0  0  0  0
  4  8  1  0  0  0  0
  5  4  1  0  0  0  0
  6  2  1  0  0  0  0
  8 10  1  0  0  0  0
  8  9  1  0  0  0  0
  8 11  1  1  0  0  0
  9 12  1  0  0  0  0
 10  9  1  0  0  0  0
 10 14  1  1  0  0  0
 13  9  1  0  0  0  0
 16 17  1  0  0  0  0
 16 15  1  0  0  0  0
 17 10  1  0  0  0  0
 18 19  1  0  0  0  0
 18 17  2  0  0  0  0
 20 18  1  0  0  0  0
 21 20  1  0  0  0  0
 22 20  2  0  0  0  0
 22 23  1  0  0  0  0
 23 16  2  0  0  0  0
 24  1  1  0  0  0  0
 25 24  1  0  0  0  0
 25 27  1  0  0  0  0
 26 25  2  0  0  0  0
 27 32  2  0  0  0  0
 27 28  1  0  0  0  0
 28 29  2  0  0  0  0
 29 30  1  0  0  0  0
 29 34  1  0  0  0  0
 31 35  1  0  0  0  0
 31 30  2  0  0  0  0
 32 31  1  0  0  0  0
 33 28  1  0  0  0  0
M  END
>  <minimizedAffinity>
-5.65279293

$$$$

 OpenBabel03242518373D

 35 38  0  0  1  0  0  0  0  0999 V2000
   36.4270   29.2870   39.0130 C   0  0  0  0  0  0  0  0  0  0  0  0
   35.4210   28.3830   38.6760 C   0  0  0  0  0  0  0  0  0  0  0  0
   35.9650   27.1120   38.6220 C   0  0  0  0  0  0  0  0  0  0  0  0
   37.2870   27.3020   38.9300 C   0  0  0  0  0  0  0  0  0  0  0  0
   37.5470   28.5740   39.1570 O   0  0  0  0  0  0  0  0  0  0  0  0
   34.4060   28.7380   38.5060 H   0  0  0  0  0  0  0  0  0  0  0  0
   35.3920   26.2320   38.3810 H   0  0  0  0  0  0  0  0  0  0  0  0
   38.2920   26.2300   39.0070 C   0  0  2  0  0  0  0  0  0  0  0  0
   37.9350   24.9440   39.6370 C   0  0  0  0  0  0  0  0  0  0  0  0
   38.7370   25.9050   40.4470 C   0  0  2  0  0  0  0  0  0  0  0  0
   39.1220   26.2990   38.2650 H   0  0  0  0  0  0  0  0  0  0  0  0
   38.4510   24.0440   39.2010 H   0  0  0  0  0  0  0  0  0  0  0  0
   36.8910   24.7630   39.9660 H   0  0  0  0  0  0  0  0  0  0  0  0
   39.8110   25.6500   40.5210 H   0  0  0  0  0  0  0  0  0  0  0  0
   40.2300   27.9840   41.4280 F   0  0  0  0  0  0  0  0  0  0  0  0
   39.0050   27.6910   41.9750 C   0  0  0  0  0  0  0  0  0  0  0  0
   38.1570   26.6580   41.5580 C   0  0  0  0  0  0  0  0  0  0  0  0
   36.9720   26.5110   42.2180 C   0  0  0  0  0  0  0  0  0  0  0  0
   36.3760   25.6850   41.8300 H   0  0  0  0  0  0  0  0  0  0  0  0
   36.6130   27.3460   43.2570 C   0  0  0  0  0  0  0  0  0  0  0  0
   35.6500   27.1650   43.7350 H   0  0  0  0  0  0  0  0  0  0  0  0
   37.4410   28.3680   43.6780 C   0  0  0  0  0  3  0  0  0  0  0  0
   38.6470   28.5400   43.0280 C   0  0  0  0  0  3  0  0  0  0  0  0
   36.4030   30.6860   39.1990 O   0  0  0  0  0  0  0  0  0  0  0  0
   36.7630   31.2300   40.4470 C   0  0  0  0  0  0  0  0  0  0  0  0
   36.0580   30.8550   41.4240 O   0  0  0  0  0  0  0  0  0  0  0  0
   37.8630   32.1260   40.4610 C   0  0  0  0  0  0  0  0  0  0  0  0
   39.0190   31.6040   40.9740 C   0  0  0  0  0  0  0  0  0  0  0  0
   40.1440   32.4260   41.0220 C   0  0  0  0  0  0  0  0  0  0  0  0
   40.0340   33.6840   40.5620 N   0  0  0  0  0  0  0  0  0  0  0  0
   38.8860   34.1610   40.0660 C   0  0  0  0  0  0  0  0  0  0  0  0
   37.8010   33.3670   40.0210 N   0  0  0  0  0  0  0  0  0  0  0  0
   39.1970   30.5960   41.3690 H   0  0  0  0  0  0  0  0  0  0  0  0
   41.0890   32.0710   41.4170 H   0  0  0  0  0  0  0  0  0  0  0  0
   38.9050   35.1900   39.7220 H   0  0  0  0  0  0  0  0  0  0  0  0
  1  5  1  0  0  0  0
  1 24  1  0  0  0  0
  2  1  2  0  0  0  0
  3  2  1  0  0  0  0
  3  4  2  0  0  0  0
  4  8  1  0  0  0  0
  4  5  1  0  0  0  0
  6  2  1  0  0  0  0
  7  3  1  0  0  0  0
  8 11  1  6  0  0  0
  8  9  1  0  0  0  0
  8 10  1  0  0  0  0
  9 13  1  0  0  0  0
  9 10  1  0  0  0  0
 10 14  1  1  0  0  0
 10 17  1  0  0  0  0
 12  9  1  0  0  0  0
 15 16  1  0  0  0  0
 16 23  1  0  0  0  0
 17 16  2  0  0  0  0
 17 18  1  0  0  0  0
 18 20  2  0  0  0  0
 19 18  1  0  0  0  0
 20 22  1  0  0  0  0
 20 21  1  0  0  0  0
 23 22  2  0  0  0  0
 24 25  1  0  0  0  0
 25 27  1  0  0  0  0
 25 26  2  0  0  0  0
 27 28  1  0  0  0  0
 28 29  2  0  0  0  0
 28 33  1  0  0  0  0
 29 34  1  0  0  0  0
 30 29  1  0  0  0  0
 31 30  2  0  0  0  0
 32 31  1  0  0  0  0
 32 27  2  0  0  0  0
 35 31  1  0  0  0  0
M  END
>  <minimizedAffinity>
-5.56022882

$$$$

 OpenBabel03242518373D

 35 38  0  0  1  0  0  0  0  0999 V2000
   40.1960   30.2370   41.3260 C   0  0  0  0  0  0  0  0  0  0  0  0
   40.5740   29.7430   40.0790 C   0  0  0  0  0  0  0  0  0  0  0  0
   40.0840   30.5880   39.0980 C   0  0  0  0  0  0  0  0  0  0  0  0
   39.4250   31.5650   39.7980 C   0  0  0  0  0  0  0  0  0  0  0  0
   39.4960   31.3520   41.0970 O   0  0  0  0  0  0  0  0  0  0  0  0
   41.1610   28.8280   40.0120 H   0  0  0  0  0  0  0  0  0  0  0  0
   40.2400   30.4250   38.0450 H   0  0  0  0  0  0  0  0  0  0  0  0
   38.7320   32.7090   39.1890 C   0  0  2  0  0  0  0  0  0  0  0  0
   37.7260   33.4520   39.9750 C   0  0  0  0  0  0  0  0  0  0  0  0
   37.2230   32.4710   38.9720 C   0  0  2  0  0  0  0  0  0  0  0  0
   39.2580   33.1850   38.3290 H   0  0  0  0  0  0  0  0  0  0  0  0
   37.6570   34.5500   39.7380 H   0  0  0  0  0  0  0  0  0  0  0  0
   37.5680   33.1990   41.0440 H   0  0  0  0  0  0  0  0  0  0  0  0
   36.8420   32.9300   38.0400 H   0  0  0  0  0  0  0  0  0  0  0  0
   36.9340   30.6030   36.9870 F   0  0  0  0  0  0  0  0  0  0  0  0
   36.5430   30.3150   38.2720 C   0  0  0  0  0  0  0  0  0  0  0  0
   36.6430   31.1870   39.3630 C   0  0  0  0  0  0  0  0  0  0  0  0
   36.2030   30.7350   40.5720 C   0  0  0  0  0  0  0  0  0  0  0  0
   36.3170   31.4750   41.3630 H   0  0  0  0  0  0  0  0  0  0  0  0
   35.6810   29.4660   40.7250 C   0  0  0  0  0  0  0  0  0  0  0  0
   35.3510   29.1760   41.7230 H   0  0  0  0  0  0  0  0  0  0  0  0
   35.5770   28.5970   39.6560 C   0  0  0  0  0  3  0  0  0  0  0  0
   36.0140   29.0290   38.4200 C   0  0  0  0  0  3  0  0  0  0  0  0
   40.4380   29.7620   42.6320 O   0  0  0  0  0  0  0  0  0  0  0  0
   40.3430   28.3830   42.9020 C   0  0  0  0  0  0  0  0  0  0  0  0
   41.4430   27.7890   43.0800 O   0  0  0  0  0  0  0  0  0  0  0  0
   39.0390   27.8270   42.9390 C   0  0  0  0  0  0  0  0  0  0  0  0
   38.8610   26.7320   42.1370 C   0  0  0  0  0  0  0  0  0  0  0  0
   37.6030   26.1310   42.1200 C   0  0  0  0  0  0  0  0  0  0  0  0
   36.6350   26.6550   42.8900 N   0  0  0  0  0  0  0  0  0  0  0  0
   36.8450   27.7280   43.6630 C   0  0  0  0  0  0  0  0  0  0  0  0
   38.0600   28.3080   43.6780 N   0  0  0  0  0  0  0  0  0  0  0  0
   39.5900   26.2410   41.4810 H   0  0  0  0  0  0  0  0  0  0  0  0
   37.3990   25.2610   41.5050 H   0  0  0  0  0  0  0  0  0  0  0  0
   35.9960   28.0710   44.2450 H   0  0  0  0  0  0  0  0  0  0  0  0
  1 24  1  0  0  0  0
  2  1  2  0  0  0  0
  3  4  2  0  0  0  0
  3  2  1  0  0  0  0
  4  5  1  0  0  0  0
  5  1  1  0  0  0  0
  6  2  1  0  0  0  0
  7  3  1  0  0  0  0
  8 11  1  6  0  0  0
  8  4  1  0  0  0  0
  8  9  1  0  0  0  0
  9 13  1  0  0  0  0
 10 14  1  6  0  0  0
 10  8  1  0  0  0  0
 10 17  1  0  0  0  0
 10  9  1  0  0  0  0
 12  9  1  0  0  0  0
 15 16  1  0  0  0  0
 16 23  2  0  0  0  0
 16 17  1  0  0  0  0
 17 18  2  0  0  0  0
 18 20  1  0  0  0  0
 18 19  1  0  0  0  0
 20 21  1  0  0  0  0
 22 20  2  0  0  0  0
 23 22  1  0  0  0  0
 24 25  1  0  0  0  0
 25 27  1  0  0  0  0
 25 26  2  0  0  0  0
 27 32  1  0  0  0  0
 28 27  2  0  0  0  0
 29 28  1  0  0  0  0
 29 30  2  0  0  0  0
 30 31  1  0  0  0  0
 31 32  2  0  0  0  0
 31 35  1  0  0  0  0
 33 28  1  0  0  0  0
 34 29  1  0  0  0  0
M  END
>  <minimizedAffinity>
-5.48361874

$$$$

 OpenBabel03242518373D

 35 38  0  0  1  0  0  0  0  0999 V2000
   36.7310   27.3030   38.7600 C   0  0  0  0  0  0  0  0  0  0  0  0
   38.0760   27.2470   38.3980 C   0  0  0  0  0  0  0  0  0  0  0  0
   38.6790   26.2100   39.0890 C   0  0  0  0  0  0  0  0  0  0  0  0
   37.6670   25.6790   39.8450 C   0  0  0  0  0  0  0  0  0  0  0  0
   36.5340   26.3230   39.6460 O   0  0  0  0  0  0  0  0  0  0  0  0
   38.4750   27.9590   37.6770 H   0  0  0  0  0  0  0  0  0  0  0  0
   39.7210   25.9570   38.9850 H   0  0  0  0  0  0  0  0  0  0  0  0
   37.8140   24.5350   40.7570 C   0  0  2  0  0  0  0  0  0  0  0  0
   36.7560   24.2570   41.7490 C   0  0  0  0  0  0  0  0  0  0  0  0
   37.9870   24.9440   42.2350 C   0  0  2  0  0  0  0  0  0  0  0  0
   38.5050   23.7330   40.4100 H   0  0  0  0  0  0  0  0  0  0  0  0
   36.6130   23.1680   41.9960 H   0  0  0  0  0  0  0  0  0  0  0  0
   35.8220   24.8550   41.7390 H   0  0  0  0  0  0  0  0  0  0  0  0
   38.6850   24.2860   42.7860 H   0  0  0  0  0  0  0  0  0  0  0  0
   40.4380   26.1680   42.3010 F   0  0  0  0  0  0  0  0  0  0  0  0
   39.2990   26.8810   42.5860 C   0  0  0  0  0  0  0  0  0  0  0  0
   37.9980   26.3640   42.5830 C   0  0  0  0  0  0  0  0  0  0  0  0
   36.9810   27.2180   42.8920 C   0  0  0  0  0  0  0  0  0  0  0  0
   36.0050   26.7340   42.8660 H   0  0  0  0  0  0  0  0  0  0  0  0
   37.2150   28.5440   43.1950 C   0  0  0  0  0  0  0  0  0  0  0  0
   36.3510   29.1650   43.4320 H   0  0  0  0  0  0  0  0  0  0  0  0
   38.4940   29.0660   43.2030 C   0  0  0  0  0  3  0  0  0  0  0  0
   39.5440   28.2240   42.8930 C   0  0  0  0  0  3  0  0  0  0  0  0
   35.6880   28.1610   38.3510 O   0  0  0  0  0  0  0  0  0  0  0  0
   35.3330   29.2610   39.1550 C   0  0  0  0  0  0  0  0  0  0  0  0
   34.2430   29.1440   39.7810 O   0  0  0  0  0  0  0  0  0  0  0  0
   36.2290   30.3610   39.1670 C   0  0  0  0  0  0  0  0  0  0  0  0
   36.4420   30.9110   40.4010 C   0  0  0  0  0  0  0  0  0  0  0  0
   37.3110   31.9980   40.4920 C   0  0  0  0  0  0  0  0  0  0  0  0
   37.8920   32.4460   39.3660 N   0  0  0  0  0  0  0  0  0  0  0  0
   37.6600   31.8820   38.1750 C   0  0  0  0  0  0  0  0  0  0  0  0
   36.8210   30.8330   38.0880 N   0  0  0  0  0  0  0  0  0  0  0  0
   36.0130   30.6120   41.3650 H   0  0  0  0  0  0  0  0  0  0  0  0
   37.5210   32.4780   41.4420 H   0  0  0  0  0  0  0  0  0  0  0  0
   38.1790   32.3210   37.3300 H   0  0  0  0  0  0  0  0  0  0  0  0
  1  5  1  0  0  0  0
  2  1  2  0  0  0  0
  2  3  1  0  0  0  0
  3  4  2  0  0  0  0
  4  8  1  0  0  0  0
  5  4  1  0  0  0  0
  6  2  1  0  0  0  0
  7  3  1  0  0  0  0
  8 11  1  6  0  0  0
  8  9  1  0  0  0  0
  8 10  1  0  0  0  0
  9 12  1  0  0  0  0
  9 10  1  0  0  0  0
 10 17  1  0  0  0  0
 10 14  1  1  0  0  0
 13  9  1  0  0  0  0
 15 16  1  0  0  0  0
 16 23  1  0  0  0  0
 17 16  2  0  0  0  0
 17 18  1  0  0  0  0
 18 20  2  0  0  0  0
 19 18  1  0  0  0  0
 20 22  1  0  0  0  0
 20 21  1  0  0  0  0
 23 22  2  0  0  0  0
 24  1  1  0  0  0  0
 24 25  1  0  0  0  0
 25 27  1  0  0  0  0
 25 26  2  0  0  0  0
 27 28  1  0  0  0  0
 28 29  2  0  0  0  0
 28 33  1  0  0  0  0
 29 34  1  0  0  0  0
 30 29  1  0  0  0  0
 31 30  2  0  0  0  0
 32 31  1  0  0  0  0
 32 27  2  0  0  0  0
 35 31  1  0  0  0  0
M  END
>  <minimizedAffinity>
-5.41176033

$$$$

 OpenBabel03242518373D

 35 38  0  0  1  0  0  0  0  0999 V2000
   39.9900   30.1410   42.1870 C   0  0  0  0  0  0  0  0  0  0  0  0
   40.5330   29.1030   41.4310 C   0  0  0  0  0  0  0  0  0  0  0  0
   39.9050   27.9210   41.7830 C   0  0  0  0  0  0  0  0  0  0  0  0
   39.0020   28.2950   42.7440 C   0  0  0  0  0  0  0  0  0  0  0  0
   39.0590   29.5920   42.9730 O   0  0  0  0  0  0  0  0  0  0  0  0
   41.3210   29.3110   40.7100 H   0  0  0  0  0  0  0  0  0  0  0  0
   40.1450   26.9690   41.3400 H   0  0  0  0  0  0  0  0  0  0  0  0
   38.0820   27.3780   43.4320 C   0  0  2  0  0  0  0  0  0  0  0  0
   37.6910   26.1140   42.7760 C   0  0  0  0  0  0  0  0  0  0  0  0
   36.7130   27.2390   42.7330 C   0  0  2  0  0  0  0  0  0  0  0  0
   38.0310   27.4930   44.5400 H   0  0  0  0  0  0  0  0  0  0  0  0
   37.4960   25.2570   43.4790 H   0  0  0  0  0  0  0  0  0  0  0  0
   38.1620   25.8250   41.8140 H   0  0  0  0  0  0  0  0  0  0  0  0
   35.8720   27.1360   43.4450 H   0  0  0  0  0  0  0  0  0  0  0  0
   36.7740   25.8340   40.3800 F   0  0  0  0  0  0  0  0  0  0  0  0
   36.5150   27.1830   40.3760 C   0  0  0  0  0  0  0  0  0  0  0  0
   36.4590   28.0010   41.5110 C   0  0  0  0  0  0  0  0  0  0  0  0
   36.1900   29.3240   41.3210 C   0  0  0  0  0  0  0  0  0  0  0  0
   36.1650   29.8850   42.2550 H   0  0  0  0  0  0  0  0  0  0  0  0
   35.9770   29.8460   40.0610 C   0  0  0  0  0  0  0  0  0  0  0  0
   35.7680   30.9140   39.9890 H   0  0  0  0  0  0  0  0  0  0  0  0
   36.0310   29.0510   38.9330 C   0  0  0  0  0  3  0  0  0  0  0  0
   36.3020   27.7070   39.0960 C   0  0  0  0  0  3  0  0  0  0  0  0
   40.2690   31.5230   42.2140 O   0  0  0  0  0  0  0  0  0  0  0  0
   40.4930   32.2130   41.0060 C   0  0  0  0  0  0  0  0  0  0  0  0
   41.6800   32.5990   40.8160 O   0  0  0  0  0  0  0  0  0  0  0  0
   39.3740   32.3930   40.1540 C   0  0  0  0  0  0  0  0  0  0  0  0
   39.4500   31.7270   38.9610 C   0  0  0  0  0  0  0  0  0  0  0  0
   38.3860   31.8560   38.0700 C   0  0  0  0  0  0  0  0  0  0  0  0
   37.3430   32.6250   38.4290 N   0  0  0  0  0  0  0  0  0  0  0  0
   37.3030   33.2610   39.6050 C   0  0  0  0  0  0  0  0  0  0  0  0
   38.3310   33.1360   40.4650 N   0  0  0  0  0  0  0  0  0  0  0  0
   40.2560   31.0830   38.5890 H   0  0  0  0  0  0  0  0  0  0  0  0
   38.3870   31.3540   37.1090 H   0  0  0  0  0  0  0  0  0  0  0  0
   36.4150   33.8560   39.7960 H   0  0  0  0  0  0  0  0  0  0  0  0
  1 24  1  0  0  0  0
  1  5  1  0  0  0  0
  2  3  1  0  0  0  0
  2  1  2  0  0  0  0
  3  4  2  0  0  0  0
  4  5  1  0  0  0  0
  4  8  1  0  0  0  0
  6  2  1  0  0  0  0
  7  3  1  0  0  0  0
  8 11  1  1  0  0  0
  9  8  1  0  0  0  0
  9 12  1  0  0  0  0
 10  9  1  0  0  0  0
 10  8  1  0  0  0  0
 10 14  1  1  0  0  0
 13  9  1  0  0  0  0
 16 15  1  0  0  0  0
 16 17  1  0  0  0  0
 17 10  1  0  0  0  0
 18 17  2  0  0  0  0
 18 19  1  0  0  0  0
 20 18  1  0  0  0  0
 21 20  1  0  0  0  0
 22 23  1  0  0  0  0
 22 20  2  0  0  0  0
 23 16  2  0  0  0  0
 25 24  1  0  0  0  0
 26 25  2  0  0  0  0
 27 32  1  0  0  0  0
 27 25  1  0  0  0  0
 28 27  2  0  0  0  0
 29 30  2  0  0  0  0
 29 28  1  0  0  0  0
 30 31  1  0  0  0  0
 31 35  1  0  0  0  0
 31 32  2  0  0  0  0
 33 28  1  0  0  0  0
 34 29  1  0  0  0  0
M  END
>  <minimizedAffinity>
-5.37703228

$$$$

 OpenBabel03242518373D

 35 38  0  0  1  0  0  0  0  0999 V2000
   38.9500   29.3590   42.9920 C   0  0  0  0  0  0  0  0  0  0  0  0
   37.6800   28.9250   43.3700 C   0  0  0  0  0  0  0  0  0  0  0  0
   37.7440   27.5770   43.6800 C   0  0  0  0  0  0  0  0  0  0  0  0
   39.0600   27.2510   43.4740 C   0  0  0  0  0  0  0  0  0  0  0  0
   39.7550   28.2960   43.0730 O   0  0  0  0  0  0  0  0  0  0  0  0
   36.8470   29.6260   43.3810 H   0  0  0  0  0  0  0  0  0  0  0  0
   36.8920   27.0030   44.0020 H   0  0  0  0  0  0  0  0  0  0  0  0
   39.6320   25.9110   43.6780 C   0  0  2  0  0  0  0  0  0  0  0  0
   40.8210   25.5040   42.9030 C   0  0  0  0  0  0  0  0  0  0  0  0
   39.4970   24.9900   42.4480 C   0  0  2  0  0  0  0  0  0  0  0  0
   39.3850   25.4290   44.6520 H   0  0  0  0  0  0  0  0  0  0  0  0
   41.5170   24.8010   43.4390 H   0  0  0  0  0  0  0  0  0  0  0  0
   41.3240   26.2380   42.2420 H   0  0  0  0  0  0  0  0  0  0  0  0
   39.3040   23.9340   42.7180 H   0  0  0  0  0  0  0  0  0  0  0  0
   36.8800   24.2580   42.0870 F   0  0  0  0  0  0  0  0  0  0  0  0
   37.5090   25.0620   41.1680 C   0  0  0  0  0  0  0  0  0  0  0  0
   38.8360   25.4990   41.2480 C   0  0  0  0  0  0  0  0  0  0  0  0
   39.2980   26.2950   40.2410 C   0  0  0  0  0  0  0  0  0  0  0  0
   40.3380   26.5880   40.3820 H   0  0  0  0  0  0  0  0  0  0  0  0
   38.4930   26.6640   39.1820 C   0  0  0  0  0  0  0  0  0  0  0  0
   38.9330   27.3030   38.4160 H   0  0  0  0  0  0  0  0  0  0  0  0
   37.1820   26.2390   39.0920 C   0  0  0  0  0  3  0  0  0  0  0  0
   36.6880   25.4320   40.0970 C   0  0  0  0  0  3  0  0  0  0  0  0
   39.4230   30.6250   42.5890 O   0  0  0  0  0  0  0  0  0  0  0  0
   39.9070   30.8050   41.2780 C   0  0  0  0  0  0  0  0  0  0  0  0
   41.1600   30.7140   41.1480 O   0  0  0  0  0  0  0  0  0  0  0  0
   38.9440   31.0650   40.2700 C   0  0  0  0  0  0  0  0  0  0  0  0
   38.1790   32.1780   40.4840 C   0  0  0  0  0  0  0  0  0  0  0  0
   37.2090   32.4970   39.5340 C   0  0  0  0  0  0  0  0  0  0  0  0
   37.0780   31.6980   38.4620 N   0  0  0  0  0  0  0  0  0  0  0  0
   37.8460   30.6160   38.2850 C   0  0  0  0  0  0  0  0  0  0  0  0
   38.7820   30.3090   39.2020 N   0  0  0  0  0  0  0  0  0  0  0  0
   38.2170   32.8820   41.3240 H   0  0  0  0  0  0  0  0  0  0  0  0
   36.5700   33.3670   39.6470 H   0  0  0  0  0  0  0  0  0  0  0  0
   37.6580   30.0400   37.3860 H   0  0  0  0  0  0  0  0  0  0  0  0
  1  5  1  0  0  0  0
  1  2  2  0  0  0  0
  2  6  1  0  0  0  0
  2  3  1  0  0  0  0
  3  7  1  0  0  0  0
  4  8  1  0  0  0  0
  4  3  2  0  0  0  0
  5  4  1  0  0  0  0
  8 11  1  1  0  0  0
  9 12  1  0  0  0  0
  9  8  1  0  0  0  0
 10 14  1  1  0  0  0
 10  9  1  0  0  0  0
 10  8  1  0  0  0  0
 13  9  1  0  0  0  0
 16 17  1  0  0  0  0
 16 15  1  0  0  0  0
 17 10  1  0  0  0  0
 18 19  1  0  0  0  0
 18 17  2  0  0  0  0
 20 18  1  0  0  0  0
 21 20  1  0  0  0  0
 22 20  2  0  0  0  0
 22 23  1  0  0  0  0
 23 16  2  0  0  0  0
 24  1  1  0  0  0  0
 25 24  1  0  0  0  0
 26 25  2  0  0  0  0
 27 28  1  0  0  0  0
 27 25  1  0  0  0  0
 28 33  1  0  0  0  0
 29 34  1  0  0  0  0
 29 28  2  0  0  0  0
 30 29  1  0  0  0  0
 31 30  2  0  0  0  0
 31 32  1  0  0  0  0
 32 27  2  0  0  0  0
 35 31  1  0  0  0  0
M  END
>  <minimizedAffinity>
-5.31225395

$$$$

 OpenBabel03242518373D

 35 38  0  0  1  0  0  0  0  0999 V2000
   39.6350   30.5700   42.0280 C   0  0  0  0  0  0  0  0  0  0  0  0
   40.7420   29.8480   41.5840 C   0  0  0  0  0  0  0  0  0  0  0  0
   40.6780   28.5680   42.1060 C   0  0  0  0  0  0  0  0  0  0  0  0
   39.5260   28.5690   42.8500 C   0  0  0  0  0  0  0  0  0  0  0  0
   38.9250   29.7410   42.7980 O   0  0  0  0  0  0  0  0  0  0  0  0
   41.4750   30.3220   40.9330 H   0  0  0  0  0  0  0  0  0  0  0  0
   41.4190   27.8110   41.9110 H   0  0  0  0  0  0  0  0  0  0  0  0
   39.0160   27.4150   43.6060 C   0  0  2  0  0  0  0  0  0  0  0  0
   39.4440   26.0530   43.2290 C   0  0  0  0  0  0  0  0  0  0  0  0
   38.0930   26.4960   42.7800 C   0  0  2  0  0  0  0  0  0  0  0  0
   38.6500   27.6410   44.6340 H   0  0  0  0  0  0  0  0  0  0  0  0
   39.5160   25.3260   44.0850 H   0  0  0  0  0  0  0  0  0  0  0  0
   40.2120   25.9160   42.4410 H   0  0  0  0  0  0  0  0  0  0  0  0
   37.2580   26.0760   43.3710 H   0  0  0  0  0  0  0  0  0  0  0  0
   35.9010   28.0780   42.3270 F   0  0  0  0  0  0  0  0  0  0  0  0
   36.6740   27.6460   41.2760 C   0  0  0  0  0  0  0  0  0  0  0  0
   37.8120   26.8380   41.3860 C   0  0  0  0  0  0  0  0  0  0  0  0
   38.4590   26.5030   40.2330 C   0  0  0  0  0  0  0  0  0  0  0  0
   39.3310   25.8740   40.4100 H   0  0  0  0  0  0  0  0  0  0  0  0
   38.0180   26.9410   39.0010 C   0  0  0  0  0  0  0  0  0  0  0  0
   38.5880   26.6310   38.1250 H   0  0  0  0  0  0  0  0  0  0  0  0
   36.8960   27.7380   38.8790 C   0  0  0  0  0  3  0  0  0  0  0  0
   36.2210   28.0930   40.0300 C   0  0  0  0  0  3  0  0  0  0  0  0
   39.2290   31.8990   41.7880 O   0  0  0  0  0  0  0  0  0  0  0  0
   38.7150   32.2540   40.5250 C   0  0  0  0  0  0  0  0  0  0  0  0
   37.4580   32.2080   40.4210 O   0  0  0  0  0  0  0  0  0  0  0  0
   39.6580   32.6160   39.5290 C   0  0  0  0  0  0  0  0  0  0  0  0
   40.3860   33.7390   39.8130 C   0  0  0  0  0  0  0  0  0  0  0  0
   41.3330   34.1580   38.8790 C   0  0  0  0  0  0  0  0  0  0  0  0
   41.4810   33.4380   37.7540 N   0  0  0  0  0  0  0  0  0  0  0  0
   40.7510   32.3430   37.5110 C   0  0  0  0  0  0  0  0  0  0  0  0
   39.8370   31.9400   38.4120 N   0  0  0  0  0  0  0  0  0  0  0  0
   40.3310   34.3830   40.6990 H   0  0  0  0  0  0  0  0  0  0  0  0
   41.9410   35.0410   39.0450 H   0  0  0  0  0  0  0  0  0  0  0  0
   40.9500   31.8350   36.5730 H   0  0  0  0  0  0  0  0  0  0  0  0
  1  5  1  0  0  0  0
  2  1  2  0  0  0  0
  2  3  1  0  0  0  0
  3  4  2  0  0  0  0
  4  8  1  0  0  0  0
  5  4  1  0  0  0  0
  6  2  1  0  0  0  0
  7  3  1  0  0  0  0
  8 11  1  1  0  0  0
  9  8  1  0  0  0  0
  9 12  1  0  0  0  0
 10  9  1  0  0  0  0
 10 14  1  1  0  0  0
 10  8  1  0  0  0  0
 13  9  1  0  0  0  0
 16 17  1  0  0  0  0
 16 15  1  0  0  0  0
 17 10  1  0  0  0  0
 18 19  1  0  0  0  0
 18 17  2  0  0  0  0
 20 18  1  0  0  0  0
 21 20  1  0  0  0  0
 22 20  2  0  0  0  0
 22 23  1  0  0  0  0
 23 16  2  0  0  0  0
 24  1  1  0  0  0  0
 25 24  1  0  0  0  0
 26 25  2  0  0  0  0
 27 28  1  0  0  0  0
 27 25  1  0  0  0  0
 28 33  1  0  0  0  0
 29 34  1  0  0  0  0
 29 28  2  0  0  0  0
 30 29  1  0  0  0  0
 31 30  2  0  0  0  0
 31 32  1  0  0  0  0
 32 27  2  0  0  0  0
 35 31  1  0  0  0  0
M  END
>  <minimizedAffinity>
-5.23668957

$$$$
