
 OpenBabel03242521203D

 26 28  0  0  0  0  0  0  0  0999 V2000
   45.6920   33.9680   45.5170 C   0  0  0  0  0  0  0  0  0  0  0  0
   44.7700   34.9490   45.6780 C   0  0  0  0  0  0  0  0  0  0  0  0
   44.4570   35.8830   44.7230 C   0  0  0  0  0  0  0  0  0  0  0  0
   45.1310   35.7950   43.5510 N   0  0  0  0  0  0  0  0  0  0  0  0
   46.0470   34.8310   43.3730 C   0  0  0  0  0  0  0  0  0  0  0  0
   46.3410   33.9180   44.3290 N   0  0  0  0  0  0  0  0  0  0  0  0
   44.2730   34.9460   46.6540 H   0  0  0  0  0  0  0  0  0  0  0  0
   43.7050   36.6580   44.8950 H   0  0  0  0  0  0  0  0  0  0  0  0
   47.3540   31.2790   47.3510 C   0  0  0  0  0  0  0  0  0  0  0  0
   46.5670   31.1610   48.5010 C   0  0  0  0  0  0  0  0  0  0  0  0
   45.4680   32.0050   48.6450 C   0  0  0  0  0  0  0  0  0  0  0  0
   45.2120   32.9140   47.6450 N   0  0  0  0  0  0  0  0  0  0  0  0
   46.0020   32.9890   46.5520 C   0  0  0  0  0  0  0  0  0  0  0  0
   47.0620   32.1930   46.3880 N   0  0  0  0  0  0  0  0  0  0  0  0
   48.1840   30.5960   47.3080 H   0  0  0  0  0  0  0  0  0  0  0  0
   46.7820   30.4470   49.2700 H   0  0  0  0  0  0  0  0  0  0  0  0
   44.8140   31.9700   49.5120 H   0  0  0  0  0  0  0  0  0  0  0  0
   45.0680   33.3190   41.1740 F   0  0  0  0  0  0  0  0  0  0  0  0
   46.2490   33.9690   41.0640 C   0  0  0  0  0  0  0  0  0  0  0  0
   46.7820   34.7270   42.1070 C   0  0  0  0  0  0  0  0  0  0  0  0
   48.0090   35.3650   41.9080 C   0  0  0  0  0  0  0  0  0  0  0  0
   48.4220   35.9600   42.7340 H   0  0  0  0  0  0  0  0  0  0  0  0
   48.6830   35.2450   40.6930 C   0  0  0  0  0  0  0  0  0  0  0  0
   49.6440   35.7740   40.6020 H   0  0  0  0  0  0  0  0  0  0  0  0
   48.1470   34.4880   39.6550 C   0  0  0  0  0  0  0  0  0  0  0  0
   46.9210   33.8540   39.8610 C   0  0  0  0  0  0  0  0  0  0  0  0
  1  2  1  0  0  0  0
  1 13  1  0  0  0  0
  2  7  1  0  0  0  0
  3  8  1  0  0  0  0
  3  2  2  0  0  0  0
  4  3  1  0  0  0  0
  5  4  2  0  0  0  0
  5  6  1  0  0  0  0
  6  1  2  0  0  0  0
  9 10  1  0  0  0  0
 10 11  2  0  0  0  0
 10 16  1  0  0  0  0
 11 17  1  0  0  0  0
 12 11  1  0  0  0  0
 13 12  2  0  0  0  0
 14 13  1  0  0  0  0
 14  9  2  0  0  0  0
 15  9  1  0  0  0  0
 19 18  1  0  0  0  0
 19 20  1  0  0  0  0
 20  5  1  0  0  0  0
 21 20  2  0  0  0  0
 21 22  1  0  0  0  0
 23 21  1  0  0  0  0
 24 23  1  0  0  0  0
 25 26  1  0  0  0  0
 25 23  2  0  0  0  0
 26 19  2  0  0  0  0
M  END
>  <minimizedAffinity>
-6.45336294

>  <minimizedRMSD>
7.63197184

$$$$
