
 OpenBabel03252509233D

 27 29  0  0  1  0  0  0  0  0999 V2000
   46.9500   34.7710   41.9260 C   0  0  1  0  0  0  0  0  0  0  0  0
   48.3250   35.4780   42.0240 C   0  0  0  0  0  0  0  0  0  0  0  0
   48.0970   33.9770   41.6670 C   0  0  2  0  0  0  0  0  0  0  0  0
   46.2870   35.2010   41.1640 H   0  0  0  0  0  0  0  0  0  0  0  0
   48.7680   35.6580   42.9990 H   0  0  0  0  0  0  0  0  0  0  0  0
   48.5310   36.1430   41.1830 H   0  0  0  0  0  0  0  0  0  0  0  0
   48.4830   33.2560   42.4320 H   0  0  0  0  0  0  0  0  0  0  0  0
   49.4070   31.5590   40.7620 F   0  0  0  0  0  0  0  0  0  0  0  0
   49.0280   32.4290   39.8110 C   0  0  0  0  0  0  0  0  0  0  0  0
   48.4130   33.5640   40.2970 C   0  0  0  0  0  0  0  0  0  0  0  0
   48.0170   34.4790   39.3140 C   0  0  0  0  0  0  0  0  0  0  0  0
   47.5240   35.4120   39.5440 H   0  0  0  0  0  0  0  0  0  0  0  0
   48.2130   34.2880   37.9620 C   0  0  0  0  0  0  0  0  0  0  0  0
   47.9130   34.9820   37.2140 H   0  0  0  0  0  0  0  0  0  0  0  0
   48.8310   33.1370   37.5280 C   0  0  0  0  0  3  0  0  0  0  0  0
   49.2300   32.2210   38.4790 C   0  0  0  0  0  3  0  0  0  0  0  0
   44.6860   35.3970   44.8610 C   0  0  0  0  0  0  0  0  0  0  0  0
   45.2940   35.5760   43.5700 C   0  0  0  0  0  0  0  0  0  0  0  0
   46.3070   34.6920   43.3050 C   0  0  0  0  0  0  0  0  0  0  0  0
   46.7090   33.7120   44.2050 N   0  0  0  0  0  0  0  0  0  0  0  0
   46.0990   33.6010   45.3910 C   0  0  0  0  0  0  0  0  0  0  0  0
   45.0840   34.4470   45.7190 N   0  0  0  0  0  0  0  0  0  0  0  0
   43.8890   36.0580   45.1220 H   0  0  0  0  0  0  0  0  0  0  0  0
   46.5330   32.7950   45.9590 H   0  0  0  0  0  0  0  0  0  0  0  0
   44.8900   36.5970   42.6680 N   0  0  0  0  0  0  0  0  0  0  0  0
   44.4690   36.3110   41.7520 H   0  0  0  0  0  0  0  0  0  0  0  0
   45.0420   37.5830   42.9850 H   0  0  0  0  0  0  0  0  0  0  0  0
  1  4  1  6  0  0  0
  1  2  1  0  0  0  0
  1 19  1  0  0  0  0
  2  5  1  0  0  0  0
  3  1  1  0  0  0  0
  3  2  1  0  0  0  0
  3  7  1  1  0  0  0
  6  2  1  0  0  0  0
  9 10  1  0  0  0  0
  9  8  1  0  0  0  0
 10  3  1  0  0  0  0
 11 12  1  0  0  0  0
 11 10  2  0  0  0  0
 13 11  1  0  0  0  0
 14 13  1  0  0  0  0
 15 13  2  0  0  0  0
 15 16  1  0  0  0  0
 16  9  2  0  0  0  0
 17 23  1  0  0  0  0
 17 22  1  0  0  0  0
 18 17  2  0  0  0  0
 19 18  1  0  0  0  0
 19 20  2  0  0  0  0
 20 21  1  0  0  0  0
 21 22  2  0  0  0  0
 21 24  1  0  0  0  0
 25 27  1  0  0  0  0
 25 18  1  0  0  0  0
 26 25  1  0  0  0  0
M  END
>  <minimizedAffinity>
-5.2255559

>  <minimizedRMSD>
0.997125149

$$$$
