
 OpenBabel03252509243D

 27 29  0  0  1  0  0  0  0  0999 V2000
   48.5780   33.9240   42.3160 C   0  0  1  0  0  0  0  0  0  0  0  0
   48.2490   35.3130   41.7140 C   0  0  0  0  0  0  0  0  0  0  0  0
   47.2060   34.2290   42.1250 C   0  0  2  0  0  0  0  0  0  0  0  0
   49.1140   33.9760   43.2730 H   0  0  0  0  0  0  0  0  0  0  0  0
   48.3510   35.4720   40.6440 H   0  0  0  0  0  0  0  0  0  0  0  0
   48.3860   36.1350   42.4180 H   0  0  0  0  0  0  0  0  0  0  0  0
   46.6320   33.7900   41.2690 H   0  0  0  0  0  0  0  0  0  0  0  0
   46.9930   32.8170   44.6450 F   0  0  0  0  0  0  0  0  0  0  0  0
   46.2130   33.9000   44.4940 C   0  0  0  0  0  0  0  0  0  0  0  0
   46.3500   34.5310   43.2760 C   0  0  0  0  0  0  0  0  0  0  0  0
   45.5390   35.6600   43.1080 C   0  0  0  0  0  0  0  0  0  0  0  0
   45.5390   36.2550   42.2080 H   0  0  0  0  0  0  0  0  0  0  0  0
   44.6620   36.1260   44.0660 C   0  0  0  0  0  0  0  0  0  0  0  0
   44.0450   36.9820   43.9410 H   0  0  0  0  0  0  0  0  0  0  0  0
   44.5610   35.4600   45.2660 C   0  0  0  0  0  3  0  0  0  0  0  0
   45.3520   34.3450   45.4530 C   0  0  0  0  0  3  0  0  0  0  0  0
   51.1560   31.8270   40.5600 C   0  0  0  0  0  0  0  0  0  0  0  0
   50.5780   32.7000   41.5460 C   0  0  0  0  0  0  0  0  0  0  0  0
   49.2830   33.0610   41.2780 C   0  0  0  0  0  0  0  0  0  0  0  0
   48.5940   32.6220   40.1530 N   0  0  0  0  0  0  0  0  0  0  0  0
   49.1930   31.8110   39.2750 C   0  0  0  0  0  0  0  0  0  0  0  0
   50.4790   31.4120   39.4790 N   0  0  0  0  0  0  0  0  0  0  0  0
   52.1640   31.5110   40.7170 H   0  0  0  0  0  0  0  0  0  0  0  0
   48.5190   31.5710   38.4690 H   0  0  0  0  0  0  0  0  0  0  0  0
   51.3000   33.1600   42.6800 N   0  0  0  0  0  0  0  0  0  0  0  0
   50.9690   32.8690   43.6300 H   0  0  0  0  0  0  0  0  0  0  0  0
   52.1300   33.7680   42.4850 H   0  0  0  0  0  0  0  0  0  0  0  0
  1  4  1  1  0  0  0
  2  3  1  0  0  0  0
  2  1  1  0  0  0  0
  2  6  1  0  0  0  0
  3  7  1  6  0  0  0
  3  1  1  0  0  0  0
  3 10  1  0  0  0  0
  5  2  1  0  0  0  0
  9  8  1  0  0  0  0
  9 16  1  0  0  0  0
 10  9  2  0  0  0  0
 11 10  1  0  0  0  0
 11 13  2  0  0  0  0
 12 11  1  0  0  0  0
 13 15  1  0  0  0  0
 14 13  1  0  0  0  0
 15 16  2  0  0  0  0
 17 23  1  0  0  0  0
 17 18  1  0  0  0  0
 18 25  1  0  0  0  0
 19 18  2  0  0  0  0
 19  1  1  0  0  0  0
 20 19  1  0  0  0  0
 21 22  1  0  0  0  0
 21 20  2  0  0  0  0
 22 17  2  0  0  0  0
 24 21  1  0  0  0  0
 25 26  1  0  0  0  0
 27 25  1  0  0  0  0
M  END
>  <minimizedAffinity>
-5.52696419

>  <minimizedRMSD>
6.2861948

$$$$
