
 OpenBabel03252509233D

 27 29  0  0  1  0  0  0  0  0999 V2000
   46.3550   34.7670   41.9900 C   0  0  1  0  0  0  0  0  0  0  0  0
   47.8570   35.1440   41.9300 C   0  0  0  0  0  0  0  0  0  0  0  0
   47.2470   33.7650   41.5280 C   0  0  2  0  0  0  0  0  0  0  0  0
   45.7190   35.3960   41.3540 H   0  0  0  0  0  0  0  0  0  0  0  0
   48.4490   35.1380   42.8400 H   0  0  0  0  0  0  0  0  0  0  0  0
   48.1030   35.8150   41.1050 H   0  0  0  0  0  0  0  0  0  0  0  0
   47.5490   32.9150   42.1910 H   0  0  0  0  0  0  0  0  0  0  0  0
   45.0670   33.6860   39.6240 F   0  0  0  0  0  0  0  0  0  0  0  0
   46.2840   33.3590   39.1580 C   0  0  0  0  0  0  0  0  0  0  0  0
   47.2830   33.4100   40.1070 C   0  0  0  0  0  0  0  0  0  0  0  0
   48.5570   33.0680   39.6330 C   0  0  0  0  0  0  0  0  0  0  0  0
   49.4350   33.0610   40.2600 H   0  0  0  0  0  0  0  0  0  0  0  0
   48.8190   32.7050   38.3290 C   0  0  0  0  0  0  0  0  0  0  0  0
   49.7840   32.4440   37.9680 H   0  0  0  0  0  0  0  0  0  0  0  0
   47.7860   32.6690   37.4190 C   0  0  0  0  0  3  0  0  0  0  0  0
   46.5240   33.0030   37.8640 C   0  0  0  0  0  3  0  0  0  0  0  0
   44.5780   35.5490   45.2090 C   0  0  0  0  0  0  0  0  0  0  0  0
   45.0320   35.7010   43.8530 C   0  0  0  0  0  0  0  0  0  0  0  0
   45.8900   34.7160   43.4400 C   0  0  0  0  0  0  0  0  0  0  0  0
   46.2860   33.6660   44.2610 N   0  0  0  0  0  0  0  0  0  0  0  0
   45.8250   33.5860   45.5140 C   0  0  0  0  0  0  0  0  0  0  0  0
   44.9680   34.5310   45.9890 N   0  0  0  0  0  0  0  0  0  0  0  0
   43.9050   36.2890   45.5850 H   0  0  0  0  0  0  0  0  0  0  0  0
   46.2300   32.7170   46.0050 H   0  0  0  0  0  0  0  0  0  0  0  0
   44.6390   36.7920   43.0310 N   0  0  0  0  0  0  0  0  0  0  0  0
   44.0720   36.5870   42.1740 H   0  0  0  0  0  0  0  0  0  0  0  0
   44.9460   37.7430   43.3440 H   0  0  0  0  0  0  0  0  0  0  0  0
  1  4  1  6  0  0  0
  1 19  1  0  0  0  0
  2  1  1  0  0  0  0
  2  5  1  0  0  0  0
  3  2  1  0  0  0  0
  3  1  1  0  0  0  0
  3  7  1  1  0  0  0
  6  2  1  0  0  0  0
  9  8  1  0  0  0  0
  9 10  1  0  0  0  0
 10  3  1  0  0  0  0
 11 10  2  0  0  0  0
 11 12  1  0  0  0  0
 13 11  1  0  0  0  0
 14 13  1  0  0  0  0
 15 16  1  0  0  0  0
 15 13  2  0  0  0  0
 16  9  2  0  0  0  0
 17 23  1  0  0  0  0
 17 22  1  0  0  0  0
 18 17  2  0  0  0  0
 19 18  1  0  0  0  0
 19 20  2  0  0  0  0
 20 21  1  0  0  0  0
 21 22  2  0  0  0  0
 21 24  1  0  0  0  0
 25 27  1  0  0  0  0
 25 18  1  0  0  0  0
 26 25  1  0  0  0  0
M  END
>  <minimizedAffinity>
-4.89008284

>  <minimizedRMSD>
0.454305351

$$$$
