
 OpenBabel03242511153D

 44 48  0  0  1  0  0  0  0  0999 V2000
   37.3140   32.0160   39.3170 C   0  0  1  0  0  0  0  0  0  0  0  0
   37.3320   31.2680   38.0130 C   0  0  0  0  0  0  0  0  0  0  0  0
   37.6990   30.6030   39.3700 C   0  0  2  0  0  0  0  0  0  0  0  0
   36.3210   32.2590   39.6970 H   0  0  0  0  0  0  0  0  0  0  0  0
   36.3640   30.9370   37.5650 H   0  0  0  0  0  0  0  0  0  0  0  0
   38.1890   31.3940   37.3320 H   0  0  0  0  0  0  0  0  0  0  0  0
   38.7610   30.3020   39.4950 H   0  0  0  0  0  0  0  0  0  0  0  0
   38.8820   35.2370   40.2420 C   0  0  0  0  0  0  0  0  0  0  0  0
   40.2610   34.9770   39.9320 C   0  0  0  0  0  0  0  0  0  0  0  0
   40.6060   33.7140   39.4260 C   0  0  0  0  0  0  0  0  0  0  0  0
   39.6440   32.8290   39.2590 N   0  0  0  0  0  0  0  0  0  0  0  0
   38.3480   33.0790   39.5510 C   0  0  0  0  0  0  0  0  0  0  0  0
   37.9520   34.2860   40.0460 N   0  0  0  0  0  0  0  0  0  0  0  0
   38.6770   36.2360   40.6330 H   0  0  0  0  0  0  0  0  0  0  0  0
   40.9780   35.7250   40.0890 H   0  0  0  0  0  0  0  0  0  0  0  0
   42.3860   34.9690   37.5000 F   0  0  0  0  0  0  0  0  0  0  0  0
   42.8010   33.8790   38.1780 C   0  0  0  0  0  0  0  0  0  0  0  0
   41.9420   33.3150   39.0730 C   0  0  0  0  0  0  0  0  0  0  0  0
   42.4840   32.2100   39.6980 C   0  0  0  0  0  0  0  0  0  0  0  0
   41.9300   31.6300   40.4510 H   0  0  0  0  0  0  0  0  0  0  0  0
   43.7520   31.7290   39.4440 C   0  0  0  0  0  0  0  0  0  0  0  0
   44.1370   30.8590   39.9560 H   0  0  0  0  0  0  0  0  0  0  0  0
   44.5640   32.3510   38.5260 C   0  0  0  0  0  3  0  0  0  0  0  0
   44.0750   33.4600   37.8710 C   0  0  0  0  0  3  0  0  0  0  0  0
   36.7590   29.6550   39.8900 N   0  0  0  0  0  0  0  0  0  0  0  0
   35.9240   29.7500   39.2780 H   0  0  0  0  0  0  0  0  0  0  0  0
   37.0460   28.8660   41.0120 C   0  0  0  0  0  0  0  0  0  0  0  0
   37.3510   29.4750   42.2050 C   0  0  0  0  0  0  0  0  0  0  0  0
   37.5740   28.7630   43.3780 C   0  0  0  0  0  0  0  0  0  0  0  0
   37.4950   27.3910   43.3920 C   0  0  0  0  0  0  0  0  0  0  0  0
   37.1930   26.7600   42.2090 C   0  0  0  0  0  0  0  0  0  0  0  0
   37.1110   25.3820   42.2010 C   0  0  0  0  0  0  0  0  0  0  0  0
   36.8200   24.6760   41.0690 C   0  0  0  0  0  0  0  0  0  0  0  0
   36.6100   25.4180   39.9120 C   0  0  0  0  0  0  0  0  0  0  0  0
   36.6940   26.7870   39.9350 C   0  0  0  0  0  0  0  0  0  0  0  0
   36.9790   27.4910   41.0630 C   0  0  0  0  0  0  0  0  0  0  0  0
   37.4210   30.5570   42.2320 H   0  0  0  0  0  0  0  0  0  0  0  0
   37.8070   29.3370   44.2620 H   0  0  0  0  0  0  0  0  0  0  0  0
   37.6740   26.8740   44.3260 H   0  0  0  0  0  0  0  0  0  0  0  0
   37.2850   24.8430   43.1360 H   0  0  0  0  0  0  0  0  0  0  0  0
   36.7620   23.5840   41.0940 H   0  0  0  0  0  0  0  0  0  0  0  0
   36.3810   24.8890   39.0010 H   0  0  0  0  0  0  0  0  0  0  0  0
   36.4860   27.4750   38.7630 O   0  0  0  0  0  0  0  0  0  0  0  0
   37.0320   27.4040   37.9180 H   0  0  0  0  0  0  0  0  0  0  0  0
  1  3  1  0  0  0  0
  1 12  1  0  0  0  0
  1  4  1  1  0  0  0
  2  1  1  0  0  0  0
  2  3  1  0  0  0  0
  3  7  1  1  0  0  0
  3 25  1  0  0  0  0
  5  2  1  0  0  0  0
  6  2  1  0  0  0  0
  8 14  1  0  0  0  0
  9 15  1  0  0  0  0
  9  8  2  0  0  0  0
 10  9  1  0  0  0  0
 11 10  2  0  0  0  0
 11 12  1  0  0  0  0
 12 13  2  0  0  0  0
 13  8  1  0  0  0  0
 16 17  1  0  0  0  0
 17 18  1  0  0  0  0
 18 10  1  0  0  0  0
 18 19  2  0  0  0  0
 19 20  1  0  0  0  0
 21 19  1  0  0  0  0
 21 22  1  0  0  0  0
 23 21  2  0  0  0  0
 24 17  2  0  0  0  0
 24 23  1  0  0  0  0
 25 27  1  0  0  0  0
 26 25  1  0  0  0  0
 27 36  2  0  0  0  0
 27 28  1  0  0  0  0
 28 37  1  0  0  0  0
 28 29  2  0  0  0  0
 29 30  1  0  0  0  0
 29 38  1  0  0  0  0
 30 39  1  0  0  0  0
 31 30  2  0  0  0  0
 32 31  1  0  0  0  0
 32 40  1  0  0  0  0
 33 41  1  0  0  0  0
 33 32  2  0  0  0  0
 34 35  2  0  0  0  0
 34 33  1  0  0  0  0
 35 36  1  0  0  0  0
 36 31  1  0  0  0  0
 42 34  1  0  0  0  0
 43 35  1  0  0  0  0
 44 43  1  0  0  0  0
M  END
>  <minimizedAffinity>
-7.13231421

$$$$

 OpenBabel03242511153D

 44 48  0  0  1  0  0  0  0  0999 V2000
   37.2650   27.5980   42.8760 C   0  0  1  0  0  0  0  0  0  0  0  0
   37.0270   28.3140   44.1780 C   0  0  0  0  0  0  0  0  0  0  0  0
   37.5880   29.0270   42.9150 C   0  0  2  0  0  0  0  0  0  0  0  0
   36.3630   27.3230   42.3280 H   0  0  0  0  0  0  0  0  0  0  0  0
   35.9820   28.5920   44.4590 H   0  0  0  0  0  0  0  0  0  0  0  0
   37.7610   28.2080   44.9920 H   0  0  0  0  0  0  0  0  0  0  0  0
   38.6410   29.3760   42.9780 H   0  0  0  0  0  0  0  0  0  0  0  0
   40.2760   25.6300   43.7400 C   0  0  0  0  0  0  0  0  0  0  0  0
   40.3700   24.7480   42.6090 C   0  0  0  0  0  0  0  0  0  0  0  0
   39.4020   24.8540   41.5980 C   0  0  0  0  0  0  0  0  0  0  0  0
   38.4550   25.7590   41.7380 N   0  0  0  0  0  0  0  0  0  0  0  0
   38.3720   26.5860   42.8040 C   0  0  0  0  0  0  0  0  0  0  0  0
   39.2810   26.5310   43.8180 N   0  0  0  0  0  0  0  0  0  0  0  0
   41.0560   25.4990   44.4930 H   0  0  0  0  0  0  0  0  0  0  0  0
   41.1490   24.0490   42.5580 H   0  0  0  0  0  0  0  0  0  0  0  0
   37.6320   22.6200   41.0210 F   0  0  0  0  0  0  0  0  0  0  0  0
   38.5570   22.9890   40.1100 C   0  0  0  0  0  0  0  0  0  0  0  0
   39.3700   24.0400   40.4120 C   0  0  0  0  0  0  0  0  0  0  0  0
   40.2700   24.3160   39.4020 C   0  0  0  0  0  0  0  0  0  0  0  0
   41.0030   25.1320   39.4750 H   0  0  0  0  0  0  0  0  0  0  0  0
   40.3390   23.6070   38.2200 C   0  0  0  0  0  0  0  0  0  0  0  0
   41.0600   23.8570   37.4550 H   0  0  0  0  0  0  0  0  0  0  0  0
   39.4830   22.5570   37.9850 C   0  0  0  0  0  3  0  0  0  0  0  0
   38.5630   22.2360   38.9580 C   0  0  0  0  0  3  0  0  0  0  0  0
   36.7070   29.9470   42.2580 N   0  0  0  0  0  0  0  0  0  0  0  0
   36.4430   30.6290   42.9960 H   0  0  0  0  0  0  0  0  0  0  0  0
   36.3540   29.8010   40.9090 C   0  0  0  0  0  0  0  0  0  0  0  0
   35.2560   29.0450   40.5790 C   0  0  0  0  0  0  0  0  0  0  0  0
   34.7990   28.9130   39.2720 C   0  0  0  0  0  0  0  0  0  0  0  0
   35.4410   29.5490   38.2370 C   0  0  0  0  0  0  0  0  0  0  0  0
   36.5430   30.3100   38.5450 C   0  0  0  0  0  0  0  0  0  0  0  0
   37.2040   30.9560   37.5190 C   0  0  0  0  0  0  0  0  0  0  0  0
   38.3090   31.7270   37.7360 C   0  0  0  0  0  0  0  0  0  0  0  0
   38.7440   31.8310   39.0520 C   0  0  0  0  0  0  0  0  0  0  0  0
   38.0780   31.1850   40.0610 C   0  0  0  0  0  0  0  0  0  0  0  0
   36.9740   30.4200   39.8470 C   0  0  0  0  0  0  0  0  0  0  0  0
   34.7240   28.5280   41.3710 H   0  0  0  0  0  0  0  0  0  0  0  0
   33.9270   28.2960   39.1190 H   0  0  0  0  0  0  0  0  0  0  0  0
   35.0520   29.4230   37.2340 H   0  0  0  0  0  0  0  0  0  0  0  0
   36.8240   30.8420   36.5000 H   0  0  0  0  0  0  0  0  0  0  0  0
   38.8110   32.2270   36.9020 H   0  0  0  0  0  0  0  0  0  0  0  0
   39.6160   32.4320   39.2550 H   0  0  0  0  0  0  0  0  0  0  0  0
   38.5520   31.3130   41.3460 O   0  0  0  0  0  0  0  0  0  0  0  0
   39.4550   31.0210   41.6850 H   0  0  0  0  0  0  0  0  0  0  0  0
  1  4  1  6  0  0  0
  1  3  1  0  0  0  0
  1  2  1  0  0  0  0
  2  5  1  0  0  0  0
  2  6  1  0  0  0  0
  3  7  1  1  0  0  0
  3  2  1  0  0  0  0
  8 13  1  0  0  0  0
  8 14  1  0  0  0  0
  9  8  2  0  0  0  0
 10 11  2  0  0  0  0
 10  9  1  0  0  0  0
 11 12  1  0  0  0  0
 12  1  1  0  0  0  0
 12 13  2  0  0  0  0
 15  9  1  0  0  0  0
 17 18  1  0  0  0  0
 17 16  1  0  0  0  0
 18 10  1  0  0  0  0
 19 20  1  0  0  0  0
 19 18  2  0  0  0  0
 21 19  1  0  0  0  0
 22 21  1  0  0  0  0
 23 21  2  0  0  0  0
 23 24  1  0  0  0  0
 24 17  2  0  0  0  0
 25  3  1  0  0  0  0
 25 26  1  0  0  0  0
 27 25  1  0  0  0  0
 28 27  1  0  0  0  0
 28 37  1  0  0  0  0
 29 28  2  0  0  0  0
 30 31  2  0  0  0  0
 30 29  1  0  0  0  0
 31 36  1  0  0  0  0
 32 33  2  0  0  0  0
 32 31  1  0  0  0  0
 33 34  1  0  0  0  0
 34 42  1  0  0  0  0
 34 35  2  0  0  0  0
 35 43  1  0  0  0  0
 36 35  1  0  0  0  0
 36 27  2  0  0  0  0
 38 29  1  0  0  0  0
 39 30  1  0  0  0  0
 40 32  1  0  0  0  0
 41 33  1  0  0  0  0
 43 44  1  0  0  0  0
M  END
>  <minimizedAffinity>
-7.06775045

$$$$

 OpenBabel03242511153D

 44 48  0  0  1  0  0  0  0  0999 V2000
   37.8560   32.4650   38.5400 C   0  0  1  0  0  0  0  0  0  0  0  0
   37.2890   33.4460   39.5290 C   0  0  0  0  0  0  0  0  0  0  0  0
   38.7660   32.9640   39.5750 C   0  0  2  0  0  0  0  0  0  0  0  0
   38.0090   32.8590   37.5340 H   0  0  0  0  0  0  0  0  0  0  0  0
   37.1430   34.5080   39.2150 H   0  0  0  0  0  0  0  0  0  0  0  0
   36.6720   33.0740   40.3630 H   0  0  0  0  0  0  0  0  0  0  0  0
   39.0470   32.3330   40.4450 H   0  0  0  0  0  0  0  0  0  0  0  0
   36.4760   29.1950   37.4990 C   0  0  0  0  0  0  0  0  0  0  0  0
   36.5170   28.4650   38.7370 C   0  0  0  0  0  0  0  0  0  0  0  0
   37.0180   29.1130   39.8770 C   0  0  0  0  0  0  0  0  0  0  0  0
   37.4250   30.3600   39.7540 N   0  0  0  0  0  0  0  0  0  0  0  0
   37.3830   31.0410   38.5870 C   0  0  0  0  0  0  0  0  0  0  0  0
   36.9090   30.4670   37.4460 N   0  0  0  0  0  0  0  0  0  0  0  0
   36.0780   28.6380   36.6480 H   0  0  0  0  0  0  0  0  0  0  0  0
   36.1770   27.4750   38.7680 H   0  0  0  0  0  0  0  0  0  0  0  0
   36.5510   26.3320   40.5870 F   0  0  0  0  0  0  0  0  0  0  0  0
   36.9060   27.2130   41.5450 C   0  0  0  0  0  0  0  0  0  0  0  0
   37.1170   28.5080   41.1790 C   0  0  0  0  0  0  0  0  0  0  0  0
   37.4740   29.3060   42.2480 C   0  0  0  0  0  0  0  0  0  0  0  0
   37.6830   30.3800   42.1360 H   0  0  0  0  0  0  0  0  0  0  0  0
   37.6010   28.8440   43.5420 C   0  0  0  0  0  0  0  0  0  0  0  0
   37.8830   29.5040   44.3500 H   0  0  0  0  0  0  0  0  0  0  0  0
   37.3720   27.5210   43.8360 C   0  0  0  0  0  3  0  0  0  0  0  0
   37.0130   26.6780   42.8090 C   0  0  0  0  0  3  0  0  0  0  0  0
   39.7630   33.9250   39.2070 N   0  0  0  0  0  0  0  0  0  0  0  0
   39.2700   34.8410   39.2430 H   0  0  0  0  0  0  0  0  0  0  0  0
   41.0690   33.5470   38.8680 C   0  0  0  0  0  0  0  0  0  0  0  0
   41.2930   32.8800   37.6890 C   0  0  0  0  0  0  0  0  0  0  0  0
   42.5670   32.5370   37.2480 C   0  0  0  0  0  0  0  0  0  0  0  0
   43.6760   32.8600   37.9910 C   0  0  0  0  0  0  0  0  0  0  0  0
   43.4760   33.5260   39.1770 C   0  0  0  0  0  0  0  0  0  0  0  0
   44.5770   33.8580   39.9400 C   0  0  0  0  0  0  0  0  0  0  0  0
   44.4670   34.5150   41.1310 C   0  0  0  0  0  0  0  0  0  0  0  0
   43.1800   34.8360   41.5450 C   0  0  0  0  0  0  0  0  0  0  0  0
   42.0940   34.5010   40.7780 C   0  0  0  0  0  0  0  0  0  0  0  0
   42.2040   33.8500   39.5880 C   0  0  0  0  0  0  0  0  0  0  0  0
   40.4400   32.6100   37.0750 H   0  0  0  0  0  0  0  0  0  0  0  0
   42.6340   32.0140   36.3060 H   0  0  0  0  0  0  0  0  0  0  0  0
   44.6500   32.5770   37.6130 H   0  0  0  0  0  0  0  0  0  0  0  0
   45.5700   33.5830   39.5710 H   0  0  0  0  0  0  0  0  0  0  0  0
   45.3600   34.7650   41.7130 H   0  0  0  0  0  0  0  0  0  0  0  0
   43.0600   35.3530   42.4840 H   0  0  0  0  0  0  0  0  0  0  0  0
   40.8410   34.8330   41.2350 O   0  0  0  0  0  0  0  0  0  0  0  0
   40.4050   34.5090   42.0840 H   0  0  0  0  0  0  0  0  0  0  0  0
  1  4  1  6  0  0  0
  1 12  1  0  0  0  0
  1  2  1  0  0  0  0
  1  3  1  0  0  0  0
  2  3  1  0  0  0  0
  2  6  1  0  0  0  0
  3  7  1  1  0  0  0
  5  2  1  0  0  0  0
  8  9  1  0  0  0  0
  9 15  1  0  0  0  0
  9 10  2  0  0  0  0
 10 18  1  0  0  0  0
 11 10  1  0  0  0  0
 12 11  2  0  0  0  0
 13  8  2  0  0  0  0
 13 12  1  0  0  0  0
 14  8  1  0  0  0  0
 16 17  1  0  0  0  0
 17 24  1  0  0  0  0
 18 17  2  0  0  0  0
 18 19  1  0  0  0  0
 19 21  2  0  0  0  0
 20 19  1  0  0  0  0
 21 23  1  0  0  0  0
 21 22  1  0  0  0  0
 24 23  2  0  0  0  0
 25 26  1  0  0  0  0
 25  3  1  0  0  0  0
 27 25  1  0  0  0  0
 27 36  1  0  0  0  0
 28 27  2  0  0  0  0
 29 28  1  0  0  0  0
 29 30  2  0  0  0  0
 30 31  1  0  0  0  0
 31 36  2  0  0  0  0
 31 32  1  0  0  0  0
 32 33  2  0  0  0  0
 33 34  1  0  0  0  0
 33 41  1  0  0  0  0
 34 42  1  0  0  0  0
 35 43  1  0  0  0  0
 35 34  2  0  0  0  0
 36 35  1  0  0  0  0
 37 28  1  0  0  0  0
 38 29  1  0  0  0  0
 39 30  1  0  0  0  0
 40 32  1  0  0  0  0
 43 44  1  0  0  0  0
M  END
>  <minimizedAffinity>
-7.05889893

$$$$

 OpenBabel03242511153D

 44 48  0  0  1  0  0  0  0  0999 V2000
   37.5930   31.7500   39.0980 C   0  0  1  0  0  0  0  0  0  0  0  0
   37.2940   33.1380   39.5950 C   0  0  0  0  0  0  0  0  0  0  0  0
   38.7260   32.5330   39.5990 C   0  0  2  0  0  0  0  0  0  0  0  0
   37.5350   31.6240   38.0170 H   0  0  0  0  0  0  0  0  0  0  0  0
   37.1210   33.9540   38.8520 H   0  0  0  0  0  0  0  0  0  0  0  0
   36.8630   33.2680   40.6010 H   0  0  0  0  0  0  0  0  0  0  0  0
   39.1680   32.3300   40.5970 H   0  0  0  0  0  0  0  0  0  0  0  0
   35.3320   29.1790   40.4990 C   0  0  0  0  0  0  0  0  0  0  0  0
   36.2250   28.4620   41.3680 C   0  0  0  0  0  0  0  0  0  0  0  0
   37.5640   28.8790   41.4400 C   0  0  0  0  0  0  0  0  0  0  0  0
   37.9340   29.9080   40.7060 N   0  0  0  0  0  0  0  0  0  0  0  0
   37.0890   30.5790   39.8910 C   0  0  0  0  0  0  0  0  0  0  0  0
   35.7790   30.2210   39.7770 N   0  0  0  0  0  0  0  0  0  0  0  0
   34.3050   28.8070   40.4850 H   0  0  0  0  0  0  0  0  0  0  0  0
   35.8680   27.6510   41.9260 H   0  0  0  0  0  0  0  0  0  0  0  0
   37.1990   26.7450   43.3810 F   0  0  0  0  0  0  0  0  0  0  0  0
   38.4300   27.2590   43.1810 C   0  0  0  0  0  0  0  0  0  0  0  0
   38.5670   28.2580   42.2650 C   0  0  0  0  0  0  0  0  0  0  0  0
   39.8710   28.6970   42.1540 C   0  0  0  0  0  0  0  0  0  0  0  0
   40.1640   29.4990   41.4620 H   0  0  0  0  0  0  0  0  0  0  0  0
   40.9190   28.1830   42.8910 C   0  0  0  0  0  0  0  0  0  0  0  0
   41.9260   28.5560   42.7730 H   0  0  0  0  0  0  0  0  0  0  0  0
   40.7040   27.1730   43.7980 C   0  0  0  0  0  3  0  0  0  0  0  0
   39.4220   26.6960   43.9510 C   0  0  0  0  0  3  0  0  0  0  0  0
   39.6520   33.0810   38.6520 N   0  0  0  0  0  0  0  0  0  0  0  0
   39.1020   33.1810   37.7750 H   0  0  0  0  0  0  0  0  0  0  0  0
   40.9880   33.3410   38.9870 C   0  0  0  0  0  0  0  0  0  0  0  0
   41.2690   34.1470   40.0620 C   0  0  0  0  0  0  0  0  0  0  0  0
   42.5650   34.3920   40.5010 C   0  0  0  0  0  0  0  0  0  0  0  0
   43.6410   33.8240   39.8630 C   0  0  0  0  0  0  0  0  0  0  0  0
   43.3840   33.0140   38.7820 C   0  0  0  0  0  0  0  0  0  0  0  0
   44.4510   32.4360   38.1250 C   0  0  0  0  0  0  0  0  0  0  0  0
   44.2850   31.6230   37.0410 C   0  0  0  0  0  0  0  0  0  0  0  0
   42.9770   31.4050   36.6250 C   0  0  0  0  0  0  0  0  0  0  0  0
   41.9260   31.9860   37.2860 C   0  0  0  0  0  0  0  0  0  0  0  0
   42.0900   32.7920   38.3690 C   0  0  0  0  0  0  0  0  0  0  0  0
   40.4440   34.6130   40.5910 H   0  0  0  0  0  0  0  0  0  0  0  0
   42.6780   35.0410   41.3570 H   0  0  0  0  0  0  0  0  0  0  0  0
   44.6340   34.0380   40.2360 H   0  0  0  0  0  0  0  0  0  0  0  0
   45.4610   32.6380   38.4910 H   0  0  0  0  0  0  0  0  0  0  0  0
   45.1510   31.1770   36.5420 H   0  0  0  0  0  0  0  0  0  0  0  0
   42.8130   30.7680   35.7690 H   0  0  0  0  0  0  0  0  0  0  0  0
   40.6510   31.7460   36.8300 O   0  0  0  0  0  0  0  0  0  0  0  0
   40.2810   31.9880   35.9240 H   0  0  0  0  0  0  0  0  0  0  0  0
  1  4  1  6  0  0  0
  1  2  1  0  0  0  0
  1  3  1  0  0  0  0
  1 12  1  0  0  0  0
  2  3  1  0  0  0  0
  2  6  1  0  0  0  0
  3  7  1  1  0  0  0
  5  2  1  0  0  0  0
  8  9  1  0  0  0  0
  9 10  2  0  0  0  0
  9 15  1  0  0  0  0
 10 18  1  0  0  0  0
 11 10  1  0  0  0  0
 12 11  2  0  0  0  0
 13 12  1  0  0  0  0
 13  8  2  0  0  0  0
 14  8  1  0  0  0  0
 17 16  1  0  0  0  0
 17 24  1  0  0  0  0
 18 17  2  0  0  0  0
 19 18  1  0  0  0  0
 19 21  2  0  0  0  0
 20 19  1  0  0  0  0
 21 23  1  0  0  0  0
 22 21  1  0  0  0  0
 23 24  2  0  0  0  0
 25 27  1  0  0  0  0
 25  3  1  0  0  0  0
 26 25  1  0  0  0  0
 27 28  1  0  0  0  0
 28 29  2  0  0  0  0
 28 37  1  0  0  0  0
 29 38  1  0  0  0  0
 30 39  1  0  0  0  0
 30 29  1  0  0  0  0
 31 30  2  0  0  0  0
 32 40  1  0  0  0  0
 32 31  1  0  0  0  0
 33 32  2  0  0  0  0
 34 33  1  0  0  0  0
 34 35  2  0  0  0  0
 35 36  1  0  0  0  0
 36 31  1  0  0  0  0
 36 27  2  0  0  0  0
 41 33  1  0  0  0  0
 42 34  1  0  0  0  0
 43 35  1  0  0  0  0
 44 43  1  0  0  0  0
M  END
>  <minimizedAffinity>
-6.97115707

$$$$

 OpenBabel03242511153D

 44 48  0  0  1  0  0  0  0  0999 V2000
   37.0810   27.4940   42.8550 C   0  0  1  0  0  0  0  0  0  0  0  0
   37.0280   27.9630   44.2830 C   0  0  0  0  0  0  0  0  0  0  0  0
   37.8620   28.6880   43.1890 C   0  0  2  0  0  0  0  0  0  0  0  0
   36.1690   27.6600   42.2790 H   0  0  0  0  0  0  0  0  0  0  0  0
   36.1240   28.5150   44.6380 H   0  0  0  0  0  0  0  0  0  0  0  0
   37.6400   27.4480   45.0410 H   0  0  0  0  0  0  0  0  0  0  0  0
   38.9660   28.6380   43.3030 H   0  0  0  0  0  0  0  0  0  0  0  0
   39.6250   24.8080   42.8380 C   0  0  0  0  0  0  0  0  0  0  0  0
   39.0290   23.8620   41.9340 C   0  0  0  0  0  0  0  0  0  0  0  0
   37.7820   24.1720   41.3700 C   0  0  0  0  0  0  0  0  0  0  0  0
   37.2200   25.3180   41.6970 N   0  0  0  0  0  0  0  0  0  0  0  0
   37.7860   26.2040   42.5470 C   0  0  0  0  0  0  0  0  0  0  0  0
   38.9940   25.9590   43.1270 N   0  0  0  0  0  0  0  0  0  0  0  0
   40.5940   24.5100   43.2450 H   0  0  0  0  0  0  0  0  0  0  0  0
   39.5280   22.9670   41.7160 H   0  0  0  0  0  0  0  0  0  0  0  0
   38.6790   21.6620   40.2070 F   0  0  0  0  0  0  0  0  0  0  0  0
   37.4590   22.1440   39.8910 C   0  0  0  0  0  0  0  0  0  0  0  0
   37.0690   23.3220   40.4530 C   0  0  0  0  0  0  0  0  0  0  0  0
   35.8060   23.7050   40.0500 C   0  0  0  0  0  0  0  0  0  0  0  0
   35.3310   24.6320   40.4050 H   0  0  0  0  0  0  0  0  0  0  0  0
   35.0250   22.9780   39.1750 C   0  0  0  0  0  0  0  0  0  0  0  0
   34.0410   23.3150   38.8850 H   0  0  0  0  0  0  0  0  0  0  0  0
   35.4860   21.7950   38.6470 C   0  0  0  0  0  3  0  0  0  0  0  0
   36.7410   21.3630   39.0140 C   0  0  0  0  0  3  0  0  0  0  0  0
   37.3780   29.9660   42.7600 N   0  0  0  0  0  0  0  0  0  0  0  0
   37.1360   30.4640   43.6400 H   0  0  0  0  0  0  0  0  0  0  0  0
   37.2840   30.3070   41.4030 C   0  0  0  0  0  0  0  0  0  0  0  0
   36.2240   29.8430   40.6640 C   0  0  0  0  0  0  0  0  0  0  0  0
   36.0220   30.1970   39.3340 C   0  0  0  0  0  0  0  0  0  0  0  0
   36.8920   31.0450   38.6940 C   0  0  0  0  0  0  0  0  0  0  0  0
   37.9620   31.5200   39.4150 C   0  0  0  0  0  0  0  0  0  0  0  0
   38.8500   32.3720   38.7890 C   0  0  0  0  0  0  0  0  0  0  0  0
   39.9400   32.8860   39.4300 C   0  0  0  0  0  0  0  0  0  0  0  0
   40.1170   32.5070   40.7550 C   0  0  0  0  0  0  0  0  0  0  0  0
   39.2270   31.6600   41.3640 C   0  0  0  0  0  0  0  0  0  0  0  0
   38.1380   31.1510   40.7280 C   0  0  0  0  0  0  0  0  0  0  0  0
   35.5150   29.1710   41.1370 H   0  0  0  0  0  0  0  0  0  0  0  0
   35.1570   29.7770   38.8420 H   0  0  0  0  0  0  0  0  0  0  0  0
   36.6990   31.2970   37.6590 H   0  0  0  0  0  0  0  0  0  0  0  0
   38.6680   32.6410   37.7450 H   0  0  0  0  0  0  0  0  0  0  0  0
   40.6260   33.5600   38.9070 H   0  0  0  0  0  0  0  0  0  0  0  0
   40.9710   32.8950   41.2870 H   0  0  0  0  0  0  0  0  0  0  0  0
   39.4500   31.3080   42.6740 O   0  0  0  0  0  0  0  0  0  0  0  0
   40.2490   30.8110   43.0360 H   0  0  0  0  0  0  0  0  0  0  0  0
  1  4  1  6  0  0  0
  1  3  1  0  0  0  0
  1  2  1  0  0  0  0
  2  5  1  0  0  0  0
  2  6  1  0  0  0  0
  3  7  1  1  0  0  0
  3  2  1  0  0  0  0
  8 13  1  0  0  0  0
  8 14  1  0  0  0  0
  9  8  2  0  0  0  0
 10 11  2  0  0  0  0
 10  9  1  0  0  0  0
 11 12  1  0  0  0  0
 12  1  1  0  0  0  0
 12 13  2  0  0  0  0
 15  9  1  0  0  0  0
 17 16  1  0  0  0  0
 17 18  1  0  0  0  0
 18 10  1  0  0  0  0
 19 20  1  0  0  0  0
 19 18  2  0  0  0  0
 21 19  1  0  0  0  0
 22 21  1  0  0  0  0
 23 24  1  0  0  0  0
 23 21  2  0  0  0  0
 24 17  2  0  0  0  0
 25  3  1  0  0  0  0
 25 26  1  0  0  0  0
 27 25  1  0  0  0  0
 28 37  1  0  0  0  0
 28 27  2  0  0  0  0
 29 28  1  0  0  0  0
 30 29  2  0  0  0  0
 30 31  1  0  0  0  0
 31 36  1  0  0  0  0
 32 31  2  0  0  0  0
 32 33  1  0  0  0  0
 33 34  2  0  0  0  0
 34 42  1  0  0  0  0
 34 35  1  0  0  0  0
 35 43  1  0  0  0  0
 36 35  2  0  0  0  0
 36 27  1  0  0  0  0
 38 29  1  0  0  0  0
 39 30  1  0  0  0  0
 40 32  1  0  0  0  0
 41 33  1  0  0  0  0
 43 44  1  0  0  0  0
M  END
>  <minimizedAffinity>
-6.92954826

$$$$

 OpenBabel03242511153D

 44 48  0  0  1  0  0  0  0  0999 V2000
   36.4530   29.2850   39.4120 C   0  0  1  0  0  0  0  0  0  0  0  0
   36.5560   30.7760   39.2410 C   0  0  0  0  0  0  0  0  0  0  0  0
   35.9140   30.1140   40.4930 C   0  0  2  0  0  0  0  0  0  0  0  0
   37.3960   28.7770   39.6180 H   0  0  0  0  0  0  0  0  0  0  0  0
   37.5410   31.2740   39.4160 H   0  0  0  0  0  0  0  0  0  0  0  0
   35.8340   31.2940   38.5910 H   0  0  0  0  0  0  0  0  0  0  0  0
   34.8190   30.2580   40.6140 H   0  0  0  0  0  0  0  0  0  0  0  0
   34.8870   26.5130   37.5280 C   0  0  0  0  0  0  0  0  0  0  0  0
   33.8040   27.1950   36.8730 C   0  0  0  0  0  0  0  0  0  0  0  0
   33.6450   28.5700   37.1030 C   0  0  0  0  0  0  0  0  0  0  0  0
   34.5000   29.1680   37.9070 N   0  0  0  0  0  0  0  0  0  0  0  0
   35.5170   28.5220   38.5200 C   0  0  0  0  0  0  0  0  0  0  0  0
   35.7230   27.1870   38.3370 N   0  0  0  0  0  0  0  0  0  0  0  0
   34.9580   25.4450   37.3110 H   0  0  0  0  0  0  0  0  0  0  0  0
   33.1580   26.6600   36.2450 H   0  0  0  0  0  0  0  0  0  0  0  0
   31.3610   29.7750   38.4390 F   0  0  0  0  0  0  0  0  0  0  0  0
   31.5280   29.9580   37.1130 C   0  0  0  0  0  0  0  0  0  0  0  0
   32.6090   29.3790   36.5170 C   0  0  0  0  0  0  0  0  0  0  0  0
   32.6660   29.6400   35.1630 C   0  0  0  0  0  0  0  0  0  0  0  0
   33.4720   29.2520   34.5230 H   0  0  0  0  0  0  0  0  0  0  0  0
   31.7330   30.4000   34.4870 C   0  0  0  0  0  0  0  0  0  0  0  0
   31.8160   30.5780   33.4250 H   0  0  0  0  0  0  0  0  0  0  0  0
   30.6670   30.9530   35.1560 C   0  0  0  0  0  3  0  0  0  0  0  0
   30.5590   30.7260   36.5100 C   0  0  0  0  0  3  0  0  0  0  0  0
   36.6540   30.2120   41.7160 N   0  0  0  0  0  0  0  0  0  0  0  0
   36.5690   31.2100   41.9950 H   0  0  0  0  0  0  0  0  0  0  0  0
   37.3170   29.1090   42.2720 C   0  0  0  0  0  0  0  0  0  0  0  0
   36.6040   27.9760   42.5740 C   0  0  0  0  0  0  0  0  0  0  0  0
   37.2020   26.8170   43.0570 C   0  0  0  0  0  0  0  0  0  0  0  0
   38.5600   26.7590   43.2560 C   0  0  0  0  0  0  0  0  0  0  0  0
   39.2940   27.8840   42.9620 C   0  0  0  0  0  0  0  0  0  0  0  0
   40.6600   27.8470   43.1560 C   0  0  0  0  0  0  0  0  0  0  0  0
   41.4630   28.9200   42.8940 C   0  0  0  0  0  0  0  0  0  0  0  0
   40.8320   30.0640   42.4190 C   0  0  0  0  0  0  0  0  0  0  0  0
   39.4740   30.0860   42.2310 C   0  0  0  0  0  0  0  0  0  0  0  0
   38.6750   29.0160   42.4870 C   0  0  0  0  0  0  0  0  0  0  0  0
   35.5290   27.9850   42.4290 H   0  0  0  0  0  0  0  0  0  0  0  0
   36.5520   25.9800   43.2640 H   0  0  0  0  0  0  0  0  0  0  0  0
   38.9880   25.8380   43.6320 H   0  0  0  0  0  0  0  0  0  0  0  0
   41.1100   26.9230   43.5330 H   0  0  0  0  0  0  0  0  0  0  0  0
   42.5430   28.8600   43.0580 H   0  0  0  0  0  0  0  0  0  0  0  0
   41.4390   30.9290   42.2050 H   0  0  0  0  0  0  0  0  0  0  0  0
   38.8960   31.2440   41.7660 O   0  0  0  0  0  0  0  0  0  0  0  0
   38.9000   32.1430   42.2230 H   0  0  0  0  0  0  0  0  0  0  0  0
  1  4  1  1  0  0  0
  1  3  1  0  0  0  0
  2  1  1  0  0  0  0
  2  5  1  0  0  0  0
  2  3  1  0  0  0  0
  3  7  1  1  0  0  0
  3 25  1  0  0  0  0
  6  2  1  0  0  0  0
  8 13  1  0  0  0  0
  9 10  1  0  0  0  0
  9  8  2  0  0  0  0
 10 11  2  0  0  0  0
 11 12  1  0  0  0  0
 12  1  1  0  0  0  0
 13 12  2  0  0  0  0
 14  8  1  0  0  0  0
 15  9  1  0  0  0  0
 17 16  1  0  0  0  0
 18 10  1  0  0  0  0
 18 17  1  0  0  0  0
 19 18  2  0  0  0  0
 20 19  1  0  0  0  0
 21 23  2  0  0  0  0
 21 19  1  0  0  0  0
 22 21  1  0  0  0  0
 23 24  1  0  0  0  0
 24 17  2  0  0  0  0
 25 26  1  0  0  0  0
 25 27  1  0  0  0  0
 27 36  2  0  0  0  0
 27 28  1  0  0  0  0
 28 29  2  0  0  0  0
 29 30  1  0  0  0  0
 29 38  1  0  0  0  0
 30 39  1  0  0  0  0
 31 32  1  0  0  0  0
 31 30  2  0  0  0  0
 32 40  1  0  0  0  0
 33 41  1  0  0  0  0
 33 32  2  0  0  0  0
 34 33  1  0  0  0  0
 35 34  2  0  0  0  0
 35 36  1  0  0  0  0
 36 31  1  0  0  0  0
 37 28  1  0  0  0  0
 42 34  1  0  0  0  0
 43 44  1  0  0  0  0
 43 35  1  0  0  0  0
M  END
>  <minimizedAffinity>
-6.92814207

$$$$

 OpenBabel03242511153D

 44 48  0  0  1  0  0  0  0  0999 V2000
   37.5930   29.3240   39.7650 C   0  0  1  0  0  0  0  0  0  0  0  0
   36.2870   29.3000   39.0200 C   0  0  0  0  0  0  0  0  0  0  0  0
   36.8800   30.5980   39.6360 C   0  0  2  0  0  0  0  0  0  0  0  0
   38.4820   29.2050   39.1430 H   0  0  0  0  0  0  0  0  0  0  0  0
   36.3010   29.2520   37.9040 H   0  0  0  0  0  0  0  0  0  0  0  0
   35.3820   28.9370   39.5320 H   0  0  0  0  0  0  0  0  0  0  0  0
   36.3220   31.0320   40.4930 H   0  0  0  0  0  0  0  0  0  0  0  0
   36.5930   27.6800   42.9230 C   0  0  0  0  0  0  0  0  0  0  0  0
   37.8720   27.4410   43.5340 C   0  0  0  0  0  0  0  0  0  0  0  0
   39.0270   27.8440   42.8440 C   0  0  0  0  0  0  0  0  0  0  0  0
   38.8780   28.4230   41.6700 N   0  0  0  0  0  0  0  0  0  0  0  0
   37.6720   28.6450   41.1010 C   0  0  0  0  0  0  0  0  0  0  0  0
   36.5160   28.2760   41.7210 N   0  0  0  0  0  0  0  0  0  0  0  0
   35.7340   27.3430   43.5070 H   0  0  0  0  0  0  0  0  0  0  0  0
   37.9220   26.9750   44.4710 H   0  0  0  0  0  0  0  0  0  0  0  0
   40.1310   25.5370   44.2270 F   0  0  0  0  0  0  0  0  0  0  0  0
   40.9180   26.6050   43.9810 C   0  0  0  0  0  0  0  0  0  0  0  0
   40.3690   27.6690   43.3310 C   0  0  0  0  0  0  0  0  0  0  0  0
   41.2750   28.6940   43.1420 C   0  0  0  0  0  0  0  0  0  0  0  0
   41.0040   29.6310   42.6340 H   0  0  0  0  0  0  0  0  0  0  0  0
   42.5880   28.6460   43.5650 C   0  0  0  0  0  0  0  0  0  0  0  0
   43.2630   29.4720   43.3960 H   0  0  0  0  0  0  0  0  0  0  0  0
   43.0710   27.5360   44.2150 C   0  0  0  0  0  3  0  0  0  0  0  0
   42.2120   26.4820   44.4320 C   0  0  0  0  0  3  0  0  0  0  0  0
   37.3790   31.5730   38.7120 N   0  0  0  0  0  0  0  0  0  0  0  0
   36.9240   31.3350   37.8080 H   0  0  0  0  0  0  0  0  0  0  0  0
   38.3040   32.5540   39.0960 C   0  0  0  0  0  0  0  0  0  0  0  0
   37.9610   33.4600   40.0690 C   0  0  0  0  0  0  0  0  0  0  0  0
   38.8470   34.4140   40.5560 C   0  0  0  0  0  0  0  0  0  0  0  0
   40.1310   34.4900   40.0720 C   0  0  0  0  0  0  0  0  0  0  0  0
   40.4960   33.5940   39.0950 C   0  0  0  0  0  0  0  0  0  0  0  0
   41.7810   33.6550   38.5940 C   0  0  0  0  0  0  0  0  0  0  0  0
   42.2240   32.8070   37.6210 C   0  0  0  0  0  0  0  0  0  0  0  0
   41.3100   31.8700   37.1520 C   0  0  0  0  0  0  0  0  0  0  0  0
   40.0370   31.8210   37.6590 C   0  0  0  0  0  0  0  0  0  0  0  0
   39.5960   32.6630   38.6320 C   0  0  0  0  0  0  0  0  0  0  0  0
   36.9550   33.4290   40.4760 H   0  0  0  0  0  0  0  0  0  0  0  0
   38.4780   35.0790   41.3220 H   0  0  0  0  0  0  0  0  0  0  0  0
   40.7910   35.2460   40.4780 H   0  0  0  0  0  0  0  0  0  0  0  0
   42.4630   34.4110   38.9950 H   0  0  0  0  0  0  0  0  0  0  0  0
   43.2490   32.8800   37.2440 H   0  0  0  0  0  0  0  0  0  0  0  0
   41.6300   31.1870   36.3810 H   0  0  0  0  0  0  0  0  0  0  0  0
   39.1680   30.8810   37.1560 O   0  0  0  0  0  0  0  0  0  0  0  0
   38.8470   30.8080   36.2030 H   0  0  0  0  0  0  0  0  0  0  0  0
  1  4  1  6  0  0  0
  1 12  1  0  0  0  0
  2  6  1  0  0  0  0
  2  3  1  0  0  0  0
  2  1  1  0  0  0  0
  3  1  1  0  0  0  0
  3  7  1  1  0  0  0
  5  2  1  0  0  0  0
  8 14  1  0  0  0  0
  8  9  1  0  0  0  0
  9 15  1  0  0  0  0
 10 18  1  0  0  0  0
 10  9  2  0  0  0  0
 11 10  1  0  0  0  0
 12 11  2  0  0  0  0
 12 13  1  0  0  0  0
 13  8  2  0  0  0  0
 17 16  1  0  0  0  0
 17 24  1  0  0  0  0
 18 17  2  0  0  0  0
 19 18  1  0  0  0  0
 19 21  2  0  0  0  0
 20 19  1  0  0  0  0
 21 23  1  0  0  0  0
 22 21  1  0  0  0  0
 23 24  2  0  0  0  0
 25 27  1  0  0  0  0
 25  3  1  0  0  0  0
 26 25  1  0  0  0  0
 27 28  1  0  0  0  0
 28 37  1  0  0  0  0
 28 29  2  0  0  0  0
 29 38  1  0  0  0  0
 30 39  1  0  0  0  0
 30 29  1  0  0  0  0
 31 30  2  0  0  0  0
 32 40  1  0  0  0  0
 32 31  1  0  0  0  0
 33 32  2  0  0  0  0
 34 33  1  0  0  0  0
 34 35  2  0  0  0  0
 35 36  1  0  0  0  0
 36 31  1  0  0  0  0
 36 27  2  0  0  0  0
 41 33  1  0  0  0  0
 42 34  1  0  0  0  0
 43 35  1  0  0  0  0
 44 43  1  0  0  0  0
M  END
>  <minimizedAffinity>
-6.85024929

$$$$

 OpenBabel03242511153D

 44 48  0  0  1  0  0  0  0  0999 V2000
   36.8450   27.1650   42.2350 C   0  0  1  0  0  0  0  0  0  0  0  0
   36.2360   27.3180   43.6020 C   0  0  0  0  0  0  0  0  0  0  0  0
   37.5440   28.0430   43.1770 C   0  0  2  0  0  0  0  0  0  0  0  0
   36.3020   27.6580   41.4290 H   0  0  0  0  0  0  0  0  0  0  0  0
   35.3420   27.9770   43.7250 H   0  0  0  0  0  0  0  0  0  0  0  0
   36.3890   26.5250   44.3510 H   0  0  0  0  0  0  0  0  0  0  0  0
   38.4730   27.7130   43.6880 H   0  0  0  0  0  0  0  0  0  0  0  0
   39.2060   24.3240   42.0260 C   0  0  0  0  0  0  0  0  0  0  0  0
   38.5080   23.4430   41.1300 C   0  0  0  0  0  0  0  0  0  0  0  0
   37.2570   23.8470   40.6360 C   0  0  0  0  0  0  0  0  0  0  0  0
   36.7880   25.0170   41.0190 N   0  0  0  0  0  0  0  0  0  0  0  0
   37.4490   25.8420   41.8610 C   0  0  0  0  0  0  0  0  0  0  0  0
   38.6660   25.5050   42.3750 N   0  0  0  0  0  0  0  0  0  0  0  0
   40.1710   23.9540   42.3780 H   0  0  0  0  0  0  0  0  0  0  0  0
   38.9370   22.5250   40.8650 H   0  0  0  0  0  0  0  0  0  0  0  0
   37.8110   21.1930   39.5880 F   0  0  0  0  0  0  0  0  0  0  0  0
   36.6770   21.8280   39.2250 C   0  0  0  0  0  0  0  0  0  0  0  0
   36.4480   23.0710   39.7350 C   0  0  0  0  0  0  0  0  0  0  0  0
   35.2590   23.6120   39.2890 C   0  0  0  0  0  0  0  0  0  0  0  0
   34.9140   24.6090   39.5980 H   0  0  0  0  0  0  0  0  0  0  0  0
   34.3990   22.9670   38.4230 C   0  0  0  0  0  0  0  0  0  0  0  0
   33.4780   23.4270   38.0980 H   0  0  0  0  0  0  0  0  0  0  0  0
   34.6980   21.7110   37.9500 C   0  0  0  0  0  3  0  0  0  0  0  0
   35.8720   21.1220   38.3620 C   0  0  0  0  0  3  0  0  0  0  0  0
   37.4540   29.4610   42.9880 N   0  0  0  0  0  0  0  0  0  0  0  0
   36.5480   29.7270   43.4230 H   0  0  0  0  0  0  0  0  0  0  0  0
   38.4480   30.1830   42.3130 C   0  0  0  0  0  0  0  0  0  0  0  0
   39.7620   30.0260   42.6790 C   0  0  0  0  0  0  0  0  0  0  0  0
   40.8100   30.6490   42.0100 C   0  0  0  0  0  0  0  0  0  0  0  0
   40.5660   31.4650   40.9320 C   0  0  0  0  0  0  0  0  0  0  0  0
   39.2570   31.6390   40.5490 C   0  0  0  0  0  0  0  0  0  0  0  0
   38.9910   32.4560   39.4690 C   0  0  0  0  0  0  0  0  0  0  0  0
   37.7210   32.6870   39.0250 C   0  0  0  0  0  0  0  0  0  0  0  0
   36.6970   32.0540   39.7200 C   0  0  0  0  0  0  0  0  0  0  0  0
   36.9760   31.2440   40.7910 C   0  0  0  0  0  0  0  0  0  0  0  0
   38.2420   31.0100   41.2310 C   0  0  0  0  0  0  0  0  0  0  0  0
   39.9920   29.3880   43.5260 H   0  0  0  0  0  0  0  0  0  0  0  0
   41.8070   30.4590   42.3770 H   0  0  0  0  0  0  0  0  0  0  0  0
   41.4090   31.9310   40.4370 H   0  0  0  0  0  0  0  0  0  0  0  0
   39.8310   32.9320   38.9540 H   0  0  0  0  0  0  0  0  0  0  0  0
   37.5420   33.3400   38.1650 H   0  0  0  0  0  0  0  0  0  0  0  0
   35.6820   32.2180   39.3950 H   0  0  0  0  0  0  0  0  0  0  0  0
   35.9280   30.6470   41.4510 O   0  0  0  0  0  0  0  0  0  0  0  0
   35.1770   31.1150   41.9340 H   0  0  0  0  0  0  0  0  0  0  0  0
  1  4  1  6  0  0  0
  1  3  1  0  0  0  0
  1  2  1  0  0  0  0
  2  5  1  0  0  0  0
  2  6  1  0  0  0  0
  3  2  1  0  0  0  0
  3  7  1  1  0  0  0
  8 13  1  0  0  0  0
  8 14  1  0  0  0  0
  9  8  2  0  0  0  0
 10 11  2  0  0  0  0
 10  9  1  0  0  0  0
 11 12  1  0  0  0  0
 12  1  1  0  0  0  0
 12 13  2  0  0  0  0
 15  9  1  0  0  0  0
 17 16  1  0  0  0  0
 17 18  1  0  0  0  0
 18 10  1  0  0  0  0
 19 20  1  0  0  0  0
 19 18  2  0  0  0  0
 21 19  1  0  0  0  0
 22 21  1  0  0  0  0
 23 24  1  0  0  0  0
 23 21  2  0  0  0  0
 24 17  2  0  0  0  0
 25  3  1  0  0  0  0
 25 26  1  0  0  0  0
 27 28  1  0  0  0  0
 27 25  1  0  0  0  0
 28 37  1  0  0  0  0
 29 38  1  0  0  0  0
 29 28  2  0  0  0  0
 30 29  1  0  0  0  0
 31 30  2  0  0  0  0
 31 36  1  0  0  0  0
 32 31  1  0  0  0  0
 33 32  2  0  0  0  0
 33 34  1  0  0  0  0
 34 35  2  0  0  0  0
 35 36  1  0  0  0  0
 35 43  1  0  0  0  0
 36 27  2  0  0  0  0
 39 30  1  0  0  0  0
 40 32  1  0  0  0  0
 41 33  1  0  0  0  0
 42 34  1  0  0  0  0
 43 44  1  0  0  0  0
M  END
>  <minimizedAffinity>
-6.83691454

$$$$

 OpenBabel03242511153D

 44 48  0  0  1  0  0  0  0  0999 V2000
   35.6650   28.7040   38.5670 C   0  0  1  0  0  0  0  0  0  0  0  0
   35.4890   29.6600   39.7140 C   0  0  0  0  0  0  0  0  0  0  0  0
   35.7960   28.1490   39.9170 C   0  0  2  0  0  0  0  0  0  0  0  0
   36.5910   28.8230   38.0030 H   0  0  0  0  0  0  0  0  0  0  0  0
   36.3240   30.3560   39.9710 H   0  0  0  0  0  0  0  0  0  0  0  0
   34.4720   29.9530   40.0190 H   0  0  0  0  0  0  0  0  0  0  0  0
   34.9830   27.5420   40.3700 H   0  0  0  0  0  0  0  0  0  0  0  0
   33.3070   26.8020   36.4430 C   0  0  0  0  0  0  0  0  0  0  0  0
   32.2860   27.7850   36.2050 C   0  0  0  0  0  0  0  0  0  0  0  0
   32.4370   29.0560   36.7820 C   0  0  0  0  0  0  0  0  0  0  0  0
   33.5100   29.2830   37.5120 N   0  0  0  0  0  0  0  0  0  0  0  0
   34.4670   28.3550   37.7310 C   0  0  0  0  0  0  0  0  0  0  0  0
   34.3770   27.1030   37.2000 N   0  0  0  0  0  0  0  0  0  0  0  0
   33.1330   25.8330   35.9700 H   0  0  0  0  0  0  0  0  0  0  0  0
   31.4560   27.5410   35.6140 H   0  0  0  0  0  0  0  0  0  0  0  0
   30.6380   30.1440   38.7910 F   0  0  0  0  0  0  0  0  0  0  0  0
   30.6430   30.6690   37.5480 C   0  0  0  0  0  0  0  0  0  0  0  0
   31.4980   30.1360   36.6300 C   0  0  0  0  0  0  0  0  0  0  0  0
   31.4050   30.7590   35.4020 C   0  0  0  0  0  0  0  0  0  0  0  0
   32.0220   30.4580   34.5430 H   0  0  0  0  0  0  0  0  0  0  0  0
   30.5440   31.8020   35.1320 C   0  0  0  0  0  0  0  0  0  0  0  0
   30.5040   32.2610   34.1550 H   0  0  0  0  0  0  0  0  0  0  0  0
   29.7090   32.2880   36.1110 C   0  0  0  0  0  3  0  0  0  0  0  0
   29.7580   31.7050   37.3570 C   0  0  0  0  0  3  0  0  0  0  0  0
   37.1050   27.8240   40.4000 N   0  0  0  0  0  0  0  0  0  0  0  0
   37.6610   28.6910   40.2560 H   0  0  0  0  0  0  0  0  0  0  0  0
   37.4160   26.5520   40.9010 C   0  0  0  0  0  0  0  0  0  0  0  0
   36.8060   25.4470   40.3600 C   0  0  0  0  0  0  0  0  0  0  0  0
   37.1160   24.1490   40.7510 C   0  0  0  0  0  0  0  0  0  0  0  0
   38.0660   23.9160   41.7150 C   0  0  0  0  0  0  0  0  0  0  0  0
   38.6890   25.0070   42.2720 C   0  0  0  0  0  0  0  0  0  0  0  0
   39.6460   24.7940   43.2440 C   0  0  0  0  0  0  0  0  0  0  0  0
   40.3080   25.8210   43.8520 C   0  0  0  0  0  0  0  0  0  0  0  0
   39.9700   27.1060   43.4420 C   0  0  0  0  0  0  0  0  0  0  0  0
   39.0170   27.3030   42.4760 C   0  0  0  0  0  0  0  0  0  0  0  0
   38.3600   26.2800   41.8660 C   0  0  0  0  0  0  0  0  0  0  0  0
   36.0500   25.5940   39.5950 H   0  0  0  0  0  0  0  0  0  0  0  0
   36.5780   23.3500   40.2640 H   0  0  0  0  0  0  0  0  0  0  0  0
   38.2800   22.8910   41.9910 H   0  0  0  0  0  0  0  0  0  0  0  0
   39.8770   23.7650   43.5320 H   0  0  0  0  0  0  0  0  0  0  0  0
   41.0630   25.6200   44.6180 H   0  0  0  0  0  0  0  0  0  0  0  0
   40.4750   27.9380   43.9060 H   0  0  0  0  0  0  0  0  0  0  0  0
   38.7120   28.5930   42.1110 O   0  0  0  0  0  0  0  0  0  0  0  0
   38.3310   29.3120   42.7060 H   0  0  0  0  0  0  0  0  0  0  0  0
  1  4  1  6  0  0  0
  1  2  1  0  0  0  0
  1  3  1  0  0  0  0
  2  3  1  0  0  0  0
  2  5  1  0  0  0  0
  2  6  1  0  0  0  0
  3  7  1  1  0  0  0
  3 25  1  0  0  0  0
  8 13  1  0  0  0  0
  9  8  2  0  0  0  0
  9 10  1  0  0  0  0
 10 11  2  0  0  0  0
 11 12  1  0  0  0  0
 12  1  1  0  0  0  0
 13 12  2  0  0  0  0
 14  8  1  0  0  0  0
 15  9  1  0  0  0  0
 17 16  1  0  0  0  0
 18 10  1  0  0  0  0
 18 17  2  0  0  0  0
 19 18  1  0  0  0  0
 20 19  1  0  0  0  0
 21 19  2  0  0  0  0
 21 23  1  0  0  0  0
 22 21  1  0  0  0  0
 23 24  2  0  0  0  0
 24 17  1  0  0  0  0
 25 27  1  0  0  0  0
 26 25  1  0  0  0  0
 27 36  1  0  0  0  0
 28 29  1  0  0  0  0
 28 27  2  0  0  0  0
 29 30  2  0  0  0  0
 30 39  1  0  0  0  0
 30 31  1  0  0  0  0
 31 32  1  0  0  0  0
 32 40  1  0  0  0  0
 32 33  2  0  0  0  0
 33 41  1  0  0  0  0
 34 33  1  0  0  0  0
 34 42  1  0  0  0  0
 35 34  2  0  0  0  0
 36 31  2  0  0  0  0
 36 35  1  0  0  0  0
 37 28  1  0  0  0  0
 38 29  1  0  0  0  0
 43 35  1  0  0  0  0
 43 44  1  0  0  0  0
M  END
>  <minimizedAffinity>
-6.78627586

$$$$
