
 OpenBabel03252509233D

 27 29  0  0  1  0  0  0  0  0999 V2000
   46.5330   35.0180   41.9570 C   0  0  1  0  0  0  0  0  0  0  0  0
   48.0550   35.3060   41.9500 C   0  0  0  0  0  0  0  0  0  0  0  0
   47.3670   34.0270   41.3800 C   0  0  2  0  0  0  0  0  0  0  0  0
   45.9430   35.7580   41.3990 H   0  0  0  0  0  0  0  0  0  0  0  0
   48.6340   35.1520   42.8560 H   0  0  0  0  0  0  0  0  0  0  0  0
   48.3520   36.0570   41.2160 H   0  0  0  0  0  0  0  0  0  0  0  0
   47.6090   33.0850   41.9340 H   0  0  0  0  0  0  0  0  0  0  0  0
   48.9040   35.4880   39.4070 F   0  0  0  0  0  0  0  0  0  0  0  0
   48.1120   34.5060   38.9460 C   0  0  0  0  0  0  0  0  0  0  0  0
   47.4000   33.8470   39.9260 C   0  0  0  0  0  0  0  0  0  0  0  0
   46.5680   32.8230   39.4540 C   0  0  0  0  0  0  0  0  0  0  0  0
   45.9520   32.2210   40.1050 H   0  0  0  0  0  0  0  0  0  0  0  0
   46.4490   32.4810   38.1240 C   0  0  0  0  0  0  0  0  0  0  0  0
   45.8190   31.7040   37.7650 H   0  0  0  0  0  0  0  0  0  0  0  0
   47.1810   33.1690   37.1840 C   0  0  0  0  0  3  0  0  0  0  0  0
   48.0070   34.1820   37.6250 C   0  0  0  0  0  3  0  0  0  0  0  0
   44.6420   35.4080   45.1820 C   0  0  0  0  0  0  0  0  0  0  0  0
   45.1060   35.6990   43.8520 C   0  0  0  0  0  0  0  0  0  0  0  0
   46.0470   34.8190   43.3870 C   0  0  0  0  0  0  0  0  0  0  0  0
   46.5110   33.7430   44.1360 N   0  0  0  0  0  0  0  0  0  0  0  0
   46.0360   33.5310   45.3670 C   0  0  0  0  0  0  0  0  0  0  0  0
   45.0980   34.3660   45.8920 N   0  0  0  0  0  0  0  0  0  0  0  0
   43.9050   36.0610   45.5970 H   0  0  0  0  0  0  0  0  0  0  0  0
   46.5000   32.6610   45.8010 H   0  0  0  0  0  0  0  0  0  0  0  0
   44.6410   36.8160   43.1060 N   0  0  0  0  0  0  0  0  0  0  0  0
   44.1090   36.6350   42.2230 H   0  0  0  0  0  0  0  0  0  0  0  0
   44.8660   37.7610   43.4980 H   0  0  0  0  0  0  0  0  0  0  0  0
  1  4  1  6  0  0  0
  1 19  1  0  0  0  0
  2  1  1  0  0  0  0
  2  5  1  0  0  0  0
  3  7  1  1  0  0  0
  3  2  1  0  0  0  0
  3  1  1  0  0  0  0
  6  2  1  0  0  0  0
  9  8  1  0  0  0  0
  9 10  1  0  0  0  0
 10  3  1  0  0  0  0
 11 10  2  0  0  0  0
 11 12  1  0  0  0  0
 13 11  1  0  0  0  0
 14 13  1  0  0  0  0
 15 16  1  0  0  0  0
 15 13  2  0  0  0  0
 16  9  2  0  0  0  0
 17 23  1  0  0  0  0
 17 22  1  0  0  0  0
 18 17  2  0  0  0  0
 19 18  1  0  0  0  0
 19 20  2  0  0  0  0
 20 21  1  0  0  0  0
 21 24  1  0  0  0  0
 21 22  2  0  0  0  0
 25 27  1  0  0  0  0
 25 18  1  0  0  0  0
 26 25  1  0  0  0  0
M  END
>  <minimizedAffinity>
-5.56733131

>  <minimizedRMSD>
0.101792954

$$$$
