
 OpenBabel03252506443D

 40 43  0  0  1  0  0  0  0  0999 V2000
   36.8670   29.5480   40.6420 N   0  0  1  0  0  0  0  0  0  0  0  0
   36.9820   30.9210   41.0580 C   0  0  0  0  0  0  0  0  0  0  0  0
   36.6650   31.9320   40.0160 C   0  0  0  0  0  0  0  0  0  0  0  0
   37.6470   31.8160   38.8740 C   0  0  0  0  0  0  0  0  0  0  0  0
   38.1130   30.4250   38.7100 C   0  0  0  0  0  0  0  0  0  0  0  0
   37.0940   29.4540   39.2130 C   0  0  2  0  0  0  0  0  0  0  0  0
   38.0380   31.1370   41.3980 H   0  0  0  0  0  0  0  0  0  0  0  0
   36.3590   31.1030   41.9780 H   0  0  0  0  0  0  0  0  0  0  0  0
   36.8940   32.9370   40.4860 H   0  0  0  0  0  0  0  0  0  0  0  0
   35.6140   31.9770   39.6970 H   0  0  0  0  0  0  0  0  0  0  0  0
   38.4480   32.5730   38.9030 H   0  0  0  0  0  0  0  0  0  0  0  0
   37.0530   32.0750   37.9490 H   0  0  0  0  0  0  0  0  0  0  0  0
   39.0070   30.2990   39.3890 H   0  0  0  0  0  0  0  0  0  0  0  0
   38.4670   30.1520   37.7110 H   0  0  0  0  0  0  0  0  0  0  0  0
   37.6540   28.4460   39.1400 H   0  0  0  0  0  0  0  0  0  0  0  0
   37.4070   29.1360   36.5120 F   0  0  0  0  0  0  0  0  0  0  0  0
   36.1350   29.0970   37.0310 C   0  0  0  0  0  0  0  0  0  0  0  0
   35.9010   29.2640   38.4020 C   0  0  0  0  0  0  0  0  0  0  0  0
   34.5690   29.1880   38.6990 C   0  0  0  0  0  0  0  0  0  0  0  0
   34.3430   29.2970   39.7470 H   0  0  0  0  0  0  0  0  0  0  0  0
   33.5460   28.9770   37.8040 C   0  0  0  0  0  0  0  0  0  0  0  0
   32.5330   28.9440   38.2090 H   0  0  0  0  0  0  0  0  0  0  0  0
   33.8310   28.8210   36.4790 C   0  0  0  0  0  3  0  0  0  0  0  0
   35.1520   28.8820   36.0880 C   0  0  0  0  0  3  0  0  0  0  0  0
   37.3450   27.7680   42.4450 C   0  0  1  0  0  0  0  0  0  0  0  0
   37.7230   29.0860   42.9070 C   0  0  0  0  0  0  0  0  0  0  0  0
   37.8130   28.8120   41.4390 C   0  0  2  0  0  0  0  0  0  0  0  0
   36.2900   27.4760   42.2450 H   0  0  0  0  0  0  0  0  0  0  0  0
   38.6570   29.1650   43.5120 H   0  0  0  0  0  0  0  0  0  0  0  0
   36.9180   29.7510   43.2920 H   0  0  0  0  0  0  0  0  0  0  0  0
   38.8210   28.6110   41.0260 H   0  0  0  0  0  0  0  0  0  0  0  0
   37.9490   25.3730   41.9590 C   0  0  0  0  0  0  0  0  0  0  0  0
   38.2130   26.5830   42.6600 C   0  0  0  0  0  0  0  0  0  0  0  0
   39.2870   26.6060   43.5310 C   0  0  0  0  0  0  0  0  0  0  0  0
   40.0220   25.4720   43.6640 N   0  0  0  0  0  0  0  0  0  0  0  0
   39.7630   24.3340   42.9960 C   0  0  0  0  0  0  0  0  0  0  0  0
   38.7130   24.2710   42.1270 N   0  0  0  0  0  0  0  0  0  0  0  0
   37.0980   25.3880   41.2820 H   0  0  0  0  0  0  0  0  0  0  0  0
   39.5180   27.5060   44.0820 H   0  0  0  0  0  0  0  0  0  0  0  0
   40.3740   23.4510   43.1290 H   0  0  0  0  0  0  0  0  0  0  0  0
  1  2  1  1  0  0  0
  1 27  1  0  0  0  0
  2  7  1  0  0  0  0
  2  8  1  0  0  0  0
  3  9  1  0  0  0  0
  3  2  1  0  0  0  0
  4 11  1  0  0  0  0
  4  3  1  0  0  0  0
  5  4  1  0  0  0  0
  5  6  1  0  0  0  0
  5 13  1  0  0  0  0
  6 15  1  6  0  0  0
  6  1  1  0  0  0  0
 10  3  1  0  0  0  0
 12  4  1  0  0  0  0
 14  5  1  0  0  0  0
 16 17  1  0  0  0  0
 17 18  1  0  0  0  0
 18 19  2  0  0  0  0
 18  6  1  0  0  0  0
 19 20  1  0  0  0  0
 21 22  1  0  0  0  0
 21 19  1  0  0  0  0
 23 21  2  0  0  0  0
 24 23  1  0  0  0  0
 24 17  2  0  0  0  0
 25 28  1  6  0  0  0
 25 33  1  0  0  0  0
 25 26  1  0  0  0  0
 26 30  1  0  0  0  0
 26 29  1  0  0  0  0
 27 31  1  6  0  0  0
 27 25  1  0  0  0  0
 27 26  1  0  0  0  0
 32 37  2  0  0  0  0
 32 33  1  0  0  0  0
 33 34  2  0  0  0  0
 34 35  1  0  0  0  0
 34 39  1  0  0  0  0
 36 40  1  0  0  0  0
 36 35  2  0  0  0  0
 37 36  1  0  0  0  0
 38 32  1  0  0  0  0
M  END
>  <minimizedAffinity>
-5.64512587

$$$$

 OpenBabel03252506443D

 40 43  0  0  1  0  0  0  0  0999 V2000
   39.1600   27.8920   41.3680 N   0  0  1  0  0  0  0  0  0  0  0  0
   39.5500   27.8980   42.7530 C   0  0  0  0  0  0  0  0  0  0  0  0
   38.6240   27.1990   43.6790 C   0  0  0  0  0  0  0  0  0  0  0  0
   37.2810   27.8900   43.6790 C   0  0  0  0  0  0  0  0  0  0  0  0
   36.9960   28.5040   42.3670 C   0  0  0  0  0  0  0  0  0  0  0  0
   37.7170   27.7870   41.2710 C   0  0  2  0  0  0  0  0  0  0  0  0
   39.6330   28.9610   43.1290 H   0  0  0  0  0  0  0  0  0  0  0  0
   40.5940   27.4900   42.8650 H   0  0  0  0  0  0  0  0  0  0  0  0
   39.0360   27.3810   44.7190 H   0  0  0  0  0  0  0  0  0  0  0  0
   38.5630   26.1080   43.5620 H   0  0  0  0  0  0  0  0  0  0  0  0
   37.1260   28.5550   44.5450 H   0  0  0  0  0  0  0  0  0  0  0  0
   36.5260   27.0630   43.8250 H   0  0  0  0  0  0  0  0  0  0  0  0
   37.4440   29.5420   42.3900 H   0  0  0  0  0  0  0  0  0  0  0  0
   35.9400   28.6490   42.1240 H   0  0  0  0  0  0  0  0  0  0  0  0
   37.5030   28.4570   40.3540 H   0  0  0  0  0  0  0  0  0  0  0  0
   36.5880   27.5150   38.7920 F   0  0  0  0  0  0  0  0  0  0  0  0
   36.6560   26.4080   39.6040 C   0  0  0  0  0  0  0  0  0  0  0  0
   37.2100   26.4790   40.8880 C   0  0  0  0  0  0  0  0  0  0  0  0
   37.1770   25.2660   41.5190 C   0  0  0  0  0  0  0  0  0  0  0  0
   37.6070   25.2690   42.5070 H   0  0  0  0  0  0  0  0  0  0  0  0
   36.6740   24.0940   41.0030 C   0  0  0  0  0  0  0  0  0  0  0  0
   36.7260   23.2110   41.6420 H   0  0  0  0  0  0  0  0  0  0  0  0
   36.1460   24.0830   39.7450 C   0  0  0  0  0  3  0  0  0  0  0  0
   36.1380   25.2640   39.0340 C   0  0  0  0  0  3  0  0  0  0  0  0
   38.8780   29.9550   39.8470 C   0  0  1  0  0  0  0  0  0  0  0  0
   39.8720   29.0510   39.3110 C   0  0  0  0  0  0  0  0  0  0  0  0
   39.7030   29.0980   40.7970 C   0  0  2  0  0  0  0  0  0  0  0  0
   37.7990   29.6940   39.9200 H   0  0  0  0  0  0  0  0  0  0  0  0
   40.7760   29.5070   38.8450 H   0  0  0  0  0  0  0  0  0  0  0  0
   39.5130   28.1620   38.7470 H   0  0  0  0  0  0  0  0  0  0  0  0
   40.4580   29.6690   41.3720 H   0  0  0  0  0  0  0  0  0  0  0  0
   40.1760   32.0000   39.1610 C   0  0  0  0  0  0  0  0  0  0  0  0
   39.0940   31.4240   39.8840 C   0  0  0  0  0  0  0  0  0  0  0  0
   38.2730   32.2710   40.6060 C   0  0  0  0  0  0  0  0  0  0  0  0
   38.5510   33.6000   40.5820 N   0  0  0  0  0  0  0  0  0  0  0  0
   39.5770   34.1330   39.8960 C   0  0  0  0  0  0  0  0  0  0  0  0
   40.4100   33.3320   39.1700 N   0  0  0  0  0  0  0  0  0  0  0  0
   40.8030   31.3080   38.6040 H   0  0  0  0  0  0  0  0  0  0  0  0
   37.4420   31.8690   41.1680 H   0  0  0  0  0  0  0  0  0  0  0  0
   39.7640   35.1980   39.9010 H   0  0  0  0  0  0  0  0  0  0  0  0
  1  2  1  1  0  0  0
  2  8  1  0  0  0  0
  2  7  1  0  0  0  0
  2  3  1  0  0  0  0
  3  9  1  0  0  0  0
  4  3  1  0  0  0  0
  4 12  1  0  0  0  0
  4 11  1  0  0  0  0
  5 13  1  0  0  0  0
  5  4  1  0  0  0  0
  6 15  1  6  0  0  0
  6  1  1  0  0  0  0
  6  5  1  0  0  0  0
 10  3  1  0  0  0  0
 14  5  1  0  0  0  0
 16 17  1  0  0  0  0
 17 18  1  0  0  0  0
 18  6  1  0  0  0  0
 18 19  2  0  0  0  0
 19 20  1  0  0  0  0
 21 19  1  0  0  0  0
 21 22  1  0  0  0  0
 23 21  2  0  0  0  0
 24 17  2  0  0  0  0
 24 23  1  0  0  0  0
 25 33  1  0  0  0  0
 25 28  1  6  0  0  0
 25 27  1  0  0  0  0
 26 25  1  0  0  0  0
 26 27  1  0  0  0  0
 27  1  1  0  0  0  0
 27 31  1  1  0  0  0
 29 26  1  0  0  0  0
 30 26  1  0  0  0  0
 32 37  2  0  0  0  0
 32 33  1  0  0  0  0
 33 34  2  0  0  0  0
 34 39  1  0  0  0  0
 35 34  1  0  0  0  0
 36 40  1  0  0  0  0
 36 35  2  0  0  0  0
 37 36  1  0  0  0  0
 38 32  1  0  0  0  0
M  END
>  <minimizedAffinity>
-5.60856247

$$$$

 OpenBabel03252506443D

 40 43  0  0  1  0  0  0  0  0999 V2000
   37.4830   30.0060   38.9540 N   0  0  1  0  0  0  0  0  0  0  0  0
   38.6390   30.7730   38.5730 C   0  0  0  0  0  0  0  0  0  0  0  0
   39.3920   31.3940   39.6930 C   0  0  0  0  0  0  0  0  0  0  0  0
   38.5140   32.3930   40.4080 C   0  0  0  0  0  0  0  0  0  0  0  0
   37.0930   31.9950   40.3490 C   0  0  0  0  0  0  0  0  0  0  0  0
   36.9560   30.5140   40.2070 C   0  0  2  0  0  0  0  0  0  0  0  0
   38.3350   31.6200   37.8880 H   0  0  0  0  0  0  0  0  0  0  0  0
   39.3300   30.1490   37.9390 H   0  0  0  0  0  0  0  0  0  0  0  0
   40.2000   32.0220   39.2080 H   0  0  0  0  0  0  0  0  0  0  0  0
   39.9110   30.6950   40.3650 H   0  0  0  0  0  0  0  0  0  0  0  0
   38.7140   33.4400   40.1240 H   0  0  0  0  0  0  0  0  0  0  0  0
   38.8260   32.3350   41.4920 H   0  0  0  0  0  0  0  0  0  0  0  0
   36.6740   32.4280   39.3930 H   0  0  0  0  0  0  0  0  0  0  0  0
   36.4530   32.3820   41.1470 H   0  0  0  0  0  0  0  0  0  0  0  0
   35.8200   30.3850   40.0420 H   0  0  0  0  0  0  0  0  0  0  0  0
   35.4080   28.3030   40.6620 F   0  0  0  0  0  0  0  0  0  0  0  0
   36.4220   28.5830   41.5460 C   0  0  0  0  0  0  0  0  0  0  0  0
   37.2450   29.7040   41.3800 C   0  0  0  0  0  0  0  0  0  0  0  0
   38.1840   29.7910   42.3690 C   0  0  0  0  0  0  0  0  0  0  0  0
   38.8510   30.6320   42.2740 H   0  0  0  0  0  0  0  0  0  0  0  0
   38.3450   28.9150   43.4180 C   0  0  0  0  0  0  0  0  0  0  0  0
   39.1490   29.1310   44.1240 H   0  0  0  0  0  0  0  0  0  0  0  0
   37.5140   27.8390   43.5310 C   0  0  0  0  0  3  0  0  0  0  0  0
   36.5350   27.6720   42.5750 C   0  0  0  0  0  3  0  0  0  0  0  0
   35.8830   28.8500   37.2960 C   0  0  1  0  0  0  0  0  0  0  0  0
   37.0300   29.4000   36.6080 C   0  0  0  0  0  0  0  0  0  0  0  0
   36.5650   30.0940   37.8490 C   0  0  2  0  0  0  0  0  0  0  0  0
   35.9570   28.0080   38.0190 H   0  0  0  0  0  0  0  0  0  0  0  0
   36.8500   29.8700   35.6130 H   0  0  0  0  0  0  0  0  0  0  0  0
   37.9770   28.8150   36.6300 H   0  0  0  0  0  0  0  0  0  0  0  0
   35.9750   31.0220   37.7150 H   0  0  0  0  0  0  0  0  0  0  0  0
   34.2990   29.1890   35.3690 C   0  0  0  0  0  0  0  0  0  0  0  0
   34.5040   29.0010   36.7650 C   0  0  0  0  0  0  0  0  0  0  0  0
   33.3920   28.9690   37.5850 C   0  0  0  0  0  0  0  0  0  0  0  0
   32.1710   29.1180   37.0080 N   0  0  0  0  0  0  0  0  0  0  0  0
   31.9890   29.2950   35.6870 C   0  0  0  0  0  0  0  0  0  0  0  0
   33.0610   29.3330   34.8440 N   0  0  0  0  0  0  0  0  0  0  0  0
   35.1940   29.2110   34.7520 H   0  0  0  0  0  0  0  0  0  0  0  0
   33.5080   28.8290   38.6500 H   0  0  0  0  0  0  0  0  0  0  0  0
   30.9990   29.4100   35.2660 H   0  0  0  0  0  0  0  0  0  0  0  0
  1  2  1  6  0  0  0
  1  6  1  0  0  0  0
  2  3  1  0  0  0  0
  3 10  1  0  0  0  0
  3  4  1  0  0  0  0
  4 12  1  0  0  0  0
  5  4  1  0  0  0  0
  5 14  1  0  0  0  0
  6 15  1  6  0  0  0
  6  5  1  0  0  0  0
  6 18  1  0  0  0  0
  7  2  1  0  0  0  0
  8  2  1  0  0  0  0
  9  3  1  0  0  0  0
 11  4  1  0  0  0  0
 13  5  1  0  0  0  0
 16 17  1  0  0  0  0
 17 24  1  0  0  0  0
 18 17  2  0  0  0  0
 18 19  1  0  0  0  0
 19 21  2  0  0  0  0
 20 19  1  0  0  0  0
 21 23  1  0  0  0  0
 21 22  1  0  0  0  0
 24 23  2  0  0  0  0
 25 27  1  0  0  0  0
 25 28  1  1  0  0  0
 26 30  1  0  0  0  0
 26 25  1  0  0  0  0
 26 27  1  0  0  0  0
 27 31  1  6  0  0  0
 27  1  1  0  0  0  0
 29 26  1  0  0  0  0
 32 33  1  0  0  0  0
 33 25  1  0  0  0  0
 33 34  2  0  0  0  0
 34 39  1  0  0  0  0
 35 34  1  0  0  0  0
 36 35  2  0  0  0  0
 37 32  2  0  0  0  0
 37 36  1  0  0  0  0
 38 32  1  0  0  0  0
 40 36  1  0  0  0  0
M  END
>  <minimizedAffinity>
-5.43998098

$$$$

 OpenBabel03252506443D

 40 43  0  0  1  0  0  0  0  0999 V2000
   38.1770   31.0160   40.0690 N   0  0  1  0  0  0  0  0  0  0  0  0
   37.1950   31.2840   39.0520 C   0  0  0  0  0  0  0  0  0  0  0  0
   36.2670   30.1630   38.7510 C   0  0  0  0  0  0  0  0  0  0  0  0
   37.0420   28.9890   38.2040 C   0  0  0  0  0  0  0  0  0  0  0  0
   38.4060   28.9410   38.7660 C   0  0  0  0  0  0  0  0  0  0  0  0
   38.4570   29.5930   40.1100 C   0  0  2  0  0  0  0  0  0  0  0  0
   37.7040   31.5440   38.0780 H   0  0  0  0  0  0  0  0  0  0  0  0
   36.6120   32.2130   39.3090 H   0  0  0  0  0  0  0  0  0  0  0  0
   35.6340   30.5160   37.8800 H   0  0  0  0  0  0  0  0  0  0  0  0
   35.5610   29.8980   39.5520 H   0  0  0  0  0  0  0  0  0  0  0  0
   36.9890   28.8970   37.1060 H   0  0  0  0  0  0  0  0  0  0  0  0
   36.4980   28.0750   38.5850 H   0  0  0  0  0  0  0  0  0  0  0  0
   39.0560   29.5810   38.0980 H   0  0  0  0  0  0  0  0  0  0  0  0
   38.8860   27.9580   38.7800 H   0  0  0  0  0  0  0  0  0  0  0  0
   39.5880   29.5930   40.3440 H   0  0  0  0  0  0  0  0  0  0  0  0
   39.2780   30.2170   42.6460 F   0  0  0  0  0  0  0  0  0  0  0  0
   38.3160   29.2470   42.4910 C   0  0  0  0  0  0  0  0  0  0  0  0
   37.8580   28.8710   41.2220 C   0  0  0  0  0  0  0  0  0  0  0  0
   36.9050   27.8940   41.2990 C   0  0  0  0  0  0  0  0  0  0  0  0
   36.5130   27.5820   40.3460 H   0  0  0  0  0  0  0  0  0  0  0  0
   36.4210   27.3190   42.4510 C   0  0  0  0  0  0  0  0  0  0  0  0
   35.6560   26.5490   42.3360 H   0  0  0  0  0  0  0  0  0  0  0  0
   36.9030   27.7250   43.6610 C   0  0  0  0  0  3  0  0  0  0  0  0
   37.8690   28.7080   43.6790 C   0  0  0  0  0  3  0  0  0  0  0  0
   39.9190   32.7830   40.7700 C   0  0  1  0  0  0  0  0  0  0  0  0
   39.0410   33.3020   39.7450 C   0  0  0  0  0  0  0  0  0  0  0  0
   39.3180   31.8320   39.7430 C   0  0  2  0  0  0  0  0  0  0  0  0
   39.5690   32.5260   41.7950 H   0  0  0  0  0  0  0  0  0  0  0  0
   39.4990   33.9500   38.9620 H   0  0  0  0  0  0  0  0  0  0  0  0
   38.0390   33.6700   40.0590 H   0  0  0  0  0  0  0  0  0  0  0  0
   40.0490   31.4590   39.0000 H   0  0  0  0  0  0  0  0  0  0  0  0
   41.9400   33.9340   39.8050 C   0  0  0  0  0  0  0  0  0  0  0  0
   41.3870   33.0000   40.7280 C   0  0  0  0  0  0  0  0  0  0  0  0
   42.2570   32.3210   41.5600 C   0  0  0  0  0  0  0  0  0  0  0  0
   43.5840   32.5850   41.4460 N   0  0  0  0  0  0  0  0  0  0  0  0
   44.0950   33.4690   40.5710 C   0  0  0  0  0  0  0  0  0  0  0  0
   43.2700   34.1610   39.7320 N   0  0  0  0  0  0  0  0  0  0  0  0
   41.2290   34.4520   39.1650 H   0  0  0  0  0  0  0  0  0  0  0  0
   41.8750   31.6030   42.2720 H   0  0  0  0  0  0  0  0  0  0  0  0
   45.1590   33.6520   40.5120 H   0  0  0  0  0  0  0  0  0  0  0  0
  1  2  1  6  0  0  0
  1  6  1  0  0  0  0
  2  8  1  0  0  0  0
  3  2  1  0  0  0  0
  3 10  1  0  0  0  0
  4 12  1  0  0  0  0
  4  3  1  0  0  0  0
  4  5  1  0  0  0  0
  5 14  1  0  0  0  0
  5  6  1  0  0  0  0
  6 15  1  1  0  0  0
  6 18  1  0  0  0  0
  7  2  1  0  0  0  0
  9  3  1  0  0  0  0
 11  4  1  0  0  0  0
 13  5  1  0  0  0  0
 17 16  1  0  0  0  0
 17 24  1  0  0  0  0
 18 19  1  0  0  0  0
 18 17  2  0  0  0  0
 19 21  2  0  0  0  0
 20 19  1  0  0  0  0
 21 23  1  0  0  0  0
 22 21  1  0  0  0  0
 23 24  2  0  0  0  0
 25 28  1  1  0  0  0
 26 30  1  0  0  0  0
 26 25  1  0  0  0  0
 27 31  1  6  0  0  0
 27 26  1  0  0  0  0
 27  1  1  0  0  0  0
 27 25  1  0  0  0  0
 29 26  1  0  0  0  0
 32 33  1  0  0  0  0
 33 25  1  0  0  0  0
 33 34  2  0  0  0  0
 34 39  1  0  0  0  0
 35 34  1  0  0  0  0
 36 35  2  0  0  0  0
 37 32  2  0  0  0  0
 37 36  1  0  0  0  0
 38 32  1  0  0  0  0
 40 36  1  0  0  0  0
M  END
>  <minimizedAffinity>
-5.22427845

$$$$

 OpenBabel03252506443D

 40 43  0  0  1  0  0  0  0  0999 V2000
   37.3940   29.9780   40.5230 N   0  0  1  0  0  0  0  0  0  0  0  0
   36.0200   30.3910   40.4130 C   0  0  0  0  0  0  0  0  0  0  0  0
   35.0380   29.2940   40.2120 C   0  0  0  0  0  0  0  0  0  0  0  0
   35.3120   28.5960   38.9010 C   0  0  0  0  0  0  0  0  0  0  0  0
   36.7500   28.6300   38.5680 C   0  0  0  0  0  0  0  0  0  0  0  0
   37.5850   28.7340   39.8030 C   0  0  2  0  0  0  0  0  0  0  0  0
   35.8940   31.0940   39.5370 H   0  0  0  0  0  0  0  0  0  0  0  0
   35.7280   31.0160   41.3030 H   0  0  0  0  0  0  0  0  0  0  0  0
   34.0380   29.8040   40.0580 H   0  0  0  0  0  0  0  0  0  0  0  0
   34.9040   28.6110   41.0620 H   0  0  0  0  0  0  0  0  0  0  0  0
   34.6400   28.9080   38.0850 H   0  0  0  0  0  0  0  0  0  0  0  0
   35.0430   27.5140   39.0840 H   0  0  0  0  0  0  0  0  0  0  0  0
   36.9300   29.5930   38.0030 H   0  0  0  0  0  0  0  0  0  0  0  0
   37.1090   27.8350   37.9070 H   0  0  0  0  0  0  0  0  0  0  0  0
   38.6470   28.8840   39.3730 H   0  0  0  0  0  0  0  0  0  0  0  0
   39.6620   28.5880   41.5800 F   0  0  0  0  0  0  0  0  0  0  0  0
   38.7750   27.5390   41.5260 C   0  0  0  0  0  0  0  0  0  0  0  0
   37.6960   27.5430   40.6320 C   0  0  0  0  0  0  0  0  0  0  0  0
   36.9440   26.4080   40.7450 C   0  0  0  0  0  0  0  0  0  0  0  0
   36.0930   26.3730   40.0850 H   0  0  0  0  0  0  0  0  0  0  0  0
   37.1720   25.3630   41.6110 C   0  0  0  0  0  0  0  0  0  0  0  0
   36.4700   24.5280   41.5730 H   0  0  0  0  0  0  0  0  0  0  0  0
   38.2380   25.4130   42.4610 C   0  0  0  0  0  3  0  0  0  0  0  0
   39.0540   26.5230   42.4150 C   0  0  0  0  0  3  0  0  0  0  0  0
   38.8770   32.0380   40.9760 C   0  0  1  0  0  0  0  0  0  0  0  0
   37.6290   32.4270   40.3560 C   0  0  0  0  0  0  0  0  0  0  0  0
   38.1800   31.0760   40.0230 C   0  0  2  0  0  0  0  0  0  0  0  0
   38.9360   31.6040   41.9980 H   0  0  0  0  0  0  0  0  0  0  0  0
   37.6700   33.2410   39.5960 H   0  0  0  0  0  0  0  0  0  0  0  0
   36.7300   32.5060   41.0070 H   0  0  0  0  0  0  0  0  0  0  0  0
   38.6910   30.9680   39.0460 H   0  0  0  0  0  0  0  0  0  0  0  0
   40.2110   33.6150   39.5360 C   0  0  0  0  0  0  0  0  0  0  0  0
   40.1780   32.6100   40.5440 C   0  0  0  0  0  0  0  0  0  0  0  0
   41.3800   32.1990   41.0890 C   0  0  0  0  0  0  0  0  0  0  0  0
   42.5190   32.7790   40.6280 N   0  0  0  0  0  0  0  0  0  0  0  0
   42.5380   33.7270   39.6750 C   0  0  0  0  0  0  0  0  0  0  0  0
   41.3730   34.1610   39.1120 N   0  0  0  0  0  0  0  0  0  0  0  0
   39.2490   33.9160   39.1280 H   0  0  0  0  0  0  0  0  0  0  0  0
   41.3950   31.4380   41.8560 H   0  0  0  0  0  0  0  0  0  0  0  0
   43.4670   34.1650   39.3360 H   0  0  0  0  0  0  0  0  0  0  0  0
  1  2  1  6  0  0  0
  2  8  1  0  0  0  0
  3  2  1  0  0  0  0
  3 10  1  0  0  0  0
  4 12  1  0  0  0  0
  4  3  1  0  0  0  0
  5  4  1  0  0  0  0
  5  6  1  0  0  0  0
  6 15  1  6  0  0  0
  6  1  1  0  0  0  0
  6 18  1  0  0  0  0
  7  2  1  0  0  0  0
  9  3  1  0  0  0  0
 11  4  1  0  0  0  0
 13  5  1  0  0  0  0
 14  5  1  0  0  0  0
 17 16  1  0  0  0  0
 17 24  1  0  0  0  0
 18 19  1  0  0  0  0
 18 17  2  0  0  0  0
 19 21  2  0  0  0  0
 20 19  1  0  0  0  0
 21 23  1  0  0  0  0
 22 21  1  0  0  0  0
 24 23  2  0  0  0  0
 25 28  1  1  0  0  0
 26 25  1  0  0  0  0
 26 30  1  0  0  0  0
 27 31  1  6  0  0  0
 27 26  1  0  0  0  0
 27  1  1  0  0  0  0
 27 25  1  0  0  0  0
 29 26  1  0  0  0  0
 32 33  1  0  0  0  0
 33 25  1  0  0  0  0
 33 34  2  0  0  0  0
 34 39  1  0  0  0  0
 35 34  1  0  0  0  0
 36 35  2  0  0  0  0
 37 32  2  0  0  0  0
 37 36  1  0  0  0  0
 38 32  1  0  0  0  0
 40 36  1  0  0  0  0
M  END
>  <minimizedAffinity>
-5.14910316

$$$$

 OpenBabel03252506443D

 40 43  0  0  1  0  0  0  0  0999 V2000
   37.1950   29.9700   40.4790 N   0  0  1  0  0  0  0  0  0  0  0  0
   35.8240   30.3710   40.3060 C   0  0  0  0  0  0  0  0  0  0  0  0
   34.8570   29.2630   40.0940 C   0  0  0  0  0  0  0  0  0  0  0  0
   35.1850   28.5360   38.8120 C   0  0  0  0  0  0  0  0  0  0  0  0
   36.6340   28.5710   38.5330 C   0  0  0  0  0  0  0  0  0  0  0  0
   37.4210   28.7100   39.7970 C   0  0  2  0  0  0  0  0  0  0  0  0
   35.7280   31.0520   39.4090 H   0  0  0  0  0  0  0  0  0  0  0  0
   35.4940   31.0140   41.1700 H   0  0  0  0  0  0  0  0  0  0  0  0
   33.8610   29.7620   39.8900 H   0  0  0  0  0  0  0  0  0  0  0  0
   34.6940   28.5990   40.9550 H   0  0  0  0  0  0  0  0  0  0  0  0
   34.5420   28.8240   37.9630 H   0  0  0  0  0  0  0  0  0  0  0  0
   34.9160   27.4570   39.0100 H   0  0  0  0  0  0  0  0  0  0  0  0
   36.8300   29.5210   37.9530 H   0  0  0  0  0  0  0  0  0  0  0  0
   37.0230   27.7640   37.9060 H   0  0  0  0  0  0  0  0  0  0  0  0
   38.4980   28.8570   39.4040 H   0  0  0  0  0  0  0  0  0  0  0  0
   38.9430   26.5970   38.9530 F   0  0  0  0  0  0  0  0  0  0  0  0
   38.3100   26.5010   40.1700 C   0  0  0  0  0  0  0  0  0  0  0  0
   37.5070   27.5400   40.6570 C   0  0  0  0  0  0  0  0  0  0  0  0
   36.9780   27.2360   41.8800 C   0  0  0  0  0  0  0  0  0  0  0  0
   36.3630   28.0140   42.3020 H   0  0  0  0  0  0  0  0  0  0  0  0
   37.1760   26.0730   42.5870 C   0  0  0  0  0  0  0  0  0  0  0  0
   36.6780   25.9910   43.5540 H   0  0  0  0  0  0  0  0  0  0  0  0
   37.9690   25.0940   42.0640 C   0  0  0  0  0  3  0  0  0  0  0  0
   38.5460   25.3150   40.8310 C   0  0  0  0  0  3  0  0  0  0  0  0
   38.6260   32.0650   40.9370 C   0  0  1  0  0  0  0  0  0  0  0  0
   37.4080   32.4140   40.2380 C   0  0  0  0  0  0  0  0  0  0  0  0
   37.9930   31.0610   39.9830 C   0  0  2  0  0  0  0  0  0  0  0  0
   38.6340   31.6680   41.9760 H   0  0  0  0  0  0  0  0  0  0  0  0
   37.4800   33.2020   39.4530 H   0  0  0  0  0  0  0  0  0  0  0  0
   36.4740   32.5030   40.8370 H   0  0  0  0  0  0  0  0  0  0  0  0
   38.5570   30.9260   39.0390 H   0  0  0  0  0  0  0  0  0  0  0  0
   41.1370   32.1000   41.1050 C   0  0  0  0  0  0  0  0  0  0  0  0
   39.9400   32.6410   40.5560 C   0  0  0  0  0  0  0  0  0  0  0  0
   40.0530   33.7000   39.6750 C   0  0  0  0  0  0  0  0  0  0  0  0
   41.2980   34.1600   39.3890 N   0  0  0  0  0  0  0  0  0  0  0  0
   42.4220   33.6430   39.9140 C   0  0  0  0  0  0  0  0  0  0  0  0
   42.3540   32.5960   40.7870 N   0  0  0  0  0  0  0  0  0  0  0  0
   41.0150   31.2680   41.7950 H   0  0  0  0  0  0  0  0  0  0  0  0
   39.1660   34.1370   39.2380 H   0  0  0  0  0  0  0  0  0  0  0  0
   43.3960   34.0370   39.6590 H   0  0  0  0  0  0  0  0  0  0  0  0
  1  2  1  6  0  0  0
  2  8  1  0  0  0  0
  3  2  1  0  0  0  0
  3 10  1  0  0  0  0
  4 12  1  0  0  0  0
  4  3  1  0  0  0  0
  5  4  1  0  0  0  0
  5  6  1  0  0  0  0
  6 15  1  6  0  0  0
  6  1  1  0  0  0  0
  6 18  1  0  0  0  0
  7  2  1  0  0  0  0
  9  3  1  0  0  0  0
 11  4  1  0  0  0  0
 13  5  1  0  0  0  0
 14  5  1  0  0  0  0
 16 17  1  0  0  0  0
 17 18  2  0  0  0  0
 17 24  1  0  0  0  0
 18 19  1  0  0  0  0
 19 20  1  0  0  0  0
 19 21  2  0  0  0  0
 21 22  1  0  0  0  0
 23 21  1  0  0  0  0
 24 23  2  0  0  0  0
 25 28  1  1  0  0  0
 26 30  1  0  0  0  0
 26 25  1  0  0  0  0
 27 31  1  6  0  0  0
 27 26  1  0  0  0  0
 27  1  1  0  0  0  0
 27 25  1  0  0  0  0
 29 26  1  0  0  0  0
 32 38  1  0  0  0  0
 33 25  1  0  0  0  0
 33 32  2  0  0  0  0
 34 33  1  0  0  0  0
 35 34  2  0  0  0  0
 35 36  1  0  0  0  0
 36 37  2  0  0  0  0
 37 32  1  0  0  0  0
 39 34  1  0  0  0  0
 40 36  1  0  0  0  0
M  END
>  <minimizedAffinity>
-5.13029432

$$$$

 OpenBabel03252506443D

 40 43  0  0  1  0  0  0  0  0999 V2000
   39.2550   28.7040   41.7840 N   0  0  1  0  0  0  0  0  0  0  0  0
   39.5260   27.5620   42.6170 C   0  0  0  0  0  0  0  0  0  0  0  0
   38.3580   26.6910   42.9040 C   0  0  0  0  0  0  0  0  0  0  0  0
   37.3190   27.4660   43.6800 C   0  0  0  0  0  0  0  0  0  0  0  0
   37.3460   28.8990   43.3240 C   0  0  0  0  0  0  0  0  0  0  0  0
   37.8680   29.0980   41.9370 C   0  0  2  0  0  0  0  0  0  0  0  0
   39.9250   27.8980   43.6200 H   0  0  0  0  0  0  0  0  0  0  0  0
   40.3670   26.9530   42.1820 H   0  0  0  0  0  0  0  0  0  0  0  0
   38.7310   25.9090   43.6340 H   0  0  0  0  0  0  0  0  0  0  0  0
   37.9520   26.1360   42.0460 H   0  0  0  0  0  0  0  0  0  0  0  0
   37.3290   27.2570   44.7620 H   0  0  0  0  0  0  0  0  0  0  0  0
   36.3260   27.0590   43.3270 H   0  0  0  0  0  0  0  0  0  0  0  0
   38.1050   29.3880   44.0030 H   0  0  0  0  0  0  0  0  0  0  0  0
   36.4150   29.4510   43.4840 H   0  0  0  0  0  0  0  0  0  0  0  0
   37.9510   30.2480   41.8670 H   0  0  0  0  0  0  0  0  0  0  0  0
   35.8240   30.8020   41.2960 F   0  0  0  0  0  0  0  0  0  0  0  0
   35.9720   29.6530   40.5560 C   0  0  0  0  0  0  0  0  0  0  0  0
   36.9890   28.7310   40.8380 C   0  0  0  0  0  0  0  0  0  0  0  0
   36.9540   27.6650   39.9830 C   0  0  0  0  0  0  0  0  0  0  0  0
   37.7280   26.9360   40.1520 H   0  0  0  0  0  0  0  0  0  0  0  0
   36.0550   27.4720   38.9590 C   0  0  0  0  0  0  0  0  0  0  0  0
   36.1670   26.5620   38.3680 H   0  0  0  0  0  0  0  0  0  0  0  0
   35.0840   28.4030   38.7300 C   0  0  0  0  0  3  0  0  0  0  0  0
   35.0440   29.5140   39.5460 C   0  0  0  0  0  3  0  0  0  0  0  0
   41.3380   30.1260   41.2490 C   0  0  1  0  0  0  0  0  0  0  0  0
   41.6030   29.2140   42.3400 C   0  0  0  0  0  0  0  0  0  0  0  0
   40.2020   29.7150   42.1760 C   0  0  2  0  0  0  0  0  0  0  0  0
   41.1390   29.7850   40.2090 H   0  0  0  0  0  0  0  0  0  0  0  0
   42.2290   29.5930   43.1810 H   0  0  0  0  0  0  0  0  0  0  0  0
   41.8390   28.1570   42.0850 H   0  0  0  0  0  0  0  0  0  0  0  0
   39.8730   30.5200   42.8620 H   0  0  0  0  0  0  0  0  0  0  0  0
   42.8650   31.9250   42.1260 C   0  0  0  0  0  0  0  0  0  0  0  0
   41.7790   31.5440   41.2890 C   0  0  0  0  0  0  0  0  0  0  0  0
   41.1660   32.5270   40.5350 C   0  0  0  0  0  0  0  0  0  0  0  0
   41.6370   33.7960   40.6400 N   0  0  0  0  0  0  0  0  0  0  0  0
   42.6640   34.1460   41.4340 C   0  0  0  0  0  0  0  0  0  0  0  0
   43.2970   33.2050   42.1940 N   0  0  0  0  0  0  0  0  0  0  0  0
   43.3260   31.1290   42.7060 H   0  0  0  0  0  0  0  0  0  0  0  0
   40.3370   32.2750   39.8890 H   0  0  0  0  0  0  0  0  0  0  0  0
   43.0110   35.1680   41.4890 H   0  0  0  0  0  0  0  0  0  0  0  0
  1  6  1  0  0  0  0
  1 27  1  0  0  0  0
  1  2  1  1  0  0  0
  2  3  1  0  0  0  0
  2  7  1  0  0  0  0
  3  9  1  0  0  0  0
  3  4  1  0  0  0  0
  4 11  1  0  0  0  0
  5 14  1  0  0  0  0
  5  4  1  0  0  0  0
  5 13  1  0  0  0  0
  6 15  1  6  0  0  0
  6  5  1  0  0  0  0
  8  2  1  0  0  0  0
 10  3  1  0  0  0  0
 12  4  1  0  0  0  0
 17 18  1  0  0  0  0
 17 16  1  0  0  0  0
 18  6  1  0  0  0  0
 19 20  1  0  0  0  0
 19 18  2  0  0  0  0
 21 19  1  0  0  0  0
 22 21  1  0  0  0  0
 23 21  2  0  0  0  0
 23 24  1  0  0  0  0
 24 17  2  0  0  0  0
 25 28  1  6  0  0  0
 25 33  1  0  0  0  0
 25 27  1  0  0  0  0
 25 26  1  0  0  0  0
 26 29  1  0  0  0  0
 27 26  1  0  0  0  0
 27 31  1  1  0  0  0
 30 26  1  0  0  0  0
 32 37  1  0  0  0  0
 32 38  1  0  0  0  0
 33 32  2  0  0  0  0
 34 35  2  0  0  0  0
 34 33  1  0  0  0  0
 35 36  1  0  0  0  0
 36 40  1  0  0  0  0
 36 37  2  0  0  0  0
 39 34  1  0  0  0  0
M  END
>  <minimizedAffinity>
-5.12545729

$$$$

 OpenBabel03252506443D

 40 43  0  0  1  0  0  0  0  0999 V2000
   39.3610   29.4700   41.9640 N   0  0  1  0  0  0  0  0  0  0  0  0
   40.5700   29.5900   42.7350 C   0  0  0  0  0  0  0  0  0  0  0  0
   41.4740   30.7000   42.3360 C   0  0  0  0  0  0  0  0  0  0  0  0
   41.9660   30.4770   40.9250 C   0  0  0  0  0  0  0  0  0  0  0  0
   40.9610   29.7590   40.1160 C   0  0  0  0  0  0  0  0  0  0  0  0
   39.5800   30.0050   40.6330 C   0  0  2  0  0  0  0  0  0  0  0  0
   41.1780   28.6410   42.6550 H   0  0  0  0  0  0  0  0  0  0  0  0
   40.3270   29.6630   43.8320 H   0  0  0  0  0  0  0  0  0  0  0  0
   42.4000   30.5860   42.9790 H   0  0  0  0  0  0  0  0  0  0  0  0
   41.0970   31.7150   42.5210 H   0  0  0  0  0  0  0  0  0  0  0  0
   42.9860   30.0610   40.8730 H   0  0  0  0  0  0  0  0  0  0  0  0
   42.0650   31.5120   40.4830 H   0  0  0  0  0  0  0  0  0  0  0  0
   41.1470   28.6550   40.2720 H   0  0  0  0  0  0  0  0  0  0  0  0
   41.0170   29.9120   39.0350 H   0  0  0  0  0  0  0  0  0  0  0  0
   38.9440   29.2840   39.9930 H   0  0  0  0  0  0  0  0  0  0  0  0
   37.3160   30.1450   39.1010 F   0  0  0  0  0  0  0  0  0  0  0  0
   37.8390   31.3130   39.6020 C   0  0  0  0  0  0  0  0  0  0  0  0
   39.0010   31.3160   40.3840 C   0  0  0  0  0  0  0  0  0  0  0  0
   39.3420   32.5800   40.7750 C   0  0  0  0  0  0  0  0  0  0  0  0
   40.2240   32.6300   41.3920 H   0  0  0  0  0  0  0  0  0  0  0  0
   38.6650   33.7380   40.4680 C   0  0  0  0  0  0  0  0  0  0  0  0
   39.0740   34.6690   40.8640 H   0  0  0  0  0  0  0  0  0  0  0  0
   37.5370   33.6770   39.7030 C   0  0  0  0  0  3  0  0  0  0  0  0
   37.1180   32.4390   39.2630 C   0  0  0  0  0  3  0  0  0  0  0  0
   37.5640   27.6320   42.1530 C   0  0  1  0  0  0  0  0  0  0  0  0
   38.4520   27.6050   43.2940 C   0  0  0  0  0  0  0  0  0  0  0  0
   39.0120   28.0740   41.9880 C   0  0  2  0  0  0  0  0  0  0  0  0
   36.8700   28.4770   41.9450 H   0  0  0  0  0  0  0  0  0  0  0  0
   38.7410   26.6040   43.6900 H   0  0  0  0  0  0  0  0  0  0  0  0
   38.2710   28.3410   44.1090 H   0  0  0  0  0  0  0  0  0  0  0  0
   39.6350   27.3560   41.4210 H   0  0  0  0  0  0  0  0  0  0  0  0
   36.7380   26.4410   40.0940 C   0  0  0  0  0  0  0  0  0  0  0  0
   37.1410   26.3890   41.4580 C   0  0  0  0  0  0  0  0  0  0  0  0
   37.1220   25.1620   42.0930 C   0  0  0  0  0  0  0  0  0  0  0  0
   36.7180   24.0810   41.3770 N   0  0  0  0  0  0  0  0  0  0  0  0
   36.3380   24.1420   40.0880 C   0  0  0  0  0  0  0  0  0  0  0  0
   36.3440   25.3340   39.4250 N   0  0  0  0  0  0  0  0  0  0  0  0
   36.7640   27.4220   39.6240 H   0  0  0  0  0  0  0  0  0  0  0  0
   37.4210   25.0830   43.1290 H   0  0  0  0  0  0  0  0  0  0  0  0
   36.0240   23.2570   39.5520 H   0  0  0  0  0  0  0  0  0  0  0  0
  1 27  1  0  0  0  0
  1  2  1  1  0  0  0
  2  8  1  0  0  0  0
  3 10  1  0  0  0  0
  3  2  1  0  0  0  0
  3  9  1  0  0  0  0
  4  3  1  0  0  0  0
  5 13  1  0  0  0  0
  5  6  1  0  0  0  0
  5  4  1  0  0  0  0
  6 15  1  6  0  0  0
  6  1  1  0  0  0  0
  7  2  1  0  0  0  0
 11  4  1  0  0  0  0
 12  4  1  0  0  0  0
 14  5  1  0  0  0  0
 16 17  1  0  0  0  0
 17 18  1  0  0  0  0
 18  6  1  0  0  0  0
 18 19  2  0  0  0  0
 19 20  1  0  0  0  0
 21 19  1  0  0  0  0
 21 22  1  0  0  0  0
 23 21  2  0  0  0  0
 24 17  2  0  0  0  0
 24 23  1  0  0  0  0
 25 28  1  1  0  0  0
 25 26  1  0  0  0  0
 26 29  1  0  0  0  0
 26 30  1  0  0  0  0
 27 31  1  6  0  0  0
 27 25  1  0  0  0  0
 27 26  1  0  0  0  0
 32 33  1  0  0  0  0
 33 34  2  0  0  0  0
 33 25  1  0  0  0  0
 34 39  1  0  0  0  0
 35 34  1  0  0  0  0
 36 35  2  0  0  0  0
 37 36  1  0  0  0  0
 37 32  2  0  0  0  0
 38 32  1  0  0  0  0
 40 36  1  0  0  0  0
M  END
>  <minimizedAffinity>
-5.11898899

$$$$

 OpenBabel03252506443D

 40 43  0  0  1  0  0  0  0  0999 V2000
   36.1310   29.6050   37.1330 N   0  0  1  0  0  0  0  0  0  0  0  0
   37.0750   29.5090   36.0510 C   0  0  0  0  0  0  0  0  0  0  0  0
   36.5510   28.9040   34.8000 C   0  0  0  0  0  0  0  0  0  0  0  0
   36.1470   27.4720   35.0540 C   0  0  0  0  0  0  0  0  0  0  0  0
   35.6800   27.2870   36.4420 C   0  0  0  0  0  0  0  0  0  0  0  0
   35.1330   28.5610   36.9990 C   0  0  2  0  0  0  0  0  0  0  0  0
   37.9600   28.8790   36.3620 H   0  0  0  0  0  0  0  0  0  0  0  0
   37.5250   30.5190   35.8360 H   0  0  0  0  0  0  0  0  0  0  0  0
   37.4410   28.8280   34.1020 H   0  0  0  0  0  0  0  0  0  0  0  0
   35.7940   29.4930   34.2640 H   0  0  0  0  0  0  0  0  0  0  0  0
   36.8930   26.7340   34.7130 H   0  0  0  0  0  0  0  0  0  0  0  0
   35.2560   27.2950   34.3820 H   0  0  0  0  0  0  0  0  0  0  0  0
   36.5950   27.0570   37.0650 H   0  0  0  0  0  0  0  0  0  0  0  0
   34.9970   26.4500   36.6120 H   0  0  0  0  0  0  0  0  0  0  0  0
   34.9430   28.2880   38.1060 H   0  0  0  0  0  0  0  0  0  0  0  0
   33.1620   29.0640   38.8310 F   0  0  0  0  0  0  0  0  0  0  0  0
   32.8770   29.2470   37.4990 C   0  0  0  0  0  0  0  0  0  0  0  0
   33.8350   28.9970   36.5080 C   0  0  0  0  0  0  0  0  0  0  0  0
   33.3420   29.2440   35.2570 C   0  0  0  0  0  0  0  0  0  0  0  0
   34.0500   29.0800   34.4620 H   0  0  0  0  0  0  0  0  0  0  0  0
   32.0730   29.6830   34.9540 C   0  0  0  0  0  0  0  0  0  0  0  0
   31.8410   29.8310   33.8980 H   0  0  0  0  0  0  0  0  0  0  0  0
   31.1800   29.9100   35.9600 C   0  0  0  0  0  3  0  0  0  0  0  0
   31.5930   29.6870   37.2570 C   0  0  0  0  0  3  0  0  0  0  0  0
   36.4250   30.1960   39.6250 C   0  0  1  0  0  0  0  0  0  0  0  0
   37.4350   30.8450   38.8190 C   0  0  0  0  0  0  0  0  0  0  0  0
   36.9060   29.5280   38.3440 C   0  0  2  0  0  0  0  0  0  0  0  0
   35.3420   30.4450   39.5560 H   0  0  0  0  0  0  0  0  0  0  0  0
   38.4640   30.9050   39.2420 H   0  0  0  0  0  0  0  0  0  0  0  0
   37.1490   31.7760   38.2800 H   0  0  0  0  0  0  0  0  0  0  0  0
   37.5420   28.6390   38.5170 H   0  0  0  0  0  0  0  0  0  0  0  0
   37.8020   30.0510   41.7270 C   0  0  0  0  0  0  0  0  0  0  0  0
   36.7560   29.5330   40.9120 C   0  0  0  0  0  0  0  0  0  0  0  0
   36.0810   28.4130   41.3590 C   0  0  0  0  0  0  0  0  0  0  0  0
   36.4570   27.8750   42.5480 N   0  0  0  0  0  0  0  0  0  0  0  0
   37.4470   28.3720   43.3090 C   0  0  0  0  0  0  0  0  0  0  0  0
   38.1380   29.4770   42.9040 N   0  0  0  0  0  0  0  0  0  0  0  0
   38.3140   30.9320   41.3470 H   0  0  0  0  0  0  0  0  0  0  0  0
   35.2810   27.9910   40.7660 H   0  0  0  0  0  0  0  0  0  0  0  0
   37.7160   27.9140   44.2520 H   0  0  0  0  0  0  0  0  0  0  0  0
  1  2  1  6  0  0  0
  1 27  1  0  0  0  0
  2  7  1  0  0  0  0
  3  4  1  0  0  0  0
  3  2  1  0  0  0  0
  4  5  1  0  0  0  0
  5 14  1  0  0  0  0
  5  6  1  0  0  0  0
  5 13  1  0  0  0  0
  6  1  1  0  0  0  0
  6 15  1  1  0  0  0
  8  2  1  0  0  0  0
  9  3  1  0  0  0  0
 10  3  1  0  0  0  0
 11  4  1  0  0  0  0
 12  4  1  0  0  0  0
 17 16  1  0  0  0  0
 18  6  1  0  0  0  0
 18 17  2  0  0  0  0
 19 18  1  0  0  0  0
 20 19  1  0  0  0  0
 21 19  2  0  0  0  0
 21 23  1  0  0  0  0
 22 21  1  0  0  0  0
 23 24  2  0  0  0  0
 24 17  1  0  0  0  0
 25 28  1  6  0  0  0
 25 33  1  0  0  0  0
 26 29  1  0  0  0  0
 26 25  1  0  0  0  0
 27 31  1  1  0  0  0
 27 26  1  0  0  0  0
 27 25  1  0  0  0  0
 30 26  1  0  0  0  0
 32 37  1  0  0  0  0
 33 34  1  0  0  0  0
 33 32  2  0  0  0  0
 34 35  2  0  0  0  0
 35 36  1  0  0  0  0
 36 40  1  0  0  0  0
 37 36  2  0  0  0  0
 38 32  1  0  0  0  0
 39 34  1  0  0  0  0
M  END
>  <minimizedAffinity>
-5.07175303

$$$$
