
 OpenBabel03252500203D

 20 21  0  0  0  0  0  0  0  0999 V2000
   37.5680   30.5470   38.0710 C   0  0  0  0  0  0  0  0  0  0  0  0
   37.7390   29.6050   39.1130 C   0  0  0  0  0  0  0  0  0  0  0  0
   37.6340   30.0380   40.4300 C   0  0  0  0  0  0  0  0  0  0  0  0
   37.3710   31.3540   40.6250 N   0  0  0  0  0  0  0  0  0  0  0  0
   37.2140   32.2270   39.6210 C   0  0  0  0  0  0  0  0  0  0  0  0
   37.3120   31.8270   38.3340 N   0  0  0  0  0  0  0  0  0  0  0  0
   36.9400   33.5940   39.8610 N   0  0  0  0  0  0  0  0  0  0  0  0
   37.6520   30.2010   37.0560 H   0  0  0  0  0  0  0  0  0  0  0  0
   37.9460   28.5720   38.8790 H   0  0  0  0  0  0  0  0  0  0  0  0
   37.4370   34.4750   39.5490 H   0  0  0  0  0  0  0  0  0  0  0  0
   36.0780   33.7350   40.4670 H   0  0  0  0  0  0  0  0  0  0  0  0
   35.5100   28.6090   41.3700 F   0  0  0  0  0  0  0  0  0  0  0  0
   36.7020   28.4290   42.0040 C   0  0  0  0  0  0  0  0  0  0  0  0
   37.7940   29.1380   41.5520 C   0  0  0  0  0  0  0  0  0  0  0  0
   38.9660   28.9220   42.2240 C   0  0  0  0  0  0  0  0  0  0  0  0
   39.8490   29.4400   41.9230 H   0  0  0  0  0  0  0  0  0  0  0  0
   39.0850   28.0520   43.2960 C   0  0  0  0  0  0  0  0  0  0  0  0
   40.0150   27.8850   43.8240 H   0  0  0  0  0  0  0  0  0  0  0  0
   37.9370   27.3850   43.6790 C   0  0  0  0  0  3  0  0  0  0  0  0
   36.7150   27.5440   43.0570 C   0  0  0  0  0  3  0  0  0  0  0  0
  1  6  2  0  0  0  0
  1  2  1  0  0  0  0
  2  3  2  0  0  0  0
  3  4  1  0  0  0  0
  3 14  1  0  0  0  0
  5  7  1  0  0  0  0
  5  4  2  0  0  0  0
  6  5  1  0  0  0  0
  7 11  1  0  0  0  0
  8  1  1  0  0  0  0
  9  2  1  0  0  0  0
 10  7  1  0  0  0  0
 12 13  1  0  0  0  0
 13 20  1  0  0  0  0
 14 13  2  0  0  0  0
 14 15  1  0  0  0  0
 15 17  2  0  0  0  0
 16 15  1  0  0  0  0
 17 19  1  0  0  0  0
 17 18  1  0  0  0  0
 20 19  2  0  0  0  0
M  END
>  <minimizedAffinity>
-4.97475386

$$$$

 OpenBabel03252500203D

 20 21  0  0  0  0  0  0  0  0999 V2000
   37.4930   30.6800   38.0200 C   0  0  0  0  0  0  0  0  0  0  0  0
   37.5670   29.7080   39.0450 C   0  0  0  0  0  0  0  0  0  0  0  0
   37.4530   30.1200   40.3680 C   0  0  0  0  0  0  0  0  0  0  0  0
   37.2780   31.4480   40.5850 N   0  0  0  0  0  0  0  0  0  0  0  0
   37.2120   32.3490   39.5960 C   0  0  0  0  0  0  0  0  0  0  0  0
   37.3190   31.9700   38.3040 N   0  0  0  0  0  0  0  0  0  0  0  0
   37.0270   33.7270   39.8600 N   0  0  0  0  0  0  0  0  0  0  0  0
   37.5820   30.3500   37.0000 H   0  0  0  0  0  0  0  0  0  0  0  0
   37.7080   28.6670   38.7930 H   0  0  0  0  0  0  0  0  0  0  0  0
   37.5930   34.5770   39.5810 H   0  0  0  0  0  0  0  0  0  0  0  0
   36.1590   33.9160   40.4430 H   0  0  0  0  0  0  0  0  0  0  0  0
   39.7400   29.8710   41.8330 F   0  0  0  0  0  0  0  0  0  0  0  0
   38.6870   29.0860   42.1960 C   0  0  0  0  0  0  0  0  0  0  0  0
   37.5180   29.1890   41.4740 C   0  0  0  0  0  0  0  0  0  0  0  0
   36.4930   28.3790   41.8800 C   0  0  0  0  0  0  0  0  0  0  0  0
   35.5600   28.4110   41.3620 H   0  0  0  0  0  0  0  0  0  0  0  0
   36.5880   27.4980   42.9450 C   0  0  0  0  0  0  0  0  0  0  0  0
   35.7730   26.8590   43.2610 H   0  0  0  0  0  0  0  0  0  0  0  0
   37.7990   27.4630   43.6090 C   0  0  0  0  0  3  0  0  0  0  0  0
   38.8840   28.2450   43.2660 C   0  0  0  0  0  3  0  0  0  0  0  0
  1  6  2  0  0  0  0
  1  2  1  0  0  0  0
  2  3  2  0  0  0  0
  3  4  1  0  0  0  0
  3 14  1  0  0  0  0
  5  7  1  0  0  0  0
  5  4  2  0  0  0  0
  6  5  1  0  0  0  0
  7 11  1  0  0  0  0
  8  1  1  0  0  0  0
  9  2  1  0  0  0  0
 10  7  1  0  0  0  0
 12 13  1  0  0  0  0
 13 20  1  0  0  0  0
 14 15  1  0  0  0  0
 14 13  2  0  0  0  0
 15 17  2  0  0  0  0
 16 15  1  0  0  0  0
 17 18  1  0  0  0  0
 17 19  1  0  0  0  0
 20 19  2  0  0  0  0
M  END
>  <minimizedAffinity>
-4.82805586

$$$$

 OpenBabel03252500203D

 20 21  0  0  0  0  0  0  0  0999 V2000
   39.7240   31.4620   39.1620 C   0  0  0  0  0  0  0  0  0  0  0  0
   39.3710   30.3240   39.9260 C   0  0  0  0  0  0  0  0  0  0  0  0
   38.1880   30.3510   40.6560 C   0  0  0  0  0  0  0  0  0  0  0  0
   37.4460   31.4840   40.5840 N   0  0  0  0  0  0  0  0  0  0  0  0
   37.8030   32.5480   39.8530 C   0  0  0  0  0  0  0  0  0  0  0  0
   38.9480   32.5440   39.1360 N   0  0  0  0  0  0  0  0  0  0  0  0
   37.0030   33.7140   39.8000 N   0  0  0  0  0  0  0  0  0  0  0  0
   40.6410   31.4300   38.6000 H   0  0  0  0  0  0  0  0  0  0  0  0
   40.0140   29.4570   39.9330 H   0  0  0  0  0  0  0  0  0  0  0  0
   37.2250   34.7280   40.0100 H   0  0  0  0  0  0  0  0  0  0  0  0
   36.0070   33.5100   39.4930 H   0  0  0  0  0  0  0  0  0  0  0  0
   38.7930   30.2430   43.3130 F   0  0  0  0  0  0  0  0  0  0  0  0
   38.0760   29.2040   42.8030 C   0  0  0  0  0  0  0  0  0  0  0  0
   37.7550   29.2290   41.4620 C   0  0  0  0  0  0  0  0  0  0  0  0
   37.0350   28.1620   41.0010 C   0  0  0  0  0  0  0  0  0  0  0  0
   36.7540   28.1220   39.9720 H   0  0  0  0  0  0  0  0  0  0  0  0
   36.6350   27.1040   41.8010 C   0  0  0  0  0  0  0  0  0  0  0  0
   36.0650   26.2610   41.4300 H   0  0  0  0  0  0  0  0  0  0  0  0
   37.0030   27.1640   43.1310 C   0  0  0  0  0  3  0  0  0  0  0  0
   37.7280   28.2030   43.6790 C   0  0  0  0  0  3  0  0  0  0  0  0
  1  2  1  0  0  0  0
  2  9  1  0  0  0  0
  2  3  2  0  0  0  0
  3 14  1  0  0  0  0
  4  3  1  0  0  0  0
  5  4  2  0  0  0  0
  6  1  2  0  0  0  0
  6  5  1  0  0  0  0
  7  5  1  0  0  0  0
  7 10  1  0  0  0  0
  8  1  1  0  0  0  0
 11  7  1  0  0  0  0
 13 12  1  0  0  0  0
 13 20  1  0  0  0  0
 14 13  2  0  0  0  0
 15 14  1  0  0  0  0
 15 17  2  0  0  0  0
 16 15  1  0  0  0  0
 17 19  1  0  0  0  0
 18 17  1  0  0  0  0
 19 20  2  0  0  0  0
M  END
>  <minimizedAffinity>
-4.77978039

$$$$

 OpenBabel03252500203D

 20 21  0  0  0  0  0  0  0  0999 V2000
   38.8170   29.8280   40.2000 C   0  0  0  0  0  0  0  0  0  0  0  0
   38.6040   28.4290   40.2190 C   0  0  0  0  0  0  0  0  0  0  0  0
   37.3650   27.9470   40.6260 C   0  0  0  0  0  0  0  0  0  0  0  0
   36.4340   28.8680   40.9820 N   0  0  0  0  0  0  0  0  0  0  0  0
   36.6620   30.1880   40.9560 C   0  0  0  0  0  0  0  0  0  0  0  0
   37.8580   30.6770   40.5640 N   0  0  0  0  0  0  0  0  0  0  0  0
   35.6660   31.1200   41.3340 N   0  0  0  0  0  0  0  0  0  0  0  0
   39.7800   30.1890   39.8830 H   0  0  0  0  0  0  0  0  0  0  0  0
   39.3950   27.7580   39.9200 H   0  0  0  0  0  0  0  0  0  0  0  0
   35.6690   31.8950   42.0540 H   0  0  0  0  0  0  0  0  0  0  0  0
   34.7660   30.9990   40.7820 H   0  0  0  0  0  0  0  0  0  0  0  0
   37.6040   26.5620   42.9630 F   0  0  0  0  0  0  0  0  0  0  0  0
   37.1960   25.8600   41.8690 C   0  0  0  0  0  0  0  0  0  0  0  0
   37.0650   26.5320   40.6730 C   0  0  0  0  0  0  0  0  0  0  0  0
   36.6530   25.7810   39.6080 C   0  0  0  0  0  0  0  0  0  0  0  0
   36.5320   26.2420   38.6530 H   0  0  0  0  0  0  0  0  0  0  0  0
   36.3740   24.4260   39.6890 C   0  0  0  0  0  0  0  0  0  0  0  0
   36.0480   23.8360   38.8410 H   0  0  0  0  0  0  0  0  0  0  0  0
   36.5330   23.8360   40.9280 C   0  0  0  0  0  3  0  0  0  0  0  0
   36.9450   24.5200   42.0540 C   0  0  0  0  0  3  0  0  0  0  0  0
  1  2  2  0  0  0  0
  1  6  1  0  0  0  0
  2  3  1  0  0  0  0
  3 14  1  0  0  0  0
  3  4  2  0  0  0  0
  5  4  1  0  0  0  0
  5  7  1  0  0  0  0
  6  5  2  0  0  0  0
  7 10  1  0  0  0  0
  8  1  1  0  0  0  0
  9  2  1  0  0  0  0
 11  7  1  0  0  0  0
 13 20  1  0  0  0  0
 13 12  1  0  0  0  0
 14 13  2  0  0  0  0
 15 17  2  0  0  0  0
 15 14  1  0  0  0  0
 16 15  1  0  0  0  0
 17 19  1  0  0  0  0
 18 17  1  0  0  0  0
 19 20  2  0  0  0  0
M  END
>  <minimizedAffinity>
-4.67134523

$$$$

 OpenBabel03252500203D

 20 21  0  0  0  0  0  0  0  0999 V2000
   39.1090   31.5630   38.8080 C   0  0  0  0  0  0  0  0  0  0  0  0
   38.8400   30.3940   39.5590 C   0  0  0  0  0  0  0  0  0  0  0  0
   38.5620   30.5200   40.9150 C   0  0  0  0  0  0  0  0  0  0  0  0
   38.5690   31.7750   41.4310 N   0  0  0  0  0  0  0  0  0  0  0  0
   38.8280   32.8660   40.6980 C   0  0  0  0  0  0  0  0  0  0  0  0
   39.1000   32.7660   39.3790 N   0  0  0  0  0  0  0  0  0  0  0  0
   38.8260   34.1610   41.2690 N   0  0  0  0  0  0  0  0  0  0  0  0
   39.3230   31.4540   37.7600 H   0  0  0  0  0  0  0  0  0  0  0  0
   38.8520   29.4280   39.0770 H   0  0  0  0  0  0  0  0  0  0  0  0
   39.5630   34.9200   41.2890 H   0  0  0  0  0  0  0  0  0  0  0  0
   37.9110   34.3870   41.7600 H   0  0  0  0  0  0  0  0  0  0  0  0
   36.0290   29.5210   41.0720 F   0  0  0  0  0  0  0  0  0  0  0  0
   36.9850   28.8930   41.8110 C   0  0  0  0  0  0  0  0  0  0  0  0
   38.2750   29.3750   41.7530 C   0  0  0  0  0  0  0  0  0  0  0  0
   39.1960   28.7090   42.5140 C   0  0  0  0  0  0  0  0  0  0  0  0
   40.2130   29.0320   42.5130 H   0  0  0  0  0  0  0  0  0  0  0  0
   38.8870   27.6140   43.3050 C   0  0  0  0  0  0  0  0  0  0  0  0
   39.6210   27.0900   43.9060 H   0  0  0  0  0  0  0  0  0  0  0  0
   37.5690   27.2020   43.3010 C   0  0  0  0  0  3  0  0  0  0  0  0
   36.5770   27.8160   42.5630 C   0  0  0  0  0  3  0  0  0  0  0  0
  1  6  2  0  0  0  0
  1  2  1  0  0  0  0
  2  3  2  0  0  0  0
  3  4  1  0  0  0  0
  3 14  1  0  0  0  0
  5  7  1  0  0  0  0
  5  4  2  0  0  0  0
  6  5  1  0  0  0  0
  7 10  1  0  0  0  0
  7 11  1  0  0  0  0
  8  1  1  0  0  0  0
  9  2  1  0  0  0  0
 12 13  1  0  0  0  0
 13 20  1  0  0  0  0
 14 13  2  0  0  0  0
 14 15  1  0  0  0  0
 15 17  2  0  0  0  0
 16 15  1  0  0  0  0
 17 18  1  0  0  0  0
 19 17  1  0  0  0  0
 20 19  2  0  0  0  0
M  END
>  <minimizedAffinity>
-4.58886099

$$$$

 OpenBabel03252500203D

 20 21  0  0  0  0  0  0  0  0999 V2000
   38.5500   27.6030   40.8900 C   0  0  0  0  0  0  0  0  0  0  0  0
   38.6330   28.9340   40.4160 C   0  0  0  0  0  0  0  0  0  0  0  0
   37.9090   29.9230   41.0720 C   0  0  0  0  0  0  0  0  0  0  0  0
   37.1620   29.5350   42.1360 N   0  0  0  0  0  0  0  0  0  0  0  0
   37.1000   28.2680   42.5650 C   0  0  0  0  0  0  0  0  0  0  0  0
   37.7960   27.2910   41.9420 N   0  0  0  0  0  0  0  0  0  0  0  0
   36.3100   27.8990   43.6800 N   0  0  0  0  0  0  0  0  0  0  0  0
   39.1150   26.8460   40.3750 H   0  0  0  0  0  0  0  0  0  0  0  0
   39.2510   29.1650   39.5620 H   0  0  0  0  0  0  0  0  0  0  0  0
   35.5410   27.1810   43.7870 H   0  0  0  0  0  0  0  0  0  0  0  0
   36.5520   28.4580   44.5510 H   0  0  0  0  0  0  0  0  0  0  0  0
   39.7710   31.6360   42.0900 F   0  0  0  0  0  0  0  0  0  0  0  0
   38.8930   32.1490   41.1830 C   0  0  0  0  0  0  0  0  0  0  0  0
   37.9400   31.3070   40.6510 C   0  0  0  0  0  0  0  0  0  0  0  0
   37.0840   31.8730   39.7460 C   0  0  0  0  0  0  0  0  0  0  0  0
   36.3230   31.2750   39.2970 H   0  0  0  0  0  0  0  0  0  0  0  0
   37.1420   33.2030   39.3650 C   0  0  0  0  0  0  0  0  0  0  0  0
   36.4610   33.6450   38.6480 H   0  0  0  0  0  0  0  0  0  0  0  0
   38.1300   33.9700   39.9510 C   0  0  0  0  0  3  0  0  0  0  0  0
   39.0340   33.4810   40.8720 C   0  0  0  0  0  3  0  0  0  0  0  0
  1  6  1  0  0  0  0
  2  1  2  0  0  0  0
  2  3  1  0  0  0  0
  3  4  2  0  0  0  0
  4  5  1  0  0  0  0
  5  7  1  0  0  0  0
  6  5  2  0  0  0  0
  7 10  1  0  0  0  0
  7 11  1  0  0  0  0
  8  1  1  0  0  0  0
  9  2  1  0  0  0  0
 13 12  1  0  0  0  0
 14  3  1  0  0  0  0
 14 13  2  0  0  0  0
 15 14  1  0  0  0  0
 16 15  1  0  0  0  0
 17 15  2  0  0  0  0
 17 19  1  0  0  0  0
 18 17  1  0  0  0  0
 19 20  2  0  0  0  0
 20 13  1  0  0  0  0
M  END
>  <minimizedAffinity>
-4.54261827

$$$$

 OpenBabel03252500203D

 20 21  0  0  0  0  0  0  0  0999 V2000
   37.0250   32.1270   38.9170 C   0  0  0  0  0  0  0  0  0  0  0  0
   36.7750   31.3260   40.0560 C   0  0  0  0  0  0  0  0  0  0  0  0
   37.5330   30.1760   40.2440 C   0  0  0  0  0  0  0  0  0  0  0  0
   38.4750   29.9000   39.3080 N   0  0  0  0  0  0  0  0  0  0  0  0
   38.6920   30.6750   38.2370 C   0  0  0  0  0  0  0  0  0  0  0  0
   37.9670   31.7960   38.0350 N   0  0  0  0  0  0  0  0  0  0  0  0
   39.6840   30.3570   37.2800 N   0  0  0  0  0  0  0  0  0  0  0  0
   36.4330   33.0140   38.7810 H   0  0  0  0  0  0  0  0  0  0  0  0
   36.0070   31.6110   40.7590 H   0  0  0  0  0  0  0  0  0  0  0  0
   39.6300   30.2210   36.2320 H   0  0  0  0  0  0  0  0  0  0  0  0
   40.6460   30.2380   37.7160 H   0  0  0  0  0  0  0  0  0  0  0  0
   38.9500   30.5660   42.5420 F   0  0  0  0  0  0  0  0  0  0  0  0
   38.0700   29.5260   42.5300 C   0  0  0  0  0  0  0  0  0  0  0  0
   37.3390   29.3030   41.3820 C   0  0  0  0  0  0  0  0  0  0  0  0
   36.4710   28.2470   41.4240 C   0  0  0  0  0  0  0  0  0  0  0  0
   35.8760   28.0210   40.5680 H   0  0  0  0  0  0  0  0  0  0  0  0
   36.3110   27.4310   42.5320 C   0  0  0  0  0  0  0  0  0  0  0  0
   35.6220   26.5950   42.5580 H   0  0  0  0  0  0  0  0  0  0  0  0
   37.0850   27.7300   43.6360 C   0  0  0  0  0  3  0  0  0  0  0  0
   37.9850   28.7760   43.6800 C   0  0  0  0  0  3  0  0  0  0  0  0
  1  2  1  0  0  0  0
  2  3  2  0  0  0  0
  2  9  1  0  0  0  0
  3 14  1  0  0  0  0
  4  3  1  0  0  0  0
  5  4  2  0  0  0  0
  6  5  1  0  0  0  0
  6  1  2  0  0  0  0
  7 11  1  0  0  0  0
  7  5  1  0  0  0  0
  8  1  1  0  0  0  0
 10  7  1  0  0  0  0
 13 12  1  0  0  0  0
 13 20  1  0  0  0  0
 14 15  1  0  0  0  0
 14 13  2  0  0  0  0
 15 17  2  0  0  0  0
 16 15  1  0  0  0  0
 17 18  1  0  0  0  0
 17 19  1  0  0  0  0
 19 20  2  0  0  0  0
M  END
>  <minimizedAffinity>
-4.51305819

$$$$

 OpenBabel03252500203D

 20 21  0  0  0  0  0  0  0  0999 V2000
   42.5170   26.7440   40.7970 C   0  0  0  0  0  0  0  0  0  0  0  0
   41.1770   27.0900   41.0910 C   0  0  0  0  0  0  0  0  0  0  0  0
   40.6060   26.6140   42.2670 C   0  0  0  0  0  0  0  0  0  0  0  0
   41.3880   25.8400   43.0600 N   0  0  0  0  0  0  0  0  0  0  0  0
   42.6550   25.5270   42.7590 C   0  0  0  0  0  0  0  0  0  0  0  0
   43.2290   25.9780   41.6220 N   0  0  0  0  0  0  0  0  0  0  0  0
   43.4430   24.7170   43.6110 N   0  0  0  0  0  0  0  0  0  0  0  0
   42.9480   27.1170   39.8850 H   0  0  0  0  0  0  0  0  0  0  0  0
   40.6170   27.7110   40.4090 H   0  0  0  0  0  0  0  0  0  0  0  0
   43.9710   23.8180   43.4340 H   0  0  0  0  0  0  0  0  0  0  0  0
   43.4970   25.1020   44.6010 H   0  0  0  0  0  0  0  0  0  0  0  0
   38.5740   24.9270   41.5890 F   0  0  0  0  0  0  0  0  0  0  0  0
   38.2370   26.0490   42.2840 C   0  0  0  0  0  0  0  0  0  0  0  0
   39.2430   26.9220   42.6410 C   0  0  0  0  0  0  0  0  0  0  0  0
   38.8500   28.0320   43.3370 C   0  0  0  0  0  0  0  0  0  0  0  0
   39.5810   28.7470   43.6430 H   0  0  0  0  0  0  0  0  0  0  0  0
   37.5340   28.2950   43.6790 C   0  0  0  0  0  0  0  0  0  0  0  0
   37.2290   29.1770   44.2300 H   0  0  0  0  0  0  0  0  0  0  0  0
   36.5940   27.3650   43.2790 C   0  0  0  0  0  3  0  0  0  0  0  0
   36.9030   26.2190   42.5740 C   0  0  0  0  0  3  0  0  0  0  0  0
  1  2  2  0  0  0  0
  1  6  1  0  0  0  0
  2  3  1  0  0  0  0
  3 14  1  0  0  0  0
  3  4  2  0  0  0  0
  5  4  1  0  0  0  0
  5  7  1  0  0  0  0
  6  5  2  0  0  0  0
  7 11  1  0  0  0  0
  8  1  1  0  0  0  0
  9  2  1  0  0  0  0
 10  7  1  0  0  0  0
 12 13  1  0  0  0  0
 13 20  2  0  0  0  0
 13 14  1  0  0  0  0
 14 15  2  0  0  0  0
 15 16  1  0  0  0  0
 15 17  1  0  0  0  0
 17 18  1  0  0  0  0
 19 17  2  0  0  0  0
 20 19  1  0  0  0  0
M  END
>  <minimizedAffinity>
-4.49157286

$$$$

 OpenBabel03252500203D

 20 21  0  0  0  0  0  0  0  0999 V2000
   38.8250   30.0770   39.6330 C   0  0  0  0  0  0  0  0  0  0  0  0
   39.2410   28.8620   40.2280 C   0  0  0  0  0  0  0  0  0  0  0  0
   38.4560   28.3060   41.2320 C   0  0  0  0  0  0  0  0  0  0  0  0
   37.3290   28.9790   41.5750 N   0  0  0  0  0  0  0  0  0  0  0  0
   36.9570   30.1280   40.9960 C   0  0  0  0  0  0  0  0  0  0  0  0
   37.7050   30.6850   40.0190 N   0  0  0  0  0  0  0  0  0  0  0  0
   35.7730   30.8020   41.3780 N   0  0  0  0  0  0  0  0  0  0  0  0
   39.4400   30.4980   38.8580 H   0  0  0  0  0  0  0  0  0  0  0  0
   40.1530   28.3850   39.9010 H   0  0  0  0  0  0  0  0  0  0  0  0
   35.6070   31.7920   41.7140 H   0  0  0  0  0  0  0  0  0  0  0  0
   34.9120   30.1830   41.3070 H   0  0  0  0  0  0  0  0  0  0  0  0
   40.1630   28.3130   43.3590 F   0  0  0  0  0  0  0  0  0  0  0  0
   39.6760   27.1030   42.9640 C   0  0  0  0  0  0  0  0  0  0  0  0
   38.8110   27.0680   41.8910 C   0  0  0  0  0  0  0  0  0  0  0  0
   38.3530   25.8290   41.5360 C   0  0  0  0  0  0  0  0  0  0  0  0
   37.6800   25.7330   40.7130 H   0  0  0  0  0  0  0  0  0  0  0  0
   38.7130   24.6620   42.1900 C   0  0  0  0  0  0  0  0  0  0  0  0
   38.3470   23.6840   41.9030 H   0  0  0  0  0  0  0  0  0  0  0  0
   39.5850   24.7950   43.2530 C   0  0  0  0  0  3  0  0  0  0  0  0
   40.0950   26.0050   43.6780 C   0  0  0  0  0  3  0  0  0  0  0  0
  1  6  2  0  0  0  0
  1  2  1  0  0  0  0
  2  3  2  0  0  0  0
  3  4  1  0  0  0  0
  3 14  1  0  0  0  0
  5  7  1  0  0  0  0
  5  4  2  0  0  0  0
  6  5  1  0  0  0  0
  7 10  1  0  0  0  0
  8  1  1  0  0  0  0
  9  2  1  0  0  0  0
 11  7  1  0  0  0  0
 13 12  1  0  0  0  0
 13 20  1  0  0  0  0
 14 13  2  0  0  0  0
 15 14  1  0  0  0  0
 15 17  2  0  0  0  0
 16 15  1  0  0  0  0
 17 19  1  0  0  0  0
 18 17  1  0  0  0  0
 19 20  2  0  0  0  0
M  END
>  <minimizedAffinity>
-4.47734022

$$$$
