REMARK  Name = 
REMARK  3 active torsions:
REMARK  status: ('A' for Active; 'I' for Inactive)
REMARK    1  A    between atoms: CA_1  and  C_7
REMARK    2  A    between atoms: C_5  and  C_9
REMARK    3  A    between atoms: C_11  and  C_21
REMARK                            x       y       z     vdW  Elec       q    Type
REMARK                         _______ _______ _______ _____ _____    ______ ____
ROOT
ATOM      1  C   UNL     1      46.103  32.468  46.241  0.00  0.00    +0.000 C 
ATOM      2  C   UNL     1      46.967  32.639  47.442  0.00  0.00    +0.000 C 
ATOM      3  C   UNL     1      45.508  32.566  47.616  0.00  0.00    +0.000 C 
ATOM      4  H   UNL     1      46.251  31.547  45.687  0.00  0.00    +0.000 HD
ATOM      5  H   UNL     1      47.415  33.657  47.527  0.00  0.00    +0.000 HD
ATOM      6  H   UNL     1      47.686  31.860  47.665  0.00  0.00    +0.000 HD
ATOM      7  H   UNL     1      44.965  33.478  47.913  0.00  0.00    +0.000 HD
ENDROOT
BRANCH   3  10
ATOM      8  F   UNL     1      46.416  30.586  49.471  0.00  0.00    +0.000 F 
ATOM      9  C   UNL     1      45.220  30.359  48.914  0.00  0.00    +0.000 A 
ATOM     10  C   UNL     1      44.805  31.330  48.021  0.00  0.00    +0.000 A 
ATOM     11  C   UNL     1      43.559  31.141  47.409  0.00  0.00    +0.000 A 
ATOM     12  H   UNL     1      43.154  31.855  46.694  0.00  0.00    +0.000 HD
ATOM     13  C   UNL     1      42.761  30.038  47.670  0.00  0.00    +0.000 A 
ATOM     14  H   UNL     1      41.792  29.935  47.165  0.00  0.00    +0.000 HD
ATOM     15  C   UNL     1      43.194  29.078  48.566  0.00  0.00    +0.000 A 
ATOM     16  C   UNL     1      44.419  29.265  49.167  0.00  0.00    +0.000 A 
ENDBRANCH   3  10
BRANCH   1  21
ATOM     17  CA  UNL     1      46.073  34.762  43.386  0.00  0.00    +0.000 A 
ATOM     18  C   UNL     1      45.177  35.770  43.781  0.00  0.00    +0.000 A 
ATOM     19  C   UNL     1      44.572  35.655  45.051  0.00  0.00    +0.000 A 
ATOM     20  N   UNL     1      44.887  34.581  45.815  0.00  0.00    +0.000 NA
ATOM     21  C   UNL     1      45.766  33.640  45.366  0.00  0.00    +0.000 A 
ATOM     22  N   UNL     1      46.366  33.700  44.175  0.00  0.00    +0.000 NA
ATOM     23  H   UNL     1      44.927  36.613  43.187  0.00  0.00    +0.000 HD
ATOM     24  H   UNL     1      43.881  36.384  45.416  0.00  0.00    +0.000 HD
BRANCH  17  25
ATOM     25  C   UNL     1      46.644  34.958  42.090  0.00  0.00    +0.000 C 
ATOM     26  O   UNL     1      47.819  35.391  41.869  0.00  0.00    +0.000 OA
ATOM     27  H   UNL     1      45.871  34.662  41.376  0.00  0.00    +0.000 HD
ENDBRANCH  17  25
ENDBRANCH   1  21
TORSDOF 3
