
     RDKit          3D

 41 44  0  0  0  0  0  0  0  0999 V2000
   47.1559   31.2791   46.7136 C   0  0  0  0  0  0  0  0  0  0  0  0
   46.7831   31.7735   48.0831 C   0  0  1  0  0  0  0  0  0  0  0  0
   46.1833   30.7678   49.0154 C   0  0  0  0  0  0  0  0  0  0  0  0
   47.5196   31.2674   49.2698 C   0  0  1  0  0  0  0  0  0  0  0  0
   48.7660   30.5063   49.0415 C   0  0  0  0  0  0  0  0  0  0  0  0
   49.5862   30.2354   50.3334 C   0  0  0  0  0  0  0  0  0  0  0  0
   50.0839   31.2517   49.3643 C   0  0  0  0  0  0  0  0  0  0  0  0
   45.9293   33.1333   45.9028 C   0  0  0  0  0  0  0  0  0  0  0  0
   46.9459   32.3932   45.6954 C   0  0  0  0  0  0  0  0  0  0  0  0
   44.5142   36.1592   44.3545 C   0  0  0  0  0  0  0  0  0  0  0  0
   45.1273   36.1889   43.0954 C   0  0  0  0  0  0  0  0  0  0  0  0
   46.0085   35.1855   42.8285 C   0  0  0  0  0  0  0  0  0  0  0  0
   46.2149   34.2559   43.7870 N   0  0  0  0  0  0  0  0  0  0  0  0
   45.6361   34.2235   44.9780 C   0  0  0  0  0  0  0  0  0  0  0  0
   44.7839   35.1932   45.2413 N   0  0  0  0  0  0  0  0  0  0  0  0
   46.6247   30.3662   46.4209 H   0  0  0  0  0  0  0  0  0  0  0  0
   48.2469   31.0769   46.6774 H   0  0  0  0  0  0  0  0  0  0  0  0
   46.3802   32.8039   48.1520 H   0  0  0  0  0  0  0  0  0  0  0  0
   46.0057   29.7539   48.6027 H   0  0  0  0  0  0  0  0  0  0  0  0
   45.3449   31.0904   49.6664 H   0  0  0  0  0  0  0  0  0  0  0  0
   47.6166   32.0102   50.1203 H   0  0  0  0  0  0  0  0  0  0  0  0
   48.8176   29.7028   48.2888 H   0  0  0  0  0  0  0  0  0  0  0  0
   50.1052   29.2793   50.3847 H   0  0  0  0  0  0  0  0  0  0  0  0
   49.1695   30.6004   51.2885 H   0  0  0  0  0  0  0  0  0  0  0  0
   50.0268   32.3221   49.5667 H   0  0  0  0  0  0  0  0  0  0  0  0
   50.9295   30.9721   48.6818 H   0  0  0  0  0  0  0  0  0  0  0  0
   45.1752   33.0900   46.7083 H   0  0  0  0  0  0  0  0  0  0  0  0
   47.5918   32.5754   44.8435 H   0  0  0  0  0  0  0  0  0  0  0  0
   43.8000   36.9573   44.5956 H   0  0  0  0  0  0  0  0  0  0  0  0
   44.9299   36.9471   42.3685 H   0  0  0  0  0  0  0  0  0  0  0  0
   45.5566   36.4699   40.2856 F   0  0  0  0  0  0  0  0  0  0  0  0
   46.5746   35.5929   40.3904 C   0  0  0  0  0  0  0  0  0  0  0  0
   46.7661   35.0004   41.6025 C   0  0  0  0  0  0  0  0  0  0  0  0
   47.8416   34.1202   41.5878 C   0  0  0  0  0  0  0  0  0  0  0  0
   48.1316   33.5638   42.4733 H   0  0  0  0  0  0  0  0  0  0  0  0
   48.6181   33.8752   40.4879 C   0  0  0  0  0  0  0  0  0  0  0  0
   49.4461   33.1840   40.5143 H   0  0  0  0  0  0  0  0  0  0  0  0
   48.3613   34.5133   39.2981 C   0  0  0  0  0  0  0  0  0  0  0  0
   47.3194   35.3871   39.2540 C   0  0  0  0  0  0  0  0  0  0  0  0
   48.9647   34.3304   38.4229 H   0  0  0  0  0  0  0  0  0  0  0  0
   47.0893   35.9065   38.3344 H   0  0  0  0  0  0  0  0  0  0  0  0
  1  2  1  0
  2  3  1  0
  2  4  1  0
  3  4  1  0
  5  4  1  0
  5  7  1  0
  5  6  1  0
  7  6  1  0
  9  8  2  0
  9  1  1  0
 10 15  2  0
 11 10  1  0
 12 11  2  0
 12 13  1  0
 13 14  2  0
 14 15  1  0
 14  8  1  0
  1 16  1  0
  1 17  1  0
  2 18  1  6
  3 19  1  0
  3 20  1  0
  4 21  1  1
  5 22  1  0
  6 23  1  0
  6 24  1  0
  7 25  1  0
  7 26  1  0
  8 27  1  0
  9 28  1  0
 10 29  1  0
 11 30  1  0
 31 32  1  0
 32 33  2  0
 33 34  1  0
 34 35  1  0
 34 36  2  0
 36 37  1  0
 36 38  1  0
 38 39  2  0
 39 32  1  0
 38 40  1  0
 39 41  1  0
 12 33  1  0
M  ISO  8  16   8  17   8  18  13  19  13  20  13  21  13  22  13  23  13
M  ISO  7  24  13  25  13  26  13  29  14  30  14  35  15  37  16
M  END
>  <DihAtoms>  (1) 
10,11,32,31

>  <DihDeg>  (1) 
0.3178964051587542

$$$$
