
 OpenBabel03252508143D

 37 40  0  0  1  0  0  0  0  0999 V2000
   46.0410   33.0830   46.0480 C   0  0  0  0  0  3  0  0  0  0  0  0
   46.8510   32.1540   45.7210 C   0  0  0  0  0  3  0  0  0  0  0  0
   44.5610   36.0170   44.3880 C   0  0  0  0  0  0  0  0  0  0  0  0
   45.1190   35.9720   43.1030 C   0  0  0  0  0  0  0  0  0  0  0  0
   45.9880   34.9510   42.8580 C   0  0  0  0  0  0  0  0  0  0  0  0
   46.2360   34.0800   43.8600 N   0  0  0  0  0  0  0  0  0  0  0  0
   45.7090   34.1190   45.0740 C   0  0  0  0  0  0  0  0  0  0  0  0
   44.8690   35.1040   45.3160 N   0  0  0  0  0  0  0  0  0  0  0  0
   43.8580   36.8300   44.6120 H   0  0  0  0  0  0  0  0  0  0  0  0
   44.8910   36.6860   42.3420 H   0  0  0  0  0  0  0  0  0  0  0  0
   48.5480   36.0070   42.0490 F   0  0  0  0  0  0  0  0  0  0  0  0
   47.9000   35.1770   41.2070 C   0  0  0  0  0  0  0  0  0  0  0  0
   46.6920   34.6930   41.6130 C   0  0  0  0  0  0  0  0  0  0  0  0
   46.1220   33.8510   40.6660 C   0  0  0  0  0  0  0  0  0  0  0  0
   45.1600   33.3790   40.8320 H   0  0  0  0  0  0  0  0  0  0  0  0
   46.7030   33.5430   39.4650 C   0  0  0  0  0  0  0  0  0  0  0  0
   46.2290   32.8850   38.7530 H   0  0  0  0  0  0  0  0  0  0  0  0
   47.9250   34.0720   39.1260 C   0  0  0  0  0  3  0  0  0  0  0  0
   48.5300   34.9040   40.0170 C   0  0  0  0  0  3  0  0  0  0  0  0
   47.1230   31.1200   46.8070 C   0  0  0  0  0  0  0  0  0  0  0  0
   46.5890   30.1830   46.6080 H   0  0  0  0  0  0  0  0  0  0  0  0
   48.2130   30.9250   46.7320 H   0  0  0  0  0  0  0  0  0  0  0  0
   46.8100   31.7100   48.1530 C   0  0  1  0  0  0  0  0  0  0  0  0
   46.2080   30.7860   49.1640 C   0  0  0  0  0  0  0  0  0  0  0  0
   47.5680   31.2530   49.3470 C   0  0  1  0  0  0  0  0  0  0  0  0
   46.4440   32.7570   48.1690 H   0  0  0  0  0  0  0  0  0  0  0  0
   45.9850   29.7550   48.8220 H   0  0  0  0  0  0  0  0  0  0  0  0
   45.4020   31.1770   49.8190 H   0  0  0  0  0  0  0  0  0  0  0  0
   47.7170   32.0430   50.1450 H   0  0  0  0  0  0  0  0  0  0  0  0
   48.7800   30.4360   49.1290 C   0  0  0  0  0  0  0  0  0  0  0  0
   49.6500   30.2460   50.4020 C   0  0  0  0  0  0  0  0  0  0  0  0
   50.1320   31.1640   49.3310 C   0  0  0  0  0  0  0  0  0  0  0  0
   48.7750   29.5730   48.4450 H   0  0  0  0  0  0  0  0  0  0  0  0
   50.1440   29.2820   50.5110 H   0  0  0  0  0  0  0  0  0  0  0  0
   49.2880   30.7010   51.3410 H   0  0  0  0  0  0  0  0  0  0  0  0
   50.1150   32.2480   49.4470 H   0  0  0  0  0  0  0  0  0  0  0  0
   50.9370   30.8020   48.6390 H   0  0  0  0  0  0  0  0  0  0  0  0
  2  1  2  0  0  0  0
  2 20  1  0  0  0  0
  3  9  1  0  0  0  0
  3  8  1  0  0  0  0
  4  3  2  0  0  0  0
  5  4  1  0  0  0  0
  5  6  2  0  0  0  0
  6  7  1  0  0  0  0
  7  8  2  0  0  0  0
  7  1  1  0  0  0  0
 10  4  1  0  0  0  0
 12 13  1  0  0  0  0
 12 11  1  0  0  0  0
 13  5  1  0  0  0  0
 14 15  1  0  0  0  0
 14 13  2  0  0  0  0
 16 14  1  0  0  0  0
 17 16  1  0  0  0  0
 18 16  2  0  0  0  0
 18 19  1  0  0  0  0
 19 12  2  0  0  0  0
 20 23  1  0  0  0  0
 21 20  1  0  0  0  0
 22 20  1  0  0  0  0
 23 26  1  1  0  0  0
 23 24  1  0  0  0  0
 23 25  1  0  0  0  0
 24 25  1  0  0  0  0
 24 28  1  0  0  0  0
 25 29  1  1  0  0  0
 27 24  1  0  0  0  0
 30 32  1  0  0  0  0
 30 25  1  0  0  0  0
 30 31  1  0  0  0  0
 31 34  1  0  0  0  0
 31 35  1  0  0  0  0
 32 36  1  0  0  0  0
 32 31  1  0  0  0  0
 33 30  1  0  0  0  0
 37 32  1  0  0  0  0
M  END
>  <minimizedAffinity>
-6.31814432

>  <minimizedRMSD>
0.714667678

$$$$
