
 OpenBabel03242522123D

 20 21  0  0  0  0  0  0  0  0999 V2000
   37.2200   32.1810   39.9320 C   0  0  0  0  0  0  0  0  0  0  0  0
   36.9140   31.0430   40.6790 C   0  0  0  0  0  0  0  0  0  0  0  0
   37.8740   30.0280   40.7650 C   0  0  0  0  0  0  0  0  0  0  0  0
   39.0340   30.2200   40.1180 N   0  0  0  0  0  0  0  0  0  0  0  0
   39.3380   31.3300   39.3910 C   0  0  0  0  0  0  0  0  0  0  0  0
   38.4080   32.3220   39.3020 N   0  0  0  0  0  0  0  0  0  0  0  0
   36.4870   32.9940   39.8470 H   0  0  0  0  0  0  0  0  0  0  0  0
   40.3120   31.3140   38.9540 H   0  0  0  0  0  0  0  0  0  0  0  0
   38.3440   29.5920   43.5530 F   0  0  0  0  0  0  0  0  0  0  0  0
   37.9290   28.5010   42.8530 C   0  0  0  0  0  0  0  0  0  0  0  0
   37.6730   28.7940   41.5050 C   0  0  0  0  0  0  0  0  0  0  0  0
   37.2360   27.7980   40.6450 C   0  0  0  0  0  0  0  0  0  0  0  0
   37.0080   27.9080   39.5860 H   0  0  0  0  0  0  0  0  0  0  0  0
   37.0490   26.4980   41.1240 C   0  0  0  0  0  0  0  0  0  0  0  0
   36.7080   25.6220   40.5400 H   0  0  0  0  0  0  0  0  0  0  0  0
   37.3050   26.2130   42.4720 C   0  0  0  0  0  3  0  0  0  0  0  0
   37.7410   27.2210   43.3120 C   0  0  0  0  0  3  0  0  0  0  0  0
   35.6460   31.0020   41.3170 N   0  0  0  0  0  0  0  0  0  0  0  0
   35.6160   30.9750   42.3850 H   0  0  0  0  0  0  0  0  0  0  0  0
   34.6510   30.9810   41.0250 H   0  0  0  0  0  0  0  0  0  0  0  0
  1  2  1  0  0  0  0
  2  3  2  0  0  0  0
  2 18  1  0  0  0  0
  3 11  1  0  0  0  0
  4  3  1  0  0  0  0
  5  4  2  0  0  0  0
  6  5  1  0  0  0  0
  6  1  2  0  0  0  0
  7  1  1  0  0  0  0
  8  5  1  0  0  0  0
 10 17  1  0  0  0  0
 10  9  1  0  0  0  0
 11 10  2  0  0  0  0
 12 14  2  0  0  0  0
 12 11  1  0  0  0  0
 13 12  1  0  0  0  0
 14 16  1  0  0  0  0
 15 14  1  0  0  0  0
 16 17  2  0  0  0  0
 18 19  1  0  0  0  0
 20 18  1  0  0  0  0
M  END
>  <minimizedAffinity>
-4.99125481

$$$$

 OpenBabel03242522123D

 20 21  0  0  0  0  0  0  0  0999 V2000
   39.2670   33.5060   40.0780 C   0  0  0  0  0  0  0  0  0  0  0  0
   38.0560   32.8450   39.8680 C   0  0  0  0  0  0  0  0  0  0  0  0
   38.0730   31.4490   39.7600 C   0  0  0  0  0  0  0  0  0  0  0  0
   39.2620   30.8370   39.8670 N   0  0  0  0  0  0  0  0  0  0  0  0
   40.4440   31.4780   40.0750 C   0  0  0  0  0  0  0  0  0  0  0  0
   40.4370   32.8350   40.1800 N   0  0  0  0  0  0  0  0  0  0  0  0
   39.2850   34.6000   40.1670 H   0  0  0  0  0  0  0  0  0  0  0  0
   41.2890   30.8270   40.1440 H   0  0  0  0  0  0  0  0  0  0  0  0
   36.1610   30.6110   41.7160 F   0  0  0  0  0  0  0  0  0  0  0  0
   35.9360   30.1640   40.4510 C   0  0  0  0  0  0  0  0  0  0  0  0
   36.8820   30.6480   39.5350 C   0  0  0  0  0  0  0  0  0  0  0  0
   36.8020   30.2960   38.1960 C   0  0  0  0  0  0  0  0  0  0  0  0
   37.4760   30.6080   37.4000 H   0  0  0  0  0  0  0  0  0  0  0  0
   35.7730   29.4550   37.7590 C   0  0  0  0  0  0  0  0  0  0  0  0
   35.6040   29.1030   36.7230 H   0  0  0  0  0  0  0  0  0  0  0  0
   34.8310   28.9770   38.6790 C   0  0  0  0  0  3  0  0  0  0  0  0
   34.9300   29.3410   40.0090 C   0  0  0  0  0  3  0  0  0  0  0  0
   36.8830   33.6400   39.7940 N   0  0  0  0  0  0  0  0  0  0  0  0
   36.1320   33.5080   40.5440 H   0  0  0  0  0  0  0  0  0  0  0  0
   36.5000   34.3710   39.1660 H   0  0  0  0  0  0  0  0  0  0  0  0
  1  7  1  0  0  0  0
  1  6  1  0  0  0  0
  2  1  2  0  0  0  0
  3  4  2  0  0  0  0
  3  2  1  0  0  0  0
  4  5  1  0  0  0  0
  5  8  1  0  0  0  0
  5  6  2  0  0  0  0
 10  9  1  0  0  0  0
 11  3  1  0  0  0  0
 11 10  2  0  0  0  0
 12 11  1  0  0  0  0
 13 12  1  0  0  0  0
 14 12  2  0  0  0  0
 14 16  1  0  0  0  0
 15 14  1  0  0  0  0
 16 17  2  0  0  0  0
 17 10  1  0  0  0  0
 18  2  1  0  0  0  0
 18 19  1  0  0  0  0
 20 18  1  0  0  0  0
M  END
>  <minimizedAffinity>
-4.68421984

$$$$

 OpenBabel03242522123D

 20 21  0  0  0  0  0  0  0  0999 V2000
   36.7410   30.0440   41.4500 C   0  0  0  0  0  0  0  0  0  0  0  0
   37.2600   29.0130   42.2330 C   0  0  0  0  0  0  0  0  0  0  0  0
   38.0590   28.0460   41.6120 C   0  0  0  0  0  0  0  0  0  0  0  0
   38.2750   28.1790   40.2950 N   0  0  0  0  0  0  0  0  0  0  0  0
   37.7750   29.1860   39.5280 C   0  0  0  0  0  0  0  0  0  0  0  0
   36.9940   30.1290   40.1250 N   0  0  0  0  0  0  0  0  0  0  0  0
   36.1110   30.8160   41.9100 H   0  0  0  0  0  0  0  0  0  0  0  0
   38.0600   29.1360   38.5000 H   0  0  0  0  0  0  0  0  0  0  0  0
   40.2260   28.1250   43.4800 F   0  0  0  0  0  0  0  0  0  0  0  0
   39.7390   26.8850   43.2010 C   0  0  0  0  0  0  0  0  0  0  0  0
   38.6510   26.9210   42.3170 C   0  0  0  0  0  0  0  0  0  0  0  0
   38.0280   25.7450   41.9270 C   0  0  0  0  0  0  0  0  0  0  0  0
   37.1810   25.6520   41.2490 H   0  0  0  0  0  0  0  0  0  0  0  0
   38.4860   24.5200   42.4200 C   0  0  0  0  0  0  0  0  0  0  0  0
   38.0760   23.5190   42.1840 H   0  0  0  0  0  0  0  0  0  0  0  0
   39.5720   24.4910   43.3050 C   0  0  0  0  0  3  0  0  0  0  0  0
   40.1790   25.6750   43.6790 C   0  0  0  0  0  3  0  0  0  0  0  0
   36.9490   29.0250   43.6190 N   0  0  0  0  0  0  0  0  0  0  0  0
   37.7500   29.1440   44.3170 H   0  0  0  0  0  0  0  0  0  0  0  0
   36.0990   28.9360   44.2070 H   0  0  0  0  0  0  0  0  0  0  0  0
  1  7  1  0  0  0  0
  1  2  1  0  0  0  0
  2 18  1  0  0  0  0
  3  2  2  0  0  0  0
  3 11  1  0  0  0  0
  4  3  1  0  0  0  0
  5  6  1  0  0  0  0
  5  4  2  0  0  0  0
  6  1  2  0  0  0  0
  8  5  1  0  0  0  0
 10  9  1  0  0  0  0
 10 17  1  0  0  0  0
 11 10  2  0  0  0  0
 12 11  1  0  0  0  0
 12 14  2  0  0  0  0
 13 12  1  0  0  0  0
 14 16  1  0  0  0  0
 15 14  1  0  0  0  0
 16 17  2  0  0  0  0
 18 20  1  0  0  0  0
 18 19  1  0  0  0  0
M  END
>  <minimizedAffinity>
-4.58047676

$$$$

 OpenBabel03242522123D

 20 21  0  0  0  0  0  0  0  0999 V2000
   35.0120   29.2680   39.7090 C   0  0  0  0  0  0  0  0  0  0  0  0
   35.9140   30.2090   40.2080 C   0  0  0  0  0  0  0  0  0  0  0  0
   36.8290   30.7850   39.3200 C   0  0  0  0  0  0  0  0  0  0  0  0
   36.7760   30.3920   38.0380 N   0  0  0  0  0  0  0  0  0  0  0  0
   35.8960   29.4780   37.5470 C   0  0  0  0  0  0  0  0  0  0  0  0
   35.0030   28.9100   38.4050 N   0  0  0  0  0  0  0  0  0  0  0  0
   34.2830   28.7990   40.3820 H   0  0  0  0  0  0  0  0  0  0  0  0
   35.9930   29.2950   36.4990 H   0  0  0  0  0  0  0  0  0  0  0  0
   39.4350   30.2780   40.3870 F   0  0  0  0  0  0  0  0  0  0  0  0
   39.0890   31.5900   40.2900 C   0  0  0  0  0  0  0  0  0  0  0  0
   37.8210   31.7700   39.7180 C   0  0  0  0  0  0  0  0  0  0  0  0
   37.3100   33.0470   39.5400 C   0  0  0  0  0  0  0  0  0  0  0  0
   36.3430   33.3060   39.1100 H   0  0  0  0  0  0  0  0  0  0  0  0
   38.0630   34.1580   39.9310 C   0  0  0  0  0  0  0  0  0  0  0  0
   37.7660   35.2210   39.8430 H   0  0  0  0  0  0  0  0  0  0  0  0
   39.3290   33.9710   40.5000 C   0  0  0  0  0  3  0  0  0  0  0  0
   39.8190   32.6890   40.6700 C   0  0  0  0  0  3  0  0  0  0  0  0
   35.8280   30.5270   41.5890 N   0  0  0  0  0  0  0  0  0  0  0  0
   35.5650   31.5260   41.8640 H   0  0  0  0  0  0  0  0  0  0  0  0
   35.9670   30.0340   42.4910 H   0  0  0  0  0  0  0  0  0  0  0  0
  1  2  1  0  0  0  0
  1  7  1  0  0  0  0
  2 18  1  0  0  0  0
  3 11  1  0  0  0  0
  3  2  2  0  0  0  0
  4  3  1  0  0  0  0
  5  4  2  0  0  0  0
  5  6  1  0  0  0  0
  6  1  2  0  0  0  0
  8  5  1  0  0  0  0
 10  9  1  0  0  0  0
 10 17  1  0  0  0  0
 11 10  2  0  0  0  0
 12 11  1  0  0  0  0
 12 14  2  0  0  0  0
 13 12  1  0  0  0  0
 14 16  1  0  0  0  0
 15 14  1  0  0  0  0
 16 17  2  0  0  0  0
 18 19  1  0  0  0  0
 18 20  1  0  0  0  0
M  END
>  <minimizedAffinity>
-4.4745965

$$$$

 OpenBabel03242522123D

 20 21  0  0  0  0  0  0  0  0999 V2000
   37.6760   31.0820   38.1080 C   0  0  0  0  0  0  0  0  0  0  0  0
   37.6940   30.0220   39.0150 C   0  0  0  0  0  0  0  0  0  0  0  0
   37.4470   30.3000   40.3650 C   0  0  0  0  0  0  0  0  0  0  0  0
   37.2080   31.5780   40.6970 N   0  0  0  0  0  0  0  0  0  0  0  0
   37.1850   32.6140   39.8150 C   0  0  0  0  0  0  0  0  0  0  0  0
   37.4260   32.3520   38.5000 N   0  0  0  0  0  0  0  0  0  0  0  0
   37.8660   30.8940   37.0430 H   0  0  0  0  0  0  0  0  0  0  0  0
   36.9670   33.5610   40.2580 H   0  0  0  0  0  0  0  0  0  0  0  0
   35.2960   28.5480   41.0640 F   0  0  0  0  0  0  0  0  0  0  0  0
   36.4150   28.4340   41.8290 C   0  0  0  0  0  0  0  0  0  0  0  0
   37.4450   29.2860   41.4050 C   0  0  0  0  0  0  0  0  0  0  0  0
   38.6620   29.2970   42.0710 C   0  0  0  0  0  0  0  0  0  0  0  0
   39.5270   29.9130   41.8340 H   0  0  0  0  0  0  0  0  0  0  0  0
   38.8610   28.4530   43.1680 C   0  0  0  0  0  0  0  0  0  0  0  0
   39.7800   28.3710   43.7790 H   0  0  0  0  0  0  0  0  0  0  0  0
   37.8280   27.6030   43.5850 C   0  0  0  0  0  3  0  0  0  0  0  0
   36.6230   27.6090   42.9070 C   0  0  0  0  0  3  0  0  0  0  0  0
   37.9480   28.7250   38.4990 N   0  0  0  0  0  0  0  0  0  0  0  0
   37.1780   27.9870   38.5770 H   0  0  0  0  0  0  0  0  0  0  0  0
   38.7350   28.2340   38.0330 H   0  0  0  0  0  0  0  0  0  0  0  0
  1  6  2  0  0  0  0
  1  2  1  0  0  0  0
  2  3  2  0  0  0  0
  3  4  1  0  0  0  0
  3 11  1  0  0  0  0
  5  8  1  0  0  0  0
  5  4  2  0  0  0  0
  6  5  1  0  0  0  0
  7  1  1  0  0  0  0
  9 10  1  0  0  0  0
 10 17  1  0  0  0  0
 11 10  2  0  0  0  0
 11 12  1  0  0  0  0
 12 14  2  0  0  0  0
 13 12  1  0  0  0  0
 14 16  1  0  0  0  0
 14 15  1  0  0  0  0
 17 16  2  0  0  0  0
 18 19  1  0  0  0  0
 18  2  1  0  0  0  0
 20 18  1  0  0  0  0
M  END
>  <minimizedAffinity>
-4.40484428

$$$$

 OpenBabel03242522123D

 20 21  0  0  0  0  0  0  0  0999 V2000
   34.7460   29.1760   39.2140 C   0  0  0  0  0  0  0  0  0  0  0  0
   35.6370   29.1330   40.2880 C   0  0  0  0  0  0  0  0  0  0  0  0
   36.4980   28.0350   40.3930 C   0  0  0  0  0  0  0  0  0  0  0  0
   36.4090   27.0900   39.4440 N   0  0  0  0  0  0  0  0  0  0  0  0
   35.5450   27.1290   38.3930 C   0  0  0  0  0  0  0  0  0  0  0  0
   34.7030   28.1940   38.2860 N   0  0  0  0  0  0  0  0  0  0  0  0
   34.0590   30.0250   39.1060 H   0  0  0  0  0  0  0  0  0  0  0  0
   35.6220   26.2940   37.7320 H   0  0  0  0  0  0  0  0  0  0  0  0
   35.9510   27.3670   43.1210 F   0  0  0  0  0  0  0  0  0  0  0  0
   37.2590   27.5970   42.8260 C   0  0  0  0  0  0  0  0  0  0  0  0
   37.4630   27.8730   41.4660 C   0  0  0  0  0  0  0  0  0  0  0  0
   38.7400   28.1270   40.9890 C   0  0  0  0  0  0  0  0  0  0  0  0
   39.0170   28.3540   39.9610 H   0  0  0  0  0  0  0  0  0  0  0  0
   39.8280   28.1070   41.8680 C   0  0  0  0  0  0  0  0  0  0  0  0
   40.8880   28.2940   41.6110 H   0  0  0  0  0  0  0  0  0  0  0  0
   39.6170   27.8290   43.2250 C   0  0  0  0  0  3  0  0  0  0  0  0
   38.3350   27.5780   43.6790 C   0  0  0  0  0  3  0  0  0  0  0  0
   35.6150   30.2240   41.1970 N   0  0  0  0  0  0  0  0  0  0  0  0
   36.4890   30.8340   41.2780 H   0  0  0  0  0  0  0  0  0  0  0  0
   34.9440   30.6350   41.8730 H   0  0  0  0  0  0  0  0  0  0  0  0
  1  2  1  0  0  0  0
  2  3  2  0  0  0  0
  2 18  1  0  0  0  0
  3 11  1  0  0  0  0
  4  3  1  0  0  0  0
  5  4  2  0  0  0  0
  6  5  1  0  0  0  0
  6  1  2  0  0  0  0
  7  1  1  0  0  0  0
  8  5  1  0  0  0  0
 10  9  1  0  0  0  0
 10 17  1  0  0  0  0
 11 10  2  0  0  0  0
 12 11  1  0  0  0  0
 12 14  2  0  0  0  0
 13 12  1  0  0  0  0
 14 16  1  0  0  0  0
 15 14  1  0  0  0  0
 16 17  2  0  0  0  0
 18 19  1  0  0  0  0
 18 20  1  0  0  0  0
M  END
>  <minimizedAffinity>
-4.38680601

$$$$

 OpenBabel03242522123D

 20 21  0  0  0  0  0  0  0  0999 V2000
   38.0230   23.1540   40.9900 C   0  0  0  0  0  0  0  0  0  0  0  0
   38.2930   24.2790   41.7700 C   0  0  0  0  0  0  0  0  0  0  0  0
   37.7280   25.5020   41.3890 C   0  0  0  0  0  0  0  0  0  0  0  0
   36.9570   25.5090   40.2910 N   0  0  0  0  0  0  0  0  0  0  0  0
   36.6870   24.4130   39.5300 C   0  0  0  0  0  0  0  0  0  0  0  0
   37.2350   23.2200   39.8920 N   0  0  0  0  0  0  0  0  0  0  0  0
   38.4520   22.1820   41.2640 H   0  0  0  0  0  0  0  0  0  0  0  0
   36.0460   24.6060   38.6980 H   0  0  0  0  0  0  0  0  0  0  0  0
   36.1510   26.5350   43.5420 F   0  0  0  0  0  0  0  0  0  0  0  0
   37.1800   27.3280   43.1380 C   0  0  0  0  0  0  0  0  0  0  0  0
   37.9390   26.7430   42.1140 C   0  0  0  0  0  0  0  0  0  0  0  0
   39.0320   27.4130   41.5850 C   0  0  0  0  0  0  0  0  0  0  0  0
   39.6890   27.0600   40.7910 H   0  0  0  0  0  0  0  0  0  0  0  0
   39.3790   28.6750   42.0760 C   0  0  0  0  0  0  0  0  0  0  0  0
   40.2220   29.3070   41.7380 H   0  0  0  0  0  0  0  0  0  0  0  0
   38.6170   29.2530   43.1010 C   0  0  0  0  0  3  0  0  0  0  0  0
   37.5310   28.5680   43.6140 C   0  0  0  0  0  3  0  0  0  0  0  0
   39.1170   24.0990   42.9120 N   0  0  0  0  0  0  0  0  0  0  0  0
   38.6930   24.2780   43.8770 H   0  0  0  0  0  0  0  0  0  0  0  0
   40.1010   23.8290   43.1030 H   0  0  0  0  0  0  0  0  0  0  0  0
  1  7  1  0  0  0  0
  1  2  1  0  0  0  0
  2 18  1  0  0  0  0
  3  2  2  0  0  0  0
  3 11  1  0  0  0  0
  4  3  1  0  0  0  0
  5  6  1  0  0  0  0
  5  4  2  0  0  0  0
  6  1  2  0  0  0  0
  8  5  1  0  0  0  0
 10  9  1  0  0  0  0
 10 17  1  0  0  0  0
 11 10  2  0  0  0  0
 12 14  2  0  0  0  0
 12 11  1  0  0  0  0
 13 12  1  0  0  0  0
 14 16  1  0  0  0  0
 15 14  1  0  0  0  0
 16 17  2  0  0  0  0
 18 20  1  0  0  0  0
 18 19  1  0  0  0  0
M  END
>  <minimizedAffinity>
-4.3499074

$$$$

 OpenBabel03242522123D

 20 21  0  0  0  0  0  0  0  0999 V2000
   39.4950   31.6460   39.0410 C   0  0  0  0  0  0  0  0  0  0  0  0
   39.2070   30.6000   39.9190 C   0  0  0  0  0  0  0  0  0  0  0  0
   38.0900   30.7220   40.7530 C   0  0  0  0  0  0  0  0  0  0  0  0
   37.3640   31.8460   40.6490 N   0  0  0  0  0  0  0  0  0  0  0  0
   37.6380   32.8660   39.7920 C   0  0  0  0  0  0  0  0  0  0  0  0
   38.7250   32.7560   38.9790 N   0  0  0  0  0  0  0  0  0  0  0  0
   40.3650   31.5790   38.3750 H   0  0  0  0  0  0  0  0  0  0  0  0
   36.9440   33.6770   39.8410 H   0  0  0  0  0  0  0  0  0  0  0  0
   39.1670   30.3010   43.3700 F   0  0  0  0  0  0  0  0  0  0  0  0
   38.2080   29.4170   42.9830 C   0  0  0  0  0  0  0  0  0  0  0  0
   37.6910   29.7070   41.7120 C   0  0  0  0  0  0  0  0  0  0  0  0
   36.7000   28.9080   41.1620 C   0  0  0  0  0  0  0  0  0  0  0  0
   36.2270   29.0350   40.1890 H   0  0  0  0  0  0  0  0  0  0  0  0
   36.2140   27.8100   41.8790 C   0  0  0  0  0  0  0  0  0  0  0  0
   35.4300   27.1010   41.5500 H   0  0  0  0  0  0  0  0  0  0  0  0
   36.7340   27.5270   43.1490 C   0  0  0  0  0  3  0  0  0  0  0  0
   37.7220   28.3370   43.6780 C   0  0  0  0  0  3  0  0  0  0  0  0
   40.0680   29.4720   39.8930 N   0  0  0  0  0  0  0  0  0  0  0  0
   39.6610   28.5290   39.5940 H   0  0  0  0  0  0  0  0  0  0  0  0
   41.0630   29.2710   40.1070 H   0  0  0  0  0  0  0  0  0  0  0  0
  1  2  1  0  0  0  0
  2  3  2  0  0  0  0
  3 11  1  0  0  0  0
  4  3  1  0  0  0  0
  5  8  1  0  0  0  0
  5  4  2  0  0  0  0
  6  1  2  0  0  0  0
  6  5  1  0  0  0  0
  7  1  1  0  0  0  0
 10  9  1  0  0  0  0
 10 17  1  0  0  0  0
 11 10  2  0  0  0  0
 12 11  1  0  0  0  0
 12 14  2  0  0  0  0
 13 12  1  0  0  0  0
 14 16  1  0  0  0  0
 15 14  1  0  0  0  0
 16 17  2  0  0  0  0
 18  2  1  0  0  0  0
 18 20  1  0  0  0  0
 19 18  1  0  0  0  0
M  END
>  <minimizedAffinity>
-4.30901289

$$$$

 OpenBabel03242522123D

 20 21  0  0  0  0  0  0  0  0999 V2000
   37.0590   26.9480   42.7160 C   0  0  0  0  0  0  0  0  0  0  0  0
   37.2990   28.3130   42.5550 C   0  0  0  0  0  0  0  0  0  0  0  0
   37.7360   28.7670   41.3050 C   0  0  0  0  0  0  0  0  0  0  0  0
   37.8950   27.8510   40.3380 N   0  0  0  0  0  0  0  0  0  0  0  0
   37.6590   26.5190   40.4900 C   0  0  0  0  0  0  0  0  0  0  0  0
   37.2350   26.0690   41.7030 N   0  0  0  0  0  0  0  0  0  0  0  0
   36.7160   26.5630   43.6850 H   0  0  0  0  0  0  0  0  0  0  0  0
   37.8300   25.9410   39.6080 H   0  0  0  0  0  0  0  0  0  0  0  0
   40.0040   30.2780   42.1770 F   0  0  0  0  0  0  0  0  0  0  0  0
   39.0860   30.9700   41.4490 C   0  0  0  0  0  0  0  0  0  0  0  0
   38.0250   30.1610   41.0140 C   0  0  0  0  0  0  0  0  0  0  0  0
   36.9990   30.7020   40.2540 C   0  0  0  0  0  0  0  0  0  0  0  0
   36.1300   30.1750   39.8660 H   0  0  0  0  0  0  0  0  0  0  0  0
   37.0250   32.0600   39.9190 C   0  0  0  0  0  0  0  0  0  0  0  0
   36.2690   32.6060   39.3220 H   0  0  0  0  0  0  0  0  0  0  0  0
   38.0880   32.8610   40.3540 C   0  0  0  0  0  3  0  0  0  0  0  0
   39.1000   32.3010   41.1120 C   0  0  0  0  0  3  0  0  0  0  0  0
   37.0670   29.1530   43.6760 N   0  0  0  0  0  0  0  0  0  0  0  0
   36.2990   29.8940   43.6040 H   0  0  0  0  0  0  0  0  0  0  0  0
   37.4630   29.2780   44.6260 H   0  0  0  0  0  0  0  0  0  0  0  0
  1  7  1  0  0  0  0
  2  1  1  0  0  0  0
  2 18  1  0  0  0  0
  3  2  2  0  0  0  0
  4  5  2  0  0  0  0
  4  3  1  0  0  0  0
  5  6  1  0  0  0  0
  6  1  2  0  0  0  0
  8  5  1  0  0  0  0
 10  9  1  0  0  0  0
 11  3  1  0  0  0  0
 11 10  2  0  0  0  0
 12 11  1  0  0  0  0
 13 12  1  0  0  0  0
 14 12  2  0  0  0  0
 14 16  1  0  0  0  0
 15 14  1  0  0  0  0
 16 17  2  0  0  0  0
 17 10  1  0  0  0  0
 18 20  1  0  0  0  0
 19 18  1  0  0  0  0
M  END
>  <minimizedAffinity>
-4.30846643

$$$$
