REMARK  Name = 
REMARK  5 active torsions:
REMARK  status: ('A' for Active; 'I' for Inactive)
REMARK    1  A    between atoms: C_1  and  C_2
REMARK    2  A    between atoms: C_1  and  C_9
REMARK    3  A    between atoms: C_4  and  C_5
REMARK    4  A    between atoms: C_8  and  C_14
REMARK    5  A    between atoms: C_12  and  C_33
REMARK                            x       y       z     vdW  Elec       q    Type
REMARK                         _______ _______ _______ _____ _____    ______ ____
ROOT
ATOM      1  C   UNL     1      45.929  33.133  45.903  0.00  0.00    +0.000 C 
ATOM      2  C   UNL     1      46.946  32.393  45.695  0.00  0.00    +0.000 C 
ENDROOT
BRANCH   1   7
ATOM      3  C   UNL     1      44.514  36.159  44.355  0.00  0.00    +0.000 A 
ATOM      4  C   UNL     1      45.127  36.189  43.095  0.00  0.00    +0.000 A 
ATOM      5  C   UNL     1      46.008  35.185  42.828  0.00  0.00    +0.000 A 
ATOM      6  N   UNL     1      46.215  34.256  43.787  0.00  0.00    +0.000 NA
ATOM      7  C   UNL     1      45.636  34.224  44.978  0.00  0.00    +0.000 A 
ATOM      8  N   UNL     1      44.784  35.193  45.241  0.00  0.00    +0.000 NA
ATOM      9  H   UNL     1      43.800  36.957  44.596  0.00  0.00    +0.000 HD
ATOM     10  H   UNL     1      44.930  36.947  42.368  0.00  0.00    +0.000 HD
BRANCH   5  13
ATOM     11  F   UNL     1      48.878  35.105  42.544  0.00  0.00    +0.000 F 
ATOM     12  C   UNL     1      48.118  34.958  41.440  0.00  0.00    +0.000 A 
ATOM     13  C   UNL     1      46.766  35.000  41.602  0.00  0.00    +0.000 A 
ATOM     14  C   UNL     1      46.092  34.838  40.398  0.00  0.00    +0.000 A 
ATOM     15  H   UNL     1      45.008  34.846  40.349  0.00  0.00    +0.000 HD
ATOM     16  C   UNL     1      46.710  34.656  39.191  0.00  0.00    +0.000 A 
ATOM     17  H   UNL     1      46.152  34.533  38.275  0.00  0.00    +0.000 HD
ATOM     18  C   UNL     1      48.081  34.625  39.108  0.00  0.00    +0.000 A 
ATOM     19  C   UNL     1      48.794  34.780  40.257  0.00  0.00    +0.000 A 
ENDBRANCH   5  13
ENDBRANCH   1   7
BRANCH   2  20
ATOM     20  C   UNL     1      47.156  31.279  46.714  0.00  0.00    +0.000 C 
ATOM     21  H   UNL     1      46.625  30.366  46.421  0.00  0.00    +0.000 HD
ATOM     22  H   UNL     1      48.247  31.077  46.677  0.00  0.00    +0.000 HD
BRANCH  20  23
ATOM     23  C   UNL     1      46.783  31.773  48.083  0.00  0.00    +0.000 C 
ATOM     24  C   UNL     1      46.183  30.768  49.015  0.00  0.00    +0.000 C 
ATOM     25  C   UNL     1      47.520  31.267  49.270  0.00  0.00    +0.000 C 
ATOM     26  H   UNL     1      46.380  32.804  48.152  0.00  0.00    +0.000 HD
ATOM     27  H   UNL     1      46.006  29.754  48.603  0.00  0.00    +0.000 HD
ATOM     28  H   UNL     1      45.345  31.090  49.666  0.00  0.00    +0.000 HD
ATOM     29  H   UNL     1      47.617  32.010  50.120  0.00  0.00    +0.000 HD
BRANCH  25  30
ATOM     30  C   UNL     1      48.766  30.506  49.041  0.00  0.00    +0.000 C 
ATOM     31  C   UNL     1      49.586  30.235  50.333  0.00  0.00    +0.000 C 
ATOM     32  C   UNL     1      50.084  31.252  49.364  0.00  0.00    +0.000 C 
ATOM     33  H   UNL     1      48.818  29.703  48.289  0.00  0.00    +0.000 HD
ATOM     34  H   UNL     1      50.105  29.279  50.385  0.00  0.00    +0.000 HD
ATOM     35  H   UNL     1      49.169  30.600  51.288  0.00  0.00    +0.000 HD
ATOM     36  H   UNL     1      50.027  32.322  49.567  0.00  0.00    +0.000 HD
ATOM     37  H   UNL     1      50.929  30.972  48.682  0.00  0.00    +0.000 HD
ENDBRANCH  25  30
ENDBRANCH  20  23
ENDBRANCH   2  20
TORSDOF 5
