
 OpenBabel03252507573D

 27 29  0  0  1  0  0  0  0  0999 V2000
   46.8260   32.2680   46.2520 C   0  0  1  0  0  0  0  0  0  0  0  0
   47.1170   32.4030   47.7070 C   0  0  0  0  0  0  0  0  0  0  0  0
   45.9100   31.6770   47.2850 C   0  0  2  0  0  0  0  0  0  0  0  0
   47.5620   31.7150   45.6780 H   0  0  0  0  0  0  0  0  0  0  0  0
   46.9510   33.4330   48.1010 H   0  0  0  0  0  0  0  0  0  0  0  0
   48.0360   31.9700   48.0820 H   0  0  0  0  0  0  0  0  0  0  0  0
   44.9250   32.1360   47.4690 H   0  0  0  0  0  0  0  0  0  0  0  0
   47.9200   29.8050   48.0850 F   0  0  0  0  0  0  0  0  0  0  0  0
   46.7960   29.2760   47.5860 C   0  0  0  0  0  0  0  0  0  0  0  0
   45.8410   30.2020   47.2070 C   0  0  0  0  0  0  0  0  0  0  0  0
   44.6450   29.7020   46.6780 C   0  0  0  0  0  0  0  0  0  0  0  0
   43.8390   30.3570   46.3530 H   0  0  0  0  0  0  0  0  0  0  0  0
   44.4070   28.3440   46.5310 C   0  0  0  0  0  0  0  0  0  0  0  0
   43.4520   28.0000   46.1110 H   0  0  0  0  0  0  0  0  0  0  0  0
   45.3740   27.4340   46.9170 C   0  0  0  0  0  3  0  0  0  0  0  0
   46.5500   27.9270   47.4360 C   0  0  0  0  0  3  0  0  0  0  0  0
   46.0870   34.6290   43.5520 C   0  0  0  0  0  0  0  0  0  0  0  0
   45.0940   35.4590   44.1000 C   0  0  0  0  0  0  0  0  0  0  0  0
   44.6700   35.1980   45.4210 C   0  0  0  0  0  0  0  0  0  0  0  0
   45.2430   34.1630   46.0830 N   0  0  0  0  0  0  0  0  0  0  0  0
   46.2020   33.3990   45.4870 C   0  0  0  0  0  0  0  0  0  0  0  0
   46.6390   33.6020   44.2420 N   0  0  0  0  0  0  0  0  0  0  0  0
   44.6420   36.2700   43.5850 H   0  0  0  0  0  0  0  0  0  0  0  0
   43.9190   35.7870   45.9010 H   0  0  0  0  0  0  0  0  0  0  0  0
   46.4610   34.9660   42.2130 C   0  0  0  0  0  0  0  0  0  0  0  0
   47.6410   35.2500   41.8360 O   0  0  0  0  0  0  0  0  0  0  0  0
   45.5390   34.9200   41.6260 H   0  0  0  0  0  0  0  0  0  0  0  0
  1  4  1  6  0  0  0
  1  3  1  0  0  0  0
  1  2  1  0  0  0  0
  2  6  1  0  0  0  0
  2  5  1  0  0  0  0
  3  7  1  1  0  0  0
  3  2  1  0  0  0  0
  9  8  1  0  0  0  0
 10  3  1  0  0  0  0
 10  9  2  0  0  0  0
 11 10  1  0  0  0  0
 12 11  1  0  0  0  0
 13 11  2  0  0  0  0
 13 15  1  0  0  0  0
 14 13  1  0  0  0  0
 15 16  2  0  0  0  0
 16  9  1  0  0  0  0
 17 18  2  0  0  0  0
 17 22  1  0  0  0  0
 18 19  1  0  0  0  0
 19 24  1  0  0  0  0
 19 20  2  0  0  0  0
 21 20  1  0  0  0  0
 21  1  1  0  0  0  0
 22 21  2  0  0  0  0
 23 18  1  0  0  0  0
 25 17  1  0  0  0  0
 26 25  2  0  0  0  0
 27 25  1  0  0  0  0
M  END
>  <minimizedAffinity>
-4.81546211

>  <minimizedRMSD>
1.59598958

$$$$
