
 OpenBabel03252500473D

 26 28  0  0  0  0  0  0  0  0999 V2000
   45.3550   34.0420   45.0150 C   0  0  0  0  0  0  0  0  0  0  0  0
   45.2150   33.3800   43.7860 C   0  0  0  0  0  0  0  0  0  0  0  0
   45.7550   32.1130   43.5850 C   0  0  0  0  0  0  0  0  0  0  0  0
   46.4160   31.5850   44.6560 N   0  0  0  0  0  0  0  0  0  0  0  0
   46.5480   32.2200   45.8280 C   0  0  0  0  0  0  0  0  0  0  0  0
   46.0250   33.4360   46.0090 N   0  0  0  0  0  0  0  0  0  0  0  0
   44.9270   35.0310   45.1560 H   0  0  0  0  0  0  0  0  0  0  0  0
   45.6600   31.5820   42.6470 H   0  0  0  0  0  0  0  0  0  0  0  0
   47.2710   31.5910   46.9300 C   0  0  0  0  0  0  0  0  0  0  0  0
   47.5590   30.2540   46.9300 C   0  0  0  0  0  0  0  0  0  0  0  0
   48.2330   29.6210   47.9390 C   0  0  0  0  0  0  0  0  0  0  0  0
   48.6200   30.4030   48.9850 N   0  0  0  0  0  0  0  0  0  0  0  0
   48.3440   31.7120   48.9920 C   0  0  0  0  0  0  0  0  0  0  0  0
   47.6730   32.3590   47.9960 N   0  0  0  0  0  0  0  0  0  0  0  0
   47.2270   29.6710   46.0710 H   0  0  0  0  0  0  0  0  0  0  0  0
   48.4540   28.5620   47.9250 H   0  0  0  0  0  0  0  0  0  0  0  0
   48.6550   32.3360   49.8310 H   0  0  0  0  0  0  0  0  0  0  0  0
   45.4300   36.1520   43.1770 F   0  0  0  0  0  0  0  0  0  0  0  0
   44.5980   35.3950   42.4200 C   0  0  0  0  0  0  0  0  0  0  0  0
   44.4840   34.0440   42.7070 C   0  0  0  0  0  0  0  0  0  0  0  0
   43.6650   33.1870   41.9980 C   0  0  0  0  0  0  0  0  0  0  0  0
   43.5560   32.1370   42.1970 H   0  0  0  0  0  0  0  0  0  0  0  0
   42.9100   33.6860   40.9420 C   0  0  0  0  0  0  0  0  0  0  0  0
   42.2420   33.0730   40.3360 H   0  0  0  0  0  0  0  0  0  0  0  0
   43.0330   35.0380   40.6650 C   0  0  0  0  0  0  0  0  0  0  0  0
   43.8530   35.8980   41.3740 C   0  0  0  0  0  0  0  0  0  0  0  0
  1  7  1  0  0  0  0
  1  6  1  0  0  0  0
  2  1  2  0  0  0  0
  3  2  1  0  0  0  0
  3  4  2  0  0  0  0
  4  5  1  0  0  0  0
  5  6  2  0  0  0  0
  5  9  1  0  0  0  0
  8  3  1  0  0  0  0
  9 14  1  0  0  0  0
 10  9  2  0  0  0  0
 10 11  1  0  0  0  0
 11 12  2  0  0  0  0
 12 13  1  0  0  0  0
 13 17  1  0  0  0  0
 14 13  2  0  0  0  0
 15 10  1  0  0  0  0
 16 11  1  0  0  0  0
 19 20  1  0  0  0  0
 19 18  1  0  0  0  0
 20  2  1  0  0  0  0
 21 22  1  0  0  0  0
 21 20  2  0  0  0  0
 23 21  1  0  0  0  0
 24 23  1  0  0  0  0
 25 23  2  0  0  0  0
 25 26  1  0  0  0  0
 26 19  2  0  0  0  0
M  END
>  <minimizedAffinity>
-4.82880402

>  <minimizedRMSD>
2.63158393

$$$$
