
     RDKit          3D

 29 31  0  0  0  0  0  0  0  0999 V2000
   46.0730   34.7617   43.3856 C   0  0  0  0  0  0  0  0  0  0  0  0
   45.1770   35.7705   43.7814 C   0  0  0  0  0  0  0  0  0  0  0  0
   44.5715   35.6548   45.0512 C   0  0  0  0  0  0  0  0  0  0  0  0
   44.8874   34.5808   45.8148 N   0  0  0  0  0  0  0  0  0  0  0  0
   45.7655   33.6396   45.3662 C   0  0  0  0  0  0  0  0  0  0  0  0
   46.3662   33.6996   44.1752 N   0  0  0  0  0  0  0  0  0  0  0  0
   46.6444   34.9579   42.0901 C   0  0  0  0  0  0  0  0  0  0  0  0
   47.8193   35.3912   41.8689 O   0  0  0  0  0  0  0  0  0  0  0  0
   46.1030   32.4675   46.2411 C   0  0  1  0  0  0  0  0  0  0  0  0
   46.9674   32.6389   47.4417 C   0  0  0  0  0  0  0  0  0  0  0  0
   45.5084   32.5655   47.6157 C   0  0  2  0  0  0  0  0  0  0  0  0
   44.9268   36.6128   43.1872 H   0  0  0  0  0  0  0  0  0  0  0  0
   43.8812   36.3839   45.4164 H   0  0  0  0  0  0  0  0  0  0  0  0
   45.8706   34.6620   41.3757 H   0  0  0  0  0  0  0  0  0  0  0  0
   46.2510   31.5475   45.6869 H   0  0  0  0  0  0  0  0  0  0  0  0
   47.4151   33.6568   47.5267 H   0  0  0  0  0  0  0  0  0  0  0  0
   47.6861   31.8598   47.6654 H   0  0  0  0  0  0  0  0  0  0  0  0
   44.9653   33.4778   47.9132 H   0  0  0  0  0  0  0  0  0  0  0  0
   46.4157   30.5857   49.4714 F   0  0  0  0  0  0  0  0  0  0  0  0
   45.2201   30.3586   48.9141 C   0  0  0  0  0  0  0  0  0  0  0  0
   44.8046   31.3297   48.0214 C   0  0  0  0  0  0  0  0  0  0  0  0
   43.5594   31.1409   47.4093 C   0  0  0  0  0  0  0  0  0  0  0  0
   43.1538   31.8547   46.6937 H   0  0  0  0  0  0  0  0  0  0  0  0
   42.7613   30.0385   47.6703 C   0  0  0  0  0  0  0  0  0  0  0  0
   41.7919   29.9348   47.1650 H   0  0  0  0  0  0  0  0  0  0  0  0
   43.1944   29.0780   48.5664 C   0  0  0  0  0  0  0  0  0  0  0  0
   44.4185   29.2650   49.1673 C   0  0  0  0  0  0  0  0  0  0  0  0
   42.5510   28.2371   48.7450 H   0  0  0  0  0  0  0  0  0  0  0  0
   44.7757   28.5249   49.8716 H   0  0  0  0  0  0  0  0  0  0  0  0
  1  2  2  0
  1  6  1  0
  2  3  1  0
  3  4  2  0
  5  4  1  0
  5  9  1  0
  6  5  2  0
  7  1  1  0
  8  7  2  0
  9 10  1  0
  9 11  1  0
 10 11  1  0
  2 12  1  0
  3 13  1  0
  7 14  1  0
  9 15  1  6
 10 16  1  0
 10 17  1  0
 11 18  1  6
 19 20  1  0
 20 21  2  0
 21 22  1  0
 22 23  1  0
 22 24  2  0
 24 25  1  0
 24 26  1  0
 26 27  2  0
 27 20  1  0
 26 28  1  0
 27 29  1  0
 11 21  1  0
M  ISO  8  12  14  13  14  14   6  15  13  16  13  17  13  18  13  23  15
M  ISO  1  25  16
M  END
>  <DihAtoms>  (1) 
8,10,20,19

>  <DihDeg>  (1) 
89.9926971290197

$$$$
