
 OpenBabel03242520413D

 39 42  0  0  1  0  0  0  0  0999 V2000
   45.8430   33.3870   45.8970 C   0  0  0  0  0  0  0  0  0  0  0  0
   46.6620   33.5580   44.7600 C   0  0  0  0  0  0  0  0  0  0  0  0
   47.3410   32.4110   44.2530 C   0  0  0  0  0  0  0  0  0  0  0  0
   47.1710   31.2100   44.8850 N   0  0  0  0  0  0  0  0  0  0  0  0
   46.3700   31.1130   45.9710 C   0  0  0  0  0  0  0  0  0  0  0  0
   45.7180   32.1920   46.4670 N   0  0  0  0  0  0  0  0  0  0  0  0
   46.2580   29.8410   46.5520 N   0  0  0  0  0  0  0  0  0  0  0  0
   47.4090   29.1620   47.0530 C   0  0  2  0  0  0  0  0  0  0  0  0
   47.1880   27.7320   47.3990 C   0  0  0  0  0  0  0  0  0  0  0  0
   45.8930   27.3630   47.8330 N   0  0  0  0  0  0  0  0  0  0  0  0
   44.9780   28.4460   47.9480 C   0  0  0  0  0  0  0  0  0  0  0  0
   44.9590   29.2070   46.6490 C   0  0  0  0  0  0  0  0  0  0  0  0
   45.3550   34.2880   46.2350 H   0  0  0  0  0  0  0  0  0  0  0  0
   46.8470   34.4490   44.2150 H   0  0  0  0  0  0  0  0  0  0  0  0
   47.9860   32.4400   43.3960 H   0  0  0  0  0  0  0  0  0  0  0  0
   48.1340   29.1260   46.1800 H   0  0  0  0  0  0  0  0  0  0  0  0
   47.9290   27.4940   48.2170 H   0  0  0  0  0  0  0  0  0  0  0  0
   47.4700   27.0410   46.5770 H   0  0  0  0  0  0  0  0  0  0  0  0
   45.9060   26.8240   48.7360 H   0  0  0  0  0  0  0  0  0  0  0  0
   45.0730   29.0650   48.8380 H   0  0  0  0  0  0  0  0  0  0  0  0
   43.9520   27.9740   48.0270 H   0  0  0  0  0  0  0  0  0  0  0  0
   44.2050   30.0150   46.7150 H   0  0  0  0  0  0  0  0  0  0  0  0
   44.7660   28.4780   45.8530 H   0  0  0  0  0  0  0  0  0  0  0  0
   48.0720   29.9240   48.1390 C   0  0  0  0  0  0  0  0  0  0  0  0
   47.7850   31.1220   48.7540 C   0  0  0  0  0  0  0  0  0  0  0  0
   48.6740   31.4180   49.7060 N   0  0  0  0  0  0  0  0  0  0  0  0
   49.5400   30.4000   49.7040 C   0  0  0  0  0  0  0  0  0  0  0  0
   49.1850   29.5110   48.7740 N   0  0  0  0  0  0  0  0  0  0  0  0
   46.9400   31.7420   48.4870 H   0  0  0  0  0  0  0  0  0  0  0  0
   48.7390   32.2300   50.3390 H   0  0  0  0  0  0  0  0  0  0  0  0
   51.9040   31.7780   49.2990 F   0  0  0  0  0  0  0  0  0  0  0  0
   51.9070   30.9160   50.3570 C   0  0  0  0  0  0  0  0  0  0  0  0
   50.7300   30.2210   50.5700 C   0  0  0  0  0  0  0  0  0  0  0  0
   50.6180   29.3120   51.6230 C   0  0  0  0  0  0  0  0  0  0  0  0
   49.7060   28.7640   51.7970 H   0  0  0  0  0  0  0  0  0  0  0  0
   51.7240   29.1450   52.4300 C   0  0  0  0  0  0  0  0  0  0  0  0
   51.6190   28.4340   53.2420 H   0  0  0  0  0  0  0  0  0  0  0  0
   52.8830   29.8540   52.1910 C   0  0  0  0  0  0  0  0  0  0  0  0
   53.0140   30.7480   51.1640 C   0  0  0  0  0  0  0  0  0  0  0  0
  1 13  1  0  0  0  0
  1  6  1  0  0  0  0
  2  1  2  0  0  0  0
  3  2  1  0  0  0  0
  3  4  2  0  0  0  0
  4  5  1  0  0  0  0
  5  6  2  0  0  0  0
  5  7  1  0  0  0  0
  7 12  1  0  0  0  0
  7  8  1  0  0  0  0
  8 16  1  6  0  0  0
  8  9  1  0  0  0  0
  8 24  1  0  0  0  0
  9 10  1  0  0  0  0
  9 17  1  0  0  0  0
 10 11  1  0  0  0  0
 10 19  1  0  0  0  0
 11 21  1  0  0  0  0
 11 20  1  0  0  0  0
 12 22  1  0  0  0  0
 12 11  1  0  0  0  0
 14  2  1  0  0  0  0
 15  3  1  0  0  0  0
 18  9  1  0  0  0  0
 23 12  1  0  0  0  0
 24 25  2  0  0  0  0
 24 28  1  0  0  0  0
 25 26  1  0  0  0  0
 26 30  1  0  0  0  0
 27 26  1  0  0  0  0
 27 33  1  0  0  0  0
 28 27  2  0  0  0  0
 29 25  1  0  0  0  0
 31 32  1  0  0  0  0
 32 33  2  0  0  0  0
 32 39  1  0  0  0  0
 33 34  1  0  0  0  0
 34 35  1  0  0  0  0
 34 36  2  0  0  0  0
 36 37  1  0  0  0  0
 38 36  1  0  0  0  0
 39 38  2  0  0  0  0
M  END
>  <minimizedAffinity>
-5.51617289

>  <minimizedRMSD>
1.26159644

$$$$
