
 OpenBabel03252508193D

 47 51  0  0  1  0  0  0  0  0999 V2000
   37.2250   26.8060   39.5640 C   0  0  0  0  0  0  0  0  0  0  0  0
   37.3660   27.8560   39.7360 H   0  0  0  0  0  0  0  0  0  0  0  0
   38.1450   26.4030   39.0490 H   0  0  0  0  0  0  0  0  0  0  0  0
   36.9460   25.9050   40.7090 C   0  0  1  0  0  0  0  0  0  0  0  0
   38.1380   25.2180   41.2820 C   0  0  0  0  0  0  0  0  0  0  0  0
   37.4420   26.2330   42.0590 C   0  0  1  0  0  0  0  0  0  0  0  0
   36.1400   25.1370   40.5150 H   0  0  0  0  0  0  0  0  0  0  0  0
   38.1150   24.1630   41.6180 H   0  0  0  0  0  0  0  0  0  0  0  0
   39.1640   25.4990   40.9100 H   0  0  0  0  0  0  0  0  0  0  0  0
   36.8160   25.8560   42.8950 H   0  0  0  0  0  0  0  0  0  0  0  0
   38.0030   27.6020   42.2830 C   0  0  2  0  0  0  0  0  0  0  0  0
   37.5140   28.2720   43.5940 C   0  0  0  0  0  0  0  0  0  0  0  0
   37.0040   28.7630   42.3080 C   0  0  1  0  0  0  0  0  0  0  0  0
   39.0530   27.8390   42.1060 H   0  0  0  0  0  0  0  0  0  0  0  0
   36.8560   27.6580   44.2560 H   0  0  0  0  0  0  0  0  0  0  0  0
   38.1950   28.8970   44.1690 H   0  0  0  0  0  0  0  0  0  0  0  0
   35.9350   28.4550   42.1020 H   0  0  0  0  0  0  0  0  0  0  0  0
   35.4080   30.4550   40.5980 F   0  0  0  0  0  0  0  0  0  0  0  0
   36.6680   30.8790   40.8570 C   0  0  0  0  0  0  0  0  0  0  0  0
   37.3730   30.0250   41.6770 C   0  0  0  0  0  0  0  0  0  0  0  0
   38.6840   30.4300   41.9660 C   0  0  0  0  0  0  0  0  0  0  0  0
   39.3720   29.8550   42.6060 H   0  0  0  0  0  0  0  0  0  0  0  0
   39.2420   31.5800   41.4850 C   0  0  0  0  0  0  0  0  0  0  0  0
   40.2500   31.8970   41.7050 H   0  0  0  0  0  0  0  0  0  0  0  0
   38.5150   32.4140   40.6690 C   0  0  0  0  0  3  0  0  0  0  0  0
   37.2270   32.0400   40.3690 C   0  0  0  0  0  3  0  0  0  0  0  0
   35.3390   27.7140   38.4770 C   0  0  0  0  0  3  0  0  0  0  0  0
   36.1210   26.7210   38.5330 C   0  0  0  0  0  3  0  0  0  0  0  0
   32.9190   26.6030   35.9290 C   0  0  0  0  0  0  0  0  0  0  0  0
   32.0590   27.6940   35.8210 C   0  0  0  0  0  0  0  0  0  0  0  0
   32.3380   28.7640   36.6150 C   0  0  0  0  0  0  0  0  0  0  0  0
   33.4060   28.7320   37.4550 N   0  0  0  0  0  0  0  0  0  0  0  0
   34.2190   27.6620   37.5380 C   0  0  0  0  0  0  0  0  0  0  0  0
   33.9500   26.6210   36.7650 N   0  0  0  0  0  0  0  0  0  0  0  0
   32.7600   25.7290   35.3360 H   0  0  0  0  0  0  0  0  0  0  0  0
   31.2150   27.6900   35.1430 H   0  0  0  0  0  0  0  0  0  0  0  0
   31.5280   29.9740   36.6050 C   0  0  0  0  0  0  0  0  0  0  0  0
   31.3790   30.8040   35.5340 C   0  0  0  0  0  0  0  0  0  0  0  0
   30.6040   31.9470   35.5490 C   0  0  0  0  0  0  0  0  0  0  0  0
   29.9260   32.3040   36.6950 C   0  0  0  0  0  0  0  0  0  0  0  0
   30.0360   31.5090   37.8050 C   0  0  0  0  0  0  0  0  0  0  0  0
   30.8240   30.3800   37.7330 C   0  0  0  0  0  0  0  0  0  0  0  0
   31.8980   30.5600   34.6080 H   0  0  0  0  0  0  0  0  0  0  0  0
   30.5270   32.5680   34.6580 H   0  0  0  0  0  0  0  0  0  0  0  0
   29.3170   33.1990   36.7120 H   0  0  0  0  0  0  0  0  0  0  0  0
   29.5140   31.7640   38.7230 H   0  0  0  0  0  0  0  0  0  0  0  0
   30.8800   29.7730   38.6520 H   0  0  0  0  0  0  0  0  0  0  0  0
  1  2  1  0  0  0  0
  1  4  1  0  0  0  0
  3  1  1  0  0  0  0
  4  7  1  6  0  0  0
  4  5  1  0  0  0  0
  4  6  1  0  0  0  0
  5  8  1  0  0  0  0
  5  6  1  0  0  0  0
  6 11  1  0  0  0  0
  6 10  1  1  0  0  0
  9  5  1  0  0  0  0
 11 14  1  6  0  0  0
 11 13  1  0  0  0  0
 11 12  1  0  0  0  0
 12 16  1  0  0  0  0
 12 15  1  0  0  0  0
 13 17  1  6  0  0  0
 13 12  1  0  0  0  0
 18 19  1  0  0  0  0
 19 20  1  0  0  0  0
 20 21  2  0  0  0  0
 20 13  1  0  0  0  0
 21 22  1  0  0  0  0
 23 24  1  0  0  0  0
 23 21  1  0  0  0  0
 25 23  2  0  0  0  0
 26 25  1  0  0  0  0
 26 19  2  0  0  0  0
 27 28  2  0  0  0  0
 28  1  1  0  0  0  0
 29 34  1  0  0  0  0
 30 29  2  0  0  0  0
 30 31  1  0  0  0  0
 31 32  2  0  0  0  0
 32 33  1  0  0  0  0
 33 27  1  0  0  0  0
 34 33  2  0  0  0  0
 35 29  1  0  0  0  0
 36 30  1  0  0  0  0
 37 31  1  0  0  0  0
 37 42  1  0  0  0  0
 38 39  1  0  0  0  0
 38 37  2  0  0  0  0
 39 40  2  0  0  0  0
 40 45  1  0  0  0  0
 40 41  1  0  0  0  0
 41 46  1  0  0  0  0
 42 41  2  0  0  0  0
 42 47  1  0  0  0  0
 43 38  1  0  0  0  0
 44 39  1  0  0  0  0
M  END
>  <minimizedAffinity>
-6.59705019

$$$$

 OpenBabel03252508193D

 47 51  0  0  1  0  0  0  0  0999 V2000
   36.4940   25.4200   38.1500 C   0  0  0  0  0  0  0  0  0  0  0  0
   37.5580   25.3800   38.0130 H   0  0  0  0  0  0  0  0  0  0  0  0
   36.0060   25.4840   37.1340 H   0  0  0  0  0  0  0  0  0  0  0  0
   35.8070   24.3330   38.8880 C   0  0  1  0  0  0  0  0  0  0  0  0
   36.5570   23.0480   38.9710 C   0  0  0  0  0  0  0  0  0  0  0  0
   36.3430   23.8420   40.1720 C   0  0  1  0  0  0  0  0  0  0  0  0
   34.7550   24.1200   38.5360 H   0  0  0  0  0  0  0  0  0  0  0  0
   36.0620   22.0610   38.8750 H   0  0  0  0  0  0  0  0  0  0  0  0
   37.6160   23.0060   38.5880 H   0  0  0  0  0  0  0  0  0  0  0  0
   35.5840   23.4510   40.8810 H   0  0  0  0  0  0  0  0  0  0  0  0
   37.4370   24.6330   40.8200 C   0  0  2  0  0  0  0  0  0  0  0  0
   37.9080   24.0530   42.1780 C   0  0  0  0  0  0  0  0  0  0  0  0
   37.1130   25.2860   42.1660 C   0  0  1  0  0  0  0  0  0  0  0  0
   38.2880   25.0210   40.2580 H   0  0  0  0  0  0  0  0  0  0  0  0
   37.4400   23.0920   42.5040 H   0  0  0  0  0  0  0  0  0  0  0  0
   38.9600   24.1020   42.4530 H   0  0  0  0  0  0  0  0  0  0  0  0
   36.0440   25.1350   42.5050 H   0  0  0  0  0  0  0  0  0  0  0  0
   35.8700   27.4090   43.6790 F   0  0  0  0  0  0  0  0  0  0  0  0
   37.0880   27.6800   43.1510 C   0  0  0  0  0  0  0  0  0  0  0  0
   37.6210   26.6260   42.4410 C   0  0  0  0  0  0  0  0  0  0  0  0
   38.8810   26.8690   41.8770 C   0  0  0  0  0  0  0  0  0  0  0  0
   39.4370   26.1260   41.2820 H   0  0  0  0  0  0  0  0  0  0  0  0
   39.5510   28.0520   42.0070 C   0  0  0  0  0  0  0  0  0  0  0  0
   40.5210   28.2460   41.5760 H   0  0  0  0  0  0  0  0  0  0  0  0
   38.9940   29.0880   42.7210 C   0  0  0  0  0  3  0  0  0  0  0  0
   37.7600   28.8750   43.2850 C   0  0  0  0  0  3  0  0  0  0  0  0
   37.1540   27.6200   38.6900 C   0  0  0  0  0  3  0  0  0  0  0  0
   36.2330   26.7600   38.8040 C   0  0  0  0  0  3  0  0  0  0  0  0
   35.8070   30.4100   40.6860 C   0  0  0  0  0  0  0  0  0  0  0  0
   36.7890   31.3910   40.5500 C   0  0  0  0  0  0  0  0  0  0  0  0
   37.8660   31.0650   39.7850 C   0  0  0  0  0  0  0  0  0  0  0  0
   37.9440   29.8400   39.1990 N   0  0  0  0  0  0  0  0  0  0  0  0
   36.9800   28.9140   39.3490 C   0  0  0  0  0  0  0  0  0  0  0  0
   35.9310   29.2290   40.0930 N   0  0  0  0  0  0  0  0  0  0  0  0
   34.9340   30.5970   41.2720 H   0  0  0  0  0  0  0  0  0  0  0  0
   36.6990   32.3570   41.0290 H   0  0  0  0  0  0  0  0  0  0  0  0
   38.9650   31.9910   39.5520 C   0  0  0  0  0  0  0  0  0  0  0  0
   39.7900   31.9670   38.4680 C   0  0  0  0  0  0  0  0  0  0  0  0
   40.8270   32.8580   38.2700 C   0  0  0  0  0  0  0  0  0  0  0  0
   41.0740   33.8440   39.2010 C   0  0  0  0  0  0  0  0  0  0  0  0
   40.2780   33.9210   40.3130 C   0  0  0  0  0  0  0  0  0  0  0  0
   39.2570   33.0050   40.4590 C   0  0  0  0  0  0  0  0  0  0  0  0
   39.6310   31.2030   37.7080 H   0  0  0  0  0  0  0  0  0  0  0  0
   41.4510   32.7840   37.3810 H   0  0  0  0  0  0  0  0  0  0  0  0
   41.8850   34.5450   39.0510 H   0  0  0  0  0  0  0  0  0  0  0  0
   40.4480   34.6870   41.0640 H   0  0  0  0  0  0  0  0  0  0  0  0
   38.6450   33.1080   41.3690 H   0  0  0  0  0  0  0  0  0  0  0  0
  1 28  1  0  0  0  0
  1  4  1  0  0  0  0
  2  1  1  0  0  0  0
  3  1  1  0  0  0  0
  4  7  1  6  0  0  0
  4  5  1  0  0  0  0
  4  6  1  0  0  0  0
  5  6  1  0  0  0  0
  6 11  1  0  0  0  0
  6 10  1  1  0  0  0
  8  5  1  0  0  0  0
  9  5  1  0  0  0  0
 11 14  1  6  0  0  0
 11 13  1  0  0  0  0
 11 12  1  0  0  0  0
 12 16  1  0  0  0  0
 12 15  1  0  0  0  0
 13 12  1  0  0  0  0
 13 20  1  0  0  0  0
 13 17  1  1  0  0  0
 19 26  1  0  0  0  0
 19 18  1  0  0  0  0
 20 19  2  0  0  0  0
 21 23  2  0  0  0  0
 21 20  1  0  0  0  0
 22 21  1  0  0  0  0
 23 25  1  0  0  0  0
 24 23  1  0  0  0  0
 25 26  2  0  0  0  0
 27 28  2  0  0  0  0
 27 33  1  0  0  0  0
 29 35  1  0  0  0  0
 30 29  1  0  0  0  0
 30 36  1  0  0  0  0
 31 30  2  0  0  0  0
 32 33  2  0  0  0  0
 32 31  1  0  0  0  0
 33 34  1  0  0  0  0
 34 29  2  0  0  0  0
 37 31  1  0  0  0  0
 37 42  1  0  0  0  0
 38 37  2  0  0  0  0
 39 38  1  0  0  0  0
 39 40  2  0  0  0  0
 40 41  1  0  0  0  0
 41 42  2  0  0  0  0
 41 46  1  0  0  0  0
 42 47  1  0  0  0  0
 43 38  1  0  0  0  0
 44 39  1  0  0  0  0
 45 40  1  0  0  0  0
M  END
>  <minimizedAffinity>
-6.38173676

$$$$

 OpenBabel03252508193D

 47 51  0  0  1  0  0  0  0  0999 V2000
   40.9150   31.5520   40.2930 C   0  0  0  0  0  0  0  0  0  0  0  0
   40.6380   31.2560   39.2990 H   0  0  0  0  0  0  0  0  0  0  0  0
   42.0030   31.2920   40.4520 H   0  0  0  0  0  0  0  0  0  0  0  0
   40.7480   32.9640   40.7130 C   0  0  1  0  0  0  0  0  0  0  0  0
   41.0100   33.9790   39.6520 C   0  0  0  0  0  0  0  0  0  0  0  0
   39.6580   33.7880   40.1560 C   0  0  1  0  0  0  0  0  0  0  0  0
   41.3260   33.2490   41.6410 H   0  0  0  0  0  0  0  0  0  0  0  0
   41.5380   34.9310   39.8550 H   0  0  0  0  0  0  0  0  0  0  0  0
   41.1980   33.6310   38.5960 H   0  0  0  0  0  0  0  0  0  0  0  0
   39.2770   34.5840   40.8300 H   0  0  0  0  0  0  0  0  0  0  0  0
   38.5930   33.0950   39.3640 C   0  0  2  0  0  0  0  0  0  0  0  0
   37.2470   33.8620   39.3200 C   0  0  0  0  0  0  0  0  0  0  0  0
   37.3470   32.6430   40.1310 C   0  0  1  0  0  0  0  0  0  0  0  0
   38.7940   32.6270   38.4000 H   0  0  0  0  0  0  0  0  0  0  0  0
   37.2220   34.8620   39.8190 H   0  0  0  0  0  0  0  0  0  0  0  0
   36.6460   33.8490   38.4120 H   0  0  0  0  0  0  0  0  0  0  0  0
   37.3920   32.8450   41.2430 H   0  0  0  0  0  0  0  0  0  0  0  0
   35.8740   30.8520   41.8520 F   0  0  0  0  0  0  0  0  0  0  0  0
   36.0320   30.4560   40.5660 C   0  0  0  0  0  0  0  0  0  0  0  0
   36.7450   31.3550   39.8020 C   0  0  0  0  0  0  0  0  0  0  0  0
   36.9310   30.9790   38.4650 C   0  0  0  0  0  0  0  0  0  0  0  0
   37.4790   31.5900   37.7300 H   0  0  0  0  0  0  0  0  0  0  0  0
   36.4530   29.8150   37.9340 C   0  0  0  0  0  0  0  0  0  0  0  0
   36.5920   29.5190   36.9060 H   0  0  0  0  0  0  0  0  0  0  0  0
   35.7450   28.9350   38.7200 C   0  0  0  0  0  3  0  0  0  0  0  0
   35.5480   29.2800   40.0350 C   0  0  0  0  0  3  0  0  0  0  0  0
   39.7020   29.5660   40.6780 C   0  0  0  0  0  3  0  0  0  0  0  0
   40.1450   30.6260   41.2090 C   0  0  0  0  0  3  0  0  0  0  0  0
   37.7910   28.0880   43.4610 C   0  0  0  0  0  0  0  0  0  0  0  0
   37.3780   26.8640   42.9380 C   0  0  0  0  0  0  0  0  0  0  0  0
   37.7670   26.5900   41.6630 C   0  0  0  0  0  0  0  0  0  0  0  0
   38.5190   27.4860   40.9700 N   0  0  0  0  0  0  0  0  0  0  0  0
   38.9030   28.6600   41.5020 C   0  0  0  0  0  0  0  0  0  0  0  0
   38.5250   28.9290   42.7430 N   0  0  0  0  0  0  0  0  0  0  0  0
   37.5220   28.3690   44.4560 H   0  0  0  0  0  0  0  0  0  0  0  0
   36.7790   26.1710   43.5150 H   0  0  0  0  0  0  0  0  0  0  0  0
   37.4120   25.3490   40.9900 C   0  0  0  0  0  0  0  0  0  0  0  0
   37.8860   24.1150   41.3260 C   0  0  0  0  0  0  0  0  0  0  0  0
   37.5330   22.9510   40.6720 C   0  0  0  0  0  0  0  0  0  0  0  0
   36.6530   22.9980   39.6120 C   0  0  0  0  0  0  0  0  0  0  0  0
   36.1410   24.2080   39.2270 C   0  0  0  0  0  0  0  0  0  0  0  0
   36.5280   25.3380   39.9160 C   0  0  0  0  0  0  0  0  0  0  0  0
   38.5850   24.0330   42.1570 H   0  0  0  0  0  0  0  0  0  0  0  0
   37.9480   21.9970   40.9890 H   0  0  0  0  0  0  0  0  0  0  0  0
   36.3720   22.0880   39.0950 H   0  0  0  0  0  0  0  0  0  0  0  0
   35.4450   24.2760   38.3960 H   0  0  0  0  0  0  0  0  0  0  0  0
   36.0890   26.2870   39.5690 H   0  0  0  0  0  0  0  0  0  0  0  0
  1  3  1  0  0  0  0
  1  4  1  0  0  0  0
  1 28  1  0  0  0  0
  2  1  1  0  0  0  0
  4  7  1  1  0  0  0
  5  8  1  0  0  0  0
  5  6  1  0  0  0  0
  5  4  1  0  0  0  0
  6  4  1  0  0  0  0
  6 10  1  1  0  0  0
  9  5  1  0  0  0  0
 11 14  1  6  0  0  0
 11 13  1  0  0  0  0
 11  6  1  0  0  0  0
 12 11  1  0  0  0  0
 12 15  1  0  0  0  0
 12 13  1  0  0  0  0
 13 17  1  1  0  0  0
 16 12  1  0  0  0  0
 19 18  1  0  0  0  0
 20 13  1  0  0  0  0
 20 19  2  0  0  0  0
 21 20  1  0  0  0  0
 22 21  1  0  0  0  0
 23 21  2  0  0  0  0
 23 25  1  0  0  0  0
 24 23  1  0  0  0  0
 25 26  2  0  0  0  0
 26 19  1  0  0  0  0
 27 28  2  0  0  0  0
 27 33  1  0  0  0  0
 29 35  1  0  0  0  0
 30 29  1  0  0  0  0
 30 36  1  0  0  0  0
 31 30  2  0  0  0  0
 32 33  2  0  0  0  0
 32 31  1  0  0  0  0
 33 34  1  0  0  0  0
 34 29  2  0  0  0  0
 37 38  1  0  0  0  0
 37 31  1  0  0  0  0
 38 43  1  0  0  0  0
 39 44  1  0  0  0  0
 39 38  2  0  0  0  0
 40 39  1  0  0  0  0
 41 40  2  0  0  0  0
 41 42  1  0  0  0  0
 42 37  2  0  0  0  0
 45 40  1  0  0  0  0
 46 41  1  0  0  0  0
 47 42  1  0  0  0  0
M  END
>  <minimizedAffinity>
-6.37756491

$$$$

 OpenBabel03252508193D

 47 51  0  0  1  0  0  0  0  0999 V2000
   37.1810   25.3970   39.6270 C   0  0  0  0  0  0  0  0  0  0  0  0
   38.1830   25.3980   39.2420 H   0  0  0  0  0  0  0  0  0  0  0  0
   36.4730   25.1630   38.7790 H   0  0  0  0  0  0  0  0  0  0  0  0
   36.8240   24.4890   40.7440 C   0  0  1  0  0  0  0  0  0  0  0  0
   37.7000   23.2910   40.8940 C   0  0  0  0  0  0  0  0  0  0  0  0
   37.7230   24.3380   41.9050 C   0  0  1  0  0  0  0  0  0  0  0  0
   35.7450   24.1550   40.7500 H   0  0  0  0  0  0  0  0  0  0  0  0
   37.3020   22.2910   41.1550 H   0  0  0  0  0  0  0  0  0  0  0  0
   38.6220   23.2030   40.2530 H   0  0  0  0  0  0  0  0  0  0  0  0
   37.2170   24.0960   42.8630 H   0  0  0  0  0  0  0  0  0  0  0  0
   38.8580   25.3050   42.0380 C   0  0  2  0  0  0  0  0  0  0  0  0
   39.6750   25.1340   43.3450 C   0  0  0  0  0  0  0  0  0  0  0  0
   38.7890   26.2950   43.2040 C   0  0  1  0  0  0  0  0  0  0  0  0
   39.5210   25.5450   41.2060 H   0  0  0  0  0  0  0  0  0  0  0  0
   39.3810   24.2880   44.0130 H   0  0  0  0  0  0  0  0  0  0  0  0
   40.7530   25.2840   43.3330 H   0  0  0  0  0  0  0  0  0  0  0  0
   37.8430   26.2160   43.8190 H   0  0  0  0  0  0  0  0  0  0  0  0
   37.3290   28.7410   43.6800 F   0  0  0  0  0  0  0  0  0  0  0  0
   38.5850   28.8760   43.1920 C   0  0  0  0  0  0  0  0  0  0  0  0
   39.2230   27.6710   42.9870 C   0  0  0  0  0  0  0  0  0  0  0  0
   40.5270   27.7700   42.4810 C   0  0  0  0  0  0  0  0  0  0  0  0
   41.1640   26.8980   42.2640 H   0  0  0  0  0  0  0  0  0  0  0  0
   41.1410   28.9580   42.2040 C   0  0  0  0  0  0  0  0  0  0  0  0
   42.1440   29.0410   41.8150 H   0  0  0  0  0  0  0  0  0  0  0  0
   40.4810   30.1450   42.4180 C   0  0  0  0  0  3  0  0  0  0  0  0
   39.2010   30.0770   42.9140 C   0  0  0  0  0  3  0  0  0  0  0  0
   37.5820   27.7080   39.3850 C   0  0  0  0  0  3  0  0  0  0  0  0
   36.8990   26.8370   39.9970 C   0  0  0  0  0  3  0  0  0  0  0  0
   36.1940   30.8580   40.7020 C   0  0  0  0  0  0  0  0  0  0  0  0
   37.1720   31.7930   40.3680 C   0  0  0  0  0  0  0  0  0  0  0  0
   38.2620   31.3150   39.7060 C   0  0  0  0  0  0  0  0  0  0  0  0
   38.3540   29.9930   39.4050 N   0  0  0  0  0  0  0  0  0  0  0  0
   37.3920   29.1140   39.7420 C   0  0  0  0  0  0  0  0  0  0  0  0
   36.3310   29.5760   40.3850 N   0  0  0  0  0  0  0  0  0  0  0  0
   35.3110   31.1620   41.2220 H   0  0  0  0  0  0  0  0  0  0  0  0
   37.0710   32.8400   40.6210 H   0  0  0  0  0  0  0  0  0  0  0  0
   39.3590   32.1770   39.2910 C   0  0  0  0  0  0  0  0  0  0  0  0
   39.7780   33.2860   39.9620 C   0  0  0  0  0  0  0  0  0  0  0  0
   40.8240   34.0880   39.5480 C   0  0  0  0  0  0  0  0  0  0  0  0
   41.5090   33.7810   38.3920 C   0  0  0  0  0  0  0  0  0  0  0  0
   41.1360   32.6780   37.6720 C   0  0  0  0  0  0  0  0  0  0  0  0
   40.0850   31.9130   38.1330 C   0  0  0  0  0  0  0  0  0  0  0  0
   39.2630   33.5660   40.8800 H   0  0  0  0  0  0  0  0  0  0  0  0
   41.1080   34.9620   40.1300 H   0  0  0  0  0  0  0  0  0  0  0  0
   42.3290   34.4060   38.0620 H   0  0  0  0  0  0  0  0  0  0  0  0
   41.6570   32.4100   36.7570 H   0  0  0  0  0  0  0  0  0  0  0  0
   39.8220   31.0360   37.5200 H   0  0  0  0  0  0  0  0  0  0  0  0
  1 28  1  0  0  0  0
  1  4  1  0  0  0  0
  2  1  1  0  0  0  0
  3  1  1  0  0  0  0
  4  7  1  1  0  0  0
  4  5  1  0  0  0  0
  4  6  1  0  0  0  0
  5  8  1  0  0  0  0
  5  6  1  0  0  0  0
  6 11  1  0  0  0  0
  6 10  1  1  0  0  0
  9  5  1  0  0  0  0
 11 14  1  6  0  0  0
 11 13  1  0  0  0  0
 11 12  1  0  0  0  0
 12 15  1  0  0  0  0
 13 12  1  0  0  0  0
 13 17  1  1  0  0  0
 16 12  1  0  0  0  0
 19 18  1  0  0  0  0
 20 19  1  0  0  0  0
 20 13  1  0  0  0  0
 21 20  2  0  0  0  0
 22 21  1  0  0  0  0
 23 25  2  0  0  0  0
 23 21  1  0  0  0  0
 24 23  1  0  0  0  0
 25 26  1  0  0  0  0
 26 19  2  0  0  0  0
 27 33  1  0  0  0  0
 27 28  2  0  0  0  0
 29 35  1  0  0  0  0
 30 36  1  0  0  0  0
 30 29  2  0  0  0  0
 31 30  1  0  0  0  0
 32 31  2  0  0  0  0
 32 33  1  0  0  0  0
 33 34  2  0  0  0  0
 34 29  1  0  0  0  0
 37 31  1  0  0  0  0
 37 38  1  0  0  0  0
 38 43  1  0  0  0  0
 39 38  2  0  0  0  0
 39 44  1  0  0  0  0
 40 39  1  0  0  0  0
 41 42  1  0  0  0  0
 41 40  2  0  0  0  0
 42 37  2  0  0  0  0
 45 40  1  0  0  0  0
 46 41  1  0  0  0  0
 47 42  1  0  0  0  0
M  END
>  <minimizedAffinity>
-6.33434153

$$$$

 OpenBabel03252508193D

 47 51  0  0  1  0  0  0  0  0999 V2000
   38.7000   25.4380   40.2300 C   0  0  0  0  0  0  0  0  0  0  0  0
   39.4500   25.6120   40.9770 H   0  0  0  0  0  0  0  0  0  0  0  0
   39.0980   24.6790   39.4950 H   0  0  0  0  0  0  0  0  0  0  0  0
   37.3510   24.9750   40.6360 C   0  0  1  0  0  0  0  0  0  0  0  0
   37.3260   24.0110   41.7730 C   0  0  0  0  0  0  0  0  0  0  0  0
   36.7920   25.3540   41.9480 C   0  0  1  0  0  0  0  0  0  0  0  0
   36.7240   24.5610   39.7930 H   0  0  0  0  0  0  0  0  0  0  0  0
   36.6380   23.1430   41.8040 H   0  0  0  0  0  0  0  0  0  0  0  0
   38.2840   23.7850   42.3210 H   0  0  0  0  0  0  0  0  0  0  0  0
   35.6850   25.4330   41.9830 H   0  0  0  0  0  0  0  0  0  0  0  0
   37.5060   26.4100   42.7330 C   0  0  2  0  0  0  0  0  0  0  0  0
   36.5680   27.2850   43.6030 C   0  0  0  0  0  0  0  0  0  0  0  0
   37.1710   27.8660   42.3980 C   0  0  1  0  0  0  0  0  0  0  0  0
   38.4390   26.2120   43.2620 H   0  0  0  0  0  0  0  0  0  0  0  0
   35.4850   27.0100   43.6060 H   0  0  0  0  0  0  0  0  0  0  0  0
   36.9000   27.6280   44.5810 H   0  0  0  0  0  0  0  0  0  0  0  0
   36.4400   27.9840   41.5420 H   0  0  0  0  0  0  0  0  0  0  0  0
   37.0310   30.6710   41.7290 F   0  0  0  0  0  0  0  0  0  0  0  0
   38.2510   30.1960   42.0740 C   0  0  0  0  0  0  0  0  0  0  0  0
   38.2460   28.8510   42.3790 C   0  0  0  0  0  0  0  0  0  0  0  0
   39.4930   28.3210   42.7390 C   0  0  0  0  0  0  0  0  0  0  0  0
   39.6510   27.2650   43.0100 H   0  0  0  0  0  0  0  0  0  0  0  0
   40.6400   29.0600   42.7930 C   0  0  0  0  0  0  0  0  0  0  0  0
   41.6020   28.6580   43.0700 H   0  0  0  0  0  0  0  0  0  0  0  0
   40.6160   30.4000   42.4840 C   0  0  0  0  0  3  0  0  0  0  0  0
   39.4060   30.9440   42.1270 C   0  0  0  0  0  3  0  0  0  0  0  0
   37.5130   26.9510   38.8630 C   0  0  0  0  0  3  0  0  0  0  0  0
   38.6100   26.7340   39.4540 C   0  0  0  0  0  3  0  0  0  0  0  0
   36.8060   29.2950   36.1090 C   0  0  0  0  0  0  0  0  0  0  0  0
   37.1940   30.5240   36.6400 C   0  0  0  0  0  0  0  0  0  0  0  0
   37.6820   30.5060   37.9110 C   0  0  0  0  0  0  0  0  0  0  0  0
   37.7710   29.3330   38.5920 N   0  0  0  0  0  0  0  0  0  0  0  0
   37.3890   28.1610   38.0520 C   0  0  0  0  0  0  0  0  0  0  0  0
   36.9150   28.1770   36.8160 N   0  0  0  0  0  0  0  0  0  0  0  0
   36.4150   29.2350   35.1170 H   0  0  0  0  0  0  0  0  0  0  0  0
   37.1100   31.4420   36.0730 H   0  0  0  0  0  0  0  0  0  0  0  0
   38.1280   31.7130   38.5910 C   0  0  0  0  0  0  0  0  0  0  0  0
   39.4290   32.0910   38.7370 C   0  0  0  0  0  0  0  0  0  0  0  0
   39.8280   33.2430   39.3870 C   0  0  0  0  0  0  0  0  0  0  0  0
   38.8840   34.0850   39.9350 C   0  0  0  0  0  0  0  0  0  0  0  0
   37.5580   33.7600   39.8210 C   0  0  0  0  0  0  0  0  0  0  0  0
   37.2180   32.5980   39.1610 C   0  0  0  0  0  0  0  0  0  0  0  0
   40.2080   31.4540   38.3200 H   0  0  0  0  0  0  0  0  0  0  0  0
   40.8850   33.4870   39.4700 H   0  0  0  0  0  0  0  0  0  0  0  0
   39.1910   34.9890   40.4450 H   0  0  0  0  0  0  0  0  0  0  0  0
   36.7920   34.4040   40.2410 H   0  0  0  0  0  0  0  0  0  0  0  0
   36.1400   32.3800   39.0950 H   0  0  0  0  0  0  0  0  0  0  0  0
  1  4  1  0  0  0  0
  1  2  1  0  0  0  0
  3  1  1  0  0  0  0
  4  7  1  6  0  0  0
  4  5  1  0  0  0  0
  4  6  1  0  0  0  0
  5  8  1  0  0  0  0
  5  6  1  0  0  0  0
  5  9  1  0  0  0  0
  6 10  1  1  0  0  0
  6 11  1  0  0  0  0
 11 14  1  1  0  0  0
 11 12  1  0  0  0  0
 12 15  1  0  0  0  0
 12 16  1  0  0  0  0
 13 17  1  6  0  0  0
 13 11  1  0  0  0  0
 13 12  1  0  0  0  0
 18 19  1  0  0  0  0
 19 26  2  0  0  0  0
 19 20  1  0  0  0  0
 20 13  1  0  0  0  0
 20 21  2  0  0  0  0
 21 23  1  0  0  0  0
 21 22  1  0  0  0  0
 23 24  1  0  0  0  0
 25 23  2  0  0  0  0
 26 25  1  0  0  0  0
 27 28  2  0  0  0  0
 28  1  1  0  0  0  0
 29 30  2  0  0  0  0
 29 34  1  0  0  0  0
 30 31  1  0  0  0  0
 31 37  1  0  0  0  0
 31 32  2  0  0  0  0
 33 32  1  0  0  0  0
 33 27  1  0  0  0  0
 34 33  2  0  0  0  0
 35 29  1  0  0  0  0
 36 30  1  0  0  0  0
 37 38  2  0  0  0  0
 37 42  1  0  0  0  0
 38 39  1  0  0  0  0
 39 44  1  0  0  0  0
 39 40  2  0  0  0  0
 40 45  1  0  0  0  0
 41 40  1  0  0  0  0
 41 46  1  0  0  0  0
 42 41  2  0  0  0  0
 43 38  1  0  0  0  0
 47 42  1  0  0  0  0
M  END
>  <minimizedAffinity>
-6.29374075

$$$$

 OpenBabel03252508193D

 47 51  0  0  1  0  0  0  0  0999 V2000
   33.9440   28.3710   37.4430 C   0  0  0  0  0  0  0  0  0  0  0  0
   32.9130   28.5670   37.6710 H   0  0  0  0  0  0  0  0  0  0  0  0
   34.1180   27.2580   37.5100 H   0  0  0  0  0  0  0  0  0  0  0  0
   34.5070   28.8160   36.1450 C   0  0  1  0  0  0  0  0  0  0  0  0
   34.2880   27.8810   35.0040 C   0  0  0  0  0  0  0  0  0  0  0  0
   33.6160   29.1720   35.0240 C   0  0  1  0  0  0  0  0  0  0  0  0
   35.6000   29.0990   36.1810 H   0  0  0  0  0  0  0  0  0  0  0  0
   35.0640   27.6820   34.2390 H   0  0  0  0  0  0  0  0  0  0  0  0
   33.6300   26.9780   35.1530 H   0  0  0  0  0  0  0  0  0  0  0  0
   34.0190   29.9370   34.3270 H   0  0  0  0  0  0  0  0  0  0  0  0
   32.1540   29.3140   35.3120 C   0  0  2  0  0  0  0  0  0  0  0  0
   31.3800   30.1190   34.2360 C   0  0  0  0  0  0  0  0  0  0  0  0
   31.6310   30.7350   35.5440 C   0  0  1  0  0  0  0  0  0  0  0  0
   31.5470   28.4840   35.6730 H   0  0  0  0  0  0  0  0  0  0  0  0
   31.9630   30.4530   33.3430 H   0  0  0  0  0  0  0  0  0  0  0  0
   30.3650   29.8310   33.9710 H   0  0  0  0  0  0  0  0  0  0  0  0
   32.4350   31.5310   35.5200 H   0  0  0  0  0  0  0  0  0  0  0  0
   29.6150   32.7970   35.6910 F   0  0  0  0  0  0  0  0  0  0  0  0
   29.6450   31.9110   36.7150 C   0  0  0  0  0  0  0  0  0  0  0  0
   30.6310   30.9570   36.5820 C   0  0  0  0  0  0  0  0  0  0  0  0
   30.6940   30.0230   37.6250 C   0  0  0  0  0  0  0  0  0  0  0  0
   31.4270   29.2010   37.6640 H   0  0  0  0  0  0  0  0  0  0  0  0
   29.8540   30.0350   38.7020 C   0  0  0  0  0  0  0  0  0  0  0  0
   29.8970   29.3190   39.5080 H   0  0  0  0  0  0  0  0  0  0  0  0
   28.8790   30.9990   38.8090 C   0  0  0  0  0  3  0  0  0  0  0  0
   28.7950   31.9270   37.7990 C   0  0  0  0  0  3  0  0  0  0  0  0
   35.7100   28.2910   39.0050 C   0  0  0  0  0  3  0  0  0  0  0  0
   34.7210   28.9670   38.5960 C   0  0  0  0  0  3  0  0  0  0  0  0
   37.2430   28.6390   42.3380 C   0  0  0  0  0  0  0  0  0  0  0  0
   37.9410   29.8420   42.2350 C   0  0  0  0  0  0  0  0  0  0  0  0
   37.8590   30.4860   41.0380 C   0  0  0  0  0  0  0  0  0  0  0  0
   37.1280   29.9550   40.0230 N   0  0  0  0  0  0  0  0  0  0  0  0
   36.4640   28.7910   40.1540 C   0  0  0  0  0  0  0  0  0  0  0  0
   36.5410   28.1630   41.3170 N   0  0  0  0  0  0  0  0  0  0  0  0
   37.2620   28.0810   43.2480 H   0  0  0  0  0  0  0  0  0  0  0  0
   38.5160   30.2400   43.0600 H   0  0  0  0  0  0  0  0  0  0  0  0
   38.5340   31.7520   40.7880 C   0  0  0  0  0  0  0  0  0  0  0  0
   37.9150   32.9020   40.4000 C   0  0  0  0  0  0  0  0  0  0  0  0
   38.5760   34.0930   40.1690 C   0  0  0  0  0  0  0  0  0  0  0  0
   39.9440   34.1610   40.3290 C   0  0  0  0  0  0  0  0  0  0  0  0
   40.6230   33.0380   40.7190 C   0  0  0  0  0  0  0  0  0  0  0  0
   39.9110   31.8770   40.9350 C   0  0  0  0  0  0  0  0  0  0  0  0
   36.8340   32.8920   40.2600 H   0  0  0  0  0  0  0  0  0  0  0  0
   38.0220   34.9770   39.8600 H   0  0  0  0  0  0  0  0  0  0  0  0
   40.4680   35.0920   40.1500 H   0  0  0  0  0  0  0  0  0  0  0  0
   41.7010   33.0610   40.8540 H   0  0  0  0  0  0  0  0  0  0  0  0
   40.5020   31.0010   41.2470 H   0  0  0  0  0  0  0  0  0  0  0  0
  1  3  1  0  0  0  0
  1  2  1  0  0  0  0
  1 28  1  0  0  0  0
  4  7  1  1  0  0  0
  4  1  1  0  0  0  0
  5  6  1  0  0  0  0
  5  9  1  0  0  0  0
  5  4  1  0  0  0  0
  6 10  1  6  0  0  0
  6 11  1  0  0  0  0
  6  4  1  0  0  0  0
  8  5  1  0  0  0  0
 11 13  1  0  0  0  0
 11 14  1  1  0  0  0
 12 11  1  0  0  0  0
 12 13  1  0  0  0  0
 13 17  1  6  0  0  0
 13 20  1  0  0  0  0
 15 12  1  0  0  0  0
 16 12  1  0  0  0  0
 18 19  1  0  0  0  0
 19 26  1  0  0  0  0
 20 19  2  0  0  0  0
 20 21  1  0  0  0  0
 21 22  1  0  0  0  0
 21 23  2  0  0  0  0
 23 25  1  0  0  0  0
 23 24  1  0  0  0  0
 26 25  2  0  0  0  0
 27 33  1  0  0  0  0
 28 27  2  0  0  0  0
 29 35  1  0  0  0  0
 30 29  1  0  0  0  0
 30 36  1  0  0  0  0
 31 30  2  0  0  0  0
 32 33  2  0  0  0  0
 32 31  1  0  0  0  0
 33 34  1  0  0  0  0
 34 29  2  0  0  0  0
 37 42  1  0  0  0  0
 37 31  1  0  0  0  0
 38 37  2  0  0  0  0
 39 40  2  0  0  0  0
 39 38  1  0  0  0  0
 40 41  1  0  0  0  0
 41 46  1  0  0  0  0
 41 42  2  0  0  0  0
 42 47  1  0  0  0  0
 43 38  1  0  0  0  0
 44 39  1  0  0  0  0
 45 40  1  0  0  0  0
M  END
>  <minimizedAffinity>
-6.20694685

$$$$

 OpenBabel03252508193D

 47 51  0  0  1  0  0  0  0  0999 V2000
   37.3260   32.5200   40.1200 C   0  0  0  0  0  0  0  0  0  0  0  0
   37.1070   32.7960   41.1340 H   0  0  0  0  0  0  0  0  0  0  0  0
   36.6580   33.1200   39.4360 H   0  0  0  0  0  0  0  0  0  0  0  0
   38.7080   32.6610   39.6020 C   0  0  1  0  0  0  0  0  0  0  0  0
   39.5270   33.7210   40.2570 C   0  0  0  0  0  0  0  0  0  0  0  0
   39.8650   32.3190   40.4510 C   0  0  1  0  0  0  0  0  0  0  0  0
   38.7780   32.7850   38.4820 H   0  0  0  0  0  0  0  0  0  0  0  0
   40.2180   34.3750   39.6900 H   0  0  0  0  0  0  0  0  0  0  0  0
   39.1100   34.2590   41.1550 H   0  0  0  0  0  0  0  0  0  0  0  0
   40.7610   31.9580   39.9030 H   0  0  0  0  0  0  0  0  0  0  0  0
   39.6000   31.5970   41.7350 C   0  0  2  0  0  0  0  0  0  0  0  0
   40.8780   31.2960   42.5600 C   0  0  0  0  0  0  0  0  0  0  0  0
   40.1960   30.1930   41.8740 C   0  0  1  0  0  0  0  0  0  0  0  0
   38.7770   31.8670   42.3980 H   0  0  0  0  0  0  0  0  0  0  0  0
   41.8420   31.6920   42.1540 H   0  0  0  0  0  0  0  0  0  0  0  0
   40.8460   31.3470   43.6460 H   0  0  0  0  0  0  0  0  0  0  0  0
   40.7410   29.8310   40.9510 H   0  0  0  0  0  0  0  0  0  0  0  0
   41.1030   27.7310   43.0810 F   0  0  0  0  0  0  0  0  0  0  0  0
   39.7690   27.9630   43.1170 C   0  0  0  0  0  0  0  0  0  0  0  0
   39.4050   29.1520   42.5220 C   0  0  0  0  0  0  0  0  0  0  0  0
   38.0310   29.4260   42.5370 C   0  0  0  0  0  0  0  0  0  0  0  0
   37.5850   30.3350   42.1020 H   0  0  0  0  0  0  0  0  0  0  0  0
   37.1010   28.5930   43.0930 C   0  0  0  0  0  0  0  0  0  0  0  0
   36.0420   28.7980   43.1080 H   0  0  0  0  0  0  0  0  0  0  0  0
   37.4920   27.4120   43.6800 C   0  0  0  0  0  3  0  0  0  0  0  0
   38.8350   27.1200   43.6780 C   0  0  0  0  0  3  0  0  0  0  0  0
   37.1350   30.5080   38.9040 C   0  0  0  0  0  3  0  0  0  0  0  0
   36.8480   31.0900   39.9900 C   0  0  0  0  0  3  0  0  0  0  0  0
   35.2880   27.5670   37.6700 C   0  0  0  0  0  0  0  0  0  0  0  0
   35.8440   26.5200   38.4050 C   0  0  0  0  0  0  0  0  0  0  0  0
   36.8220   26.8570   39.2900 C   0  0  0  0  0  0  0  0  0  0  0  0
   37.2070   28.1540   39.4240 N   0  0  0  0  0  0  0  0  0  0  0  0
   36.6510   29.1430   38.7000 C   0  0  0  0  0  0  0  0  0  0  0  0
   35.6990   28.8180   37.8390 N   0  0  0  0  0  0  0  0  0  0  0  0
   34.5160   27.3760   36.9580 H   0  0  0  0  0  0  0  0  0  0  0  0
   35.5170   25.4970   38.2760 H   0  0  0  0  0  0  0  0  0  0  0  0
   37.4890   25.8690   40.1260 C   0  0  0  0  0  0  0  0  0  0  0  0
   36.8540   24.9780   40.9390 C   0  0  0  0  0  0  0  0  0  0  0  0
   37.5100   24.0490   41.7230 C   0  0  0  0  0  0  0  0  0  0  0  0
   38.8870   23.9890   41.7110 C   0  0  0  0  0  0  0  0  0  0  0  0
   39.5830   24.8580   40.9130 C   0  0  0  0  0  0  0  0  0  0  0  0
   38.8760   25.7640   40.1510 C   0  0  0  0  0  0  0  0  0  0  0  0
   35.7660   24.9920   40.9800 H   0  0  0  0  0  0  0  0  0  0  0  0
   36.9430   23.3650   42.3520 H   0  0  0  0  0  0  0  0  0  0  0  0
   39.4060   23.2620   42.3240 H   0  0  0  0  0  0  0  0  0  0  0  0
   40.6680   24.8340   40.8820 H   0  0  0  0  0  0  0  0  0  0  0  0
   39.4800   26.4420   39.5270 H   0  0  0  0  0  0  0  0  0  0  0  0
  1  2  1  0  0  0  0
  3  1  1  0  0  0  0
  4  7  1  6  0  0  0
  4  1  1  0  0  0  0
  4  5  1  0  0  0  0
  4  6  1  0  0  0  0
  5  6  1  0  0  0  0
  5  9  1  0  0  0  0
  6 10  1  6  0  0  0
  6 11  1  0  0  0  0
  8  5  1  0  0  0  0
 11 13  1  0  0  0  0
 11 14  1  1  0  0  0
 11 12  1  0  0  0  0
 12 16  1  0  0  0  0
 13 17  1  6  0  0  0
 13 20  1  0  0  0  0
 13 12  1  0  0  0  0
 15 12  1  0  0  0  0
 18 19  1  0  0  0  0
 19 26  1  0  0  0  0
 20 21  1  0  0  0  0
 20 19  2  0  0  0  0
 21 23  2  0  0  0  0
 22 21  1  0  0  0  0
 23 24  1  0  0  0  0
 23 25  1  0  0  0  0
 26 25  2  0  0  0  0
 27 28  2  0  0  0  0
 28  1  1  0  0  0  0
 29 34  2  0  0  0  0
 29 30  1  0  0  0  0
 30 31  2  0  0  0  0
 31 32  1  0  0  0  0
 31 37  1  0  0  0  0
 33 27  1  0  0  0  0
 33 32  2  0  0  0  0
 34 33  1  0  0  0  0
 35 29  1  0  0  0  0
 36 30  1  0  0  0  0
 37 42  2  0  0  0  0
 37 38  1  0  0  0  0
 38 43  1  0  0  0  0
 38 39  2  0  0  0  0
 39 44  1  0  0  0  0
 40 39  1  0  0  0  0
 40 45  1  0  0  0  0
 41 40  2  0  0  0  0
 42 41  1  0  0  0  0
 46 41  1  0  0  0  0
 47 42  1  0  0  0  0
M  END
>  <minimizedAffinity>
-6.16529942

$$$$

 OpenBabel03252508193D

 47 51  0  0  1  0  0  0  0  0999 V2000
   36.7730   29.4980   38.5190 C   0  0  0  0  0  0  0  0  0  0  0  0
   37.3240   28.6060   38.7500 H   0  0  0  0  0  0  0  0  0  0  0  0
   36.2470   29.3450   37.5310 H   0  0  0  0  0  0  0  0  0  0  0  0
   35.7550   30.0020   39.4720 C   0  0  1  0  0  0  0  0  0  0  0  0
   34.7120   29.0130   39.8690 C   0  0  0  0  0  0  0  0  0  0  0  0
   35.6880   29.4700   40.8470 C   0  0  1  0  0  0  0  0  0  0  0  0
   35.2480   30.9590   39.1540 H   0  0  0  0  0  0  0  0  0  0  0  0
   33.6460   29.2880   39.9940 H   0  0  0  0  0  0  0  0  0  0  0  0
   34.8150   27.9430   39.5320 H   0  0  0  0  0  0  0  0  0  0  0  0
   35.3100   30.1840   41.6100 H   0  0  0  0  0  0  0  0  0  0  0  0
   36.8190   28.6110   41.3190 C   0  0  2  0  0  0  0  0  0  0  0  0
   36.5320   27.8750   42.6540 C   0  0  0  0  0  0  0  0  0  0  0  0
   37.4750   29.0000   42.6480 C   0  0  1  0  0  0  0  0  0  0  0  0
   37.3830   27.9650   40.6450 H   0  0  0  0  0  0  0  0  0  0  0  0
   35.5110   28.0070   43.0900 H   0  0  0  0  0  0  0  0  0  0  0  0
   36.9090   26.8660   42.8080 H   0  0  0  0  0  0  0  0  0  0  0  0
   37.0530   29.9420   43.1110 H   0  0  0  0  0  0  0  0  0  0  0  0
   39.4870   30.9930   42.0870 F   0  0  0  0  0  0  0  0  0  0  0  0
   39.9350   29.7950   42.5320 C   0  0  0  0  0  0  0  0  0  0  0  0
   38.9230   28.8910   42.7780 C   0  0  0  0  0  0  0  0  0  0  0  0
   39.3480   27.6380   43.2400 C   0  0  0  0  0  0  0  0  0  0  0  0
   38.6610   26.8110   43.4800 H   0  0  0  0  0  0  0  0  0  0  0  0
   40.6600   27.3110   43.4390 C   0  0  0  0  0  0  0  0  0  0  0  0
   40.9930   26.3490   43.7940 H   0  0  0  0  0  0  0  0  0  0  0  0
   41.6490   28.2330   43.1850 C   0  0  0  0  0  3  0  0  0  0  0  0
   41.2590   29.4700   42.7320 C   0  0  0  0  0  3  0  0  0  0  0  0
   38.8990   30.4420   38.9110 C   0  0  0  0  0  3  0  0  0  0  0  0
   37.8250   30.5520   38.2520 C   0  0  0  0  0  3  0  0  0  0  0  0
   40.8100   33.5890   39.0720 C   0  0  0  0  0  0  0  0  0  0  0  0
   41.9580   33.2930   38.3380 C   0  0  0  0  0  0  0  0  0  0  0  0
   42.0340   32.0380   37.8170 C   0  0  0  0  0  0  0  0  0  0  0  0
   41.0260   31.1490   38.0210 N   0  0  0  0  0  0  0  0  0  0  0  0
   39.9290   31.4650   38.7350 C   0  0  0  0  0  0  0  0  0  0  0  0
   39.8530   32.6850   39.2430 N   0  0  0  0  0  0  0  0  0  0  0  0
   40.6840   34.5550   39.5100 H   0  0  0  0  0  0  0  0  0  0  0  0
   42.7450   34.0210   38.1930 H   0  0  0  0  0  0  0  0  0  0  0  0
   43.1720   31.5910   37.0260 C   0  0  0  0  0  0  0  0  0  0  0  0
   44.4310   32.1050   37.1100 C   0  0  0  0  0  0  0  0  0  0  0  0
   45.4950   31.6630   36.3480 C   0  0  0  0  0  0  0  0  0  0  0  0
   45.3130   30.6440   35.4380 C   0  0  0  0  0  0  0  0  0  0  0  0
   44.0700   30.0860   35.3070 C   0  0  0  0  0  0  0  0  0  0  0  0
   43.0440   30.5660   36.0930 C   0  0  0  0  0  0  0  0  0  0  0  0
   44.6190   32.9130   37.8160 H   0  0  0  0  0  0  0  0  0  0  0  0
   46.4780   32.1180   36.4640 H   0  0  0  0  0  0  0  0  0  0  0  0
   46.1440   30.2940   34.8380 H   0  0  0  0  0  0  0  0  0  0  0  0
   43.8960   29.2810   34.5980 H   0  0  0  0  0  0  0  0  0  0  0  0
   42.0630   30.0850   35.9520 H   0  0  0  0  0  0  0  0  0  0  0  0
  1  2  1  0  0  0  0
  1  4  1  0  0  0  0
  3  1  1  0  0  0  0
  4  7  1  6  0  0  0
  4  5  1  0  0  0  0
  4  6  1  0  0  0  0
  5  8  1  0  0  0  0
  5  6  1  0  0  0  0
  6 11  1  0  0  0  0
  6 10  1  1  0  0  0
  9  5  1  0  0  0  0
 11 14  1  6  0  0  0
 11 13  1  0  0  0  0
 11 12  1  0  0  0  0
 12 16  1  0  0  0  0
 12 15  1  0  0  0  0
 13 12  1  0  0  0  0
 13 20  1  0  0  0  0
 13 17  1  1  0  0  0
 18 19  1  0  0  0  0
 19 26  2  0  0  0  0
 19 20  1  0  0  0  0
 20 21  2  0  0  0  0
 21 23  1  0  0  0  0
 21 22  1  0  0  0  0
 23 24  1  0  0  0  0
 25 23  2  0  0  0  0
 26 25  1  0  0  0  0
 28  1  1  0  0  0  0
 28 27  2  0  0  0  0
 29 34  1  0  0  0  0
 29 35  1  0  0  0  0
 30 29  2  0  0  0  0
 31 32  2  0  0  0  0
 31 30  1  0  0  0  0
 32 33  1  0  0  0  0
 33 27  1  0  0  0  0
 33 34  2  0  0  0  0
 36 30  1  0  0  0  0
 37 38  1  0  0  0  0
 37 31  1  0  0  0  0
 38 43  1  0  0  0  0
 39 44  1  0  0  0  0
 39 38  2  0  0  0  0
 40 39  1  0  0  0  0
 41 40  2  0  0  0  0
 41 42  1  0  0  0  0
 42 37  2  0  0  0  0
 45 40  1  0  0  0  0
 46 41  1  0  0  0  0
 47 42  1  0  0  0  0
M  END
>  <minimizedAffinity>
-6.11947203

$$$$

 OpenBabel03252508193D

 47 51  0  0  1  0  0  0  0  0999 V2000
   38.7400   25.5450   40.2840 C   0  0  0  0  0  0  0  0  0  0  0  0
   39.5380   25.8750   40.9220 H   0  0  0  0  0  0  0  0  0  0  0  0
   39.1630   24.8200   39.5300 H   0  0  0  0  0  0  0  0  0  0  0  0
   37.5450   24.8970   40.8770 C   0  0  1  0  0  0  0  0  0  0  0  0
   37.7750   24.2100   42.1800 C   0  0  0  0  0  0  0  0  0  0  0  0
   36.9560   25.4120   42.1280 C   0  0  1  0  0  0  0  0  0  0  0  0
   37.0020   24.1910   40.1830 H   0  0  0  0  0  0  0  0  0  0  0  0
   37.3050   23.2400   42.4340 H   0  0  0  0  0  0  0  0  0  0  0  0
   38.7770   24.3160   42.6860 H   0  0  0  0  0  0  0  0  0  0  0  0
   35.8620   25.2550   42.2330 H   0  0  0  0  0  0  0  0  0  0  0  0
   37.4360   26.7370   42.6330 C   0  0  2  0  0  0  0  0  0  0  0  0
   36.4950   27.3870   43.6790 C   0  0  0  0  0  0  0  0  0  0  0  0
   36.5570   27.9530   42.3270 C   0  0  1  0  0  0  0  0  0  0  0  0
   38.4790   26.9170   42.8970 H   0  0  0  0  0  0  0  0  0  0  0  0
   35.6040   26.7890   43.9920 H   0  0  0  0  0  0  0  0  0  0  0  0
   36.9160   27.9490   44.5110 H   0  0  0  0  0  0  0  0  0  0  0  0
   35.6470   27.7160   41.6980 H   0  0  0  0  0  0  0  0  0  0  0  0
   35.4890   30.1280   40.7570 F   0  0  0  0  0  0  0  0  0  0  0  0
   36.7490   30.2870   41.2260 C   0  0  0  0  0  0  0  0  0  0  0  0
   37.1970   29.2120   41.9640 C   0  0  0  0  0  0  0  0  0  0  0  0
   38.5000   29.3390   42.4650 C   0  0  0  0  0  0  0  0  0  0  0  0
   38.9980   28.5660   43.0720 H   0  0  0  0  0  0  0  0  0  0  0  0
   39.2870   30.4350   42.2520 C   0  0  0  0  0  0  0  0  0  0  0  0
   40.2900   30.5390   42.6350 H   0  0  0  0  0  0  0  0  0  0  0  0
   38.8150   31.4940   41.5110 C   0  0  0  0  0  3  0  0  0  0  0  0
   37.5400   31.3950   41.0090 C   0  0  0  0  0  3  0  0  0  0  0  0
   39.2370   27.6560   39.3560 C   0  0  0  0  0  3  0  0  0  0  0  0
   38.3450   26.7680   39.4850 C   0  0  0  0  0  3  0  0  0  0  0  0
   37.4330   30.2360   37.4400 C   0  0  0  0  0  0  0  0  0  0  0  0
   38.3750   31.2590   37.3340 C   0  0  0  0  0  0  0  0  0  0  0  0
   39.5840   31.0290   37.9150 C   0  0  0  0  0  0  0  0  0  0  0  0
   39.8230   29.8540   38.5550 N   0  0  0  0  0  0  0  0  0  0  0  0
   38.8930   28.8840   38.6400 C   0  0  0  0  0  0  0  0  0  0  0  0
   37.7160   29.1060   38.0750 N   0  0  0  0  0  0  0  0  0  0  0  0
   36.4630   30.3490   37.0070 H   0  0  0  0  0  0  0  0  0  0  0  0
   38.1550   32.1850   36.8190 H   0  0  0  0  0  0  0  0  0  0  0  0
   40.6630   32.0060   37.8810 C   0  0  0  0  0  0  0  0  0  0  0  0
   41.8110   31.8750   37.1580 C   0  0  0  0  0  0  0  0  0  0  0  0
   42.8210   32.8170   37.1410 C   0  0  0  0  0  0  0  0  0  0  0  0
   42.6980   33.9700   37.8860 C   0  0  0  0  0  0  0  0  0  0  0  0
   41.5670   34.1610   38.6330 C   0  0  0  0  0  0  0  0  0  0  0  0
   40.5900   33.1870   38.6120 C   0  0  0  0  0  0  0  0  0  0  0  0
   41.9500   30.9780   36.5570 H   0  0  0  0  0  0  0  0  0  0  0  0
   43.7150   32.6510   36.5430 H   0  0  0  0  0  0  0  0  0  0  0  0
   43.4870   34.7120   37.8760 H   0  0  0  0  0  0  0  0  0  0  0  0
   41.4410   35.0600   39.2290 H   0  0  0  0  0  0  0  0  0  0  0  0
   39.6990   33.3860   39.2280 H   0  0  0  0  0  0  0  0  0  0  0  0
  1  4  1  0  0  0  0
  1  2  1  0  0  0  0
  3  1  1  0  0  0  0
  4  7  1  6  0  0  0
  4  6  1  0  0  0  0
  4  5  1  0  0  0  0
  5  8  1  0  0  0  0
  5  9  1  0  0  0  0
  6  5  1  0  0  0  0
  6 10  1  1  0  0  0
  6 11  1  0  0  0  0
 11 14  1  1  0  0  0
 11 12  1  0  0  0  0
 12 15  1  0  0  0  0
 12 16  1  0  0  0  0
 13 17  1  6  0  0  0
 13 11  1  0  0  0  0
 13 12  1  0  0  0  0
 18 19  1  0  0  0  0
 19 20  1  0  0  0  0
 20 13  1  0  0  0  0
 20 21  2  0  0  0  0
 21 22  1  0  0  0  0
 23 21  1  0  0  0  0
 23 24  1  0  0  0  0
 25 23  2  0  0  0  0
 26 19  2  0  0  0  0
 26 25  1  0  0  0  0
 27 28  2  0  0  0  0
 28  1  1  0  0  0  0
 29 34  1  0  0  0  0
 30 29  2  0  0  0  0
 30 31  1  0  0  0  0
 31 32  2  0  0  0  0
 32 33  1  0  0  0  0
 33 27  1  0  0  0  0
 34 33  2  0  0  0  0
 35 29  1  0  0  0  0
 36 30  1  0  0  0  0
 37 31  1  0  0  0  0
 37 42  1  0  0  0  0
 38 37  2  0  0  0  0
 39 38  1  0  0  0  0
 39 40  2  0  0  0  0
 40 41  1  0  0  0  0
 41 46  1  0  0  0  0
 42 41  2  0  0  0  0
 42 47  1  0  0  0  0
 43 38  1  0  0  0  0
 44 39  1  0  0  0  0
 45 40  1  0  0  0  0
M  END
>  <minimizedAffinity>
-6.06869459

$$$$
