
 OpenBabel03252500093D

 31 33  0  0  0  0  0  0  0  0999 V2000
   45.4650   32.1400   40.6270 Cl  0  0  0  0  0  0  0  0  0  0  0  0
   46.7090   33.2700   40.1970 C   0  0  0  0  0  0  0  0  0  0  0  0
   47.3000   34.0760   41.1510 C   0  0  0  0  0  0  0  0  0  0  0  0
   48.2920   34.9830   40.8280 C   0  0  0  0  0  0  0  0  0  0  0  0
   48.6750   35.0540   39.5070 C   0  0  0  0  0  0  0  0  0  0  0  0
   48.0840   34.2460   38.5510 C   0  0  0  0  0  0  0  0  0  0  0  0
   47.1160   33.3660   38.8820 C   0  0  0  0  0  0  0  0  0  0  0  0
   48.7060   35.5800   41.6310 H   0  0  0  0  0  0  0  0  0  0  0  0
   49.4530   35.7700   39.2810 H   0  0  0  0  0  0  0  0  0  0  0  0
   48.4700   34.3930   37.5410 H   0  0  0  0  0  0  0  0  0  0  0  0
   44.5570   33.7050   37.6810 F   0  0  0  0  0  0  0  0  0  0  0  0
   45.2860   32.6760   37.2390 C   0  0  0  0  0  0  0  0  0  0  0  0
   46.5210   32.5350   37.8380 C   0  0  0  0  0  0  0  0  0  0  0  0
   47.3500   31.4840   37.4350 C   0  0  0  0  0  0  0  0  0  0  0  0
   48.3390   31.2970   37.8520 H   0  0  0  0  0  0  0  0  0  0  0  0
   46.9220   30.6000   36.4420 C   0  0  0  0  0  0  0  0  0  0  0  0
   47.5760   29.7800   36.1320 H   0  0  0  0  0  0  0  0  0  0  0  0
   45.6920   30.7250   35.8330 C   0  0  0  0  0  0  0  0  0  0  0  0
   44.9200   31.7700   36.2650 C   0  0  0  0  0  0  0  0  0  0  0  0
   46.9230   32.8870   44.6210 C   0  0  0  0  0  0  0  0  0  0  0  0
   45.9960   33.8060   45.1600 C   0  0  0  0  0  0  0  0  0  0  0  0
   45.5180   34.8150   44.3220 C   0  0  0  0  0  0  0  0  0  0  0  0
   45.9590   34.8730   43.0370 N   0  0  0  0  0  0  0  0  0  0  0  0
   46.8590   33.9660   42.5450 C   0  0  0  0  0  0  0  0  0  0  0  0
   47.3240   32.9950   43.3380 N   0  0  0  0  0  0  0  0  0  0  0  0
   47.2890   32.1060   45.2800 H   0  0  0  0  0  0  0  0  0  0  0  0
   45.6350   33.7750   46.1800 H   0  0  0  0  0  0  0  0  0  0  0  0
   44.5290   35.8530   44.7760 C   0  0  0  0  0  0  0  0  0  0  0  0
   44.9860   37.1110   44.5380 F   0  0  0  0  0  0  0  0  0  0  0  0
   43.3410   35.6680   44.0640 F   0  0  0  0  0  0  0  0  0  0  0  0
   44.3020   35.6170   46.1170 F   0  0  0  0  0  0  0  0  0  0  0  0
  2  1  1  0  0  0  0
  2  3  1  0  0  0  0
  3 24  1  0  0  0  0
  4  3  2  0  0  0  0
  4  8  1  0  0  0  0
  5  4  1  0  0  0  0
  6  7  1  0  0  0  0
  6  5  2  0  0  0  0
  7  2  2  0  0  0  0
  9  5  1  0  0  0  0
 10  6  1  0  0  0  0
 12 11  1  0  0  0  0
 12 13  1  0  0  0  0
 13  7  1  0  0  0  0
 14 13  2  0  0  0  0
 14 15  1  0  0  0  0
 16 14  1  0  0  0  0
 17 16  1  0  0  0  0
 18 19  1  0  0  0  0
 18 16  2  0  0  0  0
 19 12  2  0  0  0  0
 20 21  1  0  0  0  0
 20 26  1  0  0  0  0
 21 27  1  0  0  0  0
 22 28  1  0  0  0  0
 22 21  2  0  0  0  0
 23 22  1  0  0  0  0
 24 23  2  0  0  0  0
 24 25  1  0  0  0  0
 25 20  2  0  0  0  0
 28 31  1  0  0  0  0
 29 28  1  0  0  0  0
 30 28  1  0  0  0  0
M  END
>  <minimizedAffinity>
-5.71033144

>  <minimizedRMSD>
1.50446701

$$$$
