REMARK  Name = 
REMARK  6 active torsions:
REMARK  status: ('A' for Active; 'I' for Inactive)
REMARK    1  A    between atoms: C_1  and  C_7
REMARK    2  A    between atoms: C_2  and  C_15
REMARK    3  A    between atoms: C_5  and  C_9
REMARK    4  A    between atoms: C_15  and  C_16
REMARK    5  A    between atoms: C_18  and  C_19
REMARK    6  A    between atoms: C_21  and  C_43
REMARK                            x       y       z     vdW  Elec       q    Type
REMARK                         _______ _______ _______ _____ _____    ______ ____
ROOT
ATOM      1  C   UNL     1      46.088  30.898  46.907  0.00  0.00    +0.000 C 
ATOM      2  H   UNL     1      47.011  30.404  46.671  0.00  0.00    +0.000 HD
ATOM      3  H   UNL     1      45.242  30.167  46.749  0.00  0.00    +0.000 HD
ENDROOT
BRANCH   1   4
ATOM      4  C   UNL     1      45.895  31.492  48.252  0.00  0.00    +0.000 C 
ATOM      5  C   UNL     1      45.708  30.511  49.359  0.00  0.00    +0.000 C 
ATOM      6  C   UNL     1      46.917  31.319  49.302  0.00  0.00    +0.000 C 
ATOM      7  H   UNL     1      45.075  32.267  48.309  0.00  0.00    +0.000 HD
ATOM      8  H   UNL     1      44.984  30.671  50.182  0.00  0.00    +0.000 HD
ATOM      9  H   UNL     1      45.837  29.412  49.145  0.00  0.00    +0.000 HD
ATOM     10  H   UNL     1      46.980  32.147  50.039  0.00  0.00    +0.000 HD
BRANCH   6  11
ATOM     11  C   UNL     1      48.244  30.756  48.898  0.00  0.00    +0.000 C 
ATOM     12  C   UNL     1      49.188  30.460  50.092  0.00  0.00    +0.000 C 
ATOM     13  C   UNL     1      49.480  31.602  49.218  0.00  0.00    +0.000 C 
ATOM     14  H   UNL     1      48.342  29.981  48.137  0.00  0.00    +0.000 HD
ATOM     15  H   UNL     1      48.773  30.634  51.115  0.00  0.00    +0.000 HD
ATOM     16  H   UNL     1      49.840  29.589  50.064  0.00  0.00    +0.000 HD
ATOM     17  H   UNL     1      49.243  32.602  49.691  0.00  0.00    +0.000 HD
BRANCH  13  20
ATOM     18  F   UNL     1      49.693  30.256  46.672  0.00  0.00    +0.000 F 
ATOM     19  C   UNL     1      50.728  31.059  47.016  0.00  0.00    +0.000 A 
ATOM     20  C   UNL     1      50.562  31.667  48.242  0.00  0.00    +0.000 A 
ATOM     21  C   UNL     1      51.615  32.506  48.634  0.00  0.00    +0.000 A 
ATOM     22  H   UNL     1      51.629  33.062  49.585  0.00  0.00    +0.000 HD
ATOM     23  C   UNL     1      52.730  32.721  47.877  0.00  0.00    +0.000 A 
ATOM     24  H   UNL     1      53.544  33.365  48.172  0.00  0.00    +0.000 HD
ATOM     25  C   UNL     1      52.870  32.100  46.657  0.00  0.00    +0.000 A 
ATOM     26  C   UNL     1      51.852  31.273  46.249  0.00  0.00    +0.000 A 
ENDBRANCH  13  20
ENDBRANCH   6  11
ENDBRANCH   1   4
BRANCH   1  28
ATOM     27  C   UNL     1      45.763  33.135  46.233  0.00  0.00    +0.000 C 
ATOM     28  C   UNL     1      45.916  31.946  45.829  0.00  0.00    +0.000 C 
BRANCH  27  33
ATOM     29  C   UNL     1      44.539  36.145  44.494  0.00  0.00    +0.000 A 
ATOM     30  C   UNL     1      45.216  36.097  43.276  0.00  0.00    +0.000 A 
ATOM     31  C   UNL     1      46.058  35.043  43.095  0.00  0.00    +0.000 A 
ATOM     32  N   UNL     1      46.204  34.108  44.071  0.00  0.00    +0.000 NA
ATOM     33  C   UNL     1      45.536  34.182  45.237  0.00  0.00    +0.000 A 
ATOM     34  N   UNL     1      44.716  35.206  45.415  0.00  0.00    +0.000 NA
ATOM     35  H   UNL     1      43.862  36.944  44.704  0.00  0.00    +0.000 HD
ATOM     36  H   UNL     1      45.080  36.857  42.518  0.00  0.00    +0.000 HD
BRANCH  31  37
ATOM     37  C   UNL     1      46.827  34.862  41.872  0.00  0.00    +0.000 A 
ATOM     38  C   UNL     1      48.051  35.411  41.631  0.00  0.00    +0.000 A 
ATOM     39  C   UNL     1      48.762  35.224  40.462  0.00  0.00    +0.000 A 
ATOM     40  C   UNL     1      48.236  34.443  39.455  0.00  0.00    +0.000 A 
ATOM     41  C   UNL     1      47.009  33.863  39.637  0.00  0.00    +0.000 A 
ATOM     42  C   UNL     1      46.344  34.084  40.825  0.00  0.00    +0.000 A 
ATOM     43  H   UNL     1      48.503  36.036  42.400  0.00  0.00    +0.000 HD
ATOM     44  H   UNL     1      49.736  35.692  40.332  0.00  0.00    +0.000 HD
ATOM     45  H   UNL     1      48.789  34.293  38.536  0.00  0.00    +0.000 HD
ATOM     46  H   UNL     1      46.569  33.242  38.862  0.00  0.00    +0.000 HD
ATOM     47  H   UNL     1      45.361  33.596  40.924  0.00  0.00    +0.000 HD
ENDBRANCH  31  37
ENDBRANCH  27  33
ENDBRANCH   1  28
TORSDOF 6
