
 OpenBabel03252508153D

 37 40  0  0  1  0  0  0  0  0999 V2000
   46.0330   33.0780   46.0460 C   0  0  0  0  0  3  0  0  0  0  0  0
   46.8430   32.1490   45.7200 C   0  0  0  0  0  3  0  0  0  0  0  0
   44.5640   36.0200   44.3910 C   0  0  0  0  0  0  0  0  0  0  0  0
   45.1230   35.9750   43.1060 C   0  0  0  0  0  0  0  0  0  0  0  0
   45.9880   34.9520   42.8600 C   0  0  0  0  0  0  0  0  0  0  0  0
   46.2330   34.0780   43.8600 N   0  0  0  0  0  0  0  0  0  0  0  0
   45.7050   34.1170   45.0740 C   0  0  0  0  0  0  0  0  0  0  0  0
   44.8680   35.1040   45.3180 N   0  0  0  0  0  0  0  0  0  0  0  0
   43.8640   36.8350   44.6160 H   0  0  0  0  0  0  0  0  0  0  0  0
   44.8980   36.6920   42.3460 H   0  0  0  0  0  0  0  0  0  0  0  0
   48.5490   36.0080   42.0500 F   0  0  0  0  0  0  0  0  0  0  0  0
   47.9000   35.1780   41.2090 C   0  0  0  0  0  0  0  0  0  0  0  0
   46.6930   34.6940   41.6150 C   0  0  0  0  0  0  0  0  0  0  0  0
   46.1230   33.8530   40.6670 C   0  0  0  0  0  0  0  0  0  0  0  0
   45.1600   33.3820   40.8330 H   0  0  0  0  0  0  0  0  0  0  0  0
   46.7030   33.5440   39.4670 C   0  0  0  0  0  0  0  0  0  0  0  0
   46.2290   32.8860   38.7550 H   0  0  0  0  0  0  0  0  0  0  0  0
   47.9250   34.0730   39.1280 C   0  0  0  0  0  3  0  0  0  0  0  0
   48.5310   34.9050   40.0190 C   0  0  0  0  0  3  0  0  0  0  0  0
   47.1100   31.1120   46.8040 C   0  0  0  0  0  0  0  0  0  0  0  0
   46.5770   30.1760   46.6000 H   0  0  0  0  0  0  0  0  0  0  0  0
   48.2010   30.9160   46.7320 H   0  0  0  0  0  0  0  0  0  0  0  0
   46.7930   31.6980   48.1500 C   0  0  1  0  0  0  0  0  0  0  0  0
   46.2070   30.7650   49.1630 C   0  0  0  0  0  0  0  0  0  0  0  0
   47.5600   31.2530   49.3420 C   0  0  1  0  0  0  0  0  0  0  0  0
   46.4100   32.7390   48.1670 H   0  0  0  0  0  0  0  0  0  0  0  0
   45.9980   29.7310   48.8230 H   0  0  0  0  0  0  0  0  0  0  0  0
   45.3970   31.1440   49.8200 H   0  0  0  0  0  0  0  0  0  0  0  0
   47.6990   32.0460   50.1400 H   0  0  0  0  0  0  0  0  0  0  0  0
   48.7840   30.4540   49.1210 C   0  0  0  0  0  0  0  0  0  0  0  0
   49.6440   30.2520   50.4000 C   0  0  0  0  0  0  0  0  0  0  0  0
   50.1260   31.1940   49.3500 C   0  0  0  0  0  0  0  0  0  0  0  0
   48.7960   29.6040   48.4220 H   0  0  0  0  0  0  0  0  0  0  0  0
   50.1480   29.2910   50.4960 H   0  0  0  0  0  0  0  0  0  0  0  0
   49.2680   30.6860   51.3420 H   0  0  0  0  0  0  0  0  0  0  0  0
   50.0940   32.2760   49.4850 H   0  0  0  0  0  0  0  0  0  0  0  0
   50.9410   30.8540   48.6590 H   0  0  0  0  0  0  0  0  0  0  0  0
  2  1  2  0  0  0  0
  2 20  1  0  0  0  0
  3  9  1  0  0  0  0
  3  8  1  0  0  0  0
  4  3  2  0  0  0  0
  5  4  1  0  0  0  0
  5  6  2  0  0  0  0
  6  7  1  0  0  0  0
  7  8  2  0  0  0  0
  7  1  1  0  0  0  0
 10  4  1  0  0  0  0
 12 13  1  0  0  0  0
 12 11  1  0  0  0  0
 13  5  1  0  0  0  0
 14 15  1  0  0  0  0
 14 13  2  0  0  0  0
 16 14  1  0  0  0  0
 17 16  1  0  0  0  0
 18 16  2  0  0  0  0
 18 19  1  0  0  0  0
 19 12  2  0  0  0  0
 20 23  1  0  0  0  0
 21 20  1  0  0  0  0
 22 20  1  0  0  0  0
 23 26  1  1  0  0  0
 23 24  1  0  0  0  0
 23 25  1  0  0  0  0
 24 25  1  0  0  0  0
 24 28  1  0  0  0  0
 25 29  1  1  0  0  0
 27 24  1  0  0  0  0
 30 25  1  0  0  0  0
 30 32  1  0  0  0  0
 30 31  1  0  0  0  0
 31 34  1  0  0  0  0
 31 35  1  0  0  0  0
 32 36  1  0  0  0  0
 32 31  1  0  0  0  0
 33 30  1  0  0  0  0
 37 32  1  0  0  0  0
M  END
>  <minimizedAffinity>
-6.3191576

>  <minimizedRMSD>
0.460074484

$$$$
