
 OpenBabel03252506023D

 28 30  0  0  0  0  0  0  0  0999 V2000
   44.9520   36.3600   43.1700 Cl  0  0  0  0  0  0  0  0  0  0  0  0
   45.5090   35.0320   44.1220 C   0  0  0  0  0  0  0  0  0  0  0  0
   46.4760   34.2050   43.6530 C   0  0  0  0  0  0  0  0  0  0  0  0
   46.8680   33.1600   44.4800 C   0  0  0  0  0  0  0  0  0  0  0  0
   46.3380   32.9160   45.7380 C   0  0  0  0  0  0  0  0  0  0  0  0
   45.3620   33.7730   46.1800 C   0  0  0  0  0  0  0  0  0  0  0  0
   44.7220   33.4270   47.7730 Cl  0  0  0  0  0  0  0  0  0  0  0  0
   44.9510   34.8150   45.3890 C   0  0  0  0  0  0  0  0  0  0  0  0
   47.6540   32.5120   44.0630 H   0  0  0  0  0  0  0  0  0  0  0  0
   44.1740   35.4690   45.7810 H   0  0  0  0  0  0  0  0  0  0  0  0
   48.7580   35.3790   41.0440 C   0  0  0  0  0  0  0  0  0  0  0  0
   48.2850   34.7530   39.8920 C   0  0  0  0  0  0  0  0  0  0  0  0
   47.1670   33.9160   40.0130 C   0  0  0  0  0  0  0  0  0  0  0  0
   46.6140   33.7670   41.2420 N   0  0  0  0  0  0  0  0  0  0  0  0
   47.0950   34.3850   42.3340 C   0  0  0  0  0  0  0  0  0  0  0  0
   48.1740   35.1970   42.2430 N   0  0  0  0  0  0  0  0  0  0  0  0
   49.6220   36.0220   40.9330 H   0  0  0  0  0  0  0  0  0  0  0  0
   48.7020   34.8520   38.9050 H   0  0  0  0  0  0  0  0  0  0  0  0
   46.6900   33.3660   39.2080 H   0  0  0  0  0  0  0  0  0  0  0  0
   47.8810   32.9720   48.1160 F   0  0  0  0  0  0  0  0  0  0  0  0
   47.6440   31.7390   47.6000 C   0  0  0  0  0  0  0  0  0  0  0  0
   46.8900   31.7650   46.4440 C   0  0  0  0  0  0  0  0  0  0  0  0
   46.5640   30.5760   45.7980 C   0  0  0  0  0  0  0  0  0  0  0  0
   45.9810   30.4750   44.8880 H   0  0  0  0  0  0  0  0  0  0  0  0
   46.9900   29.3460   46.2990 C   0  0  0  0  0  0  0  0  0  0  0  0
   46.7620   28.3970   45.8310 H   0  0  0  0  0  0  0  0  0  0  0  0
   47.7440   29.3610   47.4590 C   0  0  0  0  0  0  0  0  0  0  0  0
   48.0700   30.5260   48.1040 C   0  0  0  0  0  0  0  0  0  0  0  0
  1  2  1  0  0  0  0
  2  8  1  0  0  0  0
  3  2  2  0  0  0  0
  3  4  1  0  0  0  0
  4  5  2  0  0  0  0
  5  6  1  0  0  0  0
  5 22  1  0  0  0  0
  6  7  1  0  0  0  0
  8 10  1  0  0  0  0
  8  6  2  0  0  0  0
  9  4  1  0  0  0  0
 11 16  1  0  0  0  0
 12 13  1  0  0  0  0
 12 11  2  0  0  0  0
 13 14  2  0  0  0  0
 14 15  1  0  0  0  0
 15  3  1  0  0  0  0
 16 15  2  0  0  0  0
 17 11  1  0  0  0  0
 18 12  1  0  0  0  0
 19 13  1  0  0  0  0
 21 28  1  0  0  0  0
 21 20  1  0  0  0  0
 22 21  2  0  0  0  0
 23 25  2  0  0  0  0
 23 22  1  0  0  0  0
 24 23  1  0  0  0  0
 25 27  1  0  0  0  0
 26 25  1  0  0  0  0
 27 28  2  0  0  0  0
M  END
>  <minimizedAffinity>
-6.00438213

>  <minimizedRMSD>
1.1096524

$$$$
