
 OpenBabel03252501253D

 35 38  0  0  0  0  0  0  0  0999 V2000
   45.6080   32.3490   40.0800 F   0  0  0  0  0  0  0  0  0  0  0  0
   44.6840   33.3230   40.1700 C   0  0  0  0  0  0  0  0  0  0  0  0
   44.6530   34.1190   41.2820 C   0  0  0  0  0  0  0  0  0  0  0  0
   43.7010   35.1360   41.3920 C   0  0  0  0  0  0  0  0  0  0  0  0
   42.7790   35.3660   40.4030 C   0  0  0  0  0  0  0  0  0  0  0  0
   42.8230   34.5670   39.3040 C   0  0  0  0  0  0  0  0  0  0  0  0
   43.7490   33.5580   39.1680 C   0  0  0  0  0  0  0  0  0  0  0  0
   43.6550   35.7820   42.2660 H   0  0  0  0  0  0  0  0  0  0  0  0
   42.0340   36.1570   40.4810 H   0  0  0  0  0  0  0  0  0  0  0  0
   42.1390   34.6630   38.4580 H   0  0  0  0  0  0  0  0  0  0  0  0
   45.8480   33.5620   37.2600 F   0  0  0  0  0  0  0  0  0  0  0  0
   44.8750   32.6460   37.0760 C   0  0  0  0  0  0  0  0  0  0  0  0
   43.8590   32.6510   38.0080 C   0  0  0  0  0  0  0  0  0  0  0  0
   42.7800   31.7630   37.9530 C   0  0  0  0  0  0  0  0  0  0  0  0
   41.9710   31.7200   38.6410 H   0  0  0  0  0  0  0  0  0  0  0  0
   42.7870   30.8570   36.8880 C   0  0  0  0  0  0  0  0  0  0  0  0
   41.9720   30.1410   36.7950 H   0  0  0  0  0  0  0  0  0  0  0  0
   43.7870   30.8220   35.9370 C   0  0  0  0  0  0  0  0  0  0  0  0
   44.8350   31.7310   36.0430 C   0  0  0  0  0  0  0  0  0  0  0  0
   46.1740   33.4200   44.3750 C   0  0  0  0  0  0  0  0  0  0  0  0
   47.2110   34.0560   43.7170 C   0  0  0  0  0  0  0  0  0  0  0  0
   46.7980   34.4080   42.4730 C   0  0  0  0  0  0  0  0  0  0  0  0
   45.5300   33.9980   42.3650 N   0  0  0  0  0  0  0  0  0  0  0  0
   45.1680   33.4090   43.5070 N   0  0  0  0  0  0  0  0  0  0  0  0
   48.2190   34.2750   44.0690 H   0  0  0  0  0  0  0  0  0  0  0  0
   47.2830   34.9130   41.6440 H   0  0  0  0  0  0  0  0  0  0  0  0
   47.2450   31.5140   47.3140 C   0  0  0  0  0  0  0  0  0  0  0  0
   46.3090   31.9200   48.2950 C   0  0  0  0  0  0  0  0  0  0  0  0
   45.3260   32.8420   47.9290 C   0  0  0  0  0  0  0  0  0  0  0  0
   45.3450   33.2800   46.6540 N   0  0  0  0  0  0  0  0  0  0  0  0
   46.2280   32.8970   45.7270 C   0  0  0  0  0  0  0  0  0  0  0  0
   47.1950   32.0010   46.0550 N   0  0  0  0  0  0  0  0  0  0  0  0
   48.0230   30.8010   47.5560 H   0  0  0  0  0  0  0  0  0  0  0  0
   46.3560   31.5240   49.3030 H   0  0  0  0  0  0  0  0  0  0  0  0
   44.5850   33.1880   48.6390 H   0  0  0  0  0  0  0  0  0  0  0  0
  1  2  1  0  0  0  0
  2  3  1  0  0  0  0
  3  4  2  0  0  0  0
  3 23  1  0  0  0  0
  4  8  1  0  0  0  0
  5  9  1  0  0  0  0
  5  4  1  0  0  0  0
  6  5  2  0  0  0  0
  7  6  1  0  0  0  0
  7  2  2  0  0  0  0
 10  6  1  0  0  0  0
 12 11  1  0  0  0  0
 12 13  1  0  0  0  0
 13  7  1  0  0  0  0
 14 13  2  0  0  0  0
 14 15  1  0  0  0  0
 16 14  1  0  0  0  0
 17 16  1  0  0  0  0
 18 19  1  0  0  0  0
 18 16  2  0  0  0  0
 19 12  2  0  0  0  0
 20 31  1  0  0  0  0
 21 25  1  0  0  0  0
 21 20  1  0  0  0  0
 22 21  2  0  0  0  0
 23 22  1  0  0  0  0
 23 24  1  0  0  0  0
 24 20  2  0  0  0  0
 26 22  1  0  0  0  0
 27 33  1  0  0  0  0
 27 28  1  0  0  0  0
 28 34  1  0  0  0  0
 29 28  2  0  0  0  0
 29 35  1  0  0  0  0
 30 29  1  0  0  0  0
 31 32  1  0  0  0  0
 31 30  2  0  0  0  0
 32 27  2  0  0  0  0
M  END
>  <minimizedAffinity>
-5.29915619

>  <minimizedRMSD>
0.759598613

$$$$
