REMARK  Name = 
REMARK  2 active torsions:
REMARK  status: ('A' for Active; 'I' for Inactive)
REMARK    1  A    between atoms: C_5  and  C_7
REMARK    2  A    between atoms: C_10  and  C_19
REMARK                            x       y       z     vdW  Elec       q    Type
REMARK                         _______ _______ _______ _____ _____    ______ ____
ROOT
ATOM      1  C   UNL     1      45.870  32.927  46.704  0.00  0.00    +0.000 A 
ATOM      2  C   UNL     1      45.133  32.785  47.908  0.00  0.00    +0.000 A 
ATOM      3  C   UNL     1      45.501  31.829  48.790  0.00  0.00    +0.000 A 
ATOM      4  C   UNL     1      46.610  31.009  48.474  0.00  0.00    +0.000 A 
ATOM      5  S   UNL     1      47.127  31.643  46.856  0.00  0.00    +0.000 S 
ATOM      6  H   UNL     1      44.285  33.451  48.093  0.00  0.00    +0.000 HD
ATOM      7  H   UNL     1      45.010  31.655  49.707  0.00  0.00    +0.000 HD
ENDROOT
BRANCH   1  12
ATOM      8  C   UNL     1      44.576  35.791  44.723  0.00  0.00    +0.000 A 
ATOM      9  C   UNL     1      45.275  35.572  43.507  0.00  0.00    +0.000 A 
ATOM     10  C   UNL     1      46.145  34.466  43.429  0.00  0.00    +0.000 A 
ATOM     11  N   UNL     1      46.263  33.665  44.538  0.00  0.00    +0.000 NA
ATOM     12  C   UNL     1      45.577  33.916  45.671  0.00  0.00    +0.000 A 
ATOM     13  N   UNL     1      44.734  34.975  45.768  0.00  0.00    +0.000 NA
ATOM     14  H   UNL     1      43.906  36.635  44.795  0.00  0.00    +0.000 HD
ATOM     15  H   UNL     1      45.164  36.215  42.653  0.00  0.00    +0.000 HD
ATOM     16  H   UNL     1      46.707  34.241  42.536  0.00  0.00    +0.000 HD
ENDBRANCH   1  12
BRANCH   4  19
ATOM     17  F   UNL     1      47.275  30.994  51.199  0.00  0.00    +0.000 F 
ATOM     18  C   UNL     1      47.597  29.893  50.491  0.00  0.00    +0.000 A 
ATOM     19  C   UNL     1      47.259  29.928  49.156  0.00  0.00    +0.000 A 
ATOM     20  C   UNL     1      47.584  28.807  48.422  0.00  0.00    +0.000 A 
ATOM     21  H   UNL     1      47.364  28.718  47.347  0.00  0.00    +0.000 HD
ATOM     22  C   UNL     1      48.209  27.708  48.969  0.00  0.00    +0.000 A 
ATOM     23  H   UNL     1      48.454  26.841  48.372  0.00  0.00    +0.000 HD
ATOM     24  C   UNL     1      48.517  27.745  50.312  0.00  0.00    +0.000 A 
ATOM     25  C   UNL     1      48.222  28.832  51.107  0.00  0.00    +0.000 A 
ENDBRANCH   4  19
TORSDOF 2
