
 OpenBabel03252507273D

 27 29  0  0  0  0  0  0  0  0999 V2000
   37.5560   28.2220   41.6070 C   0  0  0  0  0  0  0  0  0  0  0  0
   36.2030   27.9980   41.3530 C   0  0  0  0  0  0  0  0  0  0  0  0
   35.4480   29.0730   40.8290 C   0  0  0  0  0  0  0  0  0  0  0  0
   36.0710   30.2790   40.5940 N   0  0  0  0  0  0  0  0  0  0  0  0
   37.3850   30.4200   40.8650 C   0  0  0  0  0  0  0  0  0  0  0  0
   38.1060   29.4220   41.3560 N   0  0  0  0  0  0  0  0  0  0  0  0
   35.7130   27.0770   41.5280 H   0  0  0  0  0  0  0  0  0  0  0  0
   34.4090   29.0140   40.5990 H   0  0  0  0  0  0  0  0  0  0  0  0
   38.0170   31.7070   40.6070 C   0  0  0  0  0  0  0  0  0  0  0  0
   37.3060   32.7220   39.9780 C   0  0  0  0  0  0  0  0  0  0  0  0
   37.8150   33.9710   39.6890 C   0  0  0  0  0  0  0  0  0  0  0  0
   39.1340   34.1610   40.0810 C   0  0  0  0  0  0  0  0  0  0  0  0
   39.8660   33.1670   40.7100 C   0  0  0  0  0  0  0  0  0  0  0  0
   39.2820   31.9540   40.9590 N   0  0  0  0  0  0  0  0  0  0  0  0
   36.2840   32.4910   39.7060 H   0  0  0  0  0  0  0  0  0  0  0  0
   37.2380   34.7330   39.2020 H   0  0  0  0  0  0  0  0  0  0  0  0
   39.6270   35.1080   39.9000 H   0  0  0  0  0  0  0  0  0  0  0  0
   40.8880   33.3760   40.9910 H   0  0  0  0  0  0  0  0  0  0  0  0
   37.5210   25.6670   40.5350 F   0  0  0  0  0  0  0  0  0  0  0  0
   38.3450   25.8930   41.5870 C   0  0  0  0  0  0  0  0  0  0  0  0
   38.3880   27.1540   42.1440 C   0  0  0  0  0  0  0  0  0  0  0  0
   39.2540   27.2780   43.2030 C   0  0  0  0  0  0  0  0  0  0  0  0
   39.3410   28.2340   43.6900 H   0  0  0  0  0  0  0  0  0  0  0  0
   40.0220   26.2350   43.6800 C   0  0  0  0  0  0  0  0  0  0  0  0
   40.6860   26.4150   44.5270 H   0  0  0  0  0  0  0  0  0  0  0  0
   39.9390   24.9920   43.0830 C   0  0  0  0  0  3  0  0  0  0  0  0
   39.0870   24.8100   42.0150 C   0  0  0  0  0  3  0  0  0  0  0  0
  1 21  1  0  0  0  0
  2  7  1  0  0  0  0
  2  1  2  0  0  0  0
  3  2  1  0  0  0  0
  4  3  2  0  0  0  0
  4  5  1  0  0  0  0
  5  6  2  0  0  0  0
  6  1  1  0  0  0  0
  8  3  1  0  0  0  0
  9  5  1  0  0  0  0
  9 14  1  0  0  0  0
 10  9  2  0  0  0  0
 11 10  1  0  0  0  0
 11 12  2  0  0  0  0
 12 13  1  0  0  0  0
 13 14  2  0  0  0  0
 13 18  1  0  0  0  0
 15 10  1  0  0  0  0
 16 11  1  0  0  0  0
 17 12  1  0  0  0  0
 19 20  1  0  0  0  0
 20 27  2  0  0  0  0
 20 21  1  0  0  0  0
 21 22  2  0  0  0  0
 22 24  1  0  0  0  0
 22 23  1  0  0  0  0
 24 25  1  0  0  0  0
 26 24  2  0  0  0  0
 27 26  1  0  0  0  0
M  END
>  <minimizedAffinity>
-5.56291771

$$$$

 OpenBabel03252507273D

 27 29  0  0  0  0  0  0  0  0999 V2000
   37.5520   28.2260   41.4840 C   0  0  0  0  0  0  0  0  0  0  0  0
   36.1950   28.0850   41.1890 C   0  0  0  0  0  0  0  0  0  0  0  0
   35.5130   29.2150   40.6820 C   0  0  0  0  0  0  0  0  0  0  0  0
   36.2050   30.3930   40.5020 N   0  0  0  0  0  0  0  0  0  0  0  0
   37.5170   30.4530   40.8110 C   0  0  0  0  0  0  0  0  0  0  0  0
   38.1710   29.4020   41.2860 N   0  0  0  0  0  0  0  0  0  0  0  0
   35.6520   27.1870   41.3220 H   0  0  0  0  0  0  0  0  0  0  0  0
   34.4790   29.2200   40.4250 H   0  0  0  0  0  0  0  0  0  0  0  0
   38.2240   31.7110   40.6100 C   0  0  0  0  0  0  0  0  0  0  0  0
   37.5430   32.8300   40.1440 C   0  0  0  0  0  0  0  0  0  0  0  0
   38.1220   34.0610   39.9210 C   0  0  0  0  0  0  0  0  0  0  0  0
   39.4820   34.1200   40.2030 C   0  0  0  0  0  0  0  0  0  0  0  0
   40.1850   33.0200   40.6680 C   0  0  0  0  0  0  0  0  0  0  0  0
   39.5300   31.8330   40.8620 N   0  0  0  0  0  0  0  0  0  0  0  0
   36.4870   32.6990   39.9490 H   0  0  0  0  0  0  0  0  0  0  0  0
   37.5670   34.9060   39.5600 H   0  0  0  0  0  0  0  0  0  0  0  0
   40.0300   35.0420   40.0620 H   0  0  0  0  0  0  0  0  0  0  0  0
   41.2410   33.1300   40.8690 H   0  0  0  0  0  0  0  0  0  0  0  0
   39.2220   28.4890   43.6780 F   0  0  0  0  0  0  0  0  0  0  0  0
   39.1340   27.2650   43.1020 C   0  0  0  0  0  0  0  0  0  0  0  0
   38.3100   27.0990   42.0070 C   0  0  0  0  0  0  0  0  0  0  0  0
   38.2930   25.8240   41.4980 C   0  0  0  0  0  0  0  0  0  0  0  0
   37.6730   25.6180   40.6430 H   0  0  0  0  0  0  0  0  0  0  0  0
   39.0320   24.7860   42.0290 C   0  0  0  0  0  0  0  0  0  0  0  0
   38.9630   23.8010   41.5650 H   0  0  0  0  0  0  0  0  0  0  0  0
   39.8410   25.0090   43.1270 C   0  0  0  0  0  3  0  0  0  0  0  0
   39.8970   26.2710   43.6800 C   0  0  0  0  0  3  0  0  0  0  0  0
  1 21  1  0  0  0  0
  2  7  1  0  0  0  0
  2  1  2  0  0  0  0
  3  2  1  0  0  0  0
  4  3  2  0  0  0  0
  4  5  1  0  0  0  0
  5  6  2  0  0  0  0
  6  1  1  0  0  0  0
  8  3  1  0  0  0  0
  9  5  1  0  0  0  0
  9 14  1  0  0  0  0
 10  9  2  0  0  0  0
 11 10  1  0  0  0  0
 11 12  2  0  0  0  0
 12 13  1  0  0  0  0
 13 14  2  0  0  0  0
 13 18  1  0  0  0  0
 15 10  1  0  0  0  0
 16 11  1  0  0  0  0
 17 12  1  0  0  0  0
 20 19  1  0  0  0  0
 20 27  1  0  0  0  0
 21 20  2  0  0  0  0
 22 21  1  0  0  0  0
 22 24  2  0  0  0  0
 23 22  1  0  0  0  0
 24 26  1  0  0  0  0
 25 24  1  0  0  0  0
 26 27  2  0  0  0  0
M  END
>  <minimizedAffinity>
-5.5094099

$$$$

 OpenBabel03252507273D

 27 29  0  0  0  0  0  0  0  0999 V2000
   37.0060   28.4410   41.0150 C   0  0  0  0  0  0  0  0  0  0  0  0
   35.8690   29.2230   40.8050 C   0  0  0  0  0  0  0  0  0  0  0  0
   36.0290   30.6280   40.8170 C   0  0  0  0  0  0  0  0  0  0  0  0
   37.2810   31.1600   41.0320 N   0  0  0  0  0  0  0  0  0  0  0  0
   38.3340   30.3390   41.2270 C   0  0  0  0  0  0  0  0  0  0  0  0
   38.2010   29.0200   41.2180 N   0  0  0  0  0  0  0  0  0  0  0  0
   34.9020   28.8280   40.6390 H   0  0  0  0  0  0  0  0  0  0  0  0
   35.2310   31.3190   40.6690 H   0  0  0  0  0  0  0  0  0  0  0  0
   39.6470   30.9300   41.4510 C   0  0  0  0  0  0  0  0  0  0  0  0
   40.3990   30.5630   42.5610 C   0  0  0  0  0  0  0  0  0  0  0  0
   41.6480   31.0650   42.8600 C   0  0  0  0  0  0  0  0  0  0  0  0
   42.1290   31.9970   41.9480 C   0  0  0  0  0  0  0  0  0  0  0  0
   41.4010   32.3810   40.8340 C   0  0  0  0  0  0  0  0  0  0  0  0
   40.1660   31.8310   40.6130 N   0  0  0  0  0  0  0  0  0  0  0  0
   39.9510   29.8310   43.2200 H   0  0  0  0  0  0  0  0  0  0  0  0
   42.2030   30.7600   43.7260 H   0  0  0  0  0  0  0  0  0  0  0  0
   43.1020   32.4510   42.0930 H   0  0  0  0  0  0  0  0  0  0  0  0
   41.8300   33.1100   40.1620 H   0  0  0  0  0  0  0  0  0  0  0  0
   37.2790   26.9600   43.3390 F   0  0  0  0  0  0  0  0  0  0  0  0
   37.0500   26.2820   42.1890 C   0  0  0  0  0  0  0  0  0  0  0  0
   36.9080   26.9890   41.0120 C   0  0  0  0  0  0  0  0  0  0  0  0
   36.6790   26.2090   39.9060 C   0  0  0  0  0  0  0  0  0  0  0  0
   36.5590   26.6900   38.9500 H   0  0  0  0  0  0  0  0  0  0  0  0
   36.5960   24.8320   39.9520 C   0  0  0  0  0  0  0  0  0  0  0  0
   36.4130   24.2840   39.0270 H   0  0  0  0  0  0  0  0  0  0  0  0
   36.7460   24.1750   41.1590 C   0  0  0  0  0  3  0  0  0  0  0  0
   36.9760   24.9080   42.3030 C   0  0  0  0  0  3  0  0  0  0  0  0
  1  6  1  0  0  0  0
  2  3  1  0  0  0  0
  2  1  2  0  0  0  0
  3  4  2  0  0  0  0
  4  5  1  0  0  0  0
  5  9  1  0  0  0  0
  6  5  2  0  0  0  0
  7  2  1  0  0  0  0
  8  3  1  0  0  0  0
  9 10  1  0  0  0  0
 10 11  2  0  0  0  0
 10 15  1  0  0  0  0
 11 16  1  0  0  0  0
 12 17  1  0  0  0  0
 12 11  1  0  0  0  0
 13 12  2  0  0  0  0
 14 13  1  0  0  0  0
 14  9  2  0  0  0  0
 18 13  1  0  0  0  0
 20 27  1  0  0  0  0
 20 19  1  0  0  0  0
 21  1  1  0  0  0  0
 21 20  2  0  0  0  0
 22 24  2  0  0  0  0
 22 21  1  0  0  0  0
 23 22  1  0  0  0  0
 24 26  1  0  0  0  0
 25 24  1  0  0  0  0
 26 27  2  0  0  0  0
M  END
>  <minimizedAffinity>
-5.34023857

$$$$

 OpenBabel03252507273D

 27 29  0  0  0  0  0  0  0  0999 V2000
   37.9480   29.4420   41.6960 C   0  0  0  0  0  0  0  0  0  0  0  0
   38.0630   29.3440   43.0830 C   0  0  0  0  0  0  0  0  0  0  0  0
   37.7680   28.0960   43.6800 C   0  0  0  0  0  0  0  0  0  0  0  0
   37.3860   27.0420   42.8780 N   0  0  0  0  0  0  0  0  0  0  0  0
   37.2970   27.2130   41.5420 C   0  0  0  0  0  0  0  0  0  0  0  0
   37.5700   28.3770   40.9690 N   0  0  0  0  0  0  0  0  0  0  0  0
   38.3550   30.1440   43.7100 H   0  0  0  0  0  0  0  0  0  0  0  0
   37.8220   27.9090   44.7270 H   0  0  0  0  0  0  0  0  0  0  0  0
   36.8900   26.0820   40.7200 C   0  0  0  0  0  0  0  0  0  0  0  0
   36.8800   24.7980   41.2510 C   0  0  0  0  0  0  0  0  0  0  0  0
   36.5130   23.6660   40.5540 C   0  0  0  0  0  0  0  0  0  0  0  0
   36.1390   23.8950   39.2360 C   0  0  0  0  0  0  0  0  0  0  0  0
   36.1400   25.1640   38.6810 C   0  0  0  0  0  0  0  0  0  0  0  0
   36.5190   26.2350   39.4450 N   0  0  0  0  0  0  0  0  0  0  0  0
   37.1850   24.7070   42.2860 H   0  0  0  0  0  0  0  0  0  0  0  0
   36.5160   22.6880   40.9950 H   0  0  0  0  0  0  0  0  0  0  0  0
   35.8330   23.0710   38.6030 H   0  0  0  0  0  0  0  0  0  0  0  0
   35.8380   25.2770   37.6490 H   0  0  0  0  0  0  0  0  0  0  0  0
   35.9340   31.1790   40.9230 F   0  0  0  0  0  0  0  0  0  0  0  0
   37.2110   31.5410   40.6500 C   0  0  0  0  0  0  0  0  0  0  0  0
   38.2390   30.6990   41.0230 C   0  0  0  0  0  0  0  0  0  0  0  0
   39.4930   31.1570   40.7010 C   0  0  0  0  0  0  0  0  0  0  0  0
   40.3460   30.5530   40.9600 H   0  0  0  0  0  0  0  0  0  0  0  0
   39.7200   32.3580   40.0600 C   0  0  0  0  0  0  0  0  0  0  0  0
   40.7470   32.6500   39.8390 H   0  0  0  0  0  0  0  0  0  0  0  0
   38.6520   33.1620   39.7100 C   0  0  0  0  0  3  0  0  0  0  0  0
   37.3700   32.7520   40.0080 C   0  0  0  0  0  3  0  0  0  0  0  0
  1  2  1  0  0  0  0
  2  3  2  0  0  0  0
  2  7  1  0  0  0  0
  3  8  1  0  0  0  0
  4  3  1  0  0  0  0
  5  4  2  0  0  0  0
  6  5  1  0  0  0  0
  6  1  2  0  0  0  0
  9 10  1  0  0  0  0
  9  5  1  0  0  0  0
 10 15  1  0  0  0  0
 11 16  1  0  0  0  0
 11 10  2  0  0  0  0
 12 11  1  0  0  0  0
 13 12  2  0  0  0  0
 13 14  1  0  0  0  0
 14  9  2  0  0  0  0
 17 12  1  0  0  0  0
 18 13  1  0  0  0  0
 20 19  1  0  0  0  0
 20 21  1  0  0  0  0
 21  1  1  0  0  0  0
 22 23  1  0  0  0  0
 22 21  2  0  0  0  0
 24 22  1  0  0  0  0
 25 24  1  0  0  0  0
 26 27  1  0  0  0  0
 26 24  2  0  0  0  0
 27 20  2  0  0  0  0
M  END
>  <minimizedAffinity>
-5.27727604

$$$$

 OpenBabel03252507273D

 27 29  0  0  0  0  0  0  0  0999 V2000
   37.4400   26.8470   41.7180 C   0  0  0  0  0  0  0  0  0  0  0  0
   37.3960   27.0980   43.0900 C   0  0  0  0  0  0  0  0  0  0  0  0
   37.3370   28.4480   43.5080 C   0  0  0  0  0  0  0  0  0  0  0  0
   37.3240   29.4460   42.5580 N   0  0  0  0  0  0  0  0  0  0  0  0
   37.3690   29.1250   41.2480 C   0  0  0  0  0  0  0  0  0  0  0  0
   37.4250   27.8640   40.8400 N   0  0  0  0  0  0  0  0  0  0  0  0
   37.4050   26.3420   43.8300 H   0  0  0  0  0  0  0  0  0  0  0  0
   37.3010   28.7540   44.5280 H   0  0  0  0  0  0  0  0  0  0  0  0
   37.3550   30.2000   40.2650 C   0  0  0  0  0  0  0  0  0  0  0  0
   37.3400   31.5270   40.6800 C   0  0  0  0  0  0  0  0  0  0  0  0
   37.3240   32.6120   39.8290 C   0  0  0  0  0  0  0  0  0  0  0  0
   37.3250   32.2860   38.4780 C   0  0  0  0  0  0  0  0  0  0  0  0
   37.3390   30.9730   38.0370 C   0  0  0  0  0  0  0  0  0  0  0  0
   37.3540   29.9540   38.9520 N   0  0  0  0  0  0  0  0  0  0  0  0
   37.3410   31.6930   41.7490 H   0  0  0  0  0  0  0  0  0  0  0  0
   37.3130   33.6250   40.1820 H   0  0  0  0  0  0  0  0  0  0  0  0
   37.3130   33.0670   37.7280 H   0  0  0  0  0  0  0  0  0  0  0  0
   37.3390   30.7850   36.9730 H   0  0  0  0  0  0  0  0  0  0  0  0
   39.7250   25.3040   41.9820 F   0  0  0  0  0  0  0  0  0  0  0  0
   38.6550   24.7380   41.3710 C   0  0  0  0  0  0  0  0  0  0  0  0
   37.5000   25.4790   41.2240 C   0  0  0  0  0  0  0  0  0  0  0  0
   36.4770   24.8160   40.5930 C   0  0  0  0  0  0  0  0  0  0  0  0
   35.5430   25.3310   40.4420 H   0  0  0  0  0  0  0  0  0  0  0  0
   36.5810   23.5170   40.1400 C   0  0  0  0  0  0  0  0  0  0  0  0
   35.7220   23.0610   39.6470 H   0  0  0  0  0  0  0  0  0  0  0  0
   37.7630   22.8210   40.3140 C   0  0  0  0  0  3  0  0  0  0  0  0
   38.8240   23.4380   40.9420 C   0  0  0  0  0  3  0  0  0  0  0  0
  1  2  1  0  0  0  0
  2  3  2  0  0  0  0
  2  7  1  0  0  0  0
  3  8  1  0  0  0  0
  4  3  1  0  0  0  0
  5  4  2  0  0  0  0
  6  5  1  0  0  0  0
  6  1  2  0  0  0  0
  9 10  1  0  0  0  0
  9  5  1  0  0  0  0
 10 15  1  0  0  0  0
 11 16  1  0  0  0  0
 11 10  2  0  0  0  0
 12 11  1  0  0  0  0
 13 12  2  0  0  0  0
 13 14  1  0  0  0  0
 14  9  2  0  0  0  0
 17 12  1  0  0  0  0
 18 13  1  0  0  0  0
 20 19  1  0  0  0  0
 21 20  1  0  0  0  0
 21  1  1  0  0  0  0
 22 21  2  0  0  0  0
 23 22  1  0  0  0  0
 24 26  2  0  0  0  0
 24 22  1  0  0  0  0
 25 24  1  0  0  0  0
 26 27  1  0  0  0  0
 27 20  2  0  0  0  0
M  END
>  <minimizedAffinity>
-5.2171154

$$$$

 OpenBabel03252507273D

 27 29  0  0  0  0  0  0  0  0999 V2000
   37.8100   30.4660   40.6190 C   0  0  0  0  0  0  0  0  0  0  0  0
   36.9640   31.5740   40.5750 C   0  0  0  0  0  0  0  0  0  0  0  0
   37.3110   32.6290   39.6990 C   0  0  0  0  0  0  0  0  0  0  0  0
   38.4530   32.5200   38.9360 N   0  0  0  0  0  0  0  0  0  0  0  0
   39.2230   31.4160   39.0340 C   0  0  0  0  0  0  0  0  0  0  0  0
   38.9100   30.4180   39.8500 N   0  0  0  0  0  0  0  0  0  0  0  0
   36.0840   31.6700   41.1540 H   0  0  0  0  0  0  0  0  0  0  0  0
   36.7390   33.5210   39.5850 H   0  0  0  0  0  0  0  0  0  0  0  0
   40.4240   31.3280   38.2150 C   0  0  0  0  0  0  0  0  0  0  0  0
   41.1100   32.4810   37.8530 C   0  0  0  0  0  0  0  0  0  0  0  0
   42.2540   32.5020   37.0820 C   0  0  0  0  0  0  0  0  0  0  0  0
   42.6970   31.2500   36.6730 C   0  0  0  0  0  0  0  0  0  0  0  0
   42.0330   30.0850   37.0200 C   0  0  0  0  0  0  0  0  0  0  0  0
   40.9030   30.1550   37.7900 N   0  0  0  0  0  0  0  0  0  0  0  0
   40.6980   33.4150   38.2130 H   0  0  0  0  0  0  0  0  0  0  0  0
   42.7590   33.4110   36.8200 H   0  0  0  0  0  0  0  0  0  0  0  0
   43.5870   31.1580   36.0640 H   0  0  0  0  0  0  0  0  0  0  0  0
   42.4280   29.1420   36.6710 H   0  0  0  0  0  0  0  0  0  0  0  0
   38.8750   30.2890   43.1700 F   0  0  0  0  0  0  0  0  0  0  0  0
   38.0550   29.2900   42.7650 C   0  0  0  0  0  0  0  0  0  0  0  0
   37.5070   29.3460   41.5000 C   0  0  0  0  0  0  0  0  0  0  0  0
   36.6920   28.2860   41.1870 C   0  0  0  0  0  0  0  0  0  0  0  0
   36.2270   28.2610   40.2150 H   0  0  0  0  0  0  0  0  0  0  0  0
   36.4340   27.2450   42.0550 C   0  0  0  0  0  0  0  0  0  0  0  0
   35.7760   26.4390   41.7300 H   0  0  0  0  0  0  0  0  0  0  0  0
   37.0110   27.2400   43.3110 C   0  0  0  0  0  3  0  0  0  0  0  0
   37.8380   28.2790   43.6800 C   0  0  0  0  0  3  0  0  0  0  0  0
  1 21  1  0  0  0  0
  2  1  1  0  0  0  0
  2  7  1  0  0  0  0
  3  2  2  0  0  0  0
  4  5  2  0  0  0  0
  4  3  1  0  0  0  0
  5  6  1  0  0  0  0
  6  1  2  0  0  0  0
  8  3  1  0  0  0  0
  9  5  1  0  0  0  0
 10 15  1  0  0  0  0
 10  9  1  0  0  0  0
 11 10  2  0  0  0  0
 12 13  2  0  0  0  0
 12 11  1  0  0  0  0
 13 14  1  0  0  0  0
 14  9  2  0  0  0  0
 16 11  1  0  0  0  0
 17 12  1  0  0  0  0
 18 13  1  0  0  0  0
 20 19  1  0  0  0  0
 20 27  1  0  0  0  0
 21 20  2  0  0  0  0
 22 21  1  0  0  0  0
 22 24  2  0  0  0  0
 23 22  1  0  0  0  0
 24 26  1  0  0  0  0
 25 24  1  0  0  0  0
 26 27  2  0  0  0  0
M  END
>  <minimizedAffinity>
-5.20907974

$$$$

 OpenBabel03252507273D

 27 29  0  0  0  0  0  0  0  0999 V2000
   37.7870   31.8810   39.3270 C   0  0  0  0  0  0  0  0  0  0  0  0
   37.4700   33.0780   39.9700 C   0  0  0  0  0  0  0  0  0  0  0  0
   38.4970   34.0410   40.1050 C   0  0  0  0  0  0  0  0  0  0  0  0
   39.7490   33.7620   39.6030 N   0  0  0  0  0  0  0  0  0  0  0  0
   39.9800   32.5810   38.9930 C   0  0  0  0  0  0  0  0  0  0  0  0
   39.0280   31.6680   38.8580 N   0  0  0  0  0  0  0  0  0  0  0  0
   36.5130   33.3040   40.3590 H   0  0  0  0  0  0  0  0  0  0  0  0
   38.3670   34.9870   40.5780 H   0  0  0  0  0  0  0  0  0  0  0  0
   41.3140   32.3140   38.4720 C   0  0  0  0  0  0  0  0  0  0  0  0
   42.4380   32.6980   39.1950 C   0  0  0  0  0  0  0  0  0  0  0  0
   43.7390   32.4910   38.7870 C   0  0  0  0  0  0  0  0  0  0  0  0
   43.8640   31.8500   37.5600 C   0  0  0  0  0  0  0  0  0  0  0  0
   42.7620   31.4570   36.8190 C   0  0  0  0  0  0  0  0  0  0  0  0
   41.5030   31.7010   37.3000 N   0  0  0  0  0  0  0  0  0  0  0  0
   42.2520   33.1910   40.1400 H   0  0  0  0  0  0  0  0  0  0  0  0
   44.5850   32.8000   39.3700 H   0  0  0  0  0  0  0  0  0  0  0  0
   44.8440   31.6400   37.1510 H   0  0  0  0  0  0  0  0  0  0  0  0
   42.9250   30.9620   35.8730 H   0  0  0  0  0  0  0  0  0  0  0  0
   36.3620   30.8660   41.4750 F   0  0  0  0  0  0  0  0  0  0  0  0
   36.0830   30.3660   40.2470 C   0  0  0  0  0  0  0  0  0  0  0  0
   36.7740   30.8490   39.1550 C   0  0  0  0  0  0  0  0  0  0  0  0
   36.4160   30.2770   37.9580 C   0  0  0  0  0  0  0  0  0  0  0  0
   36.9130   30.6040   37.0610 H   0  0  0  0  0  0  0  0  0  0  0  0
   35.4490   29.3000   37.8440 C   0  0  0  0  0  0  0  0  0  0  0  0
   35.2230   28.8960   36.8570 H   0  0  0  0  0  0  0  0  0  0  0  0
   34.7880   28.8530   38.9730 C   0  0  0  0  0  3  0  0  0  0  0  0
   35.1060   29.3920   40.2010 C   0  0  0  0  0  3  0  0  0  0  0  0
  1  2  1  0  0  0  0
  2  3  2  0  0  0  0
  2  7  1  0  0  0  0
  3  8  1  0  0  0  0
  4  3  1  0  0  0  0
  5  4  2  0  0  0  0
  6  5  1  0  0  0  0
  6  1  2  0  0  0  0
  9  5  1  0  0  0  0
  9 10  1  0  0  0  0
 10 15  1  0  0  0  0
 11 10  2  0  0  0  0
 11 16  1  0  0  0  0
 12 11  1  0  0  0  0
 13 14  1  0  0  0  0
 13 12  2  0  0  0  0
 14  9  2  0  0  0  0
 17 12  1  0  0  0  0
 18 13  1  0  0  0  0
 20 19  1  0  0  0  0
 21  1  1  0  0  0  0
 21 20  2  0  0  0  0
 22 21  1  0  0  0  0
 23 22  1  0  0  0  0
 24 22  2  0  0  0  0
 24 26  1  0  0  0  0
 25 24  1  0  0  0  0
 26 27  2  0  0  0  0
 27 20  1  0  0  0  0
M  END
>  <minimizedAffinity>
-5.15368414

$$$$

 OpenBabel03252507273D

 27 29  0  0  0  0  0  0  0  0999 V2000
   39.1460   27.5020   41.7930 C   0  0  0  0  0  0  0  0  0  0  0  0
   40.2200   27.6550   42.6710 C   0  0  0  0  0  0  0  0  0  0  0  0
   40.7180   28.9630   42.8750 C   0  0  0  0  0  0  0  0  0  0  0  0
   40.1310   30.0170   42.2090 N   0  0  0  0  0  0  0  0  0  0  0  0
   39.0950   29.7900   41.3750 C   0  0  0  0  0  0  0  0  0  0  0  0
   38.6160   28.5690   41.1730 N   0  0  0  0  0  0  0  0  0  0  0  0
   40.6790   26.8560   43.1890 H   0  0  0  0  0  0  0  0  0  0  0  0
   41.5330   29.1960   43.5210 H   0  0  0  0  0  0  0  0  0  0  0  0
   38.4940   30.9230   40.6840 C   0  0  0  0  0  0  0  0  0  0  0  0
   37.5790   30.7130   39.6590 C   0  0  0  0  0  0  0  0  0  0  0  0
   36.9590   31.7170   38.9460 C   0  0  0  0  0  0  0  0  0  0  0  0
   37.3160   33.0040   39.3300 C   0  0  0  0  0  0  0  0  0  0  0  0
   38.2250   33.2420   40.3480 C   0  0  0  0  0  0  0  0  0  0  0  0
   38.7950   32.1840   41.0060 N   0  0  0  0  0  0  0  0  0  0  0  0
   37.3560   29.6800   39.4230 H   0  0  0  0  0  0  0  0  0  0  0  0
   36.2560   31.5200   38.1590 H   0  0  0  0  0  0  0  0  0  0  0  0
   36.8850   33.8630   38.8320 H   0  0  0  0  0  0  0  0  0  0  0  0
   38.4620   34.2650   40.6010 H   0  0  0  0  0  0  0  0  0  0  0  0
   36.8330   26.6370   43.0490 F   0  0  0  0  0  0  0  0  0  0  0  0
   37.4330   25.7820   42.1860 C   0  0  0  0  0  0  0  0  0  0  0  0
   38.5870   26.1810   41.5420 C   0  0  0  0  0  0  0  0  0  0  0  0
   39.1150   25.2430   40.6900 C   0  0  0  0  0  0  0  0  0  0  0  0
   40.0160   25.4830   40.1510 H   0  0  0  0  0  0  0  0  0  0  0  0
   38.5490   24.0010   40.4840 C   0  0  0  0  0  0  0  0  0  0  0  0
   39.0310   23.3120   39.7900 H   0  0  0  0  0  0  0  0  0  0  0  0
   37.3920   23.6540   41.1560 C   0  0  0  0  0  3  0  0  0  0  0  0
   36.8170   24.5570   42.0240 C   0  0  0  0  0  3  0  0  0  0  0  0
  1  2  1  0  0  0  0
  2  3  2  0  0  0  0
  2  7  1  0  0  0  0
  3  8  1  0  0  0  0
  4  3  1  0  0  0  0
  5  4  2  0  0  0  0
  6  5  1  0  0  0  0
  6  1  2  0  0  0  0
  9 14  1  0  0  0  0
  9  5  1  0  0  0  0
 10  9  2  0  0  0  0
 11 12  2  0  0  0  0
 11 10  1  0  0  0  0
 12 13  1  0  0  0  0
 13 18  1  0  0  0  0
 13 14  2  0  0  0  0
 15 10  1  0  0  0  0
 16 11  1  0  0  0  0
 17 12  1  0  0  0  0
 20 19  1  0  0  0  0
 21  1  1  0  0  0  0
 21 20  2  0  0  0  0
 22 21  1  0  0  0  0
 23 22  1  0  0  0  0
 24 22  2  0  0  0  0
 24 26  1  0  0  0  0
 25 24  1  0  0  0  0
 26 27  2  0  0  0  0
 27 20  1  0  0  0  0
M  END
>  <minimizedAffinity>
-5.14387083

$$$$

 OpenBabel03252507273D

 27 29  0  0  0  0  0  0  0  0999 V2000
   35.8590   29.0310   39.6680 C   0  0  0  0  0  0  0  0  0  0  0  0
   35.9630   30.2310   40.3740 C   0  0  0  0  0  0  0  0  0  0  0  0
   36.6890   30.2160   41.5880 C   0  0  0  0  0  0  0  0  0  0  0  0
   37.2550   29.0350   42.0180 N   0  0  0  0  0  0  0  0  0  0  0  0
   37.1110   27.9150   41.2800 C   0  0  0  0  0  0  0  0  0  0  0  0
   36.4340   27.9120   40.1400 N   0  0  0  0  0  0  0  0  0  0  0  0
   35.5340   31.1430   40.0550 H   0  0  0  0  0  0  0  0  0  0  0  0
   36.8310   31.0720   42.2070 H   0  0  0  0  0  0  0  0  0  0  0  0
   37.7200   26.6810   41.7590 C   0  0  0  0  0  0  0  0  0  0  0  0
   37.1120   25.4570   41.5100 C   0  0  0  0  0  0  0  0  0  0  0  0
   37.6090   24.2380   41.9210 C   0  0  0  0  0  0  0  0  0  0  0  0
   38.8030   24.3110   42.6290 C   0  0  0  0  0  0  0  0  0  0  0  0
   39.4300   25.5170   42.8920 C   0  0  0  0  0  0  0  0  0  0  0  0
   38.8670   26.6830   42.4450 N   0  0  0  0  0  0  0  0  0  0  0  0
   36.1850   25.4900   40.9510 H   0  0  0  0  0  0  0  0  0  0  0  0
   37.1140   23.3100   41.7110 H   0  0  0  0  0  0  0  0  0  0  0  0
   39.2760   23.4090   42.9960 H   0  0  0  0  0  0  0  0  0  0  0  0
   40.3570   25.5070   43.4470 H   0  0  0  0  0  0  0  0  0  0  0  0
   37.1410   29.2820   37.2250 F   0  0  0  0  0  0  0  0  0  0  0  0
   35.7970   29.1100   37.2120 C   0  0  0  0  0  0  0  0  0  0  0  0
   35.1270   28.9810   38.4110 C   0  0  0  0  0  0  0  0  0  0  0  0
   33.7690   28.8120   38.2870 C   0  0  0  0  0  0  0  0  0  0  0  0
   33.1790   28.7050   39.1810 H   0  0  0  0  0  0  0  0  0  0  0  0
   33.1180   28.7720   37.0710 C   0  0  0  0  0  0  0  0  0  0  0  0
   32.0360   28.6350   37.0590 H   0  0  0  0  0  0  0  0  0  0  0  0
   33.8400   28.9070   35.9010 C   0  0  0  0  0  3  0  0  0  0  0  0
   35.2060   29.0790   35.9650 C   0  0  0  0  0  3  0  0  0  0  0  0
  1  6  2  0  0  0  0
  1  2  1  0  0  0  0
  2  3  2  0  0  0  0
  3  4  1  0  0  0  0
  3  8  1  0  0  0  0
  5  9  1  0  0  0  0
  5  4  2  0  0  0  0
  6  5  1  0  0  0  0
  7  2  1  0  0  0  0
  9 14  1  0  0  0  0
 10  9  2  0  0  0  0
 10 11  1  0  0  0  0
 11 12  2  0  0  0  0
 12 13  1  0  0  0  0
 12 17  1  0  0  0  0
 13 18  1  0  0  0  0
 14 13  2  0  0  0  0
 15 10  1  0  0  0  0
 16 11  1  0  0  0  0
 20 19  1  0  0  0  0
 20 21  1  0  0  0  0
 21  1  1  0  0  0  0
 22 21  2  0  0  0  0
 22 23  1  0  0  0  0
 24 22  1  0  0  0  0
 25 24  1  0  0  0  0
 26 27  1  0  0  0  0
 26 24  2  0  0  0  0
 27 20  2  0  0  0  0
M  END
>  <minimizedAffinity>
-5.1013422

$$$$
