
 OpenBabel03252509163D

 25 27  0  0  0  0  0  0  0  0999 V2000
   46.7920   32.8610   42.9420 C   0  0  0  0  0  0  0  0  0  0  0  0
   46.8560   32.0060   44.0720 C   0  0  0  0  0  0  0  0  0  0  0  0
   47.8550   31.0980   44.1490 C   0  0  0  0  0  0  0  0  0  0  0  0
   48.7970   31.0400   43.0950 C   0  0  0  0  0  0  0  0  0  0  0  0
   48.2150   32.3350   41.9670 S   0  0  0  0  0  0  0  0  0  0  0  0
   46.0960   32.1010   44.8530 H   0  0  0  0  0  0  0  0  0  0  0  0
   47.9780   30.4260   44.9510 H   0  0  0  0  0  0  0  0  0  0  0  0
   44.3570   35.6430   43.3020 C   0  0  0  0  0  0  0  0  0  0  0  0
   43.8200   35.6590   41.9880 C   0  0  0  0  0  0  0  0  0  0  0  0
   44.3150   34.7250   41.0550 C   0  0  0  0  0  0  0  0  0  0  0  0
   45.2890   33.8540   41.4770 N   0  0  0  0  0  0  0  0  0  0  0  0
   45.7670   33.8800   42.7370 C   0  0  0  0  0  0  0  0  0  0  0  0
   45.3050   34.7700   43.6510 N   0  0  0  0  0  0  0  0  0  0  0  0
   43.9850   36.3530   44.0260 H   0  0  0  0  0  0  0  0  0  0  0  0
   43.0570   36.3520   41.6840 H   0  0  0  0  0  0  0  0  0  0  0  0
   43.9520   34.6820   40.0400 H   0  0  0  0  0  0  0  0  0  0  0  0
   51.4160   32.0050   42.8080 F   0  0  0  0  0  0  0  0  0  0  0  0
   51.2470   30.6710   42.7080 C   0  0  0  0  0  0  0  0  0  0  0  0
   49.9520   30.2260   42.8520 C   0  0  0  0  0  0  0  0  0  0  0  0
   49.7680   28.8630   42.7510 C   0  0  0  0  0  0  0  0  0  0  0  0
   48.7790   28.3900   42.8490 H   0  0  0  0  0  0  0  0  0  0  0  0
   50.8010   27.9820   42.5190 C   0  0  0  0  0  0  0  0  0  0  0  0
   50.6310   26.9180   42.4430 H   0  0  0  0  0  0  0  0  0  0  0  0
   52.0710   28.5010   42.3850 C   0  0  0  0  0  3  0  0  0  0  0  0
   52.3290   29.8530   42.4740 C   0  0  0  0  0  3  0  0  0  0  0  0
  1  2  2  0  0  0  0
  2  3  1  0  0  0  0
  2  6  1  0  0  0  0
  3  7  1  0  0  0  0
  4  3  2  0  0  0  0
  5  1  1  0  0  0  0
  5  4  1  0  0  0  0
  8 13  1  0  0  0  0
  8 14  1  0  0  0  0
  9  8  2  0  0  0  0
 10 11  2  0  0  0  0
 10  9  1  0  0  0  0
 11 12  1  0  0  0  0
 12  1  1  0  0  0  0
 12 13  2  0  0  0  0
 15  9  1  0  0  0  0
 16 10  1  0  0  0  0
 18 17  1  0  0  0  0
 18 19  1  0  0  0  0
 19  4  1  0  0  0  0
 20 21  1  0  0  0  0
 20 19  2  0  0  0  0
 22 20  1  0  0  0  0
 23 22  1  0  0  0  0
 24 25  1  0  0  0  0
 24 22  2  0  0  0  0
 25 18  2  0  0  0  0
M  END
>  <minimizedAffinity>
-3.09246063

>  <minimizedRMSD>
5.88604021

$$$$
