
 OpenBabel03252509213D

 25 27  0  0  0  0  0  0  0  0999 V2000
   37.2730   33.2050   39.6630 C   0  0  0  0  0  0  0  0  0  0  0  0
   37.5000   31.8290   40.0140 C   0  0  0  0  0  0  0  0  0  0  0  0
   38.6710   31.5810   40.7080 C   0  0  0  0  0  0  0  0  0  0  0  0
   39.5580   32.5830   41.0370 N   0  0  0  0  0  0  0  0  0  0  0  0
   39.2880   33.8640   40.6780 C   0  0  0  0  0  0  0  0  0  0  0  0
   38.1610   34.1600   40.0020 N   0  0  0  0  0  0  0  0  0  0  0  0
   36.3650   33.3550   39.1320 H   0  0  0  0  0  0  0  0  0  0  0  0
   40.0000   34.6100   40.9530 H   0  0  0  0  0  0  0  0  0  0  0  0
   37.3990   30.8980   37.3970 F   0  0  0  0  0  0  0  0  0  0  0  0
   36.5670   30.3570   38.3300 C   0  0  0  0  0  0  0  0  0  0  0  0
   36.5610   30.7730   39.6640 C   0  0  0  0  0  0  0  0  0  0  0  0
   35.6700   30.1440   40.5100 C   0  0  0  0  0  0  0  0  0  0  0  0
   35.6860   30.4860   41.5370 H   0  0  0  0  0  0  0  0  0  0  0  0
   34.8310   29.1570   40.0590 C   0  0  0  0  0  0  0  0  0  0  0  0
   34.1440   28.6900   40.7690 H   0  0  0  0  0  0  0  0  0  0  0  0
   34.8480   28.7530   38.7280 C   0  0  0  0  0  3  0  0  0  0  0  0
   35.7350   29.3740   37.8720 C   0  0  0  0  0  3  0  0  0  0  0  0
   38.8750   30.1610   41.1750 C   0  0  0  0  0  0  0  0  0  0  0  0
   40.2040   30.0110   41.9210 C   0  0  0  0  0  0  0  0  0  0  0  0
   38.8090   29.9150   42.5980 C   0  0  0  0  0  0  0  0  0  0  0  0
   38.9160   29.4120   40.3370 H   0  0  0  0  0  0  0  0  0  0  0  0
   40.7360   29.0500   41.9250 H   0  0  0  0  0  0  0  0  0  0  0  0
   40.7810   30.9180   42.1140 H   0  0  0  0  0  0  0  0  0  0  0  0
   38.5570   30.7730   43.2550 H   0  0  0  0  0  0  0  0  0  0  0  0
   38.5200   28.9200   43.0190 H   0  0  0  0  0  0  0  0  0  0  0  0
  1  6  2  0  0  0  0
  1  2  1  0  0  0  0
  2  3  2  0  0  0  0
  3  4  1  0  0  0  0
  3 18  1  0  0  0  0
  5  8  1  0  0  0  0
  5  4  2  0  0  0  0
  6  5  1  0  0  0  0
  7  1  1  0  0  0  0
  9 10  1  0  0  0  0
 10 11  1  0  0  0  0
 11  2  1  0  0  0  0
 11 12  2  0  0  0  0
 12 13  1  0  0  0  0
 14 12  1  0  0  0  0
 14 15  1  0  0  0  0
 16 14  2  0  0  0  0
 17 10  2  0  0  0  0
 17 16  1  0  0  0  0
 18 19  1  0  0  0  0
 18 20  1  0  0  0  0
 19 22  1  0  0  0  0
 19 23  1  0  0  0  0
 19 20  1  0  0  0  0
 20 25  1  0  0  0  0
 20 24  1  0  0  0  0
 21 18  1  0  0  0  0
M  END
>  <minimizedAffinity>
-4.83257055

$$$$

 OpenBabel03252509213D

 25 27  0  0  0  0  0  0  0  0999 V2000
   37.3850   33.1910   39.5430 C   0  0  0  0  0  0  0  0  0  0  0  0
   37.6470   31.8080   39.8400 C   0  0  0  0  0  0  0  0  0  0  0  0
   38.7960   31.5680   40.5720 C   0  0  0  0  0  0  0  0  0  0  0  0
   39.6310   32.5840   40.9860 N   0  0  0  0  0  0  0  0  0  0  0  0
   39.3300   33.8710   40.6750 C   0  0  0  0  0  0  0  0  0  0  0  0
   38.2220   34.1590   39.9630 N   0  0  0  0  0  0  0  0  0  0  0  0
   36.4960   33.3340   38.9800 H   0  0  0  0  0  0  0  0  0  0  0  0
   40.0020   34.6270   41.0150 H   0  0  0  0  0  0  0  0  0  0  0  0
   35.7600   30.7800   41.6030 F   0  0  0  0  0  0  0  0  0  0  0  0
   35.8420   30.2720   40.3410 C   0  0  0  0  0  0  0  0  0  0  0  0
   36.7640   30.7380   39.4010 C   0  0  0  0  0  0  0  0  0  0  0  0
   36.7430   30.1400   38.1570 C   0  0  0  0  0  0  0  0  0  0  0  0
   37.4680   30.5200   37.4480 H   0  0  0  0  0  0  0  0  0  0  0  0
   35.8570   29.1350   37.8620 C   0  0  0  0  0  0  0  0  0  0  0  0
   35.8820   28.6940   36.8620 H   0  0  0  0  0  0  0  0  0  0  0  0
   34.9440   28.6800   38.8080 C   0  0  0  0  0  3  0  0  0  0  0  0
   34.9540   29.2710   40.0560 C   0  0  0  0  0  3  0  0  0  0  0  0
   39.0330   30.1360   40.9830 C   0  0  0  0  0  0  0  0  0  0  0  0
   40.3280   29.9990   41.7880 C   0  0  0  0  0  0  0  0  0  0  0  0
   38.9060   29.8190   42.3880 C   0  0  0  0  0  0  0  0  0  0  0  0
   39.1430   29.4310   40.1140 H   0  0  0  0  0  0  0  0  0  0  0  0
   40.8970   29.0590   41.7740 H   0  0  0  0  0  0  0  0  0  0  0  0
   40.8590   30.9160   42.0520 H   0  0  0  0  0  0  0  0  0  0  0  0
   38.5890   30.6350   43.0710 H   0  0  0  0  0  0  0  0  0  0  0  0
   38.6360   28.7950   42.7470 H   0  0  0  0  0  0  0  0  0  0  0  0
  1  2  2  0  0  0  0
  1  6  1  0  0  0  0
  2  3  1  0  0  0  0
  3 18  1  0  0  0  0
  3  4  2  0  0  0  0
  5  4  1  0  0  0  0
  5  8  1  0  0  0  0
  6  5  2  0  0  0  0
  7  1  1  0  0  0  0
 10  9  1  0  0  0  0
 11  2  1  0  0  0  0
 11 10  2  0  0  0  0
 12 11  1  0  0  0  0
 13 12  1  0  0  0  0
 14 12  2  0  0  0  0
 14 16  1  0  0  0  0
 15 14  1  0  0  0  0
 16 17  2  0  0  0  0
 17 10  1  0  0  0  0
 18 19  1  0  0  0  0
 18 20  1  0  0  0  0
 19 23  1  0  0  0  0
 19 20  1  0  0  0  0
 20 25  1  0  0  0  0
 20 24  1  0  0  0  0
 21 18  1  0  0  0  0
 22 19  1  0  0  0  0
M  END
>  <minimizedAffinity>
-4.68689919

$$$$

 OpenBabel03252509213D

 25 27  0  0  0  0  0  0  0  0999 V2000
   35.7370   28.6800   40.5970 C   0  0  0  0  0  0  0  0  0  0  0  0
   36.9930   28.0530   40.9090 C   0  0  0  0  0  0  0  0  0  0  0  0
   38.0190   28.9180   41.2450 C   0  0  0  0  0  0  0  0  0  0  0  0
   37.8480   30.2860   41.2760 N   0  0  0  0  0  0  0  0  0  0  0  0
   36.6370   30.8190   40.9710 C   0  0  0  0  0  0  0  0  0  0  0  0
   35.6050   30.0200   40.6370 N   0  0  0  0  0  0  0  0  0  0  0  0
   34.9760   27.9840   40.3440 H   0  0  0  0  0  0  0  0  0  0  0  0
   36.5470   31.8820   41.0070 H   0  0  0  0  0  0  0  0  0  0  0  0
   36.4730   26.5550   43.1930 F   0  0  0  0  0  0  0  0  0  0  0  0
   36.8900   25.9230   42.0600 C   0  0  0  0  0  0  0  0  0  0  0  0
   37.1700   26.6090   40.8750 C   0  0  0  0  0  0  0  0  0  0  0  0
   37.5830   25.8510   39.7990 C   0  0  0  0  0  0  0  0  0  0  0  0
   37.7940   26.4070   38.8940 H   0  0  0  0  0  0  0  0  0  0  0  0
   37.7120   24.4880   39.8910 C   0  0  0  0  0  0  0  0  0  0  0  0
   38.0440   23.9340   39.0090 H   0  0  0  0  0  0  0  0  0  0  0  0
   37.4300   23.8180   41.0770 C   0  0  0  0  0  3  0  0  0  0  0  0
   37.0150   24.5650   42.1610 C   0  0  0  0  0  3  0  0  0  0  0  0
   39.3130   28.2760   41.6770 C   0  0  0  0  0  0  0  0  0  0  0  0
   40.2670   29.3080   42.2860 C   0  0  0  0  0  0  0  0  0  0  0  0
   39.5670   28.1830   43.0980 C   0  0  0  0  0  0  0  0  0  0  0  0
   39.8840   27.8010   40.8330 H   0  0  0  0  0  0  0  0  0  0  0  0
   41.3550   29.1640   42.2270 H   0  0  0  0  0  0  0  0  0  0  0  0
   39.8910   30.3230   42.4270 H   0  0  0  0  0  0  0  0  0  0  0  0
   38.7710   28.5410   43.7840 H   0  0  0  0  0  0  0  0  0  0  0  0
   40.2250   27.3930   43.5370 H   0  0  0  0  0  0  0  0  0  0  0  0
  1  6  2  0  0  0  0
  1  2  1  0  0  0  0
  2  3  2  0  0  0  0
  3  4  1  0  0  0  0
  3 18  1  0  0  0  0
  5  8  1  0  0  0  0
  5  4  2  0  0  0  0
  6  5  1  0  0  0  0
  7  1  1  0  0  0  0
 10 17  1  0  0  0  0
 10  9  1  0  0  0  0
 11  2  1  0  0  0  0
 11 10  2  0  0  0  0
 12 14  2  0  0  0  0
 12 11  1  0  0  0  0
 13 12  1  0  0  0  0
 14 16  1  0  0  0  0
 15 14  1  0  0  0  0
 16 17  2  0  0  0  0
 18 19  1  0  0  0  0
 18 20  1  0  0  0  0
 19 23  1  0  0  0  0
 19 20  1  0  0  0  0
 20 25  1  0  0  0  0
 20 24  1  0  0  0  0
 21 18  1  0  0  0  0
 22 19  1  0  0  0  0
M  END
>  <minimizedAffinity>
-4.59976053

$$$$

 OpenBabel03252509213D

 25 27  0  0  0  0  0  0  0  0999 V2000
   39.6600   27.8940   42.8960 C   0  0  0  0  0  0  0  0  0  0  0  0
   38.7610   27.2370   41.9860 C   0  0  0  0  0  0  0  0  0  0  0  0
   38.8240   25.8540   41.9870 C   0  0  0  0  0  0  0  0  0  0  0  0
   39.6910   25.1580   42.8030 N   0  0  0  0  0  0  0  0  0  0  0  0
   40.5160   25.8350   43.6410 C   0  0  0  0  0  0  0  0  0  0  0  0
   40.4940   27.1820   43.6790 N   0  0  0  0  0  0  0  0  0  0  0  0
   39.5820   28.9530   42.8660 H   0  0  0  0  0  0  0  0  0  0  0  0
   41.1710   25.2580   44.2560 H   0  0  0  0  0  0  0  0  0  0  0  0
   36.1740   27.7540   42.8600 F   0  0  0  0  0  0  0  0  0  0  0  0
   36.5650   28.1970   41.6320 C   0  0  0  0  0  0  0  0  0  0  0  0
   37.8480   27.9760   41.1270 C   0  0  0  0  0  0  0  0  0  0  0  0
   38.1190   28.4780   39.8700 C   0  0  0  0  0  0  0  0  0  0  0  0
   39.1200   28.2920   39.5030 H   0  0  0  0  0  0  0  0  0  0  0  0
   37.1690   29.1620   39.1540 C   0  0  0  0  0  0  0  0  0  0  0  0
   37.4340   29.5390   38.1630 H   0  0  0  0  0  0  0  0  0  0  0  0
   35.8950   29.3750   39.6700 C   0  0  0  0  0  3  0  0  0  0  0  0
   35.6120   28.8780   40.9270 C   0  0  0  0  0  3  0  0  0  0  0  0
   37.8180   25.1450   41.1180 C   0  0  0  0  0  0  0  0  0  0  0  0
   37.9930   23.6250   41.1960 C   0  0  0  0  0  0  0  0  0  0  0  0
   36.7770   24.3940   41.7840 C   0  0  0  0  0  0  0  0  0  0  0  0
   37.9050   25.4000   40.0260 H   0  0  0  0  0  0  0  0  0  0  0  0
   37.7110   22.9870   40.3470 H   0  0  0  0  0  0  0  0  0  0  0  0
   38.7190   23.2360   41.9120 H   0  0  0  0  0  0  0  0  0  0  0  0
   36.7490   24.4300   42.8930 H   0  0  0  0  0  0  0  0  0  0  0  0
   35.7820   24.2030   41.3110 H   0  0  0  0  0  0  0  0  0  0  0  0
  1  6  1  0  0  0  0
  2  3  1  0  0  0  0
  2  1  2  0  0  0  0
  3  4  2  0  0  0  0
  4  5  1  0  0  0  0
  5  6  2  0  0  0  0
  5  8  1  0  0  0  0
  7  1  1  0  0  0  0
 10  9  1  0  0  0  0
 11 10  1  0  0  0  0
 11  2  1  0  0  0  0
 12 11  2  0  0  0  0
 13 12  1  0  0  0  0
 14 16  2  0  0  0  0
 14 12  1  0  0  0  0
 15 14  1  0  0  0  0
 16 17  1  0  0  0  0
 17 10  2  0  0  0  0
 18 19  1  0  0  0  0
 18 20  1  0  0  0  0
 18  3  1  0  0  0  0
 19 20  1  0  0  0  0
 19 23  1  0  0  0  0
 20 24  1  0  0  0  0
 21 18  1  0  0  0  0
 22 19  1  0  0  0  0
 25 20  1  0  0  0  0
M  END
>  <minimizedAffinity>
-4.53818703

$$$$

 OpenBabel03252509213D

 25 27  0  0  0  0  0  0  0  0999 V2000
   36.8190   31.0880   40.5840 C   0  0  0  0  0  0  0  0  0  0  0  0
   37.7870   30.3520   41.3510 C   0  0  0  0  0  0  0  0  0  0  0  0
   38.9710   31.0210   41.6060 C   0  0  0  0  0  0  0  0  0  0  0  0
   39.2050   32.3020   41.1540 N   0  0  0  0  0  0  0  0  0  0  0  0
   38.2510   32.9460   40.4350 C   0  0  0  0  0  0  0  0  0  0  0  0
   37.0800   32.3390   40.1590 N   0  0  0  0  0  0  0  0  0  0  0  0
   35.9250   30.5420   40.4090 H   0  0  0  0  0  0  0  0  0  0  0  0
   38.4720   33.9370   40.1050 H   0  0  0  0  0  0  0  0  0  0  0  0
   38.2660   28.1970   39.6620 F   0  0  0  0  0  0  0  0  0  0  0  0
   37.8000   27.9670   40.9220 C   0  0  0  0  0  0  0  0  0  0  0  0
   37.5370   28.9990   41.8260 C   0  0  0  0  0  0  0  0  0  0  0  0
   37.0690   28.6330   43.0710 C   0  0  0  0  0  0  0  0  0  0  0  0
   36.8730   29.4520   43.7520 H   0  0  0  0  0  0  0  0  0  0  0  0
   36.8720   27.3160   43.4020 C   0  0  0  0  0  0  0  0  0  0  0  0
   36.4990   27.0790   44.4020 H   0  0  0  0  0  0  0  0  0  0  0  0
   37.1380   26.2990   42.4910 C   0  0  0  0  0  3  0  0  0  0  0  0
   37.6080   26.6520   41.2420 C   0  0  0  0  0  3  0  0  0  0  0  0
   39.9570   30.3060   42.4970 C   0  0  0  0  0  0  0  0  0  0  0  0
   41.1550   29.7910   41.6930 C   0  0  0  0  0  0  0  0  0  0  0  0
   41.2320   30.9490   42.7260 C   0  0  0  0  0  0  0  0  0  0  0  0
   39.5280   29.4020   43.0090 H   0  0  0  0  0  0  0  0  0  0  0  0
   41.7070   28.9000   42.0250 H   0  0  0  0  0  0  0  0  0  0  0  0
   41.2140   30.0690   40.6400 H   0  0  0  0  0  0  0  0  0  0  0  0
   41.3860   31.9530   42.2790 H   0  0  0  0  0  0  0  0  0  0  0  0
   41.8360   30.7640   43.6480 H   0  0  0  0  0  0  0  0  0  0  0  0
  1  2  1  0  0  0  0
  2  3  2  0  0  0  0
  2 11  1  0  0  0  0
  3 18  1  0  0  0  0
  4  3  1  0  0  0  0
  5  4  2  0  0  0  0
  6  5  1  0  0  0  0
  6  1  2  0  0  0  0
  7  1  1  0  0  0  0
  8  5  1  0  0  0  0
  9 10  1  0  0  0  0
 10 17  2  0  0  0  0
 10 11  1  0  0  0  0
 11 12  2  0  0  0  0
 12 14  1  0  0  0  0
 12 13  1  0  0  0  0
 14 15  1  0  0  0  0
 16 14  2  0  0  0  0
 17 16  1  0  0  0  0
 18 20  1  0  0  0  0
 18 21  1  0  0  0  0
 19 22  1  0  0  0  0
 19 18  1  0  0  0  0
 19 20  1  0  0  0  0
 20 25  1  0  0  0  0
 23 19  1  0  0  0  0
 24 20  1  0  0  0  0
M  END
>  <minimizedAffinity>
-4.52825117

$$$$

 OpenBabel03252509213D

 25 27  0  0  0  0  0  0  0  0999 V2000
   35.9790   27.4340   38.9510 C   0  0  0  0  0  0  0  0  0  0  0  0
   36.6220   26.9600   40.1480 C   0  0  0  0  0  0  0  0  0  0  0  0
   36.6130   27.8420   41.2130 C   0  0  0  0  0  0  0  0  0  0  0  0
   36.0310   29.0890   41.1310 N   0  0  0  0  0  0  0  0  0  0  0  0
   35.4390   29.4810   39.9740 C   0  0  0  0  0  0  0  0  0  0  0  0
   35.4190   28.6580   38.9060 N   0  0  0  0  0  0  0  0  0  0  0  0
   36.0070   26.7290   38.1570 H   0  0  0  0  0  0  0  0  0  0  0  0
   35.0000   30.4530   39.9530 H   0  0  0  0  0  0  0  0  0  0  0  0
   39.3040   26.6560   39.4870 F   0  0  0  0  0  0  0  0  0  0  0  0
   38.5860   25.5670   39.8820 C   0  0  0  0  0  0  0  0  0  0  0  0
   37.2360   25.6430   40.2300 C   0  0  0  0  0  0  0  0  0  0  0  0
   36.6240   24.4670   40.6140 C   0  0  0  0  0  0  0  0  0  0  0  0
   35.5770   24.5540   40.8780 H   0  0  0  0  0  0  0  0  0  0  0  0
   37.3130   23.2820   40.6520 C   0  0  0  0  0  0  0  0  0  0  0  0
   36.7810   22.3780   40.9630 H   0  0  0  0  0  0  0  0  0  0  0  0
   38.6580   23.2210   40.3020 C   0  0  0  0  0  3  0  0  0  0  0  0
   39.2820   24.3900   39.9170 C   0  0  0  0  0  3  0  0  0  0  0  0
   37.1890   27.3240   42.5070 C   0  0  0  0  0  0  0  0  0  0  0  0
   37.4420   28.4660   43.4960 C   0  0  0  0  0  0  0  0  0  0  0  0
   36.3450   27.3810   43.6800 C   0  0  0  0  0  0  0  0  0  0  0  0
   38.1800   26.8080   42.3840 H   0  0  0  0  0  0  0  0  0  0  0  0
   38.2380   28.3850   44.2490 H   0  0  0  0  0  0  0  0  0  0  0  0
   37.1030   29.4640   43.2130 H   0  0  0  0  0  0  0  0  0  0  0  0
   35.3070   27.7510   43.5450 H   0  0  0  0  0  0  0  0  0  0  0  0
   36.4690   26.6780   44.5400 H   0  0  0  0  0  0  0  0  0  0  0  0
  1  2  1  0  0  0  0
  2 11  1  0  0  0  0
  2  3  2  0  0  0  0
  3 18  1  0  0  0  0
  4  3  1  0  0  0  0
  5  4  2  0  0  0  0
  6  1  2  0  0  0  0
  6  5  1  0  0  0  0
  7  1  1  0  0  0  0
  8  5  1  0  0  0  0
  9 10  1  0  0  0  0
 10 17  2  0  0  0  0
 10 11  1  0  0  0  0
 11 12  2  0  0  0  0
 12 14  1  0  0  0  0
 12 13  1  0  0  0  0
 14 15  1  0  0  0  0
 16 14  2  0  0  0  0
 17 16  1  0  0  0  0
 18 19  1  0  0  0  0
 18 20  1  0  0  0  0
 19 20  1  0  0  0  0
 19 22  1  0  0  0  0
 20 25  1  0  0  0  0
 21 18  1  0  0  0  0
 23 19  1  0  0  0  0
 24 20  1  0  0  0  0
M  END
>  <minimizedAffinity>
-4.51644278

$$$$

 OpenBabel03252509213D

 25 27  0  0  0  0  0  0  0  0999 V2000
   36.2750   28.0270   40.7330 C   0  0  0  0  0  0  0  0  0  0  0  0
   36.1470   29.1390   39.8300 C   0  0  0  0  0  0  0  0  0  0  0  0
   36.7030   30.3260   40.2720 C   0  0  0  0  0  0  0  0  0  0  0  0
   37.3330   30.4340   41.4940 N   0  0  0  0  0  0  0  0  0  0  0  0
   37.4230   29.3470   42.3030 C   0  0  0  0  0  0  0  0  0  0  0  0
   36.8970   28.1670   41.9190 N   0  0  0  0  0  0  0  0  0  0  0  0
   35.8360   27.1350   40.3580 H   0  0  0  0  0  0  0  0  0  0  0  0
   37.9190   29.4730   43.2390 H   0  0  0  0  0  0  0  0  0  0  0  0
   33.3710   29.2040   39.7140 F   0  0  0  0  0  0  0  0  0  0  0  0
   34.0840   29.0620   38.5610 C   0  0  0  0  0  0  0  0  0  0  0  0
   35.4800   29.0210   38.5420 C   0  0  0  0  0  0  0  0  0  0  0  0
   36.0830   28.8750   37.3090 C   0  0  0  0  0  0  0  0  0  0  0  0
   37.1650   28.8470   37.3220 H   0  0  0  0  0  0  0  0  0  0  0  0
   35.3420   28.7740   36.1580 C   0  0  0  0  0  0  0  0  0  0  0  0
   35.8680   28.6590   35.2070 H   0  0  0  0  0  0  0  0  0  0  0  0
   33.9520   28.8160   36.1930 C   0  0  0  0  0  3  0  0  0  0  0  0
   33.3370   28.9630   37.4200 C   0  0  0  0  0  3  0  0  0  0  0  0
   36.6720   31.4760   39.2970 C   0  0  0  0  0  0  0  0  0  0  0  0
   37.3620   32.7140   39.8780 C   0  0  0  0  0  0  0  0  0  0  0  0
   37.9270   31.8740   38.6990 C   0  0  0  0  0  0  0  0  0  0  0  0
   35.6320   31.8110   39.0280 H   0  0  0  0  0  0  0  0  0  0  0  0
   37.0580   33.7210   39.5640 H   0  0  0  0  0  0  0  0  0  0  0  0
   37.8650   32.6060   40.8410 H   0  0  0  0  0  0  0  0  0  0  0  0
   38.8260   31.2750   38.9510 H   0  0  0  0  0  0  0  0  0  0  0  0
   37.9800   32.3770   37.7010 H   0  0  0  0  0  0  0  0  0  0  0  0
  1  6  1  0  0  0  0
  2  3  1  0  0  0  0
  2  1  2  0  0  0  0
  3  4  2  0  0  0  0
  4  5  1  0  0  0  0
  5  8  1  0  0  0  0
  6  5  2  0  0  0  0
  7  1  1  0  0  0  0
 10  9  1  0  0  0  0
 11 10  1  0  0  0  0
 11  2  1  0  0  0  0
 12 13  1  0  0  0  0
 12 11  2  0  0  0  0
 14 16  2  0  0  0  0
 14 12  1  0  0  0  0
 15 14  1  0  0  0  0
 16 17  1  0  0  0  0
 17 10  2  0  0  0  0
 18 19  1  0  0  0  0
 18  3  1  0  0  0  0
 19 23  1  0  0  0  0
 20 24  1  0  0  0  0
 20 18  1  0  0  0  0
 20 19  1  0  0  0  0
 21 18  1  0  0  0  0
 22 19  1  0  0  0  0
 25 20  1  0  0  0  0
M  END
>  <minimizedAffinity>
-4.50810528

$$$$

 OpenBabel03252509213D

 25 27  0  0  0  0  0  0  0  0999 V2000
   40.7270   30.2310   42.2440 C   0  0  0  0  0  0  0  0  0  0  0  0
   39.3330   30.1800   41.8950 C   0  0  0  0  0  0  0  0  0  0  0  0
   38.8610   31.2690   41.1830 C   0  0  0  0  0  0  0  0  0  0  0  0
   39.6720   32.3280   40.8350 N   0  0  0  0  0  0  0  0  0  0  0  0
   40.9820   32.3190   41.1930 C   0  0  0  0  0  0  0  0  0  0  0  0
   41.4910   31.2820   41.8870 N   0  0  0  0  0  0  0  0  0  0  0  0
   41.0510   29.3790   42.7890 H   0  0  0  0  0  0  0  0  0  0  0  0
   41.5740   33.1570   40.9030 H   0  0  0  0  0  0  0  0  0  0  0  0
   39.0360   28.0460   40.1390 F   0  0  0  0  0  0  0  0  0  0  0  0
   38.3790   28.0250   41.3330 C   0  0  0  0  0  0  0  0  0  0  0  0
   38.4800   29.0610   42.2650 C   0  0  0  0  0  0  0  0  0  0  0  0
   37.7650   28.9170   43.4370 C   0  0  0  0  0  0  0  0  0  0  0  0
   37.8610   29.7330   44.1420 H   0  0  0  0  0  0  0  0  0  0  0  0
   36.9920   27.8080   43.6710 C   0  0  0  0  0  0  0  0  0  0  0  0
   36.4450   27.7430   44.6150 H   0  0  0  0  0  0  0  0  0  0  0  0
   36.9000   26.7850   42.7330 C   0  0  0  0  0  3  0  0  0  0  0  0
   37.6120   26.9160   41.5580 C   0  0  0  0  0  3  0  0  0  0  0  0
   37.4290   31.1860   40.7180 C   0  0  0  0  0  0  0  0  0  0  0  0
   37.0650   32.3800   39.8310 C   0  0  0  0  0  0  0  0  0  0  0  0
   37.2000   30.9210   39.3150 C   0  0  0  0  0  0  0  0  0  0  0  0
   36.6810   31.1970   41.5580 H   0  0  0  0  0  0  0  0  0  0  0  0
   36.0300   32.7450   39.7840 H   0  0  0  0  0  0  0  0  0  0  0  0
   37.8660   33.0720   39.5620 H   0  0  0  0  0  0  0  0  0  0  0  0
   38.0900   30.7400   38.6770 H   0  0  0  0  0  0  0  0  0  0  0  0
   36.2680   30.4280   38.9450 H   0  0  0  0  0  0  0  0  0  0  0  0
  1  7  1  0  0  0  0
  2  1  1  0  0  0  0
  2 11  1  0  0  0  0
  3  2  2  0  0  0  0
  4  3  1  0  0  0  0
  4  5  2  0  0  0  0
  5  6  1  0  0  0  0
  6  1  2  0  0  0  0
  8  5  1  0  0  0  0
  9 10  1  0  0  0  0
 10 17  2  0  0  0  0
 10 11  1  0  0  0  0
 11 12  2  0  0  0  0
 12 14  1  0  0  0  0
 12 13  1  0  0  0  0
 14 15  1  0  0  0  0
 16 14  2  0  0  0  0
 17 16  1  0  0  0  0
 18  3  1  0  0  0  0
 18 21  1  0  0  0  0
 19 18  1  0  0  0  0
 20 19  1  0  0  0  0
 20 18  1  0  0  0  0
 22 19  1  0  0  0  0
 23 19  1  0  0  0  0
 24 20  1  0  0  0  0
 25 20  1  0  0  0  0
M  END
>  <minimizedAffinity>
-4.50323105

$$$$

 OpenBabel03252509213D

 25 27  0  0  0  0  0  0  0  0999 V2000
   39.5880   28.3900   42.4900 C   0  0  0  0  0  0  0  0  0  0  0  0
   38.4990   27.9710   41.6480 C   0  0  0  0  0  0  0  0  0  0  0  0
   37.7840   28.9950   41.0530 C   0  0  0  0  0  0  0  0  0  0  0  0
   38.0930   30.3230   41.2550 N   0  0  0  0  0  0  0  0  0  0  0  0
   39.1340   30.6560   42.0610 C   0  0  0  0  0  0  0  0  0  0  0  0
   39.8630   29.6970   42.6640 N   0  0  0  0  0  0  0  0  0  0  0  0
   40.1110   27.5760   42.9280 H   0  0  0  0  0  0  0  0  0  0  0  0
   39.3400   31.6950   42.1900 H   0  0  0  0  0  0  0  0  0  0  0  0
   36.5580   26.7620   43.2280 F   0  0  0  0  0  0  0  0  0  0  0  0
   37.1910   26.0280   42.2700 C   0  0  0  0  0  0  0  0  0  0  0  0
   38.1750   26.5680   41.4380 C   0  0  0  0  0  0  0  0  0  0  0  0
   38.7380   25.7190   40.5070 C   0  0  0  0  0  0  0  0  0  0  0  0
   39.4980   26.1620   39.8750 H   0  0  0  0  0  0  0  0  0  0  0  0
   38.3460   24.4080   40.4050 C   0  0  0  0  0  0  0  0  0  0  0  0
   38.8240   23.7770   39.6500 H   0  0  0  0  0  0  0  0  0  0  0  0
   37.3640   23.8850   41.2400 C   0  0  0  0  0  3  0  0  0  0  0  0
   36.7930   24.7240   42.1750 C   0  0  0  0  0  3  0  0  0  0  0  0
   36.7050   28.5740   40.0860 C   0  0  0  0  0  0  0  0  0  0  0  0
   35.3170   28.9630   40.6030 C   0  0  0  0  0  0  0  0  0  0  0  0
   36.0060   29.6210   39.3750 C   0  0  0  0  0  0  0  0  0  0  0  0
   36.6610   27.4640   39.9150 H   0  0  0  0  0  0  0  0  0  0  0  0
   34.4320   28.3770   40.3190 H   0  0  0  0  0  0  0  0  0  0  0  0
   35.2660   29.5600   41.5150 H   0  0  0  0  0  0  0  0  0  0  0  0
   36.3410   30.6660   39.5430 H   0  0  0  0  0  0  0  0  0  0  0  0
   35.5300   29.4510   38.3780 H   0  0  0  0  0  0  0  0  0  0  0  0
  1  6  1  0  0  0  0
  1  7  1  0  0  0  0
  2  1  2  0  0  0  0
  3  4  2  0  0  0  0
  3  2  1  0  0  0  0
  4  5  1  0  0  0  0
  5  8  1  0  0  0  0
  5  6  2  0  0  0  0
 10  9  1  0  0  0  0
 11  2  1  0  0  0  0
 11 10  2  0  0  0  0
 12 11  1  0  0  0  0
 13 12  1  0  0  0  0
 14 12  2  0  0  0  0
 14 16  1  0  0  0  0
 15 14  1  0  0  0  0
 16 17  2  0  0  0  0
 17 10  1  0  0  0  0
 18 19  1  0  0  0  0
 18  3  1  0  0  0  0
 19 23  1  0  0  0  0
 20 24  1  0  0  0  0
 20 18  1  0  0  0  0
 20 19  1  0  0  0  0
 21 18  1  0  0  0  0
 22 19  1  0  0  0  0
 25 20  1  0  0  0  0
M  END
>  <minimizedAffinity>
-4.45080948

$$$$
