
 OpenBabel03252509113D

 31 34  0  0  0  0  0  0  0  0999 V2000
   46.0870   33.2960   39.4720 C   0  0  0  0  0  0  0  0  0  0  0  0
   46.1350   33.6810   40.8070 C   0  0  0  0  0  0  0  0  0  0  0  0
   45.0110   33.7160   41.6090 C   0  0  0  0  0  0  0  0  0  0  0  0
   43.7620   33.3600   41.1010 C   0  0  0  0  0  0  0  0  0  0  0  0
   42.4930   33.2780   41.5680 N   0  0  0  0  0  0  0  0  0  0  0  0
   41.6820   32.8570   40.5670 C   0  0  0  0  0  0  0  0  0  0  0  0
   42.4680   32.6830   39.4820 N   0  0  0  0  0  0  0  0  0  0  0  0
   43.7470   32.9820   39.7690 C   0  0  0  0  0  0  0  0  0  0  0  0
   44.8420   32.9350   38.9470 C   0  0  0  0  0  0  0  0  0  0  0  0
   46.9910   33.2820   38.8780 H   0  0  0  0  0  0  0  0  0  0  0  0
   42.2980   33.5230   42.5560 H   0  0  0  0  0  0  0  0  0  0  0  0
   40.6290   32.7260   40.7350 H   0  0  0  0  0  0  0  0  0  0  0  0
   44.7780   32.6310   37.9110 H   0  0  0  0  0  0  0  0  0  0  0  0
   49.0400   35.7090   41.7890 C   0  0  0  0  0  0  0  0  0  0  0  0
   49.8350   34.7580   42.4750 C   0  0  0  0  0  0  0  0  0  0  0  0
   49.3650   33.4440   42.5910 C   0  0  0  0  0  0  0  0  0  0  0  0
   48.1560   33.1620   42.0280 N   0  0  0  0  0  0  0  0  0  0  0  0
   47.4100   34.0630   41.3830 C   0  0  0  0  0  0  0  0  0  0  0  0
   47.8520   35.3350   41.2630 N   0  0  0  0  0  0  0  0  0  0  0  0
   49.4470   36.7070   41.7280 H   0  0  0  0  0  0  0  0  0  0  0  0
   50.7940   34.9980   42.9160 H   0  0  0  0  0  0  0  0  0  0  0  0
   49.9070   32.6640   43.0960 H   0  0  0  0  0  0  0  0  0  0  0  0
   44.3060   36.2920   42.1660 F   0  0  0  0  0  0  0  0  0  0  0  0
   44.6430   35.4420   43.1780 C   0  0  0  0  0  0  0  0  0  0  0  0
   45.0160   34.1170   43.0090 C   0  0  0  0  0  0  0  0  0  0  0  0
   45.3350   33.3480   44.1000 C   0  0  0  0  0  0  0  0  0  0  0  0
   45.6140   32.3330   43.8860 H   0  0  0  0  0  0  0  0  0  0  0  0
   45.2730   33.9370   45.3490 C   0  0  0  0  0  0  0  0  0  0  0  0
   45.5310   33.3060   46.1830 H   0  0  0  0  0  0  0  0  0  0  0  0
   44.9070   35.2450   45.5280 C   0  0  0  0  0  3  0  0  0  0  0  0
   44.5830   36.0260   44.4330 C   0  0  0  0  0  3  0  0  0  0  0  0
  1  2  1  0  0  0  0
  2 18  1  0  0  0  0
  2  3  2  0  0  0  0
  3 25  1  0  0  0  0
  4  5  1  0  0  0  0
  4  3  1  0  0  0  0
  5 11  1  0  0  0  0
  6 12  1  0  0  0  0
  6  5  1  0  0  0  0
  7  8  1  0  0  0  0
  7  6  2  0  0  0  0
  8  4  2  0  0  0  0
  9  1  2  0  0  0  0
  9  8  1  0  0  0  0
 10  1  1  0  0  0  0
 13  9  1  0  0  0  0
 14 15  1  0  0  0  0
 15 16  2  0  0  0  0
 15 21  1  0  0  0  0
 16 22  1  0  0  0  0
 17 16  1  0  0  0  0
 18 17  2  0  0  0  0
 19 18  1  0  0  0  0
 19 14  2  0  0  0  0
 20 14  1  0  0  0  0
 23 24  1  0  0  0  0
 24 31  1  0  0  0  0
 25 24  2  0  0  0  0
 25 26  1  0  0  0  0
 26 28  2  0  0  0  0
 27 26  1  0  0  0  0
 28 30  1  0  0  0  0
 28 29  1  0  0  0  0
 31 30  2  0  0  0  0
M  END
>  <minimizedAffinity>
-5.90639782

>  <minimizedRMSD>
5.31429052

$$$$
