
 OpenBabel03252508213D

 34 36  0  0  0  0  0  0  0  0999 V2000
   45.3070   34.0750   40.8790 C   0  0  0  0  0  0  0  0  0  0  0  0
   46.4080   34.5880   41.5120 C   0  0  0  0  0  0  0  0  0  0  0  0
   46.3890   35.4200   42.6140 C   0  0  0  0  0  0  0  0  0  0  0  0
   45.1090   35.7440   43.0980 C   0  0  0  0  0  0  0  0  0  0  0  0
   43.9670   35.2370   42.4770 C   0  0  0  0  0  0  0  0  0  0  0  0
   44.0430   34.4150   41.3850 C   0  0  0  0  0  0  0  0  0  0  0  0
   47.3840   34.3180   41.1120 H   0  0  0  0  0  0  0  0  0  0  0  0
   47.2760   35.8060   43.0850 H   0  0  0  0  0  0  0  0  0  0  0  0
   44.9810   36.3820   43.9480 H   0  0  0  0  0  0  0  0  0  0  0  0
   42.9930   35.4950   42.8600 H   0  0  0  0  0  0  0  0  0  0  0  0
   42.9260   35.7710   39.2580 F   0  0  0  0  0  0  0  0  0  0  0  0
   42.3210   34.6370   39.7250 C   0  0  0  0  0  0  0  0  0  0  0  0
   42.8200   33.9160   40.7780 C   0  0  0  0  0  0  0  0  0  0  0  0
   42.1590   32.7680   41.2100 C   0  0  0  0  0  0  0  0  0  0  0  0
   42.5920   32.2190   42.0540 H   0  0  0  0  0  0  0  0  0  0  0  0
   41.0000   32.3630   40.5740 C   0  0  0  0  0  0  0  0  0  0  0  0
   40.4960   31.4630   40.9260 H   0  0  0  0  0  0  0  0  0  0  0  0
   40.5110   33.1110   39.5080 C   0  0  0  0  0  3  0  0  0  0  0  0
   41.1690   34.2400   39.0900 C   0  0  0  0  0  3  0  0  0  0  0  0
   45.3360   33.1900   39.7080 C   0  0  0  0  0  0  0  0  0  0  0  0
   44.5500   33.5210   38.9680 H   0  0  0  0  0  0  0  0  0  0  0  0
   45.2150   32.1240   39.9600 H   0  0  0  0  0  0  0  0  0  0  0  0
   46.6480   33.3250   38.9560 C   0  0  0  0  0  0  0  0  0  0  0  0
   46.8110   34.4040   38.7320 H   0  0  0  0  0  0  0  0  0  0  0  0
   47.5120   32.9680   39.5260 H   0  0  0  0  0  0  0  0  0  0  0  0
   45.4140   32.3910   35.5240 C   0  0  0  0  0  0  0  0  0  0  0  0
   45.5200   33.0740   36.7520 C   0  0  0  0  0  0  0  0  0  0  0  0
   46.5000   32.6320   37.6450 C   0  0  0  0  0  0  0  0  0  0  0  0
   47.2970   31.5650   37.2770 N   0  0  0  0  0  0  0  0  0  0  0  0
   47.1520   30.9540   36.0950 C   0  0  0  0  0  0  0  0  0  0  0  0
   46.2180   31.3540   35.2140 N   0  0  0  0  0  0  0  0  0  0  0  0
   44.6920   32.6630   34.7820 H   0  0  0  0  0  0  0  0  0  0  0  0
   44.8580   33.8940   36.9570 H   0  0  0  0  0  0  0  0  0  0  0  0
   47.8290   30.1310   35.9100 H   0  0  0  0  0  0  0  0  0  0  0  0
  1  6  2  0  0  0  0
  1  2  1  0  0  0  0
  2  3  2  0  0  0  0
  3  8  1  0  0  0  0
  3  4  1  0  0  0  0
  4  9  1  0  0  0  0
  5 10  1  0  0  0  0
  5  4  2  0  0  0  0
  6  5  1  0  0  0  0
  7  2  1  0  0  0  0
 11 12  1  0  0  0  0
 12 13  1  0  0  0  0
 13 14  2  0  0  0  0
 13  6  1  0  0  0  0
 14 15  1  0  0  0  0
 16 17  1  0  0  0  0
 16 14  1  0  0  0  0
 18 16  2  0  0  0  0
 19 18  1  0  0  0  0
 19 12  2  0  0  0  0
 20 22  1  0  0  0  0
 20  1  1  0  0  0  0
 21 20  1  0  0  0  0
 23 25  1  0  0  0  0
 23 20  1  0  0  0  0
 24 23  1  0  0  0  0
 26 27  1  0  0  0  0
 27 33  1  0  0  0  0
 27 28  2  0  0  0  0
 28 23  1  0  0  0  0
 29 28  1  0  0  0  0
 30 29  2  0  0  0  0
 31 26  2  0  0  0  0
 31 30  1  0  0  0  0
 32 26  1  0  0  0  0
 34 30  1  0  0  0  0
M  END
>  <minimizedAffinity>
-4.55211592

>  <minimizedRMSD>
5.87770653

$$$$
