
 OpenBabel03252509213D

 25 27  0  0  0  0  0  0  0  0999 V2000
   45.0400   34.2330   43.7080 C   0  0  0  0  0  0  0  0  0  0  0  0
   44.9360   34.1660   42.2760 C   0  0  0  0  0  0  0  0  0  0  0  0
   46.1290   33.9670   41.6040 C   0  0  0  0  0  0  0  0  0  0  0  0
   47.3330   33.8450   42.2640 N   0  0  0  0  0  0  0  0  0  0  0  0
   47.3680   33.9170   43.6190 C   0  0  0  0  0  0  0  0  0  0  0  0
   46.2340   34.1090   44.3210 N   0  0  0  0  0  0  0  0  0  0  0  0
   44.1050   34.3860   44.1870 H   0  0  0  0  0  0  0  0  0  0  0  0
   48.3200   33.8160   44.0900 H   0  0  0  0  0  0  0  0  0  0  0  0
   43.2800   31.9480   42.0240 F   0  0  0  0  0  0  0  0  0  0  0  0
   42.8840   33.1390   41.4960 C   0  0  0  0  0  0  0  0  0  0  0  0
   43.6620   34.2960   41.5830 C   0  0  0  0  0  0  0  0  0  0  0  0
   43.1470   35.4390   41.0060 C   0  0  0  0  0  0  0  0  0  0  0  0
   43.7700   36.3200   41.0880 H   0  0  0  0  0  0  0  0  0  0  0  0
   41.9280   35.4360   40.3780 C   0  0  0  0  0  0  0  0  0  0  0  0
   41.5650   36.3680   39.9360 H   0  0  0  0  0  0  0  0  0  0  0  0
   41.1640   34.2770   40.2990 C   0  0  0  0  0  3  0  0  0  0  0  0
   41.6670   33.1260   40.8710 C   0  0  0  0  0  3  0  0  0  0  0  0
   46.0270   33.7900   40.1100 C   0  0  0  0  0  0  0  0  0  0  0  0
   47.4130   33.7600   39.4600 C   0  0  0  0  0  0  0  0  0  0  0  0
   46.4700   32.5280   39.5590 C   0  0  0  0  0  0  0  0  0  0  0  0
   45.4720   34.6210   39.5940 H   0  0  0  0  0  0  0  0  0  0  0  0
   47.5510   34.0970   38.4240 H   0  0  0  0  0  0  0  0  0  0  0  0
   48.2820   33.7670   40.1220 H   0  0  0  0  0  0  0  0  0  0  0  0
   46.8070   31.7490   40.2730 H   0  0  0  0  0  0  0  0  0  0  0  0
   46.0680   32.1220   38.5980 H   0  0  0  0  0  0  0  0  0  0  0  0
  1  7  1  0  0  0  0
  1  6  1  0  0  0  0
  2  1  2  0  0  0  0
  3  4  2  0  0  0  0
  3  2  1  0  0  0  0
  4  5  1  0  0  0  0
  5  8  1  0  0  0  0
  5  6  2  0  0  0  0
 10 11  1  0  0  0  0
 10  9  1  0  0  0  0
 11  2  1  0  0  0  0
 12 13  1  0  0  0  0
 12 11  2  0  0  0  0
 14 12  1  0  0  0  0
 15 14  1  0  0  0  0
 16 14  2  0  0  0  0
 16 17  1  0  0  0  0
 17 10  2  0  0  0  0
 18  3  1  0  0  0  0
 19 20  1  0  0  0  0
 19 18  1  0  0  0  0
 19 23  1  0  0  0  0
 20 18  1  0  0  0  0
 20 24  1  0  0  0  0
 21 18  1  0  0  0  0
 22 19  1  0  0  0  0
 25 20  1  0  0  0  0
M  END
>  <minimizedAffinity>
-3.76722145

>  <minimizedRMSD>
3.32162476

$$$$
