
     RDKit          3D

 33 36  0  0  0  0  0  0  0  0999 V2000
   47.2323   31.3668   45.0788 C   0  0  0  0  0  0  0  0  0  0  0  0
   46.8881   32.7142   45.0966 C   0  0  0  0  0  0  0  0  0  0  0  0
   46.2866   33.3100   46.1884 C   0  0  0  0  0  0  0  0  0  0  0  0
   45.9966   32.5709   47.3336 C   0  0  0  0  0  0  0  0  0  0  0  0
   45.4350   32.8048   48.5451 N   0  0  0  0  0  0  0  0  0  0  0  0
   45.4275   31.6519   49.2567 C   0  0  0  0  0  0  0  0  0  0  0  0
   45.9899   30.7089   48.4699 N   0  0  0  0  0  0  0  0  0  0  0  0
   46.3513   31.2325   47.2849 C   0  0  0  0  0  0  0  0  0  0  0  0
   46.9476   30.6107   46.2215 C   0  0  0  0  0  0  0  0  0  0  0  0
   46.5078   35.2082   42.4229 C   0  0  0  0  0  0  0  0  0  0  0  0
   47.7179   35.0448   41.7045 C   0  0  0  0  0  0  0  0  0  0  0  0
   48.6405   34.0894   42.1459 C   0  0  0  0  0  0  0  0  0  0  0  0
   48.3099   33.3678   43.2541 N   0  0  0  0  0  0  0  0  0  0  0  0
   47.1671   33.5260   43.9275 C   0  0  0  0  0  0  0  0  0  0  0  0
   46.2670   34.4453   43.5125 N   0  0  0  0  0  0  0  0  0  0  0  0
   47.7023   30.9378   44.2042 H   0  0  0  0  0  0  0  0  0  0  0  0
   45.1022   33.7589   48.7738 H   0  0  0  0  0  0  0  0  0  0  0  0
   45.0208   31.6257   50.2505 H   0  0  0  0  0  0  0  0  0  0  0  0
   47.2055   29.5611   46.2320 H   0  0  0  0  0  0  0  0  0  0  0  0
   45.8311   35.9579   42.0421 H   0  0  0  0  0  0  0  0  0  0  0  0
   47.9645   35.6264   40.8250 H   0  0  0  0  0  0  0  0  0  0  0  0
   49.5811   33.9046   41.6577 H   0  0  0  0  0  0  0  0  0  0  0  0
   47.5960   35.0188   44.5135 F   0  0  0  0  0  0  0  0  0  0  0  0
   46.6334   35.4930   45.3583 C   0  0  0  0  0  0  0  0  0  0  0  0
   45.9074   34.7155   46.2479 C   0  0  0  0  0  0  0  0  0  0  0  0
   44.9603   35.2954   47.0534 C   0  0  0  0  0  0  0  0  0  0  0  0
   44.4426   34.6267   47.7150 H   0  0  0  0  0  0  0  0  0  0  0  0
   44.7641   36.6591   46.9434 C   0  0  0  0  0  0  0  0  0  0  0  0
   44.0141   37.0827   47.5906 H   0  0  0  0  0  0  0  0  0  0  0  0
   45.4753   37.4375   46.0680 C   0  0  0  0  0  0  0  0  0  0  0  0
   46.4312   36.8583   45.2537 C   0  0  0  0  0  0  0  0  0  0  0  0
   45.3034   38.5021   46.0005 H   0  0  0  0  0  0  0  0  0  0  0  0
   46.9773   37.4956   44.5734 H   0  0  0  0  0  0  0  0  0  0  0  0
  1  2  2  0
  1  9  1  0
  2  3  1  0
  3  4  2  0
  4  5  1  0
  5  6  1  0
  7  6  2  0
  8  4  1  0
  8  7  1  0
  9  8  2  0
 10 15  2  0
 11 12  2  0
 11 10  1  0
 12 13  1  0
 13 14  2  0
 14  2  1  0
 15 14  1  0
  1 16  1  0
  5 17  1  0
  6 18  1  0
  9 19  1  0
 10 20  1  0
 11 21  1  0
 12 22  1  0
 23 24  1  0
 24 25  2  0
 25 26  1  0
 26 27  1  0
 26 28  2  0
 28 29  1  0
 28 30  1  0
 30 31  2  0
 31 24  1  0
 30 32  1  0
 31 33  1  0
  3 25  1  0
M  ISO  8  16  14  17   9  18  14  19  14  20  14  21  14  22  14  27  15
M  ISO  1  29  16
M  END
>  <DihAtoms>  (1) 
1,2,24,23

>  <DihDeg>  (1) 
-97.88086209139279

$$$$
