
 OpenBabel03252507193D

 44 47  0  0  1  0  0  0  0  0999 V2000
   46.9150   33.1030   43.3140 C   0  0  0  0  0  0  0  0  0  0  0  0
   48.0610   32.9050   43.8030 O   0  0  0  0  0  0  0  0  0  0  0  0
   46.4170   32.4430   42.1440 N   0  0  0  0  0  0  0  0  0  0  0  0
   45.1190   31.8370   41.8720 C   0  0  0  0  0  0  0  0  0  0  0  0
   44.5530   32.4090   40.5590 C   0  0  0  0  0  0  0  0  0  0  0  0
   45.4500   31.9980   39.4200 C   0  0  0  0  0  0  0  0  0  0  0  0
   46.7600   31.4870   39.9470 C   0  0  0  0  0  0  0  0  0  0  0  0
   47.3250   32.3540   41.0320 C   0  0  2  0  0  0  0  0  0  0  0  0
   44.3970   32.0870   42.6770 H   0  0  0  0  0  0  0  0  0  0  0  0
   45.2630   30.7680   41.7010 H   0  0  0  0  0  0  0  0  0  0  0  0
   43.5060   32.1310   40.4530 H   0  0  0  0  0  0  0  0  0  0  0  0
   44.6560   33.5300   40.6420 H   0  0  0  0  0  0  0  0  0  0  0  0
   45.6850   32.8710   38.7450 H   0  0  0  0  0  0  0  0  0  0  0  0
   44.9330   31.2280   38.8220 H   0  0  0  0  0  0  0  0  0  0  0  0
   47.4790   31.4990   39.0960 H   0  0  0  0  0  0  0  0  0  0  0  0
   46.7060   30.4170   40.2510 H   0  0  0  0  0  0  0  0  0  0  0  0
   47.3970   33.3770   40.6100 H   0  0  0  0  0  0  0  0  0  0  0  0
   49.3980   34.1430   41.1420 F   0  0  0  0  0  0  0  0  0  0  0  0
   49.7290   32.8510   41.4270 C   0  0  0  0  0  0  0  0  0  0  0  0
   48.6920   31.9120   41.3860 C   0  0  0  0  0  0  0  0  0  0  0  0
   49.1080   30.6310   41.6860 C   0  0  0  0  0  0  0  0  0  0  0  0
   48.3230   29.8700   41.6630 H   0  0  0  0  0  0  0  0  0  0  0  0
   50.4190   30.3330   41.9910 C   0  0  0  0  0  0  0  0  0  0  0  0
   50.6480   29.2880   42.2140 H   0  0  0  0  0  0  0  0  0  0  0  0
   51.3880   31.3110   42.0120 C   0  0  0  0  0  0  0  0  0  0  0  0
   51.0400   32.6110   41.7220 C   0  0  0  0  0  0  0  0  0  0  0  0
   45.6450   35.1950   43.2510 C   0  0  0  0  0  0  0  0  0  0  0  0
   46.0560   34.0550   43.9820 C   0  0  0  0  0  0  0  0  0  0  0  0
   45.6360   33.8890   45.2840 C   0  0  0  0  0  0  0  0  0  0  0  0
   44.8340   34.8360   45.8220 N   0  0  0  0  0  0  0  0  0  0  0  0
   44.4310   35.9330   45.1340 C   0  0  0  0  0  0  0  0  0  0  0  0
   44.8450   36.0920   43.8590 N   0  0  0  0  0  0  0  0  0  0  0  0
   45.9960   35.2920   42.2290 H   0  0  0  0  0  0  0  0  0  0  0  0
   43.8000   36.6840   45.5450 H   0  0  0  0  0  0  0  0  0  0  0  0
   46.0770   32.7200   46.0150 C   0  0  0  0  0  0  0  0  0  0  0  0
   45.5790   31.4930   45.6970 C   0  0  0  0  0  0  0  0  0  0  0  0
   46.0020   30.3840   46.3980 C   0  0  0  0  0  0  0  0  0  0  0  0
   46.9290   30.4630   47.4310 C   0  0  0  0  0  0  0  0  0  0  0  0
   47.4020   31.7410   47.7110 C   0  0  0  0  0  0  0  0  0  0  0  0
   46.9640   32.7890   47.0040 N   0  0  0  0  0  0  0  0  0  0  0  0
   44.8590   31.2260   44.9480 H   0  0  0  0  0  0  0  0  0  0  0  0
   45.6640   29.3580   46.2200 H   0  0  0  0  0  0  0  0  0  0  0  0
   47.2700   29.6020   47.9910 H   0  0  0  0  0  0  0  0  0  0  0  0
   48.1300   31.8340   48.5170 H   0  0  0  0  0  0  0  0  0  0  0  0
  1  2  2  0  0  0  0
  1 28  1  0  0  0  0
  3  1  1  0  0  0  0
  4  3  1  0  0  0  0
  4  9  1  0  0  0  0
  5 12  1  0  0  0  0
  5  4  1  0  0  0  0
  6  7  1  0  0  0  0
  6  5  1  0  0  0  0
  7 16  1  0  0  0  0
  7  8  1  0  0  0  0
  8 17  1  6  0  0  0
  8 20  1  0  0  0  0
  8  3  1  0  0  0  0
 10  4  1  0  0  0  0
 11  5  1  0  0  0  0
 13  6  1  0  0  0  0
 14  6  1  0  0  0  0
 15  7  1  0  0  0  0
 18 19  1  0  0  0  0
 19 26  1  0  0  0  0
 20 19  2  0  0  0  0
 20 21  1  0  0  0  0
 21 23  2  0  0  0  0
 22 21  1  0  0  0  0
 23 25  1  0  0  0  0
 23 24  1  0  0  0  0
 26 25  2  0  0  0  0
 27 32  2  0  0  0  0
 27 28  1  0  0  0  0
 28 29  2  0  0  0  0
 29 30  1  0  0  0  0
 29 35  1  0  0  0  0
 31 34  1  0  0  0  0
 31 30  2  0  0  0  0
 32 31  1  0  0  0  0
 33 27  1  0  0  0  0
 35 40  1  0  0  0  0
 36 35  2  0  0  0  0
 36 37  1  0  0  0  0
 37 38  2  0  0  0  0
 38 39  1  0  0  0  0
 38 43  1  0  0  0  0
 39 44  1  0  0  0  0
 40 39  2  0  0  0  0
 41 36  1  0  0  0  0
 42 37  1  0  0  0  0
M  END
>  <minimizedAffinity>
-5.43705416

>  <minimizedRMSD>
1.24842095

$$$$
