
 OpenBabel03252507213D

 44 47  0  0  1  0  0  0  0  0999 V2000
   38.9180   29.0430   40.4600 C   0  0  0  0  0  0  0  0  0  0  0  0
   39.4560   28.5270   39.4420 O   0  0  0  0  0  0  0  0  0  0  0  0
   38.4270   28.2930   41.5770 N   0  0  0  0  0  0  0  0  0  0  0  0
   38.5660   28.5170   43.0110 C   0  0  0  0  0  0  0  0  0  0  0  0
   37.1730   28.4880   43.6690 C   0  0  0  0  0  0  0  0  0  0  0  0
   36.5910   27.1070   43.5200 C   0  0  0  0  0  0  0  0  0  0  0  0
   37.3640   26.3220   42.4990 C   0  0  0  0  0  0  0  0  0  0  0  0
   37.6590   27.1180   41.2620 C   0  0  2  0  0  0  0  0  0  0  0  0
   39.0000   29.5200   43.2070 H   0  0  0  0  0  0  0  0  0  0  0  0
   39.1230   27.6830   43.4420 H   0  0  0  0  0  0  0  0  0  0  0  0
   37.2380   28.8600   44.6900 H   0  0  0  0  0  0  0  0  0  0  0  0
   36.5230   29.1650   43.0430 H   0  0  0  0  0  0  0  0  0  0  0  0
   35.5220   27.1460   43.1640 H   0  0  0  0  0  0  0  0  0  0  0  0
   36.6090   26.6060   44.5040 H   0  0  0  0  0  0  0  0  0  0  0  0
   36.7250   25.4590   42.2010 H   0  0  0  0  0  0  0  0  0  0  0  0
   38.2810   25.8570   42.9270 H   0  0  0  0  0  0  0  0  0  0  0  0
   36.6820   27.4800   40.8820 H   0  0  0  0  0  0  0  0  0  0  0  0
   40.0100   25.7870   41.7210 F   0  0  0  0  0  0  0  0  0  0  0  0
   39.4620   25.5900   40.4890 C   0  0  0  0  0  0  0  0  0  0  0  0
   38.2570   26.2500   40.2230 C   0  0  0  0  0  0  0  0  0  0  0  0
   37.7690   26.0000   38.9570 C   0  0  0  0  0  0  0  0  0  0  0  0
   36.8280   26.5000   38.7140 H   0  0  0  0  0  0  0  0  0  0  0  0
   38.4220   25.1770   38.0630 C   0  0  0  0  0  0  0  0  0  0  0  0
   37.9540   25.0420   37.0850 H   0  0  0  0  0  0  0  0  0  0  0  0
   39.6060   24.5600   38.3950 C   0  0  0  0  0  3  0  0  0  0  0  0
   40.1500   24.7670   39.6430 C   0  0  0  0  0  3  0  0  0  0  0  0
   39.8860   31.2260   41.0040 C   0  0  0  0  0  0  0  0  0  0  0  0
   38.7940   30.4840   40.4940 C   0  0  0  0  0  0  0  0  0  0  0  0
   37.6650   31.1400   40.0530 C   0  0  0  0  0  0  0  0  0  0  0  0
   37.6430   32.4910   40.1250 N   0  0  0  0  0  0  0  0  0  0  0  0
   38.6810   33.2160   40.6110 C   0  0  0  0  0  0  0  0  0  0  0  0
   39.7850   32.5680   41.0420 N   0  0  0  0  0  0  0  0  0  0  0  0
   40.7560   30.6750   41.3420 H   0  0  0  0  0  0  0  0  0  0  0  0
   38.6770   34.2780   40.6730 H   0  0  0  0  0  0  0  0  0  0  0  0
   36.5580   30.3590   39.5440 C   0  0  0  0  0  0  0  0  0  0  0  0
   35.5830   29.9310   40.3940 C   0  0  0  0  0  0  0  0  0  0  0  0
   34.5310   29.1870   39.9020 C   0  0  0  0  0  0  0  0  0  0  0  0
   34.4200   28.8480   38.5590 C   0  0  0  0  0  0  0  0  0  0  0  0
   35.4450   29.3130   37.7400 C   0  0  0  0  0  0  0  0  0  0  0  0
   36.4450   30.0330   38.2600 N   0  0  0  0  0  0  0  0  0  0  0  0
   35.4920   30.0770   41.4520 H   0  0  0  0  0  0  0  0  0  0  0  0
   33.7010   28.7970   40.5000 H   0  0  0  0  0  0  0  0  0  0  0  0
   33.6020   28.2640   38.1590 H   0  0  0  0  0  0  0  0  0  0  0  0
   35.3840   29.0630   36.6810 H   0  0  0  0  0  0  0  0  0  0  0  0
  1 28  1  0  0  0  0
  1  3  1  0  0  0  0
  2  1  2  0  0  0  0
  3  4  1  0  0  0  0
  4  9  1  0  0  0  0
  4 10  1  0  0  0  0
  4  5  1  0  0  0  0
  5 11  1  0  0  0  0
  6  5  1  0  0  0  0
  6 14  1  0  0  0  0
  7 16  1  0  0  0  0
  7  6  1  0  0  0  0
  8 17  1  6  0  0  0
  8  3  1  0  0  0  0
  8  7  1  0  0  0  0
 12  5  1  0  0  0  0
 13  6  1  0  0  0  0
 15  7  1  0  0  0  0
 19 18  1  0  0  0  0
 20 19  1  0  0  0  0
 20  8  1  0  0  0  0
 21 20  2  0  0  0  0
 22 21  1  0  0  0  0
 23 25  2  0  0  0  0
 23 21  1  0  0  0  0
 24 23  1  0  0  0  0
 25 26  1  0  0  0  0
 26 19  2  0  0  0  0
 27 32  1  0  0  0  0
 27 33  1  0  0  0  0
 28 27  2  0  0  0  0
 29 30  2  0  0  0  0
 29 28  1  0  0  0  0
 30 31  1  0  0  0  0
 31 34  1  0  0  0  0
 31 32  2  0  0  0  0
 35 29  1  0  0  0  0
 35 36  1  0  0  0  0
 36 41  1  0  0  0  0
 37 36  2  0  0  0  0
 37 42  1  0  0  0  0
 38 37  1  0  0  0  0
 39 40  1  0  0  0  0
 39 38  2  0  0  0  0
 40 35  2  0  0  0  0
 43 38  1  0  0  0  0
 44 39  1  0  0  0  0
M  END
>  <minimizedAffinity>
-6.21597195

$$$$

 OpenBabel03252507213D

 44 47  0  0  1  0  0  0  0  0999 V2000
   39.0180   28.9440   40.4780 C   0  0  0  0  0  0  0  0  0  0  0  0
   39.5470   28.3920   39.4740 O   0  0  0  0  0  0  0  0  0  0  0  0
   38.4920   28.2280   41.6020 N   0  0  0  0  0  0  0  0  0  0  0  0
   38.6260   28.4710   43.0340 C   0  0  0  0  0  0  0  0  0  0  0  0
   37.2280   28.5000   43.6800 C   0  0  0  0  0  0  0  0  0  0  0  0
   36.5990   27.1370   43.5470 C   0  0  0  0  0  0  0  0  0  0  0  0
   37.3540   26.3110   42.5460 C   0  0  0  0  0  0  0  0  0  0  0  0
   37.6870   27.0750   41.2990 C   0  0  2  0  0  0  0  0  0  0  0  0
   39.0930   29.4610   43.2180 H   0  0  0  0  0  0  0  0  0  0  0  0
   39.1510   27.6250   43.4830 H   0  0  0  0  0  0  0  0  0  0  0  0
   37.2960   28.8870   44.6950 H   0  0  0  0  0  0  0  0  0  0  0  0
   36.6060   29.1890   43.0380 H   0  0  0  0  0  0  0  0  0  0  0  0
   35.5350   27.2080   43.1810 H   0  0  0  0  0  0  0  0  0  0  0  0
   36.5920   26.6520   44.5390 H   0  0  0  0  0  0  0  0  0  0  0  0
   36.6890   25.4650   42.2560 H   0  0  0  0  0  0  0  0  0  0  0  0
   38.2510   25.8210   42.9890 H   0  0  0  0  0  0  0  0  0  0  0  0
   36.7260   27.4640   40.9040 H   0  0  0  0  0  0  0  0  0  0  0  0
   36.2610   26.3860   39.0630 F   0  0  0  0  0  0  0  0  0  0  0  0
   37.5050   25.8350   39.1520 C   0  0  0  0  0  0  0  0  0  0  0  0
   38.2630   26.1710   40.2790 C   0  0  0  0  0  0  0  0  0  0  0  0
   39.5070   25.5740   40.2940 C   0  0  0  0  0  0  0  0  0  0  0  0
   40.1270   25.8150   41.1610 H   0  0  0  0  0  0  0  0  0  0  0  0
   39.9350   24.7350   39.2880 C   0  0  0  0  0  0  0  0  0  0  0  0
   40.9370   24.3120   39.3910 H   0  0  0  0  0  0  0  0  0  0  0  0
   39.1330   24.4490   38.2060 C   0  0  0  0  0  3  0  0  0  0  0  0
   37.8790   25.0120   38.1290 C   0  0  0  0  0  3  0  0  0  0  0  0
   40.0640   31.1010   40.9770 C   0  0  0  0  0  0  0  0  0  0  0  0
   38.9430   30.3880   40.4880 C   0  0  0  0  0  0  0  0  0  0  0  0
   37.8340   31.0750   40.0450 C   0  0  0  0  0  0  0  0  0  0  0  0
   37.8580   32.4260   40.0940 N   0  0  0  0  0  0  0  0  0  0  0  0
   38.9240   33.1240   40.5590 C   0  0  0  0  0  0  0  0  0  0  0  0
   40.0090   32.4460   40.9930 N   0  0  0  0  0  0  0  0  0  0  0  0
   40.9180   30.5260   41.3170 H   0  0  0  0  0  0  0  0  0  0  0  0
   38.9570   34.1860   40.6030 H   0  0  0  0  0  0  0  0  0  0  0  0
   36.6960   30.3240   39.5580 C   0  0  0  0  0  0  0  0  0  0  0  0
   35.7100   29.9520   40.4210 C   0  0  0  0  0  0  0  0  0  0  0  0
   34.6300   29.2350   39.9510 C   0  0  0  0  0  0  0  0  0  0  0  0
   34.5000   28.8700   38.6160 C   0  0  0  0  0  0  0  0  0  0  0  0
   35.5380   29.2770   37.7830 C   0  0  0  0  0  0  0  0  0  0  0  0
   36.5670   29.9710   38.2830 N   0  0  0  0  0  0  0  0  0  0  0  0
   35.6290   30.1260   41.4760 H   0  0  0  0  0  0  0  0  0  0  0  0
   33.7880   28.8900   40.5600 H   0  0  0  0  0  0  0  0  0  0  0  0
   33.6590   28.3070   38.2330 H   0  0  0  0  0  0  0  0  0  0  0  0
   35.4640   29.0040   36.7300 H   0  0  0  0  0  0  0  0  0  0  0  0
  1 28  1  0  0  0  0
  1  3  1  0  0  0  0
  2  1  2  0  0  0  0
  3  4  1  0  0  0  0
  4  9  1  0  0  0  0
  4 10  1  0  0  0  0
  4  5  1  0  0  0  0
  5 11  1  0  0  0  0
  6  5  1  0  0  0  0
  6 14  1  0  0  0  0
  7 16  1  0  0  0  0
  7  6  1  0  0  0  0
  8 17  1  6  0  0  0
  8  3  1  0  0  0  0
  8  7  1  0  0  0  0
 12  5  1  0  0  0  0
 13  6  1  0  0  0  0
 15  7  1  0  0  0  0
 18 19  1  0  0  0  0
 19 20  1  0  0  0  0
 20 21  2  0  0  0  0
 20  8  1  0  0  0  0
 21 22  1  0  0  0  0
 23 24  1  0  0  0  0
 23 21  1  0  0  0  0
 25 23  2  0  0  0  0
 26 25  1  0  0  0  0
 26 19  2  0  0  0  0
 27 32  1  0  0  0  0
 27 33  1  0  0  0  0
 28 27  2  0  0  0  0
 29 30  2  0  0  0  0
 29 28  1  0  0  0  0
 30 31  1  0  0  0  0
 31 34  1  0  0  0  0
 31 32  2  0  0  0  0
 35 29  1  0  0  0  0
 35 36  1  0  0  0  0
 36 41  1  0  0  0  0
 37 36  2  0  0  0  0
 37 42  1  0  0  0  0
 38 37  1  0  0  0  0
 39 40  1  0  0  0  0
 39 38  2  0  0  0  0
 40 35  2  0  0  0  0
 43 38  1  0  0  0  0
 44 39  1  0  0  0  0
M  END
>  <minimizedAffinity>
-6.18280506

$$$$

 OpenBabel03252507213D

 44 47  0  0  1  0  0  0  0  0999 V2000
   38.1870   30.0420   39.7750 C   0  0  0  0  0  0  0  0  0  0  0  0
   37.7520   29.8070   38.6140 O   0  0  0  0  0  0  0  0  0  0  0  0
   38.0200   29.1570   40.8890 N   0  0  0  0  0  0  0  0  0  0  0  0
   38.9640   28.7280   41.9140 C   0  0  0  0  0  0  0  0  0  0  0  0
   38.3480   28.9670   43.3060 C   0  0  0  0  0  0  0  0  0  0  0  0
   37.1360   28.0870   43.4630 C   0  0  0  0  0  0  0  0  0  0  0  0
   36.7130   27.5410   42.1300 C   0  0  0  0  0  0  0  0  0  0  0  0
   36.7110   28.5840   41.0520 C   0  0  2  0  0  0  0  0  0  0  0  0
   39.8960   29.3280   41.8600 H   0  0  0  0  0  0  0  0  0  0  0  0
   39.1060   27.6490   41.8270 H   0  0  0  0  0  0  0  0  0  0  0  0
   39.1120   28.8530   44.0740 H   0  0  0  0  0  0  0  0  0  0  0  0
   37.9590   30.0260   43.2920 H   0  0  0  0  0  0  0  0  0  0  0  0
   36.2590   28.6620   43.8770 H   0  0  0  0  0  0  0  0  0  0  0  0
   37.3780   27.2720   44.1680 H   0  0  0  0  0  0  0  0  0  0  0  0
   35.6670   27.1740   42.2470 H   0  0  0  0  0  0  0  0  0  0  0  0
   37.2940   26.6370   41.8370 H   0  0  0  0  0  0  0  0  0  0  0  0
   36.0580   29.4050   41.4120 H   0  0  0  0  0  0  0  0  0  0  0  0
   34.5590   29.8050   39.8740 F   0  0  0  0  0  0  0  0  0  0  0  0
   35.0130   28.6870   39.2390 C   0  0  0  0  0  0  0  0  0  0  0  0
   36.1150   28.0410   39.8110 C   0  0  0  0  0  0  0  0  0  0  0  0
   36.5120   26.9210   39.1110 C   0  0  0  0  0  0  0  0  0  0  0  0
   37.3710   26.3910   39.5300 H   0  0  0  0  0  0  0  0  0  0  0  0
   35.8700   26.5010   37.9650 C   0  0  0  0  0  0  0  0  0  0  0  0
   36.2600   25.6020   37.4830 H   0  0  0  0  0  0  0  0  0  0  0  0
   34.7890   27.1880   37.4590 C   0  0  0  0  0  3  0  0  0  0  0  0
   34.3410   28.3150   38.1100 C   0  0  0  0  0  3  0  0  0  0  0  0
   38.2020   32.3400   40.6190 C   0  0  0  0  0  0  0  0  0  0  0  0
   38.8980   31.2830   39.9860 C   0  0  0  0  0  0  0  0  0  0  0  0
   40.2080   31.4620   39.5960 C   0  0  0  0  0  0  0  0  0  0  0  0
   40.7870   32.6600   39.8370 N   0  0  0  0  0  0  0  0  0  0  0  0
   40.1340   33.6830   40.4420 C   0  0  0  0  0  0  0  0  0  0  0  0
   38.8500   33.5030   40.8220 N   0  0  0  0  0  0  0  0  0  0  0  0
   37.1720   32.1620   40.9100 H   0  0  0  0  0  0  0  0  0  0  0  0
   40.5770   34.6300   40.6380 H   0  0  0  0  0  0  0  0  0  0  0  0
   40.8970   30.3700   38.9430 C   0  0  0  0  0  0  0  0  0  0  0  0
   40.9720   30.3320   37.5840 C   0  0  0  0  0  0  0  0  0  0  0  0
   41.6300   29.2880   36.9670 C   0  0  0  0  0  0  0  0  0  0  0  0
   42.2270   28.2560   37.6830 C   0  0  0  0  0  0  0  0  0  0  0  0
   42.1170   28.3490   39.0670 C   0  0  0  0  0  0  0  0  0  0  0  0
   41.4710   29.3800   39.6210 N   0  0  0  0  0  0  0  0  0  0  0  0
   40.5750   31.0180   36.8620 H   0  0  0  0  0  0  0  0  0  0  0  0
   41.7460   29.1660   35.8860 H   0  0  0  0  0  0  0  0  0  0  0  0
   42.7450   27.4300   37.2130 H   0  0  0  0  0  0  0  0  0  0  0  0
   42.5760   27.5530   39.6540 H   0  0  0  0  0  0  0  0  0  0  0  0
  1 28  1  0  0  0  0
  1  3  1  0  0  0  0
  2  1  2  0  0  0  0
  3  8  1  0  0  0  0
  3  4  1  0  0  0  0
  4  5  1  0  0  0  0
  5  6  1  0  0  0  0
  5 11  1  0  0  0  0
  6 13  1  0  0  0  0
  6 14  1  0  0  0  0
  7 15  1  0  0  0  0
  7  6  1  0  0  0  0
  8 17  1  1  0  0  0
  8  7  1  0  0  0  0
  9  4  1  0  0  0  0
 10  4  1  0  0  0  0
 12  5  1  0  0  0  0
 16  7  1  0  0  0  0
 19 20  1  0  0  0  0
 19 18  1  0  0  0  0
 20  8  1  0  0  0  0
 21 22  1  0  0  0  0
 21 20  2  0  0  0  0
 23 21  1  0  0  0  0
 24 23  1  0  0  0  0
 25 23  2  0  0  0  0
 25 26  1  0  0  0  0
 26 19  2  0  0  0  0
 27 32  1  0  0  0  0
 27 33  1  0  0  0  0
 28 27  2  0  0  0  0
 29 30  2  0  0  0  0
 29 28  1  0  0  0  0
 30 31  1  0  0  0  0
 31 34  1  0  0  0  0
 31 32  2  0  0  0  0
 35 29  1  0  0  0  0
 35 40  1  0  0  0  0
 36 35  2  0  0  0  0
 37 36  1  0  0  0  0
 37 38  2  0  0  0  0
 38 39  1  0  0  0  0
 39 40  2  0  0  0  0
 39 44  1  0  0  0  0
 41 36  1  0  0  0  0
 42 37  1  0  0  0  0
 43 38  1  0  0  0  0
M  END
>  <minimizedAffinity>
-5.87477255

$$$$

 OpenBabel03252507213D

 44 47  0  0  1  0  0  0  0  0999 V2000
   39.2490   27.4020   40.2130 C   0  0  0  0  0  0  0  0  0  0  0  0
   39.3790   26.3900   39.4700 O   0  0  0  0  0  0  0  0  0  0  0  0
   38.6290   27.3750   41.5040 N   0  0  0  0  0  0  0  0  0  0  0  0
   39.0320   27.9840   42.7670 C   0  0  0  0  0  0  0  0  0  0  0  0
   37.8570   28.8020   43.3360 C   0  0  0  0  0  0  0  0  0  0  0  0
   36.7250   27.8660   43.6690 C   0  0  0  0  0  0  0  0  0  0  0  0
   36.9510   26.5260   43.0290 C   0  0  0  0  0  0  0  0  0  0  0  0
   37.3990   26.6360   41.6020 C   0  0  2  0  0  0  0  0  0  0  0  0
   39.8750   28.6880   42.6070 H   0  0  0  0  0  0  0  0  0  0  0  0
   39.2270   27.1890   43.4900 H   0  0  0  0  0  0  0  0  0  0  0  0
   38.2040   29.4270   44.1570 H   0  0  0  0  0  0  0  0  0  0  0  0
   37.4860   29.4420   42.4840 H   0  0  0  0  0  0  0  0  0  0  0  0
   35.7410   28.2540   43.2800 H   0  0  0  0  0  0  0  0  0  0  0  0
   36.6510   27.7750   44.7670 H   0  0  0  0  0  0  0  0  0  0  0  0
   35.9720   25.9940   43.0360 H   0  0  0  0  0  0  0  0  0  0  0  0
   37.6260   25.8770   43.6310 H   0  0  0  0  0  0  0  0  0  0  0  0
   36.6320   27.2430   41.0790 H   0  0  0  0  0  0  0  0  0  0  0  0
   35.8240   26.0730   39.4310 F   0  0  0  0  0  0  0  0  0  0  0  0
   36.6080   25.0440   39.8630 C   0  0  0  0  0  0  0  0  0  0  0  0
   37.4300   25.3000   40.9670 C   0  0  0  0  0  0  0  0  0  0  0  0
   38.1890   24.2110   41.3420 C   0  0  0  0  0  0  0  0  0  0  0  0
   38.8430   24.3740   42.2020 H   0  0  0  0  0  0  0  0  0  0  0  0
   38.1260   23.0040   40.6780 C   0  0  0  0  0  0  0  0  0  0  0  0
   38.7680   22.2020   41.0520 H   0  0  0  0  0  0  0  0  0  0  0  0
   37.2930   22.8250   39.5980 C   0  0  0  0  0  3  0  0  0  0  0  0
   36.5060   23.8720   39.1710 C   0  0  0  0  0  3  0  0  0  0  0  0
   41.1550   28.8850   39.8080 C   0  0  0  0  0  0  0  0  0  0  0  0
   39.7590   28.6630   39.7230 C   0  0  0  0  0  0  0  0  0  0  0  0
   38.9420   29.6340   39.1870 C   0  0  0  0  0  0  0  0  0  0  0  0
   39.5140   30.7820   38.7550 N   0  0  0  0  0  0  0  0  0  0  0  0
   40.8490   31.0100   38.8300 C   0  0  0  0  0  0  0  0  0  0  0  0
   41.6450   30.0540   39.3570 N   0  0  0  0  0  0  0  0  0  0  0  0
   41.7650   28.0980   40.2370 H   0  0  0  0  0  0  0  0  0  0  0  0
   41.3110   31.9070   38.4940 H   0  0  0  0  0  0  0  0  0  0  0  0
   37.5180   29.3880   39.1180 C   0  0  0  0  0  0  0  0  0  0  0  0
   36.7100   29.7930   40.1370 C   0  0  0  0  0  0  0  0  0  0  0  0
   35.3540   29.5550   40.0660 C   0  0  0  0  0  0  0  0  0  0  0  0
   34.7650   28.9090   38.9850 C   0  0  0  0  0  0  0  0  0  0  0  0
   35.6400   28.5190   37.9760 C   0  0  0  0  0  0  0  0  0  0  0  0
   36.9490   28.7720   38.0860 N   0  0  0  0  0  0  0  0  0  0  0  0
   36.9670   30.2930   41.0500 H   0  0  0  0  0  0  0  0  0  0  0  0
   34.6220   29.8390   40.8290 H   0  0  0  0  0  0  0  0  0  0  0  0
   33.7030   28.7140   38.9150 H   0  0  0  0  0  0  0  0  0  0  0  0
   35.2060   28.0100   37.1140 H   0  0  0  0  0  0  0  0  0  0  0  0
  1  3  1  0  0  0  0
  2  1  2  0  0  0  0
  3  8  1  0  0  0  0
  3  4  1  0  0  0  0
  4  5  1  0  0  0  0
  4 10  1  0  0  0  0
  5  6  1  0  0  0  0
  5 11  1  0  0  0  0
  6 14  1  0  0  0  0
  7 15  1  0  0  0  0
  7 16  1  0  0  0  0
  7  6  1  0  0  0  0
  8 17  1  6  0  0  0
  8  7  1  0  0  0  0
  9  4  1  0  0  0  0
 12  5  1  0  0  0  0
 13  6  1  0  0  0  0
 18 19  1  0  0  0  0
 19 20  1  0  0  0  0
 20 21  2  0  0  0  0
 20  8  1  0  0  0  0
 21 22  1  0  0  0  0
 23 24  1  0  0  0  0
 23 21  1  0  0  0  0
 25 23  2  0  0  0  0
 26 25  1  0  0  0  0
 26 19  2  0  0  0  0
 27 33  1  0  0  0  0
 28 27  1  0  0  0  0
 28  1  1  0  0  0  0
 29 28  2  0  0  0  0
 30 31  2  0  0  0  0
 30 29  1  0  0  0  0
 31 32  1  0  0  0  0
 32 27  2  0  0  0  0
 34 31  1  0  0  0  0
 35 29  1  0  0  0  0
 35 36  1  0  0  0  0
 36 41  1  0  0  0  0
 37 36  2  0  0  0  0
 37 42  1  0  0  0  0
 38 37  1  0  0  0  0
 39 40  1  0  0  0  0
 39 38  2  0  0  0  0
 40 35  2  0  0  0  0
 43 38  1  0  0  0  0
 44 39  1  0  0  0  0
M  END
>  <minimizedAffinity>
-5.87304306

$$$$

 OpenBabel03252507213D

 44 47  0  0  1  0  0  0  0  0999 V2000
   39.2400   29.4250   41.2140 C   0  0  0  0  0  0  0  0  0  0  0  0
   38.8270   30.4870   41.7550 O   0  0  0  0  0  0  0  0  0  0  0  0
   39.9140   29.3770   39.9500 N   0  0  0  0  0  0  0  0  0  0  0  0
   41.0990   28.6390   39.5290 C   0  0  0  0  0  0  0  0  0  0  0  0
   40.7780   27.8470   38.2480 C   0  0  0  0  0  0  0  0  0  0  0  0
   40.4770   28.8160   37.1350 C   0  0  0  0  0  0  0  0  0  0  0  0
   40.2360   30.1900   37.6920 C   0  0  0  0  0  0  0  0  0  0  0  0
   39.3450   30.1770   38.8980 C   0  0  2  0  0  0  0  0  0  0  0  0
   41.3940   27.9030   40.3060 H   0  0  0  0  0  0  0  0  0  0  0  0
   41.8770   29.3560   39.2570 H   0  0  0  0  0  0  0  0  0  0  0  0
   41.5750   27.1340   38.0430 H   0  0  0  0  0  0  0  0  0  0  0  0
   39.8100   27.3060   38.4550 H   0  0  0  0  0  0  0  0  0  0  0  0
   39.5450   28.5220   36.5730 H   0  0  0  0  0  0  0  0  0  0  0  0
   41.3230   28.8170   36.4260 H   0  0  0  0  0  0  0  0  0  0  0  0
   39.7210   30.7770   36.8970 H   0  0  0  0  0  0  0  0  0  0  0  0
   41.1840   30.7450   37.8780 H   0  0  0  0  0  0  0  0  0  0  0  0
   38.4100   29.6640   38.5910 H   0  0  0  0  0  0  0  0  0  0  0  0
   36.7990   31.1340   38.5600 F   0  0  0  0  0  0  0  0  0  0  0  0
   37.6850   32.0170   39.1020 C   0  0  0  0  0  0  0  0  0  0  0  0
   38.9940   31.5590   39.2950 C   0  0  0  0  0  0  0  0  0  0  0  0
   39.8260   32.5100   39.8460 C   0  0  0  0  0  0  0  0  0  0  0  0
   40.8570   32.1860   40.0100 H   0  0  0  0  0  0  0  0  0  0  0  0
   39.3890   33.7780   40.1660 C   0  0  0  0  0  0  0  0  0  0  0  0
   40.1250   34.4590   40.5990 H   0  0  0  0  0  0  0  0  0  0  0  0
   38.0840   34.1600   39.9490 C   0  0  0  0  0  3  0  0  0  0  0  0
   37.2000   33.2580   39.4000 C   0  0  0  0  0  3  0  0  0  0  0  0
   40.0090   27.7580   42.8340 C   0  0  0  0  0  0  0  0  0  0  0  0
   39.0160   28.1820   41.9180 C   0  0  0  0  0  0  0  0  0  0  0  0
   37.8870   27.4160   41.7280 C   0  0  0  0  0  0  0  0  0  0  0  0
   37.7690   26.2680   42.4340 N   0  0  0  0  0  0  0  0  0  0  0  0
   38.7100   25.8480   43.3150 C   0  0  0  0  0  0  0  0  0  0  0  0
   39.8150   26.6030   43.4980 N   0  0  0  0  0  0  0  0  0  0  0  0
   40.8830   28.3870   42.9570 H   0  0  0  0  0  0  0  0  0  0  0  0
   38.6290   24.9480   43.8770 H   0  0  0  0  0  0  0  0  0  0  0  0
   36.8900   27.8650   40.7800 C   0  0  0  0  0  0  0  0  0  0  0  0
   36.9470   27.4450   39.4860 C   0  0  0  0  0  0  0  0  0  0  0  0
   35.9950   27.8780   38.5870 C   0  0  0  0  0  0  0  0  0  0  0  0
   34.9640   28.7380   38.9490 C   0  0  0  0  0  0  0  0  0  0  0  0
   34.9590   29.1340   40.2830 C   0  0  0  0  0  0  0  0  0  0  0  0
   35.9020   28.6880   41.1200 N   0  0  0  0  0  0  0  0  0  0  0  0
   37.6580   26.7960   39.0130 H   0  0  0  0  0  0  0  0  0  0  0  0
   35.9520   27.5990   37.5300 H   0  0  0  0  0  0  0  0  0  0  0  0
   34.2110   29.0870   38.2550 H   0  0  0  0  0  0  0  0  0  0  0  0
   34.1620   29.8090   40.5950 H   0  0  0  0  0  0  0  0  0  0  0  0
  1  2  2  0  0  0  0
  1 28  1  0  0  0  0
  3  1  1  0  0  0  0
  4  3  1  0  0  0  0
  4  9  1  0  0  0  0
  5 12  1  0  0  0  0
  5  4  1  0  0  0  0
  6  7  1  0  0  0  0
  6  5  1  0  0  0  0
  7 16  1  0  0  0  0
  7  8  1  0  0  0  0
  8 17  1  6  0  0  0
  8 20  1  0  0  0  0
  8  3  1  0  0  0  0
 10  4  1  0  0  0  0
 11  5  1  0  0  0  0
 13  6  1  0  0  0  0
 14  6  1  0  0  0  0
 15  7  1  0  0  0  0
 18 19  1  0  0  0  0
 19 20  2  0  0  0  0
 19 26  1  0  0  0  0
 20 21  1  0  0  0  0
 21 22  1  0  0  0  0
 21 23  2  0  0  0  0
 23 24  1  0  0  0  0
 25 23  1  0  0  0  0
 26 25  2  0  0  0  0
 27 33  1  0  0  0  0
 27 32  1  0  0  0  0
 28 27  2  0  0  0  0
 29 28  1  0  0  0  0
 29 30  2  0  0  0  0
 30 31  1  0  0  0  0
 31 32  2  0  0  0  0
 31 34  1  0  0  0  0
 35 40  1  0  0  0  0
 35 29  1  0  0  0  0
 36 35  2  0  0  0  0
 37 38  2  0  0  0  0
 37 36  1  0  0  0  0
 38 39  1  0  0  0  0
 39 44  1  0  0  0  0
 39 40  2  0  0  0  0
 41 36  1  0  0  0  0
 42 37  1  0  0  0  0
 43 38  1  0  0  0  0
M  END
>  <minimizedAffinity>
-5.86163759

$$$$

 OpenBabel03252507213D

 44 47  0  0  1  0  0  0  0  0999 V2000
   39.4450   30.0060   41.0710 C   0  0  0  0  0  0  0  0  0  0  0  0
   40.3470   29.3070   41.6090 O   0  0  0  0  0  0  0  0  0  0  0  0
   38.0440   29.7250   41.1730 N   0  0  0  0  0  0  0  0  0  0  0  0
   36.9120   30.6090   41.4270 C   0  0  0  0  0  0  0  0  0  0  0  0
   35.8460   30.3990   40.3350 C   0  0  0  0  0  0  0  0  0  0  0  0
   35.3090   28.9950   40.4390 C   0  0  0  0  0  0  0  0  0  0  0  0
   36.2040   28.1570   41.3060 C   0  0  0  0  0  0  0  0  0  0  0  0
   37.6580   28.3520   40.9930 C   0  0  2  0  0  0  0  0  0  0  0  0
   37.2290   31.6710   41.3770 H   0  0  0  0  0  0  0  0  0  0  0  0
   36.4450   30.3130   42.3690 H   0  0  0  0  0  0  0  0  0  0  0  0
   35.1000   31.1900   40.3880 H   0  0  0  0  0  0  0  0  0  0  0  0
   36.3990   30.4450   39.3530 H   0  0  0  0  0  0  0  0  0  0  0  0
   35.2660   28.4950   39.4300 H   0  0  0  0  0  0  0  0  0  0  0  0
   34.2840   29.0370   40.8480 H   0  0  0  0  0  0  0  0  0  0  0  0
   35.9530   27.0920   41.0980 H   0  0  0  0  0  0  0  0  0  0  0  0
   35.9880   28.2880   42.3910 H   0  0  0  0  0  0  0  0  0  0  0  0
   37.7770   28.1370   39.9110 H   0  0  0  0  0  0  0  0  0  0  0  0
   38.7500   26.1740   39.7370 F   0  0  0  0  0  0  0  0  0  0  0  0
   39.0190   26.2720   41.0700 C   0  0  0  0  0  0  0  0  0  0  0  0
   38.4810   27.3760   41.7420 C   0  0  0  0  0  0  0  0  0  0  0  0
   38.7980   27.4020   43.0840 C   0  0  0  0  0  0  0  0  0  0  0  0
   38.3930   28.2510   43.6410 H   0  0  0  0  0  0  0  0  0  0  0  0
   39.5680   26.4250   43.6800 C   0  0  0  0  0  0  0  0  0  0  0  0
   39.7630   26.5350   44.7490 H   0  0  0  0  0  0  0  0  0  0  0  0
   40.0640   25.3660   42.9550 C   0  0  0  0  0  3  0  0  0  0  0  0
   39.7860   25.2790   41.6090 C   0  0  0  0  0  3  0  0  0  0  0  0
   40.2050   32.3330   41.0170 C   0  0  0  0  0  0  0  0  0  0  0  0
   39.8600   31.1600   40.3040 C   0  0  0  0  0  0  0  0  0  0  0  0
   39.9270   31.1500   38.9280 C   0  0  0  0  0  0  0  0  0  0  0  0
   40.3260   32.2800   38.3000 N   0  0  0  0  0  0  0  0  0  0  0  0
   40.6600   33.4120   38.9690 C   0  0  0  0  0  0  0  0  0  0  0  0
   40.5920   33.4160   40.3180 N   0  0  0  0  0  0  0  0  0  0  0  0
   40.1390   32.3030   42.0990 H   0  0  0  0  0  0  0  0  0  0  0  0
   40.9750   34.3060   38.4870 H   0  0  0  0  0  0  0  0  0  0  0  0
   39.5610   29.9420   38.2200 C   0  0  0  0  0  0  0  0  0  0  0  0
   38.3110   29.8160   37.6940 C   0  0  0  0  0  0  0  0  0  0  0  0
   37.9680   28.6620   37.0220 C   0  0  0  0  0  0  0  0  0  0  0  0
   38.8550   27.6040   36.8560 C   0  0  0  0  0  0  0  0  0  0  0  0
   40.1150   27.7890   37.4150 C   0  0  0  0  0  0  0  0  0  0  0  0
   40.4040   28.9260   38.0570 N   0  0  0  0  0  0  0  0  0  0  0  0
   37.4900   30.5060   37.7210 H   0  0  0  0  0  0  0  0  0  0  0  0
   36.9940   28.4640   36.5640 H   0  0  0  0  0  0  0  0  0  0  0  0
   38.6000   26.6920   36.3320 H   0  0  0  0  0  0  0  0  0  0  0  0
   40.8320   26.9760   37.3000 H   0  0  0  0  0  0  0  0  0  0  0  0
  1  3  1  0  0  0  0
  1  2  2  0  0  0  0
  3  4  1  0  0  0  0
  4 10  1  0  0  0  0
  5 11  1  0  0  0  0
  5  6  1  0  0  0  0
  5  4  1  0  0  0  0
  6 14  1  0  0  0  0
  6  7  1  0  0  0  0
  7 16  1  0  0  0  0
  8 17  1  6  0  0  0
  8  3  1  0  0  0  0
  8  7  1  0  0  0  0
  8 20  1  0  0  0  0
  9  4  1  0  0  0  0
 12  5  1  0  0  0  0
 13  6  1  0  0  0  0
 15  7  1  0  0  0  0
 18 19  1  0  0  0  0
 19 26  2  0  0  0  0
 19 20  1  0  0  0  0
 20 21  2  0  0  0  0
 21 22  1  0  0  0  0
 21 23  1  0  0  0  0
 23 24  1  0  0  0  0
 25 23  2  0  0  0  0
 26 25  1  0  0  0  0
 27 33  1  0  0  0  0
 28 27  2  0  0  0  0
 28  1  1  0  0  0  0
 29 28  1  0  0  0  0
 30 29  2  0  0  0  0
 30 31  1  0  0  0  0
 31 32  2  0  0  0  0
 32 27  1  0  0  0  0
 34 31  1  0  0  0  0
 35 29  1  0  0  0  0
 36 41  1  0  0  0  0
 36 35  2  0  0  0  0
 37 36  1  0  0  0  0
 38 37  2  0  0  0  0
 38 39  1  0  0  0  0
 39 40  2  0  0  0  0
 40 35  1  0  0  0  0
 42 37  1  0  0  0  0
 43 38  1  0  0  0  0
 44 39  1  0  0  0  0
M  END
>  <minimizedAffinity>
-5.7548337

$$$$

 OpenBabel03252507213D

 44 47  0  0  1  0  0  0  0  0999 V2000
   39.5230   28.0950   39.6890 C   0  0  0  0  0  0  0  0  0  0  0  0
   39.7690   29.3270   39.7970 O   0  0  0  0  0  0  0  0  0  0  0  0
   38.3940   27.5590   38.9880 N   0  0  0  0  0  0  0  0  0  0  0  0
   38.2940   26.4440   38.0540 C   0  0  0  0  0  0  0  0  0  0  0  0
   37.1810   25.4860   38.5210 C   0  0  0  0  0  0  0  0  0  0  0  0
   35.8580   26.2040   38.4530 C   0  0  0  0  0  0  0  0  0  0  0  0
   36.0750   27.6830   38.3050 C   0  0  0  0  0  0  0  0  0  0  0  0
   37.1330   28.2070   39.2290 C   0  0  2  0  0  0  0  0  0  0  0  0
   39.2410   25.8640   38.0390 H   0  0  0  0  0  0  0  0  0  0  0  0
   37.9760   26.8300   37.0830 H   0  0  0  0  0  0  0  0  0  0  0  0
   37.2360   24.5530   37.9620 H   0  0  0  0  0  0  0  0  0  0  0  0
   37.3750   25.3010   39.6170 H   0  0  0  0  0  0  0  0  0  0  0  0
   35.2580   26.0520   39.3960 H   0  0  0  0  0  0  0  0  0  0  0  0
   35.2780   25.7990   37.6060 H   0  0  0  0  0  0  0  0  0  0  0  0
   35.1140   28.1790   38.5740 H   0  0  0  0  0  0  0  0  0  0  0  0
   36.2570   27.9810   37.2480 H   0  0  0  0  0  0  0  0  0  0  0  0
   36.8270   27.9140   40.2550 H   0  0  0  0  0  0  0  0  0  0  0  0
   36.3300   29.7200   41.3690 F   0  0  0  0  0  0  0  0  0  0  0  0
   36.7540   30.4270   40.2840 C   0  0  0  0  0  0  0  0  0  0  0  0
   37.1780   29.6860   39.1740 C   0  0  0  0  0  0  0  0  0  0  0  0
   37.5910   30.4730   38.1200 C   0  0  0  0  0  0  0  0  0  0  0  0
   37.9280   29.9270   37.2360 H   0  0  0  0  0  0  0  0  0  0  0  0
   37.5780   31.8510   38.1790 C   0  0  0  0  0  0  0  0  0  0  0  0
   37.9250   32.3850   37.2910 H   0  0  0  0  0  0  0  0  0  0  0  0
   37.1470   32.5140   39.3050 C   0  0  0  0  0  3  0  0  0  0  0  0
   36.7210   31.7880   40.3950 C   0  0  0  0  0  3  0  0  0  0  0  0
   41.6250   26.8420   39.6100 C   0  0  0  0  0  0  0  0  0  0  0  0
   40.4430   27.1710   40.3150 C   0  0  0  0  0  0  0  0  0  0  0  0
   40.2050   26.6120   41.5520 C   0  0  0  0  0  0  0  0  0  0  0  0
   41.1250   25.7580   42.0540 N   0  0  0  0  0  0  0  0  0  0  0  0
   42.2630   25.4330   41.3920 C   0  0  0  0  0  0  0  0  0  0  0  0
   42.4920   25.9830   40.1790 N   0  0  0  0  0  0  0  0  0  0  0  0
   41.7780   27.3000   38.6390 H   0  0  0  0  0  0  0  0  0  0  0  0
   42.9950   24.7630   41.7750 H   0  0  0  0  0  0  0  0  0  0  0  0
   38.9850   26.9570   42.2500 C   0  0  0  0  0  0  0  0  0  0  0  0
   37.8870   26.1580   42.1300 C   0  0  0  0  0  0  0  0  0  0  0  0
   36.7270   26.4920   42.7970 C   0  0  0  0  0  0  0  0  0  0  0  0
   36.6260   27.6250   43.5970 C   0  0  0  0  0  0  0  0  0  0  0  0
   37.7780   28.4010   43.6800 C   0  0  0  0  0  0  0  0  0  0  0  0
   38.8810   28.0380   43.0160 N   0  0  0  0  0  0  0  0  0  0  0  0
   37.7610   25.2580   41.5630 H   0  0  0  0  0  0  0  0  0  0  0  0
   35.7950   25.9200   42.7670 H   0  0  0  0  0  0  0  0  0  0  0  0
   35.7220   27.9010   44.1250 H   0  0  0  0  0  0  0  0  0  0  0  0
   37.7280   29.2960   44.3000 H   0  0  0  0  0  0  0  0  0  0  0  0
  1  2  2  0  0  0  0
  1 28  1  0  0  0  0
  3  8  1  0  0  0  0
  3  1  1  0  0  0  0
  4  5  1  0  0  0  0
  4  3  1  0  0  0  0
  5 12  1  0  0  0  0
  6  5  1  0  0  0  0
  6 13  1  0  0  0  0
  7  6  1  0  0  0  0
  7 15  1  0  0  0  0
  7  8  1  0  0  0  0
  8 17  1  1  0  0  0
  9  4  1  0  0  0  0
 10  4  1  0  0  0  0
 11  5  1  0  0  0  0
 14  6  1  0  0  0  0
 16  7  1  0  0  0  0
 19 26  1  0  0  0  0
 19 18  1  0  0  0  0
 20  8  1  0  0  0  0
 20 19  2  0  0  0  0
 21 23  2  0  0  0  0
 21 20  1  0  0  0  0
 22 21  1  0  0  0  0
 23 25  1  0  0  0  0
 24 23  1  0  0  0  0
 25 26  2  0  0  0  0
 27 32  2  0  0  0  0
 27 28  1  0  0  0  0
 28 29  2  0  0  0  0
 29 30  1  0  0  0  0
 29 35  1  0  0  0  0
 31 34  1  0  0  0  0
 31 30  2  0  0  0  0
 32 31  1  0  0  0  0
 33 27  1  0  0  0  0
 35 40  1  0  0  0  0
 36 35  2  0  0  0  0
 36 37  1  0  0  0  0
 37 38  2  0  0  0  0
 38 39  1  0  0  0  0
 38 43  1  0  0  0  0
 39 44  1  0  0  0  0
 40 39  2  0  0  0  0
 41 36  1  0  0  0  0
 42 37  1  0  0  0  0
M  END
>  <minimizedAffinity>
-5.74075127

$$$$

 OpenBabel03252507213D

 44 47  0  0  1  0  0  0  0  0999 V2000
   39.1630   29.0710   39.8590 C   0  0  0  0  0  0  0  0  0  0  0  0
   40.4090   29.2630   39.8320 O   0  0  0  0  0  0  0  0  0  0  0  0
   38.4190   28.8010   41.0530 N   0  0  0  0  0  0  0  0  0  0  0  0
   37.1440   29.3310   41.5210 C   0  0  0  0  0  0  0  0  0  0  0  0
   36.2060   28.1630   41.8800 C   0  0  0  0  0  0  0  0  0  0  0  0
   36.7910   27.4040   43.0420 C   0  0  0  0  0  0  0  0  0  0  0  0
   38.2280   27.7890   43.2450 C   0  0  0  0  0  0  0  0  0  0  0  0
   38.9990   27.8450   41.9590 C   0  0  2  0  0  0  0  0  0  0  0  0
   36.6480   29.9160   40.7190 H   0  0  0  0  0  0  0  0  0  0  0  0
   37.3150   29.8790   42.4510 H   0  0  0  0  0  0  0  0  0  0  0  0
   35.1920   28.5330   42.0260 H   0  0  0  0  0  0  0  0  0  0  0  0
   36.2440   27.4570   41.0000 H   0  0  0  0  0  0  0  0  0  0  0  0
   36.7710   26.2910   42.8590 H   0  0  0  0  0  0  0  0  0  0  0  0
   36.1910   27.6170   43.9430 H   0  0  0  0  0  0  0  0  0  0  0  0
   38.6890   26.9990   43.8800 H   0  0  0  0  0  0  0  0  0  0  0  0
   38.3370   28.7240   43.8390 H   0  0  0  0  0  0  0  0  0  0  0  0
   38.8790   26.8530   41.4780 H   0  0  0  0  0  0  0  0  0  0  0  0
   40.8450   25.9510   41.2430 F   0  0  0  0  0  0  0  0  0  0  0  0
   41.3540   27.0570   41.8560 C   0  0  0  0  0  0  0  0  0  0  0  0
   40.4390   28.0480   42.2300 C   0  0  0  0  0  0  0  0  0  0  0  0
   41.0330   29.1310   42.8430 C   0  0  0  0  0  0  0  0  0  0  0  0
   40.3470   29.9250   43.1490 H   0  0  0  0  0  0  0  0  0  0  0  0
   42.3940   29.2060   43.0550 C   0  0  0  0  0  0  0  0  0  0  0  0
   42.7670   30.1060   43.5480 H   0  0  0  0  0  0  0  0  0  0  0  0
   43.2350   28.1910   42.6590 C   0  0  0  0  0  3  0  0  0  0  0  0
   42.7070   27.0790   42.0410 C   0  0  0  0  0  3  0  0  0  0  0  0
   38.1680   27.9060   37.9490 C   0  0  0  0  0  0  0  0  0  0  0  0
   38.4480   29.1290   38.6040 C   0  0  0  0  0  0  0  0  0  0  0  0
   38.0390   30.3180   38.0390 C   0  0  0  0  0  0  0  0  0  0  0  0
   37.3760   30.2690   36.8610 N   0  0  0  0  0  0  0  0  0  0  0  0
   37.1000   29.1060   36.2210 C   0  0  0  0  0  0  0  0  0  0  0  0
   37.5030   27.9440   36.7790 N   0  0  0  0  0  0  0  0  0  0  0  0
   38.5050   26.9910   38.4240 H   0  0  0  0  0  0  0  0  0  0  0  0
   36.5790   29.0540   35.2950 H   0  0  0  0  0  0  0  0  0  0  0  0
   38.3440   31.5570   38.7220 C   0  0  0  0  0  0  0  0  0  0  0  0
   37.3610   32.2210   39.3910 C   0  0  0  0  0  0  0  0  0  0  0  0
   37.6590   33.4020   40.0400 C   0  0  0  0  0  0  0  0  0  0  0  0
   38.9350   33.9520   40.0400 C   0  0  0  0  0  0  0  0  0  0  0  0
   39.8960   33.2300   39.3390 C   0  0  0  0  0  0  0  0  0  0  0  0
   39.5630   32.0880   38.7260 N   0  0  0  0  0  0  0  0  0  0  0  0
   36.3250   31.9700   39.5020 H   0  0  0  0  0  0  0  0  0  0  0  0
   36.9440   34.0090   40.6040 H   0  0  0  0  0  0  0  0  0  0  0  0
   39.1830   34.8780   40.5420 H   0  0  0  0  0  0  0  0  0  0  0  0
   40.9070   33.6370   39.3220 H   0  0  0  0  0  0  0  0  0  0  0  0
  1  3  1  0  0  0  0
  2  1  2  0  0  0  0
  3  4  1  0  0  0  0
  3  8  1  0  0  0  0
  4  5  1  0  0  0  0
  4 10  1  0  0  0  0
  5 11  1  0  0  0  0
  5  6  1  0  0  0  0
  6  7  1  0  0  0  0
  6 14  1  0  0  0  0
  7 16  1  0  0  0  0
  7 15  1  0  0  0  0
  8 17  1  6  0  0  0
  8 20  1  0  0  0  0
  8  7  1  0  0  0  0
  9  4  1  0  0  0  0
 12  5  1  0  0  0  0
 13  6  1  0  0  0  0
 18 19  1  0  0  0  0
 19 26  2  0  0  0  0
 19 20  1  0  0  0  0
 20 21  2  0  0  0  0
 21 23  1  0  0  0  0
 21 22  1  0  0  0  0
 23 24  1  0  0  0  0
 25 23  2  0  0  0  0
 26 25  1  0  0  0  0
 27 33  1  0  0  0  0
 27 28  1  0  0  0  0
 28  1  1  0  0  0  0
 29 28  2  0  0  0  0
 29 35  1  0  0  0  0
 30 29  1  0  0  0  0
 31 32  1  0  0  0  0
 31 30  2  0  0  0  0
 32 27  2  0  0  0  0
 34 31  1  0  0  0  0
 35 40  2  0  0  0  0
 35 36  1  0  0  0  0
 36 41  1  0  0  0  0
 36 37  2  0  0  0  0
 37 42  1  0  0  0  0
 38 37  1  0  0  0  0
 38 43  1  0  0  0  0
 39 38  2  0  0  0  0
 40 39  1  0  0  0  0
 44 39  1  0  0  0  0
M  END
>  <minimizedAffinity>
-5.73807192

$$$$

 OpenBabel03252507213D

 44 47  0  0  1  0  0  0  0  0999 V2000
   39.2910   28.9110   38.9740 C   0  0  0  0  0  0  0  0  0  0  0  0
   39.3680   29.0710   40.2230 O   0  0  0  0  0  0  0  0  0  0  0  0
   38.2580   28.1630   38.3220 N   0  0  0  0  0  0  0  0  0  0  0  0
   37.4720   28.4630   37.1310 C   0  0  0  0  0  0  0  0  0  0  0  0
   37.5540   27.2740   36.1540 C   0  0  0  0  0  0  0  0  0  0  0  0
   36.9030   26.0730   36.7890 C   0  0  0  0  0  0  0  0  0  0  0  0
   36.7100   26.3030   38.2610 C   0  0  0  0  0  0  0  0  0  0  0  0
   37.9210   26.8980   38.9170 C   0  0  2  0  0  0  0  0  0  0  0  0
   37.8860   29.3480   36.6050 H   0  0  0  0  0  0  0  0  0  0  0  0
   36.4220   28.5480   37.4180 H   0  0  0  0  0  0  0  0  0  0  0  0
   37.1540   27.5630   35.1830 H   0  0  0  0  0  0  0  0  0  0  0  0
   38.6500   27.0200   36.0690 H   0  0  0  0  0  0  0  0  0  0  0  0
   37.5430   25.1510   36.6820 H   0  0  0  0  0  0  0  0  0  0  0  0
   35.9380   25.8840   36.2860 H   0  0  0  0  0  0  0  0  0  0  0  0
   36.5310   25.3050   38.7240 H   0  0  0  0  0  0  0  0  0  0  0  0
   35.7860   26.8830   38.4820 H   0  0  0  0  0  0  0  0  0  0  0  0
   38.7660   26.2160   38.6910 H   0  0  0  0  0  0  0  0  0  0  0  0
   35.9210   28.3820   40.0600 F   0  0  0  0  0  0  0  0  0  0  0  0
   36.7170   27.7070   40.9370 C   0  0  0  0  0  0  0  0  0  0  0  0
   37.7460   26.9330   40.3860 C   0  0  0  0  0  0  0  0  0  0  0  0
   38.5050   26.2830   41.3370 C   0  0  0  0  0  0  0  0  0  0  0  0
   39.3180   25.6700   40.9420 H   0  0  0  0  0  0  0  0  0  0  0  0
   38.2550   26.4000   42.6880 C   0  0  0  0  0  0  0  0  0  0  0  0
   38.9120   25.8450   43.3610 H   0  0  0  0  0  0  0  0  0  0  0  0
   37.2230   27.1810   43.1580 C   0  0  0  0  0  3  0  0  0  0  0  0
   36.4260   27.8580   42.2620 C   0  0  0  0  0  3  0  0  0  0  0  0
   41.2560   28.6720   37.5320 C   0  0  0  0  0  0  0  0  0  0  0  0
   40.3140   29.5250   38.1560 C   0  0  0  0  0  0  0  0  0  0  0  0
   40.3950   30.8880   37.9690 C   0  0  0  0  0  0  0  0  0  0  0  0
   41.3880   31.3660   37.1860 N   0  0  0  0  0  0  0  0  0  0  0  0
   42.2980   30.5630   36.5820 C   0  0  0  0  0  0  0  0  0  0  0  0
   42.2150   29.2270   36.7670 N   0  0  0  0  0  0  0  0  0  0  0  0
   41.1600   27.6050   37.7020 H   0  0  0  0  0  0  0  0  0  0  0  0
   43.0840   30.9260   35.9630 H   0  0  0  0  0  0  0  0  0  0  0  0
   39.4260   31.7400   38.6240 C   0  0  0  0  0  0  0  0  0  0  0  0
   38.1730   31.8650   38.1040 C   0  0  0  0  0  0  0  0  0  0  0  0
   37.2540   32.6800   38.7320 C   0  0  0  0  0  0  0  0  0  0  0  0
   37.5550   33.3900   39.8890 C   0  0  0  0  0  0  0  0  0  0  0  0
   38.8490   33.2230   40.3720 C   0  0  0  0  0  0  0  0  0  0  0  0
   39.7070   32.4220   39.7310 N   0  0  0  0  0  0  0  0  0  0  0  0
   37.7530   31.4140   37.2270 H   0  0  0  0  0  0  0  0  0  0  0  0
   36.2260   32.8480   38.3970 H   0  0  0  0  0  0  0  0  0  0  0  0
   36.8450   34.0340   40.3920 H   0  0  0  0  0  0  0  0  0  0  0  0
   39.1130   33.7690   41.2780 H   0  0  0  0  0  0  0  0  0  0  0  0
  1  2  2  0  0  0  0
  3  8  1  0  0  0  0
  3  1  1  0  0  0  0
  4 10  1  0  0  0  0
  4  3  1  0  0  0  0
  5  6  1  0  0  0  0
  5  4  1  0  0  0  0
  6  7  1  0  0  0  0
  7 16  1  0  0  0  0
  7 15  1  0  0  0  0
  7  8  1  0  0  0  0
  8 17  1  6  0  0  0
  8 20  1  0  0  0  0
  9  4  1  0  0  0  0
 11  5  1  0  0  0  0
 12  5  1  0  0  0  0
 13  6  1  0  0  0  0
 14  6  1  0  0  0  0
 18 19  1  0  0  0  0
 19 26  1  0  0  0  0
 20 19  2  0  0  0  0
 20 21  1  0  0  0  0
 21 23  2  0  0  0  0
 22 21  1  0  0  0  0
 23 25  1  0  0  0  0
 23 24  1  0  0  0  0
 26 25  2  0  0  0  0
 27 33  1  0  0  0  0
 27 28  1  0  0  0  0
 28  1  1  0  0  0  0
 29 28  2  0  0  0  0
 29 35  1  0  0  0  0
 30 29  1  0  0  0  0
 31 32  1  0  0  0  0
 31 30  2  0  0  0  0
 32 27  2  0  0  0  0
 34 31  1  0  0  0  0
 35 40  1  0  0  0  0
 36 35  2  0  0  0  0
 36 37  1  0  0  0  0
 37 38  2  0  0  0  0
 38 39  1  0  0  0  0
 38 43  1  0  0  0  0
 39 44  1  0  0  0  0
 40 39  2  0  0  0  0
 41 36  1  0  0  0  0
 42 37  1  0  0  0  0
M  END
>  <minimizedAffinity>
-5.65572739

$$$$
