
     RDKit          3D

 36 38  0  0  0  0  0  0  0  0999 V2000
   43.8562   33.6128   40.6245 C   0  0  0  0  0  0  0  0  0  0  0  0
   40.3845   34.7985   41.4732 C   0  0  0  0  0  0  0  0  0  0  0  0
   41.7422   34.8385   41.0962 C   0  0  0  0  0  0  0  0  0  0  0  0
   42.4195   33.6180   41.0192 C   0  0  0  0  0  0  0  0  0  0  0  0
   41.7275   32.4585   41.3133 N   0  0  0  0  0  0  0  0  0  0  0  0
   40.4362   32.4809   41.6664 C   0  0  0  0  0  0  0  0  0  0  0  0
   39.7568   33.6376   41.7497 N   0  0  0  0  0  0  0  0  0  0  0  0
   44.6730   34.0635   41.8219 C   0  0  0  0  0  0  0  0  0  0  0  0
   46.0479   34.3917   41.4270 C   0  0  0  0  0  0  0  0  0  0  0  0
   46.6356   34.0452   40.2396 C   0  0  0  0  0  0  0  0  0  0  0  0
   47.9292   34.3511   39.8621 C   0  0  0  0  0  0  0  0  0  0  0  0
   48.6716   35.0814   40.8059 C   0  0  0  0  0  0  0  0  0  0  0  0
   48.1028   35.4503   42.0251 C   0  0  0  0  0  0  0  0  0  0  0  0
   46.8141   35.1210   42.3500 C   0  0  0  0  0  0  0  0  0  0  0  0
   43.9699   34.3736   39.8186 H   0  0  0  0  0  0  0  0  0  0  0  0
   44.1777   32.6484   40.2190 H   0  0  0  0  0  0  0  0  0  0  0  0
   39.7911   35.6853   41.5570 H   0  0  0  0  0  0  0  0  0  0  0  0
   42.2020   35.7857   40.8849 H   0  0  0  0  0  0  0  0  0  0  0  0
   39.9940   31.5160   41.8744 H   0  0  0  0  0  0  0  0  0  0  0  0
   44.1520   34.9974   42.1838 H   0  0  0  0  0  0  0  0  0  0  0  0
   44.6118   33.2613   42.5748 H   0  0  0  0  0  0  0  0  0  0  0  0
   46.0333   33.4801   39.5312 H   0  0  0  0  0  0  0  0  0  0  0  0
   48.3584   34.0616   38.9188 H   0  0  0  0  0  0  0  0  0  0  0  0
   49.6846   35.3702   40.6131 H   0  0  0  0  0  0  0  0  0  0  0  0
   48.6857   36.0104   42.7382 H   0  0  0  0  0  0  0  0  0  0  0  0
   44.5940   36.7573   42.4320 F   0  0  0  0  0  0  0  0  0  0  0  0
   45.1685   36.3434   43.6017 C   0  0  0  0  0  0  0  0  0  0  0  0
   46.2715   35.5311   43.6347 C   0  0  0  0  0  0  0  0  0  0  0  0
   46.8134   35.1417   44.8581 C   0  0  0  0  0  0  0  0  0  0  0  0
   47.6955   34.4916   44.8403 H   0  0  0  0  0  0  0  0  0  0  0  0
   46.2334   35.5785   46.0352 C   0  0  0  0  0  0  0  0  0  0  0  0
   46.6707   35.2639   46.9835 H   0  0  0  0  0  0  0  0  0  0  0  0
   45.1142   36.4026   45.9785 C   0  0  0  0  0  0  0  0  0  0  0  0
   44.5887   36.7800   44.7681 C   0  0  0  0  0  0  0  0  0  0  0  0
   44.6745   36.7340   46.9018 H   0  0  0  0  0  0  0  0  0  0  0  0
   43.7270   37.4147   44.7447 H   0  0  0  0  0  0  0  0  0  0  0  0
  1  4  1  0
  1  8  1  0
  2  7  2  0
  3  2  1  0
  4  3  2  0
  4  5  1  0
  5  6  2  0
  6  7  1  0
  9  8  1  0
  9 14  1  0
 10  9  2  0
 11 10  1  0
 11 12  2  0
 12 13  1  0
 13 14  2  0
  1 15  1  0
  1 16  1  0
  2 17  1  0
  3 18  1  0
  6 19  1  0
  8 20  1  0
  8 21  1  0
 10 22  1  0
 11 23  1  0
 12 24  1  0
 13 25  1  0
 26 27  1  0
 27 28  2  0
 28 29  1  0
 29 30  1  0
 29 31  2  0
 31 32  1  0
 31 33  1  0
 33 34  2  0
 34 27  1  0
 33 35  1  0
 34 36  1  0
 14 28  1  0
M  ISO  8  15   8  16   8  17  14  18  14  19  14  20   8  21   8  22  14
M  ISO  5  23  14  24  14  25  14  30  15  32  16
M  END
>  <DihAtoms>  (1) 
8,13,27,26

>  <DihDeg>  (1) 
89.99978994345511

$$$$
