
     RDKit          3D

 27 29  0  0  0  0  0  0  0  0999 V2000
   44.5762   35.7907   44.7229 C   0  0  0  0  0  0  0  0  0  0  0  0
   45.2753   35.5718   43.5065 C   0  0  0  0  0  0  0  0  0  0  0  0
   46.1449   34.4658   43.4294 C   0  0  0  0  0  0  0  0  0  0  0  0
   46.2634   33.6654   44.5378 N   0  0  0  0  0  0  0  0  0  0  0  0
   45.5766   33.9164   45.6708 C   0  0  0  0  0  0  0  0  0  0  0  0
   44.7338   34.9754   45.7678 N   0  0  0  0  0  0  0  0  0  0  0  0
   45.8699   32.9271   46.7038 C   0  0  0  0  0  0  0  0  0  0  0  0
   45.1327   32.7849   47.9081 C   0  0  0  0  0  0  0  0  0  0  0  0
   45.5012   31.8294   48.7899 C   0  0  0  0  0  0  0  0  0  0  0  0
   46.6097   31.0087   48.4743 C   0  0  0  0  0  0  0  0  0  0  0  0
   47.1272   31.6435   46.8558 S   0  0  0  0  0  0  0  0  0  0  0  0
   43.9060   36.6353   44.7955 H   0  0  0  0  0  0  0  0  0  0  0  0
   45.1636   36.2150   42.6532 H   0  0  0  0  0  0  0  0  0  0  0  0
   46.7066   34.2414   42.5358 H   0  0  0  0  0  0  0  0  0  0  0  0
   44.2852   33.4511   48.0935 H   0  0  0  0  0  0  0  0  0  0  0  0
   45.0097   31.6552   49.7068 H   0  0  0  0  0  0  0  0  0  0  0  0
   46.3702   28.2995   47.7902 F   0  0  0  0  0  0  0  0  0  0  0  0
   47.1604   28.5906   48.8434 C   0  0  0  0  0  0  0  0  0  0  0  0
   47.2592   29.9279   49.1563 C   0  0  0  0  0  0  0  0  0  0  0  0
   48.0647   30.2375   50.2318 C   0  0  0  0  0  0  0  0  0  0  0  0
   48.2216   31.2717   50.5767 H   0  0  0  0  0  0  0  0  0  0  0  0
   48.7384   29.2839   50.9624 C   0  0  0  0  0  0  0  0  0  0  0  0
   49.3642   29.5526   51.8019 H   0  0  0  0  0  0  0  0  0  0  0  0
   48.5914   27.9646   50.5903 C   0  0  0  0  0  0  0  0  0  0  0  0
   47.8028   27.5820   49.5264 C   0  0  0  0  0  0  0  0  0  0  0  0
   49.0999   27.1789   51.1325 H   0  0  0  0  0  0  0  0  0  0  0  0
   47.6359   26.5739   49.1722 H   0  0  0  0  0  0  0  0  0  0  0  0
  1  6  2  0
  2  1  1  0
  3  2  2  0
  3  4  1  0
  4  5  2  0
  5  6  1  0
  5  7  1  0
  7 11  1  0
  7  8  2  0
  8  9  1  0
 10  9  2  0
 11 10  1  0
  1 12  1  0
  2 13  1  0
  3 14  1  0
  8 15  1  0
  9 16  1  0
 17 18  1  0
 18 19  2  0
 19 20  1  0
 20 21  1  0
 20 22  2  0
 22 23  1  0
 22 24  1  0
 24 25  2  0
 25 18  1  0
 24 26  1  0
 25 27  1  0
 10 19  1  0
M  ISO  7  12  14  13  14  14  14  15  14  16  14  21  15  23  16
M  END
>  <DihAtoms>  (1) 
8,9,18,17

>  <DihDeg>  (1) 
0.008568990587834143

$$$$
