
 OpenBabel03242516093D

 25 27  0  0  0  0  0  0  0  0999 V2000
   48.5390   34.7980   41.8200 C   0  0  0  0  0  0  0  0  0  0  0  0
   49.2400   36.1030   41.8390 C   0  0  0  0  0  0  0  0  0  0  0  0
   49.9010   34.8940   42.4110 C   0  0  0  0  0  0  0  0  0  0  0  0
   48.9140   36.8160   42.6230 H   0  0  0  0  0  0  0  0  0  0  0  0
   49.6470   36.5010   40.8850 H   0  0  0  0  0  0  0  0  0  0  0  0
   49.9940   34.7380   43.5060 H   0  0  0  0  0  0  0  0  0  0  0  0
   50.8140   34.5480   41.8870 H   0  0  0  0  0  0  0  0  0  0  0  0
   46.1810   35.2770   42.5140 C   0  0  0  0  0  0  0  0  0  0  0  0
   47.3760   34.5860   42.7340 C   0  0  0  0  0  0  0  0  0  0  0  0
   47.4410   33.6960   43.8310 C   0  0  0  0  0  0  0  0  0  0  0  0
   46.3340   33.5640   44.6080 N   0  0  0  0  0  0  0  0  0  0  0  0
   45.2040   34.2350   44.3770 C   0  0  0  0  0  0  0  0  0  0  0  0
   45.1180   35.0950   43.3310 N   0  0  0  0  0  0  0  0  0  0  0  0
   46.1600   35.9400   41.6820 H   0  0  0  0  0  0  0  0  0  0  0  0
   48.3730   33.1630   43.9940 H   0  0  0  0  0  0  0  0  0  0  0  0
   44.3240   34.1420   44.9800 H   0  0  0  0  0  0  0  0  0  0  0  0
   49.1670   32.0120   41.6610 F   0  0  0  0  0  0  0  0  0  0  0  0
   48.7690   32.6690   40.5440 C   0  0  0  0  0  0  0  0  0  0  0  0
   48.4600   33.9970   40.5740 C   0  0  0  0  0  0  0  0  0  0  0  0
   48.0750   34.5150   39.3620 C   0  0  0  0  0  0  0  0  0  0  0  0
   47.8070   35.5790   39.2850 H   0  0  0  0  0  0  0  0  0  0  0  0
   47.9760   33.8430   38.1630 C   0  0  0  0  0  0  0  0  0  0  0  0
   47.6640   34.3210   37.2480 H   0  0  0  0  0  0  0  0  0  0  0  0
   48.3140   32.4860   38.2360 C   0  0  0  0  0  0  0  0  0  0  0  0
   48.7100   31.8880   39.4110 C   0  0  0  0  0  0  0  0  0  0  0  0
  1  2  1  0  0  0  0
  1  3  1  0  0  0  0
  1  9  1  0  0  0  0
  2  3  1  0  0  0  0
  2  4  1  0  0  0  0
  3  6  1  0  0  0  0
  5  2  1  0  0  0  0
  7  3  1  0  0  0  0
  8  9  2  0  0  0  0
  8 13  1  0  0  0  0
  9 10  1  0  0  0  0
 10 15  1  0  0  0  0
 10 11  2  0  0  0  0
 12 11  1  0  0  0  0
 12 16  1  0  0  0  0
 13 12  2  0  0  0  0
 14  8  1  0  0  0  0
 18 19  1  0  0  0  0
 18 17  1  0  0  0  0
 19  1  1  0  0  0  0
 20 19  2  0  0  0  0
 21 20  1  0  0  0  0
 22 24  2  0  0  0  0
 22 20  1  0  0  0  0
 23 22  1  0  0  0  0
 24 25  1  0  0  0  0
 25 18  2  0  0  0  0
M  END
>  <minimizedAffinity>
-4.9292717

>  <minimizedRMSD>
1.34476447

$$$$
