
 OpenBabel03252503253D

 47 52  0  0  1  0  0  0  0  0999 V2000
   35.5250   29.1150   40.3230 C   0  0  0  0  0  0  0  0  0  0  0  0
   35.7050   28.3000   39.1750 C   0  0  0  0  0  0  0  0  0  0  0  0
   36.3420   27.0950   39.3310 C   0  0  0  0  0  0  0  0  0  0  0  0
   36.7640   26.7530   40.5800 N   0  0  0  0  0  0  0  0  0  0  0  0
   36.5830   27.5450   41.6690 C   0  0  0  0  0  0  0  0  0  0  0  0
   35.9620   28.7270   41.5320 N   0  0  0  0  0  0  0  0  0  0  0  0
   35.0150   30.0720   40.1800 H   0  0  0  0  0  0  0  0  0  0  0  0
   36.5050   26.4350   38.4910 H   0  0  0  0  0  0  0  0  0  0  0  0
   35.2150   28.7730   37.8450 C   0  0  1  0  0  0  0  0  0  0  0  0
   35.3430   27.9200   36.6680 C   0  0  0  0  0  0  0  0  0  0  0  0
   33.9940   28.0780   37.2710 C   0  0  2  0  0  0  0  0  0  0  0  0
   35.2450   29.8700   37.7300 H   0  0  0  0  0  0  0  0  0  0  0  0
   35.7880   26.8920   36.8510 H   0  0  0  0  0  0  0  0  0  0  0  0
   35.7060   28.3800   35.7630 H   0  0  0  0  0  0  0  0  0  0  0  0
   33.5700   27.3470   37.9710 H   0  0  0  0  0  0  0  0  0  0  0  0
   33.0500   28.9920   36.5710 C   0  0  0  0  0  0  0  0  0  0  0  0
   33.1190   29.3000   35.2280 C   0  0  0  0  0  0  0  0  0  0  0  0
   32.2100   30.1670   34.6460 C   0  0  0  0  0  0  0  0  0  0  0  0
   31.2210   30.7360   35.3990 C   0  0  0  0  0  0  0  0  0  0  0  0
   30.3110   31.5910   34.8510 N   0  0  0  0  0  0  0  0  0  0  0  0
   29.3400   32.1410   35.6190 C   0  0  0  0  0  0  0  0  0  0  0  0
   29.1870   31.8880   37.0040 C   0  0  0  0  0  0  0  0  0  0  0  0
   30.1090   31.0210   37.5600 C   0  0  0  0  0  0  0  0  0  0  0  0
   31.1020   30.4630   36.7620 C   0  0  0  0  0  0  0  0  0  0  0  0
   32.0260   29.5940   37.3040 C   0  0  0  0  0  0  0  0  0  0  0  0
   33.9150   28.8380   34.6410 H   0  0  0  0  0  0  0  0  0  0  0  0
   32.2580   30.4120   33.6000 H   0  0  0  0  0  0  0  0  0  0  0  0
   28.6260   32.8100   35.1920 H   0  0  0  0  0  0  0  0  0  0  0  0
   28.3820   32.3700   37.5400 H   0  0  0  0  0  0  0  0  0  0  0  0
   30.0290   30.8000   38.6100 H   0  0  0  0  0  0  0  0  0  0  0  0
   31.8740   29.4360   38.3630 H   0  0  0  0  0  0  0  0  0  0  0  0
   37.0840   27.0590   42.9820 C   0  0  2  0  0  0  0  0  0  0  0  0
   37.2530   27.9600   44.1110 C   0  0  0  0  0  0  0  0  0  0  0  0
   38.5010   27.6080   43.3450 C   0  0  2  0  0  0  0  0  0  0  0  0
   37.0200   25.9440   43.1180 H   0  0  0  0  0  0  0  0  0  0  0  0
   37.1340   27.5100   45.1370 H   0  0  0  0  0  0  0  0  0  0  0  0
   36.7750   28.9350   44.0440 H   0  0  0  0  0  0  0  0  0  0  0  0
   39.1760   26.9010   43.8620 H   0  0  0  0  0  0  0  0  0  0  0  0
   39.8880   27.0150   40.9080 F   0  0  0  0  0  0  0  0  0  0  0  0
   39.7890   28.3140   41.2170 C   0  0  0  0  0  0  0  0  0  0  0  0
   39.1140   28.5450   42.3970 C   0  0  0  0  0  0  0  0  0  0  0  0
   38.9470   29.8680   42.8230 C   0  0  0  0  0  0  0  0  0  0  0  0
   38.4330   30.2040   43.7380 H   0  0  0  0  0  0  0  0  0  0  0  0
   39.4500   30.9380   42.0760 C   0  0  0  0  0  0  0  0  0  0  0  0
   39.3350   31.9670   42.3830 H   0  0  0  0  0  0  0  0  0  0  0  0
   40.1230   30.6700   40.8960 C   0  0  0  0  0  3  0  0  0  0  0  0
   40.2840   29.3720   40.4820 C   0  0  0  0  0  3  0  0  0  0  0  0
  1  6  1  0  0  0  0
  2  3  1  0  0  0  0
  2  1  2  0  0  0  0
  3  4  2  0  0  0  0
  4  5  1  0  0  0  0
  5 32  1  0  0  0  0
  6  5  2  0  0  0  0
  7  1  1  0  0  0  0
  8  3  1  0  0  0  0
  9 12  1  6  0  0  0
  9  2  1  0  0  0  0
 10 13  1  0  0  0  0
 10 11  1  0  0  0  0
 10  9  1  0  0  0  0
 11  9  1  0  0  0  0
 11 15  1  1  0  0  0
 14 10  1  0  0  0  0
 16 11  1  0  0  0  0
 16 25  1  0  0  0  0
 17 16  2  0  0  0  0
 18 17  1  0  0  0  0
 18 19  2  0  0  0  0
 19 24  1  0  0  0  0
 20 19  1  0  0  0  0
 20 21  2  0  0  0  0
 21 22  1  0  0  0  0
 22 29  1  0  0  0  0
 22 23  2  0  0  0  0
 23 30  1  0  0  0  0
 24 25  2  0  0  0  0
 24 23  1  0  0  0  0
 25 31  1  0  0  0  0
 26 17  1  0  0  0  0
 27 18  1  0  0  0  0
 28 21  1  0  0  0  0
 32 35  1  1  0  0  0
 32 34  1  0  0  0  0
 32 33  1  0  0  0  0
 33 36  1  0  0  0  0
 34 38  1  1  0  0  0
 34 33  1  0  0  0  0
 37 33  1  0  0  0  0
 39 40  1  0  0  0  0
 40 41  1  0  0  0  0
 41 42  2  0  0  0  0
 41 34  1  0  0  0  0
 42 43  1  0  0  0  0
 44 45  1  0  0  0  0
 44 42  1  0  0  0  0
 46 44  2  0  0  0  0
 47 46  1  0  0  0  0
 47 40  2  0  0  0  0
M  END
>  <minimizedAffinity>
-7.07258463

$$$$

 OpenBabel03252503253D

 47 52  0  0  1  0  0  0  0  0999 V2000
   37.9780   29.0880   39.4990 C   0  0  0  0  0  0  0  0  0  0  0  0
   36.6010   29.4280   39.5640 C   0  0  0  0  0  0  0  0  0  0  0  0
   36.0210   29.5410   40.8020 C   0  0  0  0  0  0  0  0  0  0  0  0
   36.8030   29.3210   41.8960 N   0  0  0  0  0  0  0  0  0  0  0  0
   38.1190   28.9960   41.8150 C   0  0  0  0  0  0  0  0  0  0  0  0
   38.7010   28.8810   40.6110 N   0  0  0  0  0  0  0  0  0  0  0  0
   38.4230   29.0020   38.5030 H   0  0  0  0  0  0  0  0  0  0  0  0
   34.9770   29.7980   40.9090 H   0  0  0  0  0  0  0  0  0  0  0  0
   35.8280   29.6380   38.3030 C   0  0  1  0  0  0  0  0  0  0  0  0
   36.1330   28.8490   37.1130 C   0  0  0  0  0  0  0  0  0  0  0  0
   34.8960   28.5210   37.8700 C   0  0  2  0  0  0  0  0  0  0  0  0
   35.4370   30.6630   38.1920 H   0  0  0  0  0  0  0  0  0  0  0  0
   36.9440   28.0650   37.2370 H   0  0  0  0  0  0  0  0  0  0  0  0
   36.1970   29.3760   36.1760 H   0  0  0  0  0  0  0  0  0  0  0  0
   34.8520   27.7120   38.6100 H   0  0  0  0  0  0  0  0  0  0  0  0
   33.6090   28.9960   37.2900 C   0  0  0  0  0  0  0  0  0  0  0  0
   33.3710   29.1350   35.9380 C   0  0  0  0  0  0  0  0  0  0  0  0
   32.1520   29.5920   35.4710 C   0  0  0  0  0  0  0  0  0  0  0  0
   31.1540   29.9140   36.3480 C   0  0  0  0  0  0  0  0  0  0  0  0
   29.9420   30.3650   35.9150 N   0  0  0  0  0  0  0  0  0  0  0  0
   28.9700   30.6770   36.8060 C   0  0  0  0  0  0  0  0  0  0  0  0
   29.1190   30.5690   38.2100 C   0  0  0  0  0  0  0  0  0  0  0  0
   30.3460   30.1130   38.6490 C   0  0  0  0  0  0  0  0  0  0  0  0
   31.3370   29.7950   37.7270 C   0  0  0  0  0  0  0  0  0  0  0  0
   32.5670   29.3360   38.1520 C   0  0  0  0  0  0  0  0  0  0  0  0
   34.1780   28.8730   35.2510 H   0  0  0  0  0  0  0  0  0  0  0  0
   31.9590   29.7030   34.4180 H   0  0  0  0  0  0  0  0  0  0  0  0
   28.0200   31.0290   36.4700 H   0  0  0  0  0  0  0  0  0  0  0  0
   28.2890   30.8390   38.8480 H   0  0  0  0  0  0  0  0  0  0  0  0
   30.5020   30.0150   39.7100 H   0  0  0  0  0  0  0  0  0  0  0  0
   32.6350   29.2760   39.2300 H   0  0  0  0  0  0  0  0  0  0  0  0
   38.8700   28.7850   43.0830 C   0  0  2  0  0  0  0  0  0  0  0  0
   40.1810   28.1580   43.0930 C   0  0  0  0  0  0  0  0  0  0  0  0
   39.0180   27.2780   43.4690 C   0  0  2  0  0  0  0  0  0  0  0  0
   38.5020   29.4040   43.9460 H   0  0  0  0  0  0  0  0  0  0  0  0
   40.8820   28.4670   43.9190 H   0  0  0  0  0  0  0  0  0  0  0  0
   40.6990   28.0740   42.1390 H   0  0  0  0  0  0  0  0  0  0  0  0
   38.9440   27.0460   44.5470 H   0  0  0  0  0  0  0  0  0  0  0  0
   36.2860   26.4640   43.1670 F   0  0  0  0  0  0  0  0  0  0  0  0
   37.1630   25.8680   42.3490 C   0  0  0  0  0  0  0  0  0  0  0  0
   38.4610   26.2950   42.5350 C   0  0  0  0  0  0  0  0  0  0  0  0
   39.4660   25.7400   41.7340 C   0  0  0  0  0  0  0  0  0  0  0  0
   40.5410   25.9820   41.7680 H   0  0  0  0  0  0  0  0  0  0  0  0
   39.1710   24.7750   40.7650 C   0  0  0  0  0  0  0  0  0  0  0  0
   39.9290   24.3330   40.1350 H   0  0  0  0  0  0  0  0  0  0  0  0
   37.8570   24.3700   40.6060 C   0  0  0  0  0  3  0  0  0  0  0  0
   36.8750   24.9160   41.3920 C   0  0  0  0  0  3  0  0  0  0  0  0
  1  2  2  0  0  0  0
  1  6  1  0  0  0  0
  2  3  1  0  0  0  0
  3  8  1  0  0  0  0
  3  4  2  0  0  0  0
  5  4  1  0  0  0  0
  5 32  1  0  0  0  0
  6  5  2  0  0  0  0
  7  1  1  0  0  0  0
  9 12  1  6  0  0  0
  9  2  1  0  0  0  0
 10 13  1  0  0  0  0
 10 11  1  0  0  0  0
 10  9  1  0  0  0  0
 11  9  1  0  0  0  0
 11 15  1  1  0  0  0
 14 10  1  0  0  0  0
 16 11  1  0  0  0  0
 16 25  1  0  0  0  0
 17 16  2  0  0  0  0
 18 17  1  0  0  0  0
 18 19  2  0  0  0  0
 19 24  1  0  0  0  0
 20 19  1  0  0  0  0
 20 21  2  0  0  0  0
 21 22  1  0  0  0  0
 22 23  2  0  0  0  0
 22 29  1  0  0  0  0
 23 30  1  0  0  0  0
 24 25  2  0  0  0  0
 24 23  1  0  0  0  0
 25 31  1  0  0  0  0
 26 17  1  0  0  0  0
 27 18  1  0  0  0  0
 28 21  1  0  0  0  0
 32 33  1  0  0  0  0
 32 34  1  0  0  0  0
 32 35  1  1  0  0  0
 33 34  1  0  0  0  0
 33 36  1  0  0  0  0
 34 38  1  1  0  0  0
 37 33  1  0  0  0  0
 40 41  1  0  0  0  0
 40 39  1  0  0  0  0
 41 34  1  0  0  0  0
 42 43  1  0  0  0  0
 42 41  2  0  0  0  0
 44 42  1  0  0  0  0
 45 44  1  0  0  0  0
 46 44  2  0  0  0  0
 46 47  1  0  0  0  0
 47 40  2  0  0  0  0
M  END
>  <minimizedAffinity>
-6.89215279

$$$$

 OpenBabel03252503253D

 47 52  0  0  1  0  0  0  0  0999 V2000
   35.1890   29.2860   40.3000 C   0  0  0  0  0  0  0  0  0  0  0  0
   35.2230   28.6610   39.0260 C   0  0  0  0  0  0  0  0  0  0  0  0
   35.9610   27.5130   38.8880 C   0  0  0  0  0  0  0  0  0  0  0  0
   36.6170   27.0410   39.9840 N   0  0  0  0  0  0  0  0  0  0  0  0
   36.5740   27.6520   41.1970 C   0  0  0  0  0  0  0  0  0  0  0  0
   35.8570   28.7760   41.3470 N   0  0  0  0  0  0  0  0  0  0  0  0
   34.5950   30.2000   40.3910 H   0  0  0  0  0  0  0  0  0  0  0  0
   36.0210   26.9970   37.9410 H   0  0  0  0  0  0  0  0  0  0  0  0
   34.4760   29.2670   37.8820 C   0  0  1  0  0  0  0  0  0  0  0  0
   34.3690   28.5550   36.6130 C   0  0  0  0  0  0  0  0  0  0  0  0
   33.1670   28.6100   37.4860 C   0  0  2  0  0  0  0  0  0  0  0  0
   34.4800   30.3710   37.8900 H   0  0  0  0  0  0  0  0  0  0  0  0
   34.8440   27.5240   36.5860 H   0  0  0  0  0  0  0  0  0  0  0  0
   34.5430   29.1210   35.7140 H   0  0  0  0  0  0  0  0  0  0  0  0
   32.8930   27.7960   38.1680 H   0  0  0  0  0  0  0  0  0  0  0  0
   32.1000   29.5730   37.0960 C   0  0  0  0  0  0  0  0  0  0  0  0
   31.1210   30.0360   37.9510 C   0  0  0  0  0  0  0  0  0  0  0  0
   30.1550   30.9250   37.5160 C   0  0  0  0  0  0  0  0  0  0  0  0
   30.1540   31.3640   36.2220 C   0  0  0  0  0  0  0  0  0  0  0  0
   29.2150   32.2410   35.7660 N   0  0  0  0  0  0  0  0  0  0  0  0
   29.2380   32.6610   34.4780 C   0  0  0  0  0  0  0  0  0  0  0  0
   30.1990   32.2430   33.5260 C   0  0  0  0  0  0  0  0  0  0  0  0
   31.1510   31.3540   33.9870 C   0  0  0  0  0  0  0  0  0  0  0  0
   31.1180   30.9300   35.3100 C   0  0  0  0  0  0  0  0  0  0  0  0
   32.0650   30.0440   35.7830 C   0  0  0  0  0  0  0  0  0  0  0  0
   31.1360   29.6770   38.9820 H   0  0  0  0  0  0  0  0  0  0  0  0
   29.3880   31.2910   38.1770 H   0  0  0  0  0  0  0  0  0  0  0  0
   28.5040   33.3490   34.1200 H   0  0  0  0  0  0  0  0  0  0  0  0
   30.1430   32.6300   32.5180 H   0  0  0  0  0  0  0  0  0  0  0  0
   31.9020   31.0110   33.2960 H   0  0  0  0  0  0  0  0  0  0  0  0
   32.7730   29.7490   35.0210 H   0  0  0  0  0  0  0  0  0  0  0  0
   37.3290   27.0360   42.3210 C   0  0  2  0  0  0  0  0  0  0  0  0
   37.6120   27.7750   43.5410 C   0  0  0  0  0  0  0  0  0  0  0  0
   38.7370   27.6770   42.5440 C   0  0  2  0  0  0  0  0  0  0  0  0
   37.3830   25.9130   42.2820 H   0  0  0  0  0  0  0  0  0  0  0  0
   37.7070   27.1710   44.4860 H   0  0  0  0  0  0  0  0  0  0  0  0
   37.0500   28.6930   43.7070 H   0  0  0  0  0  0  0  0  0  0  0  0
   39.5460   26.9800   42.8280 H   0  0  0  0  0  0  0  0  0  0  0  0
   39.7030   27.6020   39.8460 F   0  0  0  0  0  0  0  0  0  0  0  0
   39.5660   28.8230   40.3790 C   0  0  0  0  0  0  0  0  0  0  0  0
   39.0990   28.8030   41.6770 C   0  0  0  0  0  0  0  0  0  0  0  0
   38.9170   30.0230   42.3390 C   0  0  0  0  0  0  0  0  0  0  0  0
   38.5530   30.1630   43.3690 H   0  0  0  0  0  0  0  0  0  0  0  0
   39.1990   31.2390   41.7070 C   0  0  0  0  0  0  0  0  0  0  0  0
   39.0660   32.1930   42.1960 H   0  0  0  0  0  0  0  0  0  0  0  0
   39.6660   31.2210   40.4040 C   0  0  0  0  0  3  0  0  0  0  0  0
   39.8430   30.0240   39.7590 C   0  0  0  0  0  3  0  0  0  0  0  0
  1  7  1  0  0  0  0
  1  6  1  0  0  0  0
  2  1  2  0  0  0  0
  3  2  1  0  0  0  0
  3  4  2  0  0  0  0
  4  5  1  0  0  0  0
  5  6  2  0  0  0  0
  5 32  1  0  0  0  0
  8  3  1  0  0  0  0
  9 12  1  6  0  0  0
  9  2  1  0  0  0  0
 10 11  1  0  0  0  0
 10  9  1  0  0  0  0
 11  9  1  0  0  0  0
 11 15  1  1  0  0  0
 13 10  1  0  0  0  0
 14 10  1  0  0  0  0
 16 11  1  0  0  0  0
 16 17  1  0  0  0  0
 17 26  1  0  0  0  0
 18 17  2  0  0  0  0
 18 27  1  0  0  0  0
 19 18  1  0  0  0  0
 20 19  1  0  0  0  0
 21 20  2  0  0  0  0
 22 23  2  0  0  0  0
 22 21  1  0  0  0  0
 23 24  1  0  0  0  0
 24 25  1  0  0  0  0
 24 19  2  0  0  0  0
 25 16  2  0  0  0  0
 28 21  1  0  0  0  0
 29 22  1  0  0  0  0
 30 23  1  0  0  0  0
 31 25  1  0  0  0  0
 32 35  1  1  0  0  0
 32 34  1  0  0  0  0
 32 33  1  0  0  0  0
 33 37  1  0  0  0  0
 33 36  1  0  0  0  0
 34 38  1  1  0  0  0
 34 33  1  0  0  0  0
 39 40  1  0  0  0  0
 40 41  1  0  0  0  0
 41 42  2  0  0  0  0
 41 34  1  0  0  0  0
 42 43  1  0  0  0  0
 44 45  1  0  0  0  0
 44 42  1  0  0  0  0
 46 44  2  0  0  0  0
 47 40  2  0  0  0  0
 47 46  1  0  0  0  0
M  END
>  <minimizedAffinity>
-6.88638973

$$$$

 OpenBabel03252503253D

 47 52  0  0  1  0  0  0  0  0999 V2000
   36.3650   30.7000   39.9830 C   0  0  0  0  0  0  0  0  0  0  0  0
   36.8580   30.0740   38.8080 C   0  0  0  0  0  0  0  0  0  0  0  0
   38.1890   29.7460   38.7590 C   0  0  0  0  0  0  0  0  0  0  0  0
   38.9590   30.0410   39.8430 N   0  0  0  0  0  0  0  0  0  0  0  0
   38.4720   30.6410   40.9600 C   0  0  0  0  0  0  0  0  0  0  0  0
   37.1710   30.9680   41.0230 N   0  0  0  0  0  0  0  0  0  0  0  0
   35.3020   30.9540   40.0040 H   0  0  0  0  0  0  0  0  0  0  0  0
   38.6150   29.2680   37.8890 H   0  0  0  0  0  0  0  0  0  0  0  0
   35.9310   29.8040   37.6670 C   0  0  1  0  0  0  0  0  0  0  0  0
   36.0310   28.5560   36.9180 C   0  0  0  0  0  0  0  0  0  0  0  0
   34.8940   28.7130   37.8630 C   0  0  2  0  0  0  0  0  0  0  0  0
   35.5790   30.7190   37.1600 H   0  0  0  0  0  0  0  0  0  0  0  0
   36.8120   27.8200   37.2880 H   0  0  0  0  0  0  0  0  0  0  0  0
   35.9930   28.6220   35.8430 H   0  0  0  0  0  0  0  0  0  0  0  0
   34.9120   28.3070   38.8820 H   0  0  0  0  0  0  0  0  0  0  0  0
   33.5660   29.0260   37.2670 C   0  0  0  0  0  0  0  0  0  0  0  0
   33.2780   28.9380   35.9210 C   0  0  0  0  0  0  0  0  0  0  0  0
   32.0210   29.2530   35.4370 C   0  0  0  0  0  0  0  0  0  0  0  0
   31.0350   29.6600   36.2920 C   0  0  0  0  0  0  0  0  0  0  0  0
   29.7870   29.9760   35.8420 N   0  0  0  0  0  0  0  0  0  0  0  0
   28.8270   30.3750   36.7110 C   0  0  0  0  0  0  0  0  0  0  0  0
   29.0260   30.4980   38.1080 C   0  0  0  0  0  0  0  0  0  0  0  0
   30.2900   30.1790   38.5640 C   0  0  0  0  0  0  0  0  0  0  0  0
   31.2670   29.7700   37.6640 C   0  0  0  0  0  0  0  0  0  0  0  0
   32.5330   29.4450   38.1060 C   0  0  0  0  0  0  0  0  0  0  0  0
   34.0760   28.6110   35.2510 H   0  0  0  0  0  0  0  0  0  0  0  0
   31.7900   29.1870   34.3880 H   0  0  0  0  0  0  0  0  0  0  0  0
   27.8490   30.6220   36.3620 H   0  0  0  0  0  0  0  0  0  0  0  0
   28.2030   30.8240   38.7290 H   0  0  0  0  0  0  0  0  0  0  0  0
   30.4840   30.2570   39.6200 H   0  0  0  0  0  0  0  0  0  0  0  0
   32.6390   29.5600   39.1770 H   0  0  0  0  0  0  0  0  0  0  0  0
   39.4120   30.9070   42.0820 C   0  0  2  0  0  0  0  0  0  0  0  0
   40.6600   30.1720   42.2170 C   0  0  0  0  0  0  0  0  0  0  0  0
   39.5200   29.7190   43.0920 C   0  0  2  0  0  0  0  0  0  0  0  0
   39.2410   31.8870   42.6070 H   0  0  0  0  0  0  0  0  0  0  0  0
   41.5110   30.7120   42.7190 H   0  0  0  0  0  0  0  0  0  0  0  0
   40.9990   29.6070   41.3510 H   0  0  0  0  0  0  0  0  0  0  0  0
   39.6170   29.9970   44.1570 H   0  0  0  0  0  0  0  0  0  0  0  0
   40.2630   27.5050   41.4290 F   0  0  0  0  0  0  0  0  0  0  0  0
   39.0520   27.4240   41.9950 C   0  0  0  0  0  0  0  0  0  0  0  0
   38.7440   28.5130   42.7840 C   0  0  0  0  0  0  0  0  0  0  0  0
   37.5020   28.5390   43.4290 C   0  0  0  0  0  0  0  0  0  0  0  0
   37.1200   29.3360   44.0870 H   0  0  0  0  0  0  0  0  0  0  0  0
   36.5870   27.4900   43.2830 C   0  0  0  0  0  0  0  0  0  0  0  0
   35.6230   27.4870   43.7690 H   0  0  0  0  0  0  0  0  0  0  0  0
   36.9300   26.4130   42.4830 C   0  0  0  0  0  3  0  0  0  0  0  0
   38.1480   26.3920   41.8530 C   0  0  0  0  0  3  0  0  0  0  0  0
  1  7  1  0  0  0  0
  1  6  1  0  0  0  0
  2  1  2  0  0  0  0
  3  2  1  0  0  0  0
  3  4  2  0  0  0  0
  4  5  1  0  0  0  0
  5  6  2  0  0  0  0
  5 32  1  0  0  0  0
  8  3  1  0  0  0  0
  9 12  1  6  0  0  0
  9 11  1  0  0  0  0
  9  2  1  0  0  0  0
 10 13  1  0  0  0  0
 10  9  1  0  0  0  0
 10 11  1  0  0  0  0
 11 15  1  1  0  0  0
 14 10  1  0  0  0  0
 16 11  1  0  0  0  0
 16 25  1  0  0  0  0
 17 16  2  0  0  0  0
 18 17  1  0  0  0  0
 18 19  2  0  0  0  0
 19 24  1  0  0  0  0
 20 19  1  0  0  0  0
 20 21  2  0  0  0  0
 21 22  1  0  0  0  0
 22 23  2  0  0  0  0
 22 29  1  0  0  0  0
 23 30  1  0  0  0  0
 24 25  2  0  0  0  0
 24 23  1  0  0  0  0
 25 31  1  0  0  0  0
 26 17  1  0  0  0  0
 27 18  1  0  0  0  0
 28 21  1  0  0  0  0
 32 33  1  0  0  0  0
 32 35  1  1  0  0  0
 32 34  1  0  0  0  0
 33 36  1  0  0  0  0
 33 34  1  0  0  0  0
 34 38  1  1  0  0  0
 37 33  1  0  0  0  0
 39 40  1  0  0  0  0
 40 41  1  0  0  0  0
 41 34  1  0  0  0  0
 41 42  2  0  0  0  0
 42 43  1  0  0  0  0
 44 42  1  0  0  0  0
 44 45  1  0  0  0  0
 46 44  2  0  0  0  0
 47 40  2  0  0  0  0
 47 46  1  0  0  0  0
M  END
>  <minimizedAffinity>
-6.68907881

$$$$

 OpenBabel03252503253D

 47 52  0  0  1  0  0  0  0  0999 V2000
   37.6970   28.9670   39.2970 C   0  0  0  0  0  0  0  0  0  0  0  0
   36.3560   29.4030   39.4550 C   0  0  0  0  0  0  0  0  0  0  0  0
   35.9250   29.7270   40.7170 C   0  0  0  0  0  0  0  0  0  0  0  0
   36.8130   29.6100   41.7440 N   0  0  0  0  0  0  0  0  0  0  0  0
   38.0940   29.1900   41.5750 C   0  0  0  0  0  0  0  0  0  0  0  0
   38.5290   28.8700   40.3470 N   0  0  0  0  0  0  0  0  0  0  0  0
   38.0220   28.7130   38.2840 H   0  0  0  0  0  0  0  0  0  0  0  0
   34.9150   30.0650   40.8940 H   0  0  0  0  0  0  0  0  0  0  0  0
   35.4570   29.4850   38.2640 C   0  0  1  0  0  0  0  0  0  0  0  0
   35.4140   28.3930   37.2980 C   0  0  0  0  0  0  0  0  0  0  0  0
   34.2660   28.5450   38.2310 C   0  0  2  0  0  0  0  0  0  0  0  0
   35.2650   30.5180   37.9280 H   0  0  0  0  0  0  0  0  0  0  0  0
   36.0620   27.4930   37.5430 H   0  0  0  0  0  0  0  0  0  0  0  0
   35.4390   28.6560   36.2540 H   0  0  0  0  0  0  0  0  0  0  0  0
   34.1760   27.9630   39.1580 H   0  0  0  0  0  0  0  0  0  0  0  0
   33.0270   29.1550   37.6750 C   0  0  0  0  0  0  0  0  0  0  0  0
   31.9560   29.5710   38.4390 C   0  0  0  0  0  0  0  0  0  0  0  0
   30.8320   30.1240   37.8510 C   0  0  0  0  0  0  0  0  0  0  0  0
   30.7640   30.2670   36.4940 C   0  0  0  0  0  0  0  0  0  0  0  0
   29.6690   30.8100   35.8890 N   0  0  0  0  0  0  0  0  0  0  0  0
   29.6270   30.9420   34.5410 C   0  0  0  0  0  0  0  0  0  0  0  0
   30.6740   30.5440   33.6730 C   0  0  0  0  0  0  0  0  0  0  0  0
   31.7830   29.9950   34.2860 C   0  0  0  0  0  0  0  0  0  0  0  0
   31.8150   29.8640   35.6700 C   0  0  0  0  0  0  0  0  0  0  0  0
   32.9190   29.3190   36.2940 C   0  0  0  0  0  0  0  0  0  0  0  0
   32.0270   29.4500   39.5220 H   0  0  0  0  0  0  0  0  0  0  0  0
   29.9930   30.4500   38.4400 H   0  0  0  0  0  0  0  0  0  0  0  0
   28.7710   31.3670   34.0650 H   0  0  0  0  0  0  0  0  0  0  0  0
   30.5560   30.6880   32.6080 H   0  0  0  0  0  0  0  0  0  0  0  0
   32.6030   29.6790   33.6640 H   0  0  0  0  0  0  0  0  0  0  0  0
   33.6870   29.0250   35.5920 H   0  0  0  0  0  0  0  0  0  0  0  0
   38.9710   29.1100   42.7740 C   0  0  2  0  0  0  0  0  0  0  0  0
   40.2610   28.4410   42.7280 C   0  0  0  0  0  0  0  0  0  0  0  0
   39.1240   27.6570   43.3300 C   0  0  2  0  0  0  0  0  0  0  0  0
   38.7120   29.8430   43.5860 H   0  0  0  0  0  0  0  0  0  0  0  0
   41.0530   28.8240   43.4310 H   0  0  0  0  0  0  0  0  0  0  0  0
   40.6710   28.2220   41.7430 H   0  0  0  0  0  0  0  0  0  0  0  0
   39.1620   27.5620   44.4300 H   0  0  0  0  0  0  0  0  0  0  0  0
   36.3580   26.9090   43.4190 F   0  0  0  0  0  0  0  0  0  0  0  0
   37.1280   26.1870   42.5950 C   0  0  0  0  0  0  0  0  0  0  0  0
   38.4480   26.5870   42.5890 C   0  0  0  0  0  0  0  0  0  0  0  0
   39.3480   25.9040   41.7640 C   0  0  0  0  0  0  0  0  0  0  0  0
   40.4260   26.1090   41.6550 H   0  0  0  0  0  0  0  0  0  0  0  0
   38.9290   24.8390   40.9590 C   0  0  0  0  0  0  0  0  0  0  0  0
   39.6040   24.2960   40.3140 H   0  0  0  0  0  0  0  0  0  0  0  0
   37.5960   24.4640   40.9900 C   0  0  0  0  0  3  0  0  0  0  0  0
   36.7170   25.1360   41.8010 C   0  0  0  0  0  3  0  0  0  0  0  0
  1  2  2  0  0  0  0
  1  6  1  0  0  0  0
  2  3  1  0  0  0  0
  3  8  1  0  0  0  0
  3  4  2  0  0  0  0
  5  4  1  0  0  0  0
  5 32  1  0  0  0  0
  6  5  2  0  0  0  0
  7  1  1  0  0  0  0
  9 12  1  6  0  0  0
  9  2  1  0  0  0  0
 10 13  1  0  0  0  0
 10 11  1  0  0  0  0
 10  9  1  0  0  0  0
 11  9  1  0  0  0  0
 11 15  1  1  0  0  0
 14 10  1  0  0  0  0
 16 11  1  0  0  0  0
 16 17  1  0  0  0  0
 17 26  1  0  0  0  0
 18 17  2  0  0  0  0
 18 27  1  0  0  0  0
 19 18  1  0  0  0  0
 20 19  1  0  0  0  0
 21 20  2  0  0  0  0
 22 23  2  0  0  0  0
 22 21  1  0  0  0  0
 23 24  1  0  0  0  0
 24 25  1  0  0  0  0
 24 19  2  0  0  0  0
 25 16  2  0  0  0  0
 28 21  1  0  0  0  0
 29 22  1  0  0  0  0
 30 23  1  0  0  0  0
 31 25  1  0  0  0  0
 32 34  1  0  0  0  0
 32 35  1  1  0  0  0
 33 32  1  0  0  0  0
 33 34  1  0  0  0  0
 33 36  1  0  0  0  0
 34 38  1  1  0  0  0
 37 33  1  0  0  0  0
 40 39  1  0  0  0  0
 41 40  1  0  0  0  0
 41 34  1  0  0  0  0
 42 41  2  0  0  0  0
 43 42  1  0  0  0  0
 44 46  2  0  0  0  0
 44 42  1  0  0  0  0
 45 44  1  0  0  0  0
 46 47  1  0  0  0  0
 47 40  2  0  0  0  0
M  END
>  <minimizedAffinity>
-6.6482873

$$$$

 OpenBabel03252503253D

 47 52  0  0  1  0  0  0  0  0999 V2000
   36.7690   28.3500   39.2910 C   0  0  0  0  0  0  0  0  0  0  0  0
   38.0870   28.8040   39.0220 C   0  0  0  0  0  0  0  0  0  0  0  0
   39.0950   27.8750   38.9800 C   0  0  0  0  0  0  0  0  0  0  0  0
   38.7700   26.5700   39.1980 N   0  0  0  0  0  0  0  0  0  0  0  0
   37.5030   26.1530   39.4550 C   0  0  0  0  0  0  0  0  0  0  0  0
   36.5060   27.0500   39.5000 N   0  0  0  0  0  0  0  0  0  0  0  0
   35.9780   29.1050   39.3200 H   0  0  0  0  0  0  0  0  0  0  0  0
   40.1160   28.1660   38.7790 H   0  0  0  0  0  0  0  0  0  0  0  0
   38.3400   30.2610   38.8080 C   0  0  1  0  0  0  0  0  0  0  0  0
   37.2260   31.1780   38.5940 C   0  0  0  0  0  0  0  0  0  0  0  0
   37.9100   31.2070   39.9140 C   0  0  2  0  0  0  0  0  0  0  0  0
   39.3190   30.4740   38.3440 H   0  0  0  0  0  0  0  0  0  0  0  0
   36.1900   30.7160   38.6470 H   0  0  0  0  0  0  0  0  0  0  0  0
   37.3250   31.8970   37.7980 H   0  0  0  0  0  0  0  0  0  0  0  0
   37.5280   30.6680   40.7900 H   0  0  0  0  0  0  0  0  0  0  0  0
   38.8570   32.3300   40.1530 C   0  0  0  0  0  0  0  0  0  0  0  0
   38.5790   33.6530   39.8790 C   0  0  0  0  0  0  0  0  0  0  0  0
   39.5130   34.6450   40.1200 C   0  0  0  0  0  0  0  0  0  0  0  0
   40.7370   34.3280   40.6380 C   0  0  0  0  0  0  0  0  0  0  0  0
   41.6750   35.2850   40.8870 N   0  0  0  0  0  0  0  0  0  0  0  0
   42.8810   34.9430   41.4030 C   0  0  0  0  0  0  0  0  0  0  0  0
   43.2610   33.6160   41.7170 C   0  0  0  0  0  0  0  0  0  0  0  0
   42.3100   32.6460   41.4650 C   0  0  0  0  0  0  0  0  0  0  0  0
   41.0760   33.0070   40.9350 C   0  0  0  0  0  0  0  0  0  0  0  0
   40.1170   32.0480   40.6810 C   0  0  0  0  0  0  0  0  0  0  0  0
   37.5960   33.8900   39.4650 H   0  0  0  0  0  0  0  0  0  0  0  0
   39.3020   35.6790   39.9080 H   0  0  0  0  0  0  0  0  0  0  0  0
   43.6170   35.6910   41.6000 H   0  0  0  0  0  0  0  0  0  0  0  0
   44.2450   33.4340   42.1260 H   0  0  0  0  0  0  0  0  0  0  0  0
   42.5570   31.6220   41.6890 H   0  0  0  0  0  0  0  0  0  0  0  0
   40.4540   31.0510   40.9310 H   0  0  0  0  0  0  0  0  0  0  0  0
   37.2730   24.6990   39.6710 C   0  0  2  0  0  0  0  0  0  0  0  0
   36.1740   24.2180   40.4930 C   0  0  0  0  0  0  0  0  0  0  0  0
   37.5320   24.2450   41.1440 C   0  0  2  0  0  0  0  0  0  0  0  0
   37.7940   24.0330   38.9300 H   0  0  0  0  0  0  0  0  0  0  0  0
   35.7490   23.2090   40.2280 H   0  0  0  0  0  0  0  0  0  0  0  0
   35.3880   24.9310   40.7380 H   0  0  0  0  0  0  0  0  0  0  0  0
   38.0040   23.2530   41.2680 H   0  0  0  0  0  0  0  0  0  0  0  0
   40.1430   24.8970   42.1300 F   0  0  0  0  0  0  0  0  0  0  0  0
   39.1400   25.6420   42.6100 C   0  0  0  0  0  0  0  0  0  0  0  0
   37.9070   25.2880   42.1040 C   0  0  0  0  0  0  0  0  0  0  0  0
   36.7800   25.9990   42.5340 C   0  0  0  0  0  0  0  0  0  0  0  0
   35.7370   25.8310   42.2200 H   0  0  0  0  0  0  0  0  0  0  0  0
   36.8930   27.0460   43.4560 C   0  0  0  0  0  0  0  0  0  0  0  0
   36.0390   27.6100   43.8030 H   0  0  0  0  0  0  0  0  0  0  0  0
   38.1460   27.3740   43.9430 C   0  0  0  0  0  3  0  0  0  0  0  0
   39.2470   26.6750   43.5190 C   0  0  0  0  0  3  0  0  0  0  0  0
  1  7  1  0  0  0  0
  1  6  1  0  0  0  0
  2  1  2  0  0  0  0
  3  2  1  0  0  0  0
  3  4  2  0  0  0  0
  4  5  1  0  0  0  0
  5  6  2  0  0  0  0
  5 32  1  0  0  0  0
  8  3  1  0  0  0  0
  9 12  1  6  0  0  0
  9  2  1  0  0  0  0
  9 11  1  0  0  0  0
 10 13  1  0  0  0  0
 10  9  1  0  0  0  0
 10 11  1  0  0  0  0
 11 16  1  0  0  0  0
 11 15  1  1  0  0  0
 14 10  1  0  0  0  0
 16 25  1  0  0  0  0
 17 18  1  0  0  0  0
 17 16  2  0  0  0  0
 18 19  2  0  0  0  0
 19 20  1  0  0  0  0
 19 24  1  0  0  0  0
 20 21  2  0  0  0  0
 21 28  1  0  0  0  0
 21 22  1  0  0  0  0
 22 29  1  0  0  0  0
 23 30  1  0  0  0  0
 23 22  2  0  0  0  0
 24 23  1  0  0  0  0
 25 31  1  0  0  0  0
 25 24  2  0  0  0  0
 26 17  1  0  0  0  0
 27 18  1  0  0  0  0
 32 35  1  6  0  0  0
 32 33  1  0  0  0  0
 32 34  1  0  0  0  0
 33 37  1  0  0  0  0
 33 34  1  0  0  0  0
 34 38  1  1  0  0  0
 34 41  1  0  0  0  0
 36 33  1  0  0  0  0
 39 40  1  0  0  0  0
 40 47  1  0  0  0  0
 41 42  1  0  0  0  0
 41 40  2  0  0  0  0
 42 44  2  0  0  0  0
 43 42  1  0  0  0  0
 44 45  1  0  0  0  0
 44 46  1  0  0  0  0
 47 46  2  0  0  0  0
M  END
>  <minimizedAffinity>
-6.42824697

$$$$

 OpenBabel03252503253D

 47 52  0  0  1  0  0  0  0  0999 V2000
   35.6300   28.7430   40.8000 C   0  0  0  0  0  0  0  0  0  0  0  0
   36.2700   29.0990   39.5840 C   0  0  0  0  0  0  0  0  0  0  0  0
   37.6410   29.0660   39.5410 C   0  0  0  0  0  0  0  0  0  0  0  0
   38.3060   28.6920   40.6700 N   0  0  0  0  0  0  0  0  0  0  0  0
   37.6770   28.3540   41.8260 C   0  0  0  0  0  0  0  0  0  0  0  0
   36.3360   28.3820   41.8830 N   0  0  0  0  0  0  0  0  0  0  0  0
   34.5370   28.7750   40.8150 H   0  0  0  0  0  0  0  0  0  0  0  0
   38.1790   29.3270   38.6420 H   0  0  0  0  0  0  0  0  0  0  0  0
   35.4480   29.5070   38.4040 C   0  0  1  0  0  0  0  0  0  0  0  0
   35.6360   28.8510   37.1150 C   0  0  0  0  0  0  0  0  0  0  0  0
   34.4210   28.5100   37.9000 C   0  0  2  0  0  0  0  0  0  0  0  0
   35.1220   30.5610   38.4390 H   0  0  0  0  0  0  0  0  0  0  0  0
   36.3980   28.0100   37.0970 H   0  0  0  0  0  0  0  0  0  0  0  0
   35.6880   29.4830   36.2440 H   0  0  0  0  0  0  0  0  0  0  0  0
   34.3610   27.6220   38.5410 H   0  0  0  0  0  0  0  0  0  0  0  0
   33.1420   29.1310   37.4580 C   0  0  0  0  0  0  0  0  0  0  0  0
   32.1120   29.4770   38.3080 C   0  0  0  0  0  0  0  0  0  0  0  0
   30.9460   30.0440   37.8250 C   0  0  0  0  0  0  0  0  0  0  0  0
   30.7940   30.2710   36.4850 C   0  0  0  0  0  0  0  0  0  0  0  0
   29.6570   30.8300   35.9810 N   0  0  0  0  0  0  0  0  0  0  0  0
   29.5330   31.0460   34.6500 C   0  0  0  0  0  0  0  0  0  0  0  0
   30.5320   30.7250   33.6990 C   0  0  0  0  0  0  0  0  0  0  0  0
   31.6840   30.1590   34.2090 C   0  0  0  0  0  0  0  0  0  0  0  0
   31.8010   29.9410   35.5770 C   0  0  0  0  0  0  0  0  0  0  0  0
   32.9480   29.3790   36.0990 C   0  0  0  0  0  0  0  0  0  0  0  0
   32.2480   29.2890   39.3750 H   0  0  0  0  0  0  0  0  0  0  0  0
   30.1380   30.3160   38.4810 H   0  0  0  0  0  0  0  0  0  0  0  0
   28.6430   31.4840   34.2530 H   0  0  0  0  0  0  0  0  0  0  0  0
   30.3480   30.9330   32.6540 H   0  0  0  0  0  0  0  0  0  0  0  0
   32.4700   29.8990   33.5200 H   0  0  0  0  0  0  0  0  0  0  0  0
   33.6780   29.1460   35.3360 H   0  0  0  0  0  0  0  0  0  0  0  0
   38.5130   27.9570   42.9900 C   0  0  2  0  0  0  0  0  0  0  0  0
   39.8900   27.5200   42.8220 C   0  0  0  0  0  0  0  0  0  0  0  0
   38.8630   26.4340   43.0090 C   0  0  2  0  0  0  0  0  0  0  0  0
   38.1200   28.3070   43.9830 H   0  0  0  0  0  0  0  0  0  0  0  0
   40.5910   27.7190   43.6810 H   0  0  0  0  0  0  0  0  0  0  0  0
   40.3630   27.7260   41.8630 H   0  0  0  0  0  0  0  0  0  0  0  0
   38.8750   25.9530   44.0030 H   0  0  0  0  0  0  0  0  0  0  0  0
   40.1010   26.0270   40.4560 F   0  0  0  0  0  0  0  0  0  0  0  0
   38.9330   25.3990   40.6400 C   0  0  0  0  0  0  0  0  0  0  0  0
   38.3800   25.6280   41.8820 C   0  0  0  0  0  0  0  0  0  0  0  0
   37.1560   25.0220   42.1890 C   0  0  0  0  0  0  0  0  0  0  0  0
   36.5970   25.1120   43.1350 H   0  0  0  0  0  0  0  0  0  0  0  0
   36.5010   24.2030   41.2630 C   0  0  0  0  0  0  0  0  0  0  0  0
   35.5560   23.7250   41.4770 H   0  0  0  0  0  0  0  0  0  0  0  0
   37.0840   23.9960   40.0260 C   0  0  0  0  0  3  0  0  0  0  0  0
   38.2840   24.5910   39.7290 C   0  0  0  0  0  3  0  0  0  0  0  0
  1  7  1  0  0  0  0
  1  6  1  0  0  0  0
  2  1  2  0  0  0  0
  3  2  1  0  0  0  0
  3  4  2  0  0  0  0
  4  5  1  0  0  0  0
  5  6  2  0  0  0  0
  5 32  1  0  0  0  0
  8  3  1  0  0  0  0
  9 12  1  6  0  0  0
  9  2  1  0  0  0  0
 10 11  1  0  0  0  0
 10  9  1  0  0  0  0
 11  9  1  0  0  0  0
 11 15  1  1  0  0  0
 13 10  1  0  0  0  0
 14 10  1  0  0  0  0
 16 11  1  0  0  0  0
 16 17  1  0  0  0  0
 17 26  1  0  0  0  0
 18 17  2  0  0  0  0
 18 27  1  0  0  0  0
 19 18  1  0  0  0  0
 20 19  1  0  0  0  0
 21 20  2  0  0  0  0
 22 23  2  0  0  0  0
 22 21  1  0  0  0  0
 23 24  1  0  0  0  0
 24 25  1  0  0  0  0
 24 19  2  0  0  0  0
 25 16  2  0  0  0  0
 28 21  1  0  0  0  0
 29 22  1  0  0  0  0
 30 23  1  0  0  0  0
 31 25  1  0  0  0  0
 32 34  1  0  0  0  0
 32 35  1  1  0  0  0
 33 32  1  0  0  0  0
 33 34  1  0  0  0  0
 33 36  1  0  0  0  0
 34 38  1  1  0  0  0
 37 33  1  0  0  0  0
 39 40  1  0  0  0  0
 40 41  1  0  0  0  0
 41 42  2  0  0  0  0
 41 34  1  0  0  0  0
 42 43  1  0  0  0  0
 44 45  1  0  0  0  0
 44 42  1  0  0  0  0
 46 44  2  0  0  0  0
 47 46  1  0  0  0  0
 47 40  2  0  0  0  0
M  END
>  <minimizedAffinity>
-6.38730145

$$$$

 OpenBabel03252503253D

 47 52  0  0  1  0  0  0  0  0999 V2000
   37.3470   27.5160   38.7110 C   0  0  0  0  0  0  0  0  0  0  0  0
   37.4330   28.5490   39.6810 C   0  0  0  0  0  0  0  0  0  0  0  0
   37.2680   28.2120   41.0000 C   0  0  0  0  0  0  0  0  0  0  0  0
   37.0310   26.9050   41.3010 N   0  0  0  0  0  0  0  0  0  0  0  0
   36.9520   25.9290   40.3590 C   0  0  0  0  0  0  0  0  0  0  0  0
   37.1100   26.2430   39.0640 N   0  0  0  0  0  0  0  0  0  0  0  0
   37.4810   27.8040   37.6640 H   0  0  0  0  0  0  0  0  0  0  0  0
   37.3240   28.9590   41.7790 H   0  0  0  0  0  0  0  0  0  0  0  0
   37.6850   29.9560   39.2460 C   0  0  1  0  0  0  0  0  0  0  0  0
   36.5730   30.8120   38.8440 C   0  0  0  0  0  0  0  0  0  0  0  0
   37.2030   31.0610   40.1680 C   0  0  2  0  0  0  0  0  0  0  0  0
   38.6800   30.1060   38.7930 H   0  0  0  0  0  0  0  0  0  0  0  0
   35.5400   30.3500   38.9300 H   0  0  0  0  0  0  0  0  0  0  0  0
   36.6990   31.3960   37.9480 H   0  0  0  0  0  0  0  0  0  0  0  0
   36.7890   30.6640   41.1040 H   0  0  0  0  0  0  0  0  0  0  0  0
   38.1310   32.2210   40.2610 C   0  0  0  0  0  0  0  0  0  0  0  0
   37.7700   33.5280   40.0050 C   0  0  0  0  0  0  0  0  0  0  0  0
   38.6900   34.5560   40.1030 C   0  0  0  0  0  0  0  0  0  0  0  0
   39.9830   34.2920   40.4590 C   0  0  0  0  0  0  0  0  0  0  0  0
   40.9110   35.2860   40.5650 N   0  0  0  0  0  0  0  0  0  0  0  0
   42.1860   34.9970   40.9210 C   0  0  0  0  0  0  0  0  0  0  0  0
   42.6530   33.6900   41.2020 C   0  0  0  0  0  0  0  0  0  0  0  0
   41.7140   32.6820   41.0950 C   0  0  0  0  0  0  0  0  0  0  0  0
   40.4080   32.9900   40.7290 C   0  0  0  0  0  0  0  0  0  0  0  0
   39.4600   31.9930   40.6210 C   0  0  0  0  0  0  0  0  0  0  0  0
   36.7330   33.7220   39.7220 H   0  0  0  0  0  0  0  0  0  0  0  0
   38.4160   35.5770   39.9040 H   0  0  0  0  0  0  0  0  0  0  0  0
   42.9140   35.7730   41.0050 H   0  0  0  0  0  0  0  0  0  0  0  0
   43.6880   33.5500   41.4800 H   0  0  0  0  0  0  0  0  0  0  0  0
   42.0260   31.6730   41.3010 H   0  0  0  0  0  0  0  0  0  0  0  0
   39.8630   31.0140   40.8390 H   0  0  0  0  0  0  0  0  0  0  0  0
   36.6940   24.5350   40.8130 C   0  0  2  0  0  0  0  0  0  0  0  0
   36.9160   24.1330   42.1920 C   0  0  0  0  0  0  0  0  0  0  0  0
   37.9950   23.7640   41.2080 C   0  0  2  0  0  0  0  0  0  0  0  0
   36.0480   23.9340   40.1160 H   0  0  0  0  0  0  0  0  0  0  0  0
   36.2690   23.2980   42.5840 H   0  0  0  0  0  0  0  0  0  0  0  0
   37.0350   24.9260   42.9280 H   0  0  0  0  0  0  0  0  0  0  0  0
   38.0250   22.6940   40.9340 H   0  0  0  0  0  0  0  0  0  0  0  0
   39.5980   24.3160   38.8960 F   0  0  0  0  0  0  0  0  0  0  0  0
   40.0640   24.8010   40.0540 C   0  0  0  0  0  0  0  0  0  0  0  0
   39.2570   24.5080   41.1330 C   0  0  0  0  0  0  0  0  0  0  0  0
   39.6440   24.9650   42.3990 C   0  0  0  0  0  0  0  0  0  0  0  0
   39.1040   24.8090   43.3470 H   0  0  0  0  0  0  0  0  0  0  0  0
   40.8200   25.7020   42.5740 C   0  0  0  0  0  0  0  0  0  0  0  0
   41.1400   26.0650   43.5400 H   0  0  0  0  0  0  0  0  0  0  0  0
   41.6060   25.9770   41.4690 C   0  0  0  0  0  3  0  0  0  0  0  0
   41.2230   25.5280   40.2300 C   0  0  0  0  0  3  0  0  0  0  0  0
  1  6  2  0  0  0  0
  1  2  1  0  0  0  0
  2  3  2  0  0  0  0
  3  4  1  0  0  0  0
  3  8  1  0  0  0  0
  5 32  1  0  0  0  0
  5  4  2  0  0  0  0
  6  5  1  0  0  0  0
  7  1  1  0  0  0  0
  9 12  1  6  0  0  0
  9  2  1  0  0  0  0
  9 11  1  0  0  0  0
 10 13  1  0  0  0  0
 10  9  1  0  0  0  0
 10 11  1  0  0  0  0
 11 16  1  0  0  0  0
 11 15  1  1  0  0  0
 14 10  1  0  0  0  0
 16 25  1  0  0  0  0
 17 18  1  0  0  0  0
 17 16  2  0  0  0  0
 18 19  2  0  0  0  0
 19 20  1  0  0  0  0
 19 24  1  0  0  0  0
 20 21  2  0  0  0  0
 21 28  1  0  0  0  0
 21 22  1  0  0  0  0
 22 29  1  0  0  0  0
 23 22  2  0  0  0  0
 23 30  1  0  0  0  0
 24 23  1  0  0  0  0
 25 24  2  0  0  0  0
 25 31  1  0  0  0  0
 26 17  1  0  0  0  0
 27 18  1  0  0  0  0
 32 35  1  6  0  0  0
 32 34  1  0  0  0  0
 32 33  1  0  0  0  0
 33 36  1  0  0  0  0
 33 37  1  0  0  0  0
 34 38  1  6  0  0  0
 34 33  1  0  0  0  0
 39 40  1  0  0  0  0
 40 47  2  0  0  0  0
 40 41  1  0  0  0  0
 41 34  1  0  0  0  0
 41 42  2  0  0  0  0
 42 44  1  0  0  0  0
 42 43  1  0  0  0  0
 44 45  1  0  0  0  0
 46 44  2  0  0  0  0
 47 46  1  0  0  0  0
M  END
>  <minimizedAffinity>
-6.24686098

$$$$

 OpenBabel03252503253D

 47 52  0  0  1  0  0  0  0  0999 V2000
   36.1630   27.6650   41.9740 C   0  0  0  0  0  0  0  0  0  0  0  0
   36.6390   28.4190   40.8700 C   0  0  0  0  0  0  0  0  0  0  0  0
   37.9790   28.7050   40.8120 C   0  0  0  0  0  0  0  0  0  0  0  0
   38.7740   28.2480   41.8190 N   0  0  0  0  0  0  0  0  0  0  0  0
   38.3020   27.5280   42.8700 C   0  0  0  0  0  0  0  0  0  0  0  0
   36.9930   27.2400   42.9400 N   0  0  0  0  0  0  0  0  0  0  0  0
   35.0920   27.4450   42.0040 H   0  0  0  0  0  0  0  0  0  0  0  0
   38.3940   29.2760   39.9930 H   0  0  0  0  0  0  0  0  0  0  0  0
   35.6810   28.8840   39.8220 C   0  0  1  0  0  0  0  0  0  0  0  0
   36.1070   29.8470   38.8110 C   0  0  0  0  0  0  0  0  0  0  0  0
   35.9400   28.4290   38.3970 C   0  0  2  0  0  0  0  0  0  0  0  0
   34.6280   28.8680   40.1500 H   0  0  0  0  0  0  0  0  0  0  0  0
   37.1960   30.1640   38.8610 H   0  0  0  0  0  0  0  0  0  0  0  0
   35.4400   30.6660   38.5990 H   0  0  0  0  0  0  0  0  0  0  0  0
   36.7810   27.7270   38.3370 H   0  0  0  0  0  0  0  0  0  0  0  0
   34.7060   28.0940   37.6350 C   0  0  0  0  0  0  0  0  0  0  0  0
   34.3970   26.8320   37.1720 C   0  0  0  0  0  0  0  0  0  0  0  0
   33.2330   26.5960   36.4620 C   0  0  0  0  0  0  0  0  0  0  0  0
   32.3630   27.6180   36.2050 C   0  0  0  0  0  0  0  0  0  0  0  0
   31.2090   27.4140   35.5090 N   0  0  0  0  0  0  0  0  0  0  0  0
   30.3630   28.4450   35.2690 C   0  0  0  0  0  0  0  0  0  0  0  0
   30.5920   29.7740   35.7010 C   0  0  0  0  0  0  0  0  0  0  0  0
   31.7620   29.9820   36.4060 C   0  0  0  0  0  0  0  0  0  0  0  0
   32.6230   28.9170   36.6470 C   0  0  0  0  0  0  0  0  0  0  0  0
   33.7930   29.1100   37.3520 C   0  0  0  0  0  0  0  0  0  0  0  0
   35.1020   26.0250   37.3860 H   0  0  0  0  0  0  0  0  0  0  0  0
   32.9860   25.6140   36.0970 H   0  0  0  0  0  0  0  0  0  0  0  0
   29.4580   28.2880   34.7250 H   0  0  0  0  0  0  0  0  0  0  0  0
   29.8620   30.5360   35.4650 H   0  0  0  0  0  0  0  0  0  0  0  0
   31.9750   30.9780   36.7540 H   0  0  0  0  0  0  0  0  0  0  0  0
   33.9270   30.1390   37.6550 H   0  0  0  0  0  0  0  0  0  0  0  0
   39.2710   27.0790   43.9050 C   0  0  2  0  0  0  0  0  0  0  0  0
   40.6980   27.0180   43.6340 C   0  0  0  0  0  0  0  0  0  0  0  0
   39.9490   25.7120   43.5660 C   0  0  2  0  0  0  0  0  0  0  0  0
   38.8670   27.0960   44.9550 H   0  0  0  0  0  0  0  0  0  0  0  0
   41.3860   27.1720   44.5120 H   0  0  0  0  0  0  0  0  0  0  0  0
   41.0580   27.5380   42.7480 H   0  0  0  0  0  0  0  0  0  0  0  0
   40.1250   25.0350   44.4210 H   0  0  0  0  0  0  0  0  0  0  0  0
   41.2420   26.0160   41.0260 F   0  0  0  0  0  0  0  0  0  0  0  0
   40.1760   25.2050   41.0410 C   0  0  0  0  0  0  0  0  0  0  0  0
   39.5920   25.0940   42.2850 C   0  0  0  0  0  0  0  0  0  0  0  0
   38.4680   24.2710   42.4230 C   0  0  0  0  0  0  0  0  0  0  0  0
   37.8990   24.0850   43.3490 H   0  0  0  0  0  0  0  0  0  0  0  0
   37.9420   23.5740   41.3300 C   0  0  0  0  0  0  0  0  0  0  0  0
   37.0760   22.9330   41.4110 H   0  0  0  0  0  0  0  0  0  0  0  0
   38.5540   23.7090   40.0960 C   0  0  0  0  0  3  0  0  0  0  0  0
   39.6550   24.5160   39.9650 C   0  0  0  0  0  3  0  0  0  0  0  0
  1  7  1  0  0  0  0
  1  6  1  0  0  0  0
  2  1  2  0  0  0  0
  3  2  1  0  0  0  0
  3  4  2  0  0  0  0
  4  5  1  0  0  0  0
  5  6  2  0  0  0  0
  5 32  1  0  0  0  0
  8  3  1  0  0  0  0
  9 12  1  1  0  0  0
  9  2  1  0  0  0  0
 10 13  1  0  0  0  0
 10  9  1  0  0  0  0
 11 15  1  6  0  0  0
 11 10  1  0  0  0  0
 11  9  1  0  0  0  0
 14 10  1  0  0  0  0
 16 11  1  0  0  0  0
 17 26  1  0  0  0  0
 17 16  2  0  0  0  0
 18 17  1  0  0  0  0
 19 18  2  0  0  0  0
 19 24  1  0  0  0  0
 20 19  1  0  0  0  0
 21 20  2  0  0  0  0
 21 22  1  0  0  0  0
 22 23  2  0  0  0  0
 23 24  1  0  0  0  0
 23 30  1  0  0  0  0
 24 25  2  0  0  0  0
 25 16  1  0  0  0  0
 25 31  1  0  0  0  0
 27 18  1  0  0  0  0
 28 21  1  0  0  0  0
 29 22  1  0  0  0  0
 32 35  1  1  0  0  0
 33 32  1  0  0  0  0
 33 36  1  0  0  0  0
 34 33  1  0  0  0  0
 34 32  1  0  0  0  0
 34 38  1  1  0  0  0
 37 33  1  0  0  0  0
 39 40  1  0  0  0  0
 40 41  1  0  0  0  0
 41 42  2  0  0  0  0
 41 34  1  0  0  0  0
 42 43  1  0  0  0  0
 44 45  1  0  0  0  0
 44 42  1  0  0  0  0
 46 44  2  0  0  0  0
 47 46  1  0  0  0  0
 47 40  2  0  0  0  0
M  END
>  <minimizedAffinity>
-6.20213699

$$$$
