
 OpenBabel03252505593D

 36 38  0  0  0  0  0  0  0  0999 V2000
   36.0950   25.3280   38.8530 C   0  0  0  0  0  0  0  0  0  0  0  0
   36.9240   25.1410   39.9710 C   0  0  0  0  0  0  0  0  0  0  0  0
   37.9640   26.0580   40.1440 C   0  0  0  0  0  0  0  0  0  0  0  0
   38.1230   27.0510   39.2590 N   0  0  0  0  0  0  0  0  0  0  0  0
   37.3100   27.2000   38.1990 C   0  0  0  0  0  0  0  0  0  0  0  0
   36.2920   26.3420   37.9880 N   0  0  0  0  0  0  0  0  0  0  0  0
   35.2660   24.6250   38.6840 H   0  0  0  0  0  0  0  0  0  0  0  0
   37.4970   27.6860   42.2370 F   0  0  0  0  0  0  0  0  0  0  0  0
   38.4880   26.7420   42.2930 C   0  0  0  0  0  0  0  0  0  0  0  0
   38.8460   25.8400   41.2920 C   0  0  0  0  0  0  0  0  0  0  0  0
   39.8830   24.9400   41.4880 C   0  0  0  0  0  0  0  0  0  0  0  0
   40.0440   24.3040   40.6160 H   0  0  0  0  0  0  0  0  0  0  0  0
   40.5500   24.9570   42.6920 C   0  0  0  0  0  0  0  0  0  0  0  0
   41.3500   24.2360   42.7940 H   0  0  0  0  0  0  0  0  0  0  0  0
   40.1710   25.8700   43.6780 C   0  0  0  0  0  3  0  0  0  0  0  0
   39.1490   26.7800   43.5290 C   0  0  0  0  0  3  0  0  0  0  0  0
   36.6340   23.9910   40.8700 C   0  0  0  0  0  0  0  0  0  0  0  0
   37.6870   23.1150   40.6770 F   0  0  0  0  0  0  0  0  0  0  0  0
   35.4490   23.4300   40.4310 F   0  0  0  0  0  0  0  0  0  0  0  0
   36.5860   24.4510   42.1550 F   0  0  0  0  0  0  0  0  0  0  0  0
   37.4380   28.2080   37.2670 O   0  0  0  0  0  0  0  0  0  0  0  0
   36.4850   29.2350   37.1670 C   0  0  0  0  0  0  0  0  0  0  0  0
   36.9520   30.0260   36.5040 H   0  0  0  0  0  0  0  0  0  0  0  0
   35.5730   28.8430   36.7180 H   0  0  0  0  0  0  0  0  0  0  0  0
   36.3480   29.8580   38.4880 C   0  0  0  0  0  0  0  0  0  0  0  0
   35.6020   29.4820   39.6000 C   0  0  0  0  0  0  0  0  0  0  0  0
   35.6540   30.2550   40.7110 C   0  0  0  0  0  0  0  0  0  0  0  0
   36.3910   31.3540   40.7690 N   0  0  0  0  0  0  0  0  0  0  0  0
   37.1200   31.7340   39.6970 C   0  0  0  0  0  0  0  0  0  0  0  0
   37.1140   30.9950   38.5350 N   0  0  0  0  0  0  0  0  0  0  0  0
   35.0730   28.5660   39.3670 H   0  0  0  0  0  0  0  0  0  0  0  0
   35.0410   29.8820   41.5180 H   0  0  0  0  0  0  0  0  0  0  0  0
   37.9190   32.9780   39.8550 C   0  0  0  0  0  0  0  0  0  0  0  0
   37.1570   34.0960   39.6110 F   0  0  0  0  0  0  0  0  0  0  0  0
   39.0120   32.9580   38.9570 F   0  0  0  0  0  0  0  0  0  0  0  0
   38.4390   33.0800   41.1280 F   0  0  0  0  0  0  0  0  0  0  0  0
  1  2  1  0  0  0  0
  2  3  2  0  0  0  0
  2 17  1  0  0  0  0
  3 10  1  0  0  0  0
  4  3  1  0  0  0  0
  5  4  2  0  0  0  0
  6  5  1  0  0  0  0
  6  1  2  0  0  0  0
  7  1  1  0  0  0  0
  8  9  1  0  0  0  0
  9 16  1  0  0  0  0
 10 11  1  0  0  0  0
 10  9  2  0  0  0  0
 11 13  2  0  0  0  0
 12 11  1  0  0  0  0
 13 14  1  0  0  0  0
 13 15  1  0  0  0  0
 16 15  2  0  0  0  0
 17 20  1  0  0  0  0
 18 17  1  0  0  0  0
 19 17  1  0  0  0  0
 21  5  1  0  0  0  0
 22 21  1  0  0  0  0
 22 25  1  0  0  0  0
 23 22  1  0  0  0  0
 24 22  1  0  0  0  0
 25 30  2  0  0  0  0
 25 26  1  0  0  0  0
 26 27  2  0  0  0  0
 27 28  1  0  0  0  0
 27 32  1  0  0  0  0
 29 33  1  0  0  0  0
 29 28  2  0  0  0  0
 30 29  1  0  0  0  0
 31 26  1  0  0  0  0
 33 36  1  0  0  0  0
 34 33  1  0  0  0  0
 35 33  1  0  0  0  0
M  END
>  <minimizedAffinity>
-6.26443624

$$$$

 OpenBabel03252505593D

 36 38  0  0  0  0  0  0  0  0999 V2000
   36.8180   30.5160   38.1490 C   0  0  0  0  0  0  0  0  0  0  0  0
   36.5780   29.4490   39.0300 C   0  0  0  0  0  0  0  0  0  0  0  0
   37.6310   29.0780   39.8710 C   0  0  0  0  0  0  0  0  0  0  0  0
   38.7940   29.7390   39.8030 N   0  0  0  0  0  0  0  0  0  0  0  0
   38.9890   30.7570   38.9470 C   0  0  0  0  0  0  0  0  0  0  0  0
   38.0060   31.1520   38.1150 N   0  0  0  0  0  0  0  0  0  0  0  0
   36.0130   30.8350   37.4710 H   0  0  0  0  0  0  0  0  0  0  0  0
   36.9100   29.7600   42.3740 F   0  0  0  0  0  0  0  0  0  0  0  0
   37.0210   28.4440   42.0130 C   0  0  0  0  0  0  0  0  0  0  0  0
   37.3880   27.9440   40.7640 C   0  0  0  0  0  0  0  0  0  0  0  0
   37.4660   26.5760   40.5450 C   0  0  0  0  0  0  0  0  0  0  0  0
   37.7670   26.3420   39.5220 H   0  0  0  0  0  0  0  0  0  0  0  0
   37.1740   25.7250   41.5860 C   0  0  0  0  0  0  0  0  0  0  0  0
   37.2500   24.6690   41.3630 H   0  0  0  0  0  0  0  0  0  0  0  0
   36.8080   26.2520   42.8260 C   0  0  0  0  0  3  0  0  0  0  0  0
   36.7160   27.6000   43.0900 C   0  0  0  0  0  3  0  0  0  0  0  0
   35.2380   28.8020   38.9940 C   0  0  0  0  0  0  0  0  0  0  0  0
   34.5710   29.4230   37.9550 F   0  0  0  0  0  0  0  0  0  0  0  0
   34.6260   29.0840   40.2010 F   0  0  0  0  0  0  0  0  0  0  0  0
   35.4120   27.4680   38.7600 F   0  0  0  0  0  0  0  0  0  0  0  0
   40.1690   31.4630   38.8480 O   0  0  0  0  0  0  0  0  0  0  0  0
   40.4390   32.2800   37.7380 C   0  0  0  0  0  0  0  0  0  0  0  0
   40.0430   31.7180   36.8370 H   0  0  0  0  0  0  0  0  0  0  0  0
   39.9260   33.2340   37.8550 H   0  0  0  0  0  0  0  0  0  0  0  0
   41.8940   32.3380   37.5590 C   0  0  0  0  0  0  0  0  0  0  0  0
   42.8450   33.2030   38.0910 C   0  0  0  0  0  0  0  0  0  0  0  0
   44.1450   33.0320   37.7500 C   0  0  0  0  0  0  0  0  0  0  0  0
   44.5350   32.0700   36.9280 N   0  0  0  0  0  0  0  0  0  0  0  0
   43.6240   31.2230   36.4010 C   0  0  0  0  0  0  0  0  0  0  0  0
   42.2860   31.3390   36.7050 N   0  0  0  0  0  0  0  0  0  0  0  0
   42.3420   33.9120   38.7370 H   0  0  0  0  0  0  0  0  0  0  0  0
   44.8030   33.7520   38.2120 H   0  0  0  0  0  0  0  0  0  0  0  0
   44.1550   30.1730   35.4920 C   0  0  0  0  0  0  0  0  0  0  0  0
   45.0910   30.6870   34.6260 F   0  0  0  0  0  0  0  0  0  0  0  0
   43.0930   29.6110   34.7430 F   0  0  0  0  0  0  0  0  0  0  0  0
   44.7420   29.1460   36.2010 F   0  0  0  0  0  0  0  0  0  0  0  0
  1  2  1  0  0  0  0
  2  3  2  0  0  0  0
  3 10  1  0  0  0  0
  4  3  1  0  0  0  0
  5  4  2  0  0  0  0
  6  1  2  0  0  0  0
  6  5  1  0  0  0  0
  7  1  1  0  0  0  0
  9  8  1  0  0  0  0
  9 16  1  0  0  0  0
 10  9  2  0  0  0  0
 11 10  1  0  0  0  0
 11 13  2  0  0  0  0
 12 11  1  0  0  0  0
 13 15  1  0  0  0  0
 14 13  1  0  0  0  0
 15 16  2  0  0  0  0
 17  2  1  0  0  0  0
 17 19  1  0  0  0  0
 18 17  1  0  0  0  0
 20 17  1  0  0  0  0
 21  5  1  0  0  0  0
 22 24  1  0  0  0  0
 22 21  1  0  0  0  0
 23 22  1  0  0  0  0
 25 22  1  0  0  0  0
 25 26  1  0  0  0  0
 26 31  1  0  0  0  0
 27 26  2  0  0  0  0
 27 32  1  0  0  0  0
 28 27  1  0  0  0  0
 29 30  1  0  0  0  0
 29 28  2  0  0  0  0
 30 25  2  0  0  0  0
 33 36  1  0  0  0  0
 33 29  1  0  0  0  0
 34 33  1  0  0  0  0
 35 33  1  0  0  0  0
M  END
>  <minimizedAffinity>
-6.06417513

$$$$

 OpenBabel03252505593D

 36 38  0  0  0  0  0  0  0  0999 V2000
   36.5240   29.9370   40.1960 C   0  0  0  0  0  0  0  0  0  0  0  0
   37.4760   30.8380   39.6920 C   0  0  0  0  0  0  0  0  0  0  0  0
   38.5580   31.1420   40.5220 C   0  0  0  0  0  0  0  0  0  0  0  0
   38.6400   30.5750   41.7330 N   0  0  0  0  0  0  0  0  0  0  0  0
   37.7100   29.7160   42.1850 C   0  0  0  0  0  0  0  0  0  0  0  0
   36.6470   29.3910   41.4220 N   0  0  0  0  0  0  0  0  0  0  0  0
   35.6580   29.6760   39.5710 H   0  0  0  0  0  0  0  0  0  0  0  0
   40.7770   30.0380   39.4690 F   0  0  0  0  0  0  0  0  0  0  0  0
   40.6160   31.3980   39.4910 C   0  0  0  0  0  0  0  0  0  0  0  0
   39.5300   32.1070   40.0060 C   0  0  0  0  0  0  0  0  0  0  0  0
   39.5080   33.4930   39.9670 C   0  0  0  0  0  0  0  0  0  0  0  0
   38.5960   33.9010   40.4070 H   0  0  0  0  0  0  0  0  0  0  0  0
   40.5790   34.1530   39.4080 C   0  0  0  0  0  0  0  0  0  0  0  0
   40.5120   35.2330   39.4020 H   0  0  0  0  0  0  0  0  0  0  0  0
   41.6520   33.4190   38.8990 C   0  0  0  0  0  3  0  0  0  0  0  0
   41.7180   32.0440   38.9160 C   0  0  0  0  0  3  0  0  0  0  0  0
   37.2560   31.3960   38.3290 C   0  0  0  0  0  0  0  0  0  0  0  0
   36.2080   30.6600   37.8080 F   0  0  0  0  0  0  0  0  0  0  0  0
   38.4150   31.1650   37.6120 F   0  0  0  0  0  0  0  0  0  0  0  0
   36.9350   32.7170   38.4530 F   0  0  0  0  0  0  0  0  0  0  0  0
   37.7580   29.1110   43.4230 O   0  0  0  0  0  0  0  0  0  0  0  0
   37.1200   27.8810   43.6590 C   0  0  0  0  0  0  0  0  0  0  0  0
   37.0100   27.8020   44.7840 H   0  0  0  0  0  0  0  0  0  0  0  0
   36.1460   27.8780   43.1730 H   0  0  0  0  0  0  0  0  0  0  0  0
   38.0460   26.8090   43.2770 C   0  0  0  0  0  0  0  0  0  0  0  0
   39.3580   26.5560   43.6620 C   0  0  0  0  0  0  0  0  0  0  0  0
   39.9940   25.4790   43.1420 C   0  0  0  0  0  0  0  0  0  0  0  0
   39.4050   24.6630   42.2800 N   0  0  0  0  0  0  0  0  0  0  0  0
   38.1310   24.8960   41.8940 C   0  0  0  0  0  0  0  0  0  0  0  0
   37.4260   25.9730   42.3840 N   0  0  0  0  0  0  0  0  0  0  0  0
   39.6640   27.3200   44.3660 H   0  0  0  0  0  0  0  0  0  0  0  0
   41.0070   25.3690   43.5010 H   0  0  0  0  0  0  0  0  0  0  0  0
   37.5520   23.9260   40.9280 C   0  0  0  0  0  0  0  0  0  0  0  0
   36.2010   23.7710   41.1240 F   0  0  0  0  0  0  0  0  0  0  0  0
   38.1880   22.6710   41.0750 F   0  0  0  0  0  0  0  0  0  0  0  0
   37.7550   24.3350   39.6260 F   0  0  0  0  0  0  0  0  0  0  0  0
  1  6  1  0  0  0  0
  2  1  2  0  0  0  0
  2  3  1  0  0  0  0
  3  4  2  0  0  0  0
  4  5  1  0  0  0  0
  5 21  1  0  0  0  0
  6  5  2  0  0  0  0
  7  1  1  0  0  0  0
  8  9  1  0  0  0  0
  9 10  1  0  0  0  0
 10  3  1  0  0  0  0
 11 10  2  0  0  0  0
 11 12  1  0  0  0  0
 13 11  1  0  0  0  0
 14 13  1  0  0  0  0
 15 16  1  0  0  0  0
 15 13  2  0  0  0  0
 16  9  2  0  0  0  0
 17 20  1  0  0  0  0
 17  2  1  0  0  0  0
 18 17  1  0  0  0  0
 19 17  1  0  0  0  0
 21 22  1  0  0  0  0
 22 23  1  0  0  0  0
 24 22  1  0  0  0  0
 25 22  1  0  0  0  0
 25 26  1  0  0  0  0
 26 31  1  0  0  0  0
 27 32  1  0  0  0  0
 27 26  2  0  0  0  0
 28 27  1  0  0  0  0
 29 28  2  0  0  0  0
 29 30  1  0  0  0  0
 30 25  2  0  0  0  0
 33 35  1  0  0  0  0
 33 34  1  0  0  0  0
 33 29  1  0  0  0  0
 36 33  1  0  0  0  0
M  END
>  <minimizedAffinity>
-6.00528336

$$$$

 OpenBabel03252505593D

 36 38  0  0  0  0  0  0  0  0999 V2000
   39.6360   31.6440   40.4160 C   0  0  0  0  0  0  0  0  0  0  0  0
   38.4930   31.3320   39.6610 C   0  0  0  0  0  0  0  0  0  0  0  0
   38.1490   29.9810   39.5680 C   0  0  0  0  0  0  0  0  0  0  0  0
   38.9040   29.0640   40.1880 N   0  0  0  0  0  0  0  0  0  0  0  0
   39.9920   29.3980   40.9040 C   0  0  0  0  0  0  0  0  0  0  0  0
   40.3650   30.6880   41.0220 N   0  0  0  0  0  0  0  0  0  0  0  0
   39.9370   32.6970   40.5100 H   0  0  0  0  0  0  0  0  0  0  0  0
   35.9110   29.4780   40.9780 F   0  0  0  0  0  0  0  0  0  0  0  0
   35.9010   29.4280   39.6100 C   0  0  0  0  0  0  0  0  0  0  0  0
   36.9780   29.6570   38.7530 C   0  0  0  0  0  0  0  0  0  0  0  0
   36.8200   29.5620   37.3780 C   0  0  0  0  0  0  0  0  0  0  0  0
   37.7490   29.7670   36.8440 H   0  0  0  0  0  0  0  0  0  0  0  0
   35.5790   29.2380   36.8790 C   0  0  0  0  0  0  0  0  0  0  0  0
   35.5100   29.1760   35.8010 H   0  0  0  0  0  0  0  0  0  0  0  0
   34.5180   29.0140   37.7580 C   0  0  0  0  0  3  0  0  0  0  0  0
   34.6260   29.0980   39.1280 C   0  0  0  0  0  3  0  0  0  0  0  0
   37.7510   32.4530   39.0220 C   0  0  0  0  0  0  0  0  0  0  0  0
   38.4150   33.5960   39.4270 F   0  0  0  0  0  0  0  0  0  0  0  0
   36.4680   32.4280   39.5380 F   0  0  0  0  0  0  0  0  0  0  0  0
   37.8060   32.2870   37.6680 F   0  0  0  0  0  0  0  0  0  0  0  0
   40.7930   28.4860   41.5570 O   0  0  0  0  0  0  0  0  0  0  0  0
   40.5510   28.1280   42.8930 C   0  0  0  0  0  0  0  0  0  0  0  0
   41.1710   27.1980   43.0800 H   0  0  0  0  0  0  0  0  0  0  0  0
   40.8630   28.9390   43.5500 H   0  0  0  0  0  0  0  0  0  0  0  0
   39.1530   27.6990   43.0020 C   0  0  0  0  0  0  0  0  0  0  0  0
   38.0590   28.3000   43.6170 C   0  0  0  0  0  0  0  0  0  0  0  0
   36.8590   27.6730   43.5710 C   0  0  0  0  0  0  0  0  0  0  0  0
   36.6970   26.5090   42.9600 N   0  0  0  0  0  0  0  0  0  0  0  0
   37.7500   25.9110   42.3600 C   0  0  0  0  0  0  0  0  0  0  0  0
   38.9980   26.4920   42.3680 N   0  0  0  0  0  0  0  0  0  0  0  0
   38.3820   29.2370   44.0550 H   0  0  0  0  0  0  0  0  0  0  0  0
   36.0760   28.2180   44.0770 H   0  0  0  0  0  0  0  0  0  0  0  0
   37.4730   24.6090   41.6970 C   0  0  0  0  0  0  0  0  0  0  0  0
   38.3310   23.6300   42.1390 F   0  0  0  0  0  0  0  0  0  0  0  0
   37.6130   24.7500   40.2960 F   0  0  0  0  0  0  0  0  0  0  0  0
   36.1810   24.1900   41.9380 F   0  0  0  0  0  0  0  0  0  0  0  0
  1  7  1  0  0  0  0
  1  6  1  0  0  0  0
  2  1  2  0  0  0  0
  3  2  1  0  0  0  0
  3  4  2  0  0  0  0
  4  5  1  0  0  0  0
  5  6  2  0  0  0  0
  5 21  1  0  0  0  0
  9  8  1  0  0  0  0
 10  3  1  0  0  0  0
 10  9  2  0  0  0  0
 11 10  1  0  0  0  0
 12 11  1  0  0  0  0
 13 11  2  0  0  0  0
 13 15  1  0  0  0  0
 14 13  1  0  0  0  0
 15 16  2  0  0  0  0
 16  9  1  0  0  0  0
 17 18  1  0  0  0  0
 17 19  1  0  0  0  0
 17  2  1  0  0  0  0
 20 17  1  0  0  0  0
 21 22  1  0  0  0  0
 22 25  1  0  0  0  0
 22 23  1  0  0  0  0
 22 24  1  0  0  0  0
 25 26  1  0  0  0  0
 26 31  1  0  0  0  0
 27 26  2  0  0  0  0
 27 32  1  0  0  0  0
 28 27  1  0  0  0  0
 29 30  1  0  0  0  0
 29 28  2  0  0  0  0
 30 25  2  0  0  0  0
 33 36  1  0  0  0  0
 33 34  1  0  0  0  0
 33 29  1  0  0  0  0
 35 33  1  0  0  0  0
M  END
>  <minimizedAffinity>
-5.99861193

$$$$

 OpenBabel03252505593D

 36 38  0  0  0  0  0  0  0  0999 V2000
   36.5030   31.4270   40.6500 C   0  0  0  0  0  0  0  0  0  0  0  0
   37.8800   31.6920   40.5570 C   0  0  0  0  0  0  0  0  0  0  0  0
   38.7470   30.6620   40.9340 C   0  0  0  0  0  0  0  0  0  0  0  0
   38.2410   29.4970   41.3570 N   0  0  0  0  0  0  0  0  0  0  0  0
   36.9170   29.2760   41.4340 C   0  0  0  0  0  0  0  0  0  0  0  0
   36.0400   30.2380   41.0830 N   0  0  0  0  0  0  0  0  0  0  0  0
   35.7910   32.2140   40.3630 H   0  0  0  0  0  0  0  0  0  0  0  0
   39.8730   31.2770   43.3010 F   0  0  0  0  0  0  0  0  0  0  0  0
   40.6240   31.2470   42.1560 C   0  0  0  0  0  0  0  0  0  0  0  0
   40.1790   30.9540   40.8670 C   0  0  0  0  0  0  0  0  0  0  0  0
   41.0590   30.9710   39.7940 C   0  0  0  0  0  0  0  0  0  0  0  0
   40.5630   30.7230   38.8540 H   0  0  0  0  0  0  0  0  0  0  0  0
   42.3780   31.2830   40.0300 C   0  0  0  0  0  0  0  0  0  0  0  0
   43.0220   31.2820   39.1610 H   0  0  0  0  0  0  0  0  0  0  0  0
   42.7970   31.5710   41.3300 C   0  0  0  0  0  3  0  0  0  0  0  0
   41.9620   31.5660   42.4250 C   0  0  0  0  0  3  0  0  0  0  0  0
   38.3000   33.0350   40.0740 C   0  0  0  0  0  0  0  0  0  0  0  0
   38.9880   32.7920   38.8990 F   0  0  0  0  0  0  0  0  0  0  0  0
   39.1480   33.5570   41.0340 F   0  0  0  0  0  0  0  0  0  0  0  0
   37.1790   33.7850   39.8590 F   0  0  0  0  0  0  0  0  0  0  0  0
   36.3570   28.0920   41.8630 O   0  0  0  0  0  0  0  0  0  0  0  0
   36.7670   27.4820   43.0600 C   0  0  0  0  0  0  0  0  0  0  0  0
   37.3870   28.2580   43.6050 H   0  0  0  0  0  0  0  0  0  0  0  0
   35.8900   27.2070   43.6460 H   0  0  0  0  0  0  0  0  0  0  0  0
   37.6950   26.3980   42.7240 C   0  0  0  0  0  0  0  0  0  0  0  0
   38.9970   26.1480   43.1460 C   0  0  0  0  0  0  0  0  0  0  0  0
   39.6400   25.0570   42.6660 C   0  0  0  0  0  0  0  0  0  0  0  0
   39.0680   24.2240   41.8090 N   0  0  0  0  0  0  0  0  0  0  0  0
   37.8050   24.4540   41.3870 C   0  0  0  0  0  0  0  0  0  0  0  0
   37.0930   25.5440   41.8360 N   0  0  0  0  0  0  0  0  0  0  0  0
   39.2900   26.9260   43.8410 H   0  0  0  0  0  0  0  0  0  0  0  0
   40.6430   24.9510   43.0510 H   0  0  0  0  0  0  0  0  0  0  0  0
   37.2440   23.4650   40.4290 C   0  0  0  0  0  0  0  0  0  0  0  0
   37.6020   23.7640   39.1360 F   0  0  0  0  0  0  0  0  0  0  0  0
   35.8320   23.4560   40.5270 F   0  0  0  0  0  0  0  0  0  0  0  0
   37.6810   22.1880   40.7140 F   0  0  0  0  0  0  0  0  0  0  0  0
  1  6  1  0  0  0  0
  2  1  2  0  0  0  0
  2  3  1  0  0  0  0
  3  4  2  0  0  0  0
  4  5  1  0  0  0  0
  5 21  1  0  0  0  0
  6  5  2  0  0  0  0
  7  1  1  0  0  0  0
  9 16  1  0  0  0  0
  9  8  1  0  0  0  0
 10  3  1  0  0  0  0
 10  9  2  0  0  0  0
 11 13  2  0  0  0  0
 11 10  1  0  0  0  0
 12 11  1  0  0  0  0
 13 15  1  0  0  0  0
 14 13  1  0  0  0  0
 15 16  2  0  0  0  0
 17  2  1  0  0  0  0
 17 19  1  0  0  0  0
 18 17  1  0  0  0  0
 20 17  1  0  0  0  0
 21 22  1  0  0  0  0
 22 23  1  0  0  0  0
 22 24  1  0  0  0  0
 25 22  1  0  0  0  0
 25 26  1  0  0  0  0
 26 31  1  0  0  0  0
 27 32  1  0  0  0  0
 27 26  2  0  0  0  0
 28 27  1  0  0  0  0
 29 28  2  0  0  0  0
 29 30  1  0  0  0  0
 30 25  2  0  0  0  0
 33 35  1  0  0  0  0
 33 36  1  0  0  0  0
 33 29  1  0  0  0  0
 34 33  1  0  0  0  0
M  END
>  <minimizedAffinity>
-5.940063

$$$$

 OpenBabel03252505593D

 36 38  0  0  0  0  0  0  0  0999 V2000
   36.4500   31.4030   40.6130 C   0  0  0  0  0  0  0  0  0  0  0  0
   37.8290   31.6670   40.5440 C   0  0  0  0  0  0  0  0  0  0  0  0
   38.6880   30.6290   40.9170 C   0  0  0  0  0  0  0  0  0  0  0  0
   38.1740   29.4580   41.3130 N   0  0  0  0  0  0  0  0  0  0  0  0
   36.8480   29.2390   41.3660 C   0  0  0  0  0  0  0  0  0  0  0  0
   35.9790   30.2080   41.0180 N   0  0  0  0  0  0  0  0  0  0  0  0
   35.7440   32.1970   40.3290 H   0  0  0  0  0  0  0  0  0  0  0  0
   39.7710   31.2420   43.3040 F   0  0  0  0  0  0  0  0  0  0  0  0
   40.5430   31.2120   42.1740 C   0  0  0  0  0  0  0  0  0  0  0  0
   40.1220   30.9190   40.8760 C   0  0  0  0  0  0  0  0  0  0  0  0
   41.0210   30.9340   39.8200 C   0  0  0  0  0  0  0  0  0  0  0  0
   40.5420   30.6870   38.8710 H   0  0  0  0  0  0  0  0  0  0  0  0
   42.3360   31.2440   40.0800 C   0  0  0  0  0  0  0  0  0  0  0  0
   42.9960   31.2420   39.2220 H   0  0  0  0  0  0  0  0  0  0  0  0
   42.7320   31.5320   41.3880 C   0  0  0  0  0  3  0  0  0  0  0  0
   41.8770   31.5280   42.4670 C   0  0  0  0  0  3  0  0  0  0  0  0
   38.2590   33.0170   40.0910 C   0  0  0  0  0  0  0  0  0  0  0  0
   37.0830   33.7030   39.8500 F   0  0  0  0  0  0  0  0  0  0  0  0
   38.9660   32.8370   38.9160 F   0  0  0  0  0  0  0  0  0  0  0  0
   38.9870   33.5950   41.0920 F   0  0  0  0  0  0  0  0  0  0  0  0
   36.2800   28.0480   41.7660 O   0  0  0  0  0  0  0  0  0  0  0  0
   36.7470   27.3610   42.8990 C   0  0  0  0  0  0  0  0  0  0  0  0
   37.5370   28.0280   43.3600 H   0  0  0  0  0  0  0  0  0  0  0  0
   35.9220   27.2000   43.5920 H   0  0  0  0  0  0  0  0  0  0  0  0
   37.4590   26.1630   42.4410 C   0  0  0  0  0  0  0  0  0  0  0  0
   36.9850   24.9340   41.9940 C   0  0  0  0  0  0  0  0  0  0  0  0
   37.8790   23.9830   41.6300 C   0  0  0  0  0  0  0  0  0  0  0  0
   39.1860   24.1880   41.6880 N   0  0  0  0  0  0  0  0  0  0  0  0
   39.6630   25.3750   42.1220 C   0  0  0  0  0  0  0  0  0  0  0  0
   38.8110   26.3870   42.5070 N   0  0  0  0  0  0  0  0  0  0  0  0
   35.9020   24.9560   42.0120 H   0  0  0  0  0  0  0  0  0  0  0  0
   37.4120   23.0670   41.3000 H   0  0  0  0  0  0  0  0  0  0  0  0
   41.1430   25.5150   42.1500 C   0  0  0  0  0  0  0  0  0  0  0  0
   41.6670   25.0540   43.3340 F   0  0  0  0  0  0  0  0  0  0  0  0
   41.4950   26.8770   41.9890 F   0  0  0  0  0  0  0  0  0  0  0  0
   41.7320   24.8170   41.1170 F   0  0  0  0  0  0  0  0  0  0  0  0
  1  6  1  0  0  0  0
  2  1  2  0  0  0  0
  2  3  1  0  0  0  0
  3  4  2  0  0  0  0
  4  5  1  0  0  0  0
  5 21  1  0  0  0  0
  6  5  2  0  0  0  0
  7  1  1  0  0  0  0
  9 16  1  0  0  0  0
  9  8  1  0  0  0  0
 10  3  1  0  0  0  0
 10  9  2  0  0  0  0
 11 13  2  0  0  0  0
 11 10  1  0  0  0  0
 12 11  1  0  0  0  0
 13 15  1  0  0  0  0
 14 13  1  0  0  0  0
 15 16  2  0  0  0  0
 17  2  1  0  0  0  0
 17 20  1  0  0  0  0
 18 17  1  0  0  0  0
 19 17  1  0  0  0  0
 21 22  1  0  0  0  0
 22 23  1  0  0  0  0
 22 24  1  0  0  0  0
 25 30  1  0  0  0  0
 25 22  1  0  0  0  0
 26 31  1  0  0  0  0
 26 25  2  0  0  0  0
 27 28  2  0  0  0  0
 27 26  1  0  0  0  0
 28 29  1  0  0  0  0
 29 33  1  0  0  0  0
 29 30  2  0  0  0  0
 32 27  1  0  0  0  0
 33 34  1  0  0  0  0
 35 33  1  0  0  0  0
 36 33  1  0  0  0  0
M  END
>  <minimizedAffinity>
-5.90271711

$$$$

 OpenBabel03252505593D

 36 38  0  0  0  0  0  0  0  0999 V2000
   38.5620   27.1090   43.1250 C   0  0  0  0  0  0  0  0  0  0  0  0
   38.2710   26.0300   42.2730 C   0  0  0  0  0  0  0  0  0  0  0  0
   37.3480   26.2660   41.2500 C   0  0  0  0  0  0  0  0  0  0  0  0
   36.7950   27.4790   41.1280 N   0  0  0  0  0  0  0  0  0  0  0  0
   37.0970   28.4900   41.9610 C   0  0  0  0  0  0  0  0  0  0  0  0
   37.9800   28.3130   42.9640 N   0  0  0  0  0  0  0  0  0  0  0  0
   39.2820   26.9600   43.9420 H   0  0  0  0  0  0  0  0  0  0  0  0
   38.6960   26.2120   38.9200 F   0  0  0  0  0  0  0  0  0  0  0  0
   37.7940   25.2290   39.2280 C   0  0  0  0  0  0  0  0  0  0  0  0
   37.0230   25.1300   40.3870 C   0  0  0  0  0  0  0  0  0  0  0  0
   36.1380   24.0750   40.5600 C   0  0  0  0  0  0  0  0  0  0  0  0
   35.6090   24.1370   41.5120 H   0  0  0  0  0  0  0  0  0  0  0  0
   36.0380   23.1300   39.5640 C   0  0  0  0  0  0  0  0  0  0  0  0
   35.3340   22.3290   39.7480 H   0  0  0  0  0  0  0  0  0  0  0  0
   36.8220   23.2530   38.4150 C   0  0  0  0  0  3  0  0  0  0  0  0
   37.7130   24.2800   38.2000 C   0  0  0  0  0  3  0  0  0  0  0  0
   38.9570   24.7340   42.5300 C   0  0  0  0  0  0  0  0  0  0  0  0
   39.7320   24.9580   43.6530 F   0  0  0  0  0  0  0  0  0  0  0  0
   39.7570   24.4820   41.4300 F   0  0  0  0  0  0  0  0  0  0  0  0
   38.0050   23.7810   42.7520 F   0  0  0  0  0  0  0  0  0  0  0  0
   36.5510   29.7530   41.8680 O   0  0  0  0  0  0  0  0  0  0  0  0
   35.8320   30.1550   40.7300 C   0  0  0  0  0  0  0  0  0  0  0  0
   35.4780   29.2000   40.2360 H   0  0  0  0  0  0  0  0  0  0  0  0
   34.9860   30.7710   41.0340 H   0  0  0  0  0  0  0  0  0  0  0  0
   36.7760   30.7620   39.7870 C   0  0  0  0  0  0  0  0  0  0  0  0
   36.9600   30.5610   38.4230 C   0  0  0  0  0  0  0  0  0  0  0  0
   37.9270   31.2630   37.7850 C   0  0  0  0  0  0  0  0  0  0  0  0
   38.7010   32.1300   38.4190 N   0  0  0  0  0  0  0  0  0  0  0  0
   38.5370   32.3360   39.7440 C   0  0  0  0  0  0  0  0  0  0  0  0
   37.5730   31.6570   40.4550 N   0  0  0  0  0  0  0  0  0  0  0  0
   36.2400   29.8260   38.0830 H   0  0  0  0  0  0  0  0  0  0  0  0
   37.9910   31.0350   36.7300 H   0  0  0  0  0  0  0  0  0  0  0  0
   39.4480   33.3300   40.3700 C   0  0  0  0  0  0  0  0  0  0  0  0
   38.7670   34.1610   41.2290 F   0  0  0  0  0  0  0  0  0  0  0  0
   40.0640   34.1100   39.3630 F   0  0  0  0  0  0  0  0  0  0  0  0
   40.4560   32.7100   41.0790 F   0  0  0  0  0  0  0  0  0  0  0  0
  1  7  1  0  0  0  0
  2 17  1  0  0  0  0
  2  1  2  0  0  0  0
  3  2  1  0  0  0  0
  4  3  2  0  0  0  0
  4  5  1  0  0  0  0
  5  6  2  0  0  0  0
  6  1  1  0  0  0  0
  8  9  1  0  0  0  0
  9 10  1  0  0  0  0
 10 11  2  0  0  0  0
 10  3  1  0  0  0  0
 11 12  1  0  0  0  0
 13 14  1  0  0  0  0
 13 11  1  0  0  0  0
 15 13  2  0  0  0  0
 16 15  1  0  0  0  0
 16  9  2  0  0  0  0
 17 20  1  0  0  0  0
 17 18  1  0  0  0  0
 19 17  1  0  0  0  0
 21  5  1  0  0  0  0
 22 24  1  0  0  0  0
 22 21  1  0  0  0  0
 23 22  1  0  0  0  0
 25 30  1  0  0  0  0
 25 22  1  0  0  0  0
 26 25  2  0  0  0  0
 27 28  2  0  0  0  0
 27 26  1  0  0  0  0
 28 29  1  0  0  0  0
 29 33  1  0  0  0  0
 29 30  2  0  0  0  0
 31 26  1  0  0  0  0
 32 27  1  0  0  0  0
 33 36  1  0  0  0  0
 33 34  1  0  0  0  0
 35 33  1  0  0  0  0
M  END
>  <minimizedAffinity>
-5.86762619

$$$$

 OpenBabel03252505593D

 36 38  0  0  0  0  0  0  0  0999 V2000
   36.3570   28.9230   38.8710 C   0  0  0  0  0  0  0  0  0  0  0  0
   37.0910   30.1190   38.9200 C   0  0  0  0  0  0  0  0  0  0  0  0
   37.4710   30.5740   40.1860 C   0  0  0  0  0  0  0  0  0  0  0  0
   37.1280   29.8670   41.2700 N   0  0  0  0  0  0  0  0  0  0  0  0
   36.4250   28.7240   41.1870 C   0  0  0  0  0  0  0  0  0  0  0  0
   36.0340   28.2450   39.9890 N   0  0  0  0  0  0  0  0  0  0  0  0
   36.0400   28.5360   37.8920 H   0  0  0  0  0  0  0  0  0  0  0  0
   40.1510   30.3080   40.1770 F   0  0  0  0  0  0  0  0  0  0  0  0
   39.5710   31.5490   40.2190 C   0  0  0  0  0  0  0  0  0  0  0  0
   38.2070   31.8380   40.2350 C   0  0  0  0  0  0  0  0  0  0  0  0
   37.7630   33.1510   40.2870 C   0  0  0  0  0  0  0  0  0  0  0  0
   36.6730   33.2150   40.2940 H   0  0  0  0  0  0  0  0  0  0  0  0
   38.6970   34.1610   40.3220 C   0  0  0  0  0  0  0  0  0  0  0  0
   38.2990   35.1660   40.3620 H   0  0  0  0  0  0  0  0  0  0  0  0
   40.0570   33.8440   40.3040 C   0  0  0  0  0  3  0  0  0  0  0  0
   40.5440   32.5570   40.2520 C   0  0  0  0  0  3  0  0  0  0  0  0
   37.3980   30.8030   37.6340 C   0  0  0  0  0  0  0  0  0  0  0  0
   36.6790   30.1070   36.6800 F   0  0  0  0  0  0  0  0  0  0  0  0
   38.7560   30.6600   37.4190 F   0  0  0  0  0  0  0  0  0  0  0  0
   36.9870   32.1020   37.7300 F   0  0  0  0  0  0  0  0  0  0  0  0
   36.0540   27.9670   42.2780 O   0  0  0  0  0  0  0  0  0  0  0  0
   37.0080   27.4740   43.1830 C   0  0  0  0  0  0  0  0  0  0  0  0
   37.8460   28.2360   43.1920 H   0  0  0  0  0  0  0  0  0  0  0  0
   36.5580   27.3810   44.1710 H   0  0  0  0  0  0  0  0  0  0  0  0
   37.5890   26.2550   42.6110 C   0  0  0  0  0  0  0  0  0  0  0  0
   36.9910   25.0740   42.1820 C   0  0  0  0  0  0  0  0  0  0  0  0
   37.7780   24.0860   41.6920 C   0  0  0  0  0  0  0  0  0  0  0  0
   39.0940   24.2110   41.6090 N   0  0  0  0  0  0  0  0  0  0  0  0
   39.6900   25.3510   42.0220 C   0  0  0  0  0  0  0  0  0  0  0  0
   38.9510   26.3960   42.5320 N   0  0  0  0  0  0  0  0  0  0  0  0
   35.9210   25.1590   42.3230 H   0  0  0  0  0  0  0  0  0  0  0  0
   37.2220   23.2120   41.3880 H   0  0  0  0  0  0  0  0  0  0  0  0
   41.1700   25.4020   41.8880 C   0  0  0  0  0  0  0  0  0  0  0  0
   41.7900   24.7860   42.9490 F   0  0  0  0  0  0  0  0  0  0  0  0
   41.5950   26.7510   41.8230 F   0  0  0  0  0  0  0  0  0  0  0  0
   41.5890   24.7870   40.7270 F   0  0  0  0  0  0  0  0  0  0  0  0
  1  2  2  0  0  0  0
  1  6  1  0  0  0  0
  2  3  1  0  0  0  0
  3 10  1  0  0  0  0
  3  4  2  0  0  0  0
  5  4  1  0  0  0  0
  5 21  1  0  0  0  0
  6  5  2  0  0  0  0
  7  1  1  0  0  0  0
  8  9  1  0  0  0  0
  9 10  2  0  0  0  0
  9 16  1  0  0  0  0
 10 11  1  0  0  0  0
 11 12  1  0  0  0  0
 11 13  2  0  0  0  0
 13 14  1  0  0  0  0
 15 13  1  0  0  0  0
 16 15  2  0  0  0  0
 17 20  1  0  0  0  0
 17  2  1  0  0  0  0
 18 17  1  0  0  0  0
 19 17  1  0  0  0  0
 21 22  1  0  0  0  0
 22 23  1  0  0  0  0
 22 24  1  0  0  0  0
 25 22  1  0  0  0  0
 26 31  1  0  0  0  0
 26 25  2  0  0  0  0
 27 26  1  0  0  0  0
 28 27  2  0  0  0  0
 28 29  1  0  0  0  0
 29 30  2  0  0  0  0
 30 25  1  0  0  0  0
 32 27  1  0  0  0  0
 33 29  1  0  0  0  0
 33 34  1  0  0  0  0
 35 33  1  0  0  0  0
 36 33  1  0  0  0  0
M  END
>  <minimizedAffinity>
-5.79396009

$$$$

 OpenBabel03252505593D

 36 38  0  0  0  0  0  0  0  0999 V2000
   37.0680   26.9820   42.8870 C   0  0  0  0  0  0  0  0  0  0  0  0
   37.7130   26.1910   41.9220 C   0  0  0  0  0  0  0  0  0  0  0  0
   38.7510   26.7930   41.2050 C   0  0  0  0  0  0  0  0  0  0  0  0
   39.0790   28.0660   41.4620 N   0  0  0  0  0  0  0  0  0  0  0  0
   38.4400   28.7950   42.3940 C   0  0  0  0  0  0  0  0  0  0  0  0
   37.4320   28.2600   43.1120 N   0  0  0  0  0  0  0  0  0  0  0  0
   36.2460   26.5430   43.4700 H   0  0  0  0  0  0  0  0  0  0  0  0
   37.7520   27.1200   38.7260 F   0  0  0  0  0  0  0  0  0  0  0  0
   38.7860   26.2510   38.9540 C   0  0  0  0  0  0  0  0  0  0  0  0
   39.3970   25.9760   40.1770 C   0  0  0  0  0  0  0  0  0  0  0  0
   40.4360   25.0600   40.2580 C   0  0  0  0  0  0  0  0  0  0  0  0
   40.8080   24.9520   41.2780 H   0  0  0  0  0  0  0  0  0  0  0  0
   40.8490   24.4300   39.1070 C   0  0  0  0  0  0  0  0  0  0  0  0
   41.6620   23.7250   39.2240 H   0  0  0  0  0  0  0  0  0  0  0  0
   40.2200   24.7240   37.8950 C   0  0  0  0  0  3  0  0  0  0  0  0
   39.1870   25.6250   37.7660 C   0  0  0  0  0  3  0  0  0  0  0  0
   37.2410   24.7920   41.7380 C   0  0  0  0  0  0  0  0  0  0  0  0
   36.2310   24.6320   42.6690 F   0  0  0  0  0  0  0  0  0  0  0  0
   38.3100   23.9670   42.0350 F   0  0  0  0  0  0  0  0  0  0  0  0
   36.7780   24.6590   40.4600 F   0  0  0  0  0  0  0  0  0  0  0  0
   38.7480   30.1060   42.6900 O   0  0  0  0  0  0  0  0  0  0  0  0
   40.0580   30.5950   42.5600 C   0  0  0  0  0  0  0  0  0  0  0  0
   40.2710   31.1620   43.5170 H   0  0  0  0  0  0  0  0  0  0  0  0
   40.7480   29.7600   42.4430 H   0  0  0  0  0  0  0  0  0  0  0  0
   40.0630   31.6020   41.4940 C   0  0  0  0  0  0  0  0  0  0  0  0
   41.0760   32.4360   41.0310 C   0  0  0  0  0  0  0  0  0  0  0  0
   40.8030   33.2920   40.0180 C   0  0  0  0  0  0  0  0  0  0  0  0
   39.6060   33.3590   39.4570 N   0  0  0  0  0  0  0  0  0  0  0  0
   38.6100   32.5570   39.8960 C   0  0  0  0  0  0  0  0  0  0  0  0
   38.8180   31.6630   40.9220 N   0  0  0  0  0  0  0  0  0  0  0  0
   41.9740   32.2370   41.6030 H   0  0  0  0  0  0  0  0  0  0  0  0
   41.6520   33.8960   39.7320 H   0  0  0  0  0  0  0  0  0  0  0  0
   37.3020   32.6990   39.2040 C   0  0  0  0  0  0  0  0  0  0  0  0
   36.3610   31.8480   39.7340 F   0  0  0  0  0  0  0  0  0  0  0  0
   37.4590   32.4160   37.8270 F   0  0  0  0  0  0  0  0  0  0  0  0
   36.8200   33.9880   39.3030 F   0  0  0  0  0  0  0  0  0  0  0  0
  1  6  1  0  0  0  0
  1  7  1  0  0  0  0
  2  1  2  0  0  0  0
  3  4  2  0  0  0  0
  3  2  1  0  0  0  0
  4  5  1  0  0  0  0
  5 21  1  0  0  0  0
  5  6  2  0  0  0  0
  8  9  1  0  0  0  0
  9 10  1  0  0  0  0
 10 11  2  0  0  0  0
 10  3  1  0  0  0  0
 11 12  1  0  0  0  0
 13 14  1  0  0  0  0
 13 11  1  0  0  0  0
 15 13  2  0  0  0  0
 16 15  1  0  0  0  0
 16  9  2  0  0  0  0
 17  2  1  0  0  0  0
 17 19  1  0  0  0  0
 17 18  1  0  0  0  0
 20 17  1  0  0  0  0
 22 21  1  0  0  0  0
 22 23  1  0  0  0  0
 24 22  1  0  0  0  0
 25 22  1  0  0  0  0
 26 25  1  0  0  0  0
 26 31  1  0  0  0  0
 27 26  2  0  0  0  0
 28 29  2  0  0  0  0
 28 27  1  0  0  0  0
 29 30  1  0  0  0  0
 30 25  2  0  0  0  0
 32 27  1  0  0  0  0
 33 36  1  0  0  0  0
 33 34  1  0  0  0  0
 33 29  1  0  0  0  0
 35 33  1  0  0  0  0
M  END
>  <minimizedAffinity>
-5.79161835

$$$$
