
 OpenBabel03252505583D

 36 38  0  0  0  0  0  0  0  0999 V2000
   44.9190   34.9360   44.9740 C   0  0  0  0  0  0  0  0  0  0  0  0
   45.8540   34.6490   43.9660 C   0  0  0  0  0  0  0  0  0  0  0  0
   46.8060   33.6670   44.2510 C   0  0  0  0  0  0  0  0  0  0  0  0
   46.7880   33.0570   45.4430 N   0  0  0  0  0  0  0  0  0  0  0  0
   45.8770   33.3570   46.3860 C   0  0  0  0  0  0  0  0  0  0  0  0
   44.9390   34.2960   46.1600 N   0  0  0  0  0  0  0  0  0  0  0  0
   44.1550   35.7040   44.7850 H   0  0  0  0  0  0  0  0  0  0  0  0
   46.1590   31.6490   42.5900 F   0  0  0  0  0  0  0  0  0  0  0  0
   47.3320   32.3380   42.4290 C   0  0  0  0  0  0  0  0  0  0  0  0
   47.7990   33.3950   43.2110 C   0  0  0  0  0  0  0  0  0  0  0  0
   49.0180   33.9950   42.9320 C   0  0  0  0  0  0  0  0  0  0  0  0
   49.2460   34.8030   43.6300 H   0  0  0  0  0  0  0  0  0  0  0  0
   49.7550   33.5270   41.8690 C   0  0  0  0  0  0  0  0  0  0  0  0
   50.6970   34.0290   41.6940 H   0  0  0  0  0  0  0  0  0  0  0  0
   49.2640   32.4680   41.1020 C   0  0  0  0  0  0  0  0  0  0  0  0
   48.0610   31.8420   41.3400 C   0  0  0  0  0  0  0  0  0  0  0  0
   45.7590   35.4090   42.6900 C   0  0  0  0  0  0  0  0  0  0  0  0
   44.8660   36.4310   42.9490 F   0  0  0  0  0  0  0  0  0  0  0  0
   45.2430   34.5410   41.7450 F   0  0  0  0  0  0  0  0  0  0  0  0
   47.0010   35.8870   42.3820 F   0  0  0  0  0  0  0  0  0  0  0  0
   45.8230   32.7510   47.6240 O   0  0  0  0  0  0  0  0  0  0  0  0
   45.3680   31.4300   47.7710 C   0  0  0  0  0  0  0  0  0  0  0  0
   44.8710   31.3870   48.7880 H   0  0  0  0  0  0  0  0  0  0  0  0
   44.6540   31.2020   46.9810 H   0  0  0  0  0  0  0  0  0  0  0  0
   46.5410   30.5540   47.8660 C   0  0  0  0  0  0  0  0  0  0  0  0
   46.7690   29.2780   47.3630 C   0  0  0  0  0  0  0  0  0  0  0  0
   47.9620   28.6840   47.6080 C   0  0  0  0  0  0  0  0  0  0  0  0
   48.9140   29.2810   48.3090 N   0  0  0  0  0  0  0  0  0  0  0  0
   48.7070   30.5210   48.8060 C   0  0  0  0  0  0  0  0  0  0  0  0
   47.5180   31.1830   48.5960 N   0  0  0  0  0  0  0  0  0  0  0  0
   45.8880   28.9590   46.8200 H   0  0  0  0  0  0  0  0  0  0  0  0
   48.0410   27.6970   47.1780 H   0  0  0  0  0  0  0  0  0  0  0  0
   49.8320   31.1130   49.5770 C   0  0  0  0  0  0  0  0  0  0  0  0
   49.8290   32.4850   49.4920 F   0  0  0  0  0  0  0  0  0  0  0  0
   51.0610   30.6220   49.0770 F   0  0  0  0  0  0  0  0  0  0  0  0
   49.7650   30.7630   50.9100 F   0  0  0  0  0  0  0  0  0  0  0  0
  1  6  1  0  0  0  0
  2  3  1  0  0  0  0
  2  1  2  0  0  0  0
  3  4  2  0  0  0  0
  4  5  1  0  0  0  0
  5 21  1  0  0  0  0
  6  5  2  0  0  0  0
  7  1  1  0  0  0  0
  9  8  1  0  0  0  0
  9 10  1  0  0  0  0
 10  3  1  0  0  0  0
 11 10  2  0  0  0  0
 11 12  1  0  0  0  0
 13 11  1  0  0  0  0
 14 13  1  0  0  0  0
 15 16  1  0  0  0  0
 15 13  2  0  0  0  0
 16  9  2  0  0  0  0
 17 18  1  0  0  0  0
 17  2  1  0  0  0  0
 19 17  1  0  0  0  0
 20 17  1  0  0  0  0
 21 22  1  0  0  0  0
 22 25  1  0  0  0  0
 22 23  1  0  0  0  0
 24 22  1  0  0  0  0
 25 30  1  0  0  0  0
 26 27  1  0  0  0  0
 26 25  2  0  0  0  0
 27 28  2  0  0  0  0
 28 29  1  0  0  0  0
 29 33  1  0  0  0  0
 30 29  2  0  0  0  0
 31 26  1  0  0  0  0
 32 27  1  0  0  0  0
 33 36  1  0  0  0  0
 34 33  1  0  0  0  0
 35 33  1  0  0  0  0
M  END
>  <minimizedAffinity>
-6.25912476

>  <minimizedRMSD>
0.899372041

$$$$
