
 OpenBabel03242511223D

 39 42  0  0  1  0  0  0  0  0999 V2000
   35.8980   29.2270   38.2970 C   0  0  0  0  0  0  0  0  0  0  0  0
   36.4230   30.1750   38.2630 H   0  0  0  0  0  0  0  0  0  0  0  0
   34.8200   29.4600   38.5160 H   0  0  0  0  0  0  0  0  0  0  0  0
   36.3430   28.2390   39.2660 C   0  0  0  0  0  0  0  0  0  0  0  0
   36.4740   28.5460   40.5120 C   0  0  0  0  0  0  0  0  0  0  0  0
   36.8970   27.5900   41.4630 N   0  0  0  0  0  0  0  0  0  0  0  0
   36.6850   26.9830   42.7580 C   0  0  0  0  0  0  0  0  0  0  0  0
   36.1860   27.3710   43.8570 O   0  0  0  0  0  0  0  0  0  0  0  0
   37.3140   25.7560   42.1590 C   0  0  0  0  0  0  0  0  0  0  0  0
   38.0540   26.7080   41.2390 C   0  0  1  0  0  0  0  0  0  0  0  0
   38.1420   26.2700   39.5050 S   0  0  0  0  0  0  0  0  0  0  0  0
   36.6240   26.8900   38.7150 C   0  0  0  0  0  0  0  0  0  0  0  0
   36.5950   25.0910   41.6410 H   0  0  0  0  0  0  0  0  0  0  0  0
   38.0350   25.2510   42.8330 H   0  0  0  0  0  0  0  0  0  0  0  0
   38.9970   27.0790   41.7160 H   0  0  0  0  0  0  0  0  0  0  0  0
   35.7530   26.2400   38.9990 H   0  0  0  0  0  0  0  0  0  0  0  0
   36.8150   26.8730   37.6430 H   0  0  0  0  0  0  0  0  0  0  0  0
   36.1820   29.9150   40.9610 C   0  0  0  0  0  0  0  0  0  0  0  0
   37.0680   30.8030   41.1710 O   0  0  0  0  0  0  0  0  0  0  0  0
   35.6050   31.0690   41.3670 O   0  0  0  0  0  0  0  0  0  0  0  0
   34.7360   31.1740   41.9050 H   0  0  0  0  0  0  0  0  0  0  0  0
   35.8870   28.5000   36.6090 S   0  0  0  0  0  0  0  0  0  0  0  0
   32.4940   27.7800   34.5150 C   0  0  0  0  0  0  0  0  0  0  0  0
   33.8550   27.7200   34.9320 C   0  0  0  0  0  0  0  0  0  0  0  0
   34.2090   28.5290   36.0410 C   0  0  0  0  0  0  0  0  0  0  0  0
   33.2520   29.2910   36.6200 N   0  0  0  0  0  0  0  0  0  0  0  0
   31.9890   29.3090   36.1860 C   0  0  0  0  0  0  0  0  0  0  0  0
   31.5960   28.5660   35.1440 N   0  0  0  0  0  0  0  0  0  0  0  0
   32.2550   27.1430   33.6570 H   0  0  0  0  0  0  0  0  0  0  0  0
   34.5530   27.0990   34.4300 H   0  0  0  0  0  0  0  0  0  0  0  0
   31.3340   31.9210   35.3200 F   0  0  0  0  0  0  0  0  0  0  0  0
   30.7200   31.4280   36.4110 C   0  0  0  0  0  0  0  0  0  0  0  0
   31.0140   30.1570   36.8640 C   0  0  0  0  0  0  0  0  0  0  0  0
   30.3450   29.7210   37.9890 C   0  0  0  0  0  0  0  0  0  0  0  0
   30.5590   28.7130   38.3710 H   0  0  0  0  0  0  0  0  0  0  0  0
   29.4120   30.4310   38.7030 C   0  0  0  0  0  0  0  0  0  0  0  0
   28.9250   30.0260   39.5790 H   0  0  0  0  0  0  0  0  0  0  0  0
   29.1420   31.7120   38.2140 C   0  0  0  0  0  3  0  0  0  0  0  0
   29.7800   32.2170   37.0830 C   0  0  0  0  0  3  0  0  0  0  0  0
  1  3  1  0  0  0  0
  1  4  1  0  0  0  0
  2  1  1  0  0  0  0
  4  5  2  0  0  0  0
  5 18  1  0  0  0  0
  5  6  1  0  0  0  0
  6  7  1  0  0  0  0
  7  8  2  0  0  0  0
  9  7  1  0  0  0  0
  9 14  1  0  0  0  0
 10  6  1  0  0  0  0
 10 15  1  1  0  0  0
 10  9  1  0  0  0  0
 11 10  1  0  0  0  0
 12 16  1  0  0  0  0
 12  4  1  0  0  0  0
 12 11  1  0  0  0  0
 13  9  1  0  0  0  0
 17 12  1  0  0  0  0
 18 19  2  0  0  0  0
 18 20  1  0  0  0  0
 20 21  1  0  0  0  0
 22  1  1  0  0  0  0
 23 24  2  0  0  0  0
 23 28  1  0  0  0  0
 24 25  1  0  0  0  0
 25 22  1  0  0  0  0
 25 26  2  0  0  0  0
 27 26  1  0  0  0  0
 27 33  1  0  0  0  0
 28 27  2  0  0  0  0
 29 23  1  0  0  0  0
 30 24  1  0  0  0  0
 31 32  1  0  0  0  0
 32 33  2  0  0  0  0
 32 39  1  0  0  0  0
 33 34  1  0  0  0  0
 34 35  1  0  0  0  0
 34 36  2  0  0  0  0
 36 37  1  0  0  0  0
 38 36  1  0  0  0  0
 39 38  2  0  0  0  0
M  END
>  <minimizedAffinity>
-6.34101057

$$$$

 OpenBabel03242511223D

 39 42  0  0  1  0  0  0  0  0999 V2000
   36.2760   29.3230   38.3520 C   0  0  0  0  0  0  0  0  0  0  0  0
   35.5540   30.0590   38.6860 H   0  0  0  0  0  0  0  0  0  0  0  0
   35.8130   28.7840   37.4810 H   0  0  0  0  0  0  0  0  0  0  0  0
   36.7180   28.3220   39.3090 C   0  0  0  0  0  0  0  0  0  0  0  0
   36.6910   28.5600   40.5760 C   0  0  0  0  0  0  0  0  0  0  0  0
   37.1080   27.5900   41.5150 N   0  0  0  0  0  0  0  0  0  0  0  0
   36.8280   26.8850   42.7460 C   0  0  0  0  0  0  0  0  0  0  0  0
   36.1840   27.1540   43.8030 O   0  0  0  0  0  0  0  0  0  0  0  0
   37.6350   25.7630   42.1530 C   0  0  0  0  0  0  0  0  0  0  0  0
   38.3660   26.8370   41.3700 C   0  0  1  0  0  0  0  0  0  0  0  0
   38.6720   26.5200   39.6350 S   0  0  0  0  0  0  0  0  0  0  0  0
   37.1880   27.0430   38.7200 C   0  0  0  0  0  0  0  0  0  0  0  0
   37.0430   25.0680   41.5270 H   0  0  0  0  0  0  0  0  0  0  0  0
   38.3310   25.2870   42.8730 H   0  0  0  0  0  0  0  0  0  0  0  0
   39.2120   27.2660   41.9640 H   0  0  0  0  0  0  0  0  0  0  0  0
   36.3620   26.2970   38.8740 H   0  0  0  0  0  0  0  0  0  0  0  0
   37.4880   27.1120   37.6760 H   0  0  0  0  0  0  0  0  0  0  0  0
   36.2170   29.8640   41.0640 C   0  0  0  0  0  0  0  0  0  0  0  0
   36.8430   30.5820   41.9070 O   0  0  0  0  0  0  0  0  0  0  0  0
   35.5320   31.0020   41.3140 O   0  0  0  0  0  0  0  0  0  0  0  0
   34.5130   31.1320   41.2920 H   0  0  0  0  0  0  0  0  0  0  0  0
   37.7240   30.2030   37.6400 S   0  0  0  0  0  0  0  0  0  0  0  0
   37.7800   33.6110   39.8290 C   0  0  0  0  0  0  0  0  0  0  0  0
   37.3680   32.6240   38.8900 C   0  0  0  0  0  0  0  0  0  0  0  0
   38.1830   31.4680   38.7910 C   0  0  0  0  0  0  0  0  0  0  0  0
   39.2800   31.3790   39.5800 N   0  0  0  0  0  0  0  0  0  0  0  0
   39.6200   32.3380   40.4460 C   0  0  0  0  0  0  0  0  0  0  0  0
   38.8890   33.4510   40.5820 N   0  0  0  0  0  0  0  0  0  0  0  0
   37.1280   34.4900   39.8800 H   0  0  0  0  0  0  0  0  0  0  0  0
   36.4940   32.7600   38.3020 H   0  0  0  0  0  0  0  0  0  0  0  0
   39.7730   30.5420   42.6270 F   0  0  0  0  0  0  0  0  0  0  0  0
   40.8550   31.2810   42.3200 C   0  0  0  0  0  0  0  0  0  0  0  0
   40.8180   32.1680   41.2620 C   0  0  0  0  0  0  0  0  0  0  0  0
   41.9660   32.8910   41.0090 C   0  0  0  0  0  0  0  0  0  0  0  0
   41.9640   33.6040   40.1720 H   0  0  0  0  0  0  0  0  0  0  0  0
   43.1440   32.8130   41.7090 C   0  0  0  0  0  0  0  0  0  0  0  0
   44.0070   33.4120   41.4540 H   0  0  0  0  0  0  0  0  0  0  0  0
   43.1410   31.9050   42.7710 C   0  0  0  0  0  3  0  0  0  0  0  0
   42.0190   31.1420   43.0840 C   0  0  0  0  0  3  0  0  0  0  0  0
  1  2  1  0  0  0  0
  1  4  1  0  0  0  0
  3  1  1  0  0  0  0
  4  5  2  0  0  0  0
  5 18  1  0  0  0  0
  5  6  1  0  0  0  0
  6  7  1  0  0  0  0
  7  8  2  0  0  0  0
  9  7  1  0  0  0  0
  9 14  1  0  0  0  0
 10  6  1  0  0  0  0
 10 15  1  1  0  0  0
 10  9  1  0  0  0  0
 11 10  1  0  0  0  0
 12 16  1  0  0  0  0
 12  4  1  0  0  0  0
 12 11  1  0  0  0  0
 13  9  1  0  0  0  0
 17 12  1  0  0  0  0
 18 20  1  0  0  0  0
 18 19  2  0  0  0  0
 21 20  1  0  0  0  0
 22  1  1  0  0  0  0
 22 25  1  0  0  0  0
 23 29  1  0  0  0  0
 23 28  1  0  0  0  0
 24 23  2  0  0  0  0
 25 24  1  0  0  0  0
 25 26  2  0  0  0  0
 26 27  1  0  0  0  0
 27 28  2  0  0  0  0
 27 33  1  0  0  0  0
 30 24  1  0  0  0  0
 32 31  1  0  0  0  0
 32 39  1  0  0  0  0
 33 32  2  0  0  0  0
 34 33  1  0  0  0  0
 34 36  2  0  0  0  0
 35 34  1  0  0  0  0
 36 38  1  0  0  0  0
 37 36  1  0  0  0  0
 38 39  2  0  0  0  0
M  END
>  <minimizedAffinity>
-6.21627569

$$$$

 OpenBabel03242511223D

 39 42  0  0  1  0  0  0  0  0999 V2000
   38.7550   31.2160   40.1200 C   0  0  0  0  0  0  0  0  0  0  0  0
   38.0760   31.7460   40.7780 H   0  0  0  0  0  0  0  0  0  0  0  0
   39.4430   31.9850   39.6740 H   0  0  0  0  0  0  0  0  0  0  0  0
   38.1820   30.4480   39.0270 C   0  0  0  0  0  0  0  0  0  0  0  0
   36.9630   30.0280   39.0810 C   0  0  0  0  0  0  0  0  0  0  0  0
   36.3930   29.2890   38.0200 N   0  0  0  0  0  0  0  0  0  0  0  0
   35.2700   29.1040   37.1290 C   0  0  0  0  0  0  0  0  0  0  0  0
   34.0260   29.3360   37.1990 O   0  0  0  0  0  0  0  0  0  0  0  0
   36.2740   28.5410   36.1620 C   0  0  0  0  0  0  0  0  0  0  0  0
   37.0830   28.1530   37.3850 C   0  0  1  0  0  0  0  0  0  0  0  0
   38.8430   28.4760   37.3400 S   0  0  0  0  0  0  0  0  0  0  0  0
   39.0910   30.1960   37.8810 C   0  0  0  0  0  0  0  0  0  0  0  0
   36.7580   29.3050   35.5230 H   0  0  0  0  0  0  0  0  0  0  0  0
   35.9260   27.6280   35.6390 H   0  0  0  0  0  0  0  0  0  0  0  0
   36.7610   27.1580   37.7840 H   0  0  0  0  0  0  0  0  0  0  0  0
   38.7790   30.9020   37.0650 H   0  0  0  0  0  0  0  0  0  0  0  0
   40.1490   30.2870   38.1180 H   0  0  0  0  0  0  0  0  0  0  0  0
   36.1430   30.3190   40.2660 C   0  0  0  0  0  0  0  0  0  0  0  0
   35.4100   29.4620   40.8560 O   0  0  0  0  0  0  0  0  0  0  0  0
   35.5110   30.8840   41.3190 O   0  0  0  0  0  0  0  0  0  0  0  0
   35.2100   31.8630   41.4120 H   0  0  0  0  0  0  0  0  0  0  0  0
   39.8470   30.1480   41.1420 S   0  0  0  0  0  0  0  0  0  0  0  0
   37.4480   28.2060   43.7660 C   0  0  0  0  0  0  0  0  0  0  0  0
   38.2710   29.2150   43.1900 C   0  0  0  0  0  0  0  0  0  0  0  0
   38.8150   28.9320   41.9120 C   0  0  0  0  0  0  0  0  0  0  0  0
   38.5250   27.7430   41.3330 N   0  0  0  0  0  0  0  0  0  0  0  0
   37.7470   26.8300   41.9200 C   0  0  0  0  0  0  0  0  0  0  0  0
   37.2050   27.0430   43.1250 N   0  0  0  0  0  0  0  0  0  0  0  0
   37.0440   28.4570   44.7520 H   0  0  0  0  0  0  0  0  0  0  0  0
   38.4560   30.1260   43.7020 H   0  0  0  0  0  0  0  0  0  0  0  0
   38.8520   24.3530   42.7250 F   0  0  0  0  0  0  0  0  0  0  0  0
   38.0380   24.3820   41.6540 C   0  0  0  0  0  0  0  0  0  0  0  0
   37.4800   25.5720   41.2310 C   0  0  0  0  0  0  0  0  0  0  0  0
   36.6560   25.5210   40.1250 C   0  0  0  0  0  0  0  0  0  0  0  0
   36.1980   26.4550   39.7670 H   0  0  0  0  0  0  0  0  0  0  0  0
   36.3370   24.3980   39.4020 C   0  0  0  0  0  0  0  0  0  0  0  0
   35.6820   24.4330   38.5430 H   0  0  0  0  0  0  0  0  0  0  0  0
   36.9210   23.2150   39.8610 C   0  0  0  0  0  3  0  0  0  0  0  0
   37.7620   23.1910   40.9710 C   0  0  0  0  0  3  0  0  0  0  0  0
  1  2  1  0  0  0  0
  1 22  1  0  0  0  0
  3  1  1  0  0  0  0
  4  5  2  0  0  0  0
  4  1  1  0  0  0  0
  5 18  1  0  0  0  0
  6  5  1  0  0  0  0
  7  8  2  0  0  0  0
  7  6  1  0  0  0  0
  9  7  1  0  0  0  0
  9 10  1  0  0  0  0
 10 15  1  1  0  0  0
 10  6  1  0  0  0  0
 11 10  1  0  0  0  0
 11 12  1  0  0  0  0
 12 17  1  0  0  0  0
 12  4  1  0  0  0  0
 13  9  1  0  0  0  0
 14  9  1  0  0  0  0
 16 12  1  0  0  0  0
 18 19  2  0  0  0  0
 18 20  1  0  0  0  0
 20 21  1  0  0  0  0
 22 25  1  0  0  0  0
 23 29  1  0  0  0  0
 24 30  1  0  0  0  0
 24 23  1  0  0  0  0
 25 24  2  0  0  0  0
 26 25  1  0  0  0  0
 26 27  2  0  0  0  0
 27 28  1  0  0  0  0
 28 23  2  0  0  0  0
 32 31  1  0  0  0  0
 33 32  1  0  0  0  0
 33 27  1  0  0  0  0
 34 33  2  0  0  0  0
 35 34  1  0  0  0  0
 36 38  2  0  0  0  0
 36 34  1  0  0  0  0
 37 36  1  0  0  0  0
 38 39  1  0  0  0  0
 39 32  2  0  0  0  0
M  END
>  <minimizedAffinity>
-6.09263134

$$$$

 OpenBabel03242511223D

 39 42  0  0  1  0  0  0  0  0999 V2000
   36.3610   26.9100   39.3990 C   0  0  0  0  0  0  0  0  0  0  0  0
   35.4660   26.3060   39.4910 H   0  0  0  0  0  0  0  0  0  0  0  0
   36.9920   26.4360   38.5980 H   0  0  0  0  0  0  0  0  0  0  0  0
   37.1940   27.0760   40.5790 C   0  0  0  0  0  0  0  0  0  0  0  0
   37.4800   26.0700   41.3340 C   0  0  0  0  0  0  0  0  0  0  0  0
   38.2960   26.2190   42.4780 N   0  0  0  0  0  0  0  0  0  0  0  0
   39.4150   25.7260   43.2490 C   0  0  0  0  0  0  0  0  0  0  0  0
   39.9540   24.5910   43.4170 O   0  0  0  0  0  0  0  0  0  0  0  0
   39.5830   27.1490   43.7040 C   0  0  0  0  0  0  0  0  0  0  0  0
   38.0920   27.2960   43.4620 C   0  0  1  0  0  0  0  0  0  0  0  0
   37.5410   28.7760   42.6190 S   0  0  0  0  0  0  0  0  0  0  0  0
   37.6700   28.4590   40.8320 C   0  0  0  0  0  0  0  0  0  0  0  0
   40.2140   27.7620   43.0330 H   0  0  0  0  0  0  0  0  0  0  0  0
   39.7970   27.2480   44.7880 H   0  0  0  0  0  0  0  0  0  0  0  0
   37.5030   26.9740   44.3580 H   0  0  0  0  0  0  0  0  0  0  0  0
   38.7480   28.4880   40.5150 H   0  0  0  0  0  0  0  0  0  0  0  0
   37.0800   29.2340   40.3460 H   0  0  0  0  0  0  0  0  0  0  0  0
   36.9500   24.7380   41.0070 C   0  0  0  0  0  0  0  0  0  0  0  0
   37.3240   23.6620   41.5720 O   0  0  0  0  0  0  0  0  0  0  0  0
   36.2840   23.6800   40.4930 O   0  0  0  0  0  0  0  0  0  0  0  0
   35.9270   23.5760   39.5350 H   0  0  0  0  0  0  0  0  0  0  0  0
   35.8940   28.5520   38.7160 S   0  0  0  0  0  0  0  0  0  0  0  0
   33.0470   26.9160   36.3440 C   0  0  0  0  0  0  0  0  0  0  0  0
   34.2330   27.0560   37.1180 C   0  0  0  0  0  0  0  0  0  0  0  0
   34.4360   28.3130   37.7390 C   0  0  0  0  0  0  0  0  0  0  0  0
   33.5080   29.2830   37.5590 N   0  0  0  0  0  0  0  0  0  0  0  0
   32.4110   29.0970   36.8200 C   0  0  0  0  0  0  0  0  0  0  0  0
   32.1660   27.9300   36.2100 N   0  0  0  0  0  0  0  0  0  0  0  0
   32.9210   25.9320   35.8790 H   0  0  0  0  0  0  0  0  0  0  0  0
   34.9190   26.2520   37.2170 H   0  0  0  0  0  0  0  0  0  0  0  0
   30.7210   29.9750   38.9110 F   0  0  0  0  0  0  0  0  0  0  0  0
   30.6470   30.5920   37.7180 C   0  0  0  0  0  0  0  0  0  0  0  0
   31.4560   30.1910   36.6730 C   0  0  0  0  0  0  0  0  0  0  0  0
   31.3240   30.8710   35.4800 C   0  0  0  0  0  0  0  0  0  0  0  0
   31.9570   30.5730   34.6310 H   0  0  0  0  0  0  0  0  0  0  0  0
   30.4630   31.9110   35.2300 C   0  0  0  0  0  0  0  0  0  0  0  0
   30.4120   32.3980   34.2670 H   0  0  0  0  0  0  0  0  0  0  0  0
   29.6620   32.2860   36.3110 C   0  0  0  0  0  3  0  0  0  0  0  0
   29.7420   31.6450   37.5450 C   0  0  0  0  0  3  0  0  0  0  0  0
  1  2  1  0  0  0  0
  1  4  1  0  0  0  0
  3  1  1  0  0  0  0
  4 12  1  0  0  0  0
  4  5  2  0  0  0  0
  5  6  1  0  0  0  0
  6  7  1  0  0  0  0
  6 10  1  0  0  0  0
  7  8  2  0  0  0  0
  7  9  1  0  0  0  0
  9 14  1  0  0  0  0
 10  9  1  0  0  0  0
 10 15  1  1  0  0  0
 11 10  1  0  0  0  0
 12 11  1  0  0  0  0
 13  9  1  0  0  0  0
 16 12  1  0  0  0  0
 17 12  1  0  0  0  0
 18  5  1  0  0  0  0
 18 19  2  0  0  0  0
 20 18  1  0  0  0  0
 21 20  1  0  0  0  0
 22  1  1  0  0  0  0
 23 24  1  0  0  0  0
 24 30  1  0  0  0  0
 24 25  2  0  0  0  0
 25 22  1  0  0  0  0
 26 25  1  0  0  0  0
 27 26  2  0  0  0  0
 28 23  2  0  0  0  0
 28 27  1  0  0  0  0
 29 23  1  0  0  0  0
 32 31  1  0  0  0  0
 33 27  1  0  0  0  0
 33 32  2  0  0  0  0
 34 33  1  0  0  0  0
 35 34  1  0  0  0  0
 36 34  2  0  0  0  0
 36 38  1  0  0  0  0
 37 36  1  0  0  0  0
 38 39  2  0  0  0  0
 39 32  1  0  0  0  0
M  END
>  <minimizedAffinity>
-6.05211353

$$$$

 OpenBabel03242511223D

 39 42  0  0  1  0  0  0  0  0999 V2000
   37.0150   30.2810   38.1140 C   0  0  0  0  0  0  0  0  0  0  0  0
   36.5190   30.9760   37.4470 H   0  0  0  0  0  0  0  0  0  0  0  0
   36.2550   29.9690   38.8810 H   0  0  0  0  0  0  0  0  0  0  0  0
   38.1970   30.7440   38.8220 C   0  0  0  0  0  0  0  0  0  0  0  0
   38.1450   31.0340   40.0770 C   0  0  0  0  0  0  0  0  0  0  0  0
   39.2910   31.4760   40.7770 N   0  0  0  0  0  0  0  0  0  0  0  0
   40.1220   31.3550   41.9530 C   0  0  0  0  0  0  0  0  0  0  0  0
   39.9240   31.0120   43.1570 O   0  0  0  0  0  0  0  0  0  0  0  0
   41.2470   31.8110   41.0660 C   0  0  0  0  0  0  0  0  0  0  0  0
   40.1830   32.5250   40.2540 C   0  0  1  0  0  0  0  0  0  0  0  0
   40.2820   32.3880   38.4720 S   0  0  0  0  0  0  0  0  0  0  0  0
   39.4290   30.8510   38.0000 C   0  0  0  0  0  0  0  0  0  0  0  0
   41.7530   30.9880   40.5260 H   0  0  0  0  0  0  0  0  0  0  0  0
   41.9160   32.5560   41.5420 H   0  0  0  0  0  0  0  0  0  0  0  0
   39.9680   33.5410   40.6740 H   0  0  0  0  0  0  0  0  0  0  0  0
   40.0660   29.9640   38.2640 H   0  0  0  0  0  0  0  0  0  0  0  0
   39.2500   30.9230   36.9290 H   0  0  0  0  0  0  0  0  0  0  0  0
   36.8730   30.9070   40.8040 C   0  0  0  0  0  0  0  0  0  0  0  0
   36.6510   30.0430   41.7110 O   0  0  0  0  0  0  0  0  0  0  0  0
   35.6160   31.0390   41.2830 O   0  0  0  0  0  0  0  0  0  0  0  0
   34.7870   31.3660   40.7710 H   0  0  0  0  0  0  0  0  0  0  0  0
   37.3960   28.7430   37.1810 S   0  0  0  0  0  0  0  0  0  0  0  0
   36.0510   25.3270   38.8950 C   0  0  0  0  0  0  0  0  0  0  0  0
   36.2020   26.3960   37.9660 C   0  0  0  0  0  0  0  0  0  0  0  0
   37.1610   27.3870   38.2950 C   0  0  0  0  0  0  0  0  0  0  0  0
   37.8580   27.2570   39.4490 N   0  0  0  0  0  0  0  0  0  0  0  0
   37.6750   26.2320   40.2850 C   0  0  0  0  0  0  0  0  0  0  0  0
   36.7840   25.2660   40.0270 N   0  0  0  0  0  0  0  0  0  0  0  0
   35.3030   24.5800   38.6090 H   0  0  0  0  0  0  0  0  0  0  0  0
   35.6210   26.4350   37.0790 H   0  0  0  0  0  0  0  0  0  0  0  0
   39.2090   23.9700   41.0170 F   0  0  0  0  0  0  0  0  0  0  0  0
   39.2030   25.0390   41.8340 C   0  0  0  0  0  0  0  0  0  0  0  0
   38.4660   26.1610   41.5100 C   0  0  0  0  0  0  0  0  0  0  0  0
   38.5080   27.2170   42.3970 C   0  0  0  0  0  0  0  0  0  0  0  0
   37.9310   28.1240   42.1630 H   0  0  0  0  0  0  0  0  0  0  0  0
   39.2140   27.2600   43.5730 C   0  0  0  0  0  0  0  0  0  0  0  0
   39.2010   28.1240   44.2220 H   0  0  0  0  0  0  0  0  0  0  0  0
   39.9470   26.1070   43.8650 C   0  0  0  0  0  3  0  0  0  0  0  0
   39.9500   25.0030   43.0160 C   0  0  0  0  0  3  0  0  0  0  0  0
  1  4  1  0  0  0  0
  1  3  1  0  0  0  0
  2  1  1  0  0  0  0
  4  5  2  0  0  0  0
  5  6  1  0  0  0  0
  5 18  1  0  0  0  0
  6  7  1  0  0  0  0
  7  8  2  0  0  0  0
  9 14  1  0  0  0  0
  9  7  1  0  0  0  0
 10 15  1  1  0  0  0
 10  6  1  0  0  0  0
 10  9  1  0  0  0  0
 11 10  1  0  0  0  0
 12 16  1  0  0  0  0
 12 11  1  0  0  0  0
 12  4  1  0  0  0  0
 13  9  1  0  0  0  0
 17 12  1  0  0  0  0
 18 20  1  0  0  0  0
 18 19  2  0  0  0  0
 21 20  1  0  0  0  0
 22  1  1  0  0  0  0
 22 25  1  0  0  0  0
 23 28  1  0  0  0  0
 24 25  1  0  0  0  0
 24 23  2  0  0  0  0
 25 26  2  0  0  0  0
 26 27  1  0  0  0  0
 27 33  1  0  0  0  0
 28 27  2  0  0  0  0
 29 23  1  0  0  0  0
 30 24  1  0  0  0  0
 31 32  1  0  0  0  0
 32 39  1  0  0  0  0
 33 32  2  0  0  0  0
 33 34  1  0  0  0  0
 34 36  2  0  0  0  0
 35 34  1  0  0  0  0
 36 38  1  0  0  0  0
 36 37  1  0  0  0  0
 39 38  2  0  0  0  0
M  END
>  <minimizedAffinity>
-5.98624849

$$$$

 OpenBabel03242511223D

 39 42  0  0  1  0  0  0  0  0999 V2000
   39.1400   32.2460   38.0910 C   0  0  0  0  0  0  0  0  0  0  0  0
   38.6950   32.7440   37.2370 H   0  0  0  0  0  0  0  0  0  0  0  0
   38.4700   32.4500   38.9700 H   0  0  0  0  0  0  0  0  0  0  0  0
   40.4930   32.6210   38.4670 C   0  0  0  0  0  0  0  0  0  0  0  0
   40.7500   33.0780   39.6460 C   0  0  0  0  0  0  0  0  0  0  0  0
   42.0630   33.4360   40.0250 N   0  0  0  0  0  0  0  0  0  0  0  0
   43.1110   33.3510   41.0160 C   0  0  0  0  0  0  0  0  0  0  0  0
   43.1420   33.2020   42.2750 O   0  0  0  0  0  0  0  0  0  0  0  0
   44.0610   33.5170   39.8620 C   0  0  0  0  0  0  0  0  0  0  0  0
   42.9350   34.2660   39.1750 C   0  0  1  0  0  0  0  0  0  0  0  0
   42.6270   33.8820   37.4540 S   0  0  0  0  0  0  0  0  0  0  0  0
   41.5200   32.4380   37.4120 C   0  0  0  0  0  0  0  0  0  0  0  0
   44.3390   32.5650   39.3710 H   0  0  0  0  0  0  0  0  0  0  0  0
   44.8990   34.2120   40.0720 H   0  0  0  0  0  0  0  0  0  0  0  0
   42.9350   35.3480   39.4610 H   0  0  0  0  0  0  0  0  0  0  0  0
   42.0930   31.5090   37.6810 H   0  0  0  0  0  0  0  0  0  0  0  0
   41.1220   32.3930   36.4000 H   0  0  0  0  0  0  0  0  0  0  0  0
   39.6610   33.2350   40.6210 C   0  0  0  0  0  0  0  0  0  0  0  0
   39.3260   32.3480   41.4680 O   0  0  0  0  0  0  0  0  0  0  0  0
   38.6280   33.6710   41.3770 O   0  0  0  0  0  0  0  0  0  0  0  0
   37.8810   34.3180   41.0960 H   0  0  0  0  0  0  0  0  0  0  0  0
   39.0330   30.4300   37.8320 S   0  0  0  0  0  0  0  0  0  0  0  0
   35.9100   30.1820   40.4020 C   0  0  0  0  0  0  0  0  0  0  0  0
   36.8730   30.7270   39.5050 C   0  0  0  0  0  0  0  0  0  0  0  0
   37.8080   29.8150   38.9540 C   0  0  0  0  0  0  0  0  0  0  0  0
   37.7290   28.5110   39.3100 N   0  0  0  0  0  0  0  0  0  0  0  0
   36.8040   28.0540   40.1580 C   0  0  0  0  0  0  0  0  0  0  0  0
   35.8940   28.8680   40.7080 N   0  0  0  0  0  0  0  0  0  0  0  0
   35.2030   30.9140   40.8070 H   0  0  0  0  0  0  0  0  0  0  0  0
   36.8770   31.7620   39.2710 H   0  0  0  0  0  0  0  0  0  0  0  0
   36.0360   26.0380   38.3270 F   0  0  0  0  0  0  0  0  0  0  0  0
   36.4010   25.6780   39.5700 C   0  0  0  0  0  0  0  0  0  0  0  0
   36.7820   26.6330   40.4920 C   0  0  0  0  0  0  0  0  0  0  0  0
   37.1430   26.1870   41.7460 C   0  0  0  0  0  0  0  0  0  0  0  0
   37.4510   26.9270   42.4990 H   0  0  0  0  0  0  0  0  0  0  0  0
   37.1600   24.8810   42.1690 C   0  0  0  0  0  0  0  0  0  0  0  0
   37.4550   24.6030   43.1700 H   0  0  0  0  0  0  0  0  0  0  0  0
   36.7680   23.9440   41.2080 C   0  0  0  0  0  3  0  0  0  0  0  0
   36.3910   24.3230   39.9220 C   0  0  0  0  0  3  0  0  0  0  0  0
  1  4  1  0  0  0  0
  1  3  1  0  0  0  0
  2  1  1  0  0  0  0
  4  5  2  0  0  0  0
  5  6  1  0  0  0  0
  5 18  1  0  0  0  0
  6  7  1  0  0  0  0
  7  8  2  0  0  0  0
  9 14  1  0  0  0  0
  9  7  1  0  0  0  0
 10 15  1  1  0  0  0
 10  9  1  0  0  0  0
 10  6  1  0  0  0  0
 11 10  1  0  0  0  0
 12 11  1  0  0  0  0
 12 16  1  0  0  0  0
 12  4  1  0  0  0  0
 13  9  1  0  0  0  0
 17 12  1  0  0  0  0
 18 20  1  0  0  0  0
 18 19  2  0  0  0  0
 21 20  1  0  0  0  0
 22  1  1  0  0  0  0
 22 25  1  0  0  0  0
 23 28  1  0  0  0  0
 23 29  1  0  0  0  0
 24 23  2  0  0  0  0
 25 26  2  0  0  0  0
 25 24  1  0  0  0  0
 26 27  1  0  0  0  0
 27 33  1  0  0  0  0
 27 28  2  0  0  0  0
 30 24  1  0  0  0  0
 31 32  1  0  0  0  0
 32 39  2  0  0  0  0
 32 33  1  0  0  0  0
 33 34  2  0  0  0  0
 34 36  1  0  0  0  0
 34 35  1  0  0  0  0
 36 37  1  0  0  0  0
 38 36  2  0  0  0  0
 39 38  1  0  0  0  0
M  END
>  <minimizedAffinity>
-5.94883347

$$$$

 OpenBabel03242511223D

 39 42  0  0  1  0  0  0  0  0999 V2000
   37.7060   28.9130   43.1070 C   0  0  0  0  0  0  0  0  0  0  0  0
   36.6630   29.0160   42.8300 H   0  0  0  0  0  0  0  0  0  0  0  0
   37.7890   29.2300   44.1820 H   0  0  0  0  0  0  0  0  0  0  0  0
   38.6890   29.6650   42.3450 C   0  0  0  0  0  0  0  0  0  0  0  0
   38.3210   30.5510   41.4820 C   0  0  0  0  0  0  0  0  0  0  0  0
   39.2690   31.2950   40.7440 N   0  0  0  0  0  0  0  0  0  0  0  0
   39.7000   32.5900   40.2690 C   0  0  0  0  0  0  0  0  0  0  0  0
   39.1140   33.6780   39.9860 O   0  0  0  0  0  0  0  0  0  0  0  0
   41.0870   32.0110   40.2890 C   0  0  0  0  0  0  0  0  0  0  0  0
   40.4190   30.6660   40.0710 C   0  0  1  0  0  0  0  0  0  0  0  0
   41.0060   29.2910   41.0550 S   0  0  0  0  0  0  0  0  0  0  0  0
   40.1070   29.3370   42.6370 C   0  0  0  0  0  0  0  0  0  0  0  0
   41.6000   32.1090   41.2650 H   0  0  0  0  0  0  0  0  0  0  0  0
   41.6930   32.2760   39.3990 H   0  0  0  0  0  0  0  0  0  0  0  0
   40.2460   30.4720   38.9820 H   0  0  0  0  0  0  0  0  0  0  0  0
   40.5030   30.1710   43.2780 H   0  0  0  0  0  0  0  0  0  0  0  0
   40.2570   28.3620   43.0960 H   0  0  0  0  0  0  0  0  0  0  0  0
   36.8900   30.7980   41.2540 C   0  0  0  0  0  0  0  0  0  0  0  0
   36.4030   31.2230   40.1590 O   0  0  0  0  0  0  0  0  0  0  0  0
   35.5480   30.9260   41.3530 O   0  0  0  0  0  0  0  0  0  0  0  0
   35.0050   31.1530   42.1960 H   0  0  0  0  0  0  0  0  0  0  0  0
   38.1380   27.1270   43.1110 S   0  0  0  0  0  0  0  0  0  0  0  0
   36.5280   24.4960   40.4850 C   0  0  0  0  0  0  0  0  0  0  0  0
   37.1150   25.0230   41.6700 C   0  0  0  0  0  0  0  0  0  0  0  0
   37.4050   26.4100   41.6670 C   0  0  0  0  0  0  0  0  0  0  0  0
   37.1120   27.1310   40.5590 N   0  0  0  0  0  0  0  0  0  0  0  0
   36.5610   26.5840   39.4720 C   0  0  0  0  0  0  0  0  0  0  0  0
   36.2650   25.2800   39.4180 N   0  0  0  0  0  0  0  0  0  0  0  0
   36.3160   23.4220   40.5220 H   0  0  0  0  0  0  0  0  0  0  0  0
   37.3180   24.3970   42.5030 H   0  0  0  0  0  0  0  0  0  0  0  0
   34.5490   28.5740   39.4620 F   0  0  0  0  0  0  0  0  0  0  0  0
   35.2840   28.3900   38.3500 C   0  0  0  0  0  0  0  0  0  0  0  0
   36.2740   27.4290   38.3170 C   0  0  0  0  0  0  0  0  0  0  0  0
   36.9840   27.2980   37.1410 C   0  0  0  0  0  0  0  0  0  0  0  0
   37.7790   26.5410   37.0880 H   0  0  0  0  0  0  0  0  0  0  0  0
   36.8000   28.0350   35.9970 C   0  0  0  0  0  0  0  0  0  0  0  0
   37.3950   27.8780   35.1090 H   0  0  0  0  0  0  0  0  0  0  0  0
   35.7900   28.9970   36.0700 C   0  0  0  0  0  3  0  0  0  0  0  0
   35.0330   29.1830   37.2240 C   0  0  0  0  0  3  0  0  0  0  0  0
  1 22  1  0  0  0  0
  1  3  1  0  0  0  0
  2  1  1  0  0  0  0
  4 12  1  0  0  0  0
  4  1  1  0  0  0  0
  5  4  2  0  0  0  0
  6  5  1  0  0  0  0
  7  9  1  0  0  0  0
  7  6  1  0  0  0  0
  8  7  2  0  0  0  0
  9 13  1  0  0  0  0
 10 15  1  6  0  0  0
 10  9  1  0  0  0  0
 10  6  1  0  0  0  0
 10 11  1  0  0  0  0
 11 12  1  0  0  0  0
 12 17  1  0  0  0  0
 12 16  1  0  0  0  0
 14  9  1  0  0  0  0
 18 20  1  0  0  0  0
 18  5  1  0  0  0  0
 19 18  2  0  0  0  0
 20 21  1  0  0  0  0
 23 29  1  0  0  0  0
 23 24  1  0  0  0  0
 24 30  1  0  0  0  0
 25 24  2  0  0  0  0
 25 22  1  0  0  0  0
 26 25  1  0  0  0  0
 27 26  2  0  0  0  0
 28 27  1  0  0  0  0
 28 23  2  0  0  0  0
 32 31  1  0  0  0  0
 33 32  1  0  0  0  0
 33 27  1  0  0  0  0
 34 33  2  0  0  0  0
 35 34  1  0  0  0  0
 36 38  2  0  0  0  0
 36 34  1  0  0  0  0
 37 36  1  0  0  0  0
 38 39  1  0  0  0  0
 39 32  2  0  0  0  0
M  END
>  <minimizedAffinity>
-5.9296937

$$$$

 OpenBabel03242511223D

 39 42  0  0  1  0  0  0  0  0999 V2000
   38.5510   31.3300   38.0130 C   0  0  0  0  0  0  0  0  0  0  0  0
   38.2880   32.2210   38.5730 H   0  0  0  0  0  0  0  0  0  0  0  0
   38.8190   31.6670   36.9750 H   0  0  0  0  0  0  0  0  0  0  0  0
   37.5510   30.2820   37.8950 C   0  0  0  0  0  0  0  0  0  0  0  0
   36.5820   30.1940   38.7410 C   0  0  0  0  0  0  0  0  0  0  0  0
   35.5990   29.1840   38.6300 N   0  0  0  0  0  0  0  0  0  0  0  0
   34.1940   28.8450   38.6380 C   0  0  0  0  0  0  0  0  0  0  0  0
   33.1600   29.3320   39.1850 O   0  0  0  0  0  0  0  0  0  0  0  0
   34.5790   27.7090   37.7320 C   0  0  0  0  0  0  0  0  0  0  0  0
   35.9390   27.7690   38.4010 C   0  0  1  0  0  0  0  0  0  0  0  0
   37.3790   27.6670   37.3430 S   0  0  0  0  0  0  0  0  0  0  0  0
   37.7370   29.3520   36.7540 C   0  0  0  0  0  0  0  0  0  0  0  0
   34.5900   27.9770   36.6580 H   0  0  0  0  0  0  0  0  0  0  0  0
   34.0810   26.7510   37.9830 H   0  0  0  0  0  0  0  0  0  0  0  0
   35.9550   27.1580   39.3400 H   0  0  0  0  0  0  0  0  0  0  0  0
   36.9860   29.6510   35.9720 H   0  0  0  0  0  0  0  0  0  0  0  0
   38.7500   29.3220   36.3570 H   0  0  0  0  0  0  0  0  0  0  0  0
   36.4890   31.1570   39.8480 C   0  0  0  0  0  0  0  0  0  0  0  0
   36.1490   30.8520   41.0350 O   0  0  0  0  0  0  0  0  0  0  0  0
   36.4950   32.2550   40.6370 O   0  0  0  0  0  0  0  0  0  0  0  0
   36.3000   33.2240   40.3560 H   0  0  0  0  0  0  0  0  0  0  0  0
   40.1120   30.6450   38.7000 S   0  0  0  0  0  0  0  0  0  0  0  0
   39.5510   30.3740   42.7030 C   0  0  0  0  0  0  0  0  0  0  0  0
   39.8580   30.9160   41.4220 C   0  0  0  0  0  0  0  0  0  0  0  0
   39.7430   30.0320   40.3200 C   0  0  0  0  0  0  0  0  0  0  0  0
   39.3570   28.7550   40.5510 N   0  0  0  0  0  0  0  0  0  0  0  0
   39.0810   28.2990   41.7760 C   0  0  0  0  0  0  0  0  0  0  0  0
   39.1720   29.0880   42.8540 N   0  0  0  0  0  0  0  0  0  0  0  0
   39.6500   31.0840   43.5320 H   0  0  0  0  0  0  0  0  0  0  0  0
   40.1550   31.9290   41.3150 H   0  0  0  0  0  0  0  0  0  0  0  0
   36.3830   27.4540   41.6830 F   0  0  0  0  0  0  0  0  0  0  0  0
   37.3420   26.5340   41.8910 C   0  0  0  0  0  0  0  0  0  0  0  0
   38.6700   26.9080   41.9430 C   0  0  0  0  0  0  0  0  0  0  0  0
   39.5970   25.9090   42.1610 C   0  0  0  0  0  0  0  0  0  0  0  0
   40.6620   26.1800   42.2060 H   0  0  0  0  0  0  0  0  0  0  0  0
   39.3250   24.5750   42.3320 C   0  0  0  0  0  0  0  0  0  0  0  0
   40.1030   23.8450   42.4990 H   0  0  0  0  0  0  0  0  0  0  0  0
   37.9700   24.2360   42.2730 C   0  0  0  0  0  3  0  0  0  0  0  0
   36.9810   25.1920   42.0560 C   0  0  0  0  0  3  0  0  0  0  0  0
  1  2  1  0  0  0  0
  1 22  1  0  0  0  0
  3  1  1  0  0  0  0
  4  1  1  0  0  0  0
  4  5  2  0  0  0  0
  5 18  1  0  0  0  0
  6  7  1  0  0  0  0
  6  5  1  0  0  0  0
  7  8  2  0  0  0  0
  9 14  1  0  0  0  0
  9 10  1  0  0  0  0
  9  7  1  0  0  0  0
 10  6  1  0  0  0  0
 10 15  1  1  0  0  0
 11 10  1  0  0  0  0
 12 11  1  0  0  0  0
 12  4  1  0  0  0  0
 13  9  1  0  0  0  0
 16 12  1  0  0  0  0
 17 12  1  0  0  0  0
 18 20  1  0  0  0  0
 18 19  2  0  0  0  0
 21 20  1  0  0  0  0
 22 25  1  0  0  0  0
 23 28  1  0  0  0  0
 23 29  1  0  0  0  0
 24 23  2  0  0  0  0
 25 26  2  0  0  0  0
 25 24  1  0  0  0  0
 26 27  1  0  0  0  0
 27 33  1  0  0  0  0
 27 28  2  0  0  0  0
 30 24  1  0  0  0  0
 31 32  1  0  0  0  0
 32 33  2  0  0  0  0
 32 39  1  0  0  0  0
 33 34  1  0  0  0  0
 34 35  1  0  0  0  0
 34 36  2  0  0  0  0
 36 37  1  0  0  0  0
 38 36  1  0  0  0  0
 39 38  2  0  0  0  0
M  END
>  <minimizedAffinity>
-5.86567211

$$$$

 OpenBabel03242511223D

 39 42  0  0  1  0  0  0  0  0999 V2000
   36.6360   30.2520   37.7540 C   0  0  0  0  0  0  0  0  0  0  0  0
   36.8540   30.8280   36.8620 H   0  0  0  0  0  0  0  0  0  0  0  0
   35.6000   30.5410   38.0820 H   0  0  0  0  0  0  0  0  0  0  0  0
   37.5220   30.4050   38.8960 C   0  0  0  0  0  0  0  0  0  0  0  0
   37.1080   30.1630   40.0930 C   0  0  0  0  0  0  0  0  0  0  0  0
   37.9640   30.2980   41.2080 N   0  0  0  0  0  0  0  0  0  0  0  0
   38.4680   29.7230   42.4350 C   0  0  0  0  0  0  0  0  0  0  0  0
   38.0080   28.9210   43.3020 O   0  0  0  0  0  0  0  0  0  0  0  0
   39.7170   30.5130   42.1590 C   0  0  0  0  0  0  0  0  0  0  0  0
   38.8190   31.4810   41.4110 C   0  0  1  0  0  0  0  0  0  0  0  0
   39.3970   32.0760   39.8250 S   0  0  0  0  0  0  0  0  0  0  0  0
   38.9010   30.8500   38.5750 C   0  0  0  0  0  0  0  0  0  0  0  0
   40.4490   29.9850   41.5170 H   0  0  0  0  0  0  0  0  0  0  0  0
   40.1370   31.0110   43.0560 H   0  0  0  0  0  0  0  0  0  0  0  0
   38.3740   32.2380   42.1050 H   0  0  0  0  0  0  0  0  0  0  0  0
   39.5570   29.9400   38.6510 H   0  0  0  0  0  0  0  0  0  0  0  0
   39.0010   31.3460   37.6110 H   0  0  0  0  0  0  0  0  0  0  0  0
   35.7170   29.7370   40.3110 C   0  0  0  0  0  0  0  0  0  0  0  0
   35.3810   28.7190   40.9950 O   0  0  0  0  0  0  0  0  0  0  0  0
   34.3720   29.6040   40.3290 O   0  0  0  0  0  0  0  0  0  0  0  0
   33.7100   29.8810   39.5930 H   0  0  0  0  0  0  0  0  0  0  0  0
   36.5010   28.4790   37.2880 S   0  0  0  0  0  0  0  0  0  0  0  0
   33.0380   26.6640   36.2280 C   0  0  0  0  0  0  0  0  0  0  0  0
   34.4110   26.8540   36.5530 C   0  0  0  0  0  0  0  0  0  0  0  0
   34.8060   28.1770   36.8740 C   0  0  0  0  0  0  0  0  0  0  0  0
   33.8710   29.1560   36.8500 N   0  0  0  0  0  0  0  0  0  0  0  0
   32.5940   28.9220   36.5360 C   0  0  0  0  0  0  0  0  0  0  0  0
   32.1630   27.6930   36.2250 N   0  0  0  0  0  0  0  0  0  0  0  0
   32.7670   25.6310   35.9860 H   0  0  0  0  0  0  0  0  0  0  0  0
   35.0900   26.0380   36.5520 H   0  0  0  0  0  0  0  0  0  0  0  0
   31.2150   29.7950   38.8470 F   0  0  0  0  0  0  0  0  0  0  0  0
   30.9910   30.4280   37.6810 C   0  0  0  0  0  0  0  0  0  0  0  0
   31.6450   30.0310   36.5320 C   0  0  0  0  0  0  0  0  0  0  0  0
   31.3640   30.7290   35.3760 C   0  0  0  0  0  0  0  0  0  0  0  0
   31.8720   30.4330   34.4460 H   0  0  0  0  0  0  0  0  0  0  0  0
   30.4930   31.7830   35.2570 C   0  0  0  0  0  0  0  0  0  0  0  0
   30.3210   32.2850   34.3150 H   0  0  0  0  0  0  0  0  0  0  0  0
   29.8510   32.1550   36.4410 C   0  0  0  0  0  3  0  0  0  0  0  0
   30.0870   31.4960   37.6440 C   0  0  0  0  0  3  0  0  0  0  0  0
  1  3  1  0  0  0  0
  1  4  1  0  0  0  0
  2  1  1  0  0  0  0
  4  5  2  0  0  0  0
  5 18  1  0  0  0  0
  5  6  1  0  0  0  0
  6 10  1  0  0  0  0
  6  7  1  0  0  0  0
  7  8  2  0  0  0  0
  9  7  1  0  0  0  0
  9 14  1  0  0  0  0
 10 15  1  1  0  0  0
 10  9  1  0  0  0  0
 11 10  1  0  0  0  0
 12 16  1  0  0  0  0
 12  4  1  0  0  0  0
 12 11  1  0  0  0  0
 13  9  1  0  0  0  0
 17 12  1  0  0  0  0
 18 20  1  0  0  0  0
 18 19  2  0  0  0  0
 21 20  1  0  0  0  0
 22  1  1  0  0  0  0
 23 24  1  0  0  0  0
 24 25  2  0  0  0  0
 25 22  1  0  0  0  0
 26 25  1  0  0  0  0
 27 26  2  0  0  0  0
 28 23  2  0  0  0  0
 28 27  1  0  0  0  0
 29 23  1  0  0  0  0
 30 24  1  0  0  0  0
 32 31  1  0  0  0  0
 33 27  1  0  0  0  0
 33 32  2  0  0  0  0
 34 33  1  0  0  0  0
 35 34  1  0  0  0  0
 36 34  2  0  0  0  0
 36 38  1  0  0  0  0
 37 36  1  0  0  0  0
 38 39  2  0  0  0  0
 39 32  1  0  0  0  0
M  END
>  <minimizedAffinity>
-5.85376024

$$$$
