
 OpenBabel03252503563D

 20 21  0  0  0  0  0  0  0  0999 V2000
   46.2590   34.7990   43.1950 C   0  0  0  0  0  0  0  0  0  0  0  0
   45.2880   35.7970   43.2930 C   0  0  0  0  0  0  0  0  0  0  0  0
   44.5490   35.8430   44.4810 C   0  0  0  0  0  0  0  0  0  0  0  0
   44.8180   34.9250   45.4570 N   0  0  0  0  0  0  0  0  0  0  0  0
   45.7660   33.9890   45.3000 C   0  0  0  0  0  0  0  0  0  0  0  0
   46.4970   33.9070   44.1820 N   0  0  0  0  0  0  0  0  0  0  0  0
   45.1070   36.5050   42.4960 H   0  0  0  0  0  0  0  0  0  0  0  0
   43.7790   36.5870   44.6310 H   0  0  0  0  0  0  0  0  0  0  0  0
   44.2970   34.0240   47.6100 F   0  0  0  0  0  0  0  0  0  0  0  0
   45.2410   33.0830   47.5390 C   0  0  0  0  0  0  0  0  0  0  0  0
   46.0040   33.0370   46.3830 C   0  0  0  0  0  0  0  0  0  0  0  0
   47.0030   32.0840   46.2430 C   0  0  0  0  0  0  0  0  0  0  0  0
   47.5930   32.0670   45.3190 H   0  0  0  0  0  0  0  0  0  0  0  0
   47.2970   31.1550   47.1990 C   0  0  0  0  0  0  0  0  0  0  0  0
   48.0630   30.4170   47.1030 H   0  0  0  0  0  0  0  0  0  0  0  0
   46.5430   31.1960   48.3480 C   0  0  0  0  0  0  0  0  0  0  0  0
   45.5530   32.1360   48.4930 C   0  0  0  0  0  0  0  0  0  0  0  0
   46.9950   34.7850   41.9610 C   0  0  0  0  0  0  0  0  0  0  0  0
   48.0720   35.3840   41.7160 O   0  0  0  0  0  0  0  0  0  0  0  0
   46.7980   34.2790   41.0060 H   0  0  0  0  0  0  0  0  0  0  0  0
  1  2  2  0  0  0  0
  1  6  1  0  0  0  0
  2  3  1  0  0  0  0
  3  8  1  0  0  0  0
  3  4  2  0  0  0  0
  5  4  1  0  0  0  0
  5 11  1  0  0  0  0
  6  5  2  0  0  0  0
  7  2  1  0  0  0  0
 10  9  1  0  0  0  0
 10 17  1  0  0  0  0
 11 10  2  0  0  0  0
 12 11  1  0  0  0  0
 12 14  2  0  0  0  0
 13 12  1  0  0  0  0
 14 16  1  0  0  0  0
 15 14  1  0  0  0  0
 16 17  2  0  0  0  0
 18  1  1  0  0  0  0
 19 18  2  0  0  0  0
 20 18  1  0  0  0  0
M  END
>  <minimizedAffinity>
-5.1960845

>  <minimizedRMSD>
0.538620472

$$$$
