
     RDKit          3D

 43 46  0  0  0  0  0  0  0  0999 V2000
   45.1227   33.9358   40.7044 C   0  0  0  0  0  0  0  0  0  0  0  0
   44.0805   33.6327   39.8804 C   0  0  0  0  0  0  0  0  0  0  0  0
   44.3810   33.1569   38.6314 C   0  0  0  0  0  0  0  0  0  0  0  0
   45.6674   32.9698   38.1670 C   0  0  0  0  0  0  0  0  0  0  0  0
   46.6946   33.2849   39.0224 C   0  0  0  0  0  0  0  0  0  0  0  0
   46.4413   33.7677   40.2912 C   0  0  0  0  0  0  0  0  0  0  0  0
   40.8022   35.2609   40.7923 C   0  0  0  0  0  0  0  0  0  0  0  0
   42.0991   35.0875   40.2792 C   0  0  0  0  0  0  0  0  0  0  0  0
   42.7440   33.8404   40.3998 C   0  0  0  0  0  0  0  0  0  0  0  0
   42.0285   32.8862   41.0227 N   0  0  0  0  0  0  0  0  0  0  0  0
   40.8041   33.0613   41.5035 C   0  0  0  0  0  0  0  0  0  0  0  0
   40.1881   34.2432   41.3913 N   0  0  0  0  0  0  0  0  0  0  0  0
   40.2026   36.5391   40.6408 N   0  0  0  0  0  0  0  0  0  0  0  0
   47.5938   34.0723   41.1137 C   0  0  0  0  0  0  0  0  0  0  0  0
   48.1350   35.3276   40.9429 C   0  0  0  0  0  0  0  0  0  0  0  0
   49.2436   35.8010   41.6437 C   0  0  0  0  0  0  0  0  0  0  0  0
   49.8258   34.9475   42.5633 C   0  0  0  0  0  0  0  0  0  0  0  0
   49.3046   33.6821   42.7560 C   0  0  0  0  0  0  0  0  0  0  0  0
   48.2031   33.2628   42.0343 C   0  0  0  0  0  0  0  0  0  0  0  0
   44.7154   34.8531   43.1113 N   0  0  0  0  0  0  0  0  0  0  0  0
   44.9076   34.4443   42.0336 C   0  0  0  0  0  0  0  0  0  0  0  0
   43.5601   32.9129   37.9671 H   0  0  0  0  0  0  0  0  0  0  0  0
   45.8836   32.5916   37.1746 H   0  0  0  0  0  0  0  0  0  0  0  0
   47.7099   33.1367   38.6553 H   0  0  0  0  0  0  0  0  0  0  0  0
   42.6278   35.8993   39.7843 H   0  0  0  0  0  0  0  0  0  0  0  0
   40.3198   32.2111   41.9911 H   0  0  0  0  0  0  0  0  0  0  0  0
   39.7784   36.9324   39.7718 H   0  0  0  0  0  0  0  0  0  0  0  0
   40.0694   37.3089   41.3303 H   0  0  0  0  0  0  0  0  0  0  0  0
   47.7269   36.0482   40.2363 H   0  0  0  0  0  0  0  0  0  0  0  0
   49.6666   36.7773   41.5127 H   0  0  0  0  0  0  0  0  0  0  0  0
   50.6893   35.1891   43.1728 H   0  0  0  0  0  0  0  0  0  0  0  0
   49.7010   32.9571   43.4545 H   0  0  0  0  0  0  0  0  0  0  0  0
   50.0015   31.2414   42.3046 F   0  0  0  0  0  0  0  0  0  0  0  0
   48.6527   30.9781   42.3516 C   0  0  0  0  0  0  0  0  0  0  0  0
   47.6364   31.9331   42.2258 C   0  0  0  0  0  0  0  0  0  0  0  0
   46.3200   31.5044   42.2954 C   0  0  0  0  0  0  0  0  0  0  0  0
   45.6373   32.3117   42.1854 H   0  0  0  0  0  0  0  0  0  0  0  0
   46.0630   30.1677   42.4843 C   0  0  0  0  0  0  0  0  0  0  0  0
   45.0021   29.9258   42.5264 H   0  0  0  0  0  0  0  0  0  0  0  0
   47.0696   29.2336   42.6072 C   0  0  0  0  0  0  0  0  0  0  0  0
   48.4043   29.6439   42.5398 C   0  0  0  0  0  0  0  0  0  0  0  0
   46.8206   28.1941   42.7549 H   0  0  0  0  0  0  0  0  0  0  0  0
   49.1519   28.8709   42.6418 H   0  0  0  0  0  0  0  0  0  0  0  0
  1 21  1  0
  2  9  1  0
  2  1  2  0
  3  2  1  0
  4  3  2  0
  4  5  1  0
  5  6  2  0
  6  1  1  0
  6 14  1  0
  7 12  2  0
  8  9  2  0
  8  7  1  0
  9 10  1  0
 10 11  2  0
 12 11  1  0
 13  7  1  0
 14 19  1  0
 15 14  2  0
 15 16  1  0
 16 17  2  0
 17 18  1  0
 19 18  2  0
 21 20  3  0
  3 22  1  0
  4 23  1  0
  5 24  1  0
  8 25  1  0
 11 26  1  0
 13 27  1  0
 13 28  1  0
 15 29  1  0
 16 30  1  0
 17 31  1  0
 18 32  1  0
 33 34  1  0
 34 35  2  0
 35 36  1  0
 36 37  1  0
 36 38  2  0
 38 39  1  0
 38 40  1  0
 40 41  2  0
 41 34  1  0
 40 42  1  0
 41 43  1  0
 19 35  1  0
M  ISO  8  22  14  23  14  24  14  25  14  26  14  29  14  30  14  31  14
M  ISO  3  32  14  37  15  39  16
M  END
>  <DihAtoms>  (1) 
13,18,34,33

>  <DihDeg>  (1) 
-116.25149999995821

$$$$
