REMARK  Name = 
REMARK  3 active torsions:
REMARK  status: ('A' for Active; 'I' for Inactive)
REMARK    1  A    between atoms: C_1  and  C_18
REMARK    2  A    between atoms: C_3  and  C_4
REMARK    3  A    between atoms: C_16  and  C_35
REMARK                            x       y       z     vdW  Elec       q    Type
REMARK                         _______ _______ _______ _____ _____    ______ ____
ROOT
ATOM      1  C   UNL     1      46.383  32.669  45.868  0.00  0.00    +0.000 C 
ATOM      2  C   UNL     1      46.970  32.835  47.205  0.00  0.00    +0.000 C 
ATOM      3  C   UNL     1      45.541  32.208  46.956  0.00  0.00    +0.000 C 
ATOM      4  H   UNL     1      47.140  32.028  45.290  0.00  0.00    +0.000 HD
ATOM      5  H   UNL     1      47.612  32.093  47.700  0.00  0.00    +0.000 HD
ATOM      6  H   UNL     1      47.015  33.831  47.674  0.00  0.00    +0.000 HD
ATOM      7  H   UNL     1      44.900  32.888  47.588  0.00  0.00    +0.000 HD
ENDROOT
BRANCH   3   8
ATOM      8  C   UNL     1      45.302  30.803  47.300  0.00  0.00    +0.000 A 
ATOM      9  C   UNL     1      45.177  30.267  48.546  0.00  0.00    +0.000 A 
ATOM     10  C   UNL     1      45.076  28.914  48.839  0.00  0.00    +0.000 A 
ATOM     11  C   UNL     1      45.108  28.033  47.748  0.00  0.00    +0.000 A 
ATOM     12  C   UNL     1      45.233  28.558  46.460  0.00  0.00    +0.000 A 
ATOM     13  C   UNL     1      45.196  27.653  45.415  0.00  0.00    +0.000 A 
ATOM     14  C   UNL     1      45.244  28.136  44.111  0.00  0.00    +0.000 A 
ATOM     15  C   UNL     1      45.325  29.491  43.861  0.00  0.00    +0.000 A 
ATOM     16  C   UNL     1      45.361  30.340  44.942  0.00  0.00    +0.000 A 
ATOM     17  C   UNL     1      45.324  29.911  46.257  0.00  0.00    +0.000 A 
ATOM     18  H   UNL     1      45.157  30.987  49.361  0.00  0.00    +0.000 HD
ATOM     19  H   UNL     1      44.977  28.556  49.855  0.00  0.00    +0.000 HD
ATOM     20  H   UNL     1      45.035  26.968  47.931  0.00  0.00    +0.000 HD
ATOM     21  H   UNL     1      45.129  26.588  45.638  0.00  0.00    +0.000 HD
ATOM     22  H   UNL     1      45.211  27.329  43.361  0.00  0.00    +0.000 HD
ATOM     23  H   UNL     1      45.348  29.659  42.805  0.00  0.00    +0.000 HD
ATOM     24  H   UNL     1      45.337  31.298  44.506  0.00  0.00    +0.000 HD
ENDBRANCH   3   8
BRANCH   1  29
ATOM     25  C   UNL     1      44.603  35.731  44.825  0.00  0.00    +0.000 A 
ATOM     26  C   UNL     1      45.148  35.968  43.516  0.00  0.00    +0.000 A 
ATOM     27  C   UNL     1      46.127  35.062  43.042  0.00  0.00    +0.000 A 
ATOM     28  N   UNL     1      46.515  34.024  43.814  0.00  0.00    +0.000 NA
ATOM     29  C   UNL     1      45.953  33.850  45.063  0.00  0.00    +0.000 A 
ATOM     30  N   UNL     1      45.031  34.675  45.549  0.00  0.00    +0.000 NA
ATOM     31  H   UNL     1      43.859  36.445  45.148  0.00  0.00    +0.000 HD
ATOM     32  H   UNL     1      44.806  36.798  42.957  0.00  0.00    +0.000 HD
BRANCH  27  35
ATOM     33  F   UNL     1      44.989  33.904  40.843  0.00  0.00    +0.000 F 
ATOM     34  C   UNL     1      46.121  34.656  40.631  0.00  0.00    +0.000 A 
ATOM     35  C   UNL     1      46.714  35.251  41.724  0.00  0.00    +0.000 A 
ATOM     36  C   UNL     1      47.825  35.979  41.452  0.00  0.00    +0.000 A 
ATOM     37  H   UNL     1      48.344  36.474  42.258  0.00  0.00    +0.000 HD
ATOM     38  C   UNL     1      48.346  36.127  40.169  0.00  0.00    +0.000 A 
ATOM     39  H   UNL     1      49.247  36.732  40.036  0.00  0.00    +0.000 HD
ATOM     40  C   UNL     1      47.706  35.507  39.115  0.00  0.00    +0.000 A 
ATOM     41  C   UNL     1      46.579  34.760  39.335  0.00  0.00    +0.000 A 
ENDBRANCH  27  35
ENDBRANCH   1  29
TORSDOF 3
