
 OpenBabel03242523043D

 32 34  0  0  0  0  0  0  0  0999 V2000
   38.4130   29.6050   42.7350 C   0  0  0  0  0  0  0  0  0  0  0  0
   37.7010   29.6670   41.5150 C   0  0  0  0  0  0  0  0  0  0  0  0
   36.6870   28.7550   41.3220 C   0  0  0  0  0  0  0  0  0  0  0  0
   36.3610   27.8260   42.2550 N   0  0  0  0  0  0  0  0  0  0  0  0
   37.0800   27.7960   43.4330 C   0  0  0  0  0  0  0  0  0  0  0  0
   38.0870   28.6760   43.6590 N   0  0  0  0  0  0  0  0  0  0  0  0
   39.2190   30.2730   42.9730 H   0  0  0  0  0  0  0  0  0  0  0  0
   36.9400   27.1170   44.2620 H   0  0  0  0  0  0  0  0  0  0  0  0
   38.0600   30.6840   40.6310 N   0  0  0  0  0  0  0  0  0  0  0  0
   39.1710   30.5230   39.7810 C   0  0  0  0  0  0  0  0  0  0  0  0
   39.5460   31.7740   39.0730 C   0  0  0  0  0  0  0  0  0  0  0  0
   38.4900   32.5190   38.5240 N   0  0  0  0  0  0  0  0  0  0  0  0
   37.2190   32.3980   39.1150 C   0  0  0  0  0  0  0  0  0  0  0  0
   37.3510   31.9520   40.5320 C   0  0  0  0  0  0  0  0  0  0  0  0
   39.0790   29.7660   38.9810 H   0  0  0  0  0  0  0  0  0  0  0  0
   40.0810   30.2500   40.4210 H   0  0  0  0  0  0  0  0  0  0  0  0
   40.2860   31.5190   38.2750 H   0  0  0  0  0  0  0  0  0  0  0  0
   40.1580   32.3830   39.8220 H   0  0  0  0  0  0  0  0  0  0  0  0
   38.7640   33.5360   38.5540 H   0  0  0  0  0  0  0  0  0  0  0  0
   36.6000   31.6520   38.5220 H   0  0  0  0  0  0  0  0  0  0  0  0
   36.5820   33.3180   39.1150 H   0  0  0  0  0  0  0  0  0  0  0  0
   36.2960   31.8860   40.9140 H   0  0  0  0  0  0  0  0  0  0  0  0
   37.9180   32.7040   41.1080 H   0  0  0  0  0  0  0  0  0  0  0  0
   37.3750   27.0000   39.4200 F   0  0  0  0  0  0  0  0  0  0  0  0
   36.2050   27.7170   39.2550 C   0  0  0  0  0  0  0  0  0  0  0  0
   35.7660   28.6220   40.2450 C   0  0  0  0  0  0  0  0  0  0  0  0
   34.5540   29.2220   39.8520 C   0  0  0  0  0  0  0  0  0  0  0  0
   34.2360   29.9280   40.6110 H   0  0  0  0  0  0  0  0  0  0  0  0
   33.9220   28.9380   38.6610 C   0  0  0  0  0  0  0  0  0  0  0  0
   32.9910   29.5150   38.5570 H   0  0  0  0  0  0  0  0  0  0  0  0
   34.4240   28.0420   37.7570 C   0  0  0  0  0  3  0  0  0  0  0  0
   35.6130   27.3980   38.0520 C   0  0  0  0  0  3  0  0  0  0  0  0
  1  7  1  0  0  0  0
  1  6  1  0  0  0  0
  2  1  2  0  0  0  0
  3  2  1  0  0  0  0
  3  4  2  0  0  0  0
  4  5  1  0  0  0  0
  5  6  2  0  0  0  0
  5  8  1  0  0  0  0
  9  2  1  0  0  0  0
 10 16  1  0  0  0  0
 10  9  1  0  0  0  0
 11 10  1  0  0  0  0
 11 18  1  0  0  0  0
 12 19  1  0  0  0  0
 12 11  1  0  0  0  0
 12 13  1  0  0  0  0
 13 14  1  0  0  0  0
 14  9  1  0  0  0  0
 14 22  1  0  0  0  0
 14 23  1  0  0  0  0
 15 10  1  0  0  0  0
 17 11  1  0  0  0  0
 20 13  1  0  0  0  0
 21 13  1  0  0  0  0
 25 24  1  0  0  0  0
 25 26  1  0  0  0  0
 26  3  1  0  0  0  0
 27 26  2  0  0  0  0
 27 28  1  0  0  0  0
 29 27  1  0  0  0  0
 30 29  1  0  0  0  0
 31 32  1  0  0  0  0
 31 29  2  0  0  0  0
 32 25  2  0  0  0  0
M  END
>  <minimizedAffinity>
-5.2614522

$$$$

 OpenBabel03242523043D

 32 34  0  0  0  0  0  0  0  0999 V2000
   39.5660   32.7410   41.0550 C   0  0  0  0  0  0  0  0  0  0  0  0
   38.8120   31.6030   40.6870 C   0  0  0  0  0  0  0  0  0  0  0  0
   37.6760   31.8090   39.9360 C   0  0  0  0  0  0  0  0  0  0  0  0
   37.2780   33.0460   39.5470 N   0  0  0  0  0  0  0  0  0  0  0  0
   38.0410   34.1320   39.9260 C   0  0  0  0  0  0  0  0  0  0  0  0
   39.1650   33.9700   40.6690 N   0  0  0  0  0  0  0  0  0  0  0  0
   40.4650   32.6780   41.6390 H   0  0  0  0  0  0  0  0  0  0  0  0
   37.8510   35.1700   39.6980 H   0  0  0  0  0  0  0  0  0  0  0  0
   39.3150   30.3630   41.0780 N   0  0  0  0  0  0  0  0  0  0  0  0
   39.1270   29.9080   42.3980 C   0  0  0  0  0  0  0  0  0  0  0  0
   39.9120   28.6850   42.7070 C   0  0  0  0  0  0  0  0  0  0  0  0
   39.9020   27.6760   41.7310 N   0  0  0  0  0  0  0  0  0  0  0  0
   39.6830   28.0520   40.3930 C   0  0  0  0  0  0  0  0  0  0  0  0
   40.0620   29.4810   40.1930 C   0  0  0  0  0  0  0  0  0  0  0  0
   38.0920   29.6590   42.6940 H   0  0  0  0  0  0  0  0  0  0  0  0
   39.5170   30.7110   43.1170 H   0  0  0  0  0  0  0  0  0  0  0  0
   39.5540   28.2740   43.6820 H   0  0  0  0  0  0  0  0  0  0  0  0
   40.9700   29.0460   42.9410 H   0  0  0  0  0  0  0  0  0  0  0  0
   40.8270   27.1740   41.7770 H   0  0  0  0  0  0  0  0  0  0  0  0
   38.5870   27.8950   40.1340 H   0  0  0  0  0  0  0  0  0  0  0  0
   40.2200   27.4540   39.6140 H   0  0  0  0  0  0  0  0  0  0  0  0
   39.8540   29.6850   39.1070 H   0  0  0  0  0  0  0  0  0  0  0  0
   41.1370   29.6140   40.4070 H   0  0  0  0  0  0  0  0  0  0  0  0
   35.8940   30.7440   41.6280 F   0  0  0  0  0  0  0  0  0  0  0  0
   35.8880   30.3120   40.3150 C   0  0  0  0  0  0  0  0  0  0  0  0
   36.7720   30.8690   39.3660 C   0  0  0  0  0  0  0  0  0  0  0  0
   36.5700   30.2720   38.1070 C   0  0  0  0  0  0  0  0  0  0  0  0
   37.2660   30.6950   37.3890 H   0  0  0  0  0  0  0  0  0  0  0  0
   35.6340   29.2870   37.8780 C   0  0  0  0  0  0  0  0  0  0  0  0
   35.6430   28.9650   36.8260 H   0  0  0  0  0  0  0  0  0  0  0  0
   34.8180   28.8050   38.8640 C   0  0  0  0  0  3  0  0  0  0  0  0
   34.9370   29.3290   40.1400 C   0  0  0  0  0  3  0  0  0  0  0  0
  1  7  1  0  0  0  0
  2  1  1  0  0  0  0
  2  9  1  0  0  0  0
  3  2  2  0  0  0  0
  4  5  2  0  0  0  0
  4  3  1  0  0  0  0
  5  6  1  0  0  0  0
  6  1  2  0  0  0  0
  8  5  1  0  0  0  0
  9 10  1  0  0  0  0
 10 15  1  0  0  0  0
 10 11  1  0  0  0  0
 10 16  1  0  0  0  0
 11 18  1  0  0  0  0
 11 17  1  0  0  0  0
 12 19  1  0  0  0  0
 12 11  1  0  0  0  0
 13 12  1  0  0  0  0
 14 13  1  0  0  0  0
 14 23  1  0  0  0  0
 14  9  1  0  0  0  0
 20 13  1  0  0  0  0
 21 13  1  0  0  0  0
 22 14  1  0  0  0  0
 25 24  1  0  0  0  0
 26  3  1  0  0  0  0
 26 25  2  0  0  0  0
 27 26  1  0  0  0  0
 28 27  1  0  0  0  0
 29 27  2  0  0  0  0
 29 31  1  0  0  0  0
 30 29  1  0  0  0  0
 31 32  2  0  0  0  0
 32 25  1  0  0  0  0
M  END
>  <minimizedAffinity>
-5.12537432

$$$$

 OpenBabel03242523043D

 32 34  0  0  0  0  0  0  0  0999 V2000
   38.1460   29.8700   37.5420 C   0  0  0  0  0  0  0  0  0  0  0  0
   38.1170   29.8080   38.9540 C   0  0  0  0  0  0  0  0  0  0  0  0
   38.1230   28.5600   39.5370 C   0  0  0  0  0  0  0  0  0  0  0  0
   38.1600   27.4180   38.8040 N   0  0  0  0  0  0  0  0  0  0  0  0
   38.1870   27.5200   37.4280 C   0  0  0  0  0  0  0  0  0  0  0  0
   38.1790   28.7320   36.8170 N   0  0  0  0  0  0  0  0  0  0  0  0
   38.1430   30.7970   37.0010 H   0  0  0  0  0  0  0  0  0  0  0  0
   38.2140   26.7080   36.7170 H   0  0  0  0  0  0  0  0  0  0  0  0
   38.1340   31.0240   39.6360 N   0  0  0  0  0  0  0  0  0  0  0  0
   39.3370   31.5110   40.1830 C   0  0  0  0  0  0  0  0  0  0  0  0
   39.1380   32.6930   41.0620 C   0  0  0  0  0  0  0  0  0  0  0  0
   38.2680   33.6840   40.5840 N   0  0  0  0  0  0  0  0  0  0  0  0
   37.2570   33.2980   39.6840 C   0  0  0  0  0  0  0  0  0  0  0  0
   36.9510   31.8470   39.8450 C   0  0  0  0  0  0  0  0  0  0  0  0
   40.1180   31.8230   39.4660 H   0  0  0  0  0  0  0  0  0  0  0  0
   39.7820   30.7000   40.8590 H   0  0  0  0  0  0  0  0  0  0  0  0
   40.1380   33.1390   41.2820 H   0  0  0  0  0  0  0  0  0  0  0  0
   38.8030   32.2760   42.0710 H   0  0  0  0  0  0  0  0  0  0  0  0
   37.8020   34.1330   41.4160 H   0  0  0  0  0  0  0  0  0  0  0  0
   37.5990   33.5130   38.6210 H   0  0  0  0  0  0  0  0  0  0  0  0
   36.2870   33.8510   39.7580 H   0  0  0  0  0  0  0  0  0  0  0  0
   36.1430   31.6370   39.0930 H   0  0  0  0  0  0  0  0  0  0  0  0
   36.5800   31.6560   40.8670 H   0  0  0  0  0  0  0  0  0  0  0  0
   35.7490   28.1810   40.7170 F   0  0  0  0  0  0  0  0  0  0  0  0
   36.8900   28.0480   41.4860 C   0  0  0  0  0  0  0  0  0  0  0  0
   38.1710   28.1890   40.9100 C   0  0  0  0  0  0  0  0  0  0  0  0
   39.1660   28.0030   41.8890 C   0  0  0  0  0  0  0  0  0  0  0  0
   40.1450   28.1320   41.4390 H   0  0  0  0  0  0  0  0  0  0  0  0
   38.8850   27.7270   43.2090 C   0  0  0  0  0  0  0  0  0  0  0  0
   39.8080   27.6180   43.7980 H   0  0  0  0  0  0  0  0  0  0  0  0
   37.6060   27.6080   43.6800 C   0  0  0  0  0  3  0  0  0  0  0  0
   36.5550   27.7730   42.7950 C   0  0  0  0  0  3  0  0  0  0  0  0
  1  2  1  0  0  0  0
  2  3  2  0  0  0  0
  2  9  1  0  0  0  0
  3 26  1  0  0  0  0
  4  3  1  0  0  0  0
  5  4  2  0  0  0  0
  6  5  1  0  0  0  0
  6  1  2  0  0  0  0
  7  1  1  0  0  0  0
  8  5  1  0  0  0  0
  9 14  1  0  0  0  0
  9 10  1  0  0  0  0
 10 16  1  0  0  0  0
 10 11  1  0  0  0  0
 11 17  1  0  0  0  0
 11 18  1  0  0  0  0
 12 11  1  0  0  0  0
 12 19  1  0  0  0  0
 13 21  1  0  0  0  0
 13 14  1  0  0  0  0
 13 12  1  0  0  0  0
 14 23  1  0  0  0  0
 15 10  1  0  0  0  0
 20 13  1  0  0  0  0
 22 14  1  0  0  0  0
 24 25  1  0  0  0  0
 25 32  1  0  0  0  0
 26 25  2  0  0  0  0
 26 27  1  0  0  0  0
 27 29  2  0  0  0  0
 28 27  1  0  0  0  0
 29 31  1  0  0  0  0
 29 30  1  0  0  0  0
 32 31  2  0  0  0  0
M  END
>  <minimizedAffinity>
-5.02673483

$$$$

 OpenBabel03242523043D

 32 34  0  0  0  0  0  0  0  0999 V2000
   38.1300   29.9040   37.5920 C   0  0  0  0  0  0  0  0  0  0  0  0
   37.9350   29.8760   38.9920 C   0  0  0  0  0  0  0  0  0  0  0  0
   37.7080   28.6510   39.5790 C   0  0  0  0  0  0  0  0  0  0  0  0
   37.6730   27.5000   38.8620 N   0  0  0  0  0  0  0  0  0  0  0  0
   37.8680   27.5680   37.4970 C   0  0  0  0  0  0  0  0  0  0  0  0
   38.0910   28.7570   36.8830 N   0  0  0  0  0  0  0  0  0  0  0  0
   38.3130   30.8120   37.0490 H   0  0  0  0  0  0  0  0  0  0  0  0
   37.8650   26.7440   36.7990 H   0  0  0  0  0  0  0  0  0  0  0  0
   38.0390   31.0930   39.6650 N   0  0  0  0  0  0  0  0  0  0  0  0
   39.2800   31.5100   40.1840 C   0  0  0  0  0  0  0  0  0  0  0  0
   39.1710   32.7070   41.0570 C   0  0  0  0  0  0  0  0  0  0  0  0
   38.3520   33.7470   40.5890 N   0  0  0  0  0  0  0  0  0  0  0  0
   37.3020   33.4170   39.7120 C   0  0  0  0  0  0  0  0  0  0  0  0
   36.9130   31.9880   39.8910 C   0  0  0  0  0  0  0  0  0  0  0  0
   40.0640   31.7700   39.4500 H   0  0  0  0  0  0  0  0  0  0  0  0
   39.6900   30.6780   40.8570 H   0  0  0  0  0  0  0  0  0  0  0  0
   40.2010   33.0940   41.2550 H   0  0  0  0  0  0  0  0  0  0  0  0
   38.8310   32.3180   42.0760 H   0  0  0  0  0  0  0  0  0  0  0  0
   37.9320   34.2280   41.4270 H   0  0  0  0  0  0  0  0  0  0  0  0
   37.6350   33.6040   38.6420 H   0  0  0  0  0  0  0  0  0  0  0  0
   36.3690   34.0280   39.8020 H   0  0  0  0  0  0  0  0  0  0  0  0
   36.0780   31.8220   39.1560 H   0  0  0  0  0  0  0  0  0  0  0  0
   36.5520   31.8260   40.9210 H   0  0  0  0  0  0  0  0  0  0  0  0
   39.9810   28.2770   40.9460 F   0  0  0  0  0  0  0  0  0  0  0  0
   38.7810   28.0800   41.6040 C   0  0  0  0  0  0  0  0  0  0  0  0
   37.5510   28.3070   40.9510 C   0  0  0  0  0  0  0  0  0  0  0  0
   36.4810   28.0450   41.8270 C   0  0  0  0  0  0  0  0  0  0  0  0
   35.5400   28.2050   41.3090 H   0  0  0  0  0  0  0  0  0  0  0  0
   36.6540   27.6280   43.1280 C   0  0  0  0  0  0  0  0  0  0  0  0
   35.6870   27.4850   43.6340 H   0  0  0  0  0  0  0  0  0  0  0  0
   37.8910   27.4320   43.6800 C   0  0  0  0  0  3  0  0  0  0  0  0
   39.0100   27.6630   42.8990 C   0  0  0  0  0  3  0  0  0  0  0  0
  1  2  1  0  0  0  0
  2  3  2  0  0  0  0
  2  9  1  0  0  0  0
  3 26  1  0  0  0  0
  4  3  1  0  0  0  0
  5  4  2  0  0  0  0
  6  5  1  0  0  0  0
  6  1  2  0  0  0  0
  7  1  1  0  0  0  0
  8  5  1  0  0  0  0
  9 14  1  0  0  0  0
  9 10  1  0  0  0  0
 10 16  1  0  0  0  0
 10 11  1  0  0  0  0
 11 17  1  0  0  0  0
 11 18  1  0  0  0  0
 12 11  1  0  0  0  0
 12 19  1  0  0  0  0
 13 21  1  0  0  0  0
 13 14  1  0  0  0  0
 13 12  1  0  0  0  0
 14 23  1  0  0  0  0
 15 10  1  0  0  0  0
 20 13  1  0  0  0  0
 22 14  1  0  0  0  0
 24 25  1  0  0  0  0
 25 32  1  0  0  0  0
 26 25  2  0  0  0  0
 26 27  1  0  0  0  0
 27 29  2  0  0  0  0
 28 27  1  0  0  0  0
 29 30  1  0  0  0  0
 29 31  1  0  0  0  0
 32 31  2  0  0  0  0
M  END
>  <minimizedAffinity>
-4.98108292

$$$$

 OpenBabel03242523043D

 32 34  0  0  0  0  0  0  0  0999 V2000
   38.9310   31.7550   41.4210 C   0  0  0  0  0  0  0  0  0  0  0  0
   38.0910   30.7150   40.9630 C   0  0  0  0  0  0  0  0  0  0  0  0
   37.1420   31.0330   40.0160 C   0  0  0  0  0  0  0  0  0  0  0  0
   37.0030   32.2890   39.5240 N   0  0  0  0  0  0  0  0  0  0  0  0
   37.8420   33.2780   39.9960 C   0  0  0  0  0  0  0  0  0  0  0  0
   38.7870   33.0050   40.9310 N   0  0  0  0  0  0  0  0  0  0  0  0
   39.6980   31.6020   42.1570 H   0  0  0  0  0  0  0  0  0  0  0  0
   37.8490   34.3180   39.7040 H   0  0  0  0  0  0  0  0  0  0  0  0
   38.3320   29.4410   41.4770 N   0  0  0  0  0  0  0  0  0  0  0  0
   39.4520   28.7050   41.0460 C   0  0  0  0  0  0  0  0  0  0  0  0
   39.4360   27.2950   41.5170 C   0  0  0  0  0  0  0  0  0  0  0  0
   39.0820   27.0920   42.8590 N   0  0  0  0  0  0  0  0  0  0  0  0
   38.2580   28.0500   43.4780 C   0  0  0  0  0  0  0  0  0  0  0  0
   37.4680   28.7890   42.4510 C   0  0  0  0  0  0  0  0  0  0  0  0
   40.4440   29.0890   41.3450 H   0  0  0  0  0  0  0  0  0  0  0  0
   39.4280   28.6450   39.9020 H   0  0  0  0  0  0  0  0  0  0  0  0
   40.4390   26.8460   41.3160 H   0  0  0  0  0  0  0  0  0  0  0  0
   38.7440   26.7370   40.7990 H   0  0  0  0  0  0  0  0  0  0  0  0
   38.5960   26.1590   42.9260 H   0  0  0  0  0  0  0  0  0  0  0  0
   38.9040   28.7720   44.0730 H   0  0  0  0  0  0  0  0  0  0  0  0
   37.5330   27.6660   44.2400 H   0  0  0  0  0  0  0  0  0  0  0  0
   36.8480   29.5230   43.0350 H   0  0  0  0  0  0  0  0  0  0  0  0
   36.8140   28.0850   41.9070 H   0  0  0  0  0  0  0  0  0  0  0  0
   37.6820   30.6020   37.4290 F   0  0  0  0  0  0  0  0  0  0  0  0
   36.5330   30.0440   37.9590 C   0  0  0  0  0  0  0  0  0  0  0  0
   36.2200   30.1970   39.3270 C   0  0  0  0  0  0  0  0  0  0  0  0
   35.0120   29.5370   39.6240 C   0  0  0  0  0  0  0  0  0  0  0  0
   34.7710   29.6770   40.6730 H   0  0  0  0  0  0  0  0  0  0  0  0
   34.2730   28.8540   38.6850 C   0  0  0  0  0  0  0  0  0  0  0  0
   33.3690   28.4130   39.1310 H   0  0  0  0  0  0  0  0  0  0  0  0
   34.6560   28.7590   37.3740 C   0  0  0  0  0  3  0  0  0  0  0  0
   35.8310   29.3740   36.9800 C   0  0  0  0  0  3  0  0  0  0  0  0
  1  7  1  0  0  0  0
  2  1  1  0  0  0  0
  2  9  1  0  0  0  0
  3  2  2  0  0  0  0
  4  5  2  0  0  0  0
  4  3  1  0  0  0  0
  5  6  1  0  0  0  0
  6  1  2  0  0  0  0
  8  5  1  0  0  0  0
  9 14  1  0  0  0  0
 10 15  1  0  0  0  0
 10  9  1  0  0  0  0
 10 11  1  0  0  0  0
 11 12  1  0  0  0  0
 12 19  1  0  0  0  0
 12 13  1  0  0  0  0
 13 20  1  0  0  0  0
 13 21  1  0  0  0  0
 14 22  1  0  0  0  0
 14 13  1  0  0  0  0
 16 10  1  0  0  0  0
 17 11  1  0  0  0  0
 18 11  1  0  0  0  0
 23 14  1  0  0  0  0
 24 25  1  0  0  0  0
 25 26  1  0  0  0  0
 26 27  2  0  0  0  0
 26  3  1  0  0  0  0
 27 28  1  0  0  0  0
 29 30  1  0  0  0  0
 29 27  1  0  0  0  0
 31 29  2  0  0  0  0
 32 31  1  0  0  0  0
 32 25  2  0  0  0  0
M  END
>  <minimizedAffinity>
-4.93002033

$$$$

 OpenBabel03242523043D

 32 34  0  0  0  0  0  0  0  0999 V2000
   37.2850   27.0440   41.1000 C   0  0  0  0  0  0  0  0  0  0  0  0
   37.7080   28.2750   40.5510 C   0  0  0  0  0  0  0  0  0  0  0  0
   37.7700   29.3610   41.3960 C   0  0  0  0  0  0  0  0  0  0  0  0
   37.4480   29.2750   42.7110 N   0  0  0  0  0  0  0  0  0  0  0  0
   37.0390   28.0550   43.2100 C   0  0  0  0  0  0  0  0  0  0  0  0
   36.9620   26.9630   42.4090 N   0  0  0  0  0  0  0  0  0  0  0  0
   37.2050   26.1440   40.5190 H   0  0  0  0  0  0  0  0  0  0  0  0
   36.7480   27.8330   44.2270 H   0  0  0  0  0  0  0  0  0  0  0  0
   38.0740   28.2700   39.2060 N   0  0  0  0  0  0  0  0  0  0  0  0
   37.1040   28.4930   38.2080 C   0  0  0  0  0  0  0  0  0  0  0  0
   37.6130   28.2320   36.8370 C   0  0  0  0  0  0  0  0  0  0  0  0
   38.8880   28.7380   36.5390 N   0  0  0  0  0  0  0  0  0  0  0  0
   39.7920   28.9190   37.6020 C   0  0  0  0  0  0  0  0  0  0  0  0
   39.4320   28.0260   38.7410 C   0  0  0  0  0  0  0  0  0  0  0  0
   36.6690   29.5070   38.1570 H   0  0  0  0  0  0  0  0  0  0  0  0
   36.2480   27.7480   38.3630 H   0  0  0  0  0  0  0  0  0  0  0  0
   36.8670   28.6260   36.1040 H   0  0  0  0  0  0  0  0  0  0  0  0
   37.5550   27.1000   36.6950 H   0  0  0  0  0  0  0  0  0  0  0  0
   39.3380   28.0870   35.8420 H   0  0  0  0  0  0  0  0  0  0  0  0
   39.7690   30.0070   37.9320 H   0  0  0  0  0  0  0  0  0  0  0  0
   40.8730   28.7430   37.3710 H   0  0  0  0  0  0  0  0  0  0  0  0
   40.2020   28.2410   39.5310 H   0  0  0  0  0  0  0  0  0  0  0  0
   39.4980   26.9710   38.4220 H   0  0  0  0  0  0  0  0  0  0  0  0
   35.9690   31.0090   40.2950 F   0  0  0  0  0  0  0  0  0  0  0  0
   37.2420   31.4950   40.5300 C   0  0  0  0  0  0  0  0  0  0  0  0
   38.2200   30.6890   41.1510 C   0  0  0  0  0  0  0  0  0  0  0  0
   39.4250   31.4060   41.2870 C   0  0  0  0  0  0  0  0  0  0  0  0
   40.1750   30.7710   41.7480 H   0  0  0  0  0  0  0  0  0  0  0  0
   39.5830   32.7050   40.8590 C   0  0  0  0  0  0  0  0  0  0  0  0
   40.6000   33.0720   41.0640 H   0  0  0  0  0  0  0  0  0  0  0  0
   38.5740   33.4120   40.2630 C   0  0  0  0  0  3  0  0  0  0  0  0
   37.3480   32.7950   40.0850 C   0  0  0  0  0  3  0  0  0  0  0  0
  1  6  1  0  0  0  0
  2  1  2  0  0  0  0
  2  3  1  0  0  0  0
  3  4  2  0  0  0  0
  4  5  1  0  0  0  0
  5  8  1  0  0  0  0
  6  5  2  0  0  0  0
  7  1  1  0  0  0  0
  9  2  1  0  0  0  0
 10 16  1  0  0  0  0
 10  9  1  0  0  0  0
 11 10  1  0  0  0  0
 12 11  1  0  0  0  0
 12 13  1  0  0  0  0
 13 20  1  0  0  0  0
 13 14  1  0  0  0  0
 14  9  1  0  0  0  0
 14 22  1  0  0  0  0
 15 10  1  0  0  0  0
 17 11  1  0  0  0  0
 18 11  1  0  0  0  0
 19 12  1  0  0  0  0
 21 13  1  0  0  0  0
 23 14  1  0  0  0  0
 24 25  1  0  0  0  0
 25 26  1  0  0  0  0
 26 27  2  0  0  0  0
 26  3  1  0  0  0  0
 27 28  1  0  0  0  0
 29 30  1  0  0  0  0
 29 27  1  0  0  0  0
 31 29  2  0  0  0  0
 32 31  1  0  0  0  0
 32 25  2  0  0  0  0
M  END
>  <minimizedAffinity>
-4.71072578

$$$$

 OpenBabel03242523043D

 32 34  0  0  0  0  0  0  0  0999 V2000
   35.8300   29.4970   37.4960 C   0  0  0  0  0  0  0  0  0  0  0  0
   36.7240   29.4060   38.5860 C   0  0  0  0  0  0  0  0  0  0  0  0
   36.1950   29.1000   39.8200 C   0  0  0  0  0  0  0  0  0  0  0  0
   34.8680   28.8860   40.0070 N   0  0  0  0  0  0  0  0  0  0  0  0
   34.0260   28.9850   38.9170 C   0  0  0  0  0  0  0  0  0  0  0  0
   34.5100   29.2860   37.6860 N   0  0  0  0  0  0  0  0  0  0  0  0
   36.1510   29.7300   36.4980 H   0  0  0  0  0  0  0  0  0  0  0  0
   32.9550   28.8460   38.9090 H   0  0  0  0  0  0  0  0  0  0  0  0
   38.0780   29.5850   38.3040 N   0  0  0  0  0  0  0  0  0  0  0  0
   38.7850   28.6080   37.5760 C   0  0  0  0  0  0  0  0  0  0  0  0
   40.2510   28.8460   37.5600 C   0  0  0  0  0  0  0  0  0  0  0  0
   40.6660   30.1660   37.3240 N   0  0  0  0  0  0  0  0  0  0  0  0
   39.7880   31.2070   37.6790 C   0  0  0  0  0  0  0  0  0  0  0  0
   38.8440   30.7450   38.7380 C   0  0  0  0  0  0  0  0  0  0  0  0
   38.5090   28.4840   36.5140 H   0  0  0  0  0  0  0  0  0  0  0  0
   38.6450   27.5970   38.0970 H   0  0  0  0  0  0  0  0  0  0  0  0
   40.7100   28.1630   36.8030 H   0  0  0  0  0  0  0  0  0  0  0  0
   40.6420   28.4430   38.5550 H   0  0  0  0  0  0  0  0  0  0  0  0
   41.5700   30.3170   37.8430 H   0  0  0  0  0  0  0  0  0  0  0  0
   39.2130   31.5430   36.7580 H   0  0  0  0  0  0  0  0  0  0  0  0
   40.2610   32.1520   38.0470 H   0  0  0  0  0  0  0  0  0  0  0  0
   38.1920   31.6350   38.9520 H   0  0  0  0  0  0  0  0  0  0  0  0
   39.4090   30.4600   39.6420 H   0  0  0  0  0  0  0  0  0  0  0  0
   36.5750   26.5320   40.4790 F   0  0  0  0  0  0  0  0  0  0  0  0
   36.9760   27.5040   41.3770 C   0  0  0  0  0  0  0  0  0  0  0  0
   36.8440   28.8740   41.0660 C   0  0  0  0  0  0  0  0  0  0  0  0
   37.3250   29.6610   42.1300 C   0  0  0  0  0  0  0  0  0  0  0  0
   37.2030   30.7120   41.8890 H   0  0  0  0  0  0  0  0  0  0  0  0
   37.8410   29.1290   43.2910 C   0  0  0  0  0  0  0  0  0  0  0  0
   38.1590   29.9200   43.9860 H   0  0  0  0  0  0  0  0  0  0  0  0
   37.9280   27.7800   43.5060 C   0  0  0  0  0  3  0  0  0  0  0  0
   37.4820   26.9200   42.5180 C   0  0  0  0  0  3  0  0  0  0  0  0
  1  6  2  0  0  0  0
  1  2  1  0  0  0  0
  2  3  2  0  0  0  0
  3  4  1  0  0  0  0
  3 26  1  0  0  0  0
  5  4  2  0  0  0  0
  6  5  1  0  0  0  0
  7  1  1  0  0  0  0
  8  5  1  0  0  0  0
  9  2  1  0  0  0  0
  9 14  1  0  0  0  0
 10 16  1  0  0  0  0
 10  9  1  0  0  0  0
 11 10  1  0  0  0  0
 11 18  1  0  0  0  0
 12 11  1  0  0  0  0
 12 13  1  0  0  0  0
 12 19  1  0  0  0  0
 13 21  1  0  0  0  0
 13 14  1  0  0  0  0
 14 22  1  0  0  0  0
 14 23  1  0  0  0  0
 15 10  1  0  0  0  0
 17 11  1  0  0  0  0
 20 13  1  0  0  0  0
 24 25  1  0  0  0  0
 25 32  1  0  0  0  0
 26 25  2  0  0  0  0
 26 27  1  0  0  0  0
 27 29  2  0  0  0  0
 28 27  1  0  0  0  0
 29 31  1  0  0  0  0
 29 30  1  0  0  0  0
 32 31  2  0  0  0  0
M  END
>  <minimizedAffinity>
-4.68482542

$$$$

 OpenBabel03242523043D

 32 34  0  0  0  0  0  0  0  0999 V2000
   35.7550   26.1440   38.0840 C   0  0  0  0  0  0  0  0  0  0  0  0
   36.4210   26.3260   39.3170 C   0  0  0  0  0  0  0  0  0  0  0  0
   36.3050   27.5550   39.9280 C   0  0  0  0  0  0  0  0  0  0  0  0
   35.5800   28.5670   39.3890 N   0  0  0  0  0  0  0  0  0  0  0  0
   34.9440   28.3500   38.1830 C   0  0  0  0  0  0  0  0  0  0  0  0
   35.0380   27.1540   37.5490 N   0  0  0  0  0  0  0  0  0  0  0  0
   35.7890   25.2210   37.5350 H   0  0  0  0  0  0  0  0  0  0  0  0
   34.3390   29.0550   37.6320 H   0  0  0  0  0  0  0  0  0  0  0  0
   37.1010   25.2230   39.8330 N   0  0  0  0  0  0  0  0  0  0  0  0
   38.4010   24.9210   39.3850 C   0  0  0  0  0  0  0  0  0  0  0  0
   38.8870   23.6000   39.8620 C   0  0  0  0  0  0  0  0  0  0  0  0
   38.6460   23.2980   41.2110 N   0  0  0  0  0  0  0  0  0  0  0  0
   37.5470   23.9130   41.8400 C   0  0  0  0  0  0  0  0  0  0  0  0
   36.5340   24.3190   40.8230 C   0  0  0  0  0  0  0  0  0  0  0  0
   39.2000   25.6310   39.6660 H   0  0  0  0  0  0  0  0  0  0  0  0
   38.3830   24.8450   38.2420 H   0  0  0  0  0  0  0  0  0  0  0  0
   39.9810   23.5280   39.6460 H   0  0  0  0  0  0  0  0  0  0  0  0
   38.4240   22.8270   39.1590 H   0  0  0  0  0  0  0  0  0  0  0  0
   38.5190   22.2550   41.2910 H   0  0  0  0  0  0  0  0  0  0  0  0
   37.9080   24.8210   42.4210 H   0  0  0  0  0  0  0  0  0  0  0  0
   37.0140   23.3070   42.6160 H   0  0  0  0  0  0  0  0  0  0  0  0
   35.7050   24.7950   41.4150 H   0  0  0  0  0  0  0  0  0  0  0  0
   36.1600   23.4250   40.2940 H   0  0  0  0  0  0  0  0  0  0  0  0
   38.3940   29.2280   39.8290 F   0  0  0  0  0  0  0  0  0  0  0  0
   37.9220   28.8450   41.0700 C   0  0  0  0  0  0  0  0  0  0  0  0
   36.7950   28.0030   41.1870 C   0  0  0  0  0  0  0  0  0  0  0  0
   36.5070   27.7630   42.5450 C   0  0  0  0  0  0  0  0  0  0  0  0
   35.6510   27.1010   42.6220 H   0  0  0  0  0  0  0  0  0  0  0  0
   37.2460   28.2930   43.5790 C   0  0  0  0  0  0  0  0  0  0  0  0
   36.8470   27.9810   44.5550 H   0  0  0  0  0  0  0  0  0  0  0  0
   38.3290   29.1030   43.3700 C   0  0  0  0  0  3  0  0  0  0  0  0
   38.6940   29.4000   42.0680 C   0  0  0  0  0  3  0  0  0  0  0  0
  1  2  1  0  0  0  0
  2  9  1  0  0  0  0
  2  3  2  0  0  0  0
  3 26  1  0  0  0  0
  4  3  1  0  0  0  0
  5  4  2  0  0  0  0
  6  1  2  0  0  0  0
  6  5  1  0  0  0  0
  7  1  1  0  0  0  0
  8  5  1  0  0  0  0
  9 14  1  0  0  0  0
 10 15  1  0  0  0  0
 10  9  1  0  0  0  0
 10 11  1  0  0  0  0
 11 12  1  0  0  0  0
 12 19  1  0  0  0  0
 12 13  1  0  0  0  0
 13 20  1  0  0  0  0
 13 21  1  0  0  0  0
 14 22  1  0  0  0  0
 14 13  1  0  0  0  0
 16 10  1  0  0  0  0
 17 11  1  0  0  0  0
 18 11  1  0  0  0  0
 23 14  1  0  0  0  0
 24 25  1  0  0  0  0
 25 26  2  0  0  0  0
 25 32  1  0  0  0  0
 26 27  1  0  0  0  0
 27 28  1  0  0  0  0
 27 29  2  0  0  0  0
 29 30  1  0  0  0  0
 31 29  1  0  0  0  0
 32 31  2  0  0  0  0
M  END
>  <minimizedAffinity>
-4.67856598

$$$$

 OpenBabel03242523043D

 32 34  0  0  0  0  0  0  0  0999 V2000
   38.2570   30.5000   41.1790 C   0  0  0  0  0  0  0  0  0  0  0  0
   38.3300   29.0880   41.1870 C   0  0  0  0  0  0  0  0  0  0  0  0
   37.1560   28.3890   41.0060 C   0  0  0  0  0  0  0  0  0  0  0  0
   35.9640   29.0100   40.8210 N   0  0  0  0  0  0  0  0  0  0  0  0
   35.9340   30.3900   40.8200 C   0  0  0  0  0  0  0  0  0  0  0  0
   37.0680   31.1130   40.9980 N   0  0  0  0  0  0  0  0  0  0  0  0
   39.1180   31.1270   41.3130 H   0  0  0  0  0  0  0  0  0  0  0  0
   35.0670   31.0200   40.6900 H   0  0  0  0  0  0  0  0  0  0  0  0
   39.5980   28.5260   41.3280 N   0  0  0  0  0  0  0  0  0  0  0  0
   40.3640   28.2140   40.1880 C   0  0  0  0  0  0  0  0  0  0  0  0
   41.5810   27.4230   40.5060 C   0  0  0  0  0  0  0  0  0  0  0  0
   42.3270   27.8470   41.6160 N   0  0  0  0  0  0  0  0  0  0  0  0
   41.6540   28.5450   42.6370 C   0  0  0  0  0  0  0  0  0  0  0  0
   40.2000   28.2120   42.6150 C   0  0  0  0  0  0  0  0  0  0  0  0
   40.7330   29.0670   39.5900 H   0  0  0  0  0  0  0  0  0  0  0  0
   39.7360   27.5470   39.5010 H   0  0  0  0  0  0  0  0  0  0  0  0
   42.2320   27.3980   39.5980 H   0  0  0  0  0  0  0  0  0  0  0  0
   41.2280   26.3410   40.6120 H   0  0  0  0  0  0  0  0  0  0  0  0
   42.7730   26.9960   42.0490 H   0  0  0  0  0  0  0  0  0  0  0  0
   41.8050   29.6620   42.4900 H   0  0  0  0  0  0  0  0  0  0  0  0
   42.0190   28.3710   43.6810 H   0  0  0  0  0  0  0  0  0  0  0  0
   39.7550   28.8100   43.4560 H   0  0  0  0  0  0  0  0  0  0  0  0
   40.0630   27.1320   42.8010 H   0  0  0  0  0  0  0  0  0  0  0  0
   37.1670   27.0310   43.3140 F   0  0  0  0  0  0  0  0  0  0  0  0
   36.9930   26.3230   42.1390 C   0  0  0  0  0  0  0  0  0  0  0  0
   36.9320   26.9880   40.8960 C   0  0  0  0  0  0  0  0  0  0  0  0
   36.7440   26.0570   39.8560 C   0  0  0  0  0  0  0  0  0  0  0  0
   36.7170   26.5780   38.9040 H   0  0  0  0  0  0  0  0  0  0  0  0
   36.6420   24.7000   40.0660 C   0  0  0  0  0  0  0  0  0  0  0  0
   36.4970   24.1600   39.1190 H   0  0  0  0  0  0  0  0  0  0  0  0
   36.7140   24.1410   41.3130 C   0  0  0  0  0  3  0  0  0  0  0  0
   36.8970   24.9730   42.4040 C   0  0  0  0  0  3  0  0  0  0  0  0
  1  2  1  0  0  0  0
  1  7  1  0  0  0  0
  2  9  1  0  0  0  0
  3  2  2  0  0  0  0
  4  3  1  0  0  0  0
  5  4  2  0  0  0  0
  5  6  1  0  0  0  0
  6  1  2  0  0  0  0
  8  5  1  0  0  0  0
  9 14  1  0  0  0  0
 10 11  1  0  0  0  0
 10  9  1  0  0  0  0
 11 18  1  0  0  0  0
 11 12  1  0  0  0  0
 12 19  1  0  0  0  0
 12 13  1  0  0  0  0
 13 21  1  0  0  0  0
 14 13  1  0  0  0  0
 14 23  1  0  0  0  0
 14 22  1  0  0  0  0
 15 10  1  0  0  0  0
 16 10  1  0  0  0  0
 17 11  1  0  0  0  0
 20 13  1  0  0  0  0
 25 32  1  0  0  0  0
 25 24  1  0  0  0  0
 26  3  1  0  0  0  0
 26 25  2  0  0  0  0
 27 29  2  0  0  0  0
 27 26  1  0  0  0  0
 28 27  1  0  0  0  0
 29 31  1  0  0  0  0
 30 29  1  0  0  0  0
 31 32  2  0  0  0  0
M  END
>  <minimizedAffinity>
-4.65335989

$$$$
