
 OpenBabel03252508383D

 41 44  0  0  0  0  0  0  0  0999 V2000
   45.1510   33.9610   40.7220 C   0  0  0  0  0  0  0  0  0  0  0  0
   44.1090   33.6250   39.9110 C   0  0  0  0  0  0  0  0  0  0  0  0
   44.4080   33.1120   38.6770 C   0  0  0  0  0  0  0  0  0  0  0  0
   45.6940   32.9180   38.2150 C   0  0  0  0  0  0  0  0  0  0  0  0
   46.7230   33.2660   39.0570 C   0  0  0  0  0  0  0  0  0  0  0  0
   46.4690   33.7880   40.3100 C   0  0  0  0  0  0  0  0  0  0  0  0
   43.5870   32.8410   38.0230 H   0  0  0  0  0  0  0  0  0  0  0  0
   45.9110   32.5100   37.2350 H   0  0  0  0  0  0  0  0  0  0  0  0
   47.7370   33.1130   38.6910 H   0  0  0  0  0  0  0  0  0  0  0  0
   40.8300   35.2670   40.7990 C   0  0  0  0  0  0  0  0  0  0  0  0
   42.1270   35.0850   40.2880 C   0  0  0  0  0  0  0  0  0  0  0  0
   42.7720   33.8400   40.4280 C   0  0  0  0  0  0  0  0  0  0  0  0
   42.0570   32.8960   41.0660 N   0  0  0  0  0  0  0  0  0  0  0  0
   40.8330   33.0780   41.5450 C   0  0  0  0  0  0  0  0  0  0  0  0
   40.2160   34.2580   41.4140 N   0  0  0  0  0  0  0  0  0  0  0  0
   40.2310   36.5420   40.6280 N   0  0  0  0  0  0  0  0  0  0  0  0
   42.6560   35.8890   39.7810 H   0  0  0  0  0  0  0  0  0  0  0  0
   40.3490   32.2360   42.0450 H   0  0  0  0  0  0  0  0  0  0  0  0
   39.8060   36.9220   39.7540 H   0  0  0  0  0  0  0  0  0  0  0  0
   40.0970   37.3230   41.3050 H   0  0  0  0  0  0  0  0  0  0  0  0
   47.6220   34.1250   41.1200 C   0  0  0  0  0  0  0  0  0  0  0  0
   48.1360   35.3900   40.9300 C   0  0  0  0  0  0  0  0  0  0  0  0
   49.2410   35.8940   41.6160 C   0  0  0  0  0  0  0  0  0  0  0  0
   49.8480   35.0620   42.5390 C   0  0  0  0  0  0  0  0  0  0  0  0
   49.3550   33.7890   42.7510 C   0  0  0  0  0  0  0  0  0  0  0  0
   48.2560   33.3390   42.0440 C   0  0  0  0  0  0  0  0  0  0  0  0
   47.7070   36.0930   40.2180 H   0  0  0  0  0  0  0  0  0  0  0  0
   49.6430   36.8760   41.4700 H   0  0  0  0  0  0  0  0  0  0  0  0
   50.7110   35.3290   43.1390 H   0  0  0  0  0  0  0  0  0  0  0  0
   49.7720   33.0810   43.4550 H   0  0  0  0  0  0  0  0  0  0  0  0
   46.8720   32.9760   44.3550 F   0  0  0  0  0  0  0  0  0  0  0  0
   47.0290   31.9330   43.4730 C   0  0  0  0  0  0  0  0  0  0  0  0
   47.7180   32.0000   42.2560 C   0  0  0  0  0  0  0  0  0  0  0  0
   47.7880   30.8560   41.4760 C   0  0  0  0  0  0  0  0  0  0  0  0
   48.3350   31.0230   40.5810 H   0  0  0  0  0  0  0  0  0  0  0  0
   47.1820   29.7070   41.9230 C   0  0  0  0  0  0  0  0  0  0  0  0
   47.2880   28.8610   41.2460 H   0  0  0  0  0  0  0  0  0  0  0  0
   46.5050   29.6490   43.1230 C   0  0  0  0  0  3  0  0  0  0  0  0
   46.4230   30.7910   43.9250 C   0  0  0  0  0  3  0  0  0  0  0  0
   44.7440   34.9510   43.1000 N   0  0  0  0  0  0  0  0  0  0  0  0
   44.9370   34.5090   42.0360 C   0  0  0  0  0  0  0  0  0  0  0  0
  1 41  1  0  0  0  0
  2 12  1  0  0  0  0
  2  1  2  0  0  0  0
  3  2  1  0  0  0  0
  4  3  2  0  0  0  0
  4  5  1  0  0  0  0
  5  6  2  0  0  0  0
  6  1  1  0  0  0  0
  6 21  1  0  0  0  0
  7  3  1  0  0  0  0
  8  4  1  0  0  0  0
  9  5  1  0  0  0  0
 10 15  1  0  0  0  0
 11 12  1  0  0  0  0
 11 10  2  0  0  0  0
 12 13  2  0  0  0  0
 13 14  1  0  0  0  0
 14 18  1  0  0  0  0
 15 14  2  0  0  0  0
 16 10  1  0  0  0  0
 16 20  1  0  0  0  0
 17 11  1  0  0  0  0
 19 16  1  0  0  0  0
 21 26  1  0  0  0  0
 22 21  2  0  0  0  0
 22 23  1  0  0  0  0
 23 24  2  0  0  0  0
 24 25  1  0  0  0  0
 24 29  1  0  0  0  0
 25 30  1  0  0  0  0
 26 33  1  0  0  0  0
 26 25  2  0  0  0  0
 27 22  1  0  0  0  0
 28 23  1  0  0  0  0
 32 39  1  0  0  0  0
 32 31  1  0  0  0  0
 33 32  2  0  0  0  0
 34 36  2  0  0  0  0
 34 33  1  0  0  0  0
 35 34  1  0  0  0  0
 36 38  1  0  0  0  0
 37 36  1  0  0  0  0
 38 39  2  0  0  0  0
 41 40  3  0  0  0  0
M  END
>  <minimizedAffinity>
-6.20073414

>  <minimizedRMSD>
0.111644194

$$$$
