REMARK  Name = 
REMARK  4 active torsions:
REMARK  status: ('A' for Active; 'I' for Inactive)
REMARK    1  A    between atoms: C_1  and  C_21
REMARK    2  A    between atoms: C_2  and  C_9
REMARK    3  A    between atoms: C_6  and  C_14
REMARK    4  A    between atoms: C_19  and  C_35
REMARK                            x       y       z     vdW  Elec       q    Type
REMARK                         _______ _______ _______ _____ _____    ______ ____
ROOT
ATOM      1  C   UNL     1      45.123  33.936  40.704  0.00  0.00    +0.000 A 
ATOM      2  C   UNL     1      44.081  33.633  39.880  0.00  0.00    +0.000 A 
ATOM      3  C   UNL     1      44.381  33.157  38.631  0.00  0.00    +0.000 A 
ATOM      4  C   UNL     1      45.667  32.970  38.167  0.00  0.00    +0.000 A 
ATOM      5  C   UNL     1      46.695  33.285  39.022  0.00  0.00    +0.000 A 
ATOM      6  C   UNL     1      46.441  33.768  40.291  0.00  0.00    +0.000 A 
ATOM      7  H   UNL     1      43.560  32.913  37.967  0.00  0.00    +0.000 HD
ATOM      8  H   UNL     1      45.884  32.592  37.175  0.00  0.00    +0.000 HD
ATOM      9  H   UNL     1      47.710  33.137  38.655  0.00  0.00    +0.000 HD
ENDROOT
BRANCH   2  12
ATOM     10  C   UNL     1      40.802  35.261  40.792  0.00  0.00    +0.000 A 
ATOM     11  C   UNL     1      42.099  35.087  40.279  0.00  0.00    +0.000 A 
ATOM     12  C   UNL     1      42.744  33.840  40.400  0.00  0.00    +0.000 A 
ATOM     13  N   UNL     1      42.029  32.886  41.023  0.00  0.00    +0.000 NA
ATOM     14  C   UNL     1      40.804  33.061  41.504  0.00  0.00    +0.000 A 
ATOM     15  N   UNL     1      40.188  34.243  41.391  0.00  0.00    +0.000 NA
ATOM     16  N   UNL     1      40.203  36.539  40.641  0.00  0.00    +0.000 N 
ATOM     17  H   UNL     1      42.628  35.899  39.784  0.00  0.00    +0.000 HD
ATOM     18  H   UNL     1      40.320  32.211  41.991  0.00  0.00    +0.000 HD
ATOM     19  H   UNL     1      39.778  36.932  39.772  0.00  0.00    +0.000 HD
ATOM     20  H   UNL     1      40.069  37.309  41.330  0.00  0.00    +0.000 HD
ENDBRANCH   2  12
BRANCH   6  21
ATOM     21  C   UNL     1      47.594  34.072  41.114  0.00  0.00    +0.000 A 
ATOM     22  C   UNL     1      48.135  35.328  40.943  0.00  0.00    +0.000 A 
ATOM     23  C   UNL     1      49.244  35.801  41.644  0.00  0.00    +0.000 A 
ATOM     24  C   UNL     1      49.826  34.947  42.563  0.00  0.00    +0.000 A 
ATOM     25  C   UNL     1      49.305  33.682  42.756  0.00  0.00    +0.000 A 
ATOM     26  C   UNL     1      48.203  33.263  42.034  0.00  0.00    +0.000 A 
ATOM     27  H   UNL     1      47.727  36.048  40.236  0.00  0.00    +0.000 HD
ATOM     28  H   UNL     1      49.667  36.777  41.513  0.00  0.00    +0.000 HD
ATOM     29  H   UNL     1      50.689  35.189  43.173  0.00  0.00    +0.000 HD
ATOM     30  H   UNL     1      49.701  32.957  43.455  0.00  0.00    +0.000 HD
BRANCH  26  33
ATOM     31  F   UNL     1      47.725  31.846  39.764  0.00  0.00    +0.000 F 
ATOM     32  C   UNL     1      47.434  31.302  40.992  0.00  0.00    +0.000 A 
ATOM     33  C   UNL     1      47.636  31.933  42.226  0.00  0.00    +0.000 A 
ATOM     34  C   UNL     1      47.289  31.247  43.379  0.00  0.00    +0.000 A 
ATOM     35  H   UNL     1      47.484  31.823  44.252  0.00  0.00    +0.000 HD
ATOM     36  C   UNL     1      46.764  29.982  43.271  0.00  0.00    +0.000 A 
ATOM     37  H   UNL     1      46.522  29.523  44.228  0.00  0.00    +0.000 HD
ATOM     38  C   UNL     1      46.568  29.368  42.052  0.00  0.00    +0.000 A 
ATOM     39  C   UNL     1      46.911  30.041  40.876  0.00  0.00    +0.000 A 
ENDBRANCH  26  33
ENDBRANCH   6  21
BRANCH   1  41
ATOM     40  N   UNL     1      44.715  34.853  43.111  0.00  0.00    +0.000 NA
ATOM     41  C   UNL     1      44.908  34.444  42.034  0.00  0.00    +0.000 C 
ENDBRANCH   1  41
TORSDOF 4
