
 OpenBabel03242521353D

 31 34  0  0  0  0  0  0  0  0999 V2000
   32.7830   26.9450   35.8960 C   0  0  0  0  0  0  0  0  0  0  0  0
   33.7960   26.9100   36.8920 C   0  0  0  0  0  0  0  0  0  0  0  0
   33.9980   28.0510   37.6540 C   0  0  0  0  0  0  0  0  0  0  0  0
   33.2390   29.1380   37.4260 N   0  0  0  0  0  0  0  0  0  0  0  0
   32.2730   29.1400   36.4620 C   0  0  0  0  0  0  0  0  0  0  0  0
   32.0680   28.0510   35.7220 N   0  0  0  0  0  0  0  0  0  0  0  0
   32.6630   26.0330   35.3290 H   0  0  0  0  0  0  0  0  0  0  0  0
   34.4120   26.0500   37.0860 H   0  0  0  0  0  0  0  0  0  0  0  0
   36.0010   27.1750   38.7020 C   0  0  0  0  0  0  0  0  0  0  0  0
   35.0030   28.1380   38.7020 C   0  0  0  0  0  0  0  0  0  0  0  0
   35.0340   29.1010   39.6830 C   0  0  0  0  0  0  0  0  0  0  0  0
   36.0120   29.1440   40.6610 C   0  0  0  0  0  0  0  0  0  0  0  0
   36.2240   29.9890   41.7000 N   0  0  0  0  0  0  0  0  0  0  0  0
   37.3460   29.5650   42.3540 C   0  0  0  0  0  0  0  0  0  0  0  0
   37.8060   28.4590   41.6970 N   0  0  0  0  0  0  0  0  0  0  0  0
   37.0010   28.1900   40.6600 C   0  0  0  0  0  0  0  0  0  0  0  0
   36.9960   27.2170   39.6940 C   0  0  0  0  0  0  0  0  0  0  0  0
   36.0110   26.3910   37.9350 H   0  0  0  0  0  0  0  0  0  0  0  0
   34.2550   29.8490   39.6800 H   0  0  0  0  0  0  0  0  0  0  0  0
   35.6720   30.8130   41.9880 H   0  0  0  0  0  0  0  0  0  0  0  0
   37.8550   29.9560   43.2270 H   0  0  0  0  0  0  0  0  0  0  0  0
   37.7480   26.4430   39.6450 H   0  0  0  0  0  0  0  0  0  0  0  0
   30.6410   30.2350   38.4880 F   0  0  0  0  0  0  0  0  0  0  0  0
   30.6920   30.8450   37.2770 C   0  0  0  0  0  0  0  0  0  0  0  0
   31.4710   30.3530   36.2530 C   0  0  0  0  0  0  0  0  0  0  0  0
   31.5190   30.9810   35.0180 C   0  0  0  0  0  0  0  0  0  0  0  0
   32.1200   30.6150   34.2050 H   0  0  0  0  0  0  0  0  0  0  0  0
   30.7470   32.1280   34.8530 C   0  0  0  0  0  0  0  0  0  0  0  0
   30.7770   32.6340   33.8760 H   0  0  0  0  0  0  0  0  0  0  0  0
   29.9720   32.6020   35.8950 C   0  0  0  0  0  3  0  0  0  0  0  0
   29.9250   31.9830   37.1170 C   0  0  0  0  0  3  0  0  0  0  0  0
  1  2  1  0  0  0  0
  2  8  1  0  0  0  0
  2  3  2  0  0  0  0
  3 10  1  0  0  0  0
  4  3  1  0  0  0  0
  5  4  2  0  0  0  0
  6  1  2  0  0  0  0
  6  5  1  0  0  0  0
  7  1  1  0  0  0  0
  9 17  1  0  0  0  0
 10  9  2  0  0  0  0
 10 11  1  0  0  0  0
 11 12  2  0  0  0  0
 12 13  1  0  0  0  0
 13 20  1  0  0  0  0
 13 14  1  0  0  0  0
 14 21  1  0  0  0  0
 15 14  2  0  0  0  0
 16 12  1  0  0  0  0
 16 15  1  0  0  0  0
 17 16  2  0  0  0  0
 18  9  1  0  0  0  0
 19 11  1  0  0  0  0
 22 17  1  0  0  0  0
 24 23  1  0  0  0  0
 25  5  1  0  0  0  0
 25 24  2  0  0  0  0
 26 25  1  0  0  0  0
 27 26  1  0  0  0  0
 28 26  2  0  0  0  0
 28 30  1  0  0  0  0
 29 28  1  0  0  0  0
 30 31  2  0  0  0  0
 31 24  1  0  0  0  0
M  END
>  <minimizedAffinity>
-6.06957769

$$$$

 OpenBabel03242521353D

 31 34  0  0  0  0  0  0  0  0999 V2000
   32.7060   27.0270   35.7960 C   0  0  0  0  0  0  0  0  0  0  0  0
   33.7280   26.9780   36.7810 C   0  0  0  0  0  0  0  0  0  0  0  0
   33.9220   28.1000   37.5730 C   0  0  0  0  0  0  0  0  0  0  0  0
   33.1460   29.1820   37.3840 N   0  0  0  0  0  0  0  0  0  0  0  0
   32.1710   29.1980   36.4290 C   0  0  0  0  0  0  0  0  0  0  0  0
   31.9730   28.1270   35.6600 N   0  0  0  0  0  0  0  0  0  0  0  0
   32.5930   26.1300   35.2040 H   0  0  0  0  0  0  0  0  0  0  0  0
   34.3580   26.1220   36.9450 H   0  0  0  0  0  0  0  0  0  0  0  0
   35.9300   27.2050   38.5950 C   0  0  0  0  0  0  0  0  0  0  0  0
   34.9360   28.1710   38.6140 C   0  0  0  0  0  0  0  0  0  0  0  0
   34.9780   29.1220   39.6060 C   0  0  0  0  0  0  0  0  0  0  0  0
   35.9640   29.1510   40.5760 C   0  0  0  0  0  0  0  0  0  0  0  0
   36.1870   29.9840   41.6230 N   0  0  0  0  0  0  0  0  0  0  0  0
   37.3140   29.5490   42.2630 C   0  0  0  0  0  0  0  0  0  0  0  0
   37.7640   28.4480   41.5900 N   0  0  0  0  0  0  0  0  0  0  0  0
   36.9490   28.1930   40.5570 C   0  0  0  0  0  0  0  0  0  0  0  0
   36.9330   27.2320   39.5790 C   0  0  0  0  0  0  0  0  0  0  0  0
   35.9310   26.4300   37.8200 H   0  0  0  0  0  0  0  0  0  0  0  0
   34.2020   29.8740   39.6180 H   0  0  0  0  0  0  0  0  0  0  0  0
   35.6410   30.8070   41.9250 H   0  0  0  0  0  0  0  0  0  0  0  0
   37.8310   29.9270   43.1360 H   0  0  0  0  0  0  0  0  0  0  0  0
   37.6820   26.4560   39.5150 H   0  0  0  0  0  0  0  0  0  0  0  0
   32.2530   30.7670   34.0840 F   0  0  0  0  0  0  0  0  0  0  0  0
   31.4270   31.1330   35.0980 C   0  0  0  0  0  0  0  0  0  0  0  0
   31.3490   30.4050   36.2630 C   0  0  0  0  0  0  0  0  0  0  0  0
   30.5040   30.7830   37.2950 C   0  0  0  0  0  0  0  0  0  0  0  0
   30.4270   30.2290   38.2130 H   0  0  0  0  0  0  0  0  0  0  0  0
   29.7390   31.9320   37.1070 C   0  0  0  0  0  0  0  0  0  0  0  0
   29.0660   32.2420   37.9200 H   0  0  0  0  0  0  0  0  0  0  0  0
   29.8360   32.6470   35.9280 C   0  0  0  0  0  3  0  0  0  0  0  0
   30.6700   32.2730   34.9070 C   0  0  0  0  0  3  0  0  0  0  0  0
  1  2  1  0  0  0  0
  2  8  1  0  0  0  0
  2  3  2  0  0  0  0
  3 10  1  0  0  0  0
  4  3  1  0  0  0  0
  5  4  2  0  0  0  0
  6  1  2  0  0  0  0
  6  5  1  0  0  0  0
  7  1  1  0  0  0  0
  9 10  2  0  0  0  0
  9 17  1  0  0  0  0
 10 11  1  0  0  0  0
 11 19  1  0  0  0  0
 11 12  2  0  0  0  0
 12 13  1  0  0  0  0
 13 20  1  0  0  0  0
 13 14  1  0  0  0  0
 14 21  1  0  0  0  0
 15 14  2  0  0  0  0
 16 12  1  0  0  0  0
 16 15  1  0  0  0  0
 17 16  2  0  0  0  0
 18  9  1  0  0  0  0
 22 17  1  0  0  0  0
 23 24  1  0  0  0  0
 24 25  1  0  0  0  0
 25  5  1  0  0  0  0
 25 26  2  0  0  0  0
 26 27  1  0  0  0  0
 28 26  1  0  0  0  0
 28 29  1  0  0  0  0
 30 28  2  0  0  0  0
 31 24  2  0  0  0  0
 31 30  1  0  0  0  0
M  END
>  <minimizedAffinity>
-5.97094154

$$$$

 OpenBabel03242521353D

 31 34  0  0  0  0  0  0  0  0999 V2000
   38.5160   33.8540   40.2310 C   0  0  0  0  0  0  0  0  0  0  0  0
   39.7930   33.6750   39.6350 C   0  0  0  0  0  0  0  0  0  0  0  0
   40.0140   32.5130   38.9090 C   0  0  0  0  0  0  0  0  0  0  0  0
   39.0260   31.6080   38.7970 N   0  0  0  0  0  0  0  0  0  0  0  0
   37.8090   31.8100   39.3820 C   0  0  0  0  0  0  0  0  0  0  0  0
   37.5820   32.9200   40.0820 N   0  0  0  0  0  0  0  0  0  0  0  0
   38.3910   34.7730   40.7850 H   0  0  0  0  0  0  0  0  0  0  0  0
   40.5940   34.3870   39.7150 H   0  0  0  0  0  0  0  0  0  0  0  0
   42.3880   32.9390   38.6610 C   0  0  0  0  0  0  0  0  0  0  0  0
   41.2780   32.2160   38.2530 C   0  0  0  0  0  0  0  0  0  0  0  0
   41.4480   31.2750   37.2650 C   0  0  0  0  0  0  0  0  0  0  0  0
   42.6720   31.0260   36.6700 C   0  0  0  0  0  0  0  0  0  0  0  0
   43.0510   30.1600   35.6970 N   0  0  0  0  0  0  0  0  0  0  0  0
   44.3910   30.3330   35.4910 C   0  0  0  0  0  0  0  0  0  0  0  0
   44.8110   31.3110   36.3480 N   0  0  0  0  0  0  0  0  0  0  0  0
   43.7710   31.7430   37.0750 C   0  0  0  0  0  0  0  0  0  0  0  0
   43.6310   32.6880   38.0580 C   0  0  0  0  0  0  0  0  0  0  0  0
   42.2930   33.6990   39.4470 H   0  0  0  0  0  0  0  0  0  0  0  0
   40.5810   30.7130   36.9490 H   0  0  0  0  0  0  0  0  0  0  0  0
   42.4780   29.4760   35.1770 H   0  0  0  0  0  0  0  0  0  0  0  0
   45.0780   29.8460   34.8090 H   0  0  0  0  0  0  0  0  0  0  0  0
   44.4620   33.2810   38.4160 H   0  0  0  0  0  0  0  0  0  0  0  0
   36.2970   30.8600   41.5690 F   0  0  0  0  0  0  0  0  0  0  0  0
   36.0540   30.3630   40.3290 C   0  0  0  0  0  0  0  0  0  0  0  0
   36.7620   30.7900   39.2290 C   0  0  0  0  0  0  0  0  0  0  0  0
   36.5090   30.2790   37.9650 C   0  0  0  0  0  0  0  0  0  0  0  0
   37.0490   30.5980   37.0920 H   0  0  0  0  0  0  0  0  0  0  0  0
   35.5100   29.3140   37.8540 C   0  0  0  0  0  0  0  0  0  0  0  0
   35.3020   28.9010   36.8560 H   0  0  0  0  0  0  0  0  0  0  0  0
   34.8140   28.9010   38.9740 C   0  0  0  0  0  3  0  0  0  0  0  0
   35.0620   29.4060   40.2230 C   0  0  0  0  0  3  0  0  0  0  0  0
  1  7  1  0  0  0  0
  2  8  1  0  0  0  0
  2  1  2  0  0  0  0
  3  2  1  0  0  0  0
  4  3  2  0  0  0  0
  4  5  1  0  0  0  0
  5  6  2  0  0  0  0
  6  1  1  0  0  0  0
  9 18  1  0  0  0  0
 10  9  1  0  0  0  0
 10  3  1  0  0  0  0
 11 10  2  0  0  0  0
 12 16  2  0  0  0  0
 12 11  1  0  0  0  0
 13 12  1  0  0  0  0
 14 13  1  0  0  0  0
 14 15  2  0  0  0  0
 15 16  1  0  0  0  0
 16 17  1  0  0  0  0
 17 22  1  0  0  0  0
 17  9  2  0  0  0  0
 19 11  1  0  0  0  0
 20 13  1  0  0  0  0
 21 14  1  0  0  0  0
 24 23  1  0  0  0  0
 25  5  1  0  0  0  0
 25 24  2  0  0  0  0
 26 25  1  0  0  0  0
 27 26  1  0  0  0  0
 28 26  2  0  0  0  0
 28 30  1  0  0  0  0
 29 28  1  0  0  0  0
 30 31  2  0  0  0  0
 31 24  1  0  0  0  0
M  END
>  <minimizedAffinity>
-5.92089367

$$$$

 OpenBabel03242521353D

 31 34  0  0  0  0  0  0  0  0999 V2000
   35.8230   29.6710   37.9260 C   0  0  0  0  0  0  0  0  0  0  0  0
   36.8470   30.6550   37.8800 C   0  0  0  0  0  0  0  0  0  0  0  0
   37.8830   30.5580   38.7970 C   0  0  0  0  0  0  0  0  0  0  0  0
   37.8820   29.5500   39.6870 N   0  0  0  0  0  0  0  0  0  0  0  0
   36.8830   28.6190   39.7060 C   0  0  0  0  0  0  0  0  0  0  0  0
   35.8820   28.7000   38.8310 N   0  0  0  0  0  0  0  0  0  0  0  0
   35.0380   29.7890   37.1920 H   0  0  0  0  0  0  0  0  0  0  0  0
   36.8630   31.4680   37.1760 H   0  0  0  0  0  0  0  0  0  0  0  0
   39.2340   32.1190   40.0680 C   0  0  0  0  0  0  0  0  0  0  0  0
   38.9880   31.5030   38.8500 C   0  0  0  0  0  0  0  0  0  0  0  0
   39.7980   31.8240   37.7880 C   0  0  0  0  0  0  0  0  0  0  0  0
   40.8390   32.7310   37.8860 C   0  0  0  0  0  0  0  0  0  0  0  0
   41.7410   33.1830   36.9790 N   0  0  0  0  0  0  0  0  0  0  0  0
   42.5530   34.0790   37.6170 C   0  0  0  0  0  0  0  0  0  0  0  0
   42.1300   34.1590   38.9140 N   0  0  0  0  0  0  0  0  0  0  0  0
   41.0830   33.3410   39.0920 C   0  0  0  0  0  0  0  0  0  0  0  0
   40.2910   33.0390   40.1700 C   0  0  0  0  0  0  0  0  0  0  0  0
   38.6100   31.8880   40.9390 H   0  0  0  0  0  0  0  0  0  0  0  0
   39.6030   31.3430   36.8400 H   0  0  0  0  0  0  0  0  0  0  0  0
   41.8410   32.9310   35.9830 H   0  0  0  0  0  0  0  0  0  0  0  0
   43.3920   34.6630   37.2600 H   0  0  0  0  0  0  0  0  0  0  0  0
   40.4370   33.4880   41.1430 H   0  0  0  0  0  0  0  0  0  0  0  0
   37.1030   25.9040   38.9660 F   0  0  0  0  0  0  0  0  0  0  0  0
   37.0380   26.2290   40.2830 C   0  0  0  0  0  0  0  0  0  0  0  0
   36.9290   27.5370   40.6980 C   0  0  0  0  0  0  0  0  0  0  0  0
   36.8630   27.8630   42.0440 C   0  0  0  0  0  0  0  0  0  0  0  0
   36.7790   28.8770   42.3920 H   0  0  0  0  0  0  0  0  0  0  0  0
   36.9100   26.8140   42.9590 C   0  0  0  0  0  0  0  0  0  0  0  0
   36.8570   27.0610   44.0300 H   0  0  0  0  0  0  0  0  0  0  0  0
   37.0180   25.5090   42.5170 C   0  0  0  0  0  3  0  0  0  0  0  0
   37.0840   25.1860   41.1870 C   0  0  0  0  0  3  0  0  0  0  0  0
  1  6  1  0  0  0  0
  2  1  2  0  0  0  0
  2  3  1  0  0  0  0
  3 10  1  0  0  0  0
  3  4  2  0  0  0  0
  4  5  1  0  0  0  0
  5 25  1  0  0  0  0
  6  5  2  0  0  0  0
  7  1  1  0  0  0  0
  8  2  1  0  0  0  0
  9 17  1  0  0  0  0
  9 18  1  0  0  0  0
 10  9  2  0  0  0  0
 11 12  2  0  0  0  0
 11 10  1  0  0  0  0
 12 16  1  0  0  0  0
 13 14  1  0  0  0  0
 13 12  1  0  0  0  0
 14 15  2  0  0  0  0
 15 16  1  0  0  0  0
 16 17  2  0  0  0  0
 17 22  1  0  0  0  0
 19 11  1  0  0  0  0
 20 13  1  0  0  0  0
 21 14  1  0  0  0  0
 23 24  1  0  0  0  0
 24 25  2  0  0  0  0
 24 31  1  0  0  0  0
 25 26  1  0  0  0  0
 26 27  1  0  0  0  0
 26 28  2  0  0  0  0
 28 29  1  0  0  0  0
 30 28  1  0  0  0  0
 31 30  2  0  0  0  0
M  END
>  <minimizedAffinity>
-5.79314804

$$$$

 OpenBabel03242521353D

 31 34  0  0  0  0  0  0  0  0999 V2000
   37.7410   31.9890   40.1950 C   0  0  0  0  0  0  0  0  0  0  0  0
   36.9490   31.5550   39.0980 C   0  0  0  0  0  0  0  0  0  0  0  0
   36.7040   30.1960   38.9720 C   0  0  0  0  0  0  0  0  0  0  0  0
   37.2190   29.3460   39.8780 N   0  0  0  0  0  0  0  0  0  0  0  0
   37.9770   29.7950   40.9210 C   0  0  0  0  0  0  0  0  0  0  0  0
   38.2200   31.0970   41.0560 N   0  0  0  0  0  0  0  0  0  0  0  0
   37.9050   33.0560   40.2520 H   0  0  0  0  0  0  0  0  0  0  0  0
   36.5300   32.2200   38.3640 H   0  0  0  0  0  0  0  0  0  0  0  0
   36.3950   29.7790   36.6030 C   0  0  0  0  0  0  0  0  0  0  0  0
   35.9090   29.6300   37.8930 C   0  0  0  0  0  0  0  0  0  0  0  0
   34.7190   28.9630   38.0610 C   0  0  0  0  0  0  0  0  0  0  0  0
   33.9960   28.4400   37.0020 C   0  0  0  0  0  0  0  0  0  0  0  0
   32.8230   27.7610   36.9490 N   0  0  0  0  0  0  0  0  0  0  0  0
   32.5690   27.4820   35.6350 C   0  0  0  0  0  0  0  0  0  0  0  0
   33.5990   27.9990   34.9020 N   0  0  0  0  0  0  0  0  0  0  0  0
   34.4790   28.5880   35.7250 C   0  0  0  0  0  0  0  0  0  0  0  0
   35.6640   29.2490   35.5270 C   0  0  0  0  0  0  0  0  0  0  0  0
   37.3420   30.3050   36.4280 H   0  0  0  0  0  0  0  0  0  0  0  0
   34.3420   28.8480   39.0670 H   0  0  0  0  0  0  0  0  0  0  0  0
   32.1990   27.4810   37.7230 H   0  0  0  0  0  0  0  0  0  0  0  0
   31.7460   26.9610   35.1620 H   0  0  0  0  0  0  0  0  0  0  0  0
   36.0910   29.3940   34.5450 H   0  0  0  0  0  0  0  0  0  0  0  0
   36.3090   28.1620   42.5090 F   0  0  0  0  0  0  0  0  0  0  0  0
   37.6570   28.0520   42.6340 C   0  0  0  0  0  0  0  0  0  0  0  0
   38.5150   28.8250   41.8850 C   0  0  0  0  0  0  0  0  0  0  0  0
   39.8910   28.7100   42.0170 C   0  0  0  0  0  0  0  0  0  0  0  0
   40.5800   29.3020   41.4420 H   0  0  0  0  0  0  0  0  0  0  0  0
   40.3690   27.7820   42.9390 C   0  0  0  0  0  0  0  0  0  0  0  0
   41.4590   27.6820   43.0520 H   0  0  0  0  0  0  0  0  0  0  0  0
   39.4870   27.0180   43.6800 C   0  0  0  0  0  3  0  0  0  0  0  0
   38.1270   27.1310   43.5490 C   0  0  0  0  0  3  0  0  0  0  0  0
  1  7  1  0  0  0  0
  1  6  1  0  0  0  0
  2  1  2  0  0  0  0
  3  2  1  0  0  0  0
  3  4  2  0  0  0  0
  4  5  1  0  0  0  0
  5  6  2  0  0  0  0
  5 25  1  0  0  0  0
  8  2  1  0  0  0  0
  9 10  1  0  0  0  0
 10 11  2  0  0  0  0
 10  3  1  0  0  0  0
 11 19  1  0  0  0  0
 12 11  1  0  0  0  0
 13 12  1  0  0  0  0
 13 20  1  0  0  0  0
 14 13  1  0  0  0  0
 15 14  2  0  0  0  0
 15 16  1  0  0  0  0
 16 12  2  0  0  0  0
 17 16  1  0  0  0  0
 17  9  2  0  0  0  0
 18  9  1  0  0  0  0
 21 14  1  0  0  0  0
 22 17  1  0  0  0  0
 23 24  1  0  0  0  0
 24 31  1  0  0  0  0
 25 26  1  0  0  0  0
 25 24  2  0  0  0  0
 26 28  2  0  0  0  0
 27 26  1  0  0  0  0
 28 29  1  0  0  0  0
 28 30  1  0  0  0  0
 31 30  2  0  0  0  0
M  END
>  <minimizedAffinity>
-5.65812922

$$$$

 OpenBabel03242521353D

 31 34  0  0  0  0  0  0  0  0999 V2000
   40.1460   26.9110   43.5420 C   0  0  0  0  0  0  0  0  0  0  0  0
   39.8250   28.2370   43.1460 C   0  0  0  0  0  0  0  0  0  0  0  0
   39.0410   28.4060   42.0140 C   0  0  0  0  0  0  0  0  0  0  0  0
   38.6180   27.3230   41.3390 N   0  0  0  0  0  0  0  0  0  0  0  0
   38.9440   26.0610   41.7450 C   0  0  0  0  0  0  0  0  0  0  0  0
   39.6960   25.8830   42.8300 N   0  0  0  0  0  0  0  0  0  0  0  0
   40.7580   26.8310   44.4290 H   0  0  0  0  0  0  0  0  0  0  0  0
   40.1550   29.1150   43.6740 H   0  0  0  0  0  0  0  0  0  0  0  0
   37.4100   29.8020   40.8870 C   0  0  0  0  0  0  0  0  0  0  0  0
   38.6460   29.7120   41.5090 C   0  0  0  0  0  0  0  0  0  0  0  0
   39.4050   30.8530   41.6050 C   0  0  0  0  0  0  0  0  0  0  0  0
   38.9870   32.0760   41.1090 C   0  0  0  0  0  0  0  0  0  0  0  0
   39.5690   33.3010   41.0980 N   0  0  0  0  0  0  0  0  0  0  0  0
   38.7080   34.1600   40.4750 C   0  0  0  0  0  0  0  0  0  0  0  0
   37.6060   33.4400   40.1120 N   0  0  0  0  0  0  0  0  0  0  0  0
   37.7620   32.1640   40.4930 C   0  0  0  0  0  0  0  0  0  0  0  0
   36.9830   31.0410   40.3830 C   0  0  0  0  0  0  0  0  0  0  0  0
   36.7740   28.9130   40.7920 H   0  0  0  0  0  0  0  0  0  0  0  0
   40.3680   30.7810   42.0900 H   0  0  0  0  0  0  0  0  0  0  0  0
   40.4870   33.5870   41.4760 H   0  0  0  0  0  0  0  0  0  0  0  0
   38.7870   35.2190   40.2590 H   0  0  0  0  0  0  0  0  0  0  0  0
   36.0110   31.0530   39.9100 H   0  0  0  0  0  0  0  0  0  0  0  0
   36.4910   24.7880   42.3210 F   0  0  0  0  0  0  0  0  0  0  0  0
   37.2510   24.3270   41.2950 C   0  0  0  0  0  0  0  0  0  0  0  0
   38.4560   24.9100   40.9720 C   0  0  0  0  0  0  0  0  0  0  0  0
   39.2290   24.4360   39.9230 C   0  0  0  0  0  0  0  0  0  0  0  0
   40.1720   24.8750   39.6520 H   0  0  0  0  0  0  0  0  0  0  0  0
   38.7380   23.3440   39.2100 C   0  0  0  0  0  0  0  0  0  0  0  0
   39.3440   22.9590   38.3760 H   0  0  0  0  0  0  0  0  0  0  0  0
   37.5260   22.7750   39.5540 C   0  0  0  0  0  3  0  0  0  0  0  0
   36.7610   23.2440   40.5900 C   0  0  0  0  0  3  0  0  0  0  0  0
  1  7  1  0  0  0  0
  2  1  1  0  0  0  0
  2  8  1  0  0  0  0
  3  2  2  0  0  0  0
  4  5  2  0  0  0  0
  4  3  1  0  0  0  0
  5  6  1  0  0  0  0
  6  1  2  0  0  0  0
  9 10  1  0  0  0  0
 10 11  2  0  0  0  0
 10  3  1  0  0  0  0
 11 19  1  0  0  0  0
 12 11  1  0  0  0  0
 13 12  1  0  0  0  0
 13 20  1  0  0  0  0
 14 13  1  0  0  0  0
 15 14  2  0  0  0  0
 15 16  1  0  0  0  0
 16 12  2  0  0  0  0
 17 16  1  0  0  0  0
 17  9  2  0  0  0  0
 18  9  1  0  0  0  0
 21 14  1  0  0  0  0
 22 17  1  0  0  0  0
 24 23  1  0  0  0  0
 25 24  1  0  0  0  0
 25  5  1  0  0  0  0
 26 25  2  0  0  0  0
 27 26  1  0  0  0  0
 28 30  2  0  0  0  0
 28 26  1  0  0  0  0
 29 28  1  0  0  0  0
 30 31  1  0  0  0  0
 31 24  2  0  0  0  0
M  END
>  <minimizedAffinity>
-5.6252718

$$$$

 OpenBabel03242521353D

 31 34  0  0  0  0  0  0  0  0999 V2000
   37.4130   33.0100   40.0030 C   0  0  0  0  0  0  0  0  0  0  0  0
   38.7420   33.1820   39.5320 C   0  0  0  0  0  0  0  0  0  0  0  0
   39.6610   32.1770   39.7970 C   0  0  0  0  0  0  0  0  0  0  0  0
   39.2680   31.0890   40.4810 N   0  0  0  0  0  0  0  0  0  0  0  0
   37.9830   30.9520   40.9200 C   0  0  0  0  0  0  0  0  0  0  0  0
   37.0890   31.9090   40.6730 N   0  0  0  0  0  0  0  0  0  0  0  0
   36.7340   33.8180   39.7730 H   0  0  0  0  0  0  0  0  0  0  0  0
   39.0740   34.0460   38.9840 H   0  0  0  0  0  0  0  0  0  0  0  0
   41.9830   32.6550   40.3050 C   0  0  0  0  0  0  0  0  0  0  0  0
   41.0500   32.2390   39.3680 C   0  0  0  0  0  0  0  0  0  0  0  0
   41.4990   31.9150   38.1100 C   0  0  0  0  0  0  0  0  0  0  0  0
   42.8330   31.9880   37.7470 C   0  0  0  0  0  0  0  0  0  0  0  0
   43.4750   31.7210   36.5830 N   0  0  0  0  0  0  0  0  0  0  0  0
   44.8050   31.9660   36.7810 C   0  0  0  0  0  0  0  0  0  0  0  0
   44.9540   32.3820   38.0740 N   0  0  0  0  0  0  0  0  0  0  0  0
   43.7560   32.4010   38.6760 C   0  0  0  0  0  0  0  0  0  0  0  0
   43.3380   32.7310   39.9390 C   0  0  0  0  0  0  0  0  0  0  0  0
   41.6640   32.9220   41.3200 H   0  0  0  0  0  0  0  0  0  0  0  0
   40.7700   31.5910   37.3810 H   0  0  0  0  0  0  0  0  0  0  0  0
   43.0830   31.3910   35.6860 H   0  0  0  0  0  0  0  0  0  0  0  0
   45.6550   31.8790   36.1150 H   0  0  0  0  0  0  0  0  0  0  0  0
   44.0200   33.0600   40.7100 H   0  0  0  0  0  0  0  0  0  0  0  0
   39.0450   30.3510   43.4650 F   0  0  0  0  0  0  0  0  0  0  0  0
   38.1520   29.4980   42.9020 C   0  0  0  0  0  0  0  0  0  0  0  0
   37.6040   29.7420   41.6630 C   0  0  0  0  0  0  0  0  0  0  0  0
   36.6910   28.8680   41.0920 C   0  0  0  0  0  0  0  0  0  0  0  0
   36.2500   29.0390   40.1270 H   0  0  0  0  0  0  0  0  0  0  0  0
   36.3530   27.7310   41.8230 C   0  0  0  0  0  0  0  0  0  0  0  0
   35.6300   27.0300   41.3790 H   0  0  0  0  0  0  0  0  0  0  0  0
   36.9180   27.5070   43.0640 C   0  0  0  0  0  3  0  0  0  0  0  0
   37.8180   28.3710   43.6290 C   0  0  0  0  0  3  0  0  0  0  0  0
  1  6  1  0  0  0  0
  2  3  1  0  0  0  0
  2  1  2  0  0  0  0
  3  4  2  0  0  0  0
  4  5  1  0  0  0  0
  5 25  1  0  0  0  0
  6  5  2  0  0  0  0
  7  1  1  0  0  0  0
  8  2  1  0  0  0  0
  9 18  1  0  0  0  0
 10  3  1  0  0  0  0
 10  9  2  0  0  0  0
 11 10  1  0  0  0  0
 12 11  2  0  0  0  0
 12 16  1  0  0  0  0
 13 14  1  0  0  0  0
 13 12  1  0  0  0  0
 14 15  2  0  0  0  0
 15 16  1  0  0  0  0
 16 17  2  0  0  0  0
 17  9  1  0  0  0  0
 17 22  1  0  0  0  0
 19 11  1  0  0  0  0
 20 13  1  0  0  0  0
 21 14  1  0  0  0  0
 24 23  1  0  0  0  0
 24 31  1  0  0  0  0
 25 24  2  0  0  0  0
 26 25  1  0  0  0  0
 26 28  2  0  0  0  0
 27 26  1  0  0  0  0
 28 30  1  0  0  0  0
 29 28  1  0  0  0  0
 30 31  2  0  0  0  0
M  END
>  <minimizedAffinity>
-5.62457657

$$$$

 OpenBabel03242521353D

 31 34  0  0  0  0  0  0  0  0999 V2000
   37.4970   28.1470   43.6800 C   0  0  0  0  0  0  0  0  0  0  0  0
   37.1800   27.0060   42.8950 C   0  0  0  0  0  0  0  0  0  0  0  0
   37.1740   27.1470   41.5150 C   0  0  0  0  0  0  0  0  0  0  0  0
   37.4640   28.3430   40.9740 N   0  0  0  0  0  0  0  0  0  0  0  0
   37.7640   29.4220   41.7550 C   0  0  0  0  0  0  0  0  0  0  0  0
   37.7740   29.3010   43.0820 N   0  0  0  0  0  0  0  0  0  0  0  0
   37.4880   27.9890   44.7480 H   0  0  0  0  0  0  0  0  0  0  0  0
   36.9460   26.0420   43.3110 H   0  0  0  0  0  0  0  0  0  0  0  0
   36.9150   24.7680   41.1250 C   0  0  0  0  0  0  0  0  0  0  0  0
   36.8660   26.0530   40.6070 C   0  0  0  0  0  0  0  0  0  0  0  0
   36.5320   26.2030   39.2820 C   0  0  0  0  0  0  0  0  0  0  0  0
   36.2460   25.1300   38.4550 C   0  0  0  0  0  0  0  0  0  0  0  0
   35.9020   25.0580   37.1450 N   0  0  0  0  0  0  0  0  0  0  0  0
   35.7330   23.7370   36.8360 C   0  0  0  0  0  0  0  0  0  0  0  0
   35.9800   23.0190   37.9720 N   0  0  0  0  0  0  0  0  0  0  0  0
   36.2940   23.8580   38.9690 C   0  0  0  0  0  0  0  0  0  0  0  0
   36.6250   23.6780   40.2880 C   0  0  0  0  0  0  0  0  0  0  0  0
   37.1770   24.6070   42.1780 H   0  0  0  0  0  0  0  0  0  0  0  0
   36.4950   27.2050   38.8810 H   0  0  0  0  0  0  0  0  0  0  0  0
   35.7760   25.8240   36.4640 H   0  0  0  0  0  0  0  0  0  0  0  0
   35.4600   23.2500   35.9080 H   0  0  0  0  0  0  0  0  0  0  0  0
   36.6770   22.7000   40.7450 H   0  0  0  0  0  0  0  0  0  0  0  0
   35.7730   31.0370   40.5740 F   0  0  0  0  0  0  0  0  0  0  0  0
   37.0640   31.4560   40.5540 C   0  0  0  0  0  0  0  0  0  0  0  0
   38.0740   30.7070   41.1140 C   0  0  0  0  0  0  0  0  0  0  0  0
   39.3910   31.1400   41.0900 C   0  0  0  0  0  0  0  0  0  0  0  0
   40.1960   30.5720   41.5220 H   0  0  0  0  0  0  0  0  0  0  0  0
   39.6510   32.3630   40.4750 C   0  0  0  0  0  0  0  0  0  0  0  0
   40.6930   32.7150   40.4500 H   0  0  0  0  0  0  0  0  0  0  0  0
   38.6200   33.0960   39.9200 C   0  0  0  0  0  3  0  0  0  0  0  0
   37.3180   32.6690   39.9430 C   0  0  0  0  0  3  0  0  0  0  0  0
  1  7  1  0  0  0  0
  2  8  1  0  0  0  0
  2  1  2  0  0  0  0
  3  2  1  0  0  0  0
  4  3  2  0  0  0  0
  4  5  1  0  0  0  0
  5  6  2  0  0  0  0
  6  1  1  0  0  0  0
  9 18  1  0  0  0  0
 10  9  1  0  0  0  0
 10  3  1  0  0  0  0
 11 10  2  0  0  0  0
 12 16  2  0  0  0  0
 12 11  1  0  0  0  0
 13 12  1  0  0  0  0
 14 13  1  0  0  0  0
 14 15  2  0  0  0  0
 15 16  1  0  0  0  0
 16 17  1  0  0  0  0
 17 22  1  0  0  0  0
 17  9  2  0  0  0  0
 19 11  1  0  0  0  0
 20 13  1  0  0  0  0
 21 14  1  0  0  0  0
 24 23  1  0  0  0  0
 24 25  1  0  0  0  0
 25  5  1  0  0  0  0
 26 25  2  0  0  0  0
 26 27  1  0  0  0  0
 28 26  1  0  0  0  0
 29 28  1  0  0  0  0
 30 31  1  0  0  0  0
 30 28  2  0  0  0  0
 31 24  2  0  0  0  0
M  END
>  <minimizedAffinity>
-5.61889267

$$$$

 OpenBabel03242521353D

 31 34  0  0  0  0  0  0  0  0999 V2000
   37.1760   31.7600   38.9130 C   0  0  0  0  0  0  0  0  0  0  0  0
   38.3550   31.6080   38.1340 C   0  0  0  0  0  0  0  0  0  0  0  0
   39.2210   30.5750   38.4610 C   0  0  0  0  0  0  0  0  0  0  0  0
   38.9210   29.7640   39.4900 N   0  0  0  0  0  0  0  0  0  0  0  0
   37.7800   29.9350   40.2200 C   0  0  0  0  0  0  0  0  0  0  0  0
   36.9380   30.9230   39.9180 N   0  0  0  0  0  0  0  0  0  0  0  0
   36.5330   32.5770   38.6210 H   0  0  0  0  0  0  0  0  0  0  0  0
   38.6110   32.2480   37.3090 H   0  0  0  0  0  0  0  0  0  0  0  0
   40.6530   29.0340   37.2560 C   0  0  0  0  0  0  0  0  0  0  0  0
   40.4580   30.3180   37.7400 C   0  0  0  0  0  0  0  0  0  0  0  0
   41.4390   31.2520   37.5060 C   0  0  0  0  0  0  0  0  0  0  0  0
   42.6010   30.9610   36.8120 C   0  0  0  0  0  0  0  0  0  0  0  0
   43.6760   31.7190   36.4780 N   0  0  0  0  0  0  0  0  0  0  0  0
   44.5440   30.9210   35.7870 C   0  0  0  0  0  0  0  0  0  0  0  0
   43.9810   29.6780   35.7110 N   0  0  0  0  0  0  0  0  0  0  0  0
   42.7930   29.6880   36.3330 C   0  0  0  0  0  0  0  0  0  0  0  0
   41.8320   28.7360   36.5520 C   0  0  0  0  0  0  0  0  0  0  0  0
   39.8930   28.2600   37.4220 H   0  0  0  0  0  0  0  0  0  0  0  0
   41.2850   32.2520   37.8840 H   0  0  0  0  0  0  0  0  0  0  0  0
   43.8550   32.7160   36.6810 H   0  0  0  0  0  0  0  0  0  0  0  0
   45.5100   31.1310   35.3460 H   0  0  0  0  0  0  0  0  0  0  0  0
   41.9290   27.7190   36.1970 H   0  0  0  0  0  0  0  0  0  0  0  0
   36.8320   27.3080   39.8120 F   0  0  0  0  0  0  0  0  0  0  0  0
   37.0370   27.7490   41.0790 C   0  0  0  0  0  0  0  0  0  0  0  0
   37.4970   29.0210   41.3350 C   0  0  0  0  0  0  0  0  0  0  0  0
   37.7040   29.4660   42.6320 C   0  0  0  0  0  0  0  0  0  0  0  0
   38.0630   30.4550   42.8550 H   0  0  0  0  0  0  0  0  0  0  0  0
   37.4260   28.5750   43.6660 C   0  0  0  0  0  0  0  0  0  0  0  0
   37.5870   28.9190   44.6990 H   0  0  0  0  0  0  0  0  0  0  0  0
   36.9650   27.3030   43.3840 C   0  0  0  0  0  3  0  0  0  0  0  0
   36.7610   26.8620   42.1020 C   0  0  0  0  0  3  0  0  0  0  0  0
  1  6  1  0  0  0  0
  2  3  1  0  0  0  0
  2  1  2  0  0  0  0
  3  4  2  0  0  0  0
  4  5  1  0  0  0  0
  5 25  1  0  0  0  0
  6  5  2  0  0  0  0
  7  1  1  0  0  0  0
  8  2  1  0  0  0  0
  9 18  1  0  0  0  0
  9 10  1  0  0  0  0
 10  3  1  0  0  0  0
 11 10  2  0  0  0  0
 11 19  1  0  0  0  0
 12 11  1  0  0  0  0
 13 20  1  0  0  0  0
 13 12  1  0  0  0  0
 14 13  1  0  0  0  0
 15 14  2  0  0  0  0
 15 16  1  0  0  0  0
 16 17  1  0  0  0  0
 16 12  2  0  0  0  0
 17  9  2  0  0  0  0
 21 14  1  0  0  0  0
 22 17  1  0  0  0  0
 23 24  1  0  0  0  0
 24 25  2  0  0  0  0
 24 31  1  0  0  0  0
 25 26  1  0  0  0  0
 26 27  1  0  0  0  0
 26 28  2  0  0  0  0
 28 29  1  0  0  0  0
 30 28  1  0  0  0  0
 31 30  2  0  0  0  0
M  END
>  <minimizedAffinity>
-5.61713457

$$$$
