
 OpenBabel03252503583D

 20 21  0  0  0  0  0  0  0  0999 V2000
   37.5100   32.0520   39.5690 C   0  0  0  0  0  0  0  0  0  0  0  0
   37.3360   31.5870   38.2640 C   0  0  0  0  0  0  0  0  0  0  0  0
   37.2940   30.1990   38.0890 C   0  0  0  0  0  0  0  0  0  0  0  0
   37.4220   29.3950   39.1870 N   0  0  0  0  0  0  0  0  0  0  0  0
   37.5860   29.9050   40.4160 C   0  0  0  0  0  0  0  0  0  0  0  0
   37.6340   31.2260   40.6310 N   0  0  0  0  0  0  0  0  0  0  0  0
   37.2380   32.2580   37.4220 H   0  0  0  0  0  0  0  0  0  0  0  0
   37.1620   29.7640   37.1080 H   0  0  0  0  0  0  0  0  0  0  0  0
   35.4440   28.5350   41.4280 F   0  0  0  0  0  0  0  0  0  0  0  0
   36.6110   28.3110   42.0350 C   0  0  0  0  0  0  0  0  0  0  0  0
   37.7170   28.9900   41.5480 C   0  0  0  0  0  0  0  0  0  0  0  0
   38.9630   28.8050   42.1320 C   0  0  0  0  0  0  0  0  0  0  0  0
   39.8240   29.3520   41.7290 H   0  0  0  0  0  0  0  0  0  0  0  0
   39.1820   27.9710   43.1910 C   0  0  0  0  0  0  0  0  0  0  0  0
   40.1350   27.8210   43.6490 H   0  0  0  0  0  0  0  0  0  0  0  0
   38.0880   27.2960   43.6780 C   0  0  0  0  0  3  0  0  0  0  0  0
   36.8530   27.4750   43.1050 C   0  0  0  0  0  3  0  0  0  0  0  0
   37.5490   33.4820   39.7060 C   0  0  0  0  0  0  0  0  0  0  0  0
   38.4260   34.1610   40.2940 O   0  0  0  0  0  0  0  0  0  0  0  0
   36.8610   34.2610   39.3510 H   0  0  0  0  0  0  0  0  0  0  0  0
  1 18  1  0  0  0  0
  1  6  1  0  0  0  0
  2  1  2  0  0  0  0
  3  2  1  0  0  0  0
  3  4  2  0  0  0  0
  4  5  1  0  0  0  0
  5  6  2  0  0  0  0
  5 11  1  0  0  0  0
  7  2  1  0  0  0  0
  8  3  1  0  0  0  0
  9 10  1  0  0  0  0
 10 17  1  0  0  0  0
 11 10  2  0  0  0  0
 11 12  1  0  0  0  0
 12 14  2  0  0  0  0
 13 12  1  0  0  0  0
 14 15  1  0  0  0  0
 14 16  1  0  0  0  0
 17 16  2  0  0  0  0
 18 19  2  0  0  0  0
 20 18  1  0  0  0  0
M  END
>  <minimizedAffinity>
-4.59992838

$$$$

 OpenBabel03252503583D

 20 21  0  0  0  0  0  0  0  0999 V2000
   37.3330   30.8710   38.2650 C   0  0  0  0  0  0  0  0  0  0  0  0
   37.2740   32.2340   38.5620 C   0  0  0  0  0  0  0  0  0  0  0  0
   37.3080   32.5870   39.9160 C   0  0  0  0  0  0  0  0  0  0  0  0
   37.3970   31.5930   40.8510 N   0  0  0  0  0  0  0  0  0  0  0  0
   37.4500   30.3000   40.4990 C   0  0  0  0  0  0  0  0  0  0  0  0
   37.4200   29.9160   39.2170 N   0  0  0  0  0  0  0  0  0  0  0  0
   37.2050   32.9890   37.7910 H   0  0  0  0  0  0  0  0  0  0  0  0
   37.2660   33.6220   40.2240 H   0  0  0  0  0  0  0  0  0  0  0  0
   35.3290   28.7040   41.1670 F   0  0  0  0  0  0  0  0  0  0  0  0
   36.4500   28.4960   41.8610 C   0  0  0  0  0  0  0  0  0  0  0  0
   37.5430   29.2880   41.5480 C   0  0  0  0  0  0  0  0  0  0  0  0
   38.7410   29.1250   42.2310 C   0  0  0  0  0  0  0  0  0  0  0  0
   39.5930   29.7620   41.9650 H   0  0  0  0  0  0  0  0  0  0  0  0
   38.9230   28.2060   43.2250 C   0  0  0  0  0  0  0  0  0  0  0  0
   39.8390   28.0720   43.7570 H   0  0  0  0  0  0  0  0  0  0  0  0
   37.8410   27.4190   43.5390 C   0  0  0  0  0  3  0  0  0  0  0  0
   36.6530   27.5750   42.8680 C   0  0  0  0  0  3  0  0  0  0  0  0
   37.2950   30.5510   36.8640 C   0  0  0  0  0  0  0  0  0  0  0  0
   36.6400   29.6310   36.3170 O   0  0  0  0  0  0  0  0  0  0  0  0
   37.8010   31.0090   36.0040 H   0  0  0  0  0  0  0  0  0  0  0  0
  1  2  2  0  0  0  0
  1  6  1  0  0  0  0
  2  3  1  0  0  0  0
  3  8  1  0  0  0  0
  3  4  2  0  0  0  0
  5  4  1  0  0  0  0
  5 11  1  0  0  0  0
  6  5  2  0  0  0  0
  7  2  1  0  0  0  0
  9 10  1  0  0  0  0
 10 17  1  0  0  0  0
 11 10  2  0  0  0  0
 11 12  1  0  0  0  0
 12 14  2  0  0  0  0
 13 12  1  0  0  0  0
 14 16  1  0  0  0  0
 14 15  1  0  0  0  0
 17 16  2  0  0  0  0
 18  1  1  0  0  0  0
 19 18  2  0  0  0  0
 20 18  1  0  0  0  0
M  END
>  <minimizedAffinity>
-4.53424978

$$$$

 OpenBabel03252503583D

 20 21  0  0  0  0  0  0  0  0999 V2000
   39.1900   31.4630   39.0780 C   0  0  0  0  0  0  0  0  0  0  0  0
   38.3980   32.6090   38.9800 C   0  0  0  0  0  0  0  0  0  0  0  0
   37.2830   32.6790   39.8220 C   0  0  0  0  0  0  0  0  0  0  0  0
   37.0400   31.6410   40.6770 N   0  0  0  0  0  0  0  0  0  0  0  0
   37.8410   30.5660   40.7240 C   0  0  0  0  0  0  0  0  0  0  0  0
   38.9180   30.4550   39.9360 N   0  0  0  0  0  0  0  0  0  0  0  0
   38.6260   33.4080   38.2890 H   0  0  0  0  0  0  0  0  0  0  0  0
   36.6220   33.5350   39.8030 H   0  0  0  0  0  0  0  0  0  0  0  0
   39.1070   30.3290   43.1390 F   0  0  0  0  0  0  0  0  0  0  0  0
   38.1850   29.4000   42.8760 C   0  0  0  0  0  0  0  0  0  0  0  0
   37.5250   29.4900   41.6610 C   0  0  0  0  0  0  0  0  0  0  0  0
   36.5540   28.5580   41.3220 C   0  0  0  0  0  0  0  0  0  0  0  0
   36.0450   28.6500   40.3560 H   0  0  0  0  0  0  0  0  0  0  0  0
   36.1920   27.5200   42.1330 C   0  0  0  0  0  0  0  0  0  0  0  0
   35.4470   26.7970   41.8830 H   0  0  0  0  0  0  0  0  0  0  0  0
   36.8430   27.4260   43.3390 C   0  0  0  0  0  3  0  0  0  0  0  0
   37.8050   28.3450   43.6800 C   0  0  0  0  0  3  0  0  0  0  0  0
   40.3250   31.4290   38.1970 C   0  0  0  0  0  0  0  0  0  0  0  0
   40.6350   32.2830   37.3310 O   0  0  0  0  0  0  0  0  0  0  0  0
   41.1310   30.6920   38.0850 H   0  0  0  0  0  0  0  0  0  0  0  0
  1  6  1  0  0  0  0
  2  1  2  0  0  0  0
  2  3  1  0  0  0  0
  3  4  2  0  0  0  0
  4  5  1  0  0  0  0
  5 11  1  0  0  0  0
  6  5  2  0  0  0  0
  7  2  1  0  0  0  0
  8  3  1  0  0  0  0
 10  9  1  0  0  0  0
 10 17  1  0  0  0  0
 11 10  2  0  0  0  0
 12 11  1  0  0  0  0
 12 14  2  0  0  0  0
 13 12  1  0  0  0  0
 14 16  1  0  0  0  0
 15 14  1  0  0  0  0
 16 17  2  0  0  0  0
 18  1  1  0  0  0  0
 19 18  2  0  0  0  0
 20 18  1  0  0  0  0
M  END
>  <minimizedAffinity>
-4.44991875

$$$$

 OpenBabel03252503583D

 20 21  0  0  0  0  0  0  0  0999 V2000
   38.1250   30.2870   41.2010 C   0  0  0  0  0  0  0  0  0  0  0  0
   36.9870   31.0440   40.9170 C   0  0  0  0  0  0  0  0  0  0  0  0
   35.7990   30.3390   40.6930 C   0  0  0  0  0  0  0  0  0  0  0  0
   35.8230   28.9740   40.7670 N   0  0  0  0  0  0  0  0  0  0  0  0
   36.9520   28.3040   41.0450 C   0  0  0  0  0  0  0  0  0  0  0  0
   38.1110   28.9370   41.2650 N   0  0  0  0  0  0  0  0  0  0  0  0
   37.0120   32.1240   40.8690 H   0  0  0  0  0  0  0  0  0  0  0  0
   34.8770   30.8550   40.4670 H   0  0  0  0  0  0  0  0  0  0  0  0
   37.1910   26.9480   43.4100 F   0  0  0  0  0  0  0  0  0  0  0  0
   37.0330   26.1900   42.3230 C   0  0  0  0  0  0  0  0  0  0  0  0
   36.9090   26.8450   41.1080 C   0  0  0  0  0  0  0  0  0  0  0  0
   36.7410   26.1190   39.9370 C   0  0  0  0  0  0  0  0  0  0  0  0
   36.6450   26.6590   38.9880 H   0  0  0  0  0  0  0  0  0  0  0  0
   36.6890   24.7550   39.8980 C   0  0  0  0  0  0  0  0  0  0  0  0
   36.5610   24.1850   39.0030 H   0  0  0  0  0  0  0  0  0  0  0  0
   36.8120   24.1000   41.1000 C   0  0  0  0  0  3  0  0  0  0  0  0
   36.9780   24.8130   42.2620 C   0  0  0  0  0  3  0  0  0  0  0  0
   39.3230   31.0480   41.4240 C   0  0  0  0  0  0  0  0  0  0  0  0
   39.4970   32.2700   41.1920 O   0  0  0  0  0  0  0  0  0  0  0  0
   40.3030   30.7540   41.8250 H   0  0  0  0  0  0  0  0  0  0  0  0
  1  6  1  0  0  0  0
  1 18  1  0  0  0  0
  2  1  2  0  0  0  0
  3  4  2  0  0  0  0
  3  2  1  0  0  0  0
  4  5  1  0  0  0  0
  5 11  1  0  0  0  0
  5  6  2  0  0  0  0
  7  2  1  0  0  0  0
  8  3  1  0  0  0  0
 10  9  1  0  0  0  0
 11 10  2  0  0  0  0
 12 11  1  0  0  0  0
 13 12  1  0  0  0  0
 14 12  2  0  0  0  0
 14 16  1  0  0  0  0
 15 14  1  0  0  0  0
 16 17  2  0  0  0  0
 17 10  1  0  0  0  0
 18 20  1  0  0  0  0
 19 18  2  0  0  0  0
M  END
>  <minimizedAffinity>
-4.41680098

$$$$

 OpenBabel03252503583D

 20 21  0  0  0  0  0  0  0  0999 V2000
   37.3350   26.9680   41.3790 C   0  0  0  0  0  0  0  0  0  0  0  0
   37.0710   26.7200   42.7280 C   0  0  0  0  0  0  0  0  0  0  0  0
   37.0900   27.8240   43.5870 C   0  0  0  0  0  0  0  0  0  0  0  0
   37.3580   29.0590   43.0640 N   0  0  0  0  0  0  0  0  0  0  0  0
   37.6030   29.2300   41.7570 C   0  0  0  0  0  0  0  0  0  0  0  0
   37.5970   28.2030   40.8980 N   0  0  0  0  0  0  0  0  0  0  0  0
   36.8630   25.7270   43.1000 H   0  0  0  0  0  0  0  0  0  0  0  0
   36.8960   27.7120   44.6450 H   0  0  0  0  0  0  0  0  0  0  0  0
   35.7120   30.7180   40.4510 F   0  0  0  0  0  0  0  0  0  0  0  0
   36.9030   31.3020   40.6060 C   0  0  0  0  0  0  0  0  0  0  0  0
   37.8830   30.5760   41.2630 C   0  0  0  0  0  0  0  0  0  0  0  0
   39.1440   31.1230   41.4580 C   0  0  0  0  0  0  0  0  0  0  0  0
   39.9030   30.5300   41.9810 H   0  0  0  0  0  0  0  0  0  0  0  0
   39.4980   32.3720   41.0320 C   0  0  0  0  0  0  0  0  0  0  0  0
   40.4640   32.8030   41.1770 H   0  0  0  0  0  0  0  0  0  0  0  0
   38.5280   33.0960   40.3800 C   0  0  0  0  0  3  0  0  0  0  0  0
   37.2800   32.5600   40.1830 C   0  0  0  0  0  3  0  0  0  0  0  0
   37.3070   25.8090   40.5300 C   0  0  0  0  0  0  0  0  0  0  0  0
   36.5190   24.8350   40.6070 O   0  0  0  0  0  0  0  0  0  0  0  0
   37.9300   25.5270   39.6710 H   0  0  0  0  0  0  0  0  0  0  0  0
  1  2  1  0  0  0  0
  2  7  1  0  0  0  0
  2  3  2  0  0  0  0
  3  8  1  0  0  0  0
  4  3  1  0  0  0  0
  5  4  2  0  0  0  0
  6  1  2  0  0  0  0
  6  5  1  0  0  0  0
  9 10  1  0  0  0  0
 10 11  1  0  0  0  0
 11 12  2  0  0  0  0
 11  5  1  0  0  0  0
 12 13  1  0  0  0  0
 14 15  1  0  0  0  0
 14 12  1  0  0  0  0
 16 14  2  0  0  0  0
 17 16  1  0  0  0  0
 17 10  2  0  0  0  0
 18 19  2  0  0  0  0
 18  1  1  0  0  0  0
 20 18  1  0  0  0  0
M  END
>  <minimizedAffinity>
-4.37843227

$$$$

 OpenBabel03252503583D

 20 21  0  0  0  0  0  0  0  0999 V2000
   39.8370   32.4890   40.3490 C   0  0  0  0  0  0  0  0  0  0  0  0
   39.5010   33.8440   40.3220 C   0  0  0  0  0  0  0  0  0  0  0  0
   38.1810   34.1590   39.9820 C   0  0  0  0  0  0  0  0  0  0  0  0
   37.3130   33.1400   39.7030 N   0  0  0  0  0  0  0  0  0  0  0  0
   37.7000   31.8560   39.7480 C   0  0  0  0  0  0  0  0  0  0  0  0
   38.9520   31.5080   40.0670 N   0  0  0  0  0  0  0  0  0  0  0  0
   40.2190   34.6190   40.5490 H   0  0  0  0  0  0  0  0  0  0  0  0
   37.8450   35.1860   39.9380 H   0  0  0  0  0  0  0  0  0  0  0  0
   36.1320   30.7180   41.6820 F   0  0  0  0  0  0  0  0  0  0  0  0
   35.9450   30.2600   40.4430 C   0  0  0  0  0  0  0  0  0  0  0  0
   36.7230   30.8150   39.4390 C   0  0  0  0  0  0  0  0  0  0  0  0
   36.5800   30.3850   38.1260 C   0  0  0  0  0  0  0  0  0  0  0  0
   37.2050   30.8390   37.3490 H   0  0  0  0  0  0  0  0  0  0  0  0
   35.6940   29.4180   37.7430 C   0  0  0  0  0  0  0  0  0  0  0  0
   35.5750   29.0800   36.7370 H   0  0  0  0  0  0  0  0  0  0  0  0
   34.9200   28.8650   38.7350 C   0  0  0  0  0  3  0  0  0  0  0  0
   35.0570   29.2860   40.0350 C   0  0  0  0  0  3  0  0  0  0  0  0
   41.2020   32.2070   40.7020 C   0  0  0  0  0  0  0  0  0  0  0  0
   42.2170   32.3600   39.9790 O   0  0  0  0  0  0  0  0  0  0  0  0
   41.6430   31.8160   41.6290 H   0  0  0  0  0  0  0  0  0  0  0  0
  1 18  1  0  0  0  0
  2  1  1  0  0  0  0
  2  7  1  0  0  0  0
  3  2  2  0  0  0  0
  4  5  2  0  0  0  0
  4  3  1  0  0  0  0
  5  6  1  0  0  0  0
  6  1  2  0  0  0  0
  8  3  1  0  0  0  0
 10  9  1  0  0  0  0
 11  5  1  0  0  0  0
 11 10  2  0  0  0  0
 12 11  1  0  0  0  0
 13 12  1  0  0  0  0
 14 12  2  0  0  0  0
 14 16  1  0  0  0  0
 15 14  1  0  0  0  0
 16 17  2  0  0  0  0
 17 10  1  0  0  0  0
 18 20  1  0  0  0  0
 19 18  2  0  0  0  0
M  END
>  <minimizedAffinity>
-4.37540627

$$$$

 OpenBabel03252503583D

 20 21  0  0  0  0  0  0  0  0999 V2000
   37.5590   30.1630   39.1820 C   0  0  0  0  0  0  0  0  0  0  0  0
   36.5740   30.9960   39.7150 C   0  0  0  0  0  0  0  0  0  0  0  0
   36.2260   30.7860   41.0540 C   0  0  0  0  0  0  0  0  0  0  0  0
   36.8630   29.7960   41.7500 N   0  0  0  0  0  0  0  0  0  0  0  0
   37.8040   29.0290   41.1780 C   0  0  0  0  0  0  0  0  0  0  0  0
   38.1670   29.1930   39.9000 N   0  0  0  0  0  0  0  0  0  0  0  0
   36.0950   31.7690   39.1300 H   0  0  0  0  0  0  0  0  0  0  0  0
   35.4710   31.3910   41.5370 H   0  0  0  0  0  0  0  0  0  0  0  0
   39.8310   29.5880   42.9300 F   0  0  0  0  0  0  0  0  0  0  0  0
   39.4690   28.3060   42.8560 C   0  0  0  0  0  0  0  0  0  0  0  0
   38.4450   27.9870   41.9780 C   0  0  0  0  0  0  0  0  0  0  0  0
   38.0180   26.6730   41.8500 C   0  0  0  0  0  0  0  0  0  0  0  0
   37.2060   26.4450   41.1490 H   0  0  0  0  0  0  0  0  0  0  0  0
   38.5570   25.6340   42.5540 C   0  0  0  0  0  0  0  0  0  0  0  0
   38.2370   24.6190   42.4640 H   0  0  0  0  0  0  0  0  0  0  0  0
   39.5730   25.9450   43.4260 C   0  0  0  0  0  3  0  0  0  0  0  0
   40.0000   27.2430   43.5570 C   0  0  0  0  0  3  0  0  0  0  0  0
   37.8870   30.4110   37.8050 C   0  0  0  0  0  0  0  0  0  0  0  0
   37.7390   31.4860   37.1740 O   0  0  0  0  0  0  0  0  0  0  0  0
   38.3170   29.7560   37.0350 H   0  0  0  0  0  0  0  0  0  0  0  0
  1  2  2  0  0  0  0
  1  6  1  0  0  0  0
  2  3  1  0  0  0  0
  3  8  1  0  0  0  0
  3  4  2  0  0  0  0
  5  4  1  0  0  0  0
  5 11  1  0  0  0  0
  6  5  2  0  0  0  0
  7  2  1  0  0  0  0
 10  9  1  0  0  0  0
 10 17  1  0  0  0  0
 11 10  2  0  0  0  0
 12 11  1  0  0  0  0
 12 14  2  0  0  0  0
 13 12  1  0  0  0  0
 14 16  1  0  0  0  0
 15 14  1  0  0  0  0
 16 17  2  0  0  0  0
 18  1  1  0  0  0  0
 19 18  2  0  0  0  0
 20 18  1  0  0  0  0
M  END
>  <minimizedAffinity>
-4.16231489

$$$$

 OpenBabel03252503583D

 20 21  0  0  0  0  0  0  0  0999 V2000
   37.5670   29.1950   37.5700 C   0  0  0  0  0  0  0  0  0  0  0  0
   37.2640   30.5510   37.4320 C   0  0  0  0  0  0  0  0  0  0  0  0
   37.0750   31.2790   38.6120 C   0  0  0  0  0  0  0  0  0  0  0  0
   37.1980   30.6300   39.8090 N   0  0  0  0  0  0  0  0  0  0  0  0
   37.4920   29.3230   39.8740 C   0  0  0  0  0  0  0  0  0  0  0  0
   37.6800   28.5880   38.7720 N   0  0  0  0  0  0  0  0  0  0  0  0
   37.1760   31.0250   36.4640 H   0  0  0  0  0  0  0  0  0  0  0  0
   36.8370   32.3330   38.5860 H   0  0  0  0  0  0  0  0  0  0  0  0
   35.2990   28.4730   41.2740 F   0  0  0  0  0  0  0  0  0  0  0  0
   36.4770   28.2720   41.8680 C   0  0  0  0  0  0  0  0  0  0  0  0
   37.6090   28.6910   41.1860 C   0  0  0  0  0  0  0  0  0  0  0  0
   38.8670   28.5130   41.7450 C   0  0  0  0  0  0  0  0  0  0  0  0
   39.7470   28.8530   41.1870 H   0  0  0  0  0  0  0  0  0  0  0  0
   39.0740   27.9340   42.9650 C   0  0  0  0  0  0  0  0  0  0  0  0
   40.0370   27.7920   43.4050 H   0  0  0  0  0  0  0  0  0  0  0  0
   37.9550   27.5160   43.6450 C   0  0  0  0  0  3  0  0  0  0  0  0
   36.7080   27.6900   43.0970 C   0  0  0  0  0  3  0  0  0  0  0  0
   37.7530   28.4830   36.3360 C   0  0  0  0  0  0  0  0  0  0  0  0
   38.6940   27.7030   36.0470 O   0  0  0  0  0  0  0  0  0  0  0  0
   37.1520   28.4600   35.4160 H   0  0  0  0  0  0  0  0  0  0  0  0
  1  6  1  0  0  0  0
  2  1  2  0  0  0  0
  2  3  1  0  0  0  0
  3  4  2  0  0  0  0
  4  5  1  0  0  0  0
  5 11  1  0  0  0  0
  6  5  2  0  0  0  0
  7  2  1  0  0  0  0
  8  3  1  0  0  0  0
  9 10  1  0  0  0  0
 10 17  1  0  0  0  0
 11 12  1  0  0  0  0
 11 10  2  0  0  0  0
 12 14  2  0  0  0  0
 13 12  1  0  0  0  0
 14 15  1  0  0  0  0
 14 16  1  0  0  0  0
 17 16  2  0  0  0  0
 18  1  1  0  0  0  0
 19 18  2  0  0  0  0
 20 18  1  0  0  0  0
M  END
>  <minimizedAffinity>
-4.13862801

$$$$

 OpenBabel03252503583D

 20 21  0  0  0  0  0  0  0  0999 V2000
   36.3040   29.1370   37.7000 C   0  0  0  0  0  0  0  0  0  0  0  0
   34.9170   29.2410   37.5800 C   0  0  0  0  0  0  0  0  0  0  0  0
   34.1670   29.0400   38.7450 C   0  0  0  0  0  0  0  0  0  0  0  0
   34.8260   28.7610   39.9100 N   0  0  0  0  0  0  0  0  0  0  0  0
   36.1630   28.6750   39.9580 C   0  0  0  0  0  0  0  0  0  0  0  0
   36.9210   28.8590   38.8700 N   0  0  0  0  0  0  0  0  0  0  0  0
   34.4360   29.4640   36.6390 H   0  0  0  0  0  0  0  0  0  0  0  0
   33.0880   29.1030   38.7310 H   0  0  0  0  0  0  0  0  0  0  0  0
   37.0130   30.6470   41.6560 F   0  0  0  0  0  0  0  0  0  0  0  0
   37.2230   29.3960   42.0710 C   0  0  0  0  0  0  0  0  0  0  0  0
   36.8050   28.3730   41.2350 C   0  0  0  0  0  0  0  0  0  0  0  0
   36.9920   27.0480   41.6050 C   0  0  0  0  0  0  0  0  0  0  0  0
   36.6520   26.2560   40.9280 H   0  0  0  0  0  0  0  0  0  0  0  0
   37.5810   26.6700   42.7780 C   0  0  0  0  0  0  0  0  0  0  0  0
   37.7300   25.6540   43.0740 H   0  0  0  0  0  0  0  0  0  0  0  0
   37.9970   27.6810   43.6110 C   0  0  0  0  0  3  0  0  0  0  0  0
   37.8160   28.9930   43.2500 C   0  0  0  0  0  3  0  0  0  0  0  0
   37.0380   29.3500   36.4830 C   0  0  0  0  0  0  0  0  0  0  0  0
   36.6040   29.8490   35.4160 O   0  0  0  0  0  0  0  0  0  0  0  0
   38.0840   29.1380   36.2230 H   0  0  0  0  0  0  0  0  0  0  0  0
  1  6  1  0  0  0  0
  2  1  2  0  0  0  0
  2  3  1  0  0  0  0
  3  4  2  0  0  0  0
  4  5  1  0  0  0  0
  5 11  1  0  0  0  0
  6  5  2  0  0  0  0
  7  2  1  0  0  0  0
  8  3  1  0  0  0  0
  9 10  1  0  0  0  0
 10 17  1  0  0  0  0
 11 12  1  0  0  0  0
 11 10  2  0  0  0  0
 12 14  2  0  0  0  0
 13 12  1  0  0  0  0
 14 15  1  0  0  0  0
 14 16  1  0  0  0  0
 17 16  2  0  0  0  0
 18  1  1  0  0  0  0
 19 18  2  0  0  0  0
 20 18  1  0  0  0  0
M  END
>  <minimizedAffinity>
-4.11413908

$$$$
