
 OpenBabel03252508253D

 41 45  0  0  1  0  0  0  0  0999 V2000
   47.1530   31.3250   45.7320 C   0  0  1  0  0  0  0  0  0  0  0  0
   46.8160   31.8450   47.0640 C   0  0  0  0  0  0  0  0  0  0  0  0
   45.7790   31.0920   46.1390 C   0  0  2  0  0  0  0  0  0  0  0  0
   48.0330   30.6090   45.9070 H   0  0  0  0  0  0  0  0  0  0  0  0
   46.9410   31.2840   48.0010 H   0  0  0  0  0  0  0  0  0  0  0  0
   46.6690   32.9260   47.2200 H   0  0  0  0  0  0  0  0  0  0  0  0
   44.9620   31.8660   46.0670 H   0  0  0  0  0  0  0  0  0  0  0  0
   45.2350   29.8010   46.5700 C   0  0  0  0  0  0  0  0  0  0  0  0
   45.3260   29.2370   47.8060 C   0  0  0  0  0  0  0  0  0  0  0  0
   44.9070   27.9580   48.1460 C   0  0  0  0  0  0  0  0  0  0  0  0
   44.3450   27.1890   47.1160 C   0  0  0  0  0  0  0  0  0  0  0  0
   44.2390   27.7460   45.8390 C   0  0  0  0  0  0  0  0  0  0  0  0
   43.6210   26.9710   44.8750 C   0  0  0  0  0  0  0  0  0  0  0  0
   43.4270   27.5120   43.6070 C   0  0  0  0  0  0  0  0  0  0  0  0
   43.8410   28.7960   43.3150 C   0  0  0  0  0  0  0  0  0  0  0  0
   44.4520   29.5140   44.3150 C   0  0  0  0  0  0  0  0  0  0  0  0
   44.6750   29.0210   45.5890 C   0  0  0  0  0  0  0  0  0  0  0  0
   45.7680   29.8690   48.5730 H   0  0  0  0  0  0  0  0  0  0  0  0
   45.0080   27.5730   49.1520 H   0  0  0  0  0  0  0  0  0  0  0  0
   44.0080   26.1840   47.3360 H   0  0  0  0  0  0  0  0  0  0  0  0
   43.3010   25.9610   45.1310 H   0  0  0  0  0  0  0  0  0  0  0  0
   42.9300   26.8080   42.9200 H   0  0  0  0  0  0  0  0  0  0  0  0
   43.6020   29.0260   42.2980 H   0  0  0  0  0  0  0  0  0  0  0  0
   44.5940   30.4650   43.8860 H   0  0  0  0  0  0  0  0  0  0  0  0
   46.9780   34.2340   43.4640 C   0  0  0  0  0  0  0  0  0  0  0  0
   47.9240   33.8790   42.4410 C   0  0  0  0  0  0  0  0  0  0  0  0
   48.6030   32.6440   42.5790 C   0  0  0  0  0  0  0  0  0  0  0  0
   48.3500   31.8510   43.6430 N   0  0  0  0  0  0  0  0  0  0  0  0
   47.4290   32.2480   44.5920 C   0  0  0  0  0  0  0  0  0  0  0  0
   46.7680   33.3980   44.5030 N   0  0  0  0  0  0  0  0  0  0  0  0
   46.4820   35.1830   43.3200 H   0  0  0  0  0  0  0  0  0  0  0  0
   48.0810   34.5400   41.6310 H   0  0  0  0  0  0  0  0  0  0  0  0
   47.7670   31.8020   40.1170 F   0  0  0  0  0  0  0  0  0  0  0  0
   49.1240   31.8110   40.3410 C   0  0  0  0  0  0  0  0  0  0  0  0
   49.5710   32.2320   41.5750 C   0  0  0  0  0  0  0  0  0  0  0  0
   50.9180   32.2190   41.7360 C   0  0  0  0  0  0  0  0  0  0  0  0
   51.3420   32.5350   42.6760 H   0  0  0  0  0  0  0  0  0  0  0  0
   51.8020   31.8130   40.7390 C   0  0  0  0  0  0  0  0  0  0  0  0
   52.8740   31.8330   40.9510 H   0  0  0  0  0  0  0  0  0  0  0  0
   51.2920   31.4030   39.5240 C   0  0  0  0  0  3  0  0  0  0  0  0
   49.9390   31.3970   39.3090 C   0  0  0  0  0  3  0  0  0  0  0  0
  1  4  1  1  0  0  0
  1  3  1  0  0  0  0
  1  2  1  0  0  0  0
  2  6  1  0  0  0  0
  2  5  1  0  0  0  0
  3  7  1  6  0  0  0
  3  8  1  0  0  0  0
  3  2  1  0  0  0  0
  8  9  1  0  0  0  0
  9 10  2  0  0  0  0
  9 18  1  0  0  0  0
 10 19  1  0  0  0  0
 11 20  1  0  0  0  0
 11 10  1  0  0  0  0
 12 11  2  0  0  0  0
 13 21  1  0  0  0  0
 13 12  1  0  0  0  0
 14 13  2  0  0  0  0
 15 14  1  0  0  0  0
 15 16  2  0  0  0  0
 16 17  1  0  0  0  0
 17 12  1  0  0  0  0
 17  8  2  0  0  0  0
 22 14  1  0  0  0  0
 23 15  1  0  0  0  0
 24 16  1  0  0  0  0
 25 30  1  0  0  0  0
 26 27  1  0  0  0  0
 26 25  2  0  0  0  0
 27 28  2  0  0  0  0
 28 29  1  0  0  0  0
 29  1  1  0  0  0  0
 30 29  2  0  0  0  0
 31 25  1  0  0  0  0
 32 26  1  0  0  0  0
 33 34  1  0  0  0  0
 34 35  1  0  0  0  0
 35 36  2  0  0  0  0
 35 27  1  0  0  0  0
 36 37  1  0  0  0  0
 38 39  1  0  0  0  0
 38 36  1  0  0  0  0
 40 38  2  0  0  0  0
 41 40  1  0  0  0  0
 41 34  2  0  0  0  0
M  END
>  <minimizedAffinity>
-4.74681282

>  <minimizedRMSD>
3.01109672

$$$$
