
 OpenBabel03252508403D

 41 44  0  0  0  0  0  0  0  0999 V2000
   39.0260   30.3590   38.8590 C   0  0  0  0  0  0  0  0  0  0  0  0
   40.3860   30.3570   38.7830 C   0  0  0  0  0  0  0  0  0  0  0  0
   41.0080   29.1470   38.6210 C   0  0  0  0  0  0  0  0  0  0  0  0
   40.3390   27.9430   38.5330 C   0  0  0  0  0  0  0  0  0  0  0  0
   38.9680   27.9800   38.6140 C   0  0  0  0  0  0  0  0  0  0  0  0
   38.2980   29.1760   38.7760 C   0  0  0  0  0  0  0  0  0  0  0  0
   42.0900   29.1330   38.5600 H   0  0  0  0  0  0  0  0  0  0  0  0
   40.8500   26.9960   38.4050 H   0  0  0  0  0  0  0  0  0  0  0  0
   38.4410   27.0290   38.5440 H   0  0  0  0  0  0  0  0  0  0  0  0
   42.1790   33.5420   37.8480 C   0  0  0  0  0  0  0  0  0  0  0  0
   41.5320   32.3000   37.7280 C   0  0  0  0  0  0  0  0  0  0  0  0
   41.0570   31.6380   38.8780 C   0  0  0  0  0  0  0  0  0  0  0  0
   41.2740   32.2840   40.0380 N   0  0  0  0  0  0  0  0  0  0  0  0
   41.8850   33.4580   40.1400 C   0  0  0  0  0  0  0  0  0  0  0  0
   42.3380   34.0890   39.0510 N   0  0  0  0  0  0  0  0  0  0  0  0
   42.6370   34.1610   36.6550 N   0  0  0  0  0  0  0  0  0  0  0  0
   41.3860   31.8270   36.7590 H   0  0  0  0  0  0  0  0  0  0  0  0
   42.0040   33.8870   41.1380 H   0  0  0  0  0  0  0  0  0  0  0  0
   42.0570   34.6710   35.9520 H   0  0  0  0  0  0  0  0  0  0  0  0
   43.5960   34.2330   36.2560 H   0  0  0  0  0  0  0  0  0  0  0  0
   36.8520   29.1070   38.8520 C   0  0  0  0  0  0  0  0  0  0  0  0
   36.1830   29.2730   37.6590 C   0  0  0  0  0  0  0  0  0  0  0  0
   34.7950   29.2390   37.5320 C   0  0  0  0  0  0  0  0  0  0  0  0
   34.0580   29.0240   38.6820 C   0  0  0  0  0  0  0  0  0  0  0  0
   34.7010   28.8530   39.8930 C   0  0  0  0  0  0  0  0  0  0  0  0
   36.0810   28.8960   39.9620 C   0  0  0  0  0  0  0  0  0  0  0  0
   36.7020   29.4470   36.7180 H   0  0  0  0  0  0  0  0  0  0  0  0
   34.2720   29.3680   36.6060 H   0  0  0  0  0  0  0  0  0  0  0  0
   32.9750   28.9730   38.7240 H   0  0  0  0  0  0  0  0  0  0  0  0
   34.1970   28.6800   40.8350 H   0  0  0  0  0  0  0  0  0  0  0  0
   36.5040   26.3190   40.7190 F   0  0  0  0  0  0  0  0  0  0  0  0
   36.9380   27.3530   41.5140 C   0  0  0  0  0  0  0  0  0  0  0  0
   36.7790   28.7150   41.2300 C   0  0  0  0  0  0  0  0  0  0  0  0
   37.2740   29.6370   42.1380 C   0  0  0  0  0  0  0  0  0  0  0  0
   37.0950   30.6360   41.8210 H   0  0  0  0  0  0  0  0  0  0  0  0
   37.9000   29.1850   43.2750 C   0  0  0  0  0  0  0  0  0  0  0  0
   38.2560   29.9800   43.9270 H   0  0  0  0  0  0  0  0  0  0  0  0
   38.0530   27.8420   43.5470 C   0  0  0  0  0  3  0  0  0  0  0  0
   37.5610   26.8940   42.6450 C   0  0  0  0  0  3  0  0  0  0  0  0
   37.6700   32.5670   39.1550 N   0  0  0  0  0  0  0  0  0  0  0  0
   38.2830   31.5800   39.0310 C   0  0  0  0  0  0  0  0  0  0  0  0
  1 41  1  0  0  0  0
  2  1  1  0  0  0  0
  2 12  1  0  0  0  0
  3  2  2  0  0  0  0
  4  5  2  0  0  0  0
  4  3  1  0  0  0  0
  5  6  1  0  0  0  0
  6 21  1  0  0  0  0
  6  1  2  0  0  0  0
  7  3  1  0  0  0  0
  8  4  1  0  0  0  0
  9  5  1  0  0  0  0
 10 15  1  0  0  0  0
 11 10  2  0  0  0  0
 11 12  1  0  0  0  0
 12 13  2  0  0  0  0
 13 14  1  0  0  0  0
 14 18  1  0  0  0  0
 15 14  2  0  0  0  0
 16 10  1  0  0  0  0
 17 11  1  0  0  0  0
 19 16  1  0  0  0  0
 20 16  1  0  0  0  0
 21 26  1  0  0  0  0
 22 21  2  0  0  0  0
 23 22  1  0  0  0  0
 23 24  2  0  0  0  0
 24 29  1  0  0  0  0
 24 25  1  0  0  0  0
 25 26  2  0  0  0  0
 25 30  1  0  0  0  0
 26 33  1  0  0  0  0
 27 22  1  0  0  0  0
 28 23  1  0  0  0  0
 31 32  1  0  0  0  0
 32 39  1  0  0  0  0
 33 32  2  0  0  0  0
 33 34  1  0  0  0  0
 34 36  2  0  0  0  0
 35 34  1  0  0  0  0
 36 38  1  0  0  0  0
 36 37  1  0  0  0  0
 39 38  2  0  0  0  0
 41 40  3  0  0  0  0
M  END
>  <minimizedAffinity>
-6.73301935

$$$$

 OpenBabel03252508403D

 41 44  0  0  0  0  0  0  0  0999 V2000
   38.7870   30.6900   38.7850 C   0  0  0  0  0  0  0  0  0  0  0  0
   39.3740   31.8170   39.2760 C   0  0  0  0  0  0  0  0  0  0  0  0
   38.6010   32.6500   40.0410 C   0  0  0  0  0  0  0  0  0  0  0  0
   37.2750   32.4120   40.3390 C   0  0  0  0  0  0  0  0  0  0  0  0
   36.7130   31.2670   39.8280 C   0  0  0  0  0  0  0  0  0  0  0  0
   37.4530   30.3970   39.0510 C   0  0  0  0  0  0  0  0  0  0  0  0
   39.0580   33.5500   40.4370 H   0  0  0  0  0  0  0  0  0  0  0  0
   36.6800   33.0830   40.9460 H   0  0  0  0  0  0  0  0  0  0  0  0
   35.6660   31.0800   40.0640 H   0  0  0  0  0  0  0  0  0  0  0  0
   42.5090   33.1830   37.6810 C   0  0  0  0  0  0  0  0  0  0  0  0
   41.1490   32.9920   37.9830 C   0  0  0  0  0  0  0  0  0  0  0  0
   40.7680   32.0350   38.9450 C   0  0  0  0  0  0  0  0  0  0  0  0
   41.7850   31.3620   39.5130 N   0  0  0  0  0  0  0  0  0  0  0  0
   43.0660   31.5510   39.2210 C   0  0  0  0  0  0  0  0  0  0  0  0
   43.4320   32.4580   38.3080 N   0  0  0  0  0  0  0  0  0  0  0  0
   42.8320   34.1600   36.7030 N   0  0  0  0  0  0  0  0  0  0  0  0
   40.3700   33.5680   37.4880 H   0  0  0  0  0  0  0  0  0  0  0  0
   43.8050   30.9440   39.7490 H   0  0  0  0  0  0  0  0  0  0  0  0
   42.8430   35.1960   36.8330 H   0  0  0  0  0  0  0  0  0  0  0  0
   43.1120   34.0520   35.7050 H   0  0  0  0  0  0  0  0  0  0  0  0
   36.7670   29.2200   38.5600 C   0  0  0  0  0  0  0  0  0  0  0  0
   36.1040   29.3710   37.3610 C   0  0  0  0  0  0  0  0  0  0  0  0
   35.3890   28.3530   36.7310 C   0  0  0  0  0  0  0  0  0  0  0  0
   35.3510   27.1220   37.3600 C   0  0  0  0  0  0  0  0  0  0  0  0
   36.0060   26.9400   38.5620 C   0  0  0  0  0  0  0  0  0  0  0  0
   36.7020   27.9840   39.1440 C   0  0  0  0  0  0  0  0  0  0  0  0
   36.0930   30.3130   36.8160 H   0  0  0  0  0  0  0  0  0  0  0  0
   34.8730   28.4680   35.7990 H   0  0  0  0  0  0  0  0  0  0  0  0
   34.8340   26.2480   36.9790 H   0  0  0  0  0  0  0  0  0  0  0  0
   36.0250   26.0090   39.1150 H   0  0  0  0  0  0  0  0  0  0  0  0
   35.2360   28.4750   41.3810 F   0  0  0  0  0  0  0  0  0  0  0  0
   36.5530   28.0910   41.4870 C   0  0  0  0  0  0  0  0  0  0  0  0
   37.4030   27.8110   40.4110 C   0  0  0  0  0  0  0  0  0  0  0  0
   38.7080   27.4360   40.6860 C   0  0  0  0  0  0  0  0  0  0  0  0
   39.2600   27.2520   39.7960 H   0  0  0  0  0  0  0  0  0  0  0  0
   39.1170   27.3520   41.9950 C   0  0  0  0  0  0  0  0  0  0  0  0
   40.1550   27.0490   42.1130 H   0  0  0  0  0  0  0  0  0  0  0  0
   38.2720   27.6280   43.0500 C   0  0  0  0  0  3  0  0  0  0  0  0
   36.9510   28.0090   42.7950 C   0  0  0  0  0  3  0  0  0  0  0  0
   40.1110   29.0100   37.2930 N   0  0  0  0  0  0  0  0  0  0  0  0
   39.5170   29.7550   37.9690 C   0  0  0  0  0  0  0  0  0  0  0  0
  1  6  2  0  0  0  0
  1  2  1  0  0  0  0
  2  3  2  0  0  0  0
  3  4  1  0  0  0  0
  3  7  1  0  0  0  0
  4  8  1  0  0  0  0
  5  9  1  0  0  0  0
  5  4  2  0  0  0  0
  6  5  1  0  0  0  0
 10 11  2  0  0  0  0
 10 15  1  0  0  0  0
 11 12  1  0  0  0  0
 12  2  1  0  0  0  0
 12 13  2  0  0  0  0
 14 13  1  0  0  0  0
 14 18  1  0  0  0  0
 15 14  2  0  0  0  0
 16 19  1  0  0  0  0
 16 10  1  0  0  0  0
 17 11  1  0  0  0  0
 20 16  1  0  0  0  0
 21  6  1  0  0  0  0
 21 26  1  0  0  0  0
 22 21  2  0  0  0  0
 23 24  2  0  0  0  0
 23 22  1  0  0  0  0
 24 25  1  0  0  0  0
 25 30  1  0  0  0  0
 25 26  2  0  0  0  0
 26 33  1  0  0  0  0
 27 22  1  0  0  0  0
 28 23  1  0  0  0  0
 29 24  1  0  0  0  0
 31 32  1  0  0  0  0
 32 39  1  0  0  0  0
 33 34  1  0  0  0  0
 33 32  2  0  0  0  0
 34 36  2  0  0  0  0
 35 34  1  0  0  0  0
 36 37  1  0  0  0  0
 36 38  1  0  0  0  0
 39 38  2  0  0  0  0
 40 41  3  0  0  0  0
 41  1  1  0  0  0  0
M  END
>  <minimizedAffinity>
-6.61787891

$$$$

 OpenBabel03252508403D

 41 44  0  0  0  0  0  0  0  0999 V2000
   39.6220   28.7410   40.4000 C   0  0  0  0  0  0  0  0  0  0  0  0
   40.0580   27.4930   40.0680 C   0  0  0  0  0  0  0  0  0  0  0  0
   40.4230   27.2780   38.7650 C   0  0  0  0  0  0  0  0  0  0  0  0
   40.3720   28.2440   37.7810 C   0  0  0  0  0  0  0  0  0  0  0  0
   39.9270   29.4910   38.1480 C   0  0  0  0  0  0  0  0  0  0  0  0
   39.5490   29.7550   39.4500 C   0  0  0  0  0  0  0  0  0  0  0  0
   40.7710   26.2890   38.4890 H   0  0  0  0  0  0  0  0  0  0  0  0
   40.6650   28.0540   36.7550 H   0  0  0  0  0  0  0  0  0  0  0  0
   39.8870   30.2530   37.3710 H   0  0  0  0  0  0  0  0  0  0  0  0
   41.3310   25.1750   42.7590 C   0  0  0  0  0  0  0  0  0  0  0  0
   41.3180   26.1380   41.7350 C   0  0  0  0  0  0  0  0  0  0  0  0
   40.1010   26.5030   41.1250 C   0  0  0  0  0  0  0  0  0  0  0  0
   39.0130   25.8700   41.5990 N   0  0  0  0  0  0  0  0  0  0  0  0
   39.0360   24.9610   42.5670 C   0  0  0  0  0  0  0  0  0  0  0  0
   40.1890   24.6120   43.1480 N   0  0  0  0  0  0  0  0  0  0  0  0
   42.5860   24.8480   43.3350 N   0  0  0  0  0  0  0  0  0  0  0  0
   42.2330   26.6170   41.3930 H   0  0  0  0  0  0  0  0  0  0  0  0
   38.0870   24.5130   42.8700 H   0  0  0  0  0  0  0  0  0  0  0  0
   43.1220   25.4130   44.0300 H   0  0  0  0  0  0  0  0  0  0  0  0
   43.2000   24.0180   43.1930 H   0  0  0  0  0  0  0  0  0  0  0  0
   39.0920   31.1010   39.7350 C   0  0  0  0  0  0  0  0  0  0  0  0
   40.0640   31.9860   40.1490 C   0  0  0  0  0  0  0  0  0  0  0  0
   39.8180   33.3210   40.4680 C   0  0  0  0  0  0  0  0  0  0  0  0
   38.5140   33.7700   40.3580 C   0  0  0  0  0  0  0  0  0  0  0  0
   37.5190   32.9060   39.9440 C   0  0  0  0  0  0  0  0  0  0  0  0
   37.8180   31.5910   39.6400 C   0  0  0  0  0  0  0  0  0  0  0  0
   41.1080   31.6970   40.2590 H   0  0  0  0  0  0  0  0  0  0  0  0
   40.5710   34.0110   40.7910 H   0  0  0  0  0  0  0  0  0  0  0  0
   38.1880   34.7810   40.5730 H   0  0  0  0  0  0  0  0  0  0  0  0
   36.4780   33.1790   39.8310 H   0  0  0  0  0  0  0  0  0  0  0  0
   36.2140   30.5930   41.5950 F   0  0  0  0  0  0  0  0  0  0  0  0
   36.0240   30.2170   40.2850 C   0  0  0  0  0  0  0  0  0  0  0  0
   36.7830   30.6640   39.1970 C   0  0  0  0  0  0  0  0  0  0  0  0
   36.4640   30.1890   37.9350 C   0  0  0  0  0  0  0  0  0  0  0  0
   37.1050   30.5910   37.1900 H   0  0  0  0  0  0  0  0  0  0  0  0
   35.4200   29.3050   37.7990 C   0  0  0  0  0  0  0  0  0  0  0  0
   35.2430   28.9880   36.7730 H   0  0  0  0  0  0  0  0  0  0  0  0
   34.6770   28.8710   38.8760 C   0  0  0  0  0  3  0  0  0  0  0  0
   34.9820   29.3370   40.1580 C   0  0  0  0  0  3  0  0  0  0  0  0
   38.8810   29.3420   42.8270 N   0  0  0  0  0  0  0  0  0  0  0  0
   39.2150   29.0630   41.7430 C   0  0  0  0  0  0  0  0  0  0  0  0
  1 41  1  0  0  0  0
  2  1  1  0  0  0  0
  2 12  1  0  0  0  0
  3  2  2  0  0  0  0
  4  5  2  0  0  0  0
  4  3  1  0  0  0  0
  5  6  1  0  0  0  0
  6 21  1  0  0  0  0
  6  1  2  0  0  0  0
  7  3  1  0  0  0  0
  8  4  1  0  0  0  0
  9  5  1  0  0  0  0
 10 15  1  0  0  0  0
 10 16  1  0  0  0  0
 11 10  2  0  0  0  0
 12 13  2  0  0  0  0
 12 11  1  0  0  0  0
 13 14  1  0  0  0  0
 14 18  1  0  0  0  0
 14 15  2  0  0  0  0
 16 19  1  0  0  0  0
 17 11  1  0  0  0  0
 20 16  1  0  0  0  0
 21 22  1  0  0  0  0
 22 27  1  0  0  0  0
 22 23  2  0  0  0  0
 23 28  1  0  0  0  0
 24 23  1  0  0  0  0
 24 29  1  0  0  0  0
 25 24  2  0  0  0  0
 26 21  2  0  0  0  0
 26 25  1  0  0  0  0
 30 25  1  0  0  0  0
 32 31  1  0  0  0  0
 33 26  1  0  0  0  0
 33 32  2  0  0  0  0
 34 33  1  0  0  0  0
 35 34  1  0  0  0  0
 36 34  2  0  0  0  0
 36 38  1  0  0  0  0
 37 36  1  0  0  0  0
 38 39  2  0  0  0  0
 39 32  1  0  0  0  0
 41 40  3  0  0  0  0
M  END
>  <minimizedAffinity>
-6.53884029

$$$$

 OpenBabel03252508403D

 41 44  0  0  0  0  0  0  0  0999 V2000
   39.3210   31.3190   40.5000 C   0  0  0  0  0  0  0  0  0  0  0  0
   39.3660   32.5690   39.9610 C   0  0  0  0  0  0  0  0  0  0  0  0
   38.1730   33.2110   39.7530 C   0  0  0  0  0  0  0  0  0  0  0  0
   36.9430   32.6660   40.0580 C   0  0  0  0  0  0  0  0  0  0  0  0
   36.9320   31.4040   40.6010 C   0  0  0  0  0  0  0  0  0  0  0  0
   38.1090   30.7180   40.8280 C   0  0  0  0  0  0  0  0  0  0  0  0
   38.1970   34.2060   39.3240 H   0  0  0  0  0  0  0  0  0  0  0  0
   36.0100   33.1910   39.8870 H   0  0  0  0  0  0  0  0  0  0  0  0
   35.9600   30.9750   40.8410 H   0  0  0  0  0  0  0  0  0  0  0  0
   42.3370   33.9030   38.0560 C   0  0  0  0  0  0  0  0  0  0  0  0
   41.0620   33.3780   38.3260 C   0  0  0  0  0  0  0  0  0  0  0  0
   40.6750   33.1120   39.6540 C   0  0  0  0  0  0  0  0  0  0  0  0
   41.6010   33.3970   40.5860 N   0  0  0  0  0  0  0  0  0  0  0  0
   42.8040   33.8940   40.3210 C   0  0  0  0  0  0  0  0  0  0  0  0
   43.1750   34.1490   39.0610 N   0  0  0  0  0  0  0  0  0  0  0  0
   42.6710   34.1510   36.6990 N   0  0  0  0  0  0  0  0  0  0  0  0
   40.3540   33.1660   37.5270 H   0  0  0  0  0  0  0  0  0  0  0  0
   43.4740   34.0880   41.1620 H   0  0  0  0  0  0  0  0  0  0  0  0
   42.3520   34.9540   36.1120 H   0  0  0  0  0  0  0  0  0  0  0  0
   43.2730   33.6120   36.0410 H   0  0  0  0  0  0  0  0  0  0  0  0
   37.9900   29.3930   41.4010 C   0  0  0  0  0  0  0  0  0  0  0  0
   38.0020   29.3360   42.7780 C   0  0  0  0  0  0  0  0  0  0  0  0
   37.8990   28.1530   43.5100 C   0  0  0  0  0  0  0  0  0  0  0  0
   37.7760   26.9740   42.7970 C   0  0  0  0  0  0  0  0  0  0  0  0
   37.7600   27.0010   41.4160 C   0  0  0  0  0  0  0  0  0  0  0  0
   37.8660   28.2020   40.7400 C   0  0  0  0  0  0  0  0  0  0  0  0
   38.0970   30.2250   43.3990 H   0  0  0  0  0  0  0  0  0  0  0  0
   37.9090   28.1050   44.5800 H   0  0  0  0  0  0  0  0  0  0  0  0
   37.6870   25.9890   43.2410 H   0  0  0  0  0  0  0  0  0  0  0  0
   37.6670   26.1250   40.7870 H   0  0  0  0  0  0  0  0  0  0  0  0
   35.4020   28.2800   39.5930 F   0  0  0  0  0  0  0  0  0  0  0  0
   36.5310   28.2880   38.8070 C   0  0  0  0  0  0  0  0  0  0  0  0
   37.8470   28.2520   39.2820 C   0  0  0  0  0  0  0  0  0  0  0  0
   38.8800   28.2660   38.3580 C   0  0  0  0  0  0  0  0  0  0  0  0
   39.8310   28.2330   38.8300 H   0  0  0  0  0  0  0  0  0  0  0  0
   38.5750   28.3150   37.0180 C   0  0  0  0  0  0  0  0  0  0  0  0
   39.4490   28.3230   36.3690 H   0  0  0  0  0  0  0  0  0  0  0  0
   37.2760   28.3510   36.5590 C   0  0  0  0  0  3  0  0  0  0  0  0
   36.2190   28.3370   37.4740 C   0  0  0  0  0  3  0  0  0  0  0  0
   41.4870   29.9380   40.9500 N   0  0  0  0  0  0  0  0  0  0  0  0
   40.5210   30.5650   40.7530 C   0  0  0  0  0  0  0  0  0  0  0  0
  1 41  1  0  0  0  0
  1  6  1  0  0  0  0
  2  1  2  0  0  0  0
  3  2  1  0  0  0  0
  3  4  2  0  0  0  0
  4  5  1  0  0  0  0
  5  6  2  0  0  0  0
  5  9  1  0  0  0  0
  6 21  1  0  0  0  0
  7  3  1  0  0  0  0
  8  4  1  0  0  0  0
 10 11  2  0  0  0  0
 10 15  1  0  0  0  0
 11 12  1  0  0  0  0
 12  2  1  0  0  0  0
 12 13  2  0  0  0  0
 14 13  1  0  0  0  0
 14 18  1  0  0  0  0
 15 14  2  0  0  0  0
 16 10  1  0  0  0  0
 17 11  1  0  0  0  0
 19 16  1  0  0  0  0
 20 16  1  0  0  0  0
 21 22  1  0  0  0  0
 22 27  1  0  0  0  0
 22 23  2  0  0  0  0
 23 28  1  0  0  0  0
 24 29  1  0  0  0  0
 24 23  1  0  0  0  0
 25 24  2  0  0  0  0
 26 21  2  0  0  0  0
 26 25  1  0  0  0  0
 30 25  1  0  0  0  0
 32 33  1  0  0  0  0
 32 31  1  0  0  0  0
 33 26  1  0  0  0  0
 34 35  1  0  0  0  0
 34 33  2  0  0  0  0
 36 34  1  0  0  0  0
 37 36  1  0  0  0  0
 38 36  2  0  0  0  0
 38 39  1  0  0  0  0
 39 32  2  0  0  0  0
 41 40  3  0  0  0  0
M  END
>  <minimizedAffinity>
-6.51089478

$$$$

 OpenBabel03252508403D

 41 44  0  0  0  0  0  0  0  0999 V2000
   37.9990   28.0610   41.1490 C   0  0  0  0  0  0  0  0  0  0  0  0
   37.8880   29.1330   41.9820 C   0  0  0  0  0  0  0  0  0  0  0  0
   37.3620   28.9140   43.2280 C   0  0  0  0  0  0  0  0  0  0  0  0
   36.9430   27.6790   43.6800 C   0  0  0  0  0  0  0  0  0  0  0  0
   37.0680   26.6190   42.8160 C   0  0  0  0  0  0  0  0  0  0  0  0
   37.5930   26.7920   41.5500 C   0  0  0  0  0  0  0  0  0  0  0  0
   37.2690   29.7600   43.8990 H   0  0  0  0  0  0  0  0  0  0  0  0
   36.5290   27.5260   44.6690 H   0  0  0  0  0  0  0  0  0  0  0  0
   36.7360   25.6450   43.1730 H   0  0  0  0  0  0  0  0  0  0  0  0
   37.9030   32.5620   40.4090 C   0  0  0  0  0  0  0  0  0  0  0  0
   37.4390   31.3270   40.8920 C   0  0  0  0  0  0  0  0  0  0  0  0
   38.3400   30.4140   41.4760 C   0  0  0  0  0  0  0  0  0  0  0  0
   39.6200   30.8260   41.5210 N   0  0  0  0  0  0  0  0  0  0  0  0
   40.0480   31.9960   41.0610 C   0  0  0  0  0  0  0  0  0  0  0  0
   39.1960   32.8650   40.5070 N   0  0  0  0  0  0  0  0  0  0  0  0
   36.9490   33.4410   39.8310 N   0  0  0  0  0  0  0  0  0  0  0  0
   36.3890   31.0500   40.8270 H   0  0  0  0  0  0  0  0  0  0  0  0
   41.1130   32.2220   41.1530 H   0  0  0  0  0  0  0  0  0  0  0  0
   36.2610   34.0390   40.3400 H   0  0  0  0  0  0  0  0  0  0  0  0
   36.7500   33.6600   38.8320 H   0  0  0  0  0  0  0  0  0  0  0  0
   37.6800   25.6110   40.7150 C   0  0  0  0  0  0  0  0  0  0  0  0
   36.5750   25.3480   39.9350 C   0  0  0  0  0  0  0  0  0  0  0  0
   36.4730   24.2590   39.0690 C   0  0  0  0  0  0  0  0  0  0  0  0
   37.5540   23.4000   39.0000 C   0  0  0  0  0  0  0  0  0  0  0  0
   38.6760   23.6380   39.7700 C   0  0  0  0  0  0  0  0  0  0  0  0
   38.7250   24.7340   40.6120 C   0  0  0  0  0  0  0  0  0  0  0  0
   35.6900   25.9820   39.9430 H   0  0  0  0  0  0  0  0  0  0  0  0
   35.6140   24.0520   38.4620 H   0  0  0  0  0  0  0  0  0  0  0  0
   37.6050   22.5190   38.3690 H   0  0  0  0  0  0  0  0  0  0  0  0
   39.5610   23.0160   39.7710 H   0  0  0  0  0  0  0  0  0  0  0  0
   40.8560   25.7950   39.2990 F   0  0  0  0  0  0  0  0  0  0  0  0
   40.9300   25.5460   40.6500 C   0  0  0  0  0  0  0  0  0  0  0  0
   39.9020   25.0050   41.4300 C   0  0  0  0  0  0  0  0  0  0  0  0
   40.1350   24.8140   42.7820 C   0  0  0  0  0  0  0  0  0  0  0  0
   39.2890   24.3960   43.2720 H   0  0  0  0  0  0  0  0  0  0  0  0
   41.3580   25.1610   43.3050 C   0  0  0  0  0  0  0  0  0  0  0  0
   41.4480   24.9760   44.3730 H   0  0  0  0  0  0  0  0  0  0  0  0
   42.3650   25.6940   42.5290 C   0  0  0  0  0  3  0  0  0  0  0  0
   42.1510   25.8950   41.1620 C   0  0  0  0  0  3  0  0  0  0  0  0
   38.9590   28.2920   38.7350 N   0  0  0  0  0  0  0  0  0  0  0  0
   38.5380   28.1920   39.8200 C   0  0  0  0  0  0  0  0  0  0  0  0
  1  6  2  0  0  0  0
  1  2  1  0  0  0  0
  2  3  2  0  0  0  0
  3  4  1  0  0  0  0
  3  7  1  0  0  0  0
  4  8  1  0  0  0  0
  5  9  1  0  0  0  0
  5  4  2  0  0  0  0
  6  5  1  0  0  0  0
 10 15  2  0  0  0  0
 10 11  1  0  0  0  0
 11 12  2  0  0  0  0
 12 13  1  0  0  0  0
 12  2  1  0  0  0  0
 14 18  1  0  0  0  0
 14 13  2  0  0  0  0
 15 14  1  0  0  0  0
 16 19  1  0  0  0  0
 16 10  1  0  0  0  0
 17 11  1  0  0  0  0
 20 16  1  0  0  0  0
 21  6  1  0  0  0  0
 22 27  1  0  0  0  0
 22 21  2  0  0  0  0
 23 22  1  0  0  0  0
 24 23  2  0  0  0  0
 24 25  1  0  0  0  0
 25 30  1  0  0  0  0
 25 26  2  0  0  0  0
 26 21  1  0  0  0  0
 26 33  1  0  0  0  0
 28 23  1  0  0  0  0
 29 24  1  0  0  0  0
 31 32  1  0  0  0  0
 32 39  2  0  0  0  0
 32 33  1  0  0  0  0
 33 34  2  0  0  0  0
 34 35  1  0  0  0  0
 34 36  1  0  0  0  0
 36 37  1  0  0  0  0
 38 36  2  0  0  0  0
 39 38  1  0  0  0  0
 40 41  3  0  0  0  0
 41  1  1  0  0  0  0
M  END
>  <minimizedAffinity>
-6.50795221

$$$$

 OpenBabel03252508403D

 41 44  0  0  0  0  0  0  0  0999 V2000
   39.1220   30.9710   40.0020 C   0  0  0  0  0  0  0  0  0  0  0  0
   39.3370   32.1360   39.3280 C   0  0  0  0  0  0  0  0  0  0  0  0
   38.3150   33.0470   39.2990 C   0  0  0  0  0  0  0  0  0  0  0  0
   37.0930   32.8530   39.9090 C   0  0  0  0  0  0  0  0  0  0  0  0
   36.9070   31.6690   40.5800 C   0  0  0  0  0  0  0  0  0  0  0  0
   37.9100   30.7190   40.6370 C   0  0  0  0  0  0  0  0  0  0  0  0
   38.4750   33.9770   38.7650 H   0  0  0  0  0  0  0  0  0  0  0  0
   36.2960   33.5860   39.8750 H   0  0  0  0  0  0  0  0  0  0  0  0
   35.9420   31.5160   41.0620 H   0  0  0  0  0  0  0  0  0  0  0  0
   42.8590   33.2990   38.6380 C   0  0  0  0  0  0  0  0  0  0  0  0
   41.6110   33.1490   39.2660 C   0  0  0  0  0  0  0  0  0  0  0  0
   40.6320   32.3080   38.7010 C   0  0  0  0  0  0  0  0  0  0  0  0
   40.9970   31.6960   37.5600 N   0  0  0  0  0  0  0  0  0  0  0  0
   42.1790   31.8440   36.9740 C   0  0  0  0  0  0  0  0  0  0  0  0
   43.1110   32.6410   37.5080 N   0  0  0  0  0  0  0  0  0  0  0  0
   43.8050   34.1600   39.2530 N   0  0  0  0  0  0  0  0  0  0  0  0
   41.3740   33.6730   40.1900 H   0  0  0  0  0  0  0  0  0  0  0  0
   42.3630   31.2940   36.0480 H   0  0  0  0  0  0  0  0  0  0  0  0
   44.3910   33.9480   40.0910 H   0  0  0  0  0  0  0  0  0  0  0  0
   44.0960   35.1300   39.0090 H   0  0  0  0  0  0  0  0  0  0  0  0
   37.6140   29.5040   41.3680 C   0  0  0  0  0  0  0  0  0  0  0  0
   38.0160   29.4870   42.6860 C   0  0  0  0  0  0  0  0  0  0  0  0
   37.8190   28.4080   43.5470 C   0  0  0  0  0  0  0  0  0  0  0  0
   37.1810   27.2940   43.0330 C   0  0  0  0  0  0  0  0  0  0  0  0
   36.7670   27.2820   41.7160 C   0  0  0  0  0  0  0  0  0  0  0  0
   36.9870   28.3800   40.9040 C   0  0  0  0  0  0  0  0  0  0  0  0
   38.5240   30.3300   43.1520 H   0  0  0  0  0  0  0  0  0  0  0  0
   38.1310   28.3920   44.5720 H   0  0  0  0  0  0  0  0  0  0  0  0
   36.9660   26.3910   43.5930 H   0  0  0  0  0  0  0  0  0  0  0  0
   36.2610   26.4520   41.2400 H   0  0  0  0  0  0  0  0  0  0  0  0
   34.3900   29.0660   40.4800 F   0  0  0  0  0  0  0  0  0  0  0  0
   35.2060   28.7530   39.4170 C   0  0  0  0  0  0  0  0  0  0  0  0
   36.5530   28.3880   39.5120 C   0  0  0  0  0  0  0  0  0  0  0  0
   37.2400   28.1020   38.3420 C   0  0  0  0  0  0  0  0  0  0  0  0
   38.2500   27.8350   38.5350 H   0  0  0  0  0  0  0  0  0  0  0  0
   36.5770   28.1880   37.1420 C   0  0  0  0  0  0  0  0  0  0  0  0
   37.1960   27.9470   36.2790 H   0  0  0  0  0  0  0  0  0  0  0  0
   35.2490   28.5500   37.0570 C   0  0  0  0  0  3  0  0  0  0  0  0
   34.5380   28.8420   38.2250 C   0  0  0  0  0  3  0  0  0  0  0  0
   40.9500   29.1160   40.1390 N   0  0  0  0  0  0  0  0  0  0  0  0
   40.1350   29.9520   40.0860 C   0  0  0  0  0  0  0  0  0  0  0  0
  1 41  1  0  0  0  0
  1  6  1  0  0  0  0
  2  1  2  0  0  0  0
  3  2  1  0  0  0  0
  3  4  2  0  0  0  0
  4  5  1  0  0  0  0
  5  6  2  0  0  0  0
  5  9  1  0  0  0  0
  6 21  1  0  0  0  0
  7  3  1  0  0  0  0
  8  4  1  0  0  0  0
 10 16  1  0  0  0  0
 10 11  1  0  0  0  0
 11 17  1  0  0  0  0
 12 11  2  0  0  0  0
 12  2  1  0  0  0  0
 13 12  1  0  0  0  0
 14 15  1  0  0  0  0
 14 13  2  0  0  0  0
 15 10  2  0  0  0  0
 16 19  1  0  0  0  0
 18 14  1  0  0  0  0
 20 16  1  0  0  0  0
 21 22  1  0  0  0  0
 22 27  1  0  0  0  0
 22 23  2  0  0  0  0
 23 28  1  0  0  0  0
 24 23  1  0  0  0  0
 24 29  1  0  0  0  0
 25 24  2  0  0  0  0
 26 21  2  0  0  0  0
 26 25  1  0  0  0  0
 30 25  1  0  0  0  0
 32 33  1  0  0  0  0
 32 31  1  0  0  0  0
 33 26  1  0  0  0  0
 34 35  1  0  0  0  0
 34 33  2  0  0  0  0
 36 34  1  0  0  0  0
 37 36  1  0  0  0  0
 38 36  2  0  0  0  0
 38 39  1  0  0  0  0
 39 32  2  0  0  0  0
 41 40  3  0  0  0  0
M  END
>  <minimizedAffinity>
-6.43194294

$$$$

 OpenBabel03252508403D

 41 44  0  0  0  0  0  0  0  0999 V2000
   38.8630   27.4230   41.4100 C   0  0  0  0  0  0  0  0  0  0  0  0
   39.3000   27.4770   42.6990 C   0  0  0  0  0  0  0  0  0  0  0  0
   38.3580   27.6440   43.6800 C   0  0  0  0  0  0  0  0  0  0  0  0
   37.0050   27.7580   43.4350 C   0  0  0  0  0  0  0  0  0  0  0  0
   36.5970   27.6990   42.1240 C   0  0  0  0  0  0  0  0  0  0  0  0
   37.5110   27.5320   41.1020 C   0  0  0  0  0  0  0  0  0  0  0  0
   38.6940   27.6890   44.7090 H   0  0  0  0  0  0  0  0  0  0  0  0
   36.2740   27.8890   44.2240 H   0  0  0  0  0  0  0  0  0  0  0  0
   35.5280   27.7900   41.9320 H   0  0  0  0  0  0  0  0  0  0  0  0
   42.7150   25.9990   43.3230 C   0  0  0  0  0  0  0  0  0  0  0  0
   41.3290   26.0920   43.1110 C   0  0  0  0  0  0  0  0  0  0  0  0
   40.7270   27.3520   42.9200 C   0  0  0  0  0  0  0  0  0  0  0  0
   41.5720   28.3990   42.9600 N   0  0  0  0  0  0  0  0  0  0  0  0
   42.8800   28.3000   43.1620 C   0  0  0  0  0  0  0  0  0  0  0  0
   43.4550   27.1050   43.3430 N   0  0  0  0  0  0  0  0  0  0  0  0
   43.2640   24.7030   43.5090 N   0  0  0  0  0  0  0  0  0  0  0  0
   40.6960   25.2070   43.0890 H   0  0  0  0  0  0  0  0  0  0  0  0
   43.4670   29.2210   43.1730 H   0  0  0  0  0  0  0  0  0  0  0  0
   43.4550   23.9920   42.7690 H   0  0  0  0  0  0  0  0  0  0  0  0
   43.5760   24.2190   44.3780 H   0  0  0  0  0  0  0  0  0  0  0  0
   36.9790   27.4850   39.7550 C   0  0  0  0  0  0  0  0  0  0  0  0
   36.5010   26.2590   39.3450 C   0  0  0  0  0  0  0  0  0  0  0  0
   35.9530   26.0180   38.0860 C   0  0  0  0  0  0  0  0  0  0  0  0
   35.8910   27.0830   37.2060 C   0  0  0  0  0  0  0  0  0  0  0  0
   36.3620   28.3230   37.5890 C   0  0  0  0  0  0  0  0  0  0  0  0
   36.8970   28.5080   38.8510 C   0  0  0  0  0  0  0  0  0  0  0  0
   36.5210   25.3800   39.9870 H   0  0  0  0  0  0  0  0  0  0  0  0
   35.5800   25.0660   37.7640 H   0  0  0  0  0  0  0  0  0  0  0  0
   35.4890   27.0320   36.2000 H   0  0  0  0  0  0  0  0  0  0  0  0
   36.3490   29.2040   36.9610 H   0  0  0  0  0  0  0  0  0  0  0  0
   35.1340   30.0560   40.2250 F   0  0  0  0  0  0  0  0  0  0  0  0
   36.4060   30.5150   39.9700 C   0  0  0  0  0  0  0  0  0  0  0  0
   37.3960   29.8110   39.2760 C   0  0  0  0  0  0  0  0  0  0  0  0
   38.6310   30.4150   39.1010 C   0  0  0  0  0  0  0  0  0  0  0  0
   39.3000   29.7910   38.5600 H   0  0  0  0  0  0  0  0  0  0  0  0
   38.8370   31.6730   39.6120 C   0  0  0  0  0  0  0  0  0  0  0  0
   39.8350   32.0660   39.4270 H   0  0  0  0  0  0  0  0  0  0  0  0
   37.8560   32.3610   40.2960 C   0  0  0  0  0  3  0  0  0  0  0  0
   36.6020   31.7700   40.4830 C   0  0  0  0  0  3  0  0  0  0  0  0
   40.5160   27.1300   39.4140 N   0  0  0  0  0  0  0  0  0  0  0  0
   39.7780   27.2520   40.3110 C   0  0  0  0  0  0  0  0  0  0  0  0
  1  2  1  0  0  0  0
  2 12  1  0  0  0  0
  2  3  2  0  0  0  0
  3  7  1  0  0  0  0
  4  3  1  0  0  0  0
  4  8  1  0  0  0  0
  5  4  2  0  0  0  0
  6  1  2  0  0  0  0
  6  5  1  0  0  0  0
  9  5  1  0  0  0  0
 10 15  1  0  0  0  0
 10 16  1  0  0  0  0
 11 10  2  0  0  0  0
 12 13  2  0  0  0  0
 12 11  1  0  0  0  0
 13 14  1  0  0  0  0
 14 18  1  0  0  0  0
 14 15  2  0  0  0  0
 16 20  1  0  0  0  0
 17 11  1  0  0  0  0
 19 16  1  0  0  0  0
 21  6  1  0  0  0  0
 22 21  1  0  0  0  0
 22 27  1  0  0  0  0
 23 22  2  0  0  0  0
 24 25  2  0  0  0  0
 24 23  1  0  0  0  0
 25 26  1  0  0  0  0
 26 33  1  0  0  0  0
 26 21  2  0  0  0  0
 28 23  1  0  0  0  0
 29 24  1  0  0  0  0
 30 25  1  0  0  0  0
 32 31  1  0  0  0  0
 32 39  1  0  0  0  0
 33 32  2  0  0  0  0
 34 33  1  0  0  0  0
 34 36  2  0  0  0  0
 35 34  1  0  0  0  0
 36 38  1  0  0  0  0
 37 36  1  0  0  0  0
 38 39  2  0  0  0  0
 40 41  3  0  0  0  0
 41  1  1  0  0  0  0
M  END
>  <minimizedAffinity>
-6.37547159

$$$$

 OpenBabel03252508403D

 41 44  0  0  0  0  0  0  0  0999 V2000
   38.6240   27.2960   41.5880 C   0  0  0  0  0  0  0  0  0  0  0  0
   37.5250   26.5320   41.8400 C   0  0  0  0  0  0  0  0  0  0  0  0
   36.7180   26.9090   42.8800 C   0  0  0  0  0  0  0  0  0  0  0  0
   36.9560   28.0090   43.6790 C   0  0  0  0  0  0  0  0  0  0  0  0
   38.0730   28.7580   43.3990 C   0  0  0  0  0  0  0  0  0  0  0  0
   38.9160   28.4160   42.3590 C   0  0  0  0  0  0  0  0  0  0  0  0
   35.8410   26.3090   43.0900 H   0  0  0  0  0  0  0  0  0  0  0  0
   36.3060   28.2920   44.4980 H   0  0  0  0  0  0  0  0  0  0  0  0
   38.2600   29.6270   44.0290 H   0  0  0  0  0  0  0  0  0  0  0  0
   37.6260   23.0300   40.4390 C   0  0  0  0  0  0  0  0  0  0  0  0
   37.8560   24.1250   41.2890 C   0  0  0  0  0  0  0  0  0  0  0  0
   37.3040   25.3850   40.9810 C   0  0  0  0  0  0  0  0  0  0  0  0
   36.5750   25.4270   39.8510 N   0  0  0  0  0  0  0  0  0  0  0  0
   36.3650   24.3860   39.0550 C   0  0  0  0  0  0  0  0  0  0  0  0
   36.8860   23.1880   39.3440 N   0  0  0  0  0  0  0  0  0  0  0  0
   38.2080   21.7860   40.8010 N   0  0  0  0  0  0  0  0  0  0  0  0
   38.4560   24.0290   42.1920 H   0  0  0  0  0  0  0  0  0  0  0  0
   35.7540   24.5400   38.1620 H   0  0  0  0  0  0  0  0  0  0  0  0
   37.8690   21.1280   41.5370 H   0  0  0  0  0  0  0  0  0  0  0  0
   39.0480   21.2980   40.4260 H   0  0  0  0  0  0  0  0  0  0  0  0
   40.0670   29.2700   42.1470 C   0  0  0  0  0  0  0  0  0  0  0  0
   41.2030   28.9240   42.8470 C   0  0  0  0  0  0  0  0  0  0  0  0
   42.4070   29.6240   42.7740 C   0  0  0  0  0  0  0  0  0  0  0  0
   42.4490   30.7300   41.9440 C   0  0  0  0  0  0  0  0  0  0  0  0
   41.3260   31.1000   41.2300 C   0  0  0  0  0  0  0  0  0  0  0  0
   40.1570   30.3700   41.3390 C   0  0  0  0  0  0  0  0  0  0  0  0
   41.2380   28.0670   43.5180 H   0  0  0  0  0  0  0  0  0  0  0  0
   43.2920   29.3580   43.3170 H   0  0  0  0  0  0  0  0  0  0  0  0
   43.3200   31.3590   41.7950 H   0  0  0  0  0  0  0  0  0  0  0  0
   41.2790   31.9490   40.5600 H   0  0  0  0  0  0  0  0  0  0  0  0
   40.1700   29.7240   38.6980 F   0  0  0  0  0  0  0  0  0  0  0  0
   39.0830   30.3620   39.2490 C   0  0  0  0  0  0  0  0  0  0  0  0
   38.9620   30.7420   40.5910 C   0  0  0  0  0  0  0  0  0  0  0  0
   37.7990   31.3800   40.9900 C   0  0  0  0  0  0  0  0  0  0  0  0
   37.8190   31.6240   42.0240 H   0  0  0  0  0  0  0  0  0  0  0  0
   36.8130   31.6130   40.0620 C   0  0  0  0  0  0  0  0  0  0  0  0
   35.9370   32.1170   40.4670 H   0  0  0  0  0  0  0  0  0  0  0  0
   36.9390   31.2350   38.7410 C   0  0  0  0  0  3  0  0  0  0  0  0
   38.1050   30.5900   38.3170 C   0  0  0  0  0  3  0  0  0  0  0  0
   40.2820   26.7130   39.6600 N   0  0  0  0  0  0  0  0  0  0  0  0
   39.5330   26.9770   40.5170 C   0  0  0  0  0  0  0  0  0  0  0  0
  1  2  2  0  0  0  0
  1  6  1  0  0  0  0
  2  3  1  0  0  0  0
  3  7  1  0  0  0  0
  3  4  2  0  0  0  0
  4  8  1  0  0  0  0
  5  4  1  0  0  0  0
  5  9  1  0  0  0  0
  6  5  2  0  0  0  0
 10 16  1  0  0  0  0
 10 11  1  0  0  0  0
 11 17  1  0  0  0  0
 12 11  2  0  0  0  0
 12  2  1  0  0  0  0
 13 12  1  0  0  0  0
 14 15  1  0  0  0  0
 14 13  2  0  0  0  0
 15 10  2  0  0  0  0
 16 19  1  0  0  0  0
 18 14  1  0  0  0  0
 20 16  1  0  0  0  0
 21  6  1  0  0  0  0
 21 22  1  0  0  0  0
 22 27  1  0  0  0  0
 23 22  2  0  0  0  0
 23 28  1  0  0  0  0
 24 23  1  0  0  0  0
 25 26  1  0  0  0  0
 25 24  2  0  0  0  0
 26 21  2  0  0  0  0
 29 24  1  0  0  0  0
 30 25  1  0  0  0  0
 31 32  1  0  0  0  0
 32 33  1  0  0  0  0
 33 34  2  0  0  0  0
 33 26  1  0  0  0  0
 34 35  1  0  0  0  0
 36 37  1  0  0  0  0
 36 34  1  0  0  0  0
 38 36  2  0  0  0  0
 39 38  1  0  0  0  0
 39 32  2  0  0  0  0
 40 41  3  0  0  0  0
 41  1  1  0  0  0  0
M  END
>  <minimizedAffinity>
-6.22779322

$$$$

 OpenBabel03252508403D

 41 44  0  0  0  0  0  0  0  0999 V2000
   36.4010   27.3540   39.0280 C   0  0  0  0  0  0  0  0  0  0  0  0
   35.5570   28.1850   38.3540 C   0  0  0  0  0  0  0  0  0  0  0  0
   34.8880   29.1320   39.0830 C   0  0  0  0  0  0  0  0  0  0  0  0
   35.0200   29.2880   40.4480 C   0  0  0  0  0  0  0  0  0  0  0  0
   35.8780   28.4340   41.0970 C   0  0  0  0  0  0  0  0  0  0  0  0
   36.5740   27.4640   40.4040 C   0  0  0  0  0  0  0  0  0  0  0  0
   34.2140   29.7990   38.5570 H   0  0  0  0  0  0  0  0  0  0  0  0
   34.4820   30.0440   41.0070 H   0  0  0  0  0  0  0  0  0  0  0  0
   35.9820   28.5580   42.1750 H   0  0  0  0  0  0  0  0  0  0  0  0
   36.1160   28.5210   34.6380 C   0  0  0  0  0  0  0  0  0  0  0  0
   36.2450   28.7250   36.0220 C   0  0  0  0  0  0  0  0  0  0  0  0
   35.4440   27.9940   36.9220 C   0  0  0  0  0  0  0  0  0  0  0  0
   34.5890   27.1280   36.3490 N   0  0  0  0  0  0  0  0  0  0  0  0
   34.4740   26.9430   35.0390 C   0  0  0  0  0  0  0  0  0  0  0  0
   35.2330   27.6340   34.1820 N   0  0  0  0  0  0  0  0  0  0  0  0
   36.9490   29.2860   33.7810 N   0  0  0  0  0  0  0  0  0  0  0  0
   36.9570   29.4430   36.4270 H   0  0  0  0  0  0  0  0  0  0  0  0
   33.7440   26.2090   34.6890 H   0  0  0  0  0  0  0  0  0  0  0  0
   37.9620   29.1240   33.5840 H   0  0  0  0  0  0  0  0  0  0  0  0
   36.7350   30.1240   33.2000 H   0  0  0  0  0  0  0  0  0  0  0  0
   37.4520   26.6120   41.1810 C   0  0  0  0  0  0  0  0  0  0  0  0
   36.9750   25.3470   41.4480 C   0  0  0  0  0  0  0  0  0  0  0  0
   37.6740   24.3880   42.1800 C   0  0  0  0  0  0  0  0  0  0  0  0
   38.9210   24.7420   42.6610 C   0  0  0  0  0  0  0  0  0  0  0  0
   39.4260   26.0040   42.4090 C   0  0  0  0  0  0  0  0  0  0  0  0
   38.6900   26.9170   41.6770 C   0  0  0  0  0  0  0  0  0  0  0  0
   36.0010   25.0060   41.1000 H   0  0  0  0  0  0  0  0  0  0  0  0
   37.3050   23.4040   42.3890 H   0  0  0  0  0  0  0  0  0  0  0  0
   39.5680   24.0940   43.2420 H   0  0  0  0  0  0  0  0  0  0  0  0
   40.3910   26.3560   42.7490 H   0  0  0  0  0  0  0  0  0  0  0  0
   38.4090   28.7350   43.6800 F   0  0  0  0  0  0  0  0  0  0  0  0
   39.0070   29.0970   42.4950 C   0  0  0  0  0  0  0  0  0  0  0  0
   39.2070   28.2520   41.3980 C   0  0  0  0  0  0  0  0  0  0  0  0
   39.8260   28.7710   40.2720 C   0  0  0  0  0  0  0  0  0  0  0  0
   39.9220   28.0430   39.5040 H   0  0  0  0  0  0  0  0  0  0  0  0
   40.2200   30.0880   40.2750 C   0  0  0  0  0  0  0  0  0  0  0  0
   40.6970   30.4070   39.3500 H   0  0  0  0  0  0  0  0  0  0  0  0
   40.0190   30.9150   41.3600 C   0  0  0  0  0  3  0  0  0  0  0  0
   39.3960   30.4110   42.5060 C   0  0  0  0  0  3  0  0  0  0  0  0
   37.7530   25.4830   37.8140 N   0  0  0  0  0  0  0  0  0  0  0  0
   37.1460   26.3260   38.3490 C   0  0  0  0  0  0  0  0  0  0  0  0
  1  6  1  0  0  0  0
  2  1  2  0  0  0  0
  2  3  1  0  0  0  0
  3  4  2  0  0  0  0
  4  8  1  0  0  0  0
  4  5  1  0  0  0  0
  5  9  1  0  0  0  0
  6  5  2  0  0  0  0
  6 21  1  0  0  0  0
  7  3  1  0  0  0  0
 10 11  1  0  0  0  0
 11 17  1  0  0  0  0
 11 12  2  0  0  0  0
 12  2  1  0  0  0  0
 13 12  1  0  0  0  0
 14 13  2  0  0  0  0
 15 10  2  0  0  0  0
 15 14  1  0  0  0  0
 16 10  1  0  0  0  0
 18 14  1  0  0  0  0
 19 16  1  0  0  0  0
 20 16  1  0  0  0  0
 21 22  2  0  0  0  0
 21 26  1  0  0  0  0
 22 23  1  0  0  0  0
 23 28  1  0  0  0  0
 23 24  2  0  0  0  0
 24 29  1  0  0  0  0
 25 24  1  0  0  0  0
 25 30  1  0  0  0  0
 26 25  2  0  0  0  0
 27 22  1  0  0  0  0
 32 39  1  0  0  0  0
 32 31  1  0  0  0  0
 33 26  1  0  0  0  0
 33 32  2  0  0  0  0
 34 36  2  0  0  0  0
 34 33  1  0  0  0  0
 35 34  1  0  0  0  0
 36 38  1  0  0  0  0
 37 36  1  0  0  0  0
 38 39  2  0  0  0  0
 40 41  3  0  0  0  0
 41  1  1  0  0  0  0
M  END
>  <minimizedAffinity>
-6.16175938

$$$$
