
 OpenBabel03252508323D

 32 34  0  0  1  0  0  0  0  0999 V2000
   45.1630   34.2320   41.9920 N   0  0  0  0  0  0  0  0  0  0  0  0
   46.1530   33.4160   41.3470 C   0  0  1  0  0  0  0  0  0  0  0  0
   46.0710   33.4300   39.8560 C   0  0  0  0  0  0  0  0  0  0  0  0
   44.7780   33.4440   39.2970 N   0  0  0  0  0  0  0  0  0  0  0  0
   43.7420   34.0620   40.0190 C   0  0  0  0  0  0  0  0  0  0  0  0
   44.3160   34.9650   41.0990 C   0  0  0  0  0  0  0  0  0  0  0  0
   46.0770   32.3810   41.7370 H   0  0  0  0  0  0  0  0  0  0  0  0
   46.6380   34.3160   39.4820 H   0  0  0  0  0  0  0  0  0  0  0  0
   46.6610   32.5460   39.4980 H   0  0  0  0  0  0  0  0  0  0  0  0
   44.5060   32.6420   38.7140 H   0  0  0  0  0  0  0  0  0  0  0  0
   43.1600   33.2690   40.5460 H   0  0  0  0  0  0  0  0  0  0  0  0
   43.0220   34.6370   39.4310 H   0  0  0  0  0  0  0  0  0  0  0  0
   44.8440   35.7810   40.5670 H   0  0  0  0  0  0  0  0  0  0  0  0
   43.4540   35.3930   41.6270 H   0  0  0  0  0  0  0  0  0  0  0  0
   44.6710   35.3950   44.0100 C   0  0  0  0  0  0  0  0  0  0  0  0
   45.1300   34.2270   43.4090 C   0  0  0  0  0  0  0  0  0  0  0  0
   45.5060   33.1850   44.2380 C   0  0  0  0  0  0  0  0  0  0  0  0
   45.4220   33.3180   45.5900 N   0  0  0  0  0  0  0  0  0  0  0  0
   44.9680   34.4750   46.1400 C   0  0  0  0  0  0  0  0  0  0  0  0
   44.5980   35.5020   45.3470 N   0  0  0  0  0  0  0  0  0  0  0  0
   44.3350   36.3190   43.5670 H   0  0  0  0  0  0  0  0  0  0  0  0
   45.8570   32.2870   43.7520 H   0  0  0  0  0  0  0  0  0  0  0  0
   44.9480   34.4590   47.2310 H   0  0  0  0  0  0  0  0  0  0  0  0
   48.2350   32.0260   42.7330 F   0  0  0  0  0  0  0  0  0  0  0  0
   48.4890   33.3160   42.3680 C   0  0  0  0  0  0  0  0  0  0  0  0
   47.4970   34.0020   41.6980 C   0  0  0  0  0  0  0  0  0  0  0  0
   47.8210   35.2910   41.3630 C   0  0  0  0  0  0  0  0  0  0  0  0
   47.1460   35.9290   40.8450 H   0  0  0  0  0  0  0  0  0  0  0  0
   49.0430   35.8790   41.6630 C   0  0  0  0  0  0  0  0  0  0  0  0
   49.2730   36.9050   41.3850 H   0  0  0  0  0  0  0  0  0  0  0  0
   49.9890   35.1290   42.3370 C   0  0  0  0  0  3  0  0  0  0  0  0
   49.6980   33.8450   42.6850 C   0  0  0  0  0  3  0  0  0  0  0  0
  1 16  1  0  0  0  0
  2 26  1  0  0  0  0
  2  7  1  1  0  0  0
  2  1  1  0  0  0  0
  3  2  1  0  0  0  0
  4  3  1  0  0  0  0
  4  5  1  0  0  0  0
  5 11  1  0  0  0  0
  5  6  1  0  0  0  0
  6 14  1  0  0  0  0
  6  1  1  0  0  0  0
  8  3  1  0  0  0  0
  9  3  1  0  0  0  0
 10  4  1  0  0  0  0
 12  5  1  0  0  0  0
 13  6  1  0  0  0  0
 15 20  1  0  0  0  0
 16 15  2  0  0  0  0
 16 17  1  0  0  0  0
 17 18  2  0  0  0  0
 18 19  1  0  0  0  0
 19 23  1  0  0  0  0
 20 19  2  0  0  0  0
 21 15  1  0  0  0  0
 22 17  1  0  0  0  0
 25 32  1  0  0  0  0
 25 24  1  0  0  0  0
 26 25  2  0  0  0  0
 27 29  2  0  0  0  0
 27 26  1  0  0  0  0
 28 27  1  0  0  0  0
 29 31  1  0  0  0  0
 30 29  1  0  0  0  0
 31 32  2  0  0  0  0
M  END
>  <minimizedAffinity>
-5.52000284

>  <minimizedRMSD>
1.91052783

$$$$
