
     RDKit          3D

 34 36  0  0  0  0  0  0  0  0999 V2000
   44.6654   35.1285   44.2056 C   0  0  0  0  0  0  0  0  0  0  0  0
   44.7552   34.0955   43.2779 C   0  0  0  0  0  0  0  0  0  0  0  0
   45.2998   32.8984   43.7032 C   0  0  0  0  0  0  0  0  0  0  0  0
   45.7274   32.7554   44.9883 N   0  0  0  0  0  0  0  0  0  0  0  0
   45.6230   33.7873   45.8659 C   0  0  0  0  0  0  0  0  0  0  0  0
   45.0939   34.9630   45.4682 N   0  0  0  0  0  0  0  0  0  0  0  0
   44.2701   34.3885   41.9787 N   0  0  0  0  0  0  0  0  0  0  0  0
   44.4395   33.3859   40.9638 C   0  0  1  0  0  0  0  0  0  0  0  0
   43.8409   33.7512   39.6461 C   0  0  0  0  0  0  0  0  0  0  0  0
   42.6101   34.4350   39.6822 N   0  0  0  0  0  0  0  0  0  0  0  0
   42.3357   35.2665   40.7815 C   0  0  0  0  0  0  0  0  0  0  0  0
   43.6181   35.5847   41.5365 C   0  0  0  0  0  0  0  0  0  0  0  0
   44.2847   36.1320   44.0955 H   0  0  0  0  0  0  0  0  0  0  0  0
   45.3592   32.1090   42.9680 H   0  0  0  0  0  0  0  0  0  0  0  0
   45.9986   33.5505   46.8623 H   0  0  0  0  0  0  0  0  0  0  0  0
   44.0273   32.4260   41.3325 H   0  0  0  0  0  0  0  0  0  0  0  0
   44.5818   34.3684   39.0825 H   0  0  0  0  0  0  0  0  0  0  0  0
   43.7620   32.7986   39.0585 H   0  0  0  0  0  0  0  0  0  0  0  0
   41.7984   33.9715   39.2547 H   0  0  0  0  0  0  0  0  0  0  0  0
   41.6829   34.7059   41.4922 H   0  0  0  0  0  0  0  0  0  0  0  0
   41.8212   36.2052   40.5598 H   0  0  0  0  0  0  0  0  0  0  0  0
   44.2367   36.1904   40.8441 H   0  0  0  0  0  0  0  0  0  0  0  0
   43.3228   36.2159   42.3842 H   0  0  0  0  0  0  0  0  0  0  0  0
   46.4128   35.2668   41.8353 F   0  0  0  0  0  0  0  0  0  0  0  0
   46.8588   34.1703   41.1559 C   0  0  0  0  0  0  0  0  0  0  0  0
   45.9228   33.2527   40.7281 C   0  0  0  0  0  0  0  0  0  0  0  0
   46.4425   32.1786   40.0536 C   0  0  0  0  0  0  0  0  0  0  0  0
   45.8305   31.3995   39.6704 H   0  0  0  0  0  0  0  0  0  0  0  0
   47.7992   32.0078   39.8094 C   0  0  0  0  0  0  0  0  0  0  0  0
   48.1853   31.1443   39.2705 H   0  0  0  0  0  0  0  0  0  0  0  0
   48.6792   32.9704   40.2691 C   0  0  0  0  0  0  0  0  0  0  0  0
   48.1947   34.0505   40.9432 C   0  0  0  0  0  0  0  0  0  0  0  0
   49.7362   32.8531   40.0879 H   0  0  0  0  0  0  0  0  0  0  0  0
   48.8697   34.8285   41.3187 H   0  0  0  0  0  0  0  0  0  0  0  0
  1  6  2  0
  2  3  2  0
  2  1  1  0
  3  4  1  0
  4  5  2  0
  6  5  1  0
  7  2  1  0
  8  7  1  0
  9 10  1  0
  9  8  1  0
 10 11  1  0
 11 12  1  0
 12  7  1  0
  1 13  1  0
  3 14  1  0
  5 15  1  0
  8 16  1  1
  9 17  1  0
  9 18  1  0
 10 19  1  0
 11 20  1  0
 11 21  1  0
 12 22  1  0
 12 23  1  0
 24 25  1  0
 25 26  2  0
 26 27  1  0
 27 28  1  0
 27 29  2  0
 29 30  1  0
 29 31  1  0
 31 32  2  0
 32 25  1  0
 31 33  1  0
 32 34  1  0
  8 26  1  0
M  ISO  8  13  14  14  14  15  14  16  13  17  13  18  13  19   5  20  13
M  ISO  5  21  13  22  13  23  13  28  15  30  16
M  END
>  <DihAtoms>  (1) 
6,7,25,24

>  <DihDeg>  (1) 
149.73918113868342

$$$$
