
 OpenBabel03242518243D

 32 34  0  0  0  0  0  0  0  0999 V2000
   38.5100   27.7760   40.2250 C   0  0  0  0  0  0  0  0  0  0  0  0
   37.5910   27.2750   41.1380 C   0  0  0  0  0  0  0  0  0  0  0  0
   36.7730   28.1960   41.8090 C   0  0  0  0  0  0  0  0  0  0  0  0
   36.8910   29.5300   41.5590 N   0  0  0  0  0  0  0  0  0  0  0  0
   37.8070   29.9690   40.6570 C   0  0  0  0  0  0  0  0  0  0  0  0
   38.5930   29.1140   40.0100 N   0  0  0  0  0  0  0  0  0  0  0  0
   39.2170   27.2340   39.6200 H   0  0  0  0  0  0  0  0  0  0  0  0
   36.0760   27.7990   42.5020 H   0  0  0  0  0  0  0  0  0  0  0  0
   37.5630   25.8860   41.3230 N   0  0  0  0  0  0  0  0  0  0  0  0
   36.8510   25.0890   40.3580 C   0  0  0  0  0  0  0  0  0  0  0  0
   36.7700   23.6400   40.7540 C   0  0  0  0  0  0  0  0  0  0  0  0
   38.0450   23.1070   41.1080 N   0  0  0  0  0  0  0  0  0  0  0  0
   38.9140   23.9380   41.8550 C   0  0  0  0  0  0  0  0  0  0  0  0
   38.1750   25.1550   42.3930 C   0  0  0  0  0  0  0  0  0  0  0  0
   37.4310   25.1580   39.4130 H   0  0  0  0  0  0  0  0  0  0  0  0
   35.8420   25.4790   40.1820 H   0  0  0  0  0  0  0  0  0  0  0  0
   36.3800   23.0700   39.8830 H   0  0  0  0  0  0  0  0  0  0  0  0
   36.0960   23.5430   41.6310 H   0  0  0  0  0  0  0  0  0  0  0  0
   38.4980   22.7240   40.2470 H   0  0  0  0  0  0  0  0  0  0  0  0
   39.2980   23.3530   42.7300 H   0  0  0  0  0  0  0  0  0  0  0  0
   39.7960   24.3280   41.3010 H   0  0  0  0  0  0  0  0  0  0  0  0
   37.4090   24.7200   43.0940 H   0  0  0  0  0  0  0  0  0  0  0  0
   38.8800   25.6900   43.0170 H   0  0  0  0  0  0  0  0  0  0  0  0
   39.6760   31.5410   41.9100 F   0  0  0  0  0  0  0  0  0  0  0  0
   38.8460   32.1740   41.0490 C   0  0  0  0  0  0  0  0  0  0  0  0
   37.9070   31.4160   40.4130 C   0  0  0  0  0  0  0  0  0  0  0  0
   37.0520   32.0700   39.5260 C   0  0  0  0  0  0  0  0  0  0  0  0
   36.2880   31.4830   39.0010 H   0  0  0  0  0  0  0  0  0  0  0  0
   37.1850   33.4140   39.3330 C   0  0  0  0  0  0  0  0  0  0  0  0
   36.5400   33.9570   38.6530 H   0  0  0  0  0  0  0  0  0  0  0  0
   38.1530   34.1610   39.9970 C   0  0  0  0  0  3  0  0  0  0  0  0
   39.0100   33.5300   40.8800 C   0  0  0  0  0  3  0  0  0  0  0  0
  1  2  1  0  0  0  0
  2  9  1  0  0  0  0
  2  3  2  0  0  0  0
  3  8  1  0  0  0  0
  4  3  1  0  0  0  0
  5  4  2  0  0  0  0
  6  1  2  0  0  0  0
  6  5  1  0  0  0  0
  7  1  1  0  0  0  0
  9 14  1  0  0  0  0
 10 11  1  0  0  0  0
 10  9  1  0  0  0  0
 11 12  1  0  0  0  0
 11 18  1  0  0  0  0
 12 13  1  0  0  0  0
 13 14  1  0  0  0  0
 13 20  1  0  0  0  0
 14 23  1  0  0  0  0
 14 22  1  0  0  0  0
 15 10  1  0  0  0  0
 16 10  1  0  0  0  0
 17 11  1  0  0  0  0
 19 12  1  0  0  0  0
 21 13  1  0  0  0  0
 25 24  1  0  0  0  0
 26  5  1  0  0  0  0
 26 25  2  0  0  0  0
 27 26  1  0  0  0  0
 28 27  1  0  0  0  0
 29 27  2  0  0  0  0
 29 31  1  0  0  0  0
 30 29  1  0  0  0  0
 31 32  2  0  0  0  0
 32 25  1  0  0  0  0
M  END
>  <minimizedAffinity>
-5.08624983

$$$$

 OpenBabel03242518243D

 32 34  0  0  0  0  0  0  0  0999 V2000
   41.2230   30.5840   39.6010 C   0  0  0  0  0  0  0  0  0  0  0  0
   41.2730   31.9150   39.9950 C   0  0  0  0  0  0  0  0  0  0  0  0
   40.4250   32.3150   41.0390 C   0  0  0  0  0  0  0  0  0  0  0  0
   39.5910   31.4160   41.6320 N   0  0  0  0  0  0  0  0  0  0  0  0
   39.5800   30.1260   41.2080 C   0  0  0  0  0  0  0  0  0  0  0  0
   40.3740   29.7240   40.2200 N   0  0  0  0  0  0  0  0  0  0  0  0
   41.7880   30.0920   38.8270 H   0  0  0  0  0  0  0  0  0  0  0  0
   40.4750   33.3330   41.3300 H   0  0  0  0  0  0  0  0  0  0  0  0
   42.1600   32.7540   39.3090 N   0  0  0  0  0  0  0  0  0  0  0  0
   43.5160   32.3050   39.1330 C   0  0  0  0  0  0  0  0  0  0  0  0
   44.3970   33.3580   38.5180 C   0  0  0  0  0  0  0  0  0  0  0  0
   43.8220   33.9200   37.3390 N   0  0  0  0  0  0  0  0  0  0  0  0
   42.4280   34.1610   37.3460 C   0  0  0  0  0  0  0  0  0  0  0  0
   41.8610   34.0410   38.7540 C   0  0  0  0  0  0  0  0  0  0  0  0
   43.4680   31.4430   38.4340 H   0  0  0  0  0  0  0  0  0  0  0  0
   43.9530   31.9670   40.0790 H   0  0  0  0  0  0  0  0  0  0  0  0
   45.3620   32.8780   38.2440 H   0  0  0  0  0  0  0  0  0  0  0  0
   44.5500   34.1750   39.2540 H   0  0  0  0  0  0  0  0  0  0  0  0
   44.1270   33.3520   36.5160 H   0  0  0  0  0  0  0  0  0  0  0  0
   42.2480   35.2070   36.9900 H   0  0  0  0  0  0  0  0  0  0  0  0
   41.8220   33.4810   36.7070 H   0  0  0  0  0  0  0  0  0  0  0  0
   42.3680   34.8700   39.3220 H   0  0  0  0  0  0  0  0  0  0  0  0
   40.8160   34.3200   38.6880 H   0  0  0  0  0  0  0  0  0  0  0  0
   40.3810   28.5270   43.2910 F   0  0  0  0  0  0  0  0  0  0  0  0
   39.0910   28.3980   42.9030 C   0  0  0  0  0  0  0  0  0  0  0  0
   38.6670   29.1810   41.8700 C   0  0  0  0  0  0  0  0  0  0  0  0
   37.3370   29.0470   41.4700 C   0  0  0  0  0  0  0  0  0  0  0  0
   36.9700   29.6650   40.6410 H   0  0  0  0  0  0  0  0  0  0  0  0
   36.5290   28.1560   42.1150 C   0  0  0  0  0  0  0  0  0  0  0  0
   35.4910   28.0230   41.8340 H   0  0  0  0  0  0  0  0  0  0  0  0
   36.9910   27.3710   43.1670 C   0  0  0  0  0  3  0  0  0  0  0  0
   38.3060   27.4900   43.5770 C   0  0  0  0  0  3  0  0  0  0  0  0
  1  2  2  0  0  0  0
  1  6  1  0  0  0  0
  2  3  1  0  0  0  0
  3  8  1  0  0  0  0
  3  4  2  0  0  0  0
  5  4  1  0  0  0  0
  5 26  1  0  0  0  0
  6  5  2  0  0  0  0
  7  1  1  0  0  0  0
  9  2  1  0  0  0  0
 10  9  1  0  0  0  0
 10 16  1  0  0  0  0
 11 10  1  0  0  0  0
 11 18  1  0  0  0  0
 12 13  1  0  0  0  0
 12 11  1  0  0  0  0
 13 14  1  0  0  0  0
 14  9  1  0  0  0  0
 14 22  1  0  0  0  0
 15 10  1  0  0  0  0
 17 11  1  0  0  0  0
 19 12  1  0  0  0  0
 20 13  1  0  0  0  0
 21 13  1  0  0  0  0
 23 14  1  0  0  0  0
 25 24  1  0  0  0  0
 25 32  1  0  0  0  0
 26 25  2  0  0  0  0
 27 26  1  0  0  0  0
 27 29  2  0  0  0  0
 28 27  1  0  0  0  0
 29 31  1  0  0  0  0
 30 29  1  0  0  0  0
 31 32  2  0  0  0  0
M  END
>  <minimizedAffinity>
-5.00933456

$$$$

 OpenBabel03242518243D

 32 34  0  0  0  0  0  0  0  0999 V2000
   41.2710   30.1110   39.5190 C   0  0  0  0  0  0  0  0  0  0  0  0
   40.7970   31.3150   39.0150 C   0  0  0  0  0  0  0  0  0  0  0  0
   39.4910   31.6940   39.3560 C   0  0  0  0  0  0  0  0  0  0  0  0
   38.7290   30.8950   40.1550 N   0  0  0  0  0  0  0  0  0  0  0  0
   39.2390   29.7260   40.6210 C   0  0  0  0  0  0  0  0  0  0  0  0
   40.4750   29.3460   40.3100 N   0  0  0  0  0  0  0  0  0  0  0  0
   42.2340   29.6540   39.3700 H   0  0  0  0  0  0  0  0  0  0  0  0
   39.1430   32.6160   38.9650 H   0  0  0  0  0  0  0  0  0  0  0  0
   41.6620   32.0520   38.1950 N   0  0  0  0  0  0  0  0  0  0  0  0
   41.6700   33.4850   38.3350 C   0  0  0  0  0  0  0  0  0  0  0  0
   42.5250   34.1610   37.2980 C   0  0  0  0  0  0  0  0  0  0  0  0
   43.8290   33.5870   37.2180 N   0  0  0  0  0  0  0  0  0  0  0  0
   43.9280   32.1800   37.3260 C   0  0  0  0  0  0  0  0  0  0  0  0
   42.5580   31.5250   37.2080 C   0  0  0  0  0  0  0  0  0  0  0  0
   42.1060   33.6950   39.3340 H   0  0  0  0  0  0  0  0  0  0  0  0
   40.6550   33.8960   38.2990 H   0  0  0  0  0  0  0  0  0  0  0  0
   42.6280   35.2300   37.5860 H   0  0  0  0  0  0  0  0  0  0  0  0
   42.0370   34.0580   36.3050 H   0  0  0  0  0  0  0  0  0  0  0  0
   44.4550   34.0860   37.8900 H   0  0  0  0  0  0  0  0  0  0  0  0
   44.5630   31.8040   36.4840 H   0  0  0  0  0  0  0  0  0  0  0  0
   44.3730   31.8030   38.2740 H   0  0  0  0  0  0  0  0  0  0  0  0
   42.2260   31.7800   36.1630 H   0  0  0  0  0  0  0  0  0  0  0  0
   42.7280   30.4560   37.2150 H   0  0  0  0  0  0  0  0  0  0  0  0
   38.8770   30.2550   43.2910 F   0  0  0  0  0  0  0  0  0  0  0  0
   38.2270   29.1730   42.8040 C   0  0  0  0  0  0  0  0  0  0  0  0
   38.3900   28.8870   41.4800 C   0  0  0  0  0  0  0  0  0  0  0  0
   37.7190   27.7700   40.9810 C   0  0  0  0  0  0  0  0  0  0  0  0
   37.8320   27.5180   39.9200 H   0  0  0  0  0  0  0  0  0  0  0  0
   36.9420   27.0230   41.8190 C   0  0  0  0  0  0  0  0  0  0  0  0
   36.4060   26.1490   41.4690 H   0  0  0  0  0  0  0  0  0  0  0  0
   36.7960   27.3410   43.1660 C   0  0  0  0  0  3  0  0  0  0  0  0
   37.4530   28.4440   43.6790 C   0  0  0  0  0  3  0  0  0  0  0  0
  1  6  1  0  0  0  0
  2  3  1  0  0  0  0
  2  1  2  0  0  0  0
  3  4  2  0  0  0  0
  4  5  1  0  0  0  0
  5 26  1  0  0  0  0
  6  5  2  0  0  0  0
  7  1  1  0  0  0  0
  8  3  1  0  0  0  0
  9 10  1  0  0  0  0
  9  2  1  0  0  0  0
 10 15  1  0  0  0  0
 11 17  1  0  0  0  0
 11 10  1  0  0  0  0
 12 11  1  0  0  0  0
 12 13  1  0  0  0  0
 12 19  1  0  0  0  0
 13 21  1  0  0  0  0
 14 23  1  0  0  0  0
 14 13  1  0  0  0  0
 14  9  1  0  0  0  0
 16 10  1  0  0  0  0
 18 11  1  0  0  0  0
 20 13  1  0  0  0  0
 22 14  1  0  0  0  0
 25 24  1  0  0  0  0
 25 32  1  0  0  0  0
 26 25  2  0  0  0  0
 27 26  1  0  0  0  0
 27 29  2  0  0  0  0
 28 27  1  0  0  0  0
 29 31  1  0  0  0  0
 30 29  1  0  0  0  0
 31 32  2  0  0  0  0
M  END
>  <minimizedAffinity>
-5.00930738

$$$$

 OpenBabel03242518243D

 32 34  0  0  0  0  0  0  0  0999 V2000
   39.9800   29.3350   40.3690 C   0  0  0  0  0  0  0  0  0  0  0  0
   39.2030   30.4670   40.5710 C   0  0  0  0  0  0  0  0  0  0  0  0
   37.8420   30.2790   40.8560 C   0  0  0  0  0  0  0  0  0  0  0  0
   37.3220   29.0220   40.9290 N   0  0  0  0  0  0  0  0  0  0  0  0
   38.1250   27.9470   40.7220 C   0  0  0  0  0  0  0  0  0  0  0  0
   39.4180   28.1010   40.4500 N   0  0  0  0  0  0  0  0  0  0  0  0
   41.0310   29.2740   40.1410 H   0  0  0  0  0  0  0  0  0  0  0  0
   37.2620   31.1530   41.0090 H   0  0  0  0  0  0  0  0  0  0  0  0
   39.8400   31.7100   40.4620 N   0  0  0  0  0  0  0  0  0  0  0  0
   39.0730   32.8910   40.7640 C   0  0  0  0  0  0  0  0  0  0  0  0
   39.8260   34.1590   40.4640 C   0  0  0  0  0  0  0  0  0  0  0  0
   41.1300   34.1610   41.0410 N   0  0  0  0  0  0  0  0  0  0  0  0
   41.8590   32.9480   41.0050 C   0  0  0  0  0  0  0  0  0  0  0  0
   41.1990   31.9420   40.0720 C   0  0  0  0  0  0  0  0  0  0  0  0
   38.8730   32.8580   41.8560 H   0  0  0  0  0  0  0  0  0  0  0  0
   38.1170   32.8960   40.2300 H   0  0  0  0  0  0  0  0  0  0  0  0
   39.2490   35.0070   40.8940 H   0  0  0  0  0  0  0  0  0  0  0  0
   39.9310   34.2630   39.3630 H   0  0  0  0  0  0  0  0  0  0  0  0
   41.0690   34.5640   42.0030 H   0  0  0  0  0  0  0  0  0  0  0  0
   42.8850   33.1630   40.6100 H   0  0  0  0  0  0  0  0  0  0  0  0
   41.9790   32.4340   41.9840 H   0  0  0  0  0  0  0  0  0  0  0  0
   41.2660   32.4280   39.0590 H   0  0  0  0  0  0  0  0  0  0  0  0
   41.8560   31.0820   40.0350 H   0  0  0  0  0  0  0  0  0  0  0  0
   38.0770   26.5100   43.0610 F   0  0  0  0  0  0  0  0  0  0  0  0
   37.5200   25.9120   41.9820 C   0  0  0  0  0  0  0  0  0  0  0  0
   37.5300   26.6050   40.8070 C   0  0  0  0  0  0  0  0  0  0  0  0
   36.9560   25.9860   39.6960 C   0  0  0  0  0  0  0  0  0  0  0  0
   36.9520   26.5210   38.7390 H   0  0  0  0  0  0  0  0  0  0  0  0
   36.4170   24.7390   39.8260 C   0  0  0  0  0  0  0  0  0  0  0  0
   35.9630   24.2260   38.9870 H   0  0  0  0  0  0  0  0  0  0  0  0
   36.4210   24.0570   41.0390 C   0  0  0  0  0  3  0  0  0  0  0  0
   36.9860   24.6540   42.1510 C   0  0  0  0  0  3  0  0  0  0  0  0
  1  6  2  0  0  0  0
  1  2  1  0  0  0  0
  2  3  2  0  0  0  0
  3  4  1  0  0  0  0
  3  8  1  0  0  0  0
  5 26  1  0  0  0  0
  5  4  2  0  0  0  0
  6  5  1  0  0  0  0
  7  1  1  0  0  0  0
  9  2  1  0  0  0  0
  9 10  1  0  0  0  0
 10 15  1  0  0  0  0
 11 10  1  0  0  0  0
 11 17  1  0  0  0  0
 11 12  1  0  0  0  0
 12 19  1  0  0  0  0
 13 12  1  0  0  0  0
 13 21  1  0  0  0  0
 14  9  1  0  0  0  0
 14 13  1  0  0  0  0
 16 10  1  0  0  0  0
 18 11  1  0  0  0  0
 20 13  1  0  0  0  0
 22 14  1  0  0  0  0
 23 14  1  0  0  0  0
 25 32  1  0  0  0  0
 25 24  1  0  0  0  0
 26 25  2  0  0  0  0
 27 29  2  0  0  0  0
 27 26  1  0  0  0  0
 28 27  1  0  0  0  0
 29 31  1  0  0  0  0
 30 29  1  0  0  0  0
 31 32  2  0  0  0  0
M  END
>  <minimizedAffinity>
-4.82975245

$$$$

 OpenBabel03242518243D

 32 34  0  0  0  0  0  0  0  0999 V2000
   39.5400   29.3260   40.2190 C   0  0  0  0  0  0  0  0  0  0  0  0
   38.6940   30.4110   40.4040 C   0  0  0  0  0  0  0  0  0  0  0  0
   37.3410   30.1440   40.6640 C   0  0  0  0  0  0  0  0  0  0  0  0
   36.8940   28.8580   40.7290 N   0  0  0  0  0  0  0  0  0  0  0  0
   37.7630   27.8320   40.5390 C   0  0  0  0  0  0  0  0  0  0  0  0
   39.0490   28.0610   40.2910 N   0  0  0  0  0  0  0  0  0  0  0  0
   40.5970   29.3270   40.0100 H   0  0  0  0  0  0  0  0  0  0  0  0
   36.7080   30.9820   40.8040 H   0  0  0  0  0  0  0  0  0  0  0  0
   39.2590   31.6890   40.3050 N   0  0  0  0  0  0  0  0  0  0  0  0
   38.4850   32.8080   40.7750 C   0  0  0  0  0  0  0  0  0  0  0  0
   39.1390   34.1290   40.4750 C   0  0  0  0  0  0  0  0  0  0  0  0
   40.5030   34.1610   40.8910 N   0  0  0  0  0  0  0  0  0  0  0  0
   41.2740   32.9920   40.6880 C   0  0  0  0  0  0  0  0  0  0  0  0
   40.5490   32.0130   39.7730 C   0  0  0  0  0  0  0  0  0  0  0  0
   38.4200   32.6970   41.8790 H   0  0  0  0  0  0  0  0  0  0  0  0
   37.4710   32.7980   40.3600 H   0  0  0  0  0  0  0  0  0  0  0  0
   38.5840   34.9190   41.0270 H   0  0  0  0  0  0  0  0  0  0  0  0
   39.1050   34.3070   39.3790 H   0  0  0  0  0  0  0  0  0  0  0  0
   40.5430   34.5000   41.8800 H   0  0  0  0  0  0  0  0  0  0  0  0
   42.2340   33.2830   40.1890 H   0  0  0  0  0  0  0  0  0  0  0  0
   41.5340   32.4240   41.6080 H   0  0  0  0  0  0  0  0  0  0  0  0
   40.4720   32.5640   38.7950 H   0  0  0  0  0  0  0  0  0  0  0  0
   41.2330   31.1920   39.6010 H   0  0  0  0  0  0  0  0  0  0  0  0
   36.5670   26.5940   38.4000 F   0  0  0  0  0  0  0  0  0  0  0  0
   36.6560   25.8660   39.5380 C   0  0  0  0  0  0  0  0  0  0  0  0
   37.2460   26.4570   40.6150 C   0  0  0  0  0  0  0  0  0  0  0  0
   37.3370   25.7040   41.7870 C   0  0  0  0  0  0  0  0  0  0  0  0
   37.8070   26.1560   42.6690 H   0  0  0  0  0  0  0  0  0  0  0  0
   36.8420   24.4330   41.8080 C   0  0  0  0  0  0  0  0  0  0  0  0
   36.8940   23.8180   42.6980 H   0  0  0  0  0  0  0  0  0  0  0  0
   36.2450   23.8560   40.6910 C   0  0  0  0  0  3  0  0  0  0  0  0
   36.1460   24.5870   39.5210 C   0  0  0  0  0  3  0  0  0  0  0  0
  1  6  2  0  0  0  0
  1  2  1  0  0  0  0
  2  3  2  0  0  0  0
  3  4  1  0  0  0  0
  3  8  1  0  0  0  0
  5 26  1  0  0  0  0
  5  4  2  0  0  0  0
  6  5  1  0  0  0  0
  7  1  1  0  0  0  0
  9  2  1  0  0  0  0
  9 10  1  0  0  0  0
 10 15  1  0  0  0  0
 11 10  1  0  0  0  0
 11 12  1  0  0  0  0
 11 17  1  0  0  0  0
 12 19  1  0  0  0  0
 13 12  1  0  0  0  0
 13 21  1  0  0  0  0
 14  9  1  0  0  0  0
 14 13  1  0  0  0  0
 16 10  1  0  0  0  0
 18 11  1  0  0  0  0
 20 13  1  0  0  0  0
 22 14  1  0  0  0  0
 23 14  1  0  0  0  0
 24 25  1  0  0  0  0
 25 26  1  0  0  0  0
 26 27  2  0  0  0  0
 27 29  1  0  0  0  0
 27 28  1  0  0  0  0
 29 30  1  0  0  0  0
 31 29  2  0  0  0  0
 32 25  2  0  0  0  0
 32 31  1  0  0  0  0
M  END
>  <minimizedAffinity>
-4.75683641

$$$$

 OpenBabel03242518243D

 32 34  0  0  0  0  0  0  0  0999 V2000
   39.5200   29.1780   40.1590 C   0  0  0  0  0  0  0  0  0  0  0  0
   38.6740   30.2710   40.2930 C   0  0  0  0  0  0  0  0  0  0  0  0
   37.3130   30.0160   40.5120 C   0  0  0  0  0  0  0  0  0  0  0  0
   36.8560   28.7340   40.5880 N   0  0  0  0  0  0  0  0  0  0  0  0
   37.7250   27.7000   40.4490 C   0  0  0  0  0  0  0  0  0  0  0  0
   39.0200   27.9180   40.2400 N   0  0  0  0  0  0  0  0  0  0  0  0
   40.5830   29.1700   39.9870 H   0  0  0  0  0  0  0  0  0  0  0  0
   36.6790   30.8590   40.6130 H   0  0  0  0  0  0  0  0  0  0  0  0
   39.2490   31.5440   40.1870 N   0  0  0  0  0  0  0  0  0  0  0  0
   40.2370   31.7570   39.1610 C   0  0  0  0  0  0  0  0  0  0  0  0
   40.8810   33.1140   39.2520 C   0  0  0  0  0  0  0  0  0  0  0  0
   39.9170   34.1610   39.3450 N   0  0  0  0  0  0  0  0  0  0  0  0
   38.7760   33.9270   40.1480 C   0  0  0  0  0  0  0  0  0  0  0  0
   38.9590   32.6830   41.0070 C   0  0  0  0  0  0  0  0  0  0  0  0
   39.6950   31.6950   38.1930 H   0  0  0  0  0  0  0  0  0  0  0  0
   41.0110   30.9810   39.1820 H   0  0  0  0  0  0  0  0  0  0  0  0
   41.4820   33.2680   38.3290 H   0  0  0  0  0  0  0  0  0  0  0  0
   41.5210   33.1480   40.1590 H   0  0  0  0  0  0  0  0  0  0  0  0
   39.6690   34.4740   38.3780 H   0  0  0  0  0  0  0  0  0  0  0  0
   38.6400   34.8020   40.8340 H   0  0  0  0  0  0  0  0  0  0  0  0
   37.8220   33.7860   39.5940 H   0  0  0  0  0  0  0  0  0  0  0  0
   39.8220   32.9430   41.6810 H   0  0  0  0  0  0  0  0  0  0  0  0
   38.0880   32.6210   41.6470 H   0  0  0  0  0  0  0  0  0  0  0  0
   36.5320   26.4480   38.3160 F   0  0  0  0  0  0  0  0  0  0  0  0
   36.6100   25.7310   39.4610 C   0  0  0  0  0  0  0  0  0  0  0  0
   37.1990   26.3290   40.5360 C   0  0  0  0  0  0  0  0  0  0  0  0
   37.2770   25.5880   41.7160 C   0  0  0  0  0  0  0  0  0  0  0  0
   37.7460   26.0450   42.5950 H   0  0  0  0  0  0  0  0  0  0  0  0
   36.7740   24.3200   41.7460 C   0  0  0  0  0  0  0  0  0  0  0  0
   36.8160   23.7130   42.6430 H   0  0  0  0  0  0  0  0  0  0  0  0
   36.1790   23.7360   40.6320 C   0  0  0  0  0  3  0  0  0  0  0  0
   36.0920   24.4560   39.4540 C   0  0  0  0  0  3  0  0  0  0  0  0
  1  6  2  0  0  0  0
  1  2  1  0  0  0  0
  2  3  2  0  0  0  0
  3  4  1  0  0  0  0
  3  8  1  0  0  0  0
  5 26  1  0  0  0  0
  5  4  2  0  0  0  0
  6  5  1  0  0  0  0
  7  1  1  0  0  0  0
  9  2  1  0  0  0  0
  9 14  1  0  0  0  0
 10 16  1  0  0  0  0
 10 11  1  0  0  0  0
 10  9  1  0  0  0  0
 11 12  1  0  0  0  0
 11 18  1  0  0  0  0
 12 13  1  0  0  0  0
 13 20  1  0  0  0  0
 13 14  1  0  0  0  0
 14 23  1  0  0  0  0
 14 22  1  0  0  0  0
 15 10  1  0  0  0  0
 17 11  1  0  0  0  0
 19 12  1  0  0  0  0
 21 13  1  0  0  0  0
 24 25  1  0  0  0  0
 25 26  1  0  0  0  0
 26 27  2  0  0  0  0
 27 29  1  0  0  0  0
 27 28  1  0  0  0  0
 29 30  1  0  0  0  0
 31 29  2  0  0  0  0
 32 25  2  0  0  0  0
 32 31  1  0  0  0  0
M  END
>  <minimizedAffinity>
-4.71759939

$$$$

 OpenBabel03242518243D

 32 34  0  0  0  0  0  0  0  0999 V2000
   37.7860   29.9520   40.8100 C   0  0  0  0  0  0  0  0  0  0  0  0
   38.9970   30.1500   40.1610 C   0  0  0  0  0  0  0  0  0  0  0  0
   39.6320   29.0270   39.6120 C   0  0  0  0  0  0  0  0  0  0  0  0
   39.0630   27.7930   39.7200 N   0  0  0  0  0  0  0  0  0  0  0  0
   37.8770   27.6530   40.3650 C   0  0  0  0  0  0  0  0  0  0  0  0
   37.2570   28.7030   40.8950 N   0  0  0  0  0  0  0  0  0  0  0  0
   37.1550   30.6800   41.2910 H   0  0  0  0  0  0  0  0  0  0  0  0
   40.5560   29.1940   39.1190 H   0  0  0  0  0  0  0  0  0  0  0  0
   39.4950   31.4590   40.1180 N   0  0  0  0  0  0  0  0  0  0  0  0
   40.4180   31.7970   39.0670 C   0  0  0  0  0  0  0  0  0  0  0  0
   40.9890   33.1800   39.2230 C   0  0  0  0  0  0  0  0  0  0  0  0
   39.9750   34.1610   39.4300 N   0  0  0  0  0  0  0  0  0  0  0  0
   38.8890   33.8080   40.2650 C   0  0  0  0  0  0  0  0  0  0  0  0
   39.1820   32.5220   41.0270 C   0  0  0  0  0  0  0  0  0  0  0  0
   39.8350   31.7680   38.1220 H   0  0  0  0  0  0  0  0  0  0  0  0
   41.2340   31.0680   39.0000 H   0  0  0  0  0  0  0  0  0  0  0  0
   41.5360   33.4310   38.2870 H   0  0  0  0  0  0  0  0  0  0  0  0
   41.6700   33.1920   40.1000 H   0  0  0  0  0  0  0  0  0  0  0  0
   39.6640   34.5220   38.4990 H   0  0  0  0  0  0  0  0  0  0  0  0
   38.7380   34.6250   41.0150 H   0  0  0  0  0  0  0  0  0  0  0  0
   37.9180   33.6480   39.7460 H   0  0  0  0  0  0  0  0  0  0  0  0
   40.0600   32.7880   41.6780 H   0  0  0  0  0  0  0  0  0  0  0  0
   38.3470   32.3670   41.6990 H   0  0  0  0  0  0  0  0  0  0  0  0
   38.0440   26.1450   42.6540 F   0  0  0  0  0  0  0  0  0  0  0  0
   37.3900   25.5790   41.6140 C   0  0  0  0  0  0  0  0  0  0  0  0
   37.2920   26.3070   40.4650 C   0  0  0  0  0  0  0  0  0  0  0  0
   36.6170   25.7210   39.3930 C   0  0  0  0  0  0  0  0  0  0  0  0
   36.5230   26.2850   38.4570 H   0  0  0  0  0  0  0  0  0  0  0  0
   36.0910   24.4700   39.5340 C   0  0  0  0  0  0  0  0  0  0  0  0
   35.5600   23.9820   38.7260 H   0  0  0  0  0  0  0  0  0  0  0  0
   36.2070   23.7520   40.7210 C   0  0  0  0  0  3  0  0  0  0  0  0
   36.8730   24.3160   41.7930 C   0  0  0  0  0  3  0  0  0  0  0  0
  1  6  1  0  0  0  0
  1  7  1  0  0  0  0
  2  1  2  0  0  0  0
  3  4  2  0  0  0  0
  3  2  1  0  0  0  0
  4  5  1  0  0  0  0
  5 26  1  0  0  0  0
  5  6  2  0  0  0  0
  8  3  1  0  0  0  0
  9  2  1  0  0  0  0
  9 14  1  0  0  0  0
 10 11  1  0  0  0  0
 10  9  1  0  0  0  0
 11 12  1  0  0  0  0
 11 18  1  0  0  0  0
 12 13  1  0  0  0  0
 13 20  1  0  0  0  0
 13 14  1  0  0  0  0
 14 22  1  0  0  0  0
 14 23  1  0  0  0  0
 15 10  1  0  0  0  0
 16 10  1  0  0  0  0
 17 11  1  0  0  0  0
 19 12  1  0  0  0  0
 21 13  1  0  0  0  0
 25 32  1  0  0  0  0
 25 24  1  0  0  0  0
 26 25  2  0  0  0  0
 27 29  2  0  0  0  0
 27 26  1  0  0  0  0
 28 27  1  0  0  0  0
 29 31  1  0  0  0  0
 30 29  1  0  0  0  0
 31 32  2  0  0  0  0
M  END
>  <minimizedAffinity>
-4.68215179

$$$$

 OpenBabel03242518243D

 32 34  0  0  0  0  0  0  0  0999 V2000
   36.2450   27.0240   39.4350 C   0  0  0  0  0  0  0  0  0  0  0  0
   36.2600   27.7670   40.6080 C   0  0  0  0  0  0  0  0  0  0  0  0
   35.4670   28.9230   40.6550 C   0  0  0  0  0  0  0  0  0  0  0  0
   34.7160   29.2860   39.5770 N   0  0  0  0  0  0  0  0  0  0  0  0
   34.7380   28.5250   38.4530 C   0  0  0  0  0  0  0  0  0  0  0  0
   35.4820   27.4250   38.3860 N   0  0  0  0  0  0  0  0  0  0  0  0
   36.7810   26.1170   39.2090 H   0  0  0  0  0  0  0  0  0  0  0  0
   35.4880   29.4800   41.5560 H   0  0  0  0  0  0  0  0  0  0  0  0
   37.0770   27.3070   41.6490 N   0  0  0  0  0  0  0  0  0  0  0  0
   38.1990   26.4710   41.3090 C   0  0  0  0  0  0  0  0  0  0  0  0
   38.9000   25.9250   42.5230 C   0  0  0  0  0  0  0  0  0  0  0  0
   39.2120   26.9460   43.4690 N   0  0  0  0  0  0  0  0  0  0  0  0
   38.2470   27.9590   43.6760 C   0  0  0  0  0  0  0  0  0  0  0  0
   36.9140   27.5790   43.0460 C   0  0  0  0  0  0  0  0  0  0  0  0
   38.9130   27.1210   40.7600 H   0  0  0  0  0  0  0  0  0  0  0  0
   37.9000   25.6440   40.6550 H   0  0  0  0  0  0  0  0  0  0  0  0
   39.8500   25.4550   42.1850 H   0  0  0  0  0  0  0  0  0  0  0  0
   38.2380   25.1820   43.0180 H   0  0  0  0  0  0  0  0  0  0  0  0
   40.1580   27.3330   43.2420 H   0  0  0  0  0  0  0  0  0  0  0  0
   38.0860   28.0750   44.7780 H   0  0  0  0  0  0  0  0  0  0  0  0
   38.5090   28.9610   43.2690 H   0  0  0  0  0  0  0  0  0  0  0  0
   36.5960   26.6620   43.6170 H   0  0  0  0  0  0  0  0  0  0  0  0
   36.2130   28.3580   43.3190 H   0  0  0  0  0  0  0  0  0  0  0  0
   35.7490   28.7050   35.9070 F   0  0  0  0  0  0  0  0  0  0  0  0
   34.4430   29.0280   36.0540 C   0  0  0  0  0  0  0  0  0  0  0  0
   33.9150   28.9460   37.3090 C   0  0  0  0  0  0  0  0  0  0  0  0
   32.5680   29.2800   37.4580 C   0  0  0  0  0  0  0  0  0  0  0  0
   32.1190   29.2230   38.4570 H   0  0  0  0  0  0  0  0  0  0  0  0
   31.8480   29.6660   36.3650 C   0  0  0  0  0  0  0  0  0  0  0  0
   30.8000   29.9320   36.4410 H   0  0  0  0  0  0  0  0  0  0  0  0
   32.4150   29.7390   35.0970 C   0  0  0  0  0  3  0  0  0  0  0  0
   33.7480   29.4120   34.9290 C   0  0  0  0  0  3  0  0  0  0  0  0
  1  2  1  0  0  0  0
  2  3  2  0  0  0  0
  2  9  1  0  0  0  0
  3  8  1  0  0  0  0
  4  3  1  0  0  0  0
  5  4  2  0  0  0  0
  6  5  1  0  0  0  0
  6  1  2  0  0  0  0
  7  1  1  0  0  0  0
  9 14  1  0  0  0  0
 10  9  1  0  0  0  0
 10 11  1  0  0  0  0
 11 18  1  0  0  0  0
 11 12  1  0  0  0  0
 12 13  1  0  0  0  0
 13 20  1  0  0  0  0
 14 23  1  0  0  0  0
 14 22  1  0  0  0  0
 14 13  1  0  0  0  0
 15 10  1  0  0  0  0
 16 10  1  0  0  0  0
 17 11  1  0  0  0  0
 19 12  1  0  0  0  0
 21 13  1  0  0  0  0
 24 25  1  0  0  0  0
 25 26  1  0  0  0  0
 26 27  2  0  0  0  0
 26  5  1  0  0  0  0
 27 28  1  0  0  0  0
 29 30  1  0  0  0  0
 29 27  1  0  0  0  0
 31 29  2  0  0  0  0
 32 31  1  0  0  0  0
 32 25  2  0  0  0  0
M  END
>  <minimizedAffinity>
-4.52555418

$$$$

 OpenBabel03242518243D

 32 34  0  0  0  0  0  0  0  0999 V2000
   40.3430   30.5470   39.7600 C   0  0  0  0  0  0  0  0  0  0  0  0
   40.4930   31.9250   39.6700 C   0  0  0  0  0  0  0  0  0  0  0  0
   39.3540   32.6840   39.3640 C   0  0  0  0  0  0  0  0  0  0  0  0
   38.1520   32.0730   39.1680 N   0  0  0  0  0  0  0  0  0  0  0  0
   38.0590   30.7210   39.2670 C   0  0  0  0  0  0  0  0  0  0  0  0
   39.1260   29.9820   39.5550 N   0  0  0  0  0  0  0  0  0  0  0  0
   41.0910   29.8040   39.9810 H   0  0  0  0  0  0  0  0  0  0  0  0
   39.4830   33.7340   39.2990 H   0  0  0  0  0  0  0  0  0  0  0  0
   41.7770   32.4460   39.8800 N   0  0  0  0  0  0  0  0  0  0  0  0
   42.6200   32.6500   38.7310 C   0  0  0  0  0  0  0  0  0  0  0  0
   44.0160   33.0680   39.1070 C   0  0  0  0  0  0  0  0  0  0  0  0
   44.0220   34.1610   40.0230 N   0  0  0  0  0  0  0  0  0  0  0  0
   43.0460   34.1570   41.0480 C   0  0  0  0  0  0  0  0  0  0  0  0
   42.3570   32.8020   41.1400 C   0  0  0  0  0  0  0  0  0  0  0  0
   42.1560   33.4760   38.1500 H   0  0  0  0  0  0  0  0  0  0  0  0
   42.6620   31.7550   38.1000 H   0  0  0  0  0  0  0  0  0  0  0  0
   44.5380   33.3840   38.1780 H   0  0  0  0  0  0  0  0  0  0  0  0
   44.5320   32.2090   39.5850 H   0  0  0  0  0  0  0  0  0  0  0  0
   44.0280   35.0540   39.4780 H   0  0  0  0  0  0  0  0  0  0  0  0
   43.5570   34.3510   42.0250 H   0  0  0  0  0  0  0  0  0  0  0  0
   42.2350   34.9120   40.9390 H   0  0  0  0  0  0  0  0  0  0  0  0
   43.1850   32.0980   41.4340 H   0  0  0  0  0  0  0  0  0  0  0  0
   41.6920   32.8540   41.9940 H   0  0  0  0  0  0  0  0  0  0  0  0
   36.3050   30.2360   41.3230 F   0  0  0  0  0  0  0  0  0  0  0  0
   35.8940   29.8640   40.0880 C   0  0  0  0  0  0  0  0  0  0  0  0
   36.7470   30.0940   39.0490 C   0  0  0  0  0  0  0  0  0  0  0  0
   36.3210   29.7090   37.7770 C   0  0  0  0  0  0  0  0  0  0  0  0
   36.9880   29.8830   36.9230 H   0  0  0  0  0  0  0  0  0  0  0  0
   35.0950   29.1310   37.6250 C   0  0  0  0  0  0  0  0  0  0  0  0
   34.7290   28.8190   36.6540 H   0  0  0  0  0  0  0  0  0  0  0  0
   34.2460   28.9100   38.7060 C   0  0  0  0  0  3  0  0  0  0  0  0
   34.6510   29.2840   39.9740 C   0  0  0  0  0  3  0  0  0  0  0  0
  1  7  1  0  0  0  0
  2  1  1  0  0  0  0
  2  9  1  0  0  0  0
  3  2  2  0  0  0  0
  4  5  2  0  0  0  0
  4  3  1  0  0  0  0
  5  6  1  0  0  0  0
  6  1  2  0  0  0  0
  8  3  1  0  0  0  0
  9 14  1  0  0  0  0
 10 11  1  0  0  0  0
 10  9  1  0  0  0  0
 11 18  1  0  0  0  0
 11 12  1  0  0  0  0
 12 13  1  0  0  0  0
 13 14  1  0  0  0  0
 13 20  1  0  0  0  0
 14 22  1  0  0  0  0
 14 23  1  0  0  0  0
 15 10  1  0  0  0  0
 16 10  1  0  0  0  0
 17 11  1  0  0  0  0
 19 12  1  0  0  0  0
 21 13  1  0  0  0  0
 25 24  1  0  0  0  0
 26  5  1  0  0  0  0
 26 25  2  0  0  0  0
 27 26  1  0  0  0  0
 28 27  1  0  0  0  0
 29 27  2  0  0  0  0
 29 31  1  0  0  0  0
 30 29  1  0  0  0  0
 31 32  2  0  0  0  0
 32 25  1  0  0  0  0
M  END
>  <minimizedAffinity>
-4.50213814

$$$$
