REMARK  Name = 
REMARK  2 active torsions:
REMARK  status: ('A' for Active; 'I' for Inactive)
REMARK    1  A    between atoms: C_2  and  N_7
REMARK    2  A    between atoms: C_8  and  C_26
REMARK                            x       y       z     vdW  Elec       q    Type
REMARK                         _______ _______ _______ _____ _____    ______ ____
ROOT
ATOM      1  N   UNL     1      44.270  34.389  41.979  0.00  0.00    +0.000 N 
ATOM      2  C   UNL     1      44.440  33.386  40.964  0.00  0.00    +0.000 C 
ATOM      3  C   UNL     1      43.841  33.751  39.646  0.00  0.00    +0.000 C 
ATOM      4  N   UNL     1      42.610  34.435  39.682  0.00  0.00    +0.000 NA
ATOM      5  C   UNL     1      42.336  35.267  40.782  0.00  0.00    +0.000 C 
ATOM      6  C   UNL     1      43.618  35.585  41.536  0.00  0.00    +0.000 C 
ATOM      7  H   UNL     1      44.027  32.426  41.333  0.00  0.00    +0.000 HD
ATOM      8  H   UNL     1      44.582  34.368  39.083  0.00  0.00    +0.000 HD
ATOM      9  H   UNL     1      43.762  32.799  39.059  0.00  0.00    +0.000 HD
ATOM     10  H   UNL     1      41.798  33.971  39.255  0.00  0.00    +0.000 HD
ATOM     11  H   UNL     1      41.683  34.706  41.492  0.00  0.00    +0.000 HD
ATOM     12  H   UNL     1      41.821  36.205  40.560  0.00  0.00    +0.000 HD
ATOM     13  H   UNL     1      44.237  36.190  40.844  0.00  0.00    +0.000 HD
ATOM     14  H   UNL     1      43.323  36.216  42.384  0.00  0.00    +0.000 HD
ENDROOT
BRANCH   1  16
ATOM     15  C   UNL     1      44.665  35.129  44.206  0.00  0.00    +0.000 A 
ATOM     16  C   UNL     1      44.755  34.096  43.278  0.00  0.00    +0.000 A 
ATOM     17  C   UNL     1      45.300  32.898  43.703  0.00  0.00    +0.000 A 
ATOM     18  N   UNL     1      45.727  32.755  44.988  0.00  0.00    +0.000 NA
ATOM     19  C   UNL     1      45.623  33.787  45.866  0.00  0.00    +0.000 A 
ATOM     20  N   UNL     1      45.094  34.963  45.468  0.00  0.00    +0.000 NA
ATOM     21  H   UNL     1      44.285  36.132  44.096  0.00  0.00    +0.000 HD
ATOM     22  H   UNL     1      45.359  32.109  42.968  0.00  0.00    +0.000 HD
ATOM     23  H   UNL     1      45.999  33.550  46.862  0.00  0.00    +0.000 HD
ENDBRANCH   1  16
BRANCH   2  26
ATOM     24  F   UNL     1      46.413  35.267  41.835  0.00  0.00    +0.000 F 
ATOM     25  C   UNL     1      46.859  34.170  41.156  0.00  0.00    +0.000 A 
ATOM     26  C   UNL     1      45.923  33.253  40.728  0.00  0.00    +0.000 A 
ATOM     27  C   UNL     1      46.443  32.179  40.054  0.00  0.00    +0.000 A 
ATOM     28  H   UNL     1      45.831  31.399  39.670  0.00  0.00    +0.000 HD
ATOM     29  C   UNL     1      47.799  32.008  39.809  0.00  0.00    +0.000 A 
ATOM     30  H   UNL     1      48.185  31.144  39.270  0.00  0.00    +0.000 HD
ATOM     31  C   UNL     1      48.679  32.970  40.269  0.00  0.00    +0.000 A 
ATOM     32  C   UNL     1      48.195  34.050  40.943  0.00  0.00    +0.000 A 
ENDBRANCH   2  26
TORSDOF 2
