
 OpenBabel03252502473D

 45 48  0  0  1  0  0  0  0  0999 V2000
   47.7530   35.4440   41.8530 C   0  0  0  0  0  0  0  0  0  0  0  0
   47.4570   36.2350   41.1210 H   0  0  0  0  0  0  0  0  0  0  0  0
   47.8790   35.9710   42.8120 H   0  0  0  0  0  0  0  0  0  0  0  0
   49.0440   34.7790   41.5010 C   0  0  1  0  0  0  0  0  0  0  0  0
   50.1150   34.7410   42.5480 C   0  0  0  0  0  0  0  0  0  0  0  0
   49.3590   33.5140   42.1590 C   0  0  2  0  0  0  0  0  0  0  0  0
   49.3950   35.0130   40.5020 H   0  0  0  0  0  0  0  0  0  0  0  0
   51.1790   34.8770   42.2430 H   0  0  0  0  0  0  0  0  0  0  0  0
   49.9180   35.2300   43.5250 H   0  0  0  0  0  0  0  0  0  0  0  0
   48.8000   33.0730   42.9760 H   0  0  0  0  0  0  0  0  0  0  0  0
   50.1370   32.6100   41.3260 N   0  0  0  0  0  0  0  0  0  0  0  0
   49.4680   32.1630   40.1640 C   0  0  0  0  0  0  0  0  0  0  0  0
   50.4280   31.2230   39.4610 C   0  0  0  0  0  0  0  0  0  0  0  0
   50.7550   30.0930   40.2530 N   0  0  0  0  0  0  0  0  0  0  0  0
   50.6440   30.3090   41.6840 C   0  0  0  0  0  0  0  0  0  0  0  0
   51.0180   31.7570   42.0020 C   0  0  0  0  0  0  0  0  0  0  0  0
   49.3160   33.0250   39.4800 H   0  0  0  0  0  0  0  0  0  0  0  0
   48.4690   31.7170   40.3070 H   0  0  0  0  0  0  0  0  0  0  0  0
   49.8540   30.8460   38.5640 H   0  0  0  0  0  0  0  0  0  0  0  0
   51.2710   31.7850   39.0440 H   0  0  0  0  0  0  0  0  0  0  0  0
   51.7630   29.8550   40.0690 H   0  0  0  0  0  0  0  0  0  0  0  0
   49.5710   30.2130   41.9510 H   0  0  0  0  0  0  0  0  0  0  0  0
   51.2790   29.6010   42.2370 H   0  0  0  0  0  0  0  0  0  0  0  0
   52.0900   31.8410   41.7010 H   0  0  0  0  0  0  0  0  0  0  0  0
   50.9830   31.8840   43.0960 H   0  0  0  0  0  0  0  0  0  0  0  0
   46.7270   34.3490   41.9990 C   0  0  0  0  0  0  0  0  0  0  0  0
   45.9070   34.6040   41.2710 H   0  0  0  0  0  0  0  0  0  0  0  0
   47.0390   33.3510   41.7400 H   0  0  0  0  0  0  0  0  0  0  0  0
   44.5850   35.6380   44.7970 C   0  0  0  0  0  0  0  0  0  0  0  0
   45.1890   35.5120   43.5200 C   0  0  0  0  0  0  0  0  0  0  0  0
   46.0770   34.4920   43.3390 C   0  0  0  0  0  0  0  0  0  0  0  0
   46.3550   33.6380   44.3710 N   0  0  0  0  0  0  0  0  0  0  0  0
   45.7900   33.7660   45.5480 C   0  0  0  0  0  0  0  0  0  0  0  0
   44.9090   34.7520   45.7780 N   0  0  0  0  0  0  0  0  0  0  0  0
   43.8800   36.4210   44.9940 H   0  0  0  0  0  0  0  0  0  0  0  0
   44.9380   36.2060   42.7430 H   0  0  0  0  0  0  0  0  0  0  0  0
   44.2870   33.6970   47.8640 F   0  0  0  0  0  0  0  0  0  0  0  0
   45.3400   32.8180   47.8010 C   0  0  0  0  0  0  0  0  0  0  0  0
   46.0930   32.8500   46.6430 C   0  0  0  0  0  0  0  0  0  0  0  0
   47.1470   31.9620   46.5920 C   0  0  0  0  0  0  0  0  0  0  0  0
   47.7820   31.9180   45.7360 H   0  0  0  0  0  0  0  0  0  0  0  0
   47.3980   31.1070   47.6600 C   0  0  0  0  0  0  0  0  0  0  0  0
   48.2090   30.3880   47.6810 H   0  0  0  0  0  0  0  0  0  0  0  0
   46.6080   31.1100   48.8110 C   0  0  0  0  0  0  0  0  0  0  0  0
   45.5650   31.9900   48.8620 C   0  0  0  0  0  0  0  0  0  0  0  0
  1 26  1  0  0  0  0
  1  3  1  0  0  0  0
  2  1  1  0  0  0  0
  4  7  1  6  0  0  0
  4  1  1  0  0  0  0
  4  6  1  0  0  0  0
  4  5  1  0  0  0  0
  5  9  1  0  0  0  0
  6  5  1  0  0  0  0
  6 10  1  1  0  0  0
  8  5  1  0  0  0  0
 11 16  1  0  0  0  0
 11  6  1  0  0  0  0
 12 18  1  0  0  0  0
 12 11  1  0  0  0  0
 13 12  1  0  0  0  0
 13 14  1  0  0  0  0
 14 15  1  0  0  0  0
 15 22  1  0  0  0  0
 15 16  1  0  0  0  0
 15 23  1  0  0  0  0
 16 25  1  0  0  0  0
 17 12  1  0  0  0  0
 19 13  1  0  0  0  0
 20 13  1  0  0  0  0
 21 14  1  0  0  0  0
 24 16  1  0  0  0  0
 26 31  1  0  0  0  0
 27 26  1  0  0  0  0
 28 26  1  0  0  0  0
 29 35  1  0  0  0  0
 29 34  1  0  0  0  0
 30 29  2  0  0  0  0
 31 30  1  0  0  0  0
 31 32  2  0  0  0  0
 32 33  1  0  0  0  0
 33 34  2  0  0  0  0
 33 39  1  0  0  0  0
 36 30  1  0  0  0  0
 38 37  1  0  0  0  0
 38 45  1  0  0  0  0
 39 38  2  0  0  0  0
 40 39  1  0  0  0  0
 40 42  2  0  0  0  0
 41 40  1  0  0  0  0
 42 43  1  0  0  0  0
 42 44  1  0  0  0  0
 44 45  2  0  0  0  0
M  END
>  <minimizedAffinity>
-6.27976942

>  <minimizedRMSD>
0.424839735

$$$$
