
 OpenBabel03252500533D

 24 25  0  0  0  0  0  0  0  0999 V2000
   38.8650   31.6530   40.5400 C   0  0  0  0  0  0  0  0  0  0  0  0
   37.6990   31.8000   39.8090 C   0  0  0  0  0  0  0  0  0  0  0  0
   37.2840   33.1210   39.5060 C   0  0  0  0  0  0  0  0  0  0  0  0
   38.0570   34.1610   39.9540 N   0  0  0  0  0  0  0  0  0  0  0  0
   39.1790   33.9580   40.6600 C   0  0  0  0  0  0  0  0  0  0  0  0
   39.5780   32.7230   40.9490 N   0  0  0  0  0  0  0  0  0  0  0  0
   36.3850   33.3660   38.9370 H   0  0  0  0  0  0  0  0  0  0  0  0
   39.7770   34.7930   41.0050 H   0  0  0  0  0  0  0  0  0  0  0  0
   35.8380   30.8880   41.5750 F   0  0  0  0  0  0  0  0  0  0  0  0
   35.9450   30.3710   40.3290 C   0  0  0  0  0  0  0  0  0  0  0  0
   36.8480   30.7270   39.3160 C   0  0  0  0  0  0  0  0  0  0  0  0
   36.7800   30.0600   38.1080 C   0  0  0  0  0  0  0  0  0  0  0  0
   37.5290   30.4410   37.4380 H   0  0  0  0  0  0  0  0  0  0  0  0
   35.8400   29.0710   37.9170 C   0  0  0  0  0  0  0  0  0  0  0  0
   35.8940   28.6270   36.9190 H   0  0  0  0  0  0  0  0  0  0  0  0
   34.9440   28.7080   38.9000 C   0  0  0  0  0  3  0  0  0  0  0  0
   34.9980   29.3620   40.1130 C   0  0  0  0  0  3  0  0  0  0  0  0
   39.3190   30.3200   40.9050 C   0  0  0  0  0  0  0  0  0  0  0  0
   40.4270   30.2970   40.6630 H   0  0  0  0  0  0  0  0  0  0  0  0
   38.8950   29.5320   40.2570 H   0  0  0  0  0  0  0  0  0  0  0  0
   39.0840   30.0820   42.3700 C   0  0  0  0  0  0  0  0  0  0  0  0
   38.3430   30.7390   42.8370 H   0  0  0  0  0  0  0  0  0  0  0  0
   40.0230   29.9370   42.9570 H   0  0  0  0  0  0  0  0  0  0  0  0
   38.6010   29.0550   42.4210 H   0  0  0  0  0  0  0  0  0  0  0  0
  1 18  1  0  0  0  0
  1  6  1  0  0  0  0
  2  1  2  0  0  0  0
  3  2  1  0  0  0  0
  3  4  2  0  0  0  0
  4  5  1  0  0  0  0
  5  6  2  0  0  0  0
  5  8  1  0  0  0  0
  7  3  1  0  0  0  0
 10  9  1  0  0  0  0
 11  2  1  0  0  0  0
 11 10  2  0  0  0  0
 12 11  1  0  0  0  0
 13 12  1  0  0  0  0
 14 12  2  0  0  0  0
 14 16  1  0  0  0  0
 15 14  1  0  0  0  0
 16 17  2  0  0  0  0
 17 10  1  0  0  0  0
 18 21  1  0  0  0  0
 19 18  1  0  0  0  0
 20 18  1  0  0  0  0
 21 24  1  0  0  0  0
 21 22  1  0  0  0  0
 21 23  1  0  0  0  0
M  END
>  <minimizedAffinity>
-4.53842306

$$$$

 OpenBabel03252500533D

 24 25  0  0  0  0  0  0  0  0999 V2000
   36.0600   29.7450   40.5790 C   0  0  0  0  0  0  0  0  0  0  0  0
   37.1240   28.9340   40.9330 C   0  0  0  0  0  0  0  0  0  0  0  0
   38.3720   29.5640   41.1660 C   0  0  0  0  0  0  0  0  0  0  0  0
   38.4450   30.9260   41.0260 N   0  0  0  0  0  0  0  0  0  0  0  0
   37.3790   31.6620   40.6800 C   0  0  0  0  0  0  0  0  0  0  0  0
   36.2030   31.0810   40.4590 N   0  0  0  0  0  0  0  0  0  0  0  0
   39.2830   29.0340   41.4510 H   0  0  0  0  0  0  0  0  0  0  0  0
   37.4570   32.7380   40.5740 H   0  0  0  0  0  0  0  0  0  0  0  0
   36.8630   28.0490   43.4950 F   0  0  0  0  0  0  0  0  0  0  0  0
   36.9500   27.1890   42.4540 C   0  0  0  0  0  0  0  0  0  0  0  0
   37.0910   27.4870   41.0910 C   0  0  0  0  0  0  0  0  0  0  0  0
   37.1610   26.4410   40.1900 C   0  0  0  0  0  0  0  0  0  0  0  0
   37.2670   26.8260   39.1930 H   0  0  0  0  0  0  0  0  0  0  0  0
   37.0890   25.1400   40.6370 C   0  0  0  0  0  0  0  0  0  0  0  0
   37.1550   24.4120   39.8240 H   0  0  0  0  0  0  0  0  0  0  0  0
   36.9500   24.8270   41.9720 C   0  0  0  0  0  3  0  0  0  0  0  0
   36.8790   25.8580   42.8850 C   0  0  0  0  0  3  0  0  0  0  0  0
   34.7640   29.1460   40.2990 C   0  0  0  0  0  0  0  0  0  0  0  0
   33.9940   29.8920   40.6700 H   0  0  0  0  0  0  0  0  0  0  0  0
   34.5680   28.2460   40.9080 H   0  0  0  0  0  0  0  0  0  0  0  0
   34.6170   28.9120   38.8220 C   0  0  0  0  0  0  0  0  0  0  0  0
   35.5550   28.8880   38.2570 H   0  0  0  0  0  0  0  0  0  0  0  0
   33.7980   29.5100   38.3520 H   0  0  0  0  0  0  0  0  0  0  0  0
   34.2250   27.8500   38.7360 H   0  0  0  0  0  0  0  0  0  0  0  0
  1  2  1  0  0  0  0
  2 11  1  0  0  0  0
  2  3  2  0  0  0  0
  3  7  1  0  0  0  0
  4  3  1  0  0  0  0
  5  4  2  0  0  0  0
  6  1  2  0  0  0  0
  6  5  1  0  0  0  0
  8  5  1  0  0  0  0
 10 17  1  0  0  0  0
 10  9  1  0  0  0  0
 11 10  2  0  0  0  0
 12 14  2  0  0  0  0
 12 11  1  0  0  0  0
 13 12  1  0  0  0  0
 14 16  1  0  0  0  0
 15 14  1  0  0  0  0
 16 17  2  0  0  0  0
 18  1  1  0  0  0  0
 18 19  1  0  0  0  0
 18 20  1  0  0  0  0
 21 18  1  0  0  0  0
 22 21  1  0  0  0  0
 23 21  1  0  0  0  0
 24 21  1  0  0  0  0
M  END
>  <minimizedAffinity>
-4.43911552

$$$$

 OpenBabel03252500533D

 24 25  0  0  0  0  0  0  0  0999 V2000
   38.0570   31.3060   40.9950 C   0  0  0  0  0  0  0  0  0  0  0  0
   38.6660   30.3080   41.7370 C   0  0  0  0  0  0  0  0  0  0  0  0
   40.0370   30.4770   42.0520 C   0  0  0  0  0  0  0  0  0  0  0  0
   40.6690   31.6090   41.6040 N   0  0  0  0  0  0  0  0  0  0  0  0
   40.0270   32.5430   40.8880 C   0  0  0  0  0  0  0  0  0  0  0  0
   38.7400   32.3950   40.5870 N   0  0  0  0  0  0  0  0  0  0  0  0
   40.6260   29.7630   42.6300 H   0  0  0  0  0  0  0  0  0  0  0  0
   40.5450   33.4320   40.5440 H   0  0  0  0  0  0  0  0  0  0  0  0
   38.7340   28.1890   40.0280 F   0  0  0  0  0  0  0  0  0  0  0  0
   38.1550   28.0980   41.2480 C   0  0  0  0  0  0  0  0  0  0  0  0
   38.0350   29.0920   42.2290 C   0  0  0  0  0  0  0  0  0  0  0  0
   37.3980   28.7770   43.4140 C   0  0  0  0  0  0  0  0  0  0  0  0
   37.3860   29.6350   44.0610 H   0  0  0  0  0  0  0  0  0  0  0  0
   36.8980   27.5090   43.6120 C   0  0  0  0  0  0  0  0  0  0  0  0
   36.4210   27.3930   44.5900 H   0  0  0  0  0  0  0  0  0  0  0  0
   37.0060   26.5180   42.6610 C   0  0  0  0  0  3  0  0  0  0  0  0
   37.6380   26.8150   41.4710 C   0  0  0  0  0  3  0  0  0  0  0  0
   36.6590   31.1670   40.6180 C   0  0  0  0  0  0  0  0  0  0  0  0
   36.1920   32.1860   40.7900 H   0  0  0  0  0  0  0  0  0  0  0  0
   36.0960   30.5050   41.2990 H   0  0  0  0  0  0  0  0  0  0  0  0
   36.5560   30.7670   39.1730 C   0  0  0  0  0  0  0  0  0  0  0  0
   37.4610   30.3220   38.7450 H   0  0  0  0  0  0  0  0  0  0  0  0
   36.0570   31.5320   38.5300 H   0  0  0  0  0  0  0  0  0  0  0  0
   35.8080   29.9120   39.1630 H   0  0  0  0  0  0  0  0  0  0  0  0
  1  2  1  0  0  0  0
  2  3  2  0  0  0  0
  2 11  1  0  0  0  0
  3  7  1  0  0  0  0
  4  3  1  0  0  0  0
  5  4  2  0  0  0  0
  6  5  1  0  0  0  0
  6  1  2  0  0  0  0
  8  5  1  0  0  0  0
  9 10  1  0  0  0  0
 10 17  2  0  0  0  0
 10 11  1  0  0  0  0
 11 12  2  0  0  0  0
 12 14  1  0  0  0  0
 12 13  1  0  0  0  0
 14 15  1  0  0  0  0
 16 14  2  0  0  0  0
 17 16  1  0  0  0  0
 18 19  1  0  0  0  0
 18  1  1  0  0  0  0
 18 20  1  0  0  0  0
 21 18  1  0  0  0  0
 22 21  1  0  0  0  0
 23 21  1  0  0  0  0
 24 21  1  0  0  0  0
M  END
>  <minimizedAffinity>
-4.37694883

$$$$

 OpenBabel03252500533D

 24 25  0  0  0  0  0  0  0  0999 V2000
   37.2790   26.5680   42.1690 C   0  0  0  0  0  0  0  0  0  0  0  0
   37.1710   27.2540   40.9720 C   0  0  0  0  0  0  0  0  0  0  0  0
   36.8170   26.5040   39.8230 C   0  0  0  0  0  0  0  0  0  0  0  0
   36.6080   25.1570   39.9680 N   0  0  0  0  0  0  0  0  0  0  0  0
   36.7280   24.5450   41.1560 C   0  0  0  0  0  0  0  0  0  0  0  0
   37.0590   25.2390   42.2410 N   0  0  0  0  0  0  0  0  0  0  0  0
   36.6990   26.9300   38.8250 H   0  0  0  0  0  0  0  0  0  0  0  0
   36.5580   23.4790   41.2510 H   0  0  0  0  0  0  0  0  0  0  0  0
   34.9210   28.7880   41.0250 F   0  0  0  0  0  0  0  0  0  0  0  0
   36.1460   29.3320   40.8300 C   0  0  0  0  0  0  0  0  0  0  0  0
   37.3850   28.6800   40.7710 C   0  0  0  0  0  0  0  0  0  0  0  0
   38.5210   29.4390   40.5600 C   0  0  0  0  0  0  0  0  0  0  0  0
   39.3860   28.8030   40.5410 H   0  0  0  0  0  0  0  0  0  0  0  0
   38.4190   30.8050   40.4140 C   0  0  0  0  0  0  0  0  0  0  0  0
   39.3900   31.2840   40.2540 H   0  0  0  0  0  0  0  0  0  0  0  0
   37.2100   31.4640   40.4680 C   0  0  0  0  0  3  0  0  0  0  0  0
   36.0660   30.7220   40.6780 C   0  0  0  0  0  3  0  0  0  0  0  0
   37.6700   27.2860   43.3730 C   0  0  0  0  0  0  0  0  0  0  0  0
   37.0010   26.8870   44.1980 H   0  0  0  0  0  0  0  0  0  0  0  0
   37.4200   28.3600   43.3310 H   0  0  0  0  0  0  0  0  0  0  0  0
   39.1170   27.0200   43.6800 C   0  0  0  0  0  0  0  0  0  0  0  0
   39.7150   26.6560   42.8370 H   0  0  0  0  0  0  0  0  0  0  0  0
   39.2790   26.4770   44.6430 H   0  0  0  0  0  0  0  0  0  0  0  0
   39.5580   28.0440   43.8970 H   0  0  0  0  0  0  0  0  0  0  0  0
  1  6  1  0  0  0  0
  1 18  1  0  0  0  0
  2  1  2  0  0  0  0
  3  4  2  0  0  0  0
  3  2  1  0  0  0  0
  4  5  1  0  0  0  0
  5  8  1  0  0  0  0
  5  6  2  0  0  0  0
  7  3  1  0  0  0  0
 10  9  1  0  0  0  0
 11 10  1  0  0  0  0
 11  2  1  0  0  0  0
 12 11  2  0  0  0  0
 13 12  1  0  0  0  0
 14 16  2  0  0  0  0
 14 12  1  0  0  0  0
 15 14  1  0  0  0  0
 16 17  1  0  0  0  0
 17 10  2  0  0  0  0
 18 21  1  0  0  0  0
 18 19  1  0  0  0  0
 20 18  1  0  0  0  0
 21 24  1  0  0  0  0
 21 23  1  0  0  0  0
 22 21  1  0  0  0  0
M  END
>  <minimizedAffinity>
-4.36583853

$$$$

 OpenBabel03252500533D

 24 25  0  0  0  0  0  0  0  0999 V2000
   38.0110   29.0340   41.1270 C   0  0  0  0  0  0  0  0  0  0  0  0
   36.9900   28.1410   40.8470 C   0  0  0  0  0  0  0  0  0  0  0  0
   35.6990   28.6810   40.6210 C   0  0  0  0  0  0  0  0  0  0  0  0
   35.5440   30.0410   40.6950 N   0  0  0  0  0  0  0  0  0  0  0  0
   36.5720   30.8580   40.9710 C   0  0  0  0  0  0  0  0  0  0  0  0
   37.7880   30.3630   41.1840 N   0  0  0  0  0  0  0  0  0  0  0  0
   34.8160   28.0820   40.3920 H   0  0  0  0  0  0  0  0  0  0  0  0
   36.4290   31.9310   41.0250 H   0  0  0  0  0  0  0  0  0  0  0  0
   36.6400   26.8050   43.1930 F   0  0  0  0  0  0  0  0  0  0  0  0
   36.9000   26.1510   42.0370 C   0  0  0  0  0  0  0  0  0  0  0  0
   37.1090   26.6930   40.7610 C   0  0  0  0  0  0  0  0  0  0  0  0
   37.3630   25.8310   39.7110 C   0  0  0  0  0  0  0  0  0  0  0  0
   37.5000   26.3910   38.8040 H   0  0  0  0  0  0  0  0  0  0  0  0
   37.4050   24.4720   39.9290 C   0  0  0  0  0  0  0  0  0  0  0  0
   37.6140   23.9060   39.0170 H   0  0  0  0  0  0  0  0  0  0  0  0
   37.2030   23.9200   41.1750 C   0  0  0  0  0  3  0  0  0  0  0  0
   36.9480   24.7650   42.2350 C   0  0  0  0  0  3  0  0  0  0  0  0
   39.3490   28.5300   41.3970 C   0  0  0  0  0  0  0  0  0  0  0  0
   40.0550   29.2160   40.8330 H   0  0  0  0  0  0  0  0  0  0  0  0
   39.5330   27.5400   40.9450 H   0  0  0  0  0  0  0  0  0  0  0  0
   39.6240   28.5750   42.8740 C   0  0  0  0  0  0  0  0  0  0  0  0
   38.7370   28.6290   43.5130 H   0  0  0  0  0  0  0  0  0  0  0  0
   40.4520   29.2700   43.1550 H   0  0  0  0  0  0  0  0  0  0  0  0
   40.0660   27.5560   43.1150 H   0  0  0  0  0  0  0  0  0  0  0  0
  1  6  1  0  0  0  0
  1 18  1  0  0  0  0
  2  1  2  0  0  0  0
  3  4  2  0  0  0  0
  3  2  1  0  0  0  0
  4  5  1  0  0  0  0
  5  8  1  0  0  0  0
  5  6  2  0  0  0  0
  7  3  1  0  0  0  0
 10 17  1  0  0  0  0
 10  9  1  0  0  0  0
 11  2  1  0  0  0  0
 11 10  2  0  0  0  0
 12 14  2  0  0  0  0
 12 11  1  0  0  0  0
 13 12  1  0  0  0  0
 14 16  1  0  0  0  0
 15 14  1  0  0  0  0
 16 17  2  0  0  0  0
 18 21  1  0  0  0  0
 19 18  1  0  0  0  0
 20 18  1  0  0  0  0
 21 24  1  0  0  0  0
 21 23  1  0  0  0  0
 21 22  1  0  0  0  0
M  END
>  <minimizedAffinity>
-4.35125589

$$$$

 OpenBabel03252500533D

 24 25  0  0  0  0  0  0  0  0999 V2000
   37.4810   28.9880   42.0560 C   0  0  0  0  0  0  0  0  0  0  0  0
   37.0030   27.9190   41.3170 C   0  0  0  0  0  0  0  0  0  0  0  0
   36.0270   28.1980   40.3290 C   0  0  0  0  0  0  0  0  0  0  0  0
   35.6200   29.4980   40.1690 N   0  0  0  0  0  0  0  0  0  0  0  0
   36.1190   30.4940   40.9160 C   0  0  0  0  0  0  0  0  0  0  0  0
   37.0360   30.2440   41.8460 N   0  0  0  0  0  0  0  0  0  0  0  0
   35.5760   27.4430   39.6830 H   0  0  0  0  0  0  0  0  0  0  0  0
   35.7850   31.5150   40.7740 H   0  0  0  0  0  0  0  0  0  0  0  0
   39.1310   27.1670   39.7940 F   0  0  0  0  0  0  0  0  0  0  0  0
   38.5060   26.2940   40.6190 C   0  0  0  0  0  0  0  0  0  0  0  0
   37.4050   26.5270   41.4540 C   0  0  0  0  0  0  0  0  0  0  0  0
   36.9240   25.4810   42.2190 C   0  0  0  0  0  0  0  0  0  0  0  0
   36.0850   25.8110   42.8030 H   0  0  0  0  0  0  0  0  0  0  0  0
   37.5270   24.2440   42.1520 C   0  0  0  0  0  0  0  0  0  0  0  0
   37.0500   23.5080   42.8070 H   0  0  0  0  0  0  0  0  0  0  0  0
   38.6100   23.9960   41.3370 C   0  0  0  0  0  3  0  0  0  0  0  0
   39.1030   25.0280   40.5670 C   0  0  0  0  0  3  0  0  0  0  0  0
   38.4620   28.7520   43.1050 C   0  0  0  0  0  0  0  0  0  0  0  0
   38.4330   27.6360   43.3070 H   0  0  0  0  0  0  0  0  0  0  0  0
   38.1700   29.1980   44.0720 H   0  0  0  0  0  0  0  0  0  0  0  0
   39.8250   29.1770   42.6370 C   0  0  0  0  0  0  0  0  0  0  0  0
   39.8320   29.8760   41.7930 H   0  0  0  0  0  0  0  0  0  0  0  0
   40.5550   28.3350   42.5590 H   0  0  0  0  0  0  0  0  0  0  0  0
   40.2460   29.7900   43.4950 H   0  0  0  0  0  0  0  0  0  0  0  0
  1 18  1  0  0  0  0
  2 11  1  0  0  0  0
  2  1  2  0  0  0  0
  3  2  1  0  0  0  0
  4  3  2  0  0  0  0
  4  5  1  0  0  0  0
  5  6  2  0  0  0  0
  6  1  1  0  0  0  0
  7  3  1  0  0  0  0
  8  5  1  0  0  0  0
  9 10  1  0  0  0  0
 10 11  1  0  0  0  0
 11 12  2  0  0  0  0
 12 13  1  0  0  0  0
 14 12  1  0  0  0  0
 14 15  1  0  0  0  0
 16 14  2  0  0  0  0
 17 10  2  0  0  0  0
 17 16  1  0  0  0  0
 18 19  1  0  0  0  0
 18 20  1  0  0  0  0
 21 18  1  0  0  0  0
 21 24  1  0  0  0  0
 22 21  1  0  0  0  0
 23 21  1  0  0  0  0
M  END
>  <minimizedAffinity>
-4.31767893

$$$$

 OpenBabel03252500533D

 24 25  0  0  0  0  0  0  0  0999 V2000
   37.1430   27.0010   41.6410 C   0  0  0  0  0  0  0  0  0  0  0  0
   37.0380   28.2380   41.0280 C   0  0  0  0  0  0  0  0  0  0  0  0
   37.3010   29.3810   41.8230 C   0  0  0  0  0  0  0  0  0  0  0  0
   37.6390   29.1920   43.1390 N   0  0  0  0  0  0  0  0  0  0  0  0
   37.7240   27.9670   43.6790 C   0  0  0  0  0  0  0  0  0  0  0  0
   37.4810   26.8870   42.9420 N   0  0  0  0  0  0  0  0  0  0  0  0
   37.2520   30.4080   41.4560 H   0  0  0  0  0  0  0  0  0  0  0  0
   37.9930   27.8380   44.7210 H   0  0  0  0  0  0  0  0  0  0  0  0
   34.4330   28.9000   40.5970 F   0  0  0  0  0  0  0  0  0  0  0  0
   35.3210   28.8170   39.5780 C   0  0  0  0  0  0  0  0  0  0  0  0
   36.6820   28.4850   39.6390 C   0  0  0  0  0  0  0  0  0  0  0  0
   37.4070   28.4600   38.4630 C   0  0  0  0  0  0  0  0  0  0  0  0
   38.4270   28.1920   38.6690 H   0  0  0  0  0  0  0  0  0  0  0  0
   36.7930   28.7580   37.2660 C   0  0  0  0  0  0  0  0  0  0  0  0
   37.4790   28.7020   36.4160 H   0  0  0  0  0  0  0  0  0  0  0  0
   35.4560   29.0860   37.1870 C   0  0  0  0  0  3  0  0  0  0  0  0
   34.7170   29.1160   38.3510 C   0  0  0  0  0  3  0  0  0  0  0  0
   36.8540   25.7970   40.8780 C   0  0  0  0  0  0  0  0  0  0  0  0
   37.6400   25.7540   40.0620 H   0  0  0  0  0  0  0  0  0  0  0  0
   35.9030   25.8620   40.3200 H   0  0  0  0  0  0  0  0  0  0  0  0
   36.9420   24.5920   41.7710 C   0  0  0  0  0  0  0  0  0  0  0  0
   36.8590   24.7970   42.8440 H   0  0  0  0  0  0  0  0  0  0  0  0
   37.7580   23.8830   41.4890 H   0  0  0  0  0  0  0  0  0  0  0  0
   36.0050   23.9930   41.5400 H   0  0  0  0  0  0  0  0  0  0  0  0
  1  6  1  0  0  0  0
  2  1  2  0  0  0  0
  2  3  1  0  0  0  0
  3  4  2  0  0  0  0
  4  5  1  0  0  0  0
  5  8  1  0  0  0  0
  6  5  2  0  0  0  0
  7  3  1  0  0  0  0
 10 11  1  0  0  0  0
 10  9  1  0  0  0  0
 11  2  1  0  0  0  0
 12 13  1  0  0  0  0
 12 11  2  0  0  0  0
 14 12  1  0  0  0  0
 15 14  1  0  0  0  0
 16 14  2  0  0  0  0
 16 17  1  0  0  0  0
 17 10  2  0  0  0  0
 18  1  1  0  0  0  0
 18 21  1  0  0  0  0
 19 18  1  0  0  0  0
 20 18  1  0  0  0  0
 21 22  1  0  0  0  0
 23 21  1  0  0  0  0
 24 21  1  0  0  0  0
M  END
>  <minimizedAffinity>
-4.28450155

$$$$

 OpenBabel03252500533D

 24 25  0  0  0  0  0  0  0  0999 V2000
   38.6530   25.8340   41.8910 C   0  0  0  0  0  0  0  0  0  0  0  0
   38.5470   27.2140   41.8420 C   0  0  0  0  0  0  0  0  0  0  0  0
   39.3000   27.9570   42.7850 C   0  0  0  0  0  0  0  0  0  0  0  0
   40.0780   27.2680   43.6790 N   0  0  0  0  0  0  0  0  0  0  0  0
   40.1420   25.9280   43.6790 C   0  0  0  0  0  0  0  0  0  0  0  0
   39.4400   25.2210   42.7990 N   0  0  0  0  0  0  0  0  0  0  0  0
   39.3000   29.0470   42.8470 H   0  0  0  0  0  0  0  0  0  0  0  0
   40.7640   25.4020   44.3940 H   0  0  0  0  0  0  0  0  0  0  0  0
   36.0220   27.7710   42.6960 F   0  0  0  0  0  0  0  0  0  0  0  0
   36.4730   28.1940   41.4910 C   0  0  0  0  0  0  0  0  0  0  0  0
   37.7330   27.9840   40.9140 C   0  0  0  0  0  0  0  0  0  0  0  0
   37.9800   28.5110   39.6600 C   0  0  0  0  0  0  0  0  0  0  0  0
   38.9810   28.2700   39.3540 H   0  0  0  0  0  0  0  0  0  0  0  0
   37.0000   29.2260   39.0070 C   0  0  0  0  0  0  0  0  0  0  0  0
   37.3260   29.5870   38.0270 H   0  0  0  0  0  0  0  0  0  0  0  0
   35.7560   29.4430   39.5580 C   0  0  0  0  0  3  0  0  0  0  0  0
   35.4910   28.9240   40.8080 C   0  0  0  0  0  3  0  0  0  0  0  0
   37.8780   25.0230   40.9650 C   0  0  0  0  0  0  0  0  0  0  0  0
   38.6020   24.2550   40.5490 H   0  0  0  0  0  0  0  0  0  0  0  0
   37.5530   25.5840   40.0720 H   0  0  0  0  0  0  0  0  0  0  0  0
   36.7470   24.3540   41.6950 C   0  0  0  0  0  0  0  0  0  0  0  0
   36.4710   24.8130   42.6500 H   0  0  0  0  0  0  0  0  0  0  0  0
   36.8200   23.2390   41.7100 H   0  0  0  0  0  0  0  0  0  0  0  0
   35.8360   24.5310   41.0400 H   0  0  0  0  0  0  0  0  0  0  0  0
  1  6  1  0  0  0  0
  2  1  2  0  0  0  0
  2  3  1  0  0  0  0
  3  7  1  0  0  0  0
  3  4  2  0  0  0  0
  5  4  1  0  0  0  0
  5  8  1  0  0  0  0
  6  5  2  0  0  0  0
 10  9  1  0  0  0  0
 11 10  1  0  0  0  0
 11  2  1  0  0  0  0
 12 11  2  0  0  0  0
 13 12  1  0  0  0  0
 14 16  2  0  0  0  0
 14 12  1  0  0  0  0
 15 14  1  0  0  0  0
 16 17  1  0  0  0  0
 17 10  2  0  0  0  0
 18 21  1  0  0  0  0
 18  1  1  0  0  0  0
 19 18  1  0  0  0  0
 20 18  1  0  0  0  0
 21 23  1  0  0  0  0
 21 22  1  0  0  0  0
 24 21  1  0  0  0  0
M  END
>  <minimizedAffinity>
-4.24020672

$$$$

 OpenBabel03252500533D

 24 25  0  0  0  0  0  0  0  0999 V2000
   37.3130   26.9300   41.7090 C   0  0  0  0  0  0  0  0  0  0  0  0
   36.9750   28.2150   41.3210 C   0  0  0  0  0  0  0  0  0  0  0  0
   37.3370   29.2730   42.1920 C   0  0  0  0  0  0  0  0  0  0  0  0
   37.9910   28.9590   43.3550 N   0  0  0  0  0  0  0  0  0  0  0  0
   38.2920   27.6920   43.6790 C   0  0  0  0  0  0  0  0  0  0  0  0
   37.9580   26.6920   42.8690 N   0  0  0  0  0  0  0  0  0  0  0  0
   37.1270   30.3260   41.9980 H   0  0  0  0  0  0  0  0  0  0  0  0
   38.8100   27.4640   44.6040 H   0  0  0  0  0  0  0  0  0  0  0  0
   38.5800   28.7300   39.1820 F   0  0  0  0  0  0  0  0  0  0  0  0
   37.2320   28.8200   39.0950 C   0  0  0  0  0  0  0  0  0  0  0  0
   36.2810   28.5940   40.0990 C   0  0  0  0  0  0  0  0  0  0  0  0
   34.9430   28.7450   39.7860 C   0  0  0  0  0  0  0  0  0  0  0  0
   34.3410   28.5390   40.6510 H   0  0  0  0  0  0  0  0  0  0  0  0
   34.5700   29.1090   38.5110 C   0  0  0  0  0  0  0  0  0  0  0  0
   33.4850   29.1920   38.3980 H   0  0  0  0  0  0  0  0  0  0  0  0
   35.4900   29.3350   37.5110 C   0  0  0  0  0  3  0  0  0  0  0  0
   36.8300   29.1890   37.8050 C   0  0  0  0  0  3  0  0  0  0  0  0
   36.9380   25.8060   40.8650 C   0  0  0  0  0  0  0  0  0  0  0  0
   37.7240   25.7590   40.0490 H   0  0  0  0  0  0  0  0  0  0  0  0
   35.9990   25.9800   40.3120 H   0  0  0  0  0  0  0  0  0  0  0  0
   36.9290   24.5390   41.6750 C   0  0  0  0  0  0  0  0  0  0  0  0
   36.8550   24.6780   42.7590 H   0  0  0  0  0  0  0  0  0  0  0  0
   37.6910   23.7910   41.3460 H   0  0  0  0  0  0  0  0  0  0  0  0
   35.9510   24.0300   41.4030 H   0  0  0  0  0  0  0  0  0  0  0  0
  1  6  1  0  0  0  0
  2  1  2  0  0  0  0
  2  3  1  0  0  0  0
  3  4  2  0  0  0  0
  4  5  1  0  0  0  0
  5  8  1  0  0  0  0
  6  5  2  0  0  0  0
  7  3  1  0  0  0  0
 10  9  1  0  0  0  0
 10 11  1  0  0  0  0
 11  2  1  0  0  0  0
 12 11  2  0  0  0  0
 12 13  1  0  0  0  0
 14 12  1  0  0  0  0
 15 14  1  0  0  0  0
 16 17  1  0  0  0  0
 16 14  2  0  0  0  0
 17 10  2  0  0  0  0
 18 21  1  0  0  0  0
 18  1  1  0  0  0  0
 19 18  1  0  0  0  0
 20 18  1  0  0  0  0
 21 22  1  0  0  0  0
 23 21  1  0  0  0  0
 24 21  1  0  0  0  0
M  END
>  <minimizedAffinity>
-4.20506382

$$$$
