
 OpenBabel03252508293D

 39 42  0  0  1  0  0  0  0  0999 V2000
   42.6370   32.0610   39.9870 N   0  0  0  0  0  0  0  0  0  0  0  0
   43.3050   31.5610   41.1910 C   0  0  2  0  0  0  0  0  0  0  0  0
   42.3570   31.2890   42.2990 C   0  0  0  0  0  0  0  0  0  0  0  0
   40.9620   31.3710   41.8980 N   0  0  0  0  0  0  0  0  0  0  0  0
   40.6120   32.5060   41.1320 C   0  0  0  0  0  0  0  0  0  0  0  0
   41.7960   33.1770   40.4820 C   0  0  2  0  0  0  0  0  0  0  0  0
   43.3890   32.4810   39.3980 H   0  0  0  0  0  0  0  0  0  0  0  0
   43.8920   30.6530   40.9090 H   0  0  0  0  0  0  0  0  0  0  0  0
   42.3580   31.9860   43.1530 H   0  0  0  0  0  0  0  0  0  0  0  0
   42.5010   30.2250   42.6310 H   0  0  0  0  0  0  0  0  0  0  0  0
   40.5740   30.4640   41.5750 H   0  0  0  0  0  0  0  0  0  0  0  0
   39.8940   32.1840   40.3310 H   0  0  0  0  0  0  0  0  0  0  0  0
   40.0790   33.2680   41.7100 H   0  0  0  0  0  0  0  0  0  0  0  0
   42.3720   33.6920   41.2730 H   0  0  0  0  0  0  0  0  0  0  0  0
   39.5410   32.7770   38.9630 F   0  0  0  0  0  0  0  0  0  0  0  0
   40.2850   33.8770   38.6400 C   0  0  0  0  0  0  0  0  0  0  0  0
   41.4320   34.0920   39.4030 C   0  0  0  0  0  0  0  0  0  0  0  0
   42.1440   35.2140   39.0340 C   0  0  0  0  0  0  0  0  0  0  0  0
   43.0520   35.4370   39.5950 H   0  0  0  0  0  0  0  0  0  0  0  0
   41.7720   36.0490   38.0170 C   0  0  0  0  0  0  0  0  0  0  0  0
   42.3770   36.9210   37.7740 H   0  0  0  0  0  0  0  0  0  0  0  0
   40.6060   35.7560   37.3050 C   0  0  0  0  0  3  0  0  0  0  0  0
   39.8270   34.6410   37.6120 C   0  0  0  0  0  3  0  0  0  0  0  0
   46.1280   33.6600   41.9800 C   0  0  0  0  0  0  0  0  0  0  0  0
   45.0270   34.3650   42.4840 C   0  0  0  0  0  0  0  0  0  0  0  0
   43.8650   33.6520   42.2490 C   0  0  0  0  0  0  0  0  0  0  0  0
   44.2740   32.5540   41.6170 N   0  0  0  0  0  0  0  0  0  0  0  0
   45.5910   32.5570   41.4600 N   0  0  0  0  0  0  0  0  0  0  0  0
   45.2120   35.3290   42.9700 H   0  0  0  0  0  0  0  0  0  0  0  0
   43.0120   34.1920   42.6450 H   0  0  0  0  0  0  0  0  0  0  0  0
   49.3020   35.6750   41.8920 C   0  0  0  0  0  0  0  0  0  0  0  0
   47.9100   35.3840   41.7420 C   0  0  0  0  0  0  0  0  0  0  0  0
   47.5180   34.1090   42.0660 C   0  0  0  0  0  0  0  0  0  0  0  0
   48.4350   33.1960   42.5040 N   0  0  0  0  0  0  0  0  0  0  0  0
   49.7460   33.5170   42.6320 C   0  0  0  0  0  0  0  0  0  0  0  0
   50.1470   34.7420   42.3240 N   0  0  0  0  0  0  0  0  0  0  0  0
   49.5740   36.6860   41.6280 H   0  0  0  0  0  0  0  0  0  0  0  0
   47.1730   36.0970   41.3960 H   0  0  0  0  0  0  0  0  0  0  0  0
   50.3920   32.7210   42.9880 H   0  0  0  0  0  0  0  0  0  0  0  0
  1  6  1  0  0  0  0
  1  2  1  0  0  0  0
  2  8  1  6  0  0  0
  2 27  1  0  0  0  0
  2  3  1  0  0  0  0
  3 10  1  0  0  0  0
  3  9  1  0  0  0  0
  4  3  1  0  0  0  0
  5 13  1  0  0  0  0
  5  4  1  0  0  0  0
  6  5  1  0  0  0  0
  6 14  1  1  0  0  0
  7  1  1  0  0  0  0
 11  4  1  0  0  0  0
 12  5  1  0  0  0  0
 16 15  1  0  0  0  0
 16 17  1  0  0  0  0
 17  6  1  0  0  0  0
 18 17  2  0  0  0  0
 18 19  1  0  0  0  0
 20 18  1  0  0  0  0
 21 20  1  0  0  0  0
 22 23  1  0  0  0  0
 22 20  2  0  0  0  0
 23 16  2  0  0  0  0
 24 33  1  0  0  0  0
 24 25  1  0  0  0  0
 25 29  1  0  0  0  0
 26 25  2  0  0  0  0
 26 30  1  0  0  0  0
 27 26  1  0  0  0  0
 28 27  1  0  0  0  0
 28 24  2  0  0  0  0
 31 36  1  0  0  0  0
 32 31  2  0  0  0  0
 32 33  1  0  0  0  0
 33 34  2  0  0  0  0
 34 35  1  0  0  0  0
 35 39  1  0  0  0  0
 36 35  2  0  0  0  0
 37 31  1  0  0  0  0
 38 32  1  0  0  0  0
M  END
>  <minimizedAffinity>
-5.50014353

>  <minimizedRMSD>
2.64294314

$$$$
