
 OpenBabel03252502543D

 31 33  0  0  0  0  0  0  0  0999 V2000
   39.4200   27.1330   39.8240 Br  0  0  0  0  0  0  0  0  0  0  0  0
   38.4030   27.4810   41.4130 C   0  0  0  0  0  0  0  0  0  0  0  0
   38.5560   28.7220   41.9890 C   0  0  0  0  0  0  0  0  0  0  0  0
   37.8000   28.9260   43.1370 C   0  0  0  0  0  0  0  0  0  0  0  0
   36.9540   27.9770   43.6800 C   0  0  0  0  0  0  0  0  0  0  0  0
   36.8510   26.7610   43.0540 C   0  0  0  0  0  0  0  0  0  0  0  0
   37.5790   26.4800   41.8940 C   0  0  0  0  0  0  0  0  0  0  0  0
   37.8270   29.8590   43.6890 H   0  0  0  0  0  0  0  0  0  0  0  0
   36.3770   28.1590   44.5730 H   0  0  0  0  0  0  0  0  0  0  0  0
   36.1960   25.9850   43.4470 H   0  0  0  0  0  0  0  0  0  0  0  0
   39.1760   24.1870   42.4440 F   0  0  0  0  0  0  0  0  0  0  0  0
   38.2680   24.0740   41.4310 C   0  0  0  0  0  0  0  0  0  0  0  0
   37.5080   25.2030   41.1870 C   0  0  0  0  0  0  0  0  0  0  0  0
   36.5470   25.1930   40.1680 C   0  0  0  0  0  0  0  0  0  0  0  0
   35.9140   26.0610   39.9300 H   0  0  0  0  0  0  0  0  0  0  0  0
   36.3540   24.0480   39.3960 C   0  0  0  0  0  0  0  0  0  0  0  0
   35.6030   24.0460   38.6030 H   0  0  0  0  0  0  0  0  0  0  0  0
   37.1350   22.9460   39.6760 C   0  0  0  0  0  3  0  0  0  0  0  0
   38.0890   22.9340   40.6760 C   0  0  0  0  0  3  0  0  0  0  0  0
   39.4170   29.7980   41.5070 C   0  0  0  0  0  0  0  0  0  0  0  0
   40.0720   30.1950   42.3060 H   0  0  0  0  0  0  0  0  0  0  0  0
   40.1030   29.3410   40.7540 H   0  0  0  0  0  0  0  0  0  0  0  0
   37.0300   31.6640   39.3310 C   0  0  0  0  0  0  0  0  0  0  0  0
   37.4040   32.9900   39.5720 C   0  0  0  0  0  0  0  0  0  0  0  0
   38.4430   33.2210   40.4540 C   0  0  0  0  0  0  0  0  0  0  0  0
   39.0570   32.1730   41.0490 N   0  0  0  0  0  0  0  0  0  0  0  0
   38.6770   30.8750   40.8010 C   0  0  0  0  0  0  0  0  0  0  0  0
   37.6620   30.6650   39.9380 N   0  0  0  0  0  0  0  0  0  0  0  0
   36.2170   31.4660   38.6430 H   0  0  0  0  0  0  0  0  0  0  0  0
   36.9340   33.8340   39.1150 H   0  0  0  0  0  0  0  0  0  0  0  0
   38.7600   34.2410   40.6660 H   0  0  0  0  0  0  0  0  0  0  0  0
  1  2  1  0  0  0  0
  2  7  2  0  0  0  0
  2  3  1  0  0  0  0
  3  4  2  0  0  0  0
  4  5  1  0  0  0  0
  4  8  1  0  0  0  0
  5  9  1  0  0  0  0
  6 10  1  0  0  0  0
  6  5  2  0  0  0  0
  7  6  1  0  0  0  0
 12 11  1  0  0  0  0
 13 12  1  0  0  0  0
 13  7  1  0  0  0  0
 14 13  2  0  0  0  0
 15 14  1  0  0  0  0
 16 18  2  0  0  0  0
 16 14  1  0  0  0  0
 17 16  1  0  0  0  0
 18 19  1  0  0  0  0
 19 12  2  0  0  0  0
 20  3  1  0  0  0  0
 20 21  1  0  0  0  0
 22 20  1  0  0  0  0
 23 24  2  0  0  0  0
 23 28  1  0  0  0  0
 24 25  1  0  0  0  0
 25 31  1  0  0  0  0
 25 26  2  0  0  0  0
 27 26  1  0  0  0  0
 27 20  1  0  0  0  0
 28 27  2  0  0  0  0
 29 23  1  0  0  0  0
 30 24  1  0  0  0  0
M  END
>  <minimizedAffinity>
-5.70984983

$$$$

 OpenBabel03252502543D

 31 33  0  0  0  0  0  0  0  0999 V2000
   39.2960   30.2160   42.5880 Br  0  0  0  0  0  0  0  0  0  0  0  0
   37.7470   29.8920   41.5040 C   0  0  0  0  0  0  0  0  0  0  0  0
   36.9070   28.8790   41.9090 C   0  0  0  0  0  0  0  0  0  0  0  0
   35.8000   28.6840   41.0920 C   0  0  0  0  0  0  0  0  0  0  0  0
   35.5380   29.4300   39.9580 C   0  0  0  0  0  0  0  0  0  0  0  0
   36.4190   30.4230   39.6140 C   0  0  0  0  0  0  0  0  0  0  0  0
   37.5560   30.6820   40.3850 C   0  0  0  0  0  0  0  0  0  0  0  0
   35.0590   27.9190   41.2960 H   0  0  0  0  0  0  0  0  0  0  0  0
   34.6710   29.2580   39.3390 H   0  0  0  0  0  0  0  0  0  0  0  0
   36.2520   31.0360   38.7300 H   0  0  0  0  0  0  0  0  0  0  0  0
   39.9980   30.3010   38.9720 F   0  0  0  0  0  0  0  0  0  0  0  0
   39.7190   31.5720   39.3820 C   0  0  0  0  0  0  0  0  0  0  0  0
   38.5260   31.7260   40.0660 C   0  0  0  0  0  0  0  0  0  0  0  0
   38.1450   32.9910   40.5310 C   0  0  0  0  0  0  0  0  0  0  0  0
   37.2090   33.1730   41.0800 H   0  0  0  0  0  0  0  0  0  0  0  0
   38.9640   34.0980   40.3080 C   0  0  0  0  0  0  0  0  0  0  0  0
   38.6610   35.0810   40.6730 H   0  0  0  0  0  0  0  0  0  0  0  0
   40.1430   33.8960   39.6220 C   0  0  0  0  0  3  0  0  0  0  0  0
   40.5390   32.6570   39.1540 C   0  0  0  0  0  3  0  0  0  0  0  0
   37.0810   28.0290   43.0830 C   0  0  0  0  0  0  0  0  0  0  0  0
   37.6350   28.5460   43.8900 H   0  0  0  0  0  0  0  0  0  0  0  0
   36.0600   27.8400   43.4910 H   0  0  0  0  0  0  0  0  0  0  0  0
   37.5230   24.4820   42.0190 C   0  0  0  0  0  0  0  0  0  0  0  0
   38.8920   24.2890   42.2330 C   0  0  0  0  0  0  0  0  0  0  0  0
   39.6260   25.3520   42.7280 C   0  0  0  0  0  0  0  0  0  0  0  0
   39.0070   26.5270   42.9840 N   0  0  0  0  0  0  0  0  0  0  0  0
   37.6600   26.6990   42.7670 C   0  0  0  0  0  0  0  0  0  0  0  0
   36.9570   25.6550   42.2850 N   0  0  0  0  0  0  0  0  0  0  0  0
   36.9330   23.6600   41.6310 H   0  0  0  0  0  0  0  0  0  0  0  0
   39.4020   23.3710   42.0380 H   0  0  0  0  0  0  0  0  0  0  0  0
   40.6940   25.2370   42.9060 H   0  0  0  0  0  0  0  0  0  0  0  0
  2  3  1  0  0  0  0
  2  1  1  0  0  0  0
  3 20  1  0  0  0  0
  4  8  1  0  0  0  0
  4  3  2  0  0  0  0
  5  4  1  0  0  0  0
  6  5  2  0  0  0  0
  6  7  1  0  0  0  0
  7  2  2  0  0  0  0
  9  5  1  0  0  0  0
 10  6  1  0  0  0  0
 11 12  1  0  0  0  0
 12 13  1  0  0  0  0
 13  7  1  0  0  0  0
 13 14  2  0  0  0  0
 14 15  1  0  0  0  0
 16 14  1  0  0  0  0
 16 17  1  0  0  0  0
 18 16  2  0  0  0  0
 19 12  2  0  0  0  0
 19 18  1  0  0  0  0
 20 22  1  0  0  0  0
 20 21  1  0  0  0  0
 23 24  2  0  0  0  0
 23 28  1  0  0  0  0
 24 25  1  0  0  0  0
 25 31  1  0  0  0  0
 25 26  2  0  0  0  0
 27 26  1  0  0  0  0
 27 20  1  0  0  0  0
 28 27  2  0  0  0  0
 29 23  1  0  0  0  0
 30 24  1  0  0  0  0
M  END
>  <minimizedAffinity>
-5.69313526

$$$$

 OpenBabel03252502543D

 31 33  0  0  0  0  0  0  0  0999 V2000
   36.1570   26.6300   38.7720 Br  0  0  0  0  0  0  0  0  0  0  0  0
   36.6420   26.9790   40.5950 C   0  0  0  0  0  0  0  0  0  0  0  0
   36.2050   28.1670   41.1370 C   0  0  0  0  0  0  0  0  0  0  0  0
   36.5810   28.3730   42.4580 C   0  0  0  0  0  0  0  0  0  0  0  0
   37.3330   27.4770   43.1940 C   0  0  0  0  0  0  0  0  0  0  0  0
   37.7340   26.3130   42.5900 C   0  0  0  0  0  0  0  0  0  0  0  0
   37.3960   26.0320   41.2630 C   0  0  0  0  0  0  0  0  0  0  0  0
   36.3030   29.2680   43.0060 H   0  0  0  0  0  0  0  0  0  0  0  0
   37.6130   27.6610   44.2200 H   0  0  0  0  0  0  0  0  0  0  0  0
   38.3270   25.5790   43.1320 H   0  0  0  0  0  0  0  0  0  0  0  0
   35.8320   23.6630   41.0430 F   0  0  0  0  0  0  0  0  0  0  0  0
   37.0590   23.6460   40.4470 C   0  0  0  0  0  0  0  0  0  0  0  0
   37.7960   24.8100   40.5700 C   0  0  0  0  0  0  0  0  0  0  0  0
   39.0700   24.8960   39.9960 C   0  0  0  0  0  0  0  0  0  0  0  0
   39.7000   25.7960   40.0610 H   0  0  0  0  0  0  0  0  0  0  0  0
   39.6010   23.8110   39.2980 C   0  0  0  0  0  0  0  0  0  0  0  0
   40.5940   23.8850   38.8510 H   0  0  0  0  0  0  0  0  0  0  0  0
   38.8300   22.6710   39.1990 C   0  0  0  0  0  3  0  0  0  0  0  0
   37.5710   22.5640   39.7600 C   0  0  0  0  0  3  0  0  0  0  0  0
   35.4090   29.1850   40.4590 C   0  0  0  0  0  0  0  0  0  0  0  0
   34.7570   28.7490   39.6770 H   0  0  0  0  0  0  0  0  0  0  0  0
   34.7170   29.6090   41.2250 H   0  0  0  0  0  0  0  0  0  0  0  0
   37.3240   32.3740   40.1820 C   0  0  0  0  0  0  0  0  0  0  0  0
   37.7170   32.3530   38.8400 C   0  0  0  0  0  0  0  0  0  0  0  0
   37.3300   31.2740   38.0670 C   0  0  0  0  0  0  0  0  0  0  0  0
   36.5950   30.2850   38.6250 N   0  0  0  0  0  0  0  0  0  0  0  0
   36.2160   30.3220   39.9470 C   0  0  0  0  0  0  0  0  0  0  0  0
   36.6000   31.3800   40.6870 N   0  0  0  0  0  0  0  0  0  0  0  0
   37.6190   33.2130   40.8010 H   0  0  0  0  0  0  0  0  0  0  0  0
   38.2980   33.1210   38.3780 H   0  0  0  0  0  0  0  0  0  0  0  0
   37.6190   31.2250   37.0190 H   0  0  0  0  0  0  0  0  0  0  0  0
  1  2  1  0  0  0  0
  2  3  2  0  0  0  0
  2  7  1  0  0  0  0
  3  4  1  0  0  0  0
  4  8  1  0  0  0  0
  4  5  2  0  0  0  0
  5  9  1  0  0  0  0
  6 10  1  0  0  0  0
  6  5  1  0  0  0  0
  7  6  2  0  0  0  0
 12 13  1  0  0  0  0
 12 11  1  0  0  0  0
 13  7  1  0  0  0  0
 14 15  1  0  0  0  0
 14 13  2  0  0  0  0
 16 14  1  0  0  0  0
 17 16  1  0  0  0  0
 18 16  2  0  0  0  0
 18 19  1  0  0  0  0
 19 12  2  0  0  0  0
 20  3  1  0  0  0  0
 20 22  1  0  0  0  0
 21 20  1  0  0  0  0
 23 28  1  0  0  0  0
 23 29  1  0  0  0  0
 24 23  2  0  0  0  0
 25 26  2  0  0  0  0
 25 24  1  0  0  0  0
 26 27  1  0  0  0  0
 27 20  1  0  0  0  0
 27 28  2  0  0  0  0
 30 24  1  0  0  0  0
 31 25  1  0  0  0  0
M  END
>  <minimizedAffinity>
-5.59401083

$$$$

 OpenBabel03252502543D

 31 33  0  0  0  0  0  0  0  0999 V2000
   39.6410   28.1020   41.9940 Br  0  0  0  0  0  0  0  0  0  0  0  0
   38.0790   29.0470   41.4060 C   0  0  0  0  0  0  0  0  0  0  0  0
   38.1650   30.4210   41.3560 C   0  0  0  0  0  0  0  0  0  0  0  0
   37.0100   31.0590   40.9250 C   0  0  0  0  0  0  0  0  0  0  0  0
   35.8510   30.3960   40.5680 C   0  0  0  0  0  0  0  0  0  0  0  0
   35.8350   29.0260   40.6420 C   0  0  0  0  0  0  0  0  0  0  0  0
   36.9580   28.3110   41.0670 C   0  0  0  0  0  0  0  0  0  0  0  0
   36.9420   32.1380   40.8400 H   0  0  0  0  0  0  0  0  0  0  0  0
   34.9650   30.9150   40.2360 H   0  0  0  0  0  0  0  0  0  0  0  0
   34.9430   28.4630   40.3710 H   0  0  0  0  0  0  0  0  0  0  0  0
   36.6630   26.8010   43.4630 F   0  0  0  0  0  0  0  0  0  0  0  0
   36.8570   26.0940   42.3120 C   0  0  0  0  0  0  0  0  0  0  0  0
   36.9970   26.8540   41.1650 C   0  0  0  0  0  0  0  0  0  0  0  0
   37.2010   26.2260   39.9300 C   0  0  0  0  0  0  0  0  0  0  0  0
   37.3180   26.7790   38.9860 H   0  0  0  0  0  0  0  0  0  0  0  0
   37.2640   24.8350   39.8510 C   0  0  0  0  0  0  0  0  0  0  0  0
   37.4220   24.3510   38.8850 H   0  0  0  0  0  0  0  0  0  0  0  0
   37.1180   24.1180   41.0210 C   0  0  0  0  0  3  0  0  0  0  0  0
   36.9170   24.7170   42.2500 C   0  0  0  0  0  3  0  0  0  0  0  0
   39.3320   31.2260   41.7070 C   0  0  0  0  0  0  0  0  0  0  0  0
   39.1250   31.9080   42.5540 H   0  0  0  0  0  0  0  0  0  0  0  0
   40.1080   30.5140   42.0770 H   0  0  0  0  0  0  0  0  0  0  0  0
   40.6030   33.8610   39.3950 C   0  0  0  0  0  0  0  0  0  0  0  0
   41.0680   33.0960   38.3200 C   0  0  0  0  0  0  0  0  0  0  0  0
   40.9420   31.7210   38.4000 C   0  0  0  0  0  0  0  0  0  0  0  0
   40.3820   31.1670   39.5000 N   0  0  0  0  0  0  0  0  0  0  0  0
   39.9300   31.9350   40.5480 C   0  0  0  0  0  0  0  0  0  0  0  0
   40.0600   33.2730   40.4550 N   0  0  0  0  0  0  0  0  0  0  0  0
   40.6950   34.9400   39.3470 H   0  0  0  0  0  0  0  0  0  0  0  0
   41.5130   33.5110   37.4420 H   0  0  0  0  0  0  0  0  0  0  0  0
   41.2930   31.0950   37.5820 H   0  0  0  0  0  0  0  0  0  0  0  0
  2  1  1  0  0  0  0
  3  2  1  0  0  0  0
  3 20  1  0  0  0  0
  4  3  2  0  0  0  0
  5  6  2  0  0  0  0
  5  4  1  0  0  0  0
  6  7  1  0  0  0  0
  7 13  1  0  0  0  0
  7  2  2  0  0  0  0
  8  4  1  0  0  0  0
  9  5  1  0  0  0  0
 10  6  1  0  0  0  0
 12 11  1  0  0  0  0
 13 12  2  0  0  0  0
 14 13  1  0  0  0  0
 15 14  1  0  0  0  0
 16 14  2  0  0  0  0
 16 18  1  0  0  0  0
 17 16  1  0  0  0  0
 18 19  2  0  0  0  0
 19 12  1  0  0  0  0
 20 22  1  0  0  0  0
 20 21  1  0  0  0  0
 23 28  1  0  0  0  0
 24 25  1  0  0  0  0
 24 23  2  0  0  0  0
 25 26  2  0  0  0  0
 26 27  1  0  0  0  0
 27 20  1  0  0  0  0
 28 27  2  0  0  0  0
 29 23  1  0  0  0  0
 30 24  1  0  0  0  0
 31 25  1  0  0  0  0
M  END
>  <minimizedAffinity>
-5.51084566

$$$$

 OpenBabel03252502543D

 31 33  0  0  0  0  0  0  0  0999 V2000
   40.0490   28.8500   39.8500 Br  0  0  0  0  0  0  0  0  0  0  0  0
   38.8830   30.3680   39.7310 C   0  0  0  0  0  0  0  0  0  0  0  0
   39.1760   31.3020   38.7610 C   0  0  0  0  0  0  0  0  0  0  0  0
   38.3030   32.3820   38.7150 C   0  0  0  0  0  0  0  0  0  0  0  0
   37.2210   32.5340   39.5610 C   0  0  0  0  0  0  0  0  0  0  0  0
   36.9890   31.5650   40.5040 C   0  0  0  0  0  0  0  0  0  0  0  0
   37.8220   30.4480   40.6140 C   0  0  0  0  0  0  0  0  0  0  0  0
   38.4190   33.1890   38.0000 H   0  0  0  0  0  0  0  0  0  0  0  0
   36.5570   33.3840   39.5060 H   0  0  0  0  0  0  0  0  0  0  0  0
   36.1480   31.6450   41.1900 H   0  0  0  0  0  0  0  0  0  0  0  0
   39.0360   30.3220   43.1860 F   0  0  0  0  0  0  0  0  0  0  0  0
   38.1970   29.2990   42.8530 C   0  0  0  0  0  0  0  0  0  0  0  0
   37.6220   29.3870   41.5980 C   0  0  0  0  0  0  0  0  0  0  0  0
   36.7460   28.3880   41.1580 C   0  0  0  0  0  0  0  0  0  0  0  0
   36.2590   28.4060   40.1700 H   0  0  0  0  0  0  0  0  0  0  0  0
   36.4490   27.3010   41.9800 C   0  0  0  0  0  0  0  0  0  0  0  0
   35.7640   26.5250   41.6320 H   0  0  0  0  0  0  0  0  0  0  0  0
   37.0440   27.2560   43.2240 C   0  0  0  0  0  3  0  0  0  0  0  0
   37.9130   28.2300   43.6780 C   0  0  0  0  0  3  0  0  0  0  0  0
   40.2870   31.2460   37.8160 C   0  0  0  0  0  0  0  0  0  0  0  0
   40.7020   30.2240   37.7240 H   0  0  0  0  0  0  0  0  0  0  0  0
   39.8620   31.4900   36.8130 H   0  0  0  0  0  0  0  0  0  0  0  0
   42.7250   34.0470   37.4710 C   0  0  0  0  0  0  0  0  0  0  0  0
   43.3090   34.0730   38.7420 C   0  0  0  0  0  0  0  0  0  0  0  0
   42.8710   33.1530   39.6760 C   0  0  0  0  0  0  0  0  0  0  0  0
   41.9040   32.2700   39.3380 N   0  0  0  0  0  0  0  0  0  0  0  0
   41.3400   32.2580   38.0830 C   0  0  0  0  0  0  0  0  0  0  0  0
   41.7780   33.1610   37.1830 N   0  0  0  0  0  0  0  0  0  0  0  0
   43.0570   34.7620   36.7280 H   0  0  0  0  0  0  0  0  0  0  0  0
   44.0730   34.7610   39.0320 H   0  0  0  0  0  0  0  0  0  0  0  0
   43.3030   33.1450   40.6750 H   0  0  0  0  0  0  0  0  0  0  0  0
  2  1  1  0  0  0  0
  2  7  1  0  0  0  0
  3  2  2  0  0  0  0
  4  3  1  0  0  0  0
  4  5  2  0  0  0  0
  5  6  1  0  0  0  0
  6  7  2  0  0  0  0
  6 10  1  0  0  0  0
  7 13  1  0  0  0  0
  8  4  1  0  0  0  0
  9  5  1  0  0  0  0
 12 11  1  0  0  0  0
 12 19  1  0  0  0  0
 13 12  2  0  0  0  0
 14 13  1  0  0  0  0
 14 16  2  0  0  0  0
 15 14  1  0  0  0  0
 16 18  1  0  0  0  0
 17 16  1  0  0  0  0
 18 19  2  0  0  0  0
 20 27  1  0  0  0  0
 20  3  1  0  0  0  0
 21 20  1  0  0  0  0
 22 20  1  0  0  0  0
 23 24  1  0  0  0  0
 24 30  1  0  0  0  0
 24 25  2  0  0  0  0
 25 31  1  0  0  0  0
 26 25  1  0  0  0  0
 27 26  2  0  0  0  0
 28 23  2  0  0  0  0
 28 27  1  0  0  0  0
 29 23  1  0  0  0  0
M  END
>  <minimizedAffinity>
-5.4275856

$$$$

 OpenBabel03252502543D

 31 33  0  0  0  0  0  0  0  0999 V2000
   39.4480   28.5330   40.0100 Br  0  0  0  0  0  0  0  0  0  0  0  0
   37.7820   28.8870   39.1280 C   0  0  0  0  0  0  0  0  0  0  0  0
   37.7810   29.8860   38.1810 C   0  0  0  0  0  0  0  0  0  0  0  0
   36.5520   30.1050   37.5710 C   0  0  0  0  0  0  0  0  0  0  0  0
   35.4060   29.3930   37.8710 C   0  0  0  0  0  0  0  0  0  0  0  0
   35.4800   28.4110   38.8260 C   0  0  0  0  0  0  0  0  0  0  0  0
   36.6810   28.1310   39.4850 C   0  0  0  0  0  0  0  0  0  0  0  0
   36.4120   30.8620   36.8070 H   0  0  0  0  0  0  0  0  0  0  0  0
   34.4620   29.5820   37.3830 H   0  0  0  0  0  0  0  0  0  0  0  0
   34.6020   27.8260   39.0930 H   0  0  0  0  0  0  0  0  0  0  0  0
   36.7550   28.5820   42.2950 F   0  0  0  0  0  0  0  0  0  0  0  0
   36.8550   27.2870   41.8790 C   0  0  0  0  0  0  0  0  0  0  0  0
   36.8160   27.0980   40.5090 C   0  0  0  0  0  0  0  0  0  0  0  0
   36.9120   25.8070   39.9770 C   0  0  0  0  0  0  0  0  0  0  0  0
   36.8860   25.5980   38.8970 H   0  0  0  0  0  0  0  0  0  0  0  0
   37.0470   24.7070   40.8240 C   0  0  0  0  0  0  0  0  0  0  0  0
   37.1210   23.7020   40.4030 H   0  0  0  0  0  0  0  0  0  0  0  0
   37.0810   24.9420   42.1830 C   0  0  0  0  0  3  0  0  0  0  0  0
   36.9890   26.2090   42.7290 C   0  0  0  0  0  3  0  0  0  0  0  0
   38.9250   30.7000   37.7830 C   0  0  0  0  0  0  0  0  0  0  0  0
   39.8540   30.1020   37.7060 H   0  0  0  0  0  0  0  0  0  0  0  0
   38.7130   31.0610   36.7480 H   0  0  0  0  0  0  0  0  0  0  0  0
   40.3990   33.6150   39.5830 C   0  0  0  0  0  0  0  0  0  0  0  0
   39.2730   34.1610   40.2090 C   0  0  0  0  0  0  0  0  0  0  0  0
   38.0550   33.5380   40.0100 C   0  0  0  0  0  0  0  0  0  0  0  0
   37.9910   32.4370   39.2280 N   0  0  0  0  0  0  0  0  0  0  0  0
   39.1070   31.9130   38.6210 C   0  0  0  0  0  0  0  0  0  0  0  0
   40.2880   32.5310   38.8230 N   0  0  0  0  0  0  0  0  0  0  0  0
   41.3610   34.0920   39.7290 H   0  0  0  0  0  0  0  0  0  0  0  0
   39.3000   35.0300   40.8310 H   0  0  0  0  0  0  0  0  0  0  0  0
   37.1580   33.9360   40.4820 H   0  0  0  0  0  0  0  0  0  0  0  0
  2  7  1  0  0  0  0
  2  1  1  0  0  0  0
  3  2  2  0  0  0  0
  4  5  2  0  0  0  0
  4  3  1  0  0  0  0
  5  6  1  0  0  0  0
  6 10  1  0  0  0  0
  6  7  2  0  0  0  0
  7 13  1  0  0  0  0
  8  4  1  0  0  0  0
  9  5  1  0  0  0  0
 12 11  1  0  0  0  0
 12 19  1  0  0  0  0
 13 12  2  0  0  0  0
 14 13  1  0  0  0  0
 14 16  2  0  0  0  0
 15 14  1  0  0  0  0
 16 18  1  0  0  0  0
 17 16  1  0  0  0  0
 18 19  2  0  0  0  0
 20  3  1  0  0  0  0
 20 27  1  0  0  0  0
 21 20  1  0  0  0  0
 22 20  1  0  0  0  0
 23 29  1  0  0  0  0
 23 24  1  0  0  0  0
 24 30  1  0  0  0  0
 25 24  2  0  0  0  0
 25 31  1  0  0  0  0
 26 25  1  0  0  0  0
 27 28  1  0  0  0  0
 27 26  2  0  0  0  0
 28 23  2  0  0  0  0
M  END
>  <minimizedAffinity>
-5.42652035

$$$$

 OpenBabel03252502543D

 31 33  0  0  0  0  0  0  0  0999 V2000
   39.4480   29.6840   39.8650 Br  0  0  0  0  0  0  0  0  0  0  0  0
   38.9280   31.5300   39.9250 C   0  0  0  0  0  0  0  0  0  0  0  0
   39.9000   32.4380   40.2820 C   0  0  0  0  0  0  0  0  0  0  0  0
   39.4740   33.7600   40.3120 C   0  0  0  0  0  0  0  0  0  0  0  0
   38.1860   34.1610   40.0110 C   0  0  0  0  0  0  0  0  0  0  0  0
   37.2690   33.2030   39.6640 C   0  0  0  0  0  0  0  0  0  0  0  0
   37.6200   31.8500   39.6110 C   0  0  0  0  0  0  0  0  0  0  0  0
   40.1380   34.5750   40.5770 H   0  0  0  0  0  0  0  0  0  0  0  0
   37.8800   35.1960   40.0420 H   0  0  0  0  0  0  0  0  0  0  0  0
   36.2440   33.4740   39.4190 H   0  0  0  0  0  0  0  0  0  0  0  0
   37.2340   30.8060   36.9910 F   0  0  0  0  0  0  0  0  0  0  0  0
   36.4760   30.2610   37.9860 C   0  0  0  0  0  0  0  0  0  0  0  0
   36.6850   30.7880   39.2470 C   0  0  0  0  0  0  0  0  0  0  0  0
   35.9570   30.3000   40.3390 C   0  0  0  0  0  0  0  0  0  0  0  0
   36.0820   30.6800   41.3640 H   0  0  0  0  0  0  0  0  0  0  0  0
   35.0200   29.2820   40.1600 C   0  0  0  0  0  0  0  0  0  0  0  0
   34.4560   28.9050   41.0150 H   0  0  0  0  0  0  0  0  0  0  0  0
   34.8460   28.7870   38.8840 C   0  0  0  0  0  3  0  0  0  0  0  0
   35.5530   29.2550   37.7920 C   0  0  0  0  0  3  0  0  0  0  0  0
   41.2870   32.1310   40.6190 C   0  0  0  0  0  0  0  0  0  0  0  0
   41.5480   32.4630   41.6420 H   0  0  0  0  0  0  0  0  0  0  0  0
   41.3700   31.0180   40.6330 H   0  0  0  0  0  0  0  0  0  0  0  0
   44.0420   33.9590   38.8930 C   0  0  0  0  0  0  0  0  0  0  0  0
   43.9970   33.3960   37.6130 C   0  0  0  0  0  0  0  0  0  0  0  0
   43.0480   32.4220   37.3650 C   0  0  0  0  0  0  0  0  0  0  0  0
   42.2030   32.0490   38.3540 N   0  0  0  0  0  0  0  0  0  0  0  0
   42.2600   32.6130   39.6060 C   0  0  0  0  0  0  0  0  0  0  0  0
   43.1910   33.5610   39.8330 N   0  0  0  0  0  0  0  0  0  0  0  0
   44.7800   34.7230   39.1030 H   0  0  0  0  0  0  0  0  0  0  0  0
   44.6540   33.6740   36.8170 H   0  0  0  0  0  0  0  0  0  0  0  0
   42.9860   31.9620   36.3800 H   0  0  0  0  0  0  0  0  0  0  0  0
  1  2  1  0  0  0  0
  2  3  1  0  0  0  0
  3  4  2  0  0  0  0
  3 20  1  0  0  0  0
  4  8  1  0  0  0  0
  5  9  1  0  0  0  0
  5  4  1  0  0  0  0
  6  5  2  0  0  0  0
  7  6  1  0  0  0  0
  7  2  2  0  0  0  0
 10  6  1  0  0  0  0
 11 12  1  0  0  0  0
 12 13  1  0  0  0  0
 13  7  1  0  0  0  0
 13 14  2  0  0  0  0
 14 15  1  0  0  0  0
 16 14  1  0  0  0  0
 16 17  1  0  0  0  0
 18 16  2  0  0  0  0
 19 12  2  0  0  0  0
 19 18  1  0  0  0  0
 20 22  1  0  0  0  0
 20 21  1  0  0  0  0
 23 29  1  0  0  0  0
 23 28  1  0  0  0  0
 24 23  2  0  0  0  0
 25 24  1  0  0  0  0
 25 26  2  0  0  0  0
 26 27  1  0  0  0  0
 27 28  2  0  0  0  0
 27 20  1  0  0  0  0
 30 24  1  0  0  0  0
 31 25  1  0  0  0  0
M  END
>  <minimizedAffinity>
-5.3398385

$$$$

 OpenBabel03252502543D

 31 33  0  0  0  0  0  0  0  0999 V2000
   39.8400   26.8480   40.1510 Br  0  0  0  0  0  0  0  0  0  0  0  0
   38.7010   27.3680   41.6050 C   0  0  0  0  0  0  0  0  0  0  0  0
   39.1020   28.4550   42.3500 C   0  0  0  0  0  0  0  0  0  0  0  0
   38.2450   28.7910   43.3900 C   0  0  0  0  0  0  0  0  0  0  0  0
   37.0780   28.1090   43.6780 C   0  0  0  0  0  0  0  0  0  0  0  0
   36.7410   27.0350   42.8950 C   0  0  0  0  0  0  0  0  0  0  0  0
   37.5510   26.6340   41.8290 C   0  0  0  0  0  0  0  0  0  0  0  0
   38.4420   29.6260   44.0540 H   0  0  0  0  0  0  0  0  0  0  0  0
   36.4290   28.3900   44.4930 H   0  0  0  0  0  0  0  0  0  0  0  0
   35.8310   26.4690   43.0860 H   0  0  0  0  0  0  0  0  0  0  0  0
   36.0370   26.7510   39.4210 F   0  0  0  0  0  0  0  0  0  0  0  0
   36.5100   25.5250   39.7890 C   0  0  0  0  0  0  0  0  0  0  0  0
   37.2410   25.4990   40.9630 C   0  0  0  0  0  0  0  0  0  0  0  0
   37.7700   24.2900   41.4310 C   0  0  0  0  0  0  0  0  0  0  0  0
   38.3590   24.2100   42.3570 H   0  0  0  0  0  0  0  0  0  0  0  0
   37.5620   23.1090   40.7180 C   0  0  0  0  0  0  0  0  0  0  0  0
   37.9780   22.1700   41.0880 H   0  0  0  0  0  0  0  0  0  0  0  0
   36.8270   23.1830   39.5530 C   0  0  0  0  0  3  0  0  0  0  0  0
   36.2950   24.3660   39.0730 C   0  0  0  0  0  3  0  0  0  0  0  0
   40.3080   29.2490   42.1390 C   0  0  0  0  0  0  0  0  0  0  0  0
   40.8110   29.5010   43.0920 H   0  0  0  0  0  0  0  0  0  0  0  0
   41.0250   28.5960   41.5850 H   0  0  0  0  0  0  0  0  0  0  0  0
   40.1980   31.6230   39.2640 C   0  0  0  0  0  0  0  0  0  0  0  0
   39.6040   32.7480   39.8470 C   0  0  0  0  0  0  0  0  0  0  0  0
   39.2590   32.6780   41.1840 C   0  0  0  0  0  0  0  0  0  0  0  0
   39.5010   31.5420   41.8770 N   0  0  0  0  0  0  0  0  0  0  0  0
   40.0860   30.4460   41.2880 C   0  0  0  0  0  0  0  0  0  0  0  0
   40.4180   30.5280   39.9840 N   0  0  0  0  0  0  0  0  0  0  0  0
   40.4740   31.6610   38.2170 H   0  0  0  0  0  0  0  0  0  0  0  0
   39.4020   33.6550   39.3210 H   0  0  0  0  0  0  0  0  0  0  0  0
   38.7940   33.5340   41.6700 H   0  0  0  0  0  0  0  0  0  0  0  0
  1  2  1  0  0  0  0
  2  7  2  0  0  0  0
  2  3  1  0  0  0  0
  3  4  2  0  0  0  0
  4  5  1  0  0  0  0
  4  8  1  0  0  0  0
  5  9  1  0  0  0  0
  6 10  1  0  0  0  0
  6  5  2  0  0  0  0
  7  6  1  0  0  0  0
 11 12  1  0  0  0  0
 12 13  1  0  0  0  0
 13 14  2  0  0  0  0
 13  7  1  0  0  0  0
 14 15  1  0  0  0  0
 16 17  1  0  0  0  0
 16 14  1  0  0  0  0
 18 16  2  0  0  0  0
 19 18  1  0  0  0  0
 19 12  2  0  0  0  0
 20  3  1  0  0  0  0
 20 21  1  0  0  0  0
 22 20  1  0  0  0  0
 23 24  2  0  0  0  0
 23 28  1  0  0  0  0
 24 25  1  0  0  0  0
 25 31  1  0  0  0  0
 25 26  2  0  0  0  0
 27 26  1  0  0  0  0
 27 20  1  0  0  0  0
 28 27  2  0  0  0  0
 29 23  1  0  0  0  0
 30 24  1  0  0  0  0
M  END
>  <minimizedAffinity>
-5.27988005

$$$$

 OpenBabel03252502543D

 31 33  0  0  0  0  0  0  0  0999 V2000
   39.8640   27.8060   40.0320 Br  0  0  0  0  0  0  0  0  0  0  0  0
   38.5310   27.7110   41.4090 C   0  0  0  0  0  0  0  0  0  0  0  0
   37.2280   27.9410   41.0280 C   0  0  0  0  0  0  0  0  0  0  0  0
   36.3010   27.8610   42.0590 C   0  0  0  0  0  0  0  0  0  0  0  0
   36.6300   27.5760   43.3710 C   0  0  0  0  0  0  0  0  0  0  0  0
   37.9490   27.3580   43.6790 C   0  0  0  0  0  0  0  0  0  0  0  0
   38.9420   27.4210   42.6970 C   0  0  0  0  0  0  0  0  0  0  0  0
   35.2400   28.0210   41.8970 H   0  0  0  0  0  0  0  0  0  0  0  0
   35.8910   27.5200   44.1550 H   0  0  0  0  0  0  0  0  0  0  0  0
   38.2530   27.1310   44.6990 H   0  0  0  0  0  0  0  0  0  0  0  0
   40.9110   29.4530   43.0090 F   0  0  0  0  0  0  0  0  0  0  0  0
   41.3380   28.1630   43.1250 C   0  0  0  0  0  0  0  0  0  0  0  0
   40.3600   27.1980   42.9690 C   0  0  0  0  0  0  0  0  0  0  0  0
   40.6930   25.8410   43.0680 C   0  0  0  0  0  0  0  0  0  0  0  0
   39.9570   25.0310   42.9530 H   0  0  0  0  0  0  0  0  0  0  0  0
   42.0090   25.4580   43.3240 C   0  0  0  0  0  0  0  0  0  0  0  0
   42.2630   24.3990   43.4010 H   0  0  0  0  0  0  0  0  0  0  0  0
   42.9510   26.4550   43.4740 C   0  0  0  0  0  3  0  0  0  0  0  0
   42.6440   27.8000   43.3790 C   0  0  0  0  0  3  0  0  0  0  0  0
   36.7640   28.2490   39.6790 C   0  0  0  0  0  0  0  0  0  0  0  0
   37.1380   27.5190   38.9350 H   0  0  0  0  0  0  0  0  0  0  0  0
   35.6550   28.1260   39.6890 H   0  0  0  0  0  0  0  0  0  0  0  0
   37.7430   31.2880   37.7510 C   0  0  0  0  0  0  0  0  0  0  0  0
   37.4600   32.3080   38.6660 C   0  0  0  0  0  0  0  0  0  0  0  0
   36.9500   31.9480   39.9000 C   0  0  0  0  0  0  0  0  0  0  0  0
   36.7430   30.6420   40.1800 N   0  0  0  0  0  0  0  0  0  0  0  0
   37.0280   29.6520   39.2690 C   0  0  0  0  0  0  0  0  0  0  0  0
   37.5250   30.0170   38.0700 N   0  0  0  0  0  0  0  0  0  0  0  0
   38.1430   31.5530   36.7800 H   0  0  0  0  0  0  0  0  0  0  0  0
   37.6140   33.3460   38.4670 H   0  0  0  0  0  0  0  0  0  0  0  0
   36.7170   32.7160   40.6360 H   0  0  0  0  0  0  0  0  0  0  0  0
  1  2  1  0  0  0  0
  2  7  1  0  0  0  0
  3  2  2  0  0  0  0
  3  4  1  0  0  0  0
  4  5  2  0  0  0  0
  5  6  1  0  0  0  0
  5  9  1  0  0  0  0
  6 10  1  0  0  0  0
  7 13  1  0  0  0  0
  7  6  2  0  0  0  0
  8  4  1  0  0  0  0
 11 12  1  0  0  0  0
 12 19  1  0  0  0  0
 13 14  1  0  0  0  0
 13 12  2  0  0  0  0
 14 16  2  0  0  0  0
 15 14  1  0  0  0  0
 16 17  1  0  0  0  0
 16 18  1  0  0  0  0
 19 18  2  0  0  0  0
 20 22  1  0  0  0  0
 20  3  1  0  0  0  0
 21 20  1  0  0  0  0
 23 28  2  0  0  0  0
 23 24  1  0  0  0  0
 24 25  2  0  0  0  0
 25 26  1  0  0  0  0
 25 31  1  0  0  0  0
 27 20  1  0  0  0  0
 27 26  2  0  0  0  0
 28 27  1  0  0  0  0
 29 23  1  0  0  0  0
 30 24  1  0  0  0  0
M  END
>  <minimizedAffinity>
-5.24786663

$$$$
