
 OpenBabel03252507073D

 24 25  0  0  0  0  0  0  0  0999 V2000
   44.5220   36.0380   44.5020 C   0  0  0  0  0  0  0  0  0  0  0  0
   45.1550   35.9920   43.2370 C   0  0  0  0  0  0  0  0  0  0  0  0
   46.0500   34.9470   43.0120 C   0  0  0  0  0  0  0  0  0  0  0  0
   46.2730   34.0390   43.9920 N   0  0  0  0  0  0  0  0  0  0  0  0
   45.6580   34.1070   45.1850 C   0  0  0  0  0  0  0  0  0  0  0  0
   44.7850   35.0980   45.4510 N   0  0  0  0  0  0  0  0  0  0  0  0
   43.8170   36.8540   44.6910 H   0  0  0  0  0  0  0  0  0  0  0  0
   44.9600   36.7270   42.4740 H   0  0  0  0  0  0  0  0  0  0  0  0
   47.6130   32.0920   44.7220 F   0  0  0  0  0  0  0  0  0  0  0  0
   46.9340   32.1040   45.9110 C   0  0  0  0  0  0  0  0  0  0  0  0
   45.9720   33.0760   46.1670 C   0  0  0  0  0  0  0  0  0  0  0  0
   45.2890   33.0870   47.3660 C   0  0  0  0  0  0  0  0  0  0  0  0
   44.5300   33.8350   47.5970 H   0  0  0  0  0  0  0  0  0  0  0  0
   45.5560   32.1220   48.3310 C   0  0  0  0  0  0  0  0  0  0  0  0
   44.9920   32.1650   49.2720 H   0  0  0  0  0  0  0  0  0  0  0  0
   46.5130   31.1440   48.0960 C   0  0  0  0  0  3  0  0  0  0  0  0
   47.2040   31.1350   46.8810 C   0  0  0  0  0  3  0  0  0  0  0  0
   46.6730   34.9050   41.7620 O   0  0  0  0  0  0  0  0  0  0  0  0
   48.6130   33.2420   41.0860 O   0  0  0  0  0  0  0  0  0  0  0  0
   48.3650   34.6240   41.6790 P   0  0  0  0  0  0  0  0  0  0  0  0
   49.0820   35.8340   40.7790 O   0  0  0  0  0  0  0  0  0  0  0  0
   49.8610   36.1620   41.2620 H   0  0  0  0  0  0  0  0  0  0  0  0
   48.9570   34.5900   43.2760 O   0  0  0  0  0  0  0  0  0  0  0  0
   49.0320   35.5630   43.5250 H   0  0  0  0  0  0  0  0  0  0  0  0
  1  7  1  0  0  0  0
  1  6  1  0  0  0  0
  2  1  2  0  0  0  0
  3  2  1  0  0  0  0
  3  4  2  0  0  0  0
  4  5  1  0  0  0  0
  5  6  2  0  0  0  0
  5 11  1  0  0  0  0
  8  2  1  0  0  0  0
  9 10  1  0  0  0  0
 10 11  2  0  0  0  0
 10 17  1  0  0  0  0
 11 12  1  0  0  0  0
 12 13  1  0  0  0  0
 12 14  2  0  0  0  0
 14 15  1  0  0  0  0
 16 14  1  0  0  0  0
 17 16  2  0  0  0  0
 18  3  1  0  0  0  0
 19 20  2  0  0  0  0
 20 18  1  0  0  0  0
 20 23  1  0  0  0  0
 21 22  1  0  0  0  0
 21 20  1  0  0  0  0
 23 24  1  0  0  0  0
M  END
>  <minimizedAffinity>
-5.98854589

>  <minimizedRMSD>
0.236619398

$$$$
