
 OpenBabel03252503423D

 21 22  0  0  0  0  0  0  0  0999 V2000
   36.9440   31.4960   40.2760 C   0  0  0  0  0  0  0  0  0  0  0  0
   37.7660   32.6210   40.2880 C   0  0  0  0  0  0  0  0  0  0  0  0
   38.9600   32.5440   40.9920 C   0  0  0  0  0  0  0  0  0  0  0  0
   39.2690   31.3800   41.6320 N   0  0  0  0  0  0  0  0  0  0  0  0
   38.4410   30.3190   41.5900 C   0  0  0  0  0  0  0  0  0  0  0  0
   37.2740   30.3610   40.9180 N   0  0  0  0  0  0  0  0  0  0  0  0
   35.9990   31.4860   39.7480 H   0  0  0  0  0  0  0  0  0  0  0  0
   39.5770   33.4210   40.9890 H   0  0  0  0  0  0  0  0  0  0  0  0
   36.6530   28.4400   42.7580 F   0  0  0  0  0  0  0  0  0  0  0  0
   37.9960   28.2200   42.8730 C   0  0  0  0  0  0  0  0  0  0  0  0
   38.8700   29.1250   42.3100 C   0  0  0  0  0  0  0  0  0  0  0  0
   40.2150   28.8800   42.4410 C   0  0  0  0  0  0  0  0  0  0  0  0
   40.9560   29.5270   42.0360 H   0  0  0  0  0  0  0  0  0  0  0  0
   40.7190   27.7630   43.1140 C   0  0  0  0  0  0  0  0  0  0  0  0
   41.7980   27.5960   43.2000 H   0  0  0  0  0  0  0  0  0  0  0  0
   39.8010   26.8720   43.6690 C   0  0  0  0  0  3  0  0  0  0  0  0
   38.4390   27.0970   43.5520 C   0  0  0  0  0  3  0  0  0  0  0  0
   37.2750   33.7950   39.5410 C   0  0  0  0  0  0  0  0  0  0  0  0
   36.6980   34.5030   40.1690 H   0  0  0  0  0  0  0  0  0  0  0  0
   36.7610   33.4970   38.6160 H   0  0  0  0  0  0  0  0  0  0  0  0
   38.1790   34.3630   39.2190 H   0  0  0  0  0  0  0  0  0  0  0  0
  1  2  2  0  0  0  0
  1  6  1  0  0  0  0
  2  3  1  0  0  0  0
  3  4  2  0  0  0  0
  5  4  1  0  0  0  0
  5 11  1  0  0  0  0
  6  5  2  0  0  0  0
  7  1  1  0  0  0  0
  8  3  1  0  0  0  0
  9 10  1  0  0  0  0
 10 17  1  0  0  0  0
 11 12  1  0  0  0  0
 11 10  2  0  0  0  0
 12 14  2  0  0  0  0
 13 12  1  0  0  0  0
 14 15  1  0  0  0  0
 14 16  1  0  0  0  0
 17 16  2  0  0  0  0
 18 19  1  0  0  0  0
 18  2  1  0  0  0  0
 20 18  1  0  0  0  0
 21 18  1  0  0  0  0
M  END
>  <minimizedAffinity>
-4.62588835

$$$$

 OpenBabel03252503423D

 21 22  0  0  0  0  0  0  0  0999 V2000
   36.2000   30.7180   40.8100 C   0  0  0  0  0  0  0  0  0  0  0  0
   37.3040   31.2270   40.1310 C   0  0  0  0  0  0  0  0  0  0  0  0
   38.2760   30.3310   39.7090 C   0  0  0  0  0  0  0  0  0  0  0  0
   38.1040   29.0050   39.9750 N   0  0  0  0  0  0  0  0  0  0  0  0
   37.0170   28.5610   40.6350 C   0  0  0  0  0  0  0  0  0  0  0  0
   36.0560   29.4040   41.0610 N   0  0  0  0  0  0  0  0  0  0  0  0
   35.4050   31.3590   41.1690 H   0  0  0  0  0  0  0  0  0  0  0  0
   39.1180   30.7440   39.1890 H   0  0  0  0  0  0  0  0  0  0  0  0
   37.4490   27.3320   43.1640 F   0  0  0  0  0  0  0  0  0  0  0  0
   37.1460   26.5370   42.0980 C   0  0  0  0  0  0  0  0  0  0  0  0
   36.9350   27.1230   40.8680 C   0  0  0  0  0  0  0  0  0  0  0  0
   36.6310   26.3000   39.8110 C   0  0  0  0  0  0  0  0  0  0  0  0
   36.4530   26.6700   38.8310 H   0  0  0  0  0  0  0  0  0  0  0  0
   36.5300   24.9100   39.9380 C   0  0  0  0  0  0  0  0  0  0  0  0
   36.2860   24.2820   39.0760 H   0  0  0  0  0  0  0  0  0  0  0  0
   36.7510   24.3570   41.1990 C   0  0  0  0  0  3  0  0  0  0  0  0
   37.0590   25.1660   42.2810 C   0  0  0  0  0  3  0  0  0  0  0  0
   37.3280   32.6890   39.9290 C   0  0  0  0  0  0  0  0  0  0  0  0
   37.8680   33.2330   40.7300 H   0  0  0  0  0  0  0  0  0  0  0  0
   36.3230   33.0830   39.7210 H   0  0  0  0  0  0  0  0  0  0  0  0
   37.9230   32.8690   39.0040 H   0  0  0  0  0  0  0  0  0  0  0  0
  1  6  1  0  0  0  0
  1  7  1  0  0  0  0
  2  1  2  0  0  0  0
  3  4  2  0  0  0  0
  3  2  1  0  0  0  0
  4  5  1  0  0  0  0
  5 11  1  0  0  0  0
  5  6  2  0  0  0  0
  8  3  1  0  0  0  0
 10 17  1  0  0  0  0
 10  9  1  0  0  0  0
 11 10  2  0  0  0  0
 12 14  2  0  0  0  0
 12 11  1  0  0  0  0
 13 12  1  0  0  0  0
 14 16  1  0  0  0  0
 15 14  1  0  0  0  0
 16 17  2  0  0  0  0
 18  2  1  0  0  0  0
 18 19  1  0  0  0  0
 20 18  1  0  0  0  0
 21 18  1  0  0  0  0
M  END
>  <minimizedAffinity>
-4.49109316

$$$$

 OpenBabel03252503423D

 21 22  0  0  0  0  0  0  0  0999 V2000
   37.3640   32.3180   40.3910 C   0  0  0  0  0  0  0  0  0  0  0  0
   38.6610   32.7870   40.5880 C   0  0  0  0  0  0  0  0  0  0  0  0
   39.5720   31.9370   41.2000 C   0  0  0  0  0  0  0  0  0  0  0  0
   39.1570   30.6930   41.5740 N   0  0  0  0  0  0  0  0  0  0  0  0
   37.8920   30.2850   41.3610 C   0  0  0  0  0  0  0  0  0  0  0  0
   36.9820   31.0850   40.7710 N   0  0  0  0  0  0  0  0  0  0  0  0
   36.6020   32.9270   39.9210 H   0  0  0  0  0  0  0  0  0  0  0  0
   40.5640   32.3180   41.3430 H   0  0  0  0  0  0  0  0  0  0  0  0
   37.7880   28.0280   39.6330 F   0  0  0  0  0  0  0  0  0  0  0  0
   37.5080   27.8470   40.9560 C   0  0  0  0  0  0  0  0  0  0  0  0
   37.5560   28.9360   41.8020 C   0  0  0  0  0  0  0  0  0  0  0  0
   37.2690   28.7270   43.1290 C   0  0  0  0  0  0  0  0  0  0  0  0
   37.2840   29.5110   43.8470 H   0  0  0  0  0  0  0  0  0  0  0  0
   36.9360   27.4690   43.6430 C   0  0  0  0  0  0  0  0  0  0  0  0
   36.7140   27.3360   44.7060 H   0  0  0  0  0  0  0  0  0  0  0  0
   36.8990   26.3950   42.7540 C   0  0  0  0  0  3  0  0  0  0  0  0
   37.1840   26.5800   41.4100 C   0  0  0  0  0  3  0  0  0  0  0  0
   38.9360   34.1590   40.1210 C   0  0  0  0  0  0  0  0  0  0  0  0
   38.7930   34.9270   40.9080 H   0  0  0  0  0  0  0  0  0  0  0  0
   38.4070   34.3780   39.1820 H   0  0  0  0  0  0  0  0  0  0  0  0
   40.0230   34.1960   39.8740 H   0  0  0  0  0  0  0  0  0  0  0  0
  1  2  2  0  0  0  0
  1  6  1  0  0  0  0
  2  3  1  0  0  0  0
  3  8  1  0  0  0  0
  3  4  2  0  0  0  0
  5  4  1  0  0  0  0
  5 11  1  0  0  0  0
  6  5  2  0  0  0  0
  7  1  1  0  0  0  0
  9 10  1  0  0  0  0
 10 17  2  0  0  0  0
 10 11  1  0  0  0  0
 11 12  2  0  0  0  0
 12 14  1  0  0  0  0
 12 13  1  0  0  0  0
 14 15  1  0  0  0  0
 16 14  2  0  0  0  0
 17 16  1  0  0  0  0
 18  2  1  0  0  0  0
 18 19  1  0  0  0  0
 20 18  1  0  0  0  0
 21 18  1  0  0  0  0
M  END
>  <minimizedAffinity>
-4.4368453

$$$$

 OpenBabel03252503423D

 21 22  0  0  0  0  0  0  0  0999 V2000
   37.5150   26.6710   40.7890 C   0  0  0  0  0  0  0  0  0  0  0  0
   37.0820   26.3110   42.0630 C   0  0  0  0  0  0  0  0  0  0  0  0
   36.9130   27.3210   43.0000 C   0  0  0  0  0  0  0  0  0  0  0  0
   37.1760   28.6070   42.6320 N   0  0  0  0  0  0  0  0  0  0  0  0
   37.5920   28.9050   41.3860 C   0  0  0  0  0  0  0  0  0  0  0  0
   37.7670   27.9490   40.4530 N   0  0  0  0  0  0  0  0  0  0  0  0
   37.6680   25.9360   40.0090 H   0  0  0  0  0  0  0  0  0  0  0  0
   36.5800   27.0210   43.9750 H   0  0  0  0  0  0  0  0  0  0  0  0
   35.7510   30.6100   40.0460 F   0  0  0  0  0  0  0  0  0  0  0  0
   36.9460   31.1320   40.4490 C   0  0  0  0  0  0  0  0  0  0  0  0
   37.8440   30.3130   41.1000 C   0  0  0  0  0  0  0  0  0  0  0  0
   39.0400   30.8630   41.4950 C   0  0  0  0  0  0  0  0  0  0  0  0
   39.7870   30.3020   42.0020 H   0  0  0  0  0  0  0  0  0  0  0  0
   39.3700   32.2020   41.2630 C   0  0  0  0  0  0  0  0  0  0  0  0
   40.3310   32.6100   41.5910 H   0  0  0  0  0  0  0  0  0  0  0  0
   38.4330   32.9960   40.6020 C   0  0  0  0  0  3  0  0  0  0  0  0
   37.2200   32.4650   40.1930 C   0  0  0  0  0  3  0  0  0  0  0  0
   36.8460   24.8720   42.2880 C   0  0  0  0  0  0  0  0  0  0  0  0
   37.7290   24.3420   42.6970 H   0  0  0  0  0  0  0  0  0  0  0  0
   36.4080   24.3920   41.4010 H   0  0  0  0  0  0  0  0  0  0  0  0
   36.0700   24.8010   43.0860 H   0  0  0  0  0  0  0  0  0  0  0  0
  1  2  1  0  0  0  0
  2 18  1  0  0  0  0
  2  3  2  0  0  0  0
  3  8  1  0  0  0  0
  4  3  1  0  0  0  0
  5  4  2  0  0  0  0
  6  1  2  0  0  0  0
  6  5  1  0  0  0  0
  7  1  1  0  0  0  0
  9 10  1  0  0  0  0
 10 11  1  0  0  0  0
 11  5  1  0  0  0  0
 11 12  2  0  0  0  0
 12 13  1  0  0  0  0
 14 12  1  0  0  0  0
 14 15  1  0  0  0  0
 16 14  2  0  0  0  0
 17 10  2  0  0  0  0
 17 16  1  0  0  0  0
 18 19  1  0  0  0  0
 18 21  1  0  0  0  0
 20 18  1  0  0  0  0
M  END
>  <minimizedAffinity>
-4.39384317

$$$$

 OpenBabel03252503423D

 21 22  0  0  0  0  0  0  0  0999 V2000
   38.1210   27.7420   40.5870 C   0  0  0  0  0  0  0  0  0  0  0  0
   37.4320   27.4010   41.7480 C   0  0  0  0  0  0  0  0  0  0  0  0
   36.9320   28.4310   42.5330 C   0  0  0  0  0  0  0  0  0  0  0  0
   37.1370   29.7190   42.1320 N   0  0  0  0  0  0  0  0  0  0  0  0
   37.8110   29.9980   41.0000 C   0  0  0  0  0  0  0  0  0  0  0  0
   38.3100   29.0220   40.2160 N   0  0  0  0  0  0  0  0  0  0  0  0
   38.5380   26.9910   39.9290 H   0  0  0  0  0  0  0  0  0  0  0  0
   36.4050   28.1470   43.4220 H   0  0  0  0  0  0  0  0  0  0  0  0
   39.8670   31.6540   42.0580 F   0  0  0  0  0  0  0  0  0  0  0  0
   38.9740   32.2040   41.1840 C   0  0  0  0  0  0  0  0  0  0  0  0
   37.9740   31.4080   40.6660 C   0  0  0  0  0  0  0  0  0  0  0  0
   37.0880   31.9860   39.7890 C   0  0  0  0  0  0  0  0  0  0  0  0
   36.2890   31.4440   39.3440 H   0  0  0  0  0  0  0  0  0  0  0  0
   37.1650   33.3310   39.4110 C   0  0  0  0  0  0  0  0  0  0  0  0
   36.4430   33.7610   38.7090 H   0  0  0  0  0  0  0  0  0  0  0  0
   38.1910   34.1000   39.9580 C   0  0  0  0  0  3  0  0  0  0  0  0
   39.0980   33.5410   40.8450 C   0  0  0  0  0  3  0  0  0  0  0  0
   37.3020   25.9580   42.0290 C   0  0  0  0  0  0  0  0  0  0  0  0
   38.1100   25.5640   42.6780 H   0  0  0  0  0  0  0  0  0  0  0  0
   37.1490   25.3810   41.1060 H   0  0  0  0  0  0  0  0  0  0  0  0
   36.3670   25.8360   42.6240 H   0  0  0  0  0  0  0  0  0  0  0  0
  1  2  1  0  0  0  0
  2 18  1  0  0  0  0
  2  3  2  0  0  0  0
  3  8  1  0  0  0  0
  4  3  1  0  0  0  0
  5  4  2  0  0  0  0
  6  1  2  0  0  0  0
  6  5  1  0  0  0  0
  7  1  1  0  0  0  0
 10  9  1  0  0  0  0
 11  5  1  0  0  0  0
 11 10  2  0  0  0  0
 12 11  1  0  0  0  0
 13 12  1  0  0  0  0
 14 12  2  0  0  0  0
 14 16  1  0  0  0  0
 15 14  1  0  0  0  0
 16 17  2  0  0  0  0
 17 10  1  0  0  0  0
 18 21  1  0  0  0  0
 18 19  1  0  0  0  0
 20 18  1  0  0  0  0
M  END
>  <minimizedAffinity>
-4.36417675

$$$$

 OpenBabel03252503423D

 21 22  0  0  0  0  0  0  0  0999 V2000
   38.0900   30.5130   39.5490 C   0  0  0  0  0  0  0  0  0  0  0  0
   37.1740   31.3610   40.1670 C   0  0  0  0  0  0  0  0  0  0  0  0
   36.1890   30.7860   40.9590 C   0  0  0  0  0  0  0  0  0  0  0  0
   36.1660   29.4290   41.0930 N   0  0  0  0  0  0  0  0  0  0  0  0
   37.0750   28.6520   40.4750 C   0  0  0  0  0  0  0  0  0  0  0  0
   38.0430   29.1770   39.6990 N   0  0  0  0  0  0  0  0  0  0  0  0
   38.8830   30.8930   38.9180 H   0  0  0  0  0  0  0  0  0  0  0  0
   35.4940   31.4570   41.4250 H   0  0  0  0  0  0  0  0  0  0  0  0
   36.3090   26.8050   38.4510 F   0  0  0  0  0  0  0  0  0  0  0  0
   36.5860   26.3250   39.6990 C   0  0  0  0  0  0  0  0  0  0  0  0
   36.9580   27.2130   40.6860 C   0  0  0  0  0  0  0  0  0  0  0  0
   37.2300   26.7040   41.9330 C   0  0  0  0  0  0  0  0  0  0  0  0
   37.5240   27.3190   42.7490 H   0  0  0  0  0  0  0  0  0  0  0  0
   37.1440   25.3400   42.2300 C   0  0  0  0  0  0  0  0  0  0  0  0
   37.3690   24.9670   43.2340 H   0  0  0  0  0  0  0  0  0  0  0  0
   36.7640   24.4770   41.2030 C   0  0  0  0  0  3  0  0  0  0  0  0
   36.4840   24.9650   39.9370 C   0  0  0  0  0  3  0  0  0  0  0  0
   37.3470   32.8050   39.9130 C   0  0  0  0  0  0  0  0  0  0  0  0
   36.7490   33.1730   39.0550 H   0  0  0  0  0  0  0  0  0  0  0  0
   38.4110   33.0800   39.8670 H   0  0  0  0  0  0  0  0  0  0  0  0
   36.9330   33.3330   40.8030 H   0  0  0  0  0  0  0  0  0  0  0  0
  1  6  2  0  0  0  0
  1  2  1  0  0  0  0
  2  3  2  0  0  0  0
  3  4  1  0  0  0  0
  3  8  1  0  0  0  0
  5 11  1  0  0  0  0
  5  4  2  0  0  0  0
  6  5  1  0  0  0  0
  7  1  1  0  0  0  0
  9 10  1  0  0  0  0
 10 17  2  0  0  0  0
 10 11  1  0  0  0  0
 11 12  2  0  0  0  0
 12 14  1  0  0  0  0
 12 13  1  0  0  0  0
 14 15  1  0  0  0  0
 16 14  2  0  0  0  0
 17 16  1  0  0  0  0
 18  2  1  0  0  0  0
 18 21  1  0  0  0  0
 19 18  1  0  0  0  0
 20 18  1  0  0  0  0
M  END
>  <minimizedAffinity>
-4.34858418

$$$$

 OpenBabel03252503423D

 21 22  0  0  0  0  0  0  0  0999 V2000
   40.2400   32.0390   39.5860 C   0  0  0  0  0  0  0  0  0  0  0  0
   40.0020   33.3090   40.1080 C   0  0  0  0  0  0  0  0  0  0  0  0
   38.6880   33.6600   40.3860 C   0  0  0  0  0  0  0  0  0  0  0  0
   37.7010   32.7530   40.1370 N   0  0  0  0  0  0  0  0  0  0  0  0
   37.9820   31.5370   39.6320 C   0  0  0  0  0  0  0  0  0  0  0  0
   39.2460   31.1640   39.3490 N   0  0  0  0  0  0  0  0  0  0  0  0
   41.2390   31.6990   39.3450 H   0  0  0  0  0  0  0  0  0  0  0  0
   38.5280   34.6410   40.7870 H   0  0  0  0  0  0  0  0  0  0  0  0
   36.3350   30.4960   41.7040 F   0  0  0  0  0  0  0  0  0  0  0  0
   36.0570   30.1460   40.4140 C   0  0  0  0  0  0  0  0  0  0  0  0
   36.8500   30.6460   39.4030 C   0  0  0  0  0  0  0  0  0  0  0  0
   36.5490   30.2770   38.1140 C   0  0  0  0  0  0  0  0  0  0  0  0
   37.1090   30.6180   37.2770 H   0  0  0  0  0  0  0  0  0  0  0  0
   35.4840   29.4270   37.7990 C   0  0  0  0  0  0  0  0  0  0  0  0
   35.2700   29.1530   36.7610 H   0  0  0  0  0  0  0  0  0  0  0  0
   34.7070   28.9440   38.8510 C   0  0  0  0  0  3  0  0  0  0  0  0
   34.9900   29.3000   40.1600 C   0  0  0  0  0  3  0  0  0  0  0  0
   41.1890   34.1610   40.3150 C   0  0  0  0  0  0  0  0  0  0  0  0
   41.4110   34.8190   39.4510 H   0  0  0  0  0  0  0  0  0  0  0  0
   42.0510   33.5740   40.6630 H   0  0  0  0  0  0  0  0  0  0  0  0
   40.9360   34.8560   41.1500 H   0  0  0  0  0  0  0  0  0  0  0  0
  1  2  1  0  0  0  0
  2 18  1  0  0  0  0
  2  3  2  0  0  0  0
  3  8  1  0  0  0  0
  4  3  1  0  0  0  0
  5  4  2  0  0  0  0
  6  1  2  0  0  0  0
  6  5  1  0  0  0  0
  7  1  1  0  0  0  0
 10  9  1  0  0  0  0
 11  5  1  0  0  0  0
 11 10  2  0  0  0  0
 12 11  1  0  0  0  0
 13 12  1  0  0  0  0
 14 12  2  0  0  0  0
 14 16  1  0  0  0  0
 15 14  1  0  0  0  0
 16 17  2  0  0  0  0
 17 10  1  0  0  0  0
 18 20  1  0  0  0  0
 18 21  1  0  0  0  0
 19 18  1  0  0  0  0
M  END
>  <minimizedAffinity>
-4.3189373

$$$$

 OpenBabel03252503423D

 21 22  0  0  0  0  0  0  0  0999 V2000
   36.9230   27.5020   42.6350 C   0  0  0  0  0  0  0  0  0  0  0  0
   37.2860   26.5040   41.7330 C   0  0  0  0  0  0  0  0  0  0  0  0
   37.8180   26.8950   40.5120 C   0  0  0  0  0  0  0  0  0  0  0  0
   37.9590   28.2270   40.2550 N   0  0  0  0  0  0  0  0  0  0  0  0
   37.5940   29.1540   41.1600 C   0  0  0  0  0  0  0  0  0  0  0  0
   37.0730   28.8100   42.3540 N   0  0  0  0  0  0  0  0  0  0  0  0
   36.5010   27.2700   43.6040 H   0  0  0  0  0  0  0  0  0  0  0  0
   38.0900   26.1110   39.8330 H   0  0  0  0  0  0  0  0  0  0  0  0
   39.5660   30.8530   42.3080 F   0  0  0  0  0  0  0  0  0  0  0  0
   38.7470   31.3660   41.3440 C   0  0  0  0  0  0  0  0  0  0  0  0
   37.7880   30.5500   40.7820 C   0  0  0  0  0  0  0  0  0  0  0  0
   36.9760   31.0910   39.8140 C   0  0  0  0  0  0  0  0  0  0  0  0
   36.2130   30.5310   39.3300 H   0  0  0  0  0  0  0  0  0  0  0  0
   37.0880   32.4180   39.3880 C   0  0  0  0  0  0  0  0  0  0  0  0
   36.4260   32.8190   38.6140 H   0  0  0  0  0  0  0  0  0  0  0  0
   38.0700   33.2090   39.9820 C   0  0  0  0  0  3  0  0  0  0  0  0
   38.9010   32.6880   40.9610 C   0  0  0  0  0  3  0  0  0  0  0  0
   37.0640   25.1140   42.1760 C   0  0  0  0  0  0  0  0  0  0  0  0
   36.0810   24.7070   41.8640 H   0  0  0  0  0  0  0  0  0  0  0  0
   37.2770   24.9940   43.2480 H   0  0  0  0  0  0  0  0  0  0  0  0
   37.8180   24.4890   41.6430 H   0  0  0  0  0  0  0  0  0  0  0  0
  1  7  1  0  0  0  0
  2 18  1  0  0  0  0
  2  1  2  0  0  0  0
  3  2  1  0  0  0  0
  4  3  2  0  0  0  0
  4  5  1  0  0  0  0
  5  6  2  0  0  0  0
  6  1  1  0  0  0  0
  8  3  1  0  0  0  0
 10  9  1  0  0  0  0
 11  5  1  0  0  0  0
 11 10  2  0  0  0  0
 12 11  1  0  0  0  0
 13 12  1  0  0  0  0
 14 12  2  0  0  0  0
 14 16  1  0  0  0  0
 15 14  1  0  0  0  0
 16 17  2  0  0  0  0
 17 10  1  0  0  0  0
 18 20  1  0  0  0  0
 19 18  1  0  0  0  0
 21 18  1  0  0  0  0
M  END
>  <minimizedAffinity>
-4.30877209

$$$$

 OpenBabel03252503423D

 21 22  0  0  0  0  0  0  0  0999 V2000
   40.6420   31.8170   40.1590 C   0  0  0  0  0  0  0  0  0  0  0  0
   39.9980   33.0390   39.9740 C   0  0  0  0  0  0  0  0  0  0  0  0
   38.6780   33.1460   40.3890 C   0  0  0  0  0  0  0  0  0  0  0  0
   38.0790   32.0590   40.9540 N   0  0  0  0  0  0  0  0  0  0  0  0
   38.7440   30.8990   41.1120 C   0  0  0  0  0  0  0  0  0  0  0  0
   40.0260   30.7600   40.7190 N   0  0  0  0  0  0  0  0  0  0  0  0
   41.6700   31.6630   39.8580 H   0  0  0  0  0  0  0  0  0  0  0  0
   38.2010   34.0940   40.2370 H   0  0  0  0  0  0  0  0  0  0  0  0
   36.6400   29.4790   39.8270 F   0  0  0  0  0  0  0  0  0  0  0  0
   36.9890   29.1180   41.0960 C   0  0  0  0  0  0  0  0  0  0  0  0
   38.0070   29.8000   41.7270 C   0  0  0  0  0  0  0  0  0  0  0  0
   38.3380   29.4170   43.0040 C   0  0  0  0  0  0  0  0  0  0  0  0
   39.1110   29.8890   43.5600 H   0  0  0  0  0  0  0  0  0  0  0  0
   37.6880   28.3750   43.6740 C   0  0  0  0  0  0  0  0  0  0  0  0
   37.9760   28.0940   44.6920 H   0  0  0  0  0  0  0  0  0  0  0  0
   36.6630   27.7110   43.0010 C   0  0  0  0  0  3  0  0  0  0  0  0
   36.3100   28.0790   41.7120 C   0  0  0  0  0  3  0  0  0  0  0  0
   40.7980   34.1080   39.3460 C   0  0  0  0  0  0  0  0  0  0  0  0
   40.6830   34.1520   38.2450 H   0  0  0  0  0  0  0  0  0  0  0  0
   41.8430   34.0810   39.6860 H   0  0  0  0  0  0  0  0  0  0  0  0
   40.3810   35.0730   39.7190 H   0  0  0  0  0  0  0  0  0  0  0  0
  1  6  1  0  0  0  0
  2  1  2  0  0  0  0
  2  3  1  0  0  0  0
  3  4  2  0  0  0  0
  4  5  1  0  0  0  0
  5 11  1  0  0  0  0
  6  5  2  0  0  0  0
  7  1  1  0  0  0  0
  8  3  1  0  0  0  0
  9 10  1  0  0  0  0
 10 17  2  0  0  0  0
 10 11  1  0  0  0  0
 11 12  2  0  0  0  0
 12 13  1  0  0  0  0
 12 14  1  0  0  0  0
 14 15  1  0  0  0  0
 16 14  2  0  0  0  0
 17 16  1  0  0  0  0
 18 20  1  0  0  0  0
 18 21  1  0  0  0  0
 18  2  1  0  0  0  0
 19 18  1  0  0  0  0
M  END
>  <minimizedAffinity>
-4.28496504

$$$$
