
 OpenBabel03242519223D

 34 36  0  0  0  0  0  0  0  0999 V2000
   49.6990   31.7890   42.4490 C   0  0  0  0  0  0  0  0  0  0  0  0
   50.8210   32.6190   42.2640 C   0  0  0  0  0  0  0  0  0  0  0  0
   50.7080   34.0030   42.4610 C   0  0  0  0  0  0  0  0  0  0  0  0
   49.4690   34.4660   42.8350 N   0  0  0  0  0  0  0  0  0  0  0  0
   48.4030   33.6400   43.0080 C   0  0  0  0  0  0  0  0  0  0  0  0
   48.5250   32.3250   42.8160 N   0  0  0  0  0  0  0  0  0  0  0  0
   51.8000   32.3400   41.9790 H   0  0  0  0  0  0  0  0  0  0  0  0
   51.5180   34.6960   42.3380 H   0  0  0  0  0  0  0  0  0  0  0  0
   49.9080   30.3460   42.2060 C   0  0  0  0  0  0  0  0  0  0  0  0
   49.6700   29.5230   43.4060 C   0  0  0  0  0  0  0  0  0  0  0  0
   50.9190   28.9150   43.9780 C   0  0  0  0  0  0  0  0  0  0  0  0
   51.6850   28.1030   42.9470 C   0  0  0  0  0  0  0  0  0  0  0  0
   51.7460   28.7590   41.5920 C   0  0  0  0  0  0  0  0  0  0  0  0
   51.3190   30.2010   41.6510 C   0  0  0  0  0  0  0  0  0  0  0  0
   49.2450   30.0580   41.3370 H   0  0  0  0  0  0  0  0  0  0  0  0
   49.1190   30.0050   44.2180 H   0  0  0  0  0  0  0  0  0  0  0  0
   49.0300   28.6520   43.0940 H   0  0  0  0  0  0  0  0  0  0  0  0
   50.6090   28.2250   44.7940 H   0  0  0  0  0  0  0  0  0  0  0  0
   51.6380   29.6050   44.4090 H   0  0  0  0  0  0  0  0  0  0  0  0
   51.2890   27.0590   42.8670 H   0  0  0  0  0  0  0  0  0  0  0  0
   52.7310   27.9760   43.2970 H   0  0  0  0  0  0  0  0  0  0  0  0
   50.9730   28.2280   40.9640 H   0  0  0  0  0  0  0  0  0  0  0  0
   52.6960   28.6760   41.0700 H   0  0  0  0  0  0  0  0  0  0  0  0
   51.3000   30.5900   40.6130 H   0  0  0  0  0  0  0  0  0  0  0  0
   52.0430   30.8050   42.2260 H   0  0  0  0  0  0  0  0  0  0  0  0
   47.0840   35.4530   41.3930 F   0  0  0  0  0  0  0  0  0  0  0  0
   46.4690   35.1070   42.5670 C   0  0  0  0  0  0  0  0  0  0  0  0
   47.1100   34.1920   43.4060 C   0  0  0  0  0  0  0  0  0  0  0  0
   46.5210   33.8220   44.5960 C   0  0  0  0  0  0  0  0  0  0  0  0
   46.9850   33.1150   45.2730 H   0  0  0  0  0  0  0  0  0  0  0  0
   45.2840   34.3880   44.9150 C   0  0  0  0  0  0  0  0  0  0  0  0
   44.8060   34.1140   45.8360 H   0  0  0  0  0  0  0  0  0  0  0  0
   44.6360   35.2940   44.0960 C   0  0  0  0  0  0  0  0  0  0  0  0
   45.2470   35.6500   42.9120 C   0  0  0  0  0  0  0  0  0  0  0  0
  1  6  1  0  0  0  0
  2  1  2  0  0  0  0
  2  3  1  0  0  0  0
  3  4  2  0  0  0  0
  4  5  1  0  0  0  0
  5 28  1  0  0  0  0
  6  5  2  0  0  0  0
  7  2  1  0  0  0  0
  8  3  1  0  0  0  0
  9  1  1  0  0  0  0
  9 10  1  0  0  0  0
 10 11  1  0  0  0  0
 10 16  1  0  0  0  0
 11 19  1  0  0  0  0
 11 18  1  0  0  0  0
 12 21  1  0  0  0  0
 12 11  1  0  0  0  0
 13 14  1  0  0  0  0
 13 12  1  0  0  0  0
 14  9  1  0  0  0  0
 14 25  1  0  0  0  0
 15  9  1  0  0  0  0
 17 10  1  0  0  0  0
 20 12  1  0  0  0  0
 22 13  1  0  0  0  0
 23 13  1  0  0  0  0
 24 14  1  0  0  0  0
 26 27  1  0  0  0  0
 27 34  2  0  0  0  0
 27 28  1  0  0  0  0
 28 29  2  0  0  0  0
 29 31  1  0  0  0  0
 29 30  1  0  0  0  0
 31 32  1  0  0  0  0
 33 31  2  0  0  0  0
 34 33  1  0  0  0  0
M  END
>  <minimizedAffinity>
-4.63844824

>  <minimizedRMSD>
6.6362133

$$$$
