
 OpenBabel03252504413D

 45 48  0  0  0  0  0  0  0  0999 V2000
   45.9410   32.3250   48.3290 C   0  0  0  0  0  0  0  0  0  0  0  0
   45.5500   31.4420   49.2930 C   0  0  0  0  0  0  0  0  0  0  0  0
   46.6350   30.7430   49.6230 N   0  0  0  0  0  0  0  0  0  0  0  0
   47.7100   31.1390   48.9130 C   0  0  0  0  0  0  0  0  0  0  0  0
   47.2520   32.1300   48.1070 N   0  0  0  0  0  0  0  0  0  0  0  0
   49.0520   30.6980   48.9170 N   0  0  0  0  0  0  0  0  0  0  0  0
   49.9860   31.3500   49.8520 C   0  0  0  0  0  0  0  0  0  0  0  0
   50.1850   30.3190   50.9610 C   0  0  0  0  0  0  0  0  0  0  0  0
   50.4760   28.9580   50.3780 C   0  0  0  0  0  0  0  0  0  0  0  0
   50.8730   29.0950   48.9240 C   0  0  0  0  0  0  0  0  0  0  0  0
   49.7090   29.6730   48.1340 C   0  0  0  0  0  0  0  0  0  0  0  0
   44.5450   31.3250   49.7150 H   0  0  0  0  0  0  0  0  0  0  0  0
   46.7380   29.9700   50.3280 H   0  0  0  0  0  0  0  0  0  0  0  0
   49.5390   32.2290   50.3380 H   0  0  0  0  0  0  0  0  0  0  0  0
   50.9470   31.6000   49.3710 H   0  0  0  0  0  0  0  0  0  0  0  0
   51.0730   30.6670   51.5390 H   0  0  0  0  0  0  0  0  0  0  0  0
   49.3440   30.3490   51.6540 H   0  0  0  0  0  0  0  0  0  0  0  0
   49.5840   28.3060   50.4900 H   0  0  0  0  0  0  0  0  0  0  0  0
   51.3550   28.5060   50.9080 H   0  0  0  0  0  0  0  0  0  0  0  0
   51.7320   29.7640   48.8470 H   0  0  0  0  0  0  0  0  0  0  0  0
   51.1350   28.1320   48.4870 H   0  0  0  0  0  0  0  0  0  0  0  0
   49.0270   28.8750   47.8060 H   0  0  0  0  0  0  0  0  0  0  0  0
   50.1060   30.1610   47.2190 H   0  0  0  0  0  0  0  0  0  0  0  0
   45.0820   33.3340   47.6330 C   0  0  0  0  0  0  0  0  0  0  0  0
   44.0400   32.9110   47.5810 H   0  0  0  0  0  0  0  0  0  0  0  0
   45.0150   34.2770   48.1810 H   0  0  0  0  0  0  0  0  0  0  0  0
   45.0710   34.5050   45.4730 C   0  0  0  0  0  0  0  0  0  0  0  0
   45.5160   33.5340   46.2410 C   0  0  0  0  0  0  0  0  0  0  0  0
   45.5880   34.5800   44.1060 C   0  0  0  0  0  0  0  0  0  0  0  0
   44.8520   35.2220   43.0700 C   0  0  0  0  0  0  0  0  0  0  0  0
   45.4120   35.2450   41.8090 C   0  0  0  0  0  0  0  0  0  0  0  0
   46.6100   34.6720   41.6030 N   0  0  0  0  0  0  0  0  0  0  0  0
   47.2930   34.0690   42.5940 C   0  0  0  0  0  0  0  0  0  0  0  0
   46.7950   34.0240   43.8150 N   0  0  0  0  0  0  0  0  0  0  0  0
   43.8990   35.6510   43.3430 H   0  0  0  0  0  0  0  0  0  0  0  0
   44.8250   35.7420   41.0440 H   0  0  0  0  0  0  0  0  0  0  0  0
   47.5140   31.7410   41.0640 F   0  0  0  0  0  0  0  0  0  0  0  0
   48.6680   32.3300   41.4790 C   0  0  0  0  0  0  0  0  0  0  0  0
   48.5840   33.4840   42.2400 C   0  0  0  0  0  0  0  0  0  0  0  0
   49.7460   34.0920   42.6680 C   0  0  0  0  0  0  0  0  0  0  0  0
   49.7330   34.9970   43.2640 H   0  0  0  0  0  0  0  0  0  0  0  0
   50.9500   33.5140   42.3150 C   0  0  0  0  0  0  0  0  0  0  0  0
   51.8430   34.0180   42.6690 H   0  0  0  0  0  0  0  0  0  0  0  0
   51.0220   32.3700   41.5620 C   0  0  0  0  0  0  0  0  0  0  0  0
   49.8770   31.7370   41.1170 C   0  0  0  0  0  0  0  0  0  0  0  0
  1  2  2  0  0  0  0
  2  3  1  0  0  0  0
  2 12  1  0  0  0  0
  3 13  1  0  0  0  0
  4  6  1  0  0  0  0
  4  3  1  0  0  0  0
  5  1  1  0  0  0  0
  5  4  2  0  0  0  0
  6  7  1  0  0  0  0
  7 14  1  0  0  0  0
  7  8  1  0  0  0  0
  8 16  1  0  0  0  0
  8 17  1  0  0  0  0
  9 18  1  0  0  0  0
  9 19  1  0  0  0  0
  9  8  1  0  0  0  0
 10  9  1  0  0  0  0
 11  6  1  0  0  0  0
 11 10  1  0  0  0  0
 15  7  1  0  0  0  0
 20 10  1  0  0  0  0
 21 10  1  0  0  0  0
 22 11  1  0  0  0  0
 23 11  1  0  0  0  0
 24 26  1  0  0  0  0
 24  1  1  0  0  0  0
 25 24  1  0  0  0  0
 27 28  2  0  0  0  0
 28 24  1  0  0  0  0
 29 27  1  0  0  0  0
 30 35  1  0  0  0  0
 30 29  2  0  0  0  0
 31 30  1  0  0  0  0
 32 31  2  0  0  0  0
 32 33  1  0  0  0  0
 33 34  2  0  0  0  0
 34 29  1  0  0  0  0
 36 31  1  0  0  0  0
 37 38  1  0  0  0  0
 38 39  1  0  0  0  0
 39 33  1  0  0  0  0
 39 40  2  0  0  0  0
 40 41  1  0  0  0  0
 42 40  1  0  0  0  0
 42 43  1  0  0  0  0
 44 42  2  0  0  0  0
 45 38  2  0  0  0  0
 45 44  1  0  0  0  0
M  END
>  <minimizedAffinity>
-6.98058796

>  <minimizedRMSD>
1.61555147

$$$$
