
 OpenBabel03252507073D

 24 25  0  0  0  0  0  0  0  0999 V2000
   44.7160   35.4080   45.0670 C   0  0  0  0  0  0  0  0  0  0  0  0
   45.2830   35.7090   43.8050 C   0  0  0  0  0  0  0  0  0  0  0  0
   46.1930   34.7910   43.2830 C   0  0  0  0  0  0  0  0  0  0  0  0
   46.4900   33.6740   43.9890 N   0  0  0  0  0  0  0  0  0  0  0  0
   45.9370   33.4140   45.1850 C   0  0  0  0  0  0  0  0  0  0  0  0
   45.0530   34.2700   45.7330 N   0  0  0  0  0  0  0  0  0  0  0  0
   44.0000   36.1220   45.4870 H   0  0  0  0  0  0  0  0  0  0  0  0
   45.0290   36.6040   43.2630 H   0  0  0  0  0  0  0  0  0  0  0  0
   47.4150   33.3980   47.6180 F   0  0  0  0  0  0  0  0  0  0  0  0
   47.0530   32.2060   47.0470 C   0  0  0  0  0  0  0  0  0  0  0  0
   46.3300   32.1810   45.8580 C   0  0  0  0  0  0  0  0  0  0  0  0
   45.9650   30.9800   45.2860 C   0  0  0  0  0  0  0  0  0  0  0  0
   45.4010   30.9270   44.3560 H   0  0  0  0  0  0  0  0  0  0  0  0
   46.3200   29.7800   45.8940 C   0  0  0  0  0  0  0  0  0  0  0  0
   46.0110   28.8470   45.4060 H   0  0  0  0  0  0  0  0  0  0  0  0
   47.0400   29.7830   47.0790 C   0  0  0  0  0  3  0  0  0  0  0  0
   47.4080   31.0020   47.6590 C   0  0  0  0  0  3  0  0  0  0  0  0
   46.7500   35.0900   42.0370 O   0  0  0  0  0  0  0  0  0  0  0  0
   48.4690   33.3100   41.1080 O   0  0  0  0  0  0  0  0  0  0  0  0
   48.3950   34.6950   41.7390 P   0  0  0  0  0  0  0  0  0  0  0  0
   49.0760   35.8690   40.7660 O   0  0  0  0  0  0  0  0  0  0  0  0
   49.9310   36.1350   41.1500 H   0  0  0  0  0  0  0  0  0  0  0  0
   49.1780   34.5940   43.2480 O   0  0  0  0  0  0  0  0  0  0  0  0
   49.3510   35.5550   43.4950 H   0  0  0  0  0  0  0  0  0  0  0  0
  1  7  1  0  0  0  0
  1  6  1  0  0  0  0
  2  1  2  0  0  0  0
  3  2  1  0  0  0  0
  3  4  2  0  0  0  0
  4  5  1  0  0  0  0
  5  6  2  0  0  0  0
  5 11  1  0  0  0  0
  8  2  1  0  0  0  0
 10  9  1  0  0  0  0
 10 17  1  0  0  0  0
 11 10  2  0  0  0  0
 12 11  1  0  0  0  0
 12 14  2  0  0  0  0
 13 12  1  0  0  0  0
 14 16  1  0  0  0  0
 15 14  1  0  0  0  0
 16 17  2  0  0  0  0
 18  3  1  0  0  0  0
 19 20  2  0  0  0  0
 20 18  1  0  0  0  0
 20 23  1  0  0  0  0
 21 22  1  0  0  0  0
 21 20  1  0  0  0  0
 23 24  1  0  0  0  0
M  END
>  <minimizedAffinity>
-5.21749544

>  <minimizedRMSD>
0.904318869

$$$$
