
 OpenBabel03242519593D

 28 30  0  0  0  0  0  0  0  0999 V2000
   38.4720   28.3120   39.2730 Br  0  0  0  0  0  0  0  0  0  0  0  0
   37.8320   27.9650   41.0490 C   0  0  0  0  0  0  0  0  0  0  0  0
   37.4610   26.7060   41.4760 C   0  0  0  0  0  0  0  0  0  0  0  0
   37.0170   26.5700   42.7670 C   0  0  0  0  0  0  0  0  0  0  0  0
   36.9250   27.6280   43.6490 C   0  0  0  0  0  0  0  0  0  0  0  0
   37.2920   28.8930   43.2330 C   0  0  0  0  0  0  0  0  0  0  0  0
   37.7380   29.0250   41.9390 C   0  0  0  0  0  0  0  0  0  0  0  0
   36.7340   25.5790   43.0780 H   0  0  0  0  0  0  0  0  0  0  0  0
   36.5700   27.4900   44.6630 H   0  0  0  0  0  0  0  0  0  0  0  0
   37.2330   29.7520   43.9010 H   0  0  0  0  0  0  0  0  0  0  0  0
   36.6310   24.1840   38.7720 C   0  0  0  0  0  0  0  0  0  0  0  0
   36.5050   25.2380   39.6920 C   0  0  0  0  0  0  0  0  0  0  0  0
   37.5740   25.6080   40.5090 C   0  0  0  0  0  0  0  0  0  0  0  0
   38.7220   24.8960   40.3610 N   0  0  0  0  0  0  0  0  0  0  0  0
   38.8280   23.8870   39.4730 C   0  0  0  0  0  0  0  0  0  0  0  0
   37.8020   23.5370   38.6940 N   0  0  0  0  0  0  0  0  0  0  0  0
   35.7620   23.9660   38.1840 H   0  0  0  0  0  0  0  0  0  0  0  0
   35.6130   25.8370   39.8500 H   0  0  0  0  0  0  0  0  0  0  0  0
   39.8070   23.4130   39.4700 H   0  0  0  0  0  0  0  0  0  0  0  0
   35.8360   30.5680   40.7390 F   0  0  0  0  0  0  0  0  0  0  0  0
   37.0870   31.0520   40.8800 C   0  0  0  0  0  0  0  0  0  0  0  0
   38.1360   30.3640   41.4710 C   0  0  0  0  0  0  0  0  0  0  0  0
   39.3970   30.9100   41.5870 C   0  0  0  0  0  0  0  0  0  0  0  0
   40.1530   30.2820   42.0710 H   0  0  0  0  0  0  0  0  0  0  0  0
   39.6340   32.1810   41.1040 C   0  0  0  0  0  0  0  0  0  0  0  0
   40.6460   32.5920   41.2100 H   0  0  0  0  0  0  0  0  0  0  0  0
   38.6150   32.9000   40.5090 C   0  0  0  0  0  3  0  0  0  0  0  0
   37.3500   32.3310   40.4000 C   0  0  0  0  0  3  0  0  0  0  0  0
  1  2  1  0  0  0  0
  2  3  2  0  0  0  0
  2  7  1  0  0  0  0
  3  4  1  0  0  0  0
  4  8  1  0  0  0  0
  4  5  2  0  0  0  0
  5  9  1  0  0  0  0
  6  5  1  0  0  0  0
  6 10  1  0  0  0  0
  7  6  2  0  0  0  0
 11 12  1  0  0  0  0
 12 18  1  0  0  0  0
 12 13  2  0  0  0  0
 13  3  1  0  0  0  0
 14 13  1  0  0  0  0
 15 14  2  0  0  0  0
 16 11  2  0  0  0  0
 16 15  1  0  0  0  0
 17 11  1  0  0  0  0
 19 15  1  0  0  0  0
 20 21  1  0  0  0  0
 21 22  1  0  0  0  0
 22 23  2  0  0  0  0
 22  7  1  0  0  0  0
 23 24  1  0  0  0  0
 25 26  1  0  0  0  0
 25 23  1  0  0  0  0
 27 25  2  0  0  0  0
 28 27  1  0  0  0  0
 28 21  2  0  0  0  0
M  END
>  <minimizedAffinity>
-5.29249525

$$$$

 OpenBabel03242519593D

 28 30  0  0  0  0  0  0  0  0999 V2000
   37.5550   27.0970   39.4840 Br  0  0  0  0  0  0  0  0  0  0  0  0
   38.3910   27.0160   41.2090 C   0  0  0  0  0  0  0  0  0  0  0  0
   38.5460   28.1250   42.0160 C   0  0  0  0  0  0  0  0  0  0  0  0
   39.1580   27.9540   43.2330 C   0  0  0  0  0  0  0  0  0  0  0  0
   39.6220   26.7330   43.6790 C   0  0  0  0  0  0  0  0  0  0  0  0
   39.4730   25.6160   42.8790 C   0  0  0  0  0  0  0  0  0  0  0  0
   38.8580   25.7910   41.6630 C   0  0  0  0  0  0  0  0  0  0  0  0
   39.2680   28.8330   43.8450 H   0  0  0  0  0  0  0  0  0  0  0  0
   40.1020   26.6290   44.6440 H   0  0  0  0  0  0  0  0  0  0  0  0
   39.8270   24.6360   43.1980 H   0  0  0  0  0  0  0  0  0  0  0  0
   38.3870   31.5750   40.4590 C   0  0  0  0  0  0  0  0  0  0  0  0
   38.8890   30.3560   40.9420 C   0  0  0  0  0  0  0  0  0  0  0  0
   38.0400   29.4040   41.5060 C   0  0  0  0  0  0  0  0  0  0  0  0
   36.7200   29.7260   41.5570 N   0  0  0  0  0  0  0  0  0  0  0  0
   36.2530   30.9000   41.0890 C   0  0  0  0  0  0  0  0  0  0  0  0
   37.0700   31.8080   40.5500 N   0  0  0  0  0  0  0  0  0  0  0  0
   39.1080   32.2490   40.0410 H   0  0  0  0  0  0  0  0  0  0  0  0
   39.9310   30.0500   40.9250 H   0  0  0  0  0  0  0  0  0  0  0  0
   35.1770   31.0140   41.1990 H   0  0  0  0  0  0  0  0  0  0  0  0
   36.6080   24.2850   41.9890 F   0  0  0  0  0  0  0  0  0  0  0  0
   37.5090   23.9310   41.0500 C   0  0  0  0  0  0  0  0  0  0  0  0
   38.6870   24.6150   40.7910 C   0  0  0  0  0  0  0  0  0  0  0  0
   39.5740   24.2060   39.8170 C   0  0  0  0  0  0  0  0  0  0  0  0
   40.4730   24.8190   39.6950 H   0  0  0  0  0  0  0  0  0  0  0  0
   39.2900   23.0820   39.0690 C   0  0  0  0  0  0  0  0  0  0  0  0
   40.0110   22.7780   38.3000 H   0  0  0  0  0  0  0  0  0  0  0  0
   38.1260   22.3720   39.2960 C   0  0  0  0  0  3  0  0  0  0  0  0
   37.2450   22.7990   40.2840 C   0  0  0  0  0  3  0  0  0  0  0  0
  1  2  1  0  0  0  0
  2  7  2  0  0  0  0
  2  3  1  0  0  0  0
  3  4  2  0  0  0  0
  4  5  1  0  0  0  0
  4  8  1  0  0  0  0
  5  9  1  0  0  0  0
  6 10  1  0  0  0  0
  6  5  2  0  0  0  0
  7  6  1  0  0  0  0
 11 16  2  0  0  0  0
 11 12  1  0  0  0  0
 12 13  2  0  0  0  0
 13 14  1  0  0  0  0
 13  3  1  0  0  0  0
 15 19  1  0  0  0  0
 15 14  2  0  0  0  0
 16 15  1  0  0  0  0
 17 11  1  0  0  0  0
 18 12  1  0  0  0  0
 21 20  1  0  0  0  0
 22 21  1  0  0  0  0
 22  7  1  0  0  0  0
 23 22  2  0  0  0  0
 24 23  1  0  0  0  0
 25 27  2  0  0  0  0
 25 23  1  0  0  0  0
 26 25  1  0  0  0  0
 27 28  1  0  0  0  0
 28 21  2  0  0  0  0
M  END
>  <minimizedAffinity>
-5.2681694

$$$$

 OpenBabel03242519593D

 28 30  0  0  0  0  0  0  0  0999 V2000
   40.4760   29.1740   40.1590 Br  0  0  0  0  0  0  0  0  0  0  0  0
   39.1900   30.5950   40.0600 C   0  0  0  0  0  0  0  0  0  0  0  0
   39.4360   31.7790   39.3950 C   0  0  0  0  0  0  0  0  0  0  0  0
   38.4460   32.7290   39.3860 C   0  0  0  0  0  0  0  0  0  0  0  0
   37.2260   32.5530   40.0090 C   0  0  0  0  0  0  0  0  0  0  0  0
   36.9690   31.3720   40.6780 C   0  0  0  0  0  0  0  0  0  0  0  0
   37.9630   30.4230   40.6830 C   0  0  0  0  0  0  0  0  0  0  0  0
   38.6600   33.6440   38.8610 H   0  0  0  0  0  0  0  0  0  0  0  0
   36.4630   33.3220   39.9850 H   0  0  0  0  0  0  0  0  0  0  0  0
   36.0180   31.1980   41.1810 H   0  0  0  0  0  0  0  0  0  0  0  0
   43.0700   32.6500   38.7640 C   0  0  0  0  0  0  0  0  0  0  0  0
   41.8250   32.5160   39.4010 C   0  0  0  0  0  0  0  0  0  0  0  0
   40.7430   31.9270   38.7460 C   0  0  0  0  0  0  0  0  0  0  0  0
   40.9680   31.4980   37.4760 N   0  0  0  0  0  0  0  0  0  0  0  0
   42.1690   31.6320   36.8770 C   0  0  0  0  0  0  0  0  0  0  0  0
   43.1990   32.1980   37.5090 N   0  0  0  0  0  0  0  0  0  0  0  0
   43.8460   33.1140   39.3400 H   0  0  0  0  0  0  0  0  0  0  0  0
   41.5930   32.8410   40.4110 H   0  0  0  0  0  0  0  0  0  0  0  0
   42.1940   31.2420   35.8630 H   0  0  0  0  0  0  0  0  0  0  0  0
   38.7530   30.2450   43.2880 F   0  0  0  0  0  0  0  0  0  0  0  0
   38.1570   29.1850   42.7040 C   0  0  0  0  0  0  0  0  0  0  0  0
   37.7130   29.1550   41.3910 C   0  0  0  0  0  0  0  0  0  0  0  0
   37.1100   28.0410   40.8460 C   0  0  0  0  0  0  0  0  0  0  0  0
   36.7970   28.1230   39.8000 H   0  0  0  0  0  0  0  0  0  0  0  0
   36.9370   26.9140   41.6240 C   0  0  0  0  0  0  0  0  0  0  0  0
   36.4530   26.0410   41.1670 H   0  0  0  0  0  0  0  0  0  0  0  0
   37.3650   26.9030   42.9380 C   0  0  0  0  0  3  0  0  0  0  0  0
   37.9720   28.0370   43.4690 C   0  0  0  0  0  3  0  0  0  0  0  0
  2  1  1  0  0  0  0
  2  7  1  0  0  0  0
  3  2  2  0  0  0  0
  4  3  1  0  0  0  0
  4  5  2  0  0  0  0
  5  6  1  0  0  0  0
  6  7  2  0  0  0  0
  6 10  1  0  0  0  0
  7 22  1  0  0  0  0
  8  4  1  0  0  0  0
  9  5  1  0  0  0  0
 11 17  1  0  0  0  0
 11 12  1  0  0  0  0
 12 18  1  0  0  0  0
 13  3  1  0  0  0  0
 13 12  2  0  0  0  0
 14 13  1  0  0  0  0
 15 14  2  0  0  0  0
 15 16  1  0  0  0  0
 16 11  2  0  0  0  0
 19 15  1  0  0  0  0
 21 20  1  0  0  0  0
 21 28  1  0  0  0  0
 22 21  2  0  0  0  0
 23 22  1  0  0  0  0
 23 25  2  0  0  0  0
 24 23  1  0  0  0  0
 25 27  1  0  0  0  0
 26 25  1  0  0  0  0
 27 28  2  0  0  0  0
M  END
>  <minimizedAffinity>
-5.21300602

$$$$

 OpenBabel03242519593D

 28 30  0  0  0  0  0  0  0  0999 V2000
   37.9350   27.3350   39.0430 Br  0  0  0  0  0  0  0  0  0  0  0  0
   37.5540   27.6060   40.9050 C   0  0  0  0  0  0  0  0  0  0  0  0
   37.5260   28.8580   41.4850 C   0  0  0  0  0  0  0  0  0  0  0  0
   37.2430   28.9380   42.8260 C   0  0  0  0  0  0  0  0  0  0  0  0
   36.9890   27.8310   43.6110 C   0  0  0  0  0  0  0  0  0  0  0  0
   37.0150   26.5730   43.0400 C   0  0  0  0  0  0  0  0  0  0  0  0
   37.2980   26.4970   41.6970 C   0  0  0  0  0  0  0  0  0  0  0  0
   37.2250   29.9240   43.2570 H   0  0  0  0  0  0  0  0  0  0  0  0
   36.7690   27.9250   44.6670 H   0  0  0  0  0  0  0  0  0  0  0  0
   36.8190   25.6770   43.6280 H   0  0  0  0  0  0  0  0  0  0  0  0
   37.0550   31.8350   39.1900 C   0  0  0  0  0  0  0  0  0  0  0  0
   36.7730   30.7360   40.0170 C   0  0  0  0  0  0  0  0  0  0  0  0
   37.8010   30.0080   40.6180 C   0  0  0  0  0  0  0  0  0  0  0  0
   39.0680   30.4240   40.3560 N   0  0  0  0  0  0  0  0  0  0  0  0
   39.3230   31.4820   39.5600 C   0  0  0  0  0  0  0  0  0  0  0  0
   38.3360   32.1740   38.9880 N   0  0  0  0  0  0  0  0  0  0  0  0
   36.2070   32.3380   38.7690 H   0  0  0  0  0  0  0  0  0  0  0  0
   35.7820   30.3630   40.2580 H   0  0  0  0  0  0  0  0  0  0  0  0
   40.3840   31.6930   39.4460 H   0  0  0  0  0  0  0  0  0  0  0  0
   39.6310   25.0910   41.8250 F   0  0  0  0  0  0  0  0  0  0  0  0
   38.5670   24.5500   41.1960 C   0  0  0  0  0  0  0  0  0  0  0  0
   37.3320   25.1670   41.0650 C   0  0  0  0  0  0  0  0  0  0  0  0
   36.2780   24.5660   40.4090 C   0  0  0  0  0  0  0  0  0  0  0  0
   35.3470   25.1390   40.3640 H   0  0  0  0  0  0  0  0  0  0  0  0
   36.4470   23.3100   39.8610 C   0  0  0  0  0  0  0  0  0  0  0  0
   35.5930   22.8540   39.3440 H   0  0  0  0  0  0  0  0  0  0  0  0
   37.6630   22.6620   39.9690 C   0  0  0  0  0  3  0  0  0  0  0  0
   38.7140   23.2850   40.6340 C   0  0  0  0  0  3  0  0  0  0  0  0
  1  2  1  0  0  0  0
  2  3  2  0  0  0  0
  2  7  1  0  0  0  0
  3  4  1  0  0  0  0
  4  8  1  0  0  0  0
  4  5  2  0  0  0  0
  5  9  1  0  0  0  0
  6  5  1  0  0  0  0
  6 10  1  0  0  0  0
  7  6  2  0  0  0  0
 11 12  1  0  0  0  0
 12 18  1  0  0  0  0
 12 13  2  0  0  0  0
 13  3  1  0  0  0  0
 14 13  1  0  0  0  0
 15 14  2  0  0  0  0
 16 11  2  0  0  0  0
 16 15  1  0  0  0  0
 17 11  1  0  0  0  0
 19 15  1  0  0  0  0
 21 20  1  0  0  0  0
 22 21  1  0  0  0  0
 22  7  1  0  0  0  0
 23 22  2  0  0  0  0
 24 23  1  0  0  0  0
 25 27  2  0  0  0  0
 25 23  1  0  0  0  0
 26 25  1  0  0  0  0
 27 28  1  0  0  0  0
 28 21  2  0  0  0  0
M  END
>  <minimizedAffinity>
-5.21025801

$$$$

 OpenBabel03242519593D

 28 30  0  0  0  0  0  0  0  0999 V2000
   39.3760   29.5070   41.1430 Br  0  0  0  0  0  0  0  0  0  0  0  0
   37.9670   29.5580   39.8410 C   0  0  0  0  0  0  0  0  0  0  0  0
   37.6630   30.6930   39.1170 C   0  0  0  0  0  0  0  0  0  0  0  0
   36.6350   30.6200   38.2100 C   0  0  0  0  0  0  0  0  0  0  0  0
   35.9000   29.4720   37.9930 C   0  0  0  0  0  0  0  0  0  0  0  0
   36.1960   28.3300   38.7130 C   0  0  0  0  0  0  0  0  0  0  0  0
   37.2260   28.4070   39.6190 C   0  0  0  0  0  0  0  0  0  0  0  0
   36.4150   31.5170   37.6570 H   0  0  0  0  0  0  0  0  0  0  0  0
   35.0930   29.4450   37.2710 H   0  0  0  0  0  0  0  0  0  0  0  0
   35.6370   27.4060   38.5690 H   0  0  0  0  0  0  0  0  0  0  0  0
   38.8160   34.0340   40.4840 C   0  0  0  0  0  0  0  0  0  0  0  0
   38.0330   32.8920   40.2480 C   0  0  0  0  0  0  0  0  0  0  0  0
   38.4660   31.8930   39.3760 C   0  0  0  0  0  0  0  0  0  0  0  0
   39.6720   32.0920   38.7810 N   0  0  0  0  0  0  0  0  0  0  0  0
   40.4130   33.1930   39.0180 C   0  0  0  0  0  0  0  0  0  0  0  0
   39.9930   34.1460   39.8520 N   0  0  0  0  0  0  0  0  0  0  0  0
   38.4080   34.7520   41.1670 H   0  0  0  0  0  0  0  0  0  0  0  0
   37.0650   32.6850   40.6960 H   0  0  0  0  0  0  0  0  0  0  0  0
   41.3520   33.2100   38.4700 H   0  0  0  0  0  0  0  0  0  0  0  0
   36.0200   28.0890   42.0440 F   0  0  0  0  0  0  0  0  0  0  0  0
   36.8880   27.1520   41.6090 C   0  0  0  0  0  0  0  0  0  0  0  0
   37.5610   27.2030   40.3990 C   0  0  0  0  0  0  0  0  0  0  0  0
   38.4400   26.2150   40.0060 C   0  0  0  0  0  0  0  0  0  0  0  0
   38.9180   26.3530   39.0310 H   0  0  0  0  0  0  0  0  0  0  0  0
   38.6630   25.1350   40.8370 C   0  0  0  0  0  0  0  0  0  0  0  0
   39.3660   24.3620   40.5000 H   0  0  0  0  0  0  0  0  0  0  0  0
   38.0110   25.0470   42.0520 C   0  0  0  0  0  3  0  0  0  0  0  0
   37.1290   26.0540   42.4310 C   0  0  0  0  0  3  0  0  0  0  0  0
  2  1  1  0  0  0  0
  3 13  1  0  0  0  0
  3  2  2  0  0  0  0
  4  3  1  0  0  0  0
  5  4  2  0  0  0  0
  5  6  1  0  0  0  0
  6  7  2  0  0  0  0
  7  2  1  0  0  0  0
  7 22  1  0  0  0  0
  8  4  1  0  0  0  0
  9  5  1  0  0  0  0
 10  6  1  0  0  0  0
 11 17  1  0  0  0  0
 12 11  1  0  0  0  0
 12 18  1  0  0  0  0
 13 12  2  0  0  0  0
 14 15  2  0  0  0  0
 14 13  1  0  0  0  0
 15 16  1  0  0  0  0
 16 11  2  0  0  0  0
 19 15  1  0  0  0  0
 21 20  1  0  0  0  0
 21 28  1  0  0  0  0
 22 21  2  0  0  0  0
 23 22  1  0  0  0  0
 23 25  2  0  0  0  0
 24 23  1  0  0  0  0
 25 27  1  0  0  0  0
 26 25  1  0  0  0  0
 27 28  2  0  0  0  0
M  END
>  <minimizedAffinity>
-5.20990753

$$$$

 OpenBabel03242519593D

 28 30  0  0  0  0  0  0  0  0999 V2000
   40.4580   29.5230   40.6050 Br  0  0  0  0  0  0  0  0  0  0  0  0
   39.0650   30.8030   40.2800 C   0  0  0  0  0  0  0  0  0  0  0  0
   39.2540   31.9310   39.5070 C   0  0  0  0  0  0  0  0  0  0  0  0
   38.1890   32.7810   39.3390 C   0  0  0  0  0  0  0  0  0  0  0  0
   36.9490   32.5580   39.9050 C   0  0  0  0  0  0  0  0  0  0  0  0
   36.7490   31.4330   40.6810 C   0  0  0  0  0  0  0  0  0  0  0  0
   37.8180   30.5840   40.8460 C   0  0  0  0  0  0  0  0  0  0  0  0
   38.3600   33.6530   38.7320 H   0  0  0  0  0  0  0  0  0  0  0  0
   36.1280   33.2480   39.7550 H   0  0  0  0  0  0  0  0  0  0  0  0
   35.7850   31.2240   41.1440 H   0  0  0  0  0  0  0  0  0  0  0  0
   42.1660   31.9170   37.0830 C   0  0  0  0  0  0  0  0  0  0  0  0
   40.8860   31.7170   37.6260 C   0  0  0  0  0  0  0  0  0  0  0  0
   40.5850   32.1310   38.9230 C   0  0  0  0  0  0  0  0  0  0  0  0
   41.5900   32.7310   39.6150 N   0  0  0  0  0  0  0  0  0  0  0  0
   42.8130   32.9170   39.0800 C   0  0  0  0  0  0  0  0  0  0  0  0
   43.0960   32.5180   37.8380 N   0  0  0  0  0  0  0  0  0  0  0  0
   42.3120   31.5680   36.0800 H   0  0  0  0  0  0  0  0  0  0  0  0
   40.0500   31.2440   37.1180 H   0  0  0  0  0  0  0  0  0  0  0  0
   43.5100   33.4100   39.7530 H   0  0  0  0  0  0  0  0  0  0  0  0
   36.9060   28.3310   39.6070 F   0  0  0  0  0  0  0  0  0  0  0  0
   37.1640   28.2990   40.9310 C   0  0  0  0  0  0  0  0  0  0  0  0
   37.6290   29.3770   41.6690 C   0  0  0  0  0  0  0  0  0  0  0  0
   37.8750   29.2860   43.0240 C   0  0  0  0  0  0  0  0  0  0  0  0
   38.2410   30.1960   43.5100 H   0  0  0  0  0  0  0  0  0  0  0  0
   37.6550   28.0890   43.6750 C   0  0  0  0  0  0  0  0  0  0  0  0
   37.8600   28.0430   44.7520 H   0  0  0  0  0  0  0  0  0  0  0  0
   37.1920   26.9910   42.9750 C   0  0  0  0  0  3  0  0  0  0  0  0
   36.9490   27.1030   41.6100 C   0  0  0  0  0  3  0  0  0  0  0  0
  2  1  1  0  0  0  0
  2  7  1  0  0  0  0
  3  2  2  0  0  0  0
  4  3  1  0  0  0  0
  4  5  2  0  0  0  0
  5  6  1  0  0  0  0
  6  7  2  0  0  0  0
  6 10  1  0  0  0  0
  7 22  1  0  0  0  0
  8  4  1  0  0  0  0
  9  5  1  0  0  0  0
 11 12  2  0  0  0  0
 11 16  1  0  0  0  0
 12 13  1  0  0  0  0
 13  3  1  0  0  0  0
 13 14  2  0  0  0  0
 15 14  1  0  0  0  0
 15 19  1  0  0  0  0
 16 15  2  0  0  0  0
 17 11  1  0  0  0  0
 18 12  1  0  0  0  0
 20 21  1  0  0  0  0
 21 28  2  0  0  0  0
 21 22  1  0  0  0  0
 22 23  2  0  0  0  0
 23 24  1  0  0  0  0
 23 25  1  0  0  0  0
 25 26  1  0  0  0  0
 27 25  2  0  0  0  0
 28 27  1  0  0  0  0
M  END
>  <minimizedAffinity>
-5.19641924

$$$$

 OpenBabel03242519593D

 28 30  0  0  0  0  0  0  0  0999 V2000
   39.1960   29.3550   40.3220 Br  0  0  0  0  0  0  0  0  0  0  0  0
   38.8730   31.2460   40.2500 C   0  0  0  0  0  0  0  0  0  0  0  0
   39.7960   32.1760   40.6830 C   0  0  0  0  0  0  0  0  0  0  0  0
   39.4620   33.5050   40.5870 C   0  0  0  0  0  0  0  0  0  0  0  0
   38.2560   33.9450   40.0800 C   0  0  0  0  0  0  0  0  0  0  0  0
   37.3250   33.0220   39.6440 C   0  0  0  0  0  0  0  0  0  0  0  0
   37.6630   31.6930   39.7420 C   0  0  0  0  0  0  0  0  0  0  0  0
   40.1970   34.2120   40.9300 H   0  0  0  0  0  0  0  0  0  0  0  0
   38.0210   35.0000   40.0160 H   0  0  0  0  0  0  0  0  0  0  0  0
   36.3620   33.3320   39.2380 H   0  0  0  0  0  0  0  0  0  0  0  0
   42.4460   30.8740   43.0570 C   0  0  0  0  0  0  0  0  0  0  0  0
   41.2240   31.3590   42.5660 C   0  0  0  0  0  0  0  0  0  0  0  0
   41.0650   31.6690   41.2150 C   0  0  0  0  0  0  0  0  0  0  0  0
   42.1510   31.4750   40.4200 N   0  0  0  0  0  0  0  0  0  0  0  0
   43.3180   31.0080   40.9060 C   0  0  0  0  0  0  0  0  0  0  0  0
   43.4640   30.7140   42.1990 N   0  0  0  0  0  0  0  0  0  0  0  0
   42.4810   30.6610   44.1070 H   0  0  0  0  0  0  0  0  0  0  0  0
   40.3280   31.5320   43.1560 H   0  0  0  0  0  0  0  0  0  0  0  0
   44.0930   30.9060   40.1490 H   0  0  0  0  0  0  0  0  0  0  0  0
   35.9290   30.6750   41.5840 F   0  0  0  0  0  0  0  0  0  0  0  0
   35.8620   30.2470   40.3060 C   0  0  0  0  0  0  0  0  0  0  0  0
   36.6870   30.6890   39.2830 C   0  0  0  0  0  0  0  0  0  0  0  0
   36.5730   30.2150   37.9930 C   0  0  0  0  0  0  0  0  0  0  0  0
   37.2740   30.6310   37.2620 H   0  0  0  0  0  0  0  0  0  0  0  0
   35.6110   29.2710   37.6990 C   0  0  0  0  0  0  0  0  0  0  0  0
   35.5400   28.9110   36.6640 H   0  0  0  0  0  0  0  0  0  0  0  0
   34.7680   28.8050   38.6900 C   0  0  0  0  0  3  0  0  0  0  0  0
   34.8990   29.2940   39.9860 C   0  0  0  0  0  3  0  0  0  0  0  0
  2  1  1  0  0  0  0
  2  3  1  0  0  0  0
  3 13  1  0  0  0  0
  4  3  2  0  0  0  0
  4  8  1  0  0  0  0
  5  4  1  0  0  0  0
  6  7  1  0  0  0  0
  6  5  2  0  0  0  0
  7  2  2  0  0  0  0
  9  5  1  0  0  0  0
 10  6  1  0  0  0  0
 11 17  1  0  0  0  0
 12 11  1  0  0  0  0
 12 18  1  0  0  0  0
 13 12  2  0  0  0  0
 14 15  2  0  0  0  0
 14 13  1  0  0  0  0
 15 16  1  0  0  0  0
 16 11  2  0  0  0  0
 19 15  1  0  0  0  0
 21 20  1  0  0  0  0
 22  7  1  0  0  0  0
 22 21  2  0  0  0  0
 23 22  1  0  0  0  0
 24 23  1  0  0  0  0
 25 23  2  0  0  0  0
 25 27  1  0  0  0  0
 26 25  1  0  0  0  0
 27 28  2  0  0  0  0
 28 21  1  0  0  0  0
M  END
>  <minimizedAffinity>
-5.17872667

$$$$

 OpenBabel03242519593D

 28 30  0  0  0  0  0  0  0  0999 V2000
   39.7480   27.8350   40.6230 Br  0  0  0  0  0  0  0  0  0  0  0  0
   38.1720   28.9290   40.6830 C   0  0  0  0  0  0  0  0  0  0  0  0
   38.2200   30.3070   40.6440 C   0  0  0  0  0  0  0  0  0  0  0  0
   37.0310   30.9930   40.6930 C   0  0  0  0  0  0  0  0  0  0  0  0
   35.8030   30.3690   40.7780 C   0  0  0  0  0  0  0  0  0  0  0  0
   35.7430   28.9890   40.8180 C   0  0  0  0  0  0  0  0  0  0  0  0
   36.9360   28.3060   40.7680 C   0  0  0  0  0  0  0  0  0  0  0  0
   37.0930   32.0670   40.6610 H   0  0  0  0  0  0  0  0  0  0  0  0
   34.8810   30.9370   40.8150 H   0  0  0  0  0  0  0  0  0  0  0  0
   34.7920   28.4620   40.8840 H   0  0  0  0  0  0  0  0  0  0  0  0
   41.3980   31.8340   39.2560 C   0  0  0  0  0  0  0  0  0  0  0  0
   40.1300   31.2350   39.3240 C   0  0  0  0  0  0  0  0  0  0  0  0
   39.5430   30.9330   40.5540 C   0  0  0  0  0  0  0  0  0  0  0  0
   40.2650   31.2510   41.6610 N   0  0  0  0  0  0  0  0  0  0  0  0
   41.4810   31.8270   41.5800 C   0  0  0  0  0  0  0  0  0  0  0  0
   42.0370   32.1130   40.4010 N   0  0  0  0  0  0  0  0  0  0  0  0
   41.7730   32.0310   38.2720 H   0  0  0  0  0  0  0  0  0  0  0  0
   39.5130   30.9610   38.4730 H   0  0  0  0  0  0  0  0  0  0  0  0
   41.9340   32.0210   42.5490 H   0  0  0  0  0  0  0  0  0  0  0  0
   37.1170   27.0990   43.2060 F   0  0  0  0  0  0  0  0  0  0  0  0
   36.9980   26.3380   42.0990 C   0  0  0  0  0  0  0  0  0  0  0  0
   36.8990   26.8340   40.8090 C   0  0  0  0  0  0  0  0  0  0  0  0
   36.7800   26.0060   39.7120 C   0  0  0  0  0  0  0  0  0  0  0  0
   36.7070   26.5020   38.7380 H   0  0  0  0  0  0  0  0  0  0  0  0
   36.7580   24.6380   39.8930 C   0  0  0  0  0  0  0  0  0  0  0  0
   36.6610   24.0020   39.0040 H   0  0  0  0  0  0  0  0  0  0  0  0
   36.8540   24.1030   41.1640 C   0  0  0  0  0  3  0  0  0  0  0  0
   36.9750   24.9550   42.2570 C   0  0  0  0  0  3  0  0  0  0  0  0
  1  2  1  0  0  0  0
  2  7  1  0  0  0  0
  3  2  2  0  0  0  0
  3  4  1  0  0  0  0
  4  5  2  0  0  0  0
  5  9  1  0  0  0  0
  5  6  1  0  0  0  0
  6 10  1  0  0  0  0
  7 22  1  0  0  0  0
  7  6  2  0  0  0  0
  8  4  1  0  0  0  0
 11 12  2  0  0  0  0
 11 16  1  0  0  0  0
 12 13  1  0  0  0  0
 13  3  1  0  0  0  0
 13 14  2  0  0  0  0
 15 14  1  0  0  0  0
 15 19  1  0  0  0  0
 16 15  2  0  0  0  0
 17 11  1  0  0  0  0
 18 12  1  0  0  0  0
 21 28  1  0  0  0  0
 21 20  1  0  0  0  0
 22 21  2  0  0  0  0
 23 25  2  0  0  0  0
 23 22  1  0  0  0  0
 24 23  1  0  0  0  0
 25 27  1  0  0  0  0
 26 25  1  0  0  0  0
 27 28  2  0  0  0  0
M  END
>  <minimizedAffinity>
-5.16009235

$$$$

 OpenBabel03242519593D

 28 30  0  0  0  0  0  0  0  0999 V2000
   36.2440   26.2320   38.5170 Br  0  0  0  0  0  0  0  0  0  0  0  0
   36.3810   27.7340   39.7040 C   0  0  0  0  0  0  0  0  0  0  0  0
   37.0860   27.6860   40.8890 C   0  0  0  0  0  0  0  0  0  0  0  0
   37.1200   28.8190   41.6640 C   0  0  0  0  0  0  0  0  0  0  0  0
   36.4840   29.9920   41.3120 C   0  0  0  0  0  0  0  0  0  0  0  0
   35.7750   30.0520   40.1280 C   0  0  0  0  0  0  0  0  0  0  0  0
   35.7450   28.9160   39.3540 C   0  0  0  0  0  0  0  0  0  0  0  0
   37.6760   28.7580   42.5840 H   0  0  0  0  0  0  0  0  0  0  0  0
   36.5270   30.8710   41.9440 H   0  0  0  0  0  0  0  0  0  0  0  0
   35.2600   30.9610   39.8170 H   0  0  0  0  0  0  0  0  0  0  0  0
   37.7200   24.1860   42.1960 C   0  0  0  0  0  0  0  0  0  0  0  0
   37.0700   25.3900   41.8790 C   0  0  0  0  0  0  0  0  0  0  0  0
   37.7480   26.4210   41.2280 C   0  0  0  0  0  0  0  0  0  0  0  0
   39.0520   26.1890   40.9250 N   0  0  0  0  0  0  0  0  0  0  0  0
   39.6630   25.0270   41.2340 C   0  0  0  0  0  0  0  0  0  0  0  0
   39.0090   24.0450   41.8580 N   0  0  0  0  0  0  0  0  0  0  0  0
   37.1250   23.4470   42.6960 H   0  0  0  0  0  0  0  0  0  0  0  0
   36.0330   25.6260   42.0980 H   0  0  0  0  0  0  0  0  0  0  0  0
   40.7050   24.9900   40.9290 H   0  0  0  0  0  0  0  0  0  0  0  0
   37.1310   29.4860   37.0760 F   0  0  0  0  0  0  0  0  0  0  0  0
   35.8040   29.2520   37.0020 C   0  0  0  0  0  0  0  0  0  0  0  0
   34.9950   28.9540   38.0870 C   0  0  0  0  0  0  0  0  0  0  0  0
   33.6420   28.7240   37.9510 C   0  0  0  0  0  0  0  0  0  0  0  0
   33.0960   28.4960   38.8720 H   0  0  0  0  0  0  0  0  0  0  0  0
   33.0640   28.7920   36.7000 C   0  0  0  0  0  0  0  0  0  0  0  0
   31.9850   28.6040   36.6190 H   0  0  0  0  0  0  0  0  0  0  0  0
   33.8360   29.0870   35.5920 C   0  0  0  0  0  3  0  0  0  0  0  0
   35.1990   29.3160   35.7490 C   0  0  0  0  0  3  0  0  0  0  0  0
  1  2  1  0  0  0  0
  2  3  1  0  0  0  0
  3 13  1  0  0  0  0
  3  4  2  0  0  0  0
  4  8  1  0  0  0  0
  5  4  1  0  0  0  0
  5  9  1  0  0  0  0
  6  5  2  0  0  0  0
  7  2  2  0  0  0  0
  7  6  1  0  0  0  0
 10  6  1  0  0  0  0
 11 17  1  0  0  0  0
 12 18  1  0  0  0  0
 12 11  1  0  0  0  0
 13 12  2  0  0  0  0
 14 13  1  0  0  0  0
 14 15  2  0  0  0  0
 15 16  1  0  0  0  0
 16 11  2  0  0  0  0
 19 15  1  0  0  0  0
 21 20  1  0  0  0  0
 21 22  1  0  0  0  0
 22  7  1  0  0  0  0
 23 22  2  0  0  0  0
 23 24  1  0  0  0  0
 25 23  1  0  0  0  0
 26 25  1  0  0  0  0
 27 28  1  0  0  0  0
 27 25  2  0  0  0  0
 28 21  2  0  0  0  0
M  END
>  <minimizedAffinity>
-5.15207434

$$$$
