
 OpenBabel03252507023D

 38 40  0  0  0  0  0  0  0  0999 V2000
   44.5950   31.4210   36.8210 C   0  0  0  0  0  0  0  0  0  0  0  0
   45.1540   30.6050   37.3030 H   0  0  0  0  0  0  0  0  0  0  0  0
   44.5490   31.1610   35.7300 H   0  0  0  0  0  0  0  0  0  0  0  0
   43.1990   31.5700   37.3120 C   0  0  0  0  0  0  0  0  0  0  0  0
   42.2150   30.6600   36.9830 C   0  0  0  0  0  0  0  0  0  0  0  0
   40.9220   30.8840   37.4810 C   0  0  0  0  0  0  0  0  0  0  0  0
   40.7050   31.9820   38.2630 N   0  0  0  0  0  0  0  0  0  0  0  0
   41.6980   32.8300   38.5510 C   0  0  0  0  0  0  0  0  0  0  0  0
   42.9260   32.6180   38.0780 N   0  0  0  0  0  0  0  0  0  0  0  0
   42.4250   29.8080   36.3650 H   0  0  0  0  0  0  0  0  0  0  0  0
   40.1230   30.1960   37.2470 H   0  0  0  0  0  0  0  0  0  0  0  0
   40.1530   35.0660   37.7020 F   0  0  0  0  0  0  0  0  0  0  0  0
   40.6020   35.0460   38.9790 C   0  0  0  0  0  0  0  0  0  0  0  0
   41.3500   33.9670   39.3940 C   0  0  0  0  0  0  0  0  0  0  0  0
   41.7790   34.0000   40.6950 C   0  0  0  0  0  0  0  0  0  0  0  0
   42.3820   33.1910   41.1270 H   0  0  0  0  0  0  0  0  0  0  0  0
   41.4880   35.0520   41.5650 C   0  0  0  0  0  0  0  0  0  0  0  0
   41.8550   35.0240   42.5880 H   0  0  0  0  0  0  0  0  0  0  0  0
   40.7370   36.1140   41.1130 C   0  0  0  0  0  0  0  0  0  0  0  0
   40.2880   36.1100   39.7990 C   0  0  0  0  0  0  0  0  0  0  0  0
   45.2660   32.7480   37.0020 C   0  0  0  0  0  0  0  0  0  0  0  0
   44.5250   33.3980   37.5720 H   0  0  0  0  0  0  0  0  0  0  0  0
   45.2380   33.2440   36.0000 H   0  0  0  0  0  0  0  0  0  0  0  0
   46.5160   32.6560   37.4420 N   0  0  0  0  0  0  0  0  0  0  0  0
   47.6190   32.0040   36.8280 C   0  0  0  0  0  0  0  0  0  0  0  0
   48.3400   33.2600   36.2700 C   0  0  0  0  0  0  0  0  0  0  0  0
   48.7760   34.1760   37.3260 C   0  0  0  0  0  0  0  0  0  0  0  0
   48.0640   34.1640   38.6040 C   0  0  0  0  0  0  0  0  0  0  0  0
   46.8080   33.3550   38.6980 C   0  0  0  0  0  0  0  0  0  0  0  0
   47.3170   31.4420   35.9280 H   0  0  0  0  0  0  0  0  0  0  0  0
   48.2940   31.4140   37.4190 H   0  0  0  0  0  0  0  0  0  0  0  0
   49.1750   32.9530   35.6220 H   0  0  0  0  0  0  0  0  0  0  0  0
   47.5900   33.7460   35.6150 H   0  0  0  0  0  0  0  0  0  0  0  0
   49.8520   33.9380   37.5610 H   0  0  0  0  0  0  0  0  0  0  0  0
   48.8320   35.2210   36.9170 H   0  0  0  0  0  0  0  0  0  0  0  0
   48.3250   34.6880   39.4840 H   0  0  0  0  0  0  0  0  0  0  0  0
   45.8220   33.3330   40.1610 S   0  0  0  0  0  0  0  0  0  0  0  0
   45.4770   34.6190   40.6120 H   0  0  0  0  0  0  0  0  0  0  0  0
  1 21  1  0  0  0  0
  1  2  1  0  0  0  0
  1  4  1  0  0  0  0
  3  1  1  0  0  0  0
  4  9  1  0  0  0  0
  5  4  2  0  0  0  0
  5  6  1  0  0  0  0
  6  7  2  0  0  0  0
  7  8  1  0  0  0  0
  8 14  1  0  0  0  0
  9  8  2  0  0  0  0
 10  5  1  0  0  0  0
 11  6  1  0  0  0  0
 12 13  1  0  0  0  0
 13 14  2  0  0  0  0
 13 20  1  0  0  0  0
 14 15  1  0  0  0  0
 15 16  1  0  0  0  0
 15 17  2  0  0  0  0
 17 18  1  0  0  0  0
 19 17  1  0  0  0  0
 20 19  2  0  0  0  0
 21 24  1  0  0  0  0
 21 22  1  0  0  0  0
 23 21  1  0  0  0  0
 24 29  1  0  0  0  0
 25 31  1  0  0  0  0
 25 24  1  0  0  0  0
 26 25  1  0  0  0  0
 26 27  1  0  0  0  0
 27 34  1  0  0  0  0
 27 28  1  0  0  0  0
 28 29  2  0  0  0  0
 28 36  1  0  0  0  0
 29 37  1  0  0  0  0
 30 25  1  0  0  0  0
 32 26  1  0  0  0  0
 33 26  1  0  0  0  0
 35 27  1  0  0  0  0
 37 38  1  0  0  0  0
M  END
>  <minimizedAffinity>
-4.82762861

>  <minimizedRMSD>
4.15220261

$$$$
