
 OpenBabel03252506183D

 23 24  0  0  0  0  0  0  0  0999 V2000
   45.0060   35.0080   44.2870 C   0  0  0  0  0  0  0  0  0  0  0  0
   44.7970   34.3030   43.0760 C   0  0  0  0  0  0  0  0  0  0  0  0
   45.0550   32.9290   43.0690 C   0  0  0  0  0  0  0  0  0  0  0  0
   45.4850   32.3400   44.2050 N   0  0  0  0  0  0  0  0  0  0  0  0
   45.6770   33.0440   45.3580 C   0  0  0  0  0  0  0  0  0  0  0  0
   45.4300   34.3630   45.3650 N   0  0  0  0  0  0  0  0  0  0  0  0
   44.4510   34.8700   42.2230 H   0  0  0  0  0  0  0  0  0  0  0  0
   44.8960   32.4010   42.1550 H   0  0  0  0  0  0  0  0  0  0  0  0
   44.4250   33.4840   47.8210 F   0  0  0  0  0  0  0  0  0  0  0  0
   45.4870   32.6330   47.7620 C   0  0  0  0  0  0  0  0  0  0  0  0
   46.1430   32.3780   46.5710 C   0  0  0  0  0  0  0  0  0  0  0  0
   47.2230   31.5120   46.5140 C   0  0  0  0  0  0  0  0  0  0  0  0
   47.7550   31.2940   45.5900 H   0  0  0  0  0  0  0  0  0  0  0  0
   47.6290   30.9030   47.6930 C   0  0  0  0  0  0  0  0  0  0  0  0
   48.4610   30.2250   47.6920 H   0  0  0  0  0  0  0  0  0  0  0  0
   46.9850   31.1480   48.8820 C   0  0  0  0  0  3  0  0  0  0  0  0
   45.9110   32.0150   48.9180 C   0  0  0  0  0  3  0  0  0  0  0  0
   44.7410   36.4400   44.3020 C   0  0  0  0  0  3  0  0  0  0  0  0
   45.4030   37.2240   43.4810 C   0  0  0  0  0  3  0  0  0  0  0  0
   45.1760   38.6930   43.4500 C   0  0  0  0  0  0  0  0  0  0  0  0
   45.5440   39.1980   44.3660 H   0  0  0  0  0  0  0  0  0  0  0  0
   45.5760   39.1380   42.5240 H   0  0  0  0  0  0  0  0  0  0  0  0
   44.0580   38.8360   43.4210 H   0  0  0  0  0  0  0  0  0  0  0  0
  1 18  1  0  0  0  0
  1  6  1  0  0  0  0
  2  1  2  0  0  0  0
  3  2  1  0  0  0  0
  3  4  2  0  0  0  0
  4  5  1  0  0  0  0
  5  6  2  0  0  0  0
  5 11  1  0  0  0  0
  7  2  1  0  0  0  0
  8  3  1  0  0  0  0
 10  9  1  0  0  0  0
 10 17  1  0  0  0  0
 11 10  2  0  0  0  0
 12 11  1  0  0  0  0
 12 14  2  0  0  0  0
 13 12  1  0  0  0  0
 14 16  1  0  0  0  0
 15 14  1  0  0  0  0
 16 17  2  0  0  0  0
 19 18  2  0  0  0  0
 20 19  1  0  0  0  0
 20 21  1  0  0  0  0
 22 20  1  0  0  0  0
 23 20  1  0  0  0  0
M  END
>  <minimizedAffinity>
-4.37867641

>  <minimizedRMSD>
2.25373793

$$$$
