
 OpenBabel03252506183D

 23 24  0  0  0  0  0  0  0  0999 V2000
   44.8170   35.5560   43.6870 C   0  0  0  0  0  0  0  0  0  0  0  0
   43.9900   35.3110   42.5630 C   0  0  0  0  0  0  0  0  0  0  0  0
   43.9480   34.0090   42.0550 C   0  0  0  0  0  0  0  0  0  0  0  0
   44.6900   33.0520   42.6520 N   0  0  0  0  0  0  0  0  0  0  0  0
   45.4780   33.3160   43.7340 C   0  0  0  0  0  0  0  0  0  0  0  0
   45.5180   34.5660   44.2220 N   0  0  0  0  0  0  0  0  0  0  0  0
   43.4370   36.1480   42.1600 H   0  0  0  0  0  0  0  0  0  0  0  0
   43.3240   33.8290   41.2080 H   0  0  0  0  0  0  0  0  0  0  0  0
   47.6070   32.1110   42.3770 F   0  0  0  0  0  0  0  0  0  0  0  0
   47.3090   31.6980   43.6410 C   0  0  0  0  0  0  0  0  0  0  0  0
   46.2680   32.2590   44.3580 C   0  0  0  0  0  0  0  0  0  0  0  0
   45.9680   31.8370   45.6430 C   0  0  0  0  0  0  0  0  0  0  0  0
   45.1560   32.2610   46.2280 H   0  0  0  0  0  0  0  0  0  0  0  0
   46.7480   30.8290   46.1930 C   0  0  0  0  0  0  0  0  0  0  0  0
   46.5490   30.4740   47.1860 H   0  0  0  0  0  0  0  0  0  0  0  0
   47.7860   30.2650   45.4890 C   0  0  0  0  0  3  0  0  0  0  0  0
   48.0680   30.6990   44.2110 C   0  0  0  0  0  3  0  0  0  0  0  0
   44.8660   36.9090   44.2210 C   0  0  0  0  0  3  0  0  0  0  0  0
   45.3230   37.8820   43.4650 C   0  0  0  0  0  3  0  0  0  0  0  0
   45.3980   39.2850   43.9530 C   0  0  0  0  0  0  0  0  0  0  0  0
   46.1670   39.4180   44.7400 H   0  0  0  0  0  0  0  0  0  0  0  0
   45.5110   39.9930   43.1160 H   0  0  0  0  0  0  0  0  0  0  0  0
   44.3990   39.5020   44.4290 H   0  0  0  0  0  0  0  0  0  0  0  0
  1 18  1  0  0  0  0
  1  6  1  0  0  0  0
  2  1  2  0  0  0  0
  3  2  1  0  0  0  0
  3  4  2  0  0  0  0
  4  5  1  0  0  0  0
  5  6  2  0  0  0  0
  5 11  1  0  0  0  0
  7  2  1  0  0  0  0
  8  3  1  0  0  0  0
  9 10  1  0  0  0  0
 10 17  2  0  0  0  0
 10 11  1  0  0  0  0
 11 12  2  0  0  0  0
 12 14  1  0  0  0  0
 12 13  1  0  0  0  0
 14 15  1  0  0  0  0
 16 14  2  0  0  0  0
 17 16  1  0  0  0  0
 19 20  1  0  0  0  0
 19 18  2  0  0  0  0
 20 23  1  0  0  0  0
 20 21  1  0  0  0  0
 22 20  1  0  0  0  0
M  END
>  <minimizedAffinity>
-3.41708255

>  <minimizedRMSD>
0.583977878

$$$$
