
 OpenBabel03252506193D

 23 24  0  0  0  0  0  0  0  0999 V2000
   44.8580   35.7610   43.4220 C   0  0  0  0  0  0  0  0  0  0  0  0
   44.2990   35.7970   42.1210 C   0  0  0  0  0  0  0  0  0  0  0  0
   44.2760   34.6070   41.3870 C   0  0  0  0  0  0  0  0  0  0  0  0
   44.7820   33.4860   41.9450 N   0  0  0  0  0  0  0  0  0  0  0  0
   45.3140   33.4800   43.2010 C   0  0  0  0  0  0  0  0  0  0  0  0
   45.3360   34.6220   43.9060 N   0  0  0  0  0  0  0  0  0  0  0  0
   43.9210   36.7460   41.7680 H   0  0  0  0  0  0  0  0  0  0  0  0
   43.8530   34.6390   40.4070 H   0  0  0  0  0  0  0  0  0  0  0  0
   43.8830   31.0790   43.0850 F   0  0  0  0  0  0  0  0  0  0  0  0
   45.1020   31.0940   43.6920 C   0  0  0  0  0  0  0  0  0  0  0  0
   45.8530   32.2520   43.7780 C   0  0  0  0  0  0  0  0  0  0  0  0
   47.0940   32.2630   44.3940 C   0  0  0  0  0  0  0  0  0  0  0  0
   47.7030   33.1590   44.4760 H   0  0  0  0  0  0  0  0  0  0  0  0
   47.5640   31.0710   44.9270 C   0  0  0  0  0  0  0  0  0  0  0  0
   48.5190   31.0370   45.4140 H   0  0  0  0  0  0  0  0  0  0  0  0
   46.8260   29.9130   44.8470 C   0  0  0  0  0  3  0  0  0  0  0  0
   45.5930   29.9220   44.2280 C   0  0  0  0  0  3  0  0  0  0  0  0
   44.8860   36.9960   44.1920 C   0  0  0  0  0  3  0  0  0  0  0  0
   45.3270   38.0960   43.6250 C   0  0  0  0  0  3  0  0  0  0  0  0
   45.3800   39.3880   44.3590 C   0  0  0  0  0  0  0  0  0  0  0  0
   46.1480   39.3900   45.1590 H   0  0  0  0  0  0  0  0  0  0  0  0
   45.4810   40.2380   43.6640 H   0  0  0  0  0  0  0  0  0  0  0  0
   44.3780   39.5010   44.8650 H   0  0  0  0  0  0  0  0  0  0  0  0
  1  6  1  0  0  0  0
  1 18  1  0  0  0  0
  2  1  2  0  0  0  0
  3  4  2  0  0  0  0
  3  2  1  0  0  0  0
  4  5  1  0  0  0  0
  5 11  1  0  0  0  0
  5  6  2  0  0  0  0
  7  2  1  0  0  0  0
  8  3  1  0  0  0  0
  9 10  1  0  0  0  0
 10 11  2  0  0  0  0
 10 17  1  0  0  0  0
 11 12  1  0  0  0  0
 12 13  1  0  0  0  0
 12 14  2  0  0  0  0
 14 15  1  0  0  0  0
 16 14  1  0  0  0  0
 17 16  2  0  0  0  0
 19 18  2  0  0  0  0
 19 20  1  0  0  0  0
 20 23  1  0  0  0  0
 20 21  1  0  0  0  0
 22 20  1  0  0  0  0
M  END
>  <minimizedAffinity>
-3.16153812

>  <minimizedRMSD>
0.67251277

$$$$
