REMARK  Name = 
REMARK  3 active torsions:
REMARK  status: ('A' for Active; 'I' for Inactive)
REMARK    1  A    between atoms: C_1  and  C_7
REMARK    2  A    between atoms: C_5  and  C_19
REMARK    3  A    between atoms: C_8  and  C_9
REMARK                            x       y       z     vdW  Elec       q    Type
REMARK                         _______ _______ _______ _____ _____    ______ ____
ROOT
ATOM      1  C   UNL     1      44.696  35.524  43.604  0.00  0.00    +0.000 A 
ATOM      2  C   UNL     1      43.944  35.429  42.407  0.00  0.00    +0.000 A 
ATOM      3  C   UNL     1      43.785  34.163  41.835  0.00  0.00    +0.000 A 
ATOM      4  N   UNL     1      44.349  33.097  42.443  0.00  0.00    +0.000 NA
ATOM      5  C   UNL     1      45.068  33.218  43.596  0.00  0.00    +0.000 A 
ATOM      6  N   UNL     1      45.220  34.433  44.145  0.00  0.00    +0.000 NA
ATOM      7  H   UNL     1      43.535  36.344  42.002  0.00  0.00    +0.000 HD
ATOM      8  H   UNL     1      43.218  34.096  40.933  0.00  0.00    +0.000 HD
ENDROOT
BRANCH   5  11
ATOM      9  F   UNL     1      43.499  31.382  45.010  0.00  0.00    +0.000 F 
ATOM     10  C   UNL     1      44.842  31.171  44.916  0.00  0.00    +0.000 A 
ATOM     11  C   UNL     1      45.665  32.046  44.230  0.00  0.00    +0.000 A 
ATOM     12  C   UNL     1      47.030  31.829  44.136  0.00  0.00    +0.000 A 
ATOM     13  H   UNL     1      47.698  32.500  43.603  0.00  0.00    +0.000 HD
ATOM     14  C   UNL     1      47.551  30.701  44.755  0.00  0.00    +0.000 A 
ATOM     15  H   UNL     1      48.603  30.496  44.706  0.00  0.00    +0.000 HD
ATOM     16  C   UNL     1      46.742  29.825  45.440  0.00  0.00    +0.000 A 
ATOM     17  C   UNL     1      45.385  30.059  45.522  0.00  0.00    +0.000 A 
ENDBRANCH   5  11
BRANCH   1  18
ATOM     18  C   UNL     1      44.866  36.839  44.205  0.00  0.00    +0.000 C 
ATOM     19  C   UNL     1      45.232  37.849  43.448  0.00  0.00    +0.000 C 
BRANCH  19  20
ATOM     20  C   UNL     1      45.422  39.215  44.003  0.00  0.00    +0.000 C 
ATOM     21  H   UNL     1      46.306  39.282  44.669  0.00  0.00    +0.000 HD
ATOM     22  H   UNL     1      45.428  39.973  43.203  0.00  0.00    +0.000 HD
ATOM     23  H   UNL     1      44.514  39.422  44.639  0.00  0.00    +0.000 HD
ENDBRANCH  19  20
ENDBRANCH   1  18
TORSDOF 3
