REMARK  Name = 
REMARK  2 active torsions:
REMARK  status: ('A' for Active; 'I' for Inactive)
REMARK    1  A    between atoms: C_3  and  C_9
REMARK    2  A    between atoms: C_13  and  C_22
REMARK                            x       y       z     vdW  Elec       q    Type
REMARK                         _______ _______ _______ _____ _____    ______ ____
ROOT
ATOM      1 BR   UNL     1      44.537  33.093  41.303  0.00  0.00    +0.000 Br
ATOM      2  C   UNL     1      46.223  33.988  41.101  0.00  0.00    +0.000 A 
ATOM      3  C   UNL     1      46.793  34.740  42.108  0.00  0.00    +0.000 A 
ATOM      4  C   UNL     1      48.003  35.338  41.857  0.00  0.00    +0.000 A 
ATOM      5  C   UNL     1      48.667  35.221  40.652  0.00  0.00    +0.000 A 
ATOM      6  C   UNL     1      48.105  34.471  39.637  0.00  0.00    +0.000 A 
ATOM      7  C   UNL     1      46.894  33.873  39.893  0.00  0.00    +0.000 A 
ATOM      8  H   UNL     1      48.429  35.919  42.657  0.00  0.00    +0.000 HD
ATOM      9  H   UNL     1      49.621  35.705  40.483  0.00  0.00    +0.000 HD
ATOM     10  H   UNL     1      48.600  34.356  38.673  0.00  0.00    +0.000 HD
ENDROOT
BRANCH   3  13
ATOM     11  C   UNL     1      44.459  35.956  44.834  0.00  0.00    +0.000 A 
ATOM     12  C   UNL     1      45.155  35.876  43.617  0.00  0.00    +0.000 A 
ATOM     13  C   UNL     1      46.057  34.840  43.373  0.00  0.00    +0.000 A 
ATOM     14  N   UNL     1      46.215  33.930  44.370  0.00  0.00    +0.000 NA
ATOM     15  C   UNL     1      45.539  34.019  45.533  0.00  0.00    +0.000 A 
ATOM     16  N   UNL     1      44.678  35.013  45.761  0.00  0.00    +0.000 NA
ATOM     17  H   UNL     1      43.786  36.784  44.938  0.00  0.00    +0.000 HD
ATOM     18  H   UNL     1      45.066  36.575  42.790  0.00  0.00    +0.000 HD
ATOM     19  H   UNL     1      45.771  33.219  46.232  0.00  0.00    +0.000 HD
ENDBRANCH   3  13
BRANCH   7  22
ATOM     20  F   UNL     1      48.229  33.661  37.524  0.00  0.00    +0.000 F 
ATOM     21  C   UNL     1      47.043  33.034  37.673  0.00  0.00    +0.000 A 
ATOM     22  C   UNL     1      46.274  33.068  38.826  0.00  0.00    +0.000 A 
ATOM     23  C   UNL     1      45.066  32.407  38.922  0.00  0.00    +0.000 A 
ATOM     24  H   UNL     1      44.540  32.499  39.877  0.00  0.00    +0.000 HD
ATOM     25  C   UNL     1      44.601  31.685  37.842  0.00  0.00    +0.000 A 
ATOM     26  H   UNL     1      43.638  31.168  37.944  0.00  0.00    +0.000 HD
ATOM     27  C   UNL     1      45.338  31.627  36.674  0.00  0.00    +0.000 A 
ATOM     28  C   UNL     1      46.553  32.300  36.597  0.00  0.00    +0.000 A 
ENDBRANCH   7  22
TORSDOF 2
