
     RDKit          3D

 27 28  0  0  0  0  0  0  0  0999 V2000
   44.6955   35.5244   43.6038 C   0  0  0  0  0  0  0  0  0  0  0  0
   43.9442   35.4289   42.4069 C   0  0  0  0  0  0  0  0  0  0  0  0
   43.7847   34.1628   41.8349 C   0  0  0  0  0  0  0  0  0  0  0  0
   44.3486   33.0970   42.4434 N   0  0  0  0  0  0  0  0  0  0  0  0
   45.0675   33.2177   43.5963 C   0  0  0  0  0  0  0  0  0  0  0  0
   45.2203   34.4329   44.1445 N   0  0  0  0  0  0  0  0  0  0  0  0
   44.8662   36.8388   44.2053 C   0  0  0  0  0  0  0  0  0  0  0  0
   45.2316   37.8487   43.4479 C   0  0  0  0  0  0  0  0  0  0  0  0
   45.4224   39.2147   44.0030 C   0  0  0  0  0  0  0  0  0  0  0  0
   43.5350   36.3438   42.0015 H   0  0  0  0  0  0  0  0  0  0  0  0
   43.2178   34.0960   40.9332 H   0  0  0  0  0  0  0  0  0  0  0  0
   44.7026   37.0189   45.2607 H   0  0  0  0  0  0  0  0  0  0  0  0
   45.3844   37.6119   42.3845 H   0  0  0  0  0  0  0  0  0  0  0  0
   46.3065   39.2822   44.6691 H   0  0  0  0  0  0  0  0  0  0  0  0
   45.4278   39.9732   43.2030 H   0  0  0  0  0  0  0  0  0  0  0  0
   44.5138   39.4221   44.6388 H   0  0  0  0  0  0  0  0  0  0  0  0
   47.0314   33.4856   45.5709 F   0  0  0  0  0  0  0  0  0  0  0  0
   46.6319   32.2374   45.2003 C   0  0  0  0  0  0  0  0  0  0  0  0
   45.6649   32.0458   44.2298 C   0  0  0  0  0  0  0  0  0  0  0  0
   45.2608   30.7750   43.8552 C   0  0  0  0  0  0  0  0  0  0  0  0
   44.5034   30.5974   43.0959 H   0  0  0  0  0  0  0  0  0  0  0  0
   45.8579   29.6921   44.4860 C   0  0  0  0  0  0  0  0  0  0  0  0
   45.5731   28.6914   44.2248 H   0  0  0  0  0  0  0  0  0  0  0  0
   46.8199   29.8708   45.4519 C   0  0  0  0  0  0  0  0  0  0  0  0
   47.2088   31.1445   45.8110 C   0  0  0  0  0  0  0  0  0  0  0  0
   47.3109   29.0653   45.9683 H   0  0  0  0  0  0  0  0  0  0  0  0
   47.9706   31.3282   46.5748 H   0  0  0  0  0  0  0  0  0  0  0  0
  1  6  2  0
  1  7  1  0
  2  1  1  0
  3  2  2  0
  3  4  1  0
  4  5  2  0
  5  6  1  0
  8  9  1  0
  8  7  2  0
  2 10  1  0
  3 11  1  0
  7 12  1  0
  8 13  1  0
  9 14  1  0
  9 15  1  0
  9 16  1  0
 17 18  1  0
 18 19  2  0
 19 20  1  0
 20 21  1  0
 20 22  2  0
 22 23  1  0
 22 24  1  0
 24 25  2  0
 25 18  1  0
 24 26  1  0
 25 27  1  0
  5 19  1  0
M  ISO  7  10  14  11  14  14   8  15   8  16   8  21  15  23  16
M  END
>  <DihAtoms>  (1) 
3,4,18,17

>  <DihDeg>  (1) 
0.008426139361556175

$$$$
