
     RDKit          3D

 30 32  0  0  0  0  0  0  0  0999 V2000
   44.4587   35.9563   44.8335 C   0  0  0  0  0  0  0  0  0  0  0  0
   45.1554   35.8763   43.6165 C   0  0  0  0  0  0  0  0  0  0  0  0
   46.0569   34.8398   43.3733 C   0  0  0  0  0  0  0  0  0  0  0  0
   46.2151   33.9298   44.3698 N   0  0  0  0  0  0  0  0  0  0  0  0
   45.5395   34.0192   45.5329 C   0  0  0  0  0  0  0  0  0  0  0  0
   44.6777   35.0128   45.7615 N   0  0  0  0  0  0  0  0  0  0  0  0
   44.5370   33.0929   41.3035 Br  0  0  0  0  0  0  0  0  0  0  0  0
   46.2231   33.9883   41.1013 C   0  0  0  0  0  0  0  0  0  0  0  0
   46.7934   34.7400   42.1085 C   0  0  0  0  0  0  0  0  0  0  0  0
   48.0030   35.3380   41.8574 C   0  0  0  0  0  0  0  0  0  0  0  0
   48.6667   35.2207   40.6522 C   0  0  0  0  0  0  0  0  0  0  0  0
   48.1048   34.4705   39.6369 C   0  0  0  0  0  0  0  0  0  0  0  0
   46.8935   33.8734   39.8927 C   0  0  0  0  0  0  0  0  0  0  0  0
   43.7857   36.7842   44.9379 H   0  0  0  0  0  0  0  0  0  0  0  0
   45.0657   36.5752   42.7904 H   0  0  0  0  0  0  0  0  0  0  0  0
   45.7710   33.2194   46.2321 H   0  0  0  0  0  0  0  0  0  0  0  0
   48.4288   35.9192   42.6572 H   0  0  0  0  0  0  0  0  0  0  0  0
   49.6215   35.7050   40.4833 H   0  0  0  0  0  0  0  0  0  0  0  0
   48.5999   34.3559   38.6730 H   0  0  0  0  0  0  0  0  0  0  0  0
   48.2286   33.6609   37.5244 F   0  0  0  0  0  0  0  0  0  0  0  0
   47.0432   33.0342   37.6735 C   0  0  0  0  0  0  0  0  0  0  0  0
   46.2739   33.0683   38.8262 C   0  0  0  0  0  0  0  0  0  0  0  0
   45.0664   32.4067   38.9220 C   0  0  0  0  0  0  0  0  0  0  0  0
   44.5400   32.4992   39.8767 H   0  0  0  0  0  0  0  0  0  0  0  0
   44.6006   31.6852   37.8416 C   0  0  0  0  0  0  0  0  0  0  0  0
   43.6376   31.1682   37.9436 H   0  0  0  0  0  0  0  0  0  0  0  0
   45.3381   31.6266   36.6742 C   0  0  0  0  0  0  0  0  0  0  0  0
   46.5531   32.3002   36.5967 C   0  0  0  0  0  0  0  0  0  0  0  0
   44.9695   31.0549   35.8176 H   0  0  0  0  0  0  0  0  0  0  0  0
   47.1343   32.2522   35.6727 H   0  0  0  0  0  0  0  0  0  0  0  0
  1  6  2  0
  2  1  1  0
  3  2  2  0
  3  4  1  0
  4  5  2  0
  5  6  1  0
  8  7  1  0
  8  9  2  0
  9  3  1  0
 10  9  1  0
 11 10  2  0
 12 13  2  0
 12 11  1  0
 13  8  1  0
  1 14  1  0
  2 15  1  0
  5 16  1  0
 10 17  1  0
 11 18  1  0
 12 19  1  0
 20 21  1  0
 21 22  2  0
 22 23  1  0
 23 24  1  0
 23 25  2  0
 25 26  1  0
 25 27  1  0
 27 28  2  0
 28 21  1  0
 27 29  1  0
 28 30  1  0
 13 22  1  0
M  ISO  8  14  14  15  14  16  14  17  14  18  14  19  14  24  15  26  16
M  END
>  <DihAtoms>  (1) 
11,12,21,20

>  <DihDeg>  (1) 
90.00018413741431

$$$$
