
     RDKit          3D

 39 42  0  0  0  0  0  0  0  0999 V2000
   47.5329   32.8458   43.9069 C   0  0  0  0  0  0  0  0  0  0  0  0
   48.3744   33.3901   43.0165 C   0  0  0  0  0  0  0  0  0  0  0  0
   49.2378   32.4952   42.4182 C   0  0  0  0  0  0  0  0  0  0  0  0
   49.1668   31.1387   42.7836 N   0  0  0  0  0  0  0  0  0  0  0  0
   48.3152   30.6796   43.6696 C   0  0  0  0  0  0  0  0  0  0  0  0
   47.4345   31.5404   44.2879 N   0  0  0  0  0  0  0  0  0  0  0  0
   48.5208   34.7740   42.7367 C   0  0  0  0  0  0  0  0  0  0  0  0
   49.5241   35.3911   42.0566 C   0  0  0  0  0  0  0  0  0  0  0  0
   48.2789   35.2224   41.2289 C   0  0  0  0  0  0  0  0  0  0  0  0
   46.4504   33.5328   44.6228 C   0  0  0  0  0  0  0  0  0  0  0  0
   45.8774   33.8955   45.6186 O   0  0  0  0  0  0  0  0  0  0  0  0
   44.6817   31.6652   42.9218 Cl  0  0  0  0  0  0  0  0  0  0  0  0
   44.6486   33.4224   42.7649 C   0  0  0  0  0  0  0  0  0  0  0  0
   45.5218   34.1227   43.6231 C   0  0  0  0  0  0  0  0  0  0  0  0
   45.4182   35.4887   43.4046 C   0  0  0  0  0  0  0  0  0  0  0  0
   44.6526   36.1701   42.5431 C   0  0  0  0  0  0  0  0  0  0  0  0
   43.8355   35.4139   41.7482 C   0  0  0  0  0  0  0  0  0  0  0  0
   43.8163   34.0653   41.8402 C   0  0  0  0  0  0  0  0  0  0  0  0
   49.9835   32.7571   41.6727 H   0  0  0  0  0  0  0  0  0  0  0  0
   48.3762   29.6111   43.8522 H   0  0  0  0  0  0  0  0  0  0  0  0
   48.0624   35.4457   43.4862 H   0  0  0  0  0  0  0  0  0  0  0  0
   50.3889   34.7756   41.6820 H   0  0  0  0  0  0  0  0  0  0  0  0
   49.8596   36.4563   42.0858 H   0  0  0  0  0  0  0  0  0  0  0  0
   47.5483   36.0393   41.1233 H   0  0  0  0  0  0  0  0  0  0  0  0
   48.2182   34.3793   40.5329 H   0  0  0  0  0  0  0  0  0  0  0  0
   46.0133   36.1936   44.0228 H   0  0  0  0  0  0  0  0  0  0  0  0
   44.6054   37.2254   42.4050 H   0  0  0  0  0  0  0  0  0  0  0  0
   43.1506   35.7856   40.9981 H   0  0  0  0  0  0  0  0  0  0  0  0
   43.0839   31.7076   43.0476 F   0  0  0  0  0  0  0  0  0  0  0  0
   42.6801   31.9805   41.7714 C   0  0  0  0  0  0  0  0  0  0  0  0
   42.9810   33.1372   41.0430 C   0  0  0  0  0  0  0  0  0  0  0  0
   42.5141   33.2836   39.7760 C   0  0  0  0  0  0  0  0  0  0  0  0
   42.8081   34.2142   39.3108 H   0  0  0  0  0  0  0  0  0  0  0  0
   41.7457   32.2807   39.2267 C   0  0  0  0  0  0  0  0  0  0  0  0
   41.4011   32.4502   38.2158 H   0  0  0  0  0  0  0  0  0  0  0  0
   41.4366   31.1327   39.9253 C   0  0  0  0  0  0  0  0  0  0  0  0
   41.9045   30.9707   41.2140 C   0  0  0  0  0  0  0  0  0  0  0  0
   40.8327   30.3804   39.4497 H   0  0  0  0  0  0  0  0  0  0  0  0
   41.6437   30.0615   41.7301 H   0  0  0  0  0  0  0  0  0  0  0  0
  1  6  1  0
  1 10  1  0
  2  1  2  0
  3  4  2  0
  3  2  1  0
  4  5  1  0
  5  6  2  0
  7  2  1  0
  8  7  1  0
  9  8  1  0
  9  7  1  0
 10 11  2  0
 13 12  1  0
 13 14  2  0
 14 10  1  0
 15 14  1  0
 16 15  2  0
 17 18  2  0
 17 16  1  0
 18 13  1  0
  3 19  1  0
  5 20  1  0
  7 21  1  0
  8 22  1  0
  8 23  1  0
  9 24  1  0
  9 25  1  0
 15 26  1  0
 16 27  1  0
 17 28  1  0
 29 30  1  0
 30 31  2  0
 31 32  1  0
 32 33  1  0
 32 34  2  0
 34 35  1  0
 34 36  1  0
 36 37  2  0
 37 30  1  0
 36 38  1  0
 37 39  1  0
 18 31  1  0
M  ISO  8  19  14  20  14  21  13  22  13  23  13  24  13  25  13  26  14
M  ISO  4  27  14  28  14  33  15  35  16
M  END
>  <DihAtoms>  (1) 
16,17,30,29

>  <DihDeg>  (1) 
-89.99989202407484

$$$$
