
 OpenBabel03242523383D

 19 20  0  0  0  0  0  0  0  0999 V2000
   44.7470   35.1400   45.4180 C   0  0  0  0  0  0  0  0  0  0  0  0
   45.2880   35.3840   44.1410 C   0  0  0  0  0  0  0  0  0  0  0  0
   46.2030   34.4500   43.6330 C   0  0  0  0  0  0  0  0  0  0  0  0
   46.5040   33.3780   44.4060 N   0  0  0  0  0  0  0  0  0  0  0  0
   45.9710   33.1720   45.6200 C   0  0  0  0  0  0  0  0  0  0  0  0
   45.0960   34.0490   46.1220 N   0  0  0  0  0  0  0  0  0  0  0  0
   44.0410   35.8550   45.8110 H   0  0  0  0  0  0  0  0  0  0  0  0
   45.0110   36.2530   43.5750 H   0  0  0  0  0  0  0  0  0  0  0  0
   47.6380   33.3230   47.8680 F   0  0  0  0  0  0  0  0  0  0  0  0
   47.1900   32.1130   47.4690 C   0  0  0  0  0  0  0  0  0  0  0  0
   46.3680   31.9770   46.3700 C   0  0  0  0  0  0  0  0  0  0  0  0
   45.8920   30.7560   45.9330 C   0  0  0  0  0  0  0  0  0  0  0  0
   45.2410   30.6390   45.0660 H   0  0  0  0  0  0  0  0  0  0  0  0
   46.2410   29.5860   46.6140 C   0  0  0  0  0  0  0  0  0  0  0  0
   45.9190   28.5890   46.3510 H   0  0  0  0  0  0  0  0  0  0  0  0
   47.0680   29.7620   47.7110 C   0  0  0  0  0  3  0  0  0  0  0  0
   47.5490   30.9650   48.1580 C   0  0  0  0  0  3  0  0  0  0  0  0
   46.9290   34.6980   42.0180 S   0  0  0  0  0  0  0  0  0  0  0  0
   48.3250   34.9110   42.1780 H   0  0  0  0  0  0  0  0  0  0  0  0
  1  7  1  0  0  0  0
  1  6  1  0  0  0  0
  2  1  2  0  0  0  0
  3  2  1  0  0  0  0
  3  4  2  0  0  0  0
  4  5  1  0  0  0  0
  5  6  2  0  0  0  0
  5 11  1  0  0  0  0
  8  2  1  0  0  0  0
 10  9  1  0  0  0  0
 10 17  1  0  0  0  0
 11 10  2  0  0  0  0
 12 11  1  0  0  0  0
 12 14  2  0  0  0  0
 13 12  1  0  0  0  0
 14 16  1  0  0  0  0
 15 14  1  0  0  0  0
 16 17  2  0  0  0  0
 18 19  1  0  0  0  0
 18  3  1  0  0  0  0
M  END
>  <minimizedAffinity>
-4.03354692

>  <minimizedRMSD>
1.3463496

$$$$
