REMARK  Name = 
REMARK  4 active torsions:
REMARK  status: ('A' for Active; 'I' for Inactive)
REMARK    1  A    between atoms: C_1  and  C_10
REMARK    2  A    between atoms: C_2  and  C_7
REMARK    3  A    between atoms: C_10  and  C_14
REMARK    4  A    between atoms: C_18  and  C_31
REMARK                            x       y       z     vdW  Elec       q    Type
REMARK                         _______ _______ _______ _____ _____    ______ ____
ROOT
ATOM      1 CL   UNL     1      44.682  31.665  42.922  0.00  0.00    +0.000 Cl
ATOM      2  C   UNL     1      44.649  33.422  42.765  0.00  0.00    +0.000 A 
ATOM      3  C   UNL     1      45.522  34.123  43.623  0.00  0.00    +0.000 A 
ATOM      4  C   UNL     1      45.418  35.489  43.405  0.00  0.00    +0.000 A 
ATOM      5  C   UNL     1      44.653  36.170  42.543  0.00  0.00    +0.000 A 
ATOM      6  C   UNL     1      43.836  35.414  41.748  0.00  0.00    +0.000 A 
ATOM      7  C   UNL     1      43.816  34.065  41.840  0.00  0.00    +0.000 A 
ATOM      8  H   UNL     1      46.013  36.194  44.023  0.00  0.00    +0.000 HD
ATOM      9  H   UNL     1      44.605  37.225  42.405  0.00  0.00    +0.000 HD
ATOM     10  H   UNL     1      43.151  35.786  40.998  0.00  0.00    +0.000 HD
ENDROOT
BRANCH   7  13
ATOM     11  F   UNL     1      41.708  35.166  40.463  0.00  0.00    +0.000 F 
ATOM     12  C   UNL     1      41.947  33.823  40.394  0.00  0.00    +0.000 A 
ATOM     13  C   UNL     1      42.981  33.137  41.043  0.00  0.00    +0.000 A 
ATOM     14  C   UNL     1      43.107  31.794  40.890  0.00  0.00    +0.000 A 
ATOM     15  H   UNL     1      43.939  31.371  41.436  0.00  0.00    +0.000 HD
ATOM     16  C   UNL     1      42.206  31.125  40.091  0.00  0.00    +0.000 A 
ATOM     17  H   UNL     1      42.353  30.057  40.005  0.00  0.00    +0.000 HD
ATOM     18  C   UNL     1      41.180  31.779  39.442  0.00  0.00    +0.000 A 
ATOM     19  C   UNL     1      41.040  33.145  39.589  0.00  0.00    +0.000 A 
ENDBRANCH   7  13
BRANCH   3  20
ATOM     20  C   UNL     1      46.450  33.533  44.623  0.00  0.00    +0.000 C 
ATOM     21  O   UNL     1      45.877  33.895  45.619  0.00  0.00    +0.000 OA
BRANCH  20  22
ATOM     22  C   UNL     1      47.533  32.846  43.907  0.00  0.00    +0.000 A 
ATOM     23  C   UNL     1      48.374  33.390  43.017  0.00  0.00    +0.000 A 
ATOM     24  C   UNL     1      49.238  32.495  42.418  0.00  0.00    +0.000 A 
ATOM     25  N   UNL     1      49.167  31.139  42.784  0.00  0.00    +0.000 NA
ATOM     26  C   UNL     1      48.315  30.680  43.670  0.00  0.00    +0.000 A 
ATOM     27  N   UNL     1      47.434  31.540  44.288  0.00  0.00    +0.000 NA
ATOM     28  H   UNL     1      49.983  32.757  41.673  0.00  0.00    +0.000 HD
ATOM     29  H   UNL     1      48.376  29.611  43.852  0.00  0.00    +0.000 HD
BRANCH  23  30
ATOM     30  C   UNL     1      48.521  34.774  42.737  0.00  0.00    +0.000 C 
ATOM     31  C   UNL     1      49.524  35.391  42.057  0.00  0.00    +0.000 C 
ATOM     32  C   UNL     1      48.279  35.222  41.229  0.00  0.00    +0.000 C 
ATOM     33  H   UNL     1      48.062  35.446  43.486  0.00  0.00    +0.000 HD
ATOM     34  H   UNL     1      50.389  34.776  41.682  0.00  0.00    +0.000 HD
ATOM     35  H   UNL     1      49.860  36.456  42.086  0.00  0.00    +0.000 HD
ATOM     36  H   UNL     1      47.548  36.039  41.123  0.00  0.00    +0.000 HD
ATOM     37  H   UNL     1      48.218  34.379  40.533  0.00  0.00    +0.000 HD
ENDBRANCH  23  30
ENDBRANCH  20  22
ENDBRANCH   3  20
TORSDOF 4
