
 OpenBabel03242521433D

 38 40  0  0  1  0  0  0  0  0999 V2000
   45.4980   35.7280   43.8030 C   0  0  0  0  0  0  0  0  0  0  0  0
   46.4980   34.8960   43.3030 C   0  0  0  0  0  0  0  0  0  0  0  0
   46.8440   33.7360   43.9830 C   0  0  0  0  0  0  0  0  0  0  0  0
   46.1820   33.4770   45.1080 N   0  0  0  0  0  0  0  0  0  0  0  0
   45.2140   34.2810   45.5940 C   0  0  0  0  0  0  0  0  0  0  0  0
   44.8600   35.4100   44.9530 N   0  0  0  0  0  0  0  0  0  0  0  0
   46.9330   35.2350   42.3940 H   0  0  0  0  0  0  0  0  0  0  0  0
   44.7610   33.9460   46.5180 H   0  0  0  0  0  0  0  0  0  0  0  0
   48.9180   33.6700   42.6170 C   0  0  2  0  0  0  0  0  0  0  0  0
   47.8970   32.9210   43.3980 C   0  0  2  0  0  0  0  0  0  0  0  0
   47.4380   31.9900   42.4200 O   0  0  0  0  0  0  0  0  0  0  0  0
   48.6280   31.4570   41.9550 C   0  0  0  0  0  0  0  0  0  0  0  0
   49.7210   32.4640   42.0900 C   0  0  1  0  0  0  0  0  0  0  0  0
   48.4640   34.1660   41.7300 H   0  0  0  0  0  0  0  0  0  0  0  0
   48.4250   32.2520   44.1390 H   0  0  0  0  0  0  0  0  0  0  0  0
   48.4910   31.1440   40.8820 H   0  0  0  0  0  0  0  0  0  0  0  0
   48.8470   30.5400   42.5190 H   0  0  0  0  0  0  0  0  0  0  0  0
   50.4680   32.1550   42.8450 H   0  0  0  0  0  0  0  0  0  0  0  0
   49.6640   34.5510   43.3400 O   0  0  0  0  0  0  0  0  0  0  0  0
   50.0860   34.0590   44.0830 H   0  0  0  0  0  0  0  0  0  0  0  0
   50.3130   32.8230   40.8800 O   0  0  0  0  0  0  0  0  0  0  0  0
   49.5770   33.2950   40.3740 H   0  0  0  0  0  0  0  0  0  0  0  0
   45.1370   36.9840   43.0770 C   0  0  0  0  0  0  0  0  0  0  0  0
   45.9490   37.2610   42.3950 H   0  0  0  0  0  0  0  0  0  0  0  0
   44.1950   36.7720   42.5280 H   0  0  0  0  0  0  0  0  0  0  0  0
   45.2620   39.3410   44.1070 C   0  0  0  0  0  0  0  0  0  0  0  0
   45.9990   39.6910   43.1170 O   0  0  0  0  0  0  0  0  0  0  0  0
   44.8410   37.9980   44.0530 N   0  0  0  0  0  0  0  0  0  0  0  0
   44.2230   37.6560   44.8150 H   0  0  0  0  0  0  0  0  0  0  0  0
   44.6560   42.1410   43.6980 F   0  0  0  0  0  0  0  0  0  0  0  0
   44.6730   41.6650   44.9610 C   0  0  0  0  0  0  0  0  0  0  0  0
   44.9640   40.3310   45.1220 C   0  0  0  0  0  0  0  0  0  0  0  0
   44.9590   39.9330   46.4510 C   0  0  0  0  0  0  0  0  0  0  0  0
   45.1740   38.8980   46.7240 H   0  0  0  0  0  0  0  0  0  0  0  0
   44.6910   40.7870   47.4950 C   0  0  0  0  0  0  0  0  0  0  0  0
   44.7010   40.4240   48.5130 H   0  0  0  0  0  0  0  0  0  0  0  0
   44.4080   42.1130   47.2550 C   0  0  0  0  0  3  0  0  0  0  0  0
   44.3960   42.5730   45.9570 C   0  0  0  0  0  3  0  0  0  0  0  0
  1  6  1  0  0  0  0
  2  1  2  0  0  0  0
  2  3  1  0  0  0  0
  3  4  2  0  0  0  0
  4  5  1  0  0  0  0
  5  8  1  0  0  0  0
  6  5  2  0  0  0  0
  7  2  1  0  0  0  0
  9 14  1  6  0  0  0
  9 19  1  0  0  0  0
  9 10  1  0  0  0  0
 10  3  1  0  0  0  0
 10 15  1  1  0  0  0
 11 10  1  0  0  0  0
 12 13  1  0  0  0  0
 12 11  1  0  0  0  0
 12 17  1  0  0  0  0
 13  9  1  0  0  0  0
 13 18  1  1  0  0  0
 16 12  1  0  0  0  0
 19 20  1  0  0  0  0
 21 13  1  0  0  0  0
 22 21  1  0  0  0  0
 23  1  1  0  0  0  0
 23 28  1  0  0  0  0
 24 23  1  0  0  0  0
 25 23  1  0  0  0  0
 26 32  1  0  0  0  0
 27 26  2  0  0  0  0
 28 26  1  0  0  0  0
 28 29  1  0  0  0  0
 30 31  1  0  0  0  0
 31 32  2  0  0  0  0
 31 38  1  0  0  0  0
 32 33  1  0  0  0  0
 33 34  1  0  0  0  0
 33 35  2  0  0  0  0
 35 36  1  0  0  0  0
 37 35  1  0  0  0  0
 38 37  2  0  0  0  0
M  END
>  <minimizedAffinity>
-3.99197936

>  <minimizedRMSD>
0.654961526

$$$$
