
     RDKit          3D

 31 33  0  0  0  0  0  0  0  0999 V2000
   46.2623   34.7441   43.2438 C   0  0  0  0  0  0  0  0  0  0  0  0
   45.3040   35.7434   43.5847 C   0  0  0  0  0  0  0  0  0  0  0  0
   44.6611   35.5685   44.8078 C   0  0  0  0  0  0  0  0  0  0  0  0
   44.9741   34.4969   45.5727 N   0  0  0  0  0  0  0  0  0  0  0  0
   45.9120   33.5730   45.1736 C   0  0  0  0  0  0  0  0  0  0  0  0
   46.5596   33.6734   44.0309 N   0  0  0  0  0  0  0  0  0  0  0  0
   46.2072   32.4285   46.0803 C   0  0  1  0  0  0  0  0  0  0  0  0
   47.0332   32.6703   47.3218 C   0  0  0  0  0  0  0  0  0  0  0  0
   45.5432   32.4964   47.3997 C   0  0  1  0  0  0  0  0  0  0  0  0
   44.8749   33.7395   47.8020 N   0  0  0  0  0  0  0  0  0  0  0  0
   46.9398   34.9366   41.9730 C   0  0  0  0  0  0  0  0  0  0  0  0
   48.0637   35.5495   41.8778 O   0  0  0  0  0  0  0  0  0  0  0  0
   45.1285   36.5602   42.9015 H   0  0  0  0  0  0  0  0  0  0  0  0
   43.9270   36.3037   45.1051 H   0  0  0  0  0  0  0  0  0  0  0  0
   46.3094   31.4604   45.5744 H   0  0  0  0  0  0  0  0  0  0  0  0
   47.6074   31.7846   47.6580 H   0  0  0  0  0  0  0  0  0  0  0  0
   47.5072   33.6570   47.4592 H   0  0  0  0  0  0  0  0  0  0  0  0
   45.1328   31.5758   47.8488 H   0  0  0  0  0  0  0  0  0  0  0  0
   45.5288   34.5458   47.8853 H   0  0  0  0  0  0  0  0  0  0  0  0
   44.5259   33.5757   48.7725 H   0  0  0  0  0  0  0  0  0  0  0  0
   44.2536   35.3996   41.8103 F   0  0  0  0  0  0  0  0  0  0  0  0
   44.8881   34.6720   40.8404 C   0  0  0  0  0  0  0  0  0  0  0  0
   46.2363   34.3758   40.8181 C   0  0  0  0  0  0  0  0  0  0  0  0
   46.7758   33.6400   39.8026 C   0  0  0  0  0  0  0  0  0  0  0  0
   47.8298   33.4554   39.8617 H   0  0  0  0  0  0  0  0  0  0  0  0
   45.9407   33.1881   38.7803 C   0  0  0  0  0  0  0  0  0  0  0  0
   46.4502   32.6162   38.0218 H   0  0  0  0  0  0  0  0  0  0  0  0
   44.6027   33.4711   38.7846 C   0  0  0  0  0  0  0  0  0  0  0  0
   44.0646   34.2127   39.8100 C   0  0  0  0  0  0  0  0  0  0  0  0
   43.9818   33.1031   37.9723 H   0  0  0  0  0  0  0  0  0  0  0  0
   43.0144   34.4137   39.7788 H   0  0  0  0  0  0  0  0  0  0  0  0
  1  2  2  0
  1  6  1  0
  2  3  1  0
  3  4  2  0
  5  4  1  0
  5  7  1  0
  6  5  2  0
  7  8  1  0
  7  9  1  0
  8  9  1  0
  9 10  1  0
 11  1  1  0
 12 11  2  0
  2 13  1  0
  3 14  1  0
  7 15  1  6
  8 16  1  0
  8 17  1  0
  9 18  1  1
 10 19  1  0
 10 20  1  0
 21 22  1  0
 22 23  2  0
 23 24  1  0
 24 25  1  0
 24 26  2  0
 26 27  1  0
 26 28  1  0
 28 29  2  0
 29 22  1  0
 28 30  1  0
 29 31  1  0
 11 23  1  0
M  ISO  8  13  14  14  14  15  13  16  13  17  13  18  13  19   5  20   5
M  ISO  2  25  15  27  16
M  END
>  <DihAtoms>  (1) 
0,10,22,21

>  <DihDeg>  (1) 
-135.00122378607063

$$$$
