
 OpenBabel03252507593D

 29 31  0  0  1  0  0  0  0  0999 V2000
   46.3290   34.8260   43.2430 C   0  0  0  0  0  0  0  0  0  0  0  0
   45.3430   35.8260   43.4880 C   0  0  0  0  0  0  0  0  0  0  0  0
   44.6010   35.6670   44.6550 C   0  0  0  0  0  0  0  0  0  0  0  0
   44.8510   34.6070   45.4590 N   0  0  0  0  0  0  0  0  0  0  0  0
   45.8210   33.6800   45.1530 C   0  0  0  0  0  0  0  0  0  0  0  0
   46.5620   33.7670   44.0670 N   0  0  0  0  0  0  0  0  0  0  0  0
   45.2250   36.6330   42.7810 H   0  0  0  0  0  0  0  0  0  0  0  0
   43.8430   36.4030   44.8790 H   0  0  0  0  0  0  0  0  0  0  0  0
   46.0410   32.5490   46.0970 C   0  0  1  0  0  0  0  0  0  0  0  0
   46.8300   32.7930   47.3630 C   0  0  0  0  0  0  0  0  0  0  0  0
   45.3330   32.6740   47.3890 C   0  0  1  0  0  0  0  0  0  0  0  0
   46.1270   31.5660   45.6190 H   0  0  0  0  0  0  0  0  0  0  0  0
   47.3590   31.8980   47.7410 H   0  0  0  0  0  0  0  0  0  0  0  0
   47.3340   33.7660   47.4930 H   0  0  0  0  0  0  0  0  0  0  0  0
   44.8740   31.7800   47.8450 H   0  0  0  0  0  0  0  0  0  0  0  0
   44.6960   33.9490   47.7360 N   0  0  0  0  0  0  0  0  0  0  0  0
   45.3750   34.7350   47.8240 H   0  0  0  0  0  0  0  0  0  0  0  0
   44.3060   33.8230   48.6970 H   0  0  0  0  0  0  0  0  0  0  0  0
   47.1110   35.0030   42.0310 C   0  0  0  0  0  0  0  0  0  0  0  0
   48.1500   35.7560   41.9850 O   0  0  0  0  0  0  0  0  0  0  0  0
   48.7900   34.7720   39.8900 F   0  0  0  0  0  0  0  0  0  0  0  0
   47.5460   34.2040   39.8560 C   0  0  0  0  0  0  0  0  0  0  0  0
   46.6150   34.2550   40.8740 C   0  0  0  0  0  0  0  0  0  0  0  0
   45.3970   33.6530   40.7420 C   0  0  0  0  0  0  0  0  0  0  0  0
   44.7340   33.7410   41.5790 H   0  0  0  0  0  0  0  0  0  0  0  0
   45.1020   32.9810   39.5560 C   0  0  0  0  0  0  0  0  0  0  0  0
   44.1210   32.5360   39.5380 H   0  0  0  0  0  0  0  0  0  0  0  0
   46.0100   32.9190   38.5350 C   0  0  0  0  0  3  0  0  0  0  0  0
   47.2360   33.5270   38.6730 C   0  0  0  0  0  3  0  0  0  0  0  0
  1  2  2  0  0  0  0
  1  6  1  0  0  0  0
  2  3  1  0  0  0  0
  3  8  1  0  0  0  0
  3  4  2  0  0  0  0
  5  4  1  0  0  0  0
  5  9  1  0  0  0  0
  6  5  2  0  0  0  0
  7  2  1  0  0  0  0
  9 12  1  6  0  0  0
  9 10  1  0  0  0  0
  9 11  1  0  0  0  0
 10 11  1  0  0  0  0
 10 14  1  0  0  0  0
 10 13  1  0  0  0  0
 11 16  1  0  0  0  0
 11 15  1  1  0  0  0
 16 17  1  0  0  0  0
 16 18  1  0  0  0  0
 19  1  1  0  0  0  0
 20 19  2  0  0  0  0
 22 21  1  0  0  0  0
 22 23  1  0  0  0  0
 23 19  1  0  0  0  0
 24 23  2  0  0  0  0
 24 25  1  0  0  0  0
 26 24  1  0  0  0  0
 27 26  1  0  0  0  0
 28 29  1  0  0  0  0
 28 26  2  0  0  0  0
 29 22  2  0  0  0  0
M  END
>  <minimizedAffinity>
-5.83960247

>  <minimizedRMSD>
0.493737936

$$$$
