REMARK  Name = 
REMARK  3 active torsions:
REMARK  status: ('A' for Active; 'I' for Inactive)
REMARK    1  A    between atoms: C_2  and  C_14
REMARK    2  A    between atoms: C_10  and  C_16
REMARK    3  A    between atoms: C_16  and  C_28
REMARK                            x       y       z     vdW  Elec       q    Type
REMARK                         _______ _______ _______ _____ _____    ______ ____
ROOT
ATOM      1  C   UNL     1      46.881  34.934  42.636  0.00  0.00    +0.000 A 
ATOM      2  C   UNL     1      45.965  35.961  42.542  0.00  0.00    +0.000 A 
ATOM      3  C   UNL     1      44.958  35.993  43.495  0.00  0.00    +0.000 A 
ATOM      4  N   UNL     1      44.921  35.032  44.458  0.00  0.00    +0.000 NA
ATOM      5  C   UNL     1      45.860  34.039  44.498  0.00  0.00    +0.000 A 
ATOM      6  N   UNL     1      46.840  33.988  43.589  0.00  0.00    +0.000 NA
ATOM      7  H   UNL     1      45.984  36.730  41.781  0.00  0.00    +0.000 HD
ATOM      8  H   UNL     1      44.187  36.756  43.513  0.00  0.00    +0.000 HD
ENDROOT
BRANCH   5  10
ATOM      9  C   UNL     1      46.044  31.695  45.134  0.00  0.00    +0.000 A 
ATOM     10  C   UNL     1      45.807  33.010  45.537  0.00  0.00    +0.000 A 
ATOM     11  C   UNL     1      45.531  33.296  46.863  0.00  0.00    +0.000 A 
ATOM     12  C   UNL     1      45.499  32.247  47.770  0.00  0.00    +0.000 A 
ATOM     13  N   UNL     1      45.270  32.194  49.080  0.00  0.00    +0.000 N 
ATOM     14  C   UNL     1      45.342  30.947  49.550  0.00  0.00    +0.000 A 
ATOM     15  C   UNL     1      45.634  30.125  48.497  0.00  0.00    +0.000 A 
ATOM     16  C   UNL     1      45.733  30.934  47.380  0.00  0.00    +0.000 A 
ATOM     17  C   UNL     1      46.008  30.665  46.049  0.00  0.00    +0.000 A 
ATOM     18  H   UNL     1      46.268  31.368  44.126  0.00  0.00    +0.000 HD
ATOM     19  H   UNL     1      45.352  34.321  47.141  0.00  0.00    +0.000 HD
ATOM     20  H   UNL     1      45.059  33.046  49.664  0.00  0.00    +0.000 HD
ATOM     21  H   UNL     1      45.191  30.674  50.580  0.00  0.00    +0.000 HD
ATOM     22  H   UNL     1      45.769  29.035  48.501  0.00  0.00    +0.000 HD
ATOM     23  H   UNL     1      46.182  29.626  45.805  0.00  0.00    +0.000 HD
ENDBRANCH   5  10
BRANCH   1  24
ATOM     24  C   UNL     1      47.919  34.945  41.610  0.00  0.00    +0.000 C 
ATOM     25  O   UNL     1      48.830  35.815  41.489  0.00  0.00    +0.000 OA
BRANCH  24  28
ATOM     26  F   UNL     1      45.647  33.426  41.445  0.00  0.00    +0.000 F 
ATOM     27  C   UNL     1      46.721  33.158  40.633  0.00  0.00    +0.000 A 
ATOM     28  C   UNL     1      47.911  33.857  40.632  0.00  0.00    +0.000 A 
ATOM     29  C   UNL     1      48.926  33.498  39.770  0.00  0.00    +0.000 A 
ATOM     30  H   UNL     1      49.810  34.096  39.840  0.00  0.00    +0.000 HD
ATOM     31  C   UNL     1      48.744  32.435  38.907  0.00  0.00    +0.000 A 
ATOM     32  H   UNL     1      49.541  32.166  38.241  0.00  0.00    +0.000 HD
ATOM     33  C   UNL     1      47.535  31.739  38.921  0.00  0.00    +0.000 A 
ATOM     34  C   UNL     1      46.489  32.077  39.780  0.00  0.00    +0.000 A 
ENDBRANCH  24  28
ENDBRANCH   1  24
TORSDOF 3
