
 OpenBabel03242521173D

 38 40  0  0  0  0  0  0  0  0999 V2000
   44.5520   35.5710   44.8810 C   0  0  0  0  0  0  0  0  0  0  0  0
   45.1450   35.5650   43.6010 C   0  0  0  0  0  0  0  0  0  0  0  0
   46.1480   34.6380   43.3740 C   0  0  0  0  0  0  0  0  0  0  0  0
   46.5200   33.7740   44.3920 N   0  0  0  0  0  0  0  0  0  0  0  0
   45.9220   33.8260   45.5910 C   0  0  0  0  0  0  0  0  0  0  0  0
   44.9300   34.7210   45.8580 N   0  0  0  0  0  0  0  0  0  0  0  0
   43.7630   36.2750   45.1110 H   0  0  0  0  0  0  0  0  0  0  0  0
   44.8280   36.2500   42.8400 H   0  0  0  0  0  0  0  0  0  0  0  0
   46.7630   34.6080   42.0930 N   0  0  0  0  0  0  0  0  0  0  0  0
   47.9450   35.2160   41.9310 C   0  0  0  0  0  0  0  0  0  0  0  0
   48.5600   35.1980   40.6910 C   0  0  0  0  0  0  0  0  0  0  0  0
   47.9140   34.5440   39.6700 C   0  0  0  0  0  0  0  0  0  0  0  0
   48.4620   34.5140   38.5150 O   0  0  0  0  0  0  0  0  0  0  0  0
   46.7210   33.9200   39.7990 N   0  0  0  0  0  0  0  0  0  0  0  0
   46.1810   33.9820   41.0440 C   0  0  0  0  0  0  0  0  0  0  0  0
   45.0780   33.4420   41.2870 O   0  0  0  0  0  0  0  0  0  0  0  0
   48.4240   35.7220   42.7630 H   0  0  0  0  0  0  0  0  0  0  0  0
   49.5120   35.6770   40.5240 H   0  0  0  0  0  0  0  0  0  0  0  0
   46.2350   33.4270   39.0200 H   0  0  0  0  0  0  0  0  0  0  0  0
   46.5050   32.8030   46.5050 C   0  0  0  0  0  0  0  0  0  0  0  0
   47.3890   33.2970   46.9720 H   0  0  0  0  0  0  0  0  0  0  0  0
   46.8210   31.8980   45.9780 H   0  0  0  0  0  0  0  0  0  0  0  0
   45.5340   32.5080   47.6380 C   0  0  0  0  0  0  0  0  0  0  0  0
   44.7750   33.3240   47.6670 H   0  0  0  0  0  0  0  0  0  0  0  0
   46.0230   32.5010   48.6280 H   0  0  0  0  0  0  0  0  0  0  0  0
   45.3560   30.0300   47.6430 C   0  0  0  0  0  0  0  0  0  0  0  0
   46.4620   30.0940   48.2520 O   0  0  0  0  0  0  0  0  0  0  0  0
   44.8380   31.2880   47.3390 N   0  0  0  0  0  0  0  0  0  0  0  0
   43.9110   31.3630   46.8770 H   0  0  0  0  0  0  0  0  0  0  0  0
   44.0010   29.2280   45.2210 F   0  0  0  0  0  0  0  0  0  0  0  0
   44.1310   28.3280   46.2090 C   0  0  0  0  0  0  0  0  0  0  0  0
   44.7840   28.7480   47.3460 C   0  0  0  0  0  0  0  0  0  0  0  0
   44.8670   27.7400   48.3080 C   0  0  0  0  0  0  0  0  0  0  0  0
   45.3680   27.9540   49.2640 H   0  0  0  0  0  0  0  0  0  0  0  0
   44.3550   26.4760   48.1360 C   0  0  0  0  0  0  0  0  0  0  0  0
   44.4640   25.7590   48.9320 H   0  0  0  0  0  0  0  0  0  0  0  0
   43.7180   26.1370   46.9690 C   0  0  0  0  0  0  0  0  0  0  0  0
   43.6050   27.0920   45.9800 C   0  0  0  0  0  0  0  0  0  0  0  0
  1  7  1  0  0  0  0
  1  6  1  0  0  0  0
  2  1  2  0  0  0  0
  3  2  1  0  0  0  0
  3  4  2  0  0  0  0
  4  5  1  0  0  0  0
  5  6  2  0  0  0  0
  5 20  1  0  0  0  0
  8  2  1  0  0  0  0
  9  3  1  0  0  0  0
 10  9  1  0  0  0  0
 10 17  1  0  0  0  0
 11 10  2  0  0  0  0
 12 14  1  0  0  0  0
 12 11  1  0  0  0  0
 13 12  2  0  0  0  0
 14 15  1  0  0  0  0
 15 16  2  0  0  0  0
 15  9  1  0  0  0  0
 18 11  1  0  0  0  0
 19 14  1  0  0  0  0
 20 21  1  0  0  0  0
 20 23  1  0  0  0  0
 22 20  1  0  0  0  0
 23 24  1  0  0  0  0
 23 25  1  0  0  0  0
 26 27  2  0  0  0  0
 28 23  1  0  0  0  0
 28 26  1  0  0  0  0
 29 28  1  0  0  0  0
 30 31  1  0  0  0  0
 31 32  1  0  0  0  0
 32 26  1  0  0  0  0
 32 33  2  0  0  0  0
 33 34  1  0  0  0  0
 35 33  1  0  0  0  0
 35 36  1  0  0  0  0
 37 35  2  0  0  0  0
 38 31  2  0  0  0  0
 38 37  1  0  0  0  0
M  END
>  <minimizedAffinity>
-6.72308207

>  <minimizedRMSD>
1.39492369

$$$$
