
 OpenBabel03242519403D

 29 30  0  0  0  0  0  0  0  0999 V2000
   48.0090   32.6850   41.6410 O   0  0  0  0  0  0  0  0  0  0  0  0
   46.9870   33.7890   41.2750 P   0  0  2  0  0  0  0  0  0  0  0  0
   45.5000   33.4490   42.0550 O   0  0  0  0  0  0  0  0  0  0  0  0
   44.3500   35.8760   44.5160 C   0  0  0  0  0  0  0  0  0  0  0  0
   44.6050   35.2620   43.2680 C   0  0  0  0  0  0  0  0  0  0  0  0
   45.2610   34.0230   43.2850 C   0  0  0  0  0  0  0  0  0  0  0  0
   45.6070   33.4910   44.4740 N   0  0  0  0  0  0  0  0  0  0  0  0
   45.3480   34.1070   45.6500 C   0  0  0  0  0  0  0  0  0  0  0  0
   44.7230   35.2940   45.6790 N   0  0  0  0  0  0  0  0  0  0  0  0
   43.8430   36.8330   44.5060 H   0  0  0  0  0  0  0  0  0  0  0  0
   44.2730   35.7950   42.3840 H   0  0  0  0  0  0  0  0  0  0  0  0
   45.6680   33.5930   46.5400 H   0  0  0  0  0  0  0  0  0  0  0  0
   46.7460   33.7960   39.6340 O   0  0  0  0  0  0  0  0  0  0  0  0
   45.7720   33.1900   38.8990 C   0  0  0  0  0  0  0  0  0  0  0  0
   46.1420   32.3660   37.8960 O   0  0  0  0  0  0  0  0  0  0  0  0
   43.6860   34.8870   40.0140 F   0  0  0  0  0  0  0  0  0  0  0  0
   43.4210   33.8280   39.2210 C   0  0  0  0  0  0  0  0  0  0  0  0
   44.3240   32.9820   38.6630 C   0  0  0  0  0  0  0  0  0  0  0  0
   43.8460   31.9390   37.8750 C   0  0  0  0  0  0  0  0  0  0  0  0
   44.6610   31.3130   37.4700 H   0  0  0  0  0  0  0  0  0  0  0  0
   42.5420   31.6430   37.5830 C   0  0  0  0  0  0  0  0  0  0  0  0
   42.2660   30.8110   36.9610 H   0  0  0  0  0  0  0  0  0  0  0  0
   41.6790   32.5250   38.1710 C   0  0  0  0  0  0  0  0  0  0  0  0
   42.0650   33.5760   38.9570 C   0  0  0  0  0  0  0  0  0  0  0  0
   47.5890   35.2120   41.8820 O   0  0  0  0  0  0  0  0  0  0  0  0
   48.8390   35.5260   41.3730 C   0  0  0  0  0  0  0  0  0  0  0  0
   49.2760   36.7810   41.7660 F   0  0  0  0  0  0  0  0  0  0  0  0
   49.7300   34.5440   41.6640 F   0  0  0  0  0  0  0  0  0  0  0  0
   48.6920   35.5780   39.9870 F   0  0  0  0  0  0  0  0  0  0  0  0
  2  1  2  1  0  0  0
  2 25  1  0  0  0  0
  2  3  1  0  0  0  0
  3  6  1  0  0  0  0
  4  9  1  0  0  0  0
  5  6  1  0  0  0  0
  5  4  2  0  0  0  0
  6  7  2  0  0  0  0
  7  8  1  0  0  0  0
  8  9  2  0  0  0  0
  8 12  1  0  0  0  0
 10  4  1  0  0  0  0
 11  5  1  0  0  0  0
 13  2  1  0  0  0  0
 14 13  1  0  0  0  0
 15 14  2  0  0  0  0
 17 16  1  0  0  0  0
 18 14  1  0  0  0  0
 18 17  2  0  0  0  0
 19 18  1  0  0  0  0
 20 19  1  0  0  0  0
 21 19  2  0  0  0  0
 21 23  1  0  0  0  0
 22 21  1  0  0  0  0
 23 24  2  0  0  0  0
 24 17  1  0  0  0  0
 26 28  1  0  0  0  0
 26 27  1  0  0  0  0
 26 25  1  0  0  0  0
 29 26  1  0  0  0  0
M  END
>  <minimizedAffinity>
-5.45976114

>  <minimizedRMSD>
2.14987206

$$$$
