
 OpenBabel03252502293D

 35 37  0  0  0  0  0  0  0  0999 V2000
   37.4240   31.3620   40.0110 C   0  0  0  0  0  0  0  0  0  0  0  0
   37.3430   32.6910   39.6160 C   0  0  0  0  0  0  0  0  0  0  0  0
   38.2790   33.5890   40.1030 C   0  0  0  0  0  0  0  0  0  0  0  0
   39.2670   33.1450   40.9650 C   0  0  0  0  0  0  0  0  0  0  0  0
   39.3630   31.8370   41.3660 C   0  0  0  0  0  0  0  0  0  0  0  0
   38.4040   30.9470   40.8600 C   0  0  0  0  0  0  0  0  0  0  0  0
   36.5760   33.0360   38.9460 H   0  0  0  0  0  0  0  0  0  0  0  0
   38.2960   34.6390   39.8530 H   0  0  0  0  0  0  0  0  0  0  0  0
   40.0420   33.7890   41.3930 H   0  0  0  0  0  0  0  0  0  0  0  0
   40.1290   31.4740   42.0400 H   0  0  0  0  0  0  0  0  0  0  0  0
   35.2780   29.2690   37.7270 C   0  0  0  0  0  0  0  0  0  0  0  0
   36.2990   30.1390   38.1370 C   0  0  0  0  0  0  0  0  0  0  0  0
   36.4180   30.4760   39.4670 C   0  0  0  0  0  0  0  0  0  0  0  0
   35.5070   29.9230   40.3110 N   0  0  0  0  0  0  0  0  0  0  0  0
   34.5210   29.0840   39.9230 C   0  0  0  0  0  0  0  0  0  0  0  0
   34.4070   28.7570   38.6180 N   0  0  0  0  0  0  0  0  0  0  0  0
   37.0010   30.5570   37.4430 H   0  0  0  0  0  0  0  0  0  0  0  0
   33.8580   28.7090   40.6870 H   0  0  0  0  0  0  0  0  0  0  0  0
   35.1370   28.9000   36.2990 C   0  0  0  0  0  0  0  0  0  0  0  0
   36.0350   29.6900   35.5720 F   0  0  0  0  0  0  0  0  0  0  0  0
   33.8780   29.3120   35.9070 F   0  0  0  0  0  0  0  0  0  0  0  0
   35.3710   27.5760   36.0550 F   0  0  0  0  0  0  0  0  0  0  0  0
   38.1630   28.8100   42.3470 C   0  0  0  0  0  0  0  0  0  0  0  0
   37.8740   29.2970   43.4580 O   0  0  0  0  0  0  0  0  0  0  0  0
   38.4130   29.5790   41.1850 N   0  0  0  0  0  0  0  0  0  0  0  0
   38.6970   29.1650   40.2710 H   0  0  0  0  0  0  0  0  0  0  0  0
   40.2400   27.0710   43.4600 F   0  0  0  0  0  0  0  0  0  0  0  0
   39.1780   26.5120   42.8500 C   0  0  0  0  0  0  0  0  0  0  0  0
   38.2290   27.3580   42.3290 C   0  0  0  0  0  0  0  0  0  0  0  0
   37.2030   26.6280   41.7250 C   0  0  0  0  0  0  0  0  0  0  0  0
   36.3500   27.1350   41.2510 H   0  0  0  0  0  0  0  0  0  0  0  0
   37.1380   25.2540   41.6520 C   0  0  0  0  0  0  0  0  0  0  0  0
   36.3140   24.7570   41.1680 H   0  0  0  0  0  0  0  0  0  0  0  0
   38.1280   24.5020   42.1980 C   0  0  0  0  0  3  0  0  0  0  0  0
   39.1650   25.1450   42.8070 C   0  0  0  0  0  3  0  0  0  0  0  0
  1  6  1  0  0  0  0
  2  1  2  0  0  0  0
  2  3  1  0  0  0  0
  3  4  2  0  0  0  0
  4  5  1  0  0  0  0
  4  9  1  0  0  0  0
  5 10  1  0  0  0  0
  6 25  1  0  0  0  0
  6  5  2  0  0  0  0
  7  2  1  0  0  0  0
  8  3  1  0  0  0  0
 11 12  2  0  0  0  0
 11 16  1  0  0  0  0
 12 13  1  0  0  0  0
 13  1  1  0  0  0  0
 13 14  2  0  0  0  0
 15 14  1  0  0  0  0
 15 18  1  0  0  0  0
 16 15  2  0  0  0  0
 17 12  1  0  0  0  0
 19 11  1  0  0  0  0
 20 19  1  0  0  0  0
 21 19  1  0  0  0  0
 22 19  1  0  0  0  0
 23 24  2  0  0  0  0
 25 23  1  0  0  0  0
 26 25  1  0  0  0  0
 28 27  1  0  0  0  0
 29 23  1  0  0  0  0
 29 28  2  0  0  0  0
 30 29  1  0  0  0  0
 31 30  1  0  0  0  0
 32 30  2  0  0  0  0
 32 34  1  0  0  0  0
 33 32  1  0  0  0  0
 34 35  2  0  0  0  0
 35 28  1  0  0  0  0
M  END
>  <minimizedAffinity>
-6.30394173

$$$$

 OpenBabel03252502293D

 35 37  0  0  0  0  0  0  0  0999 V2000
   37.8270   31.0340   39.6950 C   0  0  0  0  0  0  0  0  0  0  0  0
   37.6200   32.3020   39.1670 C   0  0  0  0  0  0  0  0  0  0  0  0
   38.1880   33.3910   39.8090 C   0  0  0  0  0  0  0  0  0  0  0  0
   38.9430   33.1920   40.9520 C   0  0  0  0  0  0  0  0  0  0  0  0
   39.1590   31.9480   41.4870 C   0  0  0  0  0  0  0  0  0  0  0  0
   38.5740   30.8610   40.8190 C   0  0  0  0  0  0  0  0  0  0  0  0
   37.0330   32.4570   38.2800 H   0  0  0  0  0  0  0  0  0  0  0  0
   38.0820   34.4120   39.4750 H   0  0  0  0  0  0  0  0  0  0  0  0
   39.4240   33.9980   41.5160 H   0  0  0  0  0  0  0  0  0  0  0  0
   39.7470   31.7760   42.3800 H   0  0  0  0  0  0  0  0  0  0  0  0
   35.3790   28.7220   38.0020 C   0  0  0  0  0  0  0  0  0  0  0  0
   35.8640   29.8340   38.7060 C   0  0  0  0  0  0  0  0  0  0  0  0
   37.2090   29.9400   38.9770 C   0  0  0  0  0  0  0  0  0  0  0  0
   37.9950   28.9260   38.5280 N   0  0  0  0  0  0  0  0  0  0  0  0
   37.5350   27.8510   37.8490 C   0  0  0  0  0  0  0  0  0  0  0  0
   36.2140   27.7500   37.5850 N   0  0  0  0  0  0  0  0  0  0  0  0
   35.2140   30.6180   39.0450 H   0  0  0  0  0  0  0  0  0  0  0  0
   38.2580   27.1090   37.5440 H   0  0  0  0  0  0  0  0  0  0  0  0
   33.9330   28.5950   37.7050 C   0  0  0  0  0  0  0  0  0  0  0  0
   33.2340   29.0030   38.8470 F   0  0  0  0  0  0  0  0  0  0  0  0
   33.6750   27.2440   37.5740 F   0  0  0  0  0  0  0  0  0  0  0  0
   33.5350   29.3270   36.6220 F   0  0  0  0  0  0  0  0  0  0  0  0
   38.3460   28.7890   42.3980 C   0  0  0  0  0  0  0  0  0  0  0  0
   37.7060   29.2620   43.3570 O   0  0  0  0  0  0  0  0  0  0  0  0
   38.7410   29.5380   41.2630 N   0  0  0  0  0  0  0  0  0  0  0  0
   39.3150   29.1440   40.4860 H   0  0  0  0  0  0  0  0  0  0  0  0
   37.2320   26.5220   40.9170 F   0  0  0  0  0  0  0  0  0  0  0  0
   38.1760   26.2930   41.8480 C   0  0  0  0  0  0  0  0  0  0  0  0
   38.6690   27.3790   42.5310 C   0  0  0  0  0  0  0  0  0  0  0  0
   39.6270   26.9740   43.4630 C   0  0  0  0  0  0  0  0  0  0  0  0
   40.1360   27.7080   44.1070 H   0  0  0  0  0  0  0  0  0  0  0  0
   40.0330   25.6770   43.6800 C   0  0  0  0  0  0  0  0  0  0  0  0
   40.7790   25.4380   44.4170 H   0  0  0  0  0  0  0  0  0  0  0  0
   39.4860   24.6690   42.9520 C   0  0  0  0  0  3  0  0  0  0  0  0
   38.5400   24.9860   42.0200 C   0  0  0  0  0  3  0  0  0  0  0  0
  1  6  1  0  0  0  0
  2  1  2  0  0  0  0
  2  3  1  0  0  0  0
  3  4  2  0  0  0  0
  4  5  1  0  0  0  0
  4  9  1  0  0  0  0
  5 10  1  0  0  0  0
  6 25  1  0  0  0  0
  6  5  2  0  0  0  0
  7  2  1  0  0  0  0
  8  3  1  0  0  0  0
 11 12  1  0  0  0  0
 12 13  2  0  0  0  0
 12 17  1  0  0  0  0
 13  1  1  0  0  0  0
 14 13  1  0  0  0  0
 15 14  2  0  0  0  0
 16 15  1  0  0  0  0
 16 11  2  0  0  0  0
 18 15  1  0  0  0  0
 19 11  1  0  0  0  0
 19 20  1  0  0  0  0
 21 19  1  0  0  0  0
 22 19  1  0  0  0  0
 23 29  1  0  0  0  0
 23 24  2  0  0  0  0
 25 23  1  0  0  0  0
 26 25  1  0  0  0  0
 27 28  1  0  0  0  0
 28 35  2  0  0  0  0
 28 29  1  0  0  0  0
 29 30  2  0  0  0  0
 30 32  1  0  0  0  0
 30 31  1  0  0  0  0
 32 33  1  0  0  0  0
 34 32  2  0  0  0  0
 35 34  1  0  0  0  0
M  END
>  <minimizedAffinity>
-6.09039068

$$$$

 OpenBabel03252502293D

 35 37  0  0  0  0  0  0  0  0999 V2000
   39.6100   29.5280   41.8640 C   0  0  0  0  0  0  0  0  0  0  0  0
   40.6600   29.8180   42.7250 C   0  0  0  0  0  0  0  0  0  0  0  0
   41.4630   30.9130   42.4490 C   0  0  0  0  0  0  0  0  0  0  0  0
   41.2040   31.6860   41.3300 C   0  0  0  0  0  0  0  0  0  0  0  0
   40.1710   31.4150   40.4690 C   0  0  0  0  0  0  0  0  0  0  0  0
   39.3710   30.3020   40.7700 C   0  0  0  0  0  0  0  0  0  0  0  0
   40.8630   29.2190   43.5940 H   0  0  0  0  0  0  0  0  0  0  0  0
   42.3010   31.2170   43.0580 H   0  0  0  0  0  0  0  0  0  0  0  0
   41.7890   32.5650   41.0430 H   0  0  0  0  0  0  0  0  0  0  0  0
   39.9540   32.0090   39.5900 H   0  0  0  0  0  0  0  0  0  0  0  0
   38.3700   26.0290   42.5150 C   0  0  0  0  0  0  0  0  0  0  0  0
   39.2410   27.0680   42.1570 C   0  0  0  0  0  0  0  0  0  0  0  0
   38.8090   28.3730   42.2090 C   0  0  0  0  0  0  0  0  0  0  0  0
   37.5260   28.5660   42.6170 N   0  0  0  0  0  0  0  0  0  0  0  0
   36.6800   27.5700   42.9640 C   0  0  0  0  0  0  0  0  0  0  0  0
   37.1090   26.2900   42.9100 N   0  0  0  0  0  0  0  0  0  0  0  0
   40.2480   26.8790   41.8390 H   0  0  0  0  0  0  0  0  0  0  0  0
   35.6840   27.8490   43.2720 H   0  0  0  0  0  0  0  0  0  0  0  0
   38.8220   24.6190   42.4610 C   0  0  0  0  0  0  0  0  0  0  0  0
   39.4950   24.4420   41.2460 F   0  0  0  0  0  0  0  0  0  0  0  0
   37.6830   23.8420   42.3710 F   0  0  0  0  0  0  0  0  0  0  0  0
   39.6320   24.2690   43.5040 F   0  0  0  0  0  0  0  0  0  0  0  0
   36.9760   30.4480   39.7320 C   0  0  0  0  0  0  0  0  0  0  0  0
   36.5070   31.4540   40.3000 O   0  0  0  0  0  0  0  0  0  0  0  0
   38.2740   29.9360   39.9710 N   0  0  0  0  0  0  0  0  0  0  0  0
   38.6420   29.0680   39.5230 H   0  0  0  0  0  0  0  0  0  0  0  0
   34.4470   29.0720   40.2670 F   0  0  0  0  0  0  0  0  0  0  0  0
   34.8760   29.1800   38.9960 C   0  0  0  0  0  0  0  0  0  0  0  0
   36.0720   29.8220   38.7820 C   0  0  0  0  0  0  0  0  0  0  0  0
   36.3790   29.8410   37.4200 C   0  0  0  0  0  0  0  0  0  0  0  0
   37.3020   30.3150   37.0540 H   0  0  0  0  0  0  0  0  0  0  0  0
   35.6040   29.2990   36.4200 C   0  0  0  0  0  0  0  0  0  0  0  0
   35.9040   29.3510   35.3870 H   0  0  0  0  0  0  0  0  0  0  0  0
   34.4350   28.6830   36.7310 C   0  0  0  0  0  3  0  0  0  0  0  0
   34.0670   28.6240   38.0440 C   0  0  0  0  0  3  0  0  0  0  0  0
  1 13  1  0  0  0  0
  1  2  1  0  0  0  0
  2  7  1  0  0  0  0
  3  2  2  0  0  0  0
  3  8  1  0  0  0  0
  4  3  1  0  0  0  0
  5  6  1  0  0  0  0
  5  4  2  0  0  0  0
  6  1  2  0  0  0  0
  9  4  1  0  0  0  0
 10  5  1  0  0  0  0
 11 16  1  0  0  0  0
 12 13  1  0  0  0  0
 12 11  2  0  0  0  0
 13 14  2  0  0  0  0
 14 15  1  0  0  0  0
 15 18  1  0  0  0  0
 16 15  2  0  0  0  0
 17 12  1  0  0  0  0
 19 11  1  0  0  0  0
 19 22  1  0  0  0  0
 20 19  1  0  0  0  0
 21 19  1  0  0  0  0
 23 25  1  0  0  0  0
 23 24  2  0  0  0  0
 25  6  1  0  0  0  0
 26 25  1  0  0  0  0
 28 27  1  0  0  0  0
 29 28  1  0  0  0  0
 29 23  1  0  0  0  0
 30 29  2  0  0  0  0
 31 30  1  0  0  0  0
 32 34  2  0  0  0  0
 32 30  1  0  0  0  0
 33 32  1  0  0  0  0
 34 35  1  0  0  0  0
 35 28  2  0  0  0  0
M  END
>  <minimizedAffinity>
-6.05841064

$$$$

 OpenBabel03252502293D

 35 37  0  0  0  0  0  0  0  0999 V2000
   35.8960   27.7100   38.8600 C   0  0  0  0  0  0  0  0  0  0  0  0
   34.8850   27.6950   37.9080 C   0  0  0  0  0  0  0  0  0  0  0  0
   34.5420   26.4870   37.3210 C   0  0  0  0  0  0  0  0  0  0  0  0
   35.2080   25.3330   37.6940 C   0  0  0  0  0  0  0  0  0  0  0  0
   36.2080   25.3280   38.6330 C   0  0  0  0  0  0  0  0  0  0  0  0
   36.5380   26.5630   39.2130 C   0  0  0  0  0  0  0  0  0  0  0  0
   34.3670   28.5900   37.6170 H   0  0  0  0  0  0  0  0  0  0  0  0
   33.7710   26.3760   36.5730 H   0  0  0  0  0  0  0  0  0  0  0  0
   34.9960   24.3420   37.2800 H   0  0  0  0  0  0  0  0  0  0  0  0
   36.7390   24.4350   38.9360 H   0  0  0  0  0  0  0  0  0  0  0  0
   37.0130   31.2670   39.4150 C   0  0  0  0  0  0  0  0  0  0  0  0
   36.7540   30.0610   38.7480 C   0  0  0  0  0  0  0  0  0  0  0  0
   36.2060   29.0020   39.4350 C   0  0  0  0  0  0  0  0  0  0  0  0
   35.9470   29.2090   40.7530 N   0  0  0  0  0  0  0  0  0  0  0  0
   36.1930   30.3690   41.4030 C   0  0  0  0  0  0  0  0  0  0  0  0
   36.7320   31.4050   40.7260 N   0  0  0  0  0  0  0  0  0  0  0  0
   36.9710   29.9310   37.7050 H   0  0  0  0  0  0  0  0  0  0  0  0
   35.9440   30.4120   42.4530 H   0  0  0  0  0  0  0  0  0  0  0  0
   37.6040   32.4140   38.6880 C   0  0  0  0  0  0  0  0  0  0  0  0
   36.9150   33.5640   39.0900 F   0  0  0  0  0  0  0  0  0  0  0  0
   37.2920   32.2390   37.3540 F   0  0  0  0  0  0  0  0  0  0  0  0
   38.9440   32.5660   38.9130 F   0  0  0  0  0  0  0  0  0  0  0  0
   37.6910   26.2520   41.5390 C   0  0  0  0  0  0  0  0  0  0  0  0
   36.8230   25.6240   42.1780 O   0  0  0  0  0  0  0  0  0  0  0  0
   37.5330   26.6800   40.1990 N   0  0  0  0  0  0  0  0  0  0  0  0
   38.2470   27.2430   39.6870 H   0  0  0  0  0  0  0  0  0  0  0  0
   39.3660   24.3680   43.0280 F   0  0  0  0  0  0  0  0  0  0  0  0
   39.7210   25.6650   42.9870 C   0  0  0  0  0  0  0  0  0  0  0  0
   38.9060   26.5230   42.2890 C   0  0  0  0  0  0  0  0  0  0  0  0
   39.4030   27.8270   42.3500 C   0  0  0  0  0  0  0  0  0  0  0  0
   38.8830   28.6560   41.8480 H   0  0  0  0  0  0  0  0  0  0  0  0
   40.5470   28.2140   43.0120 C   0  0  0  0  0  0  0  0  0  0  0  0
   40.8710   29.2410   43.0170 H   0  0  0  0  0  0  0  0  0  0  0  0
   41.2880   27.2900   43.6750 C   0  0  0  0  0  3  0  0  0  0  0  0
   40.8640   25.9930   43.6610 C   0  0  0  0  0  3  0  0  0  0  0  0
  1  6  1  0  0  0  0
  1 13  1  0  0  0  0
  2  1  2  0  0  0  0
  3  4  2  0  0  0  0
  3  2  1  0  0  0  0
  4  5  1  0  0  0  0
  5 10  1  0  0  0  0
  5  6  2  0  0  0  0
  6 25  1  0  0  0  0
  7  2  1  0  0  0  0
  8  3  1  0  0  0  0
  9  4  1  0  0  0  0
 11 16  1  0  0  0  0
 12 11  2  0  0  0  0
 12 13  1  0  0  0  0
 13 14  2  0  0  0  0
 14 15  1  0  0  0  0
 15 18  1  0  0  0  0
 16 15  2  0  0  0  0
 17 12  1  0  0  0  0
 19 22  1  0  0  0  0
 19 20  1  0  0  0  0
 19 11  1  0  0  0  0
 21 19  1  0  0  0  0
 23 24  2  0  0  0  0
 23 29  1  0  0  0  0
 25 23  1  0  0  0  0
 26 25  1  0  0  0  0
 28 27  1  0  0  0  0
 28 35  1  0  0  0  0
 29 30  1  0  0  0  0
 29 28  2  0  0  0  0
 30 32  2  0  0  0  0
 31 30  1  0  0  0  0
 32 33  1  0  0  0  0
 32 34  1  0  0  0  0
 35 34  2  0  0  0  0
M  END
>  <minimizedAffinity>
-6.05140591

$$$$

 OpenBabel03252502293D

 35 37  0  0  0  0  0  0  0  0999 V2000
   36.6590   28.6620   39.9040 C   0  0  0  0  0  0  0  0  0  0  0  0
   35.5320   28.0530   39.3660 C   0  0  0  0  0  0  0  0  0  0  0  0
   34.9930   28.5650   38.1970 C   0  0  0  0  0  0  0  0  0  0  0  0
   35.5830   29.6630   37.5960 C   0  0  0  0  0  0  0  0  0  0  0  0
   36.6950   30.2770   38.1120 C   0  0  0  0  0  0  0  0  0  0  0  0
   37.2240   29.7410   39.2960 C   0  0  0  0  0  0  0  0  0  0  0  0
   35.0730   27.2000   39.8320 H   0  0  0  0  0  0  0  0  0  0  0  0
   34.1210   28.1600   37.7060 H   0  0  0  0  0  0  0  0  0  0  0  0
   35.2190   30.1260   36.6730 H   0  0  0  0  0  0  0  0  0  0  0  0
   37.1690   31.1370   37.6540 H   0  0  0  0  0  0  0  0  0  0  0  0
   38.2130   26.3730   42.4630 C   0  0  0  0  0  0  0  0  0  0  0  0
   37.7520   26.8340   41.2200 C   0  0  0  0  0  0  0  0  0  0  0  0
   37.1730   28.0790   41.1240 C   0  0  0  0  0  0  0  0  0  0  0  0
   37.0870   28.7940   42.2770 N   0  0  0  0  0  0  0  0  0  0  0  0
   37.5290   28.3570   43.4770 C   0  0  0  0  0  0  0  0  0  0  0  0
   38.0960   27.1340   43.5680 N   0  0  0  0  0  0  0  0  0  0  0  0
   37.8360   26.2430   40.3290 H   0  0  0  0  0  0  0  0  0  0  0  0
   37.4060   29.0160   44.3230 H   0  0  0  0  0  0  0  0  0  0  0  0
   38.8360   25.0350   42.5810 C   0  0  0  0  0  0  0  0  0  0  0  0
   39.5770   24.8130   41.4140 F   0  0  0  0  0  0  0  0  0  0  0  0
   37.8060   24.1150   42.5480 F   0  0  0  0  0  0  0  0  0  0  0  0
   39.6390   24.9050   43.6800 F   0  0  0  0  0  0  0  0  0  0  0  0
   38.7040   31.4840   40.5640 C   0  0  0  0  0  0  0  0  0  0  0  0
   37.9160   32.4390   40.7080 O   0  0  0  0  0  0  0  0  0  0  0  0
   38.3720   30.2750   39.9070 N   0  0  0  0  0  0  0  0  0  0  0  0
   39.0510   29.4980   39.7530 H   0  0  0  0  0  0  0  0  0  0  0  0
   40.8320   33.2400   39.5830 F   0  0  0  0  0  0  0  0  0  0  0  0
   41.0390   32.5280   40.7060 C   0  0  0  0  0  0  0  0  0  0  0  0
   40.0230   31.7060   41.1310 C   0  0  0  0  0  0  0  0  0  0  0  0
   40.3960   31.0340   42.2980 C   0  0  0  0  0  0  0  0  0  0  0  0
   39.7090   30.3280   42.7890 H   0  0  0  0  0  0  0  0  0  0  0  0
   41.6050   31.1650   42.9420 C   0  0  0  0  0  0  0  0  0  0  0  0
   41.8250   30.6130   43.8400 H   0  0  0  0  0  0  0  0  0  0  0  0
   42.5480   32.0050   42.4430 C   0  0  0  0  0  3  0  0  0  0  0  0
   42.2570   32.6980   41.3040 C   0  0  0  0  0  3  0  0  0  0  0  0
  1 13  1  0  0  0  0
  2  7  1  0  0  0  0
  2  1  1  0  0  0  0
  3  2  2  0  0  0  0
  4  5  2  0  0  0  0
  4  3  1  0  0  0  0
  5  6  1  0  0  0  0
  6  1  2  0  0  0  0
  6 25  1  0  0  0  0
  8  3  1  0  0  0  0
  9  4  1  0  0  0  0
 10  5  1  0  0  0  0
 11 19  1  0  0  0  0
 11 16  1  0  0  0  0
 12 11  2  0  0  0  0
 13 12  1  0  0  0  0
 13 14  2  0  0  0  0
 14 15  1  0  0  0  0
 15 16  2  0  0  0  0
 15 18  1  0  0  0  0
 17 12  1  0  0  0  0
 19 22  1  0  0  0  0
 20 19  1  0  0  0  0
 21 19  1  0  0  0  0
 23 24  2  0  0  0  0
 23 29  1  0  0  0  0
 25 23  1  0  0  0  0
 26 25  1  0  0  0  0
 27 28  1  0  0  0  0
 28 29  2  0  0  0  0
 28 35  1  0  0  0  0
 29 30  1  0  0  0  0
 30 31  1  0  0  0  0
 30 32  2  0  0  0  0
 32 33  1  0  0  0  0
 34 32  1  0  0  0  0
 35 34  2  0  0  0  0
M  END
>  <minimizedAffinity>
-5.93695736

$$$$

 OpenBabel03252502293D

 35 37  0  0  0  0  0  0  0  0999 V2000
   36.5680   24.5900   39.6470 C   0  0  0  0  0  0  0  0  0  0  0  0
   36.4400   23.2140   39.4980 C   0  0  0  0  0  0  0  0  0  0  0  0
   35.6590   22.7270   38.4630 C   0  0  0  0  0  0  0  0  0  0  0  0
   35.0280   23.6140   37.6080 C   0  0  0  0  0  0  0  0  0  0  0  0
   35.1430   24.9740   37.7390 C   0  0  0  0  0  0  0  0  0  0  0  0
   35.9390   25.4440   38.7940 C   0  0  0  0  0  0  0  0  0  0  0  0
   36.9290   22.5250   40.1620 H   0  0  0  0  0  0  0  0  0  0  0  0
   35.5000   21.6770   38.2680 H   0  0  0  0  0  0  0  0  0  0  0  0
   34.3950   23.3100   36.7670 H   0  0  0  0  0  0  0  0  0  0  0  0
   34.6560   25.6810   37.0780 H   0  0  0  0  0  0  0  0  0  0  0  0
   38.3750   26.6500   42.2340 C   0  0  0  0  0  0  0  0  0  0  0  0
   37.5360   26.3410   41.1540 C   0  0  0  0  0  0  0  0  0  0  0  0
   37.3980   25.0330   40.7460 C   0  0  0  0  0  0  0  0  0  0  0  0
   38.1100   24.1080   41.4430 N   0  0  0  0  0  0  0  0  0  0  0  0
   38.9200   24.3980   42.4850 C   0  0  0  0  0  0  0  0  0  0  0  0
   39.0530   25.6820   42.8820 N   0  0  0  0  0  0  0  0  0  0  0  0
   36.9890   27.0970   40.6250 H   0  0  0  0  0  0  0  0  0  0  0  0
   39.4330   23.5760   42.9600 H   0  0  0  0  0  0  0  0  0  0  0  0
   38.5340   28.0530   42.6820 C   0  0  0  0  0  0  0  0  0  0  0  0
   37.3410   28.4300   43.3090 F   0  0  0  0  0  0  0  0  0  0  0  0
   38.6140   28.8260   41.5390 F   0  0  0  0  0  0  0  0  0  0  0  0
   39.5890   28.2360   43.5300 F   0  0  0  0  0  0  0  0  0  0  0  0
   35.5480   28.0190   38.5710 C   0  0  0  0  0  0  0  0  0  0  0  0
   34.6050   28.0700   37.7560 O   0  0  0  0  0  0  0  0  0  0  0  0
   36.1460   26.8160   39.0170 N   0  0  0  0  0  0  0  0  0  0  0  0
   36.9630   26.7860   39.6650 H   0  0  0  0  0  0  0  0  0  0  0  0
   35.3570   29.1430   41.2680 F   0  0  0  0  0  0  0  0  0  0  0  0
   35.9390   29.8710   40.2970 C   0  0  0  0  0  0  0  0  0  0  0  0
   36.0020   29.3170   39.0420 C   0  0  0  0  0  0  0  0  0  0  0  0
   36.6220   30.1960   38.1510 C   0  0  0  0  0  0  0  0  0  0  0  0
   36.7640   29.9260   37.0940 H   0  0  0  0  0  0  0  0  0  0  0  0
   37.1080   31.4440   38.4700 C   0  0  0  0  0  0  0  0  0  0  0  0
   37.5760   32.0700   37.7300 H   0  0  0  0  0  0  0  0  0  0  0  0
   37.0000   31.9050   39.7430 C   0  0  0  0  0  3  0  0  0  0  0  0
   36.4040   31.1020   40.6710 C   0  0  0  0  0  3  0  0  0  0  0  0
  1 13  1  0  0  0  0
  2  1  1  0  0  0  0
  2  7  1  0  0  0  0
  3  2  2  0  0  0  0
  4  5  2  0  0  0  0
  4  3  1  0  0  0  0
  5  6  1  0  0  0  0
  6 25  1  0  0  0  0
  6  1  2  0  0  0  0
  8  3  1  0  0  0  0
  9  4  1  0  0  0  0
 10  5  1  0  0  0  0
 11 19  1  0  0  0  0
 11 16  1  0  0  0  0
 12 11  2  0  0  0  0
 13 12  1  0  0  0  0
 13 14  2  0  0  0  0
 14 15  1  0  0  0  0
 15 16  2  0  0  0  0
 15 18  1  0  0  0  0
 17 12  1  0  0  0  0
 19 20  1  0  0  0  0
 19 22  1  0  0  0  0
 21 19  1  0  0  0  0
 23 25  1  0  0  0  0
 23 29  1  0  0  0  0
 24 23  2  0  0  0  0
 25 26  1  0  0  0  0
 28 35  1  0  0  0  0
 28 27  1  0  0  0  0
 29 28  2  0  0  0  0
 30 32  2  0  0  0  0
 30 29  1  0  0  0  0
 31 30  1  0  0  0  0
 32 34  1  0  0  0  0
 33 32  1  0  0  0  0
 34 35  2  0  0  0  0
M  END
>  <minimizedAffinity>
-5.90854263

$$$$

 OpenBabel03252502293D

 35 37  0  0  0  0  0  0  0  0999 V2000
   37.1610   30.7750   39.3450 C   0  0  0  0  0  0  0  0  0  0  0  0
   37.2510   32.1490   39.1580 C   0  0  0  0  0  0  0  0  0  0  0  0
   38.0410   32.8880   40.0250 C   0  0  0  0  0  0  0  0  0  0  0  0
   38.7160   32.2460   41.0490 C   0  0  0  0  0  0  0  0  0  0  0  0
   38.6390   30.8920   41.2490 C   0  0  0  0  0  0  0  0  0  0  0  0
   37.8340   30.1650   40.3580 C   0  0  0  0  0  0  0  0  0  0  0  0
   36.7280   32.6480   38.3640 H   0  0  0  0  0  0  0  0  0  0  0  0
   38.1730   33.9570   39.9600 H   0  0  0  0  0  0  0  0  0  0  0  0
   39.3580   32.7570   41.7740 H   0  0  0  0  0  0  0  0  0  0  0  0
   39.1600   30.3740   42.0450 H   0  0  0  0  0  0  0  0  0  0  0  0
   35.6990   29.1990   36.2500 C   0  0  0  0  0  0  0  0  0  0  0  0
   36.5910   29.9120   37.0640 C   0  0  0  0  0  0  0  0  0  0  0  0
   36.3230   30.0620   38.4060 C   0  0  0  0  0  0  0  0  0  0  0  0
   35.1750   29.4900   38.8580 N   0  0  0  0  0  0  0  0  0  0  0  0
   34.3110   28.8020   38.0790 C   0  0  0  0  0  0  0  0  0  0  0  0
   34.5770   28.6570   36.7630 N   0  0  0  0  0  0  0  0  0  0  0  0
   37.4880   30.3510   36.6740 H   0  0  0  0  0  0  0  0  0  0  0  0
   33.4320   28.3930   38.5540 H   0  0  0  0  0  0  0  0  0  0  0  0
   35.9740   29.0310   34.8040 C   0  0  0  0  0  0  0  0  0  0  0  0
   37.3120   28.6390   34.6760 F   0  0  0  0  0  0  0  0  0  0  0  0
   35.8990   30.2900   34.2390 F   0  0  0  0  0  0  0  0  0  0  0  0
   35.1570   28.1190   34.1980 F   0  0  0  0  0  0  0  0  0  0  0  0
   37.0580   27.8700   41.3420 C   0  0  0  0  0  0  0  0  0  0  0  0
   36.4440   28.2210   42.3690 O   0  0  0  0  0  0  0  0  0  0  0  0
   37.6930   28.7690   40.4520 N   0  0  0  0  0  0  0  0  0  0  0  0
   38.2420   28.4630   39.6190 H   0  0  0  0  0  0  0  0  0  0  0  0
   36.2960   26.3940   38.9310 F   0  0  0  0  0  0  0  0  0  0  0  0
   36.7400   25.7100   40.0020 C   0  0  0  0  0  0  0  0  0  0  0  0
   37.0780   26.4340   41.1190 C   0  0  0  0  0  0  0  0  0  0  0  0
   37.5080   25.5820   42.1400 C   0  0  0  0  0  0  0  0  0  0  0  0
   37.8220   25.9810   43.1160 H   0  0  0  0  0  0  0  0  0  0  0  0
   37.5870   24.2110   42.0540 C   0  0  0  0  0  0  0  0  0  0  0  0
   37.9280   23.6160   42.8840 H   0  0  0  0  0  0  0  0  0  0  0  0
   37.2290   23.5850   40.9030 C   0  0  0  0  0  3  0  0  0  0  0  0
   36.7980   24.3510   39.8600 C   0  0  0  0  0  3  0  0  0  0  0  0
  1  6  1  0  0  0  0
  2  1  2  0  0  0  0
  2  3  1  0  0  0  0
  3  4  2  0  0  0  0
  4  5  1  0  0  0  0
  4  9  1  0  0  0  0
  5 10  1  0  0  0  0
  6 25  1  0  0  0  0
  6  5  2  0  0  0  0
  7  2  1  0  0  0  0
  8  3  1  0  0  0  0
 11 16  2  0  0  0  0
 11 12  1  0  0  0  0
 12 13  2  0  0  0  0
 13 14  1  0  0  0  0
 13  1  1  0  0  0  0
 15 18  1  0  0  0  0
 15 14  2  0  0  0  0
 16 15  1  0  0  0  0
 17 12  1  0  0  0  0
 19 11  1  0  0  0  0
 20 19  1  0  0  0  0
 21 19  1  0  0  0  0
 22 19  1  0  0  0  0
 23 24  2  0  0  0  0
 25 23  1  0  0  0  0
 26 25  1  0  0  0  0
 27 28  1  0  0  0  0
 28 29  1  0  0  0  0
 29 23  1  0  0  0  0
 29 30  2  0  0  0  0
 30 31  1  0  0  0  0
 32 30  1  0  0  0  0
 32 33  1  0  0  0  0
 34 32  2  0  0  0  0
 35 28  2  0  0  0  0
 35 34  1  0  0  0  0
M  END
>  <minimizedAffinity>
-5.90669298

$$$$

 OpenBabel03252502293D

 35 37  0  0  0  0  0  0  0  0999 V2000
   36.0290   29.0910   38.1170 C   0  0  0  0  0  0  0  0  0  0  0  0
   35.0390   28.1630   37.8210 C   0  0  0  0  0  0  0  0  0  0  0  0
   34.6940   27.9580   36.4940 C   0  0  0  0  0  0  0  0  0  0  0  0
   35.3380   28.6780   35.5020 C   0  0  0  0  0  0  0  0  0  0  0  0
   36.3180   29.5980   35.7760 C   0  0  0  0  0  0  0  0  0  0  0  0
   36.6500   29.7870   37.1260 C   0  0  0  0  0  0  0  0  0  0  0  0
   34.5380   27.6040   38.5900 H   0  0  0  0  0  0  0  0  0  0  0  0
   33.9390   27.2600   36.1670 H   0  0  0  0  0  0  0  0  0  0  0  0
   35.1250   28.5750   34.4330 H   0  0  0  0  0  0  0  0  0  0  0  0
   36.8310   30.1690   35.0120 H   0  0  0  0  0  0  0  0  0  0  0  0
   36.9970   28.5240   41.7150 C   0  0  0  0  0  0  0  0  0  0  0  0
   36.7200   28.2410   40.3690 C   0  0  0  0  0  0  0  0  0  0  0  0
   36.3420   29.2560   39.5200 C   0  0  0  0  0  0  0  0  0  0  0  0
   36.2620   30.4990   40.0660 N   0  0  0  0  0  0  0  0  0  0  0  0
   36.5280   30.7790   41.3610 C   0  0  0  0  0  0  0  0  0  0  0  0
   36.8980   29.7800   42.1910 N   0  0  0  0  0  0  0  0  0  0  0  0
   36.7940   27.2480   39.9720 H   0  0  0  0  0  0  0  0  0  0  0  0
   36.4290   31.8060   41.6780 H   0  0  0  0  0  0  0  0  0  0  0  0
   37.4030   27.4410   42.6400 C   0  0  0  0  0  0  0  0  0  0  0  0
   36.2460   26.9820   43.2810 F   0  0  0  0  0  0  0  0  0  0  0  0
   38.1660   28.0310   43.6290 F   0  0  0  0  0  0  0  0  0  0  0  0
   38.0380   26.4040   42.0170 F   0  0  0  0  0  0  0  0  0  0  0  0
   39.0380   30.6140   37.7970 C   0  0  0  0  0  0  0  0  0  0  0  0
   39.7030   29.5610   37.7410 O   0  0  0  0  0  0  0  0  0  0  0  0
   37.6500   30.6900   37.5270 N   0  0  0  0  0  0  0  0  0  0  0  0
   37.0930   31.5670   37.6190 H   0  0  0  0  0  0  0  0  0  0  0  0
   41.5030   31.6310   36.5890 F   0  0  0  0  0  0  0  0  0  0  0  0
   40.9580   32.3000   37.6210 C   0  0  0  0  0  0  0  0  0  0  0  0
   39.8080   31.7880   38.1710 C   0  0  0  0  0  0  0  0  0  0  0  0
   39.3770   32.5880   39.2330 C   0  0  0  0  0  0  0  0  0  0  0  0
   38.4670   32.3360   39.7990 H   0  0  0  0  0  0  0  0  0  0  0  0
   40.0040   33.7290   39.6780 C   0  0  0  0  0  0  0  0  0  0  0  0
   39.6140   34.2980   40.5050 H   0  0  0  0  0  0  0  0  0  0  0  0
   41.1400   34.1560   39.0670 C   0  0  0  0  0  3  0  0  0  0  0  0
   41.6230   33.4270   38.0210 C   0  0  0  0  0  3  0  0  0  0  0  0
  1 13  1  0  0  0  0
  2  1  1  0  0  0  0
  2  7  1  0  0  0  0
  3  2  2  0  0  0  0
  4  5  2  0  0  0  0
  4  3  1  0  0  0  0
  5  6  1  0  0  0  0
  6 25  1  0  0  0  0
  6  1  2  0  0  0  0
  8  3  1  0  0  0  0
  9  4  1  0  0  0  0
 10  5  1  0  0  0  0
 11 16  1  0  0  0  0
 11 19  1  0  0  0  0
 12 11  2  0  0  0  0
 13 14  2  0  0  0  0
 13 12  1  0  0  0  0
 14 15  1  0  0  0  0
 15 18  1  0  0  0  0
 15 16  2  0  0  0  0
 17 12  1  0  0  0  0
 19 20  1  0  0  0  0
 19 21  1  0  0  0  0
 22 19  1  0  0  0  0
 23 29  1  0  0  0  0
 24 23  2  0  0  0  0
 25 26  1  0  0  0  0
 25 23  1  0  0  0  0
 27 28  1  0  0  0  0
 28 35  2  0  0  0  0
 28 29  1  0  0  0  0
 29 30  2  0  0  0  0
 30 32  1  0  0  0  0
 30 31  1  0  0  0  0
 32 33  1  0  0  0  0
 34 32  2  0  0  0  0
 35 34  1  0  0  0  0
M  END
>  <minimizedAffinity>
-5.88879395

$$$$

 OpenBabel03252502293D

 35 37  0  0  0  0  0  0  0  0999 V2000
   36.8540   29.9020   36.9030 C   0  0  0  0  0  0  0  0  0  0  0  0
   36.5580   30.2230   35.5840 C   0  0  0  0  0  0  0  0  0  0  0  0
   35.8400   29.3150   34.8230 C   0  0  0  0  0  0  0  0  0  0  0  0
   35.4370   28.1180   35.3890 C   0  0  0  0  0  0  0  0  0  0  0  0
   35.7190   27.7840   36.6880 C   0  0  0  0  0  0  0  0  0  0  0  0
   36.4470   28.7190   37.4390 C   0  0  0  0  0  0  0  0  0  0  0  0
   36.8700   31.1530   35.1440 H   0  0  0  0  0  0  0  0  0  0  0  0
   35.5630   29.4760   33.7920 H   0  0  0  0  0  0  0  0  0  0  0  0
   34.8670   27.3490   34.8560 H   0  0  0  0  0  0  0  0  0  0  0  0
   35.4120   26.8510   37.1460 H   0  0  0  0  0  0  0  0  0  0  0  0
   39.5580   32.1660   38.2310 C   0  0  0  0  0  0  0  0  0  0  0  0
   38.9360   31.1840   37.4470 C   0  0  0  0  0  0  0  0  0  0  0  0
   37.6050   30.8930   37.6430 C   0  0  0  0  0  0  0  0  0  0  0  0
   36.9700   31.6040   38.6130 N   0  0  0  0  0  0  0  0  0  0  0  0
   37.5630   32.5530   39.3720 C   0  0  0  0  0  0  0  0  0  0  0  0
   38.8690   32.8340   39.1770 N   0  0  0  0  0  0  0  0  0  0  0  0
   39.4680   30.6410   36.6900 H   0  0  0  0  0  0  0  0  0  0  0  0
   36.9540   33.0490   40.1110 H   0  0  0  0  0  0  0  0  0  0  0  0
   40.9910   32.4870   38.0330 C   0  0  0  0  0  0  0  0  0  0  0  0
   41.4060   31.8410   36.8630 F   0  0  0  0  0  0  0  0  0  0  0  0
   41.6790   31.8730   39.0610 F   0  0  0  0  0  0  0  0  0  0  0  0
   41.2390   33.8280   37.9440 F   0  0  0  0  0  0  0  0  0  0  0  0
   36.1000   28.5640   40.0260 C   0  0  0  0  0  0  0  0  0  0  0  0
   34.9100   28.9170   40.1510 O   0  0  0  0  0  0  0  0  0  0  0  0
   36.7800   28.4960   38.7870 N   0  0  0  0  0  0  0  0  0  0  0  0
   37.7880   28.2420   38.6970 H   0  0  0  0  0  0  0  0  0  0  0  0
   36.9800   30.3580   42.1670 F   0  0  0  0  0  0  0  0  0  0  0  0
   37.1710   29.0330   42.3050 C   0  0  0  0  0  0  0  0  0  0  0  0
   36.7560   28.2220   41.2770 C   0  0  0  0  0  0  0  0  0  0  0  0
   37.0330   26.8840   41.5680 C   0  0  0  0  0  0  0  0  0  0  0  0
   36.7720   26.0840   40.8590 H   0  0  0  0  0  0  0  0  0  0  0  0
   37.6360   26.4260   42.7180 C   0  0  0  0  0  0  0  0  0  0  0  0
   37.8190   25.3770   42.8750 H   0  0  0  0  0  0  0  0  0  0  0  0
   38.0110   27.3080   43.6800 C   0  0  0  0  0  3  0  0  0  0  0  0
   37.7730   28.6340   43.4670 C   0  0  0  0  0  3  0  0  0  0  0  0
  1  6  1  0  0  0  0
  1 13  1  0  0  0  0
  2  1  2  0  0  0  0
  3  4  2  0  0  0  0
  3  2  1  0  0  0  0
  4  5  1  0  0  0  0
  5 10  1  0  0  0  0
  5  6  2  0  0  0  0
  6 25  1  0  0  0  0
  7  2  1  0  0  0  0
  8  3  1  0  0  0  0
  9  4  1  0  0  0  0
 11 16  1  0  0  0  0
 12 13  1  0  0  0  0
 12 11  2  0  0  0  0
 13 14  2  0  0  0  0
 14 15  1  0  0  0  0
 15 18  1  0  0  0  0
 16 15  2  0  0  0  0
 17 12  1  0  0  0  0
 19 11  1  0  0  0  0
 19 21  1  0  0  0  0
 20 19  1  0  0  0  0
 22 19  1  0  0  0  0
 23 24  2  0  0  0  0
 23 29  1  0  0  0  0
 25 23  1  0  0  0  0
 26 25  1  0  0  0  0
 27 28  1  0  0  0  0
 28 35  1  0  0  0  0
 29 30  1  0  0  0  0
 29 28  2  0  0  0  0
 30 32  2  0  0  0  0
 31 30  1  0  0  0  0
 32 33  1  0  0  0  0
 32 34  1  0  0  0  0
 35 34  2  0  0  0  0
M  END
>  <minimizedAffinity>
-5.75489807

$$$$
