
 OpenBabel03242520023D

 30 32  0  0  0  0  0  0  0  0999 V2000
   39.1480   30.1310   42.5590 Br  0  0  0  0  0  0  0  0  0  0  0  0
   37.8110   29.7120   41.2670 C   0  0  0  0  0  0  0  0  0  0  0  0
   37.5910   30.4960   40.1490 C   0  0  0  0  0  0  0  0  0  0  0  0
   36.5970   30.1140   39.2600 C   0  0  0  0  0  0  0  0  0  0  0  0
   35.8250   28.9770   39.4620 C   0  0  0  0  0  0  0  0  0  0  0  0
   36.0420   28.1880   40.5820 C   0  0  0  0  0  0  0  0  0  0  0  0
   37.0380   28.5950   41.4440 C   0  0  0  0  0  0  0  0  0  0  0  0
   36.4910   30.7840   38.4130 H   0  0  0  0  0  0  0  0  0  0  0  0
   35.0700   28.7380   38.7360 H   0  0  0  0  0  0  0  0  0  0  0  0
   35.4610   27.3130   40.7540 H   0  0  0  0  0  0  0  0  0  0  0  0
   38.8790   34.0600   40.2410 C   0  0  0  0  0  0  0  0  0  0  0  0
   38.0700   32.9350   40.4100 C   0  0  0  0  0  0  0  0  0  0  0  0
   38.4240   31.6750   39.9810 C   0  0  0  0  0  0  0  0  0  0  0  0
   39.6420   31.6270   39.3750 N   0  0  0  0  0  0  0  0  0  0  0  0
   40.4320   32.6940   39.2040 C   0  0  0  0  0  0  0  0  0  0  0  0
   40.0590   33.8910   39.6290 N   0  0  0  0  0  0  0  0  0  0  0  0
   38.5130   35.0100   40.6120 H   0  0  0  0  0  0  0  0  0  0  0  0
   37.1150   33.0580   40.9010 H   0  0  0  0  0  0  0  0  0  0  0  0
   41.3970   32.6300   38.7190 H   0  0  0  0  0  0  0  0  0  0  0  0
   37.2520   27.7580   42.6100 C   0  0  0  0  0  0  0  0  0  0  0  0
   36.5790   27.9310   43.6780 O   0  0  0  0  0  0  0  0  0  0  0  0
   36.6730   25.2910   41.5510 F   0  0  0  0  0  0  0  0  0  0  0  0
   37.8370   25.4350   42.2310 C   0  0  0  0  0  0  0  0  0  0  0  0
   38.1880   26.6510   42.7890 C   0  0  0  0  0  0  0  0  0  0  0  0
   39.3770   26.7960   43.4840 C   0  0  0  0  0  0  0  0  0  0  0  0
   39.6370   27.7570   43.9150 H   0  0  0  0  0  0  0  0  0  0  0  0
   40.1820   25.6600   43.5830 C   0  0  0  0  0  0  0  0  0  0  0  0
   41.1110   25.7710   44.1250 H   0  0  0  0  0  0  0  0  0  0  0  0
   39.8260   24.4610   43.0270 C   0  0  0  0  0  3  0  0  0  0  0  0
   38.6430   24.3340   42.3410 C   0  0  0  0  0  3  0  0  0  0  0  0
  2  7  1  0  0  0  0
  2  1  1  0  0  0  0
  3  2  2  0  0  0  0
  4  5  2  0  0  0  0
  4  3  1  0  0  0  0
  5  6  1  0  0  0  0
  6 10  1  0  0  0  0
  6  7  2  0  0  0  0
  7 20  1  0  0  0  0
  8  4  1  0  0  0  0
  9  5  1  0  0  0  0
 11 12  1  0  0  0  0
 11 17  1  0  0  0  0
 12 18  1  0  0  0  0
 13  3  1  0  0  0  0
 13 12  2  0  0  0  0
 14 13  1  0  0  0  0
 15 14  2  0  0  0  0
 15 16  1  0  0  0  0
 16 11  2  0  0  0  0
 19 15  1  0  0  0  0
 20 24  1  0  0  0  0
 20 21  2  0  0  0  0
 22 23  1  0  0  0  0
 23 30  2  0  0  0  0
 23 24  1  0  0  0  0
 24 25  2  0  0  0  0
 25 27  1  0  0  0  0
 25 26  1  0  0  0  0
 27 28  1  0  0  0  0
 29 27  2  0  0  0  0
 30 29  1  0  0  0  0
M  END
>  <minimizedAffinity>
-6.23248816

$$$$

 OpenBabel03242520023D

 30 32  0  0  0  0  0  0  0  0999 V2000
   36.2640   26.4920   38.3330 Br  0  0  0  0  0  0  0  0  0  0  0  0
   36.6100   26.6790   40.1980 C   0  0  0  0  0  0  0  0  0  0  0  0
   37.1590   25.6590   40.9540 C   0  0  0  0  0  0  0  0  0  0  0  0
   37.3770   25.8840   42.3050 C   0  0  0  0  0  0  0  0  0  0  0  0
   37.0620   27.0930   42.9120 C   0  0  0  0  0  0  0  0  0  0  0  0
   36.5120   28.1190   42.1570 C   0  0  0  0  0  0  0  0  0  0  0  0
   36.3090   27.8620   40.8180 C   0  0  0  0  0  0  0  0  0  0  0  0
   37.8080   25.0340   42.8230 H   0  0  0  0  0  0  0  0  0  0  0  0
   37.2550   27.2030   43.9630 H   0  0  0  0  0  0  0  0  0  0  0  0
   36.2640   29.0530   42.6030 H   0  0  0  0  0  0  0  0  0  0  0  0
   36.8980   22.1750   39.4850 C   0  0  0  0  0  0  0  0  0  0  0  0
   36.5840   23.3670   40.1390 C   0  0  0  0  0  0  0  0  0  0  0  0
   37.4710   24.4130   40.2760 C   0  0  0  0  0  0  0  0  0  0  0  0
   38.6870   24.1750   39.7120 N   0  0  0  0  0  0  0  0  0  0  0  0
   39.0060   23.0370   39.0810 C   0  0  0  0  0  0  0  0  0  0  0  0
   38.1280   22.0530   38.9690 N   0  0  0  0  0  0  0  0  0  0  0  0
   36.1320   21.4090   39.4290 H   0  0  0  0  0  0  0  0  0  0  0  0
   35.5950   23.4770   40.5600 H   0  0  0  0  0  0  0  0  0  0  0  0
   39.9810   22.8720   38.6410 H   0  0  0  0  0  0  0  0  0  0  0  0
   35.7330   28.9460   40.0430 C   0  0  0  0  0  0  0  0  0  0  0  0
   34.4800   29.0020   39.8180 O   0  0  0  0  0  0  0  0  0  0  0  0
   36.0570   31.2790   41.4560 F   0  0  0  0  0  0  0  0  0  0  0  0
   36.5300   31.2330   40.1860 C   0  0  0  0  0  0  0  0  0  0  0  0
   36.3980   30.0880   39.4200 C   0  0  0  0  0  0  0  0  0  0  0  0
   36.8810   30.0430   38.1230 C   0  0  0  0  0  0  0  0  0  0  0  0
   36.7690   29.1370   37.5360 H   0  0  0  0  0  0  0  0  0  0  0  0
   37.4960   31.2020   37.6480 C   0  0  0  0  0  0  0  0  0  0  0  0
   37.8740   31.1690   36.6350 H   0  0  0  0  0  0  0  0  0  0  0  0
   37.6210   32.3300   38.4130 C   0  0  0  0  0  3  0  0  0  0  0  0
   37.1370   32.3580   39.6980 C   0  0  0  0  0  3  0  0  0  0  0  0
  1  2  1  0  0  0  0
  2  7  2  0  0  0  0
  2  3  1  0  0  0  0
  3  4  2  0  0  0  0
  4  8  1  0  0  0  0
  4  5  1  0  0  0  0
  5  9  1  0  0  0  0
  6 10  1  0  0  0  0
  6  5  2  0  0  0  0
  7  6  1  0  0  0  0
 11 12  1  0  0  0  0
 12 13  2  0  0  0  0
 12 18  1  0  0  0  0
 13  3  1  0  0  0  0
 14 13  1  0  0  0  0
 15 14  2  0  0  0  0
 16 15  1  0  0  0  0
 16 11  2  0  0  0  0
 17 11  1  0  0  0  0
 19 15  1  0  0  0  0
 20  7  1  0  0  0  0
 21 20  2  0  0  0  0
 23 22  1  0  0  0  0
 24 20  1  0  0  0  0
 24 23  2  0  0  0  0
 25 24  1  0  0  0  0
 26 25  1  0  0  0  0
 27 25  2  0  0  0  0
 27 29  1  0  0  0  0
 28 27  1  0  0  0  0
 29 30  2  0  0  0  0
 30 23  1  0  0  0  0
M  END
>  <minimizedAffinity>
-5.8298378

$$$$

 OpenBabel03242520023D

 30 32  0  0  0  0  0  0  0  0999 V2000
   39.0330   27.2860   39.5200 Br  0  0  0  0  0  0  0  0  0  0  0  0
   38.1910   27.5410   41.2100 C   0  0  0  0  0  0  0  0  0  0  0  0
   37.4610   26.5430   41.8310 C   0  0  0  0  0  0  0  0  0  0  0  0
   36.8830   26.8170   43.0610 C   0  0  0  0  0  0  0  0  0  0  0  0
   37.0160   28.0540   43.6800 C   0  0  0  0  0  0  0  0  0  0  0  0
   37.7470   29.0570   43.0610 C   0  0  0  0  0  0  0  0  0  0  0  0
   38.3090   28.7510   41.8400 C   0  0  0  0  0  0  0  0  0  0  0  0
   36.3290   25.9820   43.4770 H   0  0  0  0  0  0  0  0  0  0  0  0
   36.5420   28.2010   44.6320 H   0  0  0  0  0  0  0  0  0  0  0  0
   37.8600   30.0110   43.5180 H   0  0  0  0  0  0  0  0  0  0  0  0
   38.0340   22.9580   40.7420 C   0  0  0  0  0  0  0  0  0  0  0  0
   38.1510   24.1780   41.4090 C   0  0  0  0  0  0  0  0  0  0  0  0
   37.3500   25.2670   41.1450 C   0  0  0  0  0  0  0  0  0  0  0  0
   36.4290   25.0430   40.1680 N   0  0  0  0  0  0  0  0  0  0  0  0
   36.3010   23.8790   39.5170 C   0  0  0  0  0  0  0  0  0  0  0  0
   37.0900   22.8530   39.7970 N   0  0  0  0  0  0  0  0  0  0  0  0
   38.7110   22.1590   41.0200 H   0  0  0  0  0  0  0  0  0  0  0  0
   38.9100   24.2750   42.1730 H   0  0  0  0  0  0  0  0  0  0  0  0
   35.5600   23.7260   38.7430 H   0  0  0  0  0  0  0  0  0  0  0  0
   39.0700   29.8130   41.2060 C   0  0  0  0  0  0  0  0  0  0  0  0
   40.3210   29.6910   40.9950 O   0  0  0  0  0  0  0  0  0  0  0  0
   37.0110   29.9540   39.3950 F   0  0  0  0  0  0  0  0  0  0  0  0
   37.5710   31.1150   39.8140 C   0  0  0  0  0  0  0  0  0  0  0  0
   38.6130   31.1140   40.7250 C   0  0  0  0  0  0  0  0  0  0  0  0
   39.1830   32.3010   41.1520 C   0  0  0  0  0  0  0  0  0  0  0  0
   39.9990   32.2810   41.8670 H   0  0  0  0  0  0  0  0  0  0  0  0
   38.6530   33.4740   40.6150 C   0  0  0  0  0  0  0  0  0  0  0  0
   39.0980   34.4030   40.9470 H   0  0  0  0  0  0  0  0  0  0  0  0
   37.6230   33.4660   39.7140 C   0  0  0  0  0  3  0  0  0  0  0  0
   37.0670   32.2800   39.3010 C   0  0  0  0  0  3  0  0  0  0  0  0
  1  2  1  0  0  0  0
  2  3  2  0  0  0  0
  2  7  1  0  0  0  0
  3  4  1  0  0  0  0
  4  8  1  0  0  0  0
  4  5  2  0  0  0  0
  5  9  1  0  0  0  0
  6 10  1  0  0  0  0
  6  5  1  0  0  0  0
  7  6  2  0  0  0  0
 11 17  1  0  0  0  0
 11 12  1  0  0  0  0
 12 18  1  0  0  0  0
 13 12  2  0  0  0  0
 13  3  1  0  0  0  0
 14 13  1  0  0  0  0
 15 16  1  0  0  0  0
 15 14  2  0  0  0  0
 16 11  2  0  0  0  0
 19 15  1  0  0  0  0
 20  7  1  0  0  0  0
 21 20  2  0  0  0  0
 22 23  1  0  0  0  0
 23 24  1  0  0  0  0
 24 25  2  0  0  0  0
 24 20  1  0  0  0  0
 25 26  1  0  0  0  0
 27 28  1  0  0  0  0
 27 25  1  0  0  0  0
 29 27  2  0  0  0  0
 30 29  1  0  0  0  0
 30 23  2  0  0  0  0
M  END
>  <minimizedAffinity>
-5.68915701

$$$$

 OpenBabel03242520023D

 30 32  0  0  0  0  0  0  0  0999 V2000
   40.8920   30.2230   39.3410 Br  0  0  0  0  0  0  0  0  0  0  0  0
   39.4860   31.4830   39.5990 C   0  0  0  0  0  0  0  0  0  0  0  0
   39.6720   32.8440   39.4330 C   0  0  0  0  0  0  0  0  0  0  0  0
   38.5920   33.6880   39.6410 C   0  0  0  0  0  0  0  0  0  0  0  0
   37.3410   33.2080   40.0080 C   0  0  0  0  0  0  0  0  0  0  0  0
   37.1500   31.8440   40.1750 C   0  0  0  0  0  0  0  0  0  0  0  0
   38.2440   31.0340   39.9600 C   0  0  0  0  0  0  0  0  0  0  0  0
   38.8250   34.7370   39.4910 H   0  0  0  0  0  0  0  0  0  0  0  0
   36.5460   33.9150   40.1550 H   0  0  0  0  0  0  0  0  0  0  0  0
   36.1990   31.4570   40.4550 H   0  0  0  0  0  0  0  0  0  0  0  0
   43.2410   34.1140   39.5640 C   0  0  0  0  0  0  0  0  0  0  0  0
   41.9720   33.6780   39.9460 C   0  0  0  0  0  0  0  0  0  0  0  0
   40.9980   33.2980   39.0490 C   0  0  0  0  0  0  0  0  0  0  0  0
   41.3900   33.3870   37.7480 N   0  0  0  0  0  0  0  0  0  0  0  0
   42.6030   33.8020   37.3620 C   0  0  0  0  0  0  0  0  0  0  0  0
   43.5140   34.1600   38.2530 N   0  0  0  0  0  0  0  0  0  0  0  0
   43.9400   34.3930   40.3440 H   0  0  0  0  0  0  0  0  0  0  0  0
   41.7390   33.6380   41.0010 H   0  0  0  0  0  0  0  0  0  0  0  0
   42.8910   33.8630   36.3210 H   0  0  0  0  0  0  0  0  0  0  0  0
   38.0250   29.6100   40.1390 C   0  0  0  0  0  0  0  0  0  0  0  0
   37.8300   28.8430   39.1410 O   0  0  0  0  0  0  0  0  0  0  0  0
   35.6190   28.7350   41.1310 F   0  0  0  0  0  0  0  0  0  0  0  0
   36.7440   28.4220   41.8200 C   0  0  0  0  0  0  0  0  0  0  0  0
   37.9880   28.8320   41.3740 C   0  0  0  0  0  0  0  0  0  0  0  0
   39.1350   28.5110   42.0790 C   0  0  0  0  0  0  0  0  0  0  0  0
   40.1030   28.8410   41.7150 H   0  0  0  0  0  0  0  0  0  0  0  0
   38.9610   27.7640   43.2450 C   0  0  0  0  0  0  0  0  0  0  0  0
   39.8560   27.5120   43.7980 H   0  0  0  0  0  0  0  0  0  0  0  0
   37.7260   27.3620   43.6790 C   0  0  0  0  0  3  0  0  0  0  0  0
   36.5980   27.6890   42.9670 C   0  0  0  0  0  3  0  0  0  0  0  0
  1  2  1  0  0  0  0
  2  7  1  0  0  0  0
  3  2  2  0  0  0  0
  3  4  1  0  0  0  0
  4  5  2  0  0  0  0
  5  9  1  0  0  0  0
  5  6  1  0  0  0  0
  6 10  1  0  0  0  0
  7 20  1  0  0  0  0
  7  6  2  0  0  0  0
  8  4  1  0  0  0  0
 11 12  1  0  0  0  0
 11 17  1  0  0  0  0
 12 18  1  0  0  0  0
 13  3  1  0  0  0  0
 13 12  2  0  0  0  0
 14 13  1  0  0  0  0
 15 14  2  0  0  0  0
 15 16  1  0  0  0  0
 16 11  2  0  0  0  0
 19 15  1  0  0  0  0
 20 24  1  0  0  0  0
 21 20  2  0  0  0  0
 22 23  1  0  0  0  0
 23 30  1  0  0  0  0
 24 23  2  0  0  0  0
 24 25  1  0  0  0  0
 25 27  2  0  0  0  0
 26 25  1  0  0  0  0
 27 29  1  0  0  0  0
 27 28  1  0  0  0  0
 30 29  2  0  0  0  0
M  END
>  <minimizedAffinity>
-5.66209602

$$$$

 OpenBabel03242520023D

 30 32  0  0  0  0  0  0  0  0999 V2000
   40.7040   29.5330   40.7880 Br  0  0  0  0  0  0  0  0  0  0  0  0
   38.8770   30.0700   40.7280 C   0  0  0  0  0  0  0  0  0  0  0  0
   38.4510   31.1650   39.9980 C   0  0  0  0  0  0  0  0  0  0  0  0
   37.1020   31.4830   40.0110 C   0  0  0  0  0  0  0  0  0  0  0  0
   36.1760   30.7390   40.7330 C   0  0  0  0  0  0  0  0  0  0  0  0
   36.5990   29.6400   41.4660 C   0  0  0  0  0  0  0  0  0  0  0  0
   37.9460   29.3520   41.4300 C   0  0  0  0  0  0  0  0  0  0  0  0
   36.8540   32.3540   39.4140 H   0  0  0  0  0  0  0  0  0  0  0  0
   35.1450   31.0390   40.7020 H   0  0  0  0  0  0  0  0  0  0  0  0
   35.9050   29.0570   42.0250 H   0  0  0  0  0  0  0  0  0  0  0  0
   40.8220   32.3350   37.2810 C   0  0  0  0  0  0  0  0  0  0  0  0
   39.8540   31.6090   37.9770 C   0  0  0  0  0  0  0  0  0  0  0  0
   39.4560   31.9120   39.2600 C   0  0  0  0  0  0  0  0  0  0  0  0
   40.0960   32.9910   39.7910 N   0  0  0  0  0  0  0  0  0  0  0  0
   41.0260   33.7000   39.1380 C   0  0  0  0  0  0  0  0  0  0  0  0
   41.3850   33.3790   37.9050 N   0  0  0  0  0  0  0  0  0  0  0  0
   41.0680   32.0190   36.2740 H   0  0  0  0  0  0  0  0  0  0  0  0
   39.3930   30.7650   37.4850 H   0  0  0  0  0  0  0  0  0  0  0  0
   41.5210   34.5540   39.5820 H   0  0  0  0  0  0  0  0  0  0  0  0
   38.3710   28.1990   42.2030 C   0  0  0  0  0  0  0  0  0  0  0  0
   38.9400   28.3380   43.3350 O   0  0  0  0  0  0  0  0  0  0  0  0
   36.2900   26.7370   43.2420 F   0  0  0  0  0  0  0  0  0  0  0  0
   37.1770   26.1010   42.4380 C   0  0  0  0  0  0  0  0  0  0  0  0
   38.2480   26.7790   41.8830 C   0  0  0  0  0  0  0  0  0  0  0  0
   39.1530   26.1270   41.0620 C   0  0  0  0  0  0  0  0  0  0  0  0
   39.9870   26.6750   40.6350 H   0  0  0  0  0  0  0  0  0  0  0  0
   38.9220   24.7700   40.8360 C   0  0  0  0  0  0  0  0  0  0  0  0
   39.6280   24.2580   40.1960 H   0  0  0  0  0  0  0  0  0  0  0  0
   37.8600   24.1060   41.3890 C   0  0  0  0  0  3  0  0  0  0  0  0
   36.9710   24.7680   42.2010 C   0  0  0  0  0  3  0  0  0  0  0  0
  2  1  1  0  0  0  0
  2  7  1  0  0  0  0
  3  4  1  0  0  0  0
  3  2  2  0  0  0  0
  4  5  2  0  0  0  0
  5  6  1  0  0  0  0
  6 10  1  0  0  0  0
  7  6  2  0  0  0  0
  7 20  1  0  0  0  0
  8  4  1  0  0  0  0
  9  5  1  0  0  0  0
 11 16  2  0  0  0  0
 11 12  1  0  0  0  0
 12 13  2  0  0  0  0
 13 14  1  0  0  0  0
 13  3  1  0  0  0  0
 15 19  1  0  0  0  0
 15 14  2  0  0  0  0
 16 15  1  0  0  0  0
 17 11  1  0  0  0  0
 18 12  1  0  0  0  0
 20 21  2  0  0  0  0
 23 22  1  0  0  0  0
 24 20  1  0  0  0  0
 24 23  2  0  0  0  0
 25 24  1  0  0  0  0
 26 25  1  0  0  0  0
 27 25  2  0  0  0  0
 27 29  1  0  0  0  0
 28 27  1  0  0  0  0
 29 30  2  0  0  0  0
 30 23  1  0  0  0  0
M  END
>  <minimizedAffinity>
-5.64482832

$$$$

 OpenBabel03242520023D

 30 32  0  0  0  0  0  0  0  0999 V2000
   38.8820   27.1410   39.4220 Br  0  0  0  0  0  0  0  0  0  0  0  0
   38.1200   27.3740   41.1530 C   0  0  0  0  0  0  0  0  0  0  0  0
   37.4530   26.3560   41.8110 C   0  0  0  0  0  0  0  0  0  0  0  0
   36.9300   26.6150   43.0690 C   0  0  0  0  0  0  0  0  0  0  0  0
   37.0570   27.8570   43.6790 C   0  0  0  0  0  0  0  0  0  0  0  0
   37.7260   28.8810   43.0230 C   0  0  0  0  0  0  0  0  0  0  0  0
   38.2330   28.5890   41.7750 C   0  0  0  0  0  0  0  0  0  0  0  0
   36.4240   25.7650   43.5130 H   0  0  0  0  0  0  0  0  0  0  0  0
   36.6290   27.9930   44.6540 H   0  0  0  0  0  0  0  0  0  0  0  0
   37.8340   29.8390   43.4730 H   0  0  0  0  0  0  0  0  0  0  0  0
   38.1160   22.8100   40.6470 C   0  0  0  0  0  0  0  0  0  0  0  0
   38.2310   24.0350   41.3060 C   0  0  0  0  0  0  0  0  0  0  0  0
   37.3450   25.0760   41.1330 C   0  0  0  0  0  0  0  0  0  0  0  0
   36.3420   24.7990   40.2550 N   0  0  0  0  0  0  0  0  0  0  0  0
   36.2150   23.6300   39.6140 C   0  0  0  0  0  0  0  0  0  0  0  0
   37.0860   22.6510   39.8050 N   0  0  0  0  0  0  0  0  0  0  0  0
   38.8630   22.0520   40.8500 H   0  0  0  0  0  0  0  0  0  0  0  0
   39.0580   24.1760   41.9880 H   0  0  0  0  0  0  0  0  0  0  0  0
   35.4080   23.4340   38.9200 H   0  0  0  0  0  0  0  0  0  0  0  0
   38.9290   29.6710   41.1030 C   0  0  0  0  0  0  0  0  0  0  0  0
   40.2010   29.6990   41.0410 O   0  0  0  0  0  0  0  0  0  0  0  0
   39.4410   32.1880   42.0750 F   0  0  0  0  0  0  0  0  0  0  0  0
   38.6720   32.0790   40.9640 C   0  0  0  0  0  0  0  0  0  0  0  0
   38.3760   30.8400   40.4230 C   0  0  0  0  0  0  0  0  0  0  0  0
   37.5910   30.7300   39.2880 C   0  0  0  0  0  0  0  0  0  0  0  0
   37.3690   29.7510   38.8770 H   0  0  0  0  0  0  0  0  0  0  0  0
   37.1250   31.9240   38.7360 C   0  0  0  0  0  0  0  0  0  0  0  0
   36.5110   31.8410   37.8490 H   0  0  0  0  0  0  0  0  0  0  0  0
   37.4230   33.1460   39.2780 C   0  0  0  0  0  3  0  0  0  0  0  0
   38.2040   33.2370   40.4040 C   0  0  0  0  0  3  0  0  0  0  0  0
  1  2  1  0  0  0  0
  2  7  2  0  0  0  0
  2  3  1  0  0  0  0
  3  4  2  0  0  0  0
  4  8  1  0  0  0  0
  4  5  1  0  0  0  0
  5  9  1  0  0  0  0
  6 10  1  0  0  0  0
  6  5  2  0  0  0  0
  7  6  1  0  0  0  0
 11 17  1  0  0  0  0
 11 12  1  0  0  0  0
 12 18  1  0  0  0  0
 13 12  2  0  0  0  0
 13  3  1  0  0  0  0
 14 13  1  0  0  0  0
 15 16  1  0  0  0  0
 15 14  2  0  0  0  0
 16 11  2  0  0  0  0
 19 15  1  0  0  0  0
 20  7  1  0  0  0  0
 21 20  2  0  0  0  0
 23 22  1  0  0  0  0
 24 23  1  0  0  0  0
 24 20  1  0  0  0  0
 25 24  2  0  0  0  0
 26 25  1  0  0  0  0
 27 29  2  0  0  0  0
 27 25  1  0  0  0  0
 28 27  1  0  0  0  0
 29 30  1  0  0  0  0
 30 23  2  0  0  0  0
M  END
>  <minimizedAffinity>
-5.60469294

$$$$

 OpenBabel03242520023D

 30 32  0  0  0  0  0  0  0  0999 V2000
   38.4750   28.5860   39.0420 Br  0  0  0  0  0  0  0  0  0  0  0  0
   37.9910   28.3450   40.8700 C   0  0  0  0  0  0  0  0  0  0  0  0
   37.8670   29.4060   41.7480 C   0  0  0  0  0  0  0  0  0  0  0  0
   37.5100   29.1380   43.0610 C   0  0  0  0  0  0  0  0  0  0  0  0
   37.2760   27.8440   43.5120 C   0  0  0  0  0  0  0  0  0  0  0  0
   37.3990   26.7770   42.6340 C   0  0  0  0  0  0  0  0  0  0  0  0
   37.7550   27.0790   41.3370 C   0  0  0  0  0  0  0  0  0  0  0  0
   37.4360   30.0240   43.6810 H   0  0  0  0  0  0  0  0  0  0  0  0
   37.0040   27.7040   44.5410 H   0  0  0  0  0  0  0  0  0  0  0  0
   37.2240   25.7790   42.9600 H   0  0  0  0  0  0  0  0  0  0  0  0
   37.4350   32.7920   40.1000 C   0  0  0  0  0  0  0  0  0  0  0  0
   37.1760   31.5120   40.5930 C   0  0  0  0  0  0  0  0  0  0  0  0
   38.1220   30.7400   41.2300 C   0  0  0  0  0  0  0  0  0  0  0  0
   39.3390   31.3410   41.3350 N   0  0  0  0  0  0  0  0  0  0  0  0
   39.6060   32.5680   40.8690 C   0  0  0  0  0  0  0  0  0  0  0  0
   38.6720   33.2820   40.2610 N   0  0  0  0  0  0  0  0  0  0  0  0
   36.6260   33.3230   39.6130 H   0  0  0  0  0  0  0  0  0  0  0  0
   36.1830   31.1060   40.4690 H   0  0  0  0  0  0  0  0  0  0  0  0
   40.5820   33.0250   40.9640 H   0  0  0  0  0  0  0  0  0  0  0  0
   37.8790   25.9510   40.4320 C   0  0  0  0  0  0  0  0  0  0  0  0
   39.0160   25.4410   40.1670 O   0  0  0  0  0  0  0  0  0  0  0  0
   36.8270   23.6410   41.4810 F   0  0  0  0  0  0  0  0  0  0  0  0
   36.3470   24.0760   40.2900 C   0  0  0  0  0  0  0  0  0  0  0  0
   36.8340   25.2330   39.7070 C   0  0  0  0  0  0  0  0  0  0  0  0
   36.3420   25.6760   38.4910 C   0  0  0  0  0  0  0  0  0  0  0  0
   36.7360   26.5850   38.0480 H   0  0  0  0  0  0  0  0  0  0  0  0
   35.3450   24.8980   37.9020 C   0  0  0  0  0  0  0  0  0  0  0  0
   34.9600   25.2410   36.9520 H   0  0  0  0  0  0  0  0  0  0  0  0
   34.8690   23.7550   38.4860 C   0  0  0  0  0  3  0  0  0  0  0  0
   35.3670   23.3290   39.6930 C   0  0  0  0  0  3  0  0  0  0  0  0
  1  2  1  0  0  0  0
  2  7  2  0  0  0  0
  2  3  1  0  0  0  0
  3  4  2  0  0  0  0
  4  5  1  0  0  0  0
  4  8  1  0  0  0  0
  5  9  1  0  0  0  0
  6 10  1  0  0  0  0
  6  5  2  0  0  0  0
  7  6  1  0  0  0  0
 11 16  2  0  0  0  0
 11 12  1  0  0  0  0
 12 13  2  0  0  0  0
 13 14  1  0  0  0  0
 13  3  1  0  0  0  0
 15 19  1  0  0  0  0
 15 14  2  0  0  0  0
 16 15  1  0  0  0  0
 17 11  1  0  0  0  0
 18 12  1  0  0  0  0
 20  7  1  0  0  0  0
 21 20  2  0  0  0  0
 23 22  1  0  0  0  0
 24 23  1  0  0  0  0
 24 20  1  0  0  0  0
 25 24  2  0  0  0  0
 26 25  1  0  0  0  0
 27 29  2  0  0  0  0
 27 25  1  0  0  0  0
 28 27  1  0  0  0  0
 29 30  1  0  0  0  0
 30 23  2  0  0  0  0
M  END
>  <minimizedAffinity>
-5.53762627

$$$$

 OpenBabel03242520023D

 30 32  0  0  0  0  0  0  0  0999 V2000
   36.9300   26.7040   40.5700 Br  0  0  0  0  0  0  0  0  0  0  0  0
   38.3510   26.2890   41.7700 C   0  0  0  0  0  0  0  0  0  0  0  0
   39.0700   25.1110   41.6840 C   0  0  0  0  0  0  0  0  0  0  0  0
   40.0890   24.8920   42.6000 C   0  0  0  0  0  0  0  0  0  0  0  0
   40.4010   25.8150   43.5910 C   0  0  0  0  0  0  0  0  0  0  0  0
   39.6820   26.9970   43.6800 C   0  0  0  0  0  0  0  0  0  0  0  0
   38.6770   27.1830   42.7540 C   0  0  0  0  0  0  0  0  0  0  0  0
   40.6010   23.9450   42.4630 H   0  0  0  0  0  0  0  0  0  0  0  0
   41.2000   25.5840   44.2690 H   0  0  0  0  0  0  0  0  0  0  0  0
   39.9060   27.7170   44.4310 H   0  0  0  0  0  0  0  0  0  0  0  0
   37.4830   22.2430   39.7810 C   0  0  0  0  0  0  0  0  0  0  0  0
   37.8230   23.1340   40.8000 C   0  0  0  0  0  0  0  0  0  0  0  0
   38.7070   24.1760   40.6320 C   0  0  0  0  0  0  0  0  0  0  0  0
   39.2230   24.2590   39.3750 N   0  0  0  0  0  0  0  0  0  0  0  0
   38.9090   23.4140   38.3840 C   0  0  0  0  0  0  0  0  0  0  0  0
   38.0550   22.4220   38.5820 N   0  0  0  0  0  0  0  0  0  0  0  0
   36.7770   21.4540   40.0090 H   0  0  0  0  0  0  0  0  0  0  0  0
   37.3690   23.0000   41.7710 H   0  0  0  0  0  0  0  0  0  0  0  0
   39.3330   23.5000   37.3920 H   0  0  0  0  0  0  0  0  0  0  0  0
   37.9350   28.4260   42.8620 C   0  0  0  0  0  0  0  0  0  0  0  0
   36.9240   28.5250   43.6310 O   0  0  0  0  0  0  0  0  0  0  0  0
   35.9370   29.5480   41.3480 F   0  0  0  0  0  0  0  0  0  0  0  0
   37.1180   30.2100   41.4360 C   0  0  0  0  0  0  0  0  0  0  0  0
   38.1650   29.6980   42.1820 C   0  0  0  0  0  0  0  0  0  0  0  0
   39.3700   30.3750   42.2710 C   0  0  0  0  0  0  0  0  0  0  0  0
   40.1810   29.9590   42.8600 H   0  0  0  0  0  0  0  0  0  0  0  0
   39.4590   31.5800   41.5730 C   0  0  0  0  0  0  0  0  0  0  0  0
   40.4000   32.1100   41.6400 H   0  0  0  0  0  0  0  0  0  0  0  0
   38.4180   32.0780   40.8370 C   0  0  0  0  0  3  0  0  0  0  0  0
   37.2300   31.3950   40.7600 C   0  0  0  0  0  3  0  0  0  0  0  0
  1  2  1  0  0  0  0
  2  7  1  0  0  0  0
  3  2  2  0  0  0  0
  3  4  1  0  0  0  0
  4  5  2  0  0  0  0
  5  6  1  0  0  0  0
  5  9  1  0  0  0  0
  6 10  1  0  0  0  0
  7 20  1  0  0  0  0
  7  6  2  0  0  0  0
  8  4  1  0  0  0  0
 11 17  1  0  0  0  0
 11 12  1  0  0  0  0
 12 18  1  0  0  0  0
 13 12  2  0  0  0  0
 13  3  1  0  0  0  0
 14 13  1  0  0  0  0
 15 16  1  0  0  0  0
 15 14  2  0  0  0  0
 16 11  2  0  0  0  0
 19 15  1  0  0  0  0
 20 21  2  0  0  0  0
 22 23  1  0  0  0  0
 23 24  1  0  0  0  0
 24 25  2  0  0  0  0
 24 20  1  0  0  0  0
 25 26  1  0  0  0  0
 27 28  1  0  0  0  0
 27 25  1  0  0  0  0
 29 27  2  0  0  0  0
 30 29  1  0  0  0  0
 30 23  2  0  0  0  0
M  END
>  <minimizedAffinity>
-5.50169516

$$$$

 OpenBabel03242520023D

 30 32  0  0  0  0  0  0  0  0999 V2000
   39.6460   27.9510   39.8750 Br  0  0  0  0  0  0  0  0  0  0  0  0
   38.5310   27.7560   41.4080 C   0  0  0  0  0  0  0  0  0  0  0  0
   39.0110   27.2790   42.6150 C   0  0  0  0  0  0  0  0  0  0  0  0
   38.1280   27.1700   43.6790 C   0  0  0  0  0  0  0  0  0  0  0  0
   36.7890   27.5250   43.5650 C   0  0  0  0  0  0  0  0  0  0  0  0
   36.3050   28.0050   42.3570 C   0  0  0  0  0  0  0  0  0  0  0  0
   37.2090   28.1000   41.3210 C   0  0  0  0  0  0  0  0  0  0  0  0
   38.5840   26.7870   44.5850 H   0  0  0  0  0  0  0  0  0  0  0  0
   36.1580   27.4160   44.4270 H   0  0  0  0  0  0  0  0  0  0  0  0
   35.2830   28.2820   42.2500 H   0  0  0  0  0  0  0  0  0  0  0  0
   42.7620   27.4280   43.1370 C   0  0  0  0  0  0  0  0  0  0  0  0
   41.4140   27.7860   43.0760 C   0  0  0  0  0  0  0  0  0  0  0  0
   40.4170   26.9200   42.6850 C   0  0  0  0  0  0  0  0  0  0  0  0
   40.8690   25.6770   42.3620 N   0  0  0  0  0  0  0  0  0  0  0  0
   42.1570   25.3150   42.4150 C   0  0  0  0  0  0  0  0  0  0  0  0
   43.0890   26.1750   42.7950 N   0  0  0  0  0  0  0  0  0  0  0  0
   43.4740   28.1800   43.4570 H   0  0  0  0  0  0  0  0  0  0  0  0
   41.1380   28.7940   43.3480 H   0  0  0  0  0  0  0  0  0  0  0  0
   42.4910   24.3200   42.1530 H   0  0  0  0  0  0  0  0  0  0  0  0
   36.6850   28.6040   40.0640 C   0  0  0  0  0  0  0  0  0  0  0  0
   35.8800   27.9110   39.3610 O   0  0  0  0  0  0  0  0  0  0  0  0
   36.4620   30.9450   41.4830 F   0  0  0  0  0  0  0  0  0  0  0  0
   36.8140   31.0230   40.1760 C   0  0  0  0  0  0  0  0  0  0  0  0
   36.9440   29.8810   39.4050 C   0  0  0  0  0  0  0  0  0  0  0  0
   37.3040   29.9630   38.0700 C   0  0  0  0  0  0  0  0  0  0  0  0
   37.4010   29.0580   37.4800 H   0  0  0  0  0  0  0  0  0  0  0  0
   37.5220   31.2450   37.5630 C   0  0  0  0  0  0  0  0  0  0  0  0
   37.8030   31.3110   36.5200 H   0  0  0  0  0  0  0  0  0  0  0  0
   37.3910   32.3690   38.3320 C   0  0  0  0  0  3  0  0  0  0  0  0
   37.0340   32.2700   39.6550 C   0  0  0  0  0  3  0  0  0  0  0  0
  1  2  1  0  0  0  0
  2  3  1  0  0  0  0
  3 13  1  0  0  0  0
  3  4  2  0  0  0  0
  4  8  1  0  0  0  0
  5  4  1  0  0  0  0
  5  9  1  0  0  0  0
  6  5  2  0  0  0  0
  7  2  2  0  0  0  0
  7  6  1  0  0  0  0
 10  6  1  0  0  0  0
 11 17  1  0  0  0  0
 12 11  1  0  0  0  0
 12 18  1  0  0  0  0
 13 12  2  0  0  0  0
 14 15  2  0  0  0  0
 14 13  1  0  0  0  0
 15 16  1  0  0  0  0
 16 11  2  0  0  0  0
 19 15  1  0  0  0  0
 20  7  1  0  0  0  0
 21 20  2  0  0  0  0
 23 22  1  0  0  0  0
 24 20  1  0  0  0  0
 24 23  2  0  0  0  0
 25 24  1  0  0  0  0
 26 25  1  0  0  0  0
 27 25  2  0  0  0  0
 27 29  1  0  0  0  0
 28 27  1  0  0  0  0
 29 30  2  0  0  0  0
 30 23  1  0  0  0  0
M  END
>  <minimizedAffinity>
-5.41998959

$$$$
