
 OpenBabel03252501323D

 24 25  0  0  0  0  0  0  0  0999 V2000
   42.5340   34.3950   40.7910 C   0  0  0  0  0  0  0  0  0  0  0  0
   42.8710   33.4380   41.5600 O   0  0  0  0  0  0  0  0  0  0  0  0
   43.5350   35.4050   40.7770 N   0  0  0  0  0  0  0  0  0  0  0  0
   43.4010   36.2460   40.1860 H   0  0  0  0  0  0  0  0  0  0  0  0
   39.8310   34.3110   41.8070 F   0  0  0  0  0  0  0  0  0  0  0  0
   39.9940   34.3700   40.4710 C   0  0  0  0  0  0  0  0  0  0  0  0
   41.2840   34.4070   40.0490 C   0  0  0  0  0  0  0  0  0  0  0  0
   41.4220   34.4680   38.6600 C   0  0  0  0  0  0  0  0  0  0  0  0
   42.4040   34.5020   38.1900 H   0  0  0  0  0  0  0  0  0  0  0  0
   40.3330   34.4860   37.8320 C   0  0  0  0  0  0  0  0  0  0  0  0
   40.4780   34.5330   36.7640 H   0  0  0  0  0  0  0  0  0  0  0  0
   39.0410   34.4480   38.2960 C   0  0  0  0  0  0  0  0  0  0  0  0
   38.8950   34.3870   39.6630 C   0  0  0  0  0  0  0  0  0  0  0  0
   44.6180   35.0370   41.6500 C   0  0  0  0  0  0  0  0  0  0  0  0
   44.6600   35.2190   43.0270 C   0  0  0  0  0  0  0  0  0  0  0  0
   45.8110   34.7860   43.6750 C   0  0  0  0  0  0  0  0  0  0  0  0
   46.7880   34.2310   42.9400 N   0  0  0  0  0  0  0  0  0  0  0  0
   46.7290   34.0620   41.6070 C   0  0  0  0  0  0  0  0  0  0  0  0
   45.6310   34.4690   40.9470 N   0  0  0  0  0  0  0  0  0  0  0  0
   45.8110   34.9420   44.7320 H   0  0  0  0  0  0  0  0  0  0  0  0
   47.5980   33.5980   41.1590 H   0  0  0  0  0  0  0  0  0  0  0  0
   43.5170   35.8260   43.5930 N   0  0  0  0  0  0  0  0  0  0  0  0
   42.8570   35.4450   44.3290 H   0  0  0  0  0  0  0  0  0  0  0  0
   43.3150   36.7800   43.2170 H   0  0  0  0  0  0  0  0  0  0  0  0
  1  2  2  0  0  0  0
  3  1  1  0  0  0  0
  3 14  1  0  0  0  0
  4  3  1  0  0  0  0
  6  5  1  0  0  0  0
  7  6  1  0  0  0  0
  7  1  1  0  0  0  0
  8  7  2  0  0  0  0
  9  8  1  0  0  0  0
 10 12  2  0  0  0  0
 10  8  1  0  0  0  0
 11 10  1  0  0  0  0
 12 13  1  0  0  0  0
 13  6  2  0  0  0  0
 14 15  1  0  0  0  0
 15 22  1  0  0  0  0
 15 16  2  0  0  0  0
 16 20  1  0  0  0  0
 17 16  1  0  0  0  0
 18 17  2  0  0  0  0
 19 18  1  0  0  0  0
 19 14  2  0  0  0  0
 21 18  1  0  0  0  0
 22 23  1  0  0  0  0
 24 22  1  0  0  0  0
M  END
>  <minimizedAffinity>
-5.79752636

>  <minimizedRMSD>
3.92235613

$$$$
