
 OpenBabel03252508493D

 28 30  0  0  0  0  0  0  0  0999 V2000
   45.8120   34.2230   41.0520 C   0  0  0  0  0  0  0  0  0  0  0  0
   46.4400   34.7840   42.1570 C   0  0  0  0  0  0  0  0  0  0  0  0
   47.8110   35.0640   42.0210 C   0  0  0  0  0  0  0  0  0  0  0  0
   48.4250   34.7700   40.8310 N   0  0  0  0  0  0  0  0  0  0  0  0
   47.7700   34.2330   39.8090 C   0  0  0  0  0  0  0  0  0  0  0  0
   46.4600   33.9540   39.9070 N   0  0  0  0  0  0  0  0  0  0  0  0
   48.3140   35.5040   42.8820 H   0  0  0  0  0  0  0  0  0  0  0  0
   48.2640   34.0050   38.8730 H   0  0  0  0  0  0  0  0  0  0  0  0
   45.6910   35.0530   43.3640 C   0  0  0  0  0  0  0  0  0  0  0  0
   45.1030   36.2810   43.6290 C   0  0  0  0  0  0  0  0  0  0  0  0
   44.5080   36.0940   44.8580 C   0  0  0  0  0  0  0  0  0  0  0  0
   44.7190   34.8310   45.3140 N   0  0  0  0  0  0  0  0  0  0  0  0
   45.4370   34.2300   44.3910 N   0  0  0  0  0  0  0  0  0  0  0  0
   45.0630   37.2210   43.0710 H   0  0  0  0  0  0  0  0  0  0  0  0
   43.9230   36.7870   45.4760 H   0  0  0  0  0  0  0  0  0  0  0  0
   44.4460   34.3200   46.1640 H   0  0  0  0  0  0  0  0  0  0  0  0
   44.4660   33.9330   41.1490 O   0  0  0  0  0  0  0  0  0  0  0  0
   43.4180   34.7130   40.7510 C   0  0  0  0  0  0  0  0  0  0  0  0
   43.3200   35.9900   40.8360 O   0  0  0  0  0  0  0  0  0  0  0  0
   42.7060   35.0940   38.0270 F   0  0  0  0  0  0  0  0  0  0  0  0
   41.8490   34.3620   38.7920 C   0  0  0  0  0  0  0  0  0  0  0  0
   42.1790   34.1610   40.1350 C   0  0  0  0  0  0  0  0  0  0  0  0
   41.2440   33.4100   40.8040 C   0  0  0  0  0  0  0  0  0  0  0  0
   41.4090   33.1990   41.8500 H   0  0  0  0  0  0  0  0  0  0  0  0
   40.1010   32.9020   40.2340 C   0  0  0  0  0  0  0  0  0  0  0  0
   39.4090   32.3180   40.8260 H   0  0  0  0  0  0  0  0  0  0  0  0
   39.8580   33.1480   38.9170 C   0  0  0  0  0  3  0  0  0  0  0  0
   40.7250   33.8820   38.1620 C   0  0  0  0  0  3  0  0  0  0  0  0
  1 17  1  0  0  0  0
  1  2  1  0  0  0  0
  2  9  1  0  0  0  0
  3  2  2  0  0  0  0
  3  7  1  0  0  0  0
  4  3  1  0  0  0  0
  5  6  1  0  0  0  0
  5  4  2  0  0  0  0
  6  1  2  0  0  0  0
  8  5  1  0  0  0  0
  9 10  1  0  0  0  0
  9 13  2  0  0  0  0
 10 11  2  0  0  0  0
 11 12  1  0  0  0  0
 11 15  1  0  0  0  0
 12 16  1  0  0  0  0
 13 12  1  0  0  0  0
 14 10  1  0  0  0  0
 18 19  2  0  0  0  0
 18 17  1  0  0  0  0
 20 21  1  0  0  0  0
 21 22  1  0  0  0  0
 22 18  1  0  0  0  0
 22 23  2  0  0  0  0
 23 24  1  0  0  0  0
 25 23  1  0  0  0  0
 25 26  1  0  0  0  0
 27 25  2  0  0  0  0
 28 21  2  0  0  0  0
 28 27  1  0  0  0  0
M  END
>  <minimizedAffinity>
-5.52768517

>  <minimizedRMSD>
1.06861961

$$$$
