
 OpenBabel03252508493D

 28 30  0  0  0  0  0  0  0  0999 V2000
   46.0160   34.1880   41.0410 C   0  0  0  0  0  0  0  0  0  0  0  0
   46.5750   34.8190   42.1460 C   0  0  0  0  0  0  0  0  0  0  0  0
   47.9210   35.2090   42.0260 C   0  0  0  0  0  0  0  0  0  0  0  0
   48.5790   34.9450   40.8530 N   0  0  0  0  0  0  0  0  0  0  0  0
   47.9890   34.3370   39.8310 C   0  0  0  0  0  0  0  0  0  0  0  0
   46.7040   33.9530   39.9120 N   0  0  0  0  0  0  0  0  0  0  0  0
   48.3700   35.7040   42.8870 H   0  0  0  0  0  0  0  0  0  0  0  0
   48.5160   34.1350   38.9080 H   0  0  0  0  0  0  0  0  0  0  0  0
   45.7850   35.0460   43.3340 C   0  0  0  0  0  0  0  0  0  0  0  0
   45.0620   36.2110   43.5480 C   0  0  0  0  0  0  0  0  0  0  0  0
   44.4750   36.0030   44.7780 C   0  0  0  0  0  0  0  0  0  0  0  0
   44.8160   34.7880   45.2820 N   0  0  0  0  0  0  0  0  0  0  0  0
   45.6080   34.2370   44.3880 N   0  0  0  0  0  0  0  0  0  0  0  0
   44.9270   37.1210   42.9560 H   0  0  0  0  0  0  0  0  0  0  0  0
   43.8090   36.6490   45.3640 H   0  0  0  0  0  0  0  0  0  0  0  0
   44.5890   34.2800   46.1470 H   0  0  0  0  0  0  0  0  0  0  0  0
   44.6970   33.7910   41.1210 O   0  0  0  0  0  0  0  0  0  0  0  0
   43.6110   34.3930   40.5520 C   0  0  0  0  0  0  0  0  0  0  0  0
   43.3100   35.6410   40.5760 O   0  0  0  0  0  0  0  0  0  0  0  0
   44.1560   32.8890   38.2040 F   0  0  0  0  0  0  0  0  0  0  0  0
   42.8640   32.9140   38.6340 C   0  0  0  0  0  0  0  0  0  0  0  0
   42.5720   33.6470   39.7880 C   0  0  0  0  0  0  0  0  0  0  0  0
   41.2420   33.6000   40.1240 C   0  0  0  0  0  0  0  0  0  0  0  0
   40.9160   34.1370   41.0020 H   0  0  0  0  0  0  0  0  0  0  0  0
   40.2850   32.9130   39.4170 C   0  0  0  0  0  0  0  0  0  0  0  0
   39.2530   32.9200   39.7430 H   0  0  0  0  0  0  0  0  0  0  0  0
   40.6570   32.2230   38.3030 C   0  0  0  0  0  3  0  0  0  0  0  0
   41.9560   32.2060   37.8830 C   0  0  0  0  0  3  0  0  0  0  0  0
  1 17  1  0  0  0  0
  1  2  1  0  0  0  0
  2  9  1  0  0  0  0
  3  2  2  0  0  0  0
  3  7  1  0  0  0  0
  4  3  1  0  0  0  0
  5  6  1  0  0  0  0
  5  4  2  0  0  0  0
  6  1  2  0  0  0  0
  8  5  1  0  0  0  0
  9 10  1  0  0  0  0
  9 13  2  0  0  0  0
 10 11  2  0  0  0  0
 11 12  1  0  0  0  0
 11 15  1  0  0  0  0
 12 16  1  0  0  0  0
 13 12  1  0  0  0  0
 14 10  1  0  0  0  0
 18 19  2  0  0  0  0
 18 17  1  0  0  0  0
 20 21  1  0  0  0  0
 21 22  1  0  0  0  0
 22 23  2  0  0  0  0
 22 18  1  0  0  0  0
 23 24  1  0  0  0  0
 25 26  1  0  0  0  0
 25 23  1  0  0  0  0
 27 25  2  0  0  0  0
 28 27  1  0  0  0  0
 28 21  2  0  0  0  0
M  END
>  <minimizedAffinity>
-5.31018162

>  <minimizedRMSD>
0.407270521

$$$$
