
 OpenBabel03252508493D

 28 30  0  0  0  0  0  0  0  0999 V2000
   45.8540   34.2470   41.0620 C   0  0  0  0  0  0  0  0  0  0  0  0
   46.4790   34.6690   42.2300 C   0  0  0  0  0  0  0  0  0  0  0  0
   47.8650   34.8930   42.1490 C   0  0  0  0  0  0  0  0  0  0  0  0
   48.4940   34.6830   40.9500 N   0  0  0  0  0  0  0  0  0  0  0  0
   47.8410   34.2770   39.8680 C   0  0  0  0  0  0  0  0  0  0  0  0
   46.5170   34.0550   39.9110 N   0  0  0  0  0  0  0  0  0  0  0  0
   48.3650   35.2250   43.0590 H   0  0  0  0  0  0  0  0  0  0  0  0
   48.3480   34.1150   38.9250 H   0  0  0  0  0  0  0  0  0  0  0  0
   45.7120   34.8600   43.4410 C   0  0  0  0  0  0  0  0  0  0  0  0
   45.1480   36.0780   43.7930 C   0  0  0  0  0  0  0  0  0  0  0  0
   44.5250   35.8070   44.9920 C   0  0  0  0  0  0  0  0  0  0  0  0
   44.6970   34.5080   45.3490 N   0  0  0  0  0  0  0  0  0  0  0  0
   45.4180   33.9640   44.3930 N   0  0  0  0  0  0  0  0  0  0  0  0
   45.1420   37.0600   43.3120 H   0  0  0  0  0  0  0  0  0  0  0  0
   43.9440   36.4640   45.6530 H   0  0  0  0  0  0  0  0  0  0  0  0
   44.3950   33.9370   46.1500 H   0  0  0  0  0  0  0  0  0  0  0  0
   44.4940   34.0160   41.1030 O   0  0  0  0  0  0  0  0  0  0  0  0
   43.4940   34.8830   40.7650 C   0  0  0  0  0  0  0  0  0  0  0  0
   43.3580   36.1020   41.1430 O   0  0  0  0  0  0  0  0  0  0  0  0
   41.9210   32.5390   41.0950 F   0  0  0  0  0  0  0  0  0  0  0  0
   41.6030   33.3530   40.0500 C   0  0  0  0  0  0  0  0  0  0  0  0
   42.3630   34.5130   39.8690 C   0  0  0  0  0  0  0  0  0  0  0  0
   41.9510   35.2530   38.7880 C   0  0  0  0  0  0  0  0  0  0  0  0
   42.4760   36.1690   38.5640 H   0  0  0  0  0  0  0  0  0  0  0  0
   40.9080   34.9090   37.9610 C   0  0  0  0  0  0  0  0  0  0  0  0
   40.6410   35.5430   37.1270 H   0  0  0  0  0  0  0  0  0  0  0  0
   40.2210   33.7600   38.2110 C   0  0  0  0  0  3  0  0  0  0  0  0
   40.5500   32.9530   39.2620 C   0  0  0  0  0  3  0  0  0  0  0  0
  1 17  1  0  0  0  0
  1  2  1  0  0  0  0
  2  9  1  0  0  0  0
  3  2  2  0  0  0  0
  3  7  1  0  0  0  0
  4  3  1  0  0  0  0
  5  6  1  0  0  0  0
  5  4  2  0  0  0  0
  6  1  2  0  0  0  0
  8  5  1  0  0  0  0
  9 10  1  0  0  0  0
  9 13  2  0  0  0  0
 10 11  2  0  0  0  0
 11 12  1  0  0  0  0
 11 15  1  0  0  0  0
 12 16  1  0  0  0  0
 13 12  1  0  0  0  0
 14 10  1  0  0  0  0
 18 17  1  0  0  0  0
 18 19  2  0  0  0  0
 21 20  1  0  0  0  0
 22 21  1  0  0  0  0
 22 18  1  0  0  0  0
 23 22  2  0  0  0  0
 24 23  1  0  0  0  0
 25 27  2  0  0  0  0
 25 23  1  0  0  0  0
 26 25  1  0  0  0  0
 27 28  1  0  0  0  0
 28 21  2  0  0  0  0
M  END
>  <minimizedAffinity>
-5.6344142

>  <minimizedRMSD>
1.19535375

$$$$
