REMARK  Name = 
REMARK  4 active torsions:
REMARK  status: ('A' for Active; 'I' for Inactive)
REMARK    1  A    between atoms: C_1  and  O_12
REMARK    2  A    between atoms: C_2  and  C_7
REMARK    3  A    between atoms: O_12  and  C_13
REMARK    4  A    between atoms: C_13  and  C_22
REMARK                            x       y       z     vdW  Elec       q    Type
REMARK                         _______ _______ _______ _____ _____    ______ ____
ROOT
ATOM      1  C   UNL     1      46.082  34.160  41.013  0.00  0.00    +0.000 A 
ATOM      2  C   UNL     1      46.611  34.831  42.109  0.00  0.00    +0.000 A 
ATOM      3  C   UNL     1      47.939  35.277  41.986  0.00  0.00    +0.000 A 
ATOM      4  N   UNL     1      48.610  35.024  40.818  0.00  0.00    +0.000 NA
ATOM      5  C   UNL     1      48.049  34.376  39.804  0.00  0.00    +0.000 A 
ATOM      6  N   UNL     1      46.782  33.938  39.889  0.00  0.00    +0.000 NA
ATOM      7  H   UNL     1      48.364  35.804  42.840  0.00  0.00    +0.000 HD
ATOM      8  H   UNL     1      48.587  34.182  38.885  0.00  0.00    +0.000 HD
ENDROOT
BRANCH   2   9
ATOM      9  C   UNL     1      45.809  35.042  43.293  0.00  0.00    +0.000 A 
ATOM     10  C   UNL     1      45.050  36.186  43.496  0.00  0.00    +0.000 A 
ATOM     11  C   UNL     1      44.464  35.968  44.724  0.00  0.00    +0.000 A 
ATOM     12  N   UNL     1      44.840  34.768  45.238  0.00  0.00    +0.000 N 
ATOM     13  N   UNL     1      45.652  34.235  44.351  0.00  0.00    +0.000 NA
ATOM     14  H   UNL     1      44.890  37.087  42.897  0.00  0.00    +0.000 HD
ATOM     15  H   UNL     1      43.776  36.598  45.303  0.00  0.00    +0.000 HD
ATOM     16  H   UNL     1      44.625  34.259  46.106  0.00  0.00    +0.000 HD
ENDBRANCH   2   9
BRANCH   1  17
ATOM     17  O   UNL     1      44.781  33.707  41.097  0.00  0.00    +0.000 OA
BRANCH  17  18
ATOM     18  C   UNL     1      43.690  34.185  40.429  0.00  0.00    +0.000 C 
ATOM     19  O   UNL     1      43.251  35.391  40.415  0.00  0.00    +0.000 OA
BRANCH  18  22
ATOM     20  F   UNL     1      44.589  31.851  39.081  0.00  0.00    +0.000 F 
ATOM     21  C   UNL     1      43.277  32.184  38.929  0.00  0.00    +0.000 A 
ATOM     22  C   UNL     1      42.812  33.328  39.584  0.00  0.00    +0.000 A 
ATOM     23  C   UNL     1      41.478  33.563  39.358  0.00  0.00    +0.000 A 
ATOM     24  H   UNL     1      41.024  34.426  39.821  0.00  0.00    +0.000 HD
ATOM     25  C   UNL     1      40.670  32.772  38.576  0.00  0.00    +0.000 A 
ATOM     26  H   UNL     1      39.626  33.021  38.444  0.00  0.00    +0.000 HD
ATOM     27  C   UNL     1      41.207  31.675  37.975  0.00  0.00    +0.000 A 
ATOM     28  C   UNL     1      42.523  31.352  38.135  0.00  0.00    +0.000 A 
ENDBRANCH  18  22
ENDBRANCH  17  18
ENDBRANCH   1  17
TORSDOF 4
