
     RDKit          3D

 30 32  0  0  0  0  0  0  0  0999 V2000
   46.0823   34.1600   41.0128 C   0  0  0  0  0  0  0  0  0  0  0  0
   46.6105   34.8315   42.1092 C   0  0  0  0  0  0  0  0  0  0  0  0
   47.9393   35.2771   41.9865 C   0  0  0  0  0  0  0  0  0  0  0  0
   48.6097   35.0242   40.8176 N   0  0  0  0  0  0  0  0  0  0  0  0
   48.0489   34.3764   39.8039 C   0  0  0  0  0  0  0  0  0  0  0  0
   46.7823   33.9377   39.8892 N   0  0  0  0  0  0  0  0  0  0  0  0
   45.8090   35.0420   43.2934 C   0  0  0  0  0  0  0  0  0  0  0  0
   45.0503   36.1857   43.4961 C   0  0  0  0  0  0  0  0  0  0  0  0
   44.4638   35.9679   44.7243 C   0  0  0  0  0  0  0  0  0  0  0  0
   44.8405   34.7683   45.2380 N   0  0  0  0  0  0  0  0  0  0  0  0
   45.6516   34.2349   44.3510 N   0  0  0  0  0  0  0  0  0  0  0  0
   44.7806   33.7073   41.0967 O   0  0  0  0  0  0  0  0  0  0  0  0
   43.6904   34.1854   40.4294 C   0  0  0  0  0  0  0  0  0  0  0  0
   43.2509   35.3905   40.4150 O   0  0  0  0  0  0  0  0  0  0  0  0
   48.3637   35.8044   42.8396 H   0  0  0  0  0  0  0  0  0  0  0  0
   48.5865   34.1817   38.8848 H   0  0  0  0  0  0  0  0  0  0  0  0
   44.8904   37.0867   42.8970 H   0  0  0  0  0  0  0  0  0  0  0  0
   43.7765   36.5978   45.3028 H   0  0  0  0  0  0  0  0  0  0  0  0
   44.6254   34.2593   46.1058 H   0  0  0  0  0  0  0  0  0  0  0  0
   44.3846   31.5619   39.5866 F   0  0  0  0  0  0  0  0  0  0  0  0
   43.1753   32.0397   39.1805 C   0  0  0  0  0  0  0  0  0  0  0  0
   42.8122   33.3284   39.5839 C   0  0  0  0  0  0  0  0  0  0  0  0
   41.5757   33.7017   39.1158 C   0  0  0  0  0  0  0  0  0  0  0  0
   41.2053   34.6817   39.3738 H   0  0  0  0  0  0  0  0  0  0  0  0
   40.7678   32.9096   38.3346 C   0  0  0  0  0  0  0  0  0  0  0  0
   39.8045   33.2721   38.0028 H   0  0  0  0  0  0  0  0  0  0  0  0
   41.2018   31.6664   37.9887 C   0  0  0  0  0  0  0  0  0  0  0  0
   42.4154   31.1994   38.4020 C   0  0  0  0  0  0  0  0  0  0  0  0
   40.5959   31.0147   37.3764 H   0  0  0  0  0  0  0  0  0  0  0  0
   42.7560   30.2262   38.1316 H   0  0  0  0  0  0  0  0  0  0  0  0
  1 12  1  0
  1  2  1  0
  2  7  1  0
  3  2  2  0
  4  3  1  0
  5  6  1  0
  5  4  2  0
  6  1  2  0
  7  8  1  0
  7 11  2  0
  8  9  2  0
  9 10  1  0
 11 10  1  0
 13 14  2  0
 13 12  1  0
  3 15  1  0
  5 16  1  0
  8 17  1  0
  9 18  1  0
 10 19  1  0
 20 21  1  0
 21 22  2  0
 22 23  1  0
 23 24  1  0
 23 25  2  0
 25 26  1  0
 25 27  1  0
 27 28  2  0
 28 21  1  0
 27 29  1  0
 28 30  1  0
 13 22  1  0
M  ISO  7  15  14  16  14  17  14  18  14  19   9  24  15  26  16
M  END
>  <DihAtoms>  (1) 
13,12,21,20

>  <DihDeg>  (1) 
-178.37922688413806

$$$$
