
 OpenBabel03252508023D

 42 45  0  0  1  0  0  0  0  0999 V2000
   42.1040   33.2570   41.1290 C   0  0  0  0  0  0  0  0  0  0  0  0
   42.8210   34.4030   41.3220 C   0  0  0  0  0  0  0  0  0  0  0  0
   42.1290   35.6290   41.2830 C   0  0  0  0  0  0  0  0  0  0  0  0
   40.7760   35.7270   41.0620 C   0  0  0  0  0  0  0  0  0  0  0  0
   40.0640   34.5740   40.8700 C   0  0  0  0  0  0  0  0  0  0  0  0
   40.7260   33.3860   40.9060 C   0  0  0  0  0  0  0  0  0  0  0  0
   42.6150   36.5880   41.4150 H   0  0  0  0  0  0  0  0  0  0  0  0
   40.2600   36.6500   41.0330 H   0  0  0  0  0  0  0  0  0  0  0  0
   39.0180   34.5820   40.6960 H   0  0  0  0  0  0  0  0  0  0  0  0
   40.1510   32.4790   40.7530 H   0  0  0  0  0  0  0  0  0  0  0  0
   42.7820   31.7240   41.2580 S   0  0  0  0  0  0  0  0  0  0  0  0
   41.7310   30.8870   40.4620 O   0  0  0  0  0  0  0  0  0  0  0  0
   42.7900   31.2020   42.6470 O   0  0  0  0  0  0  0  0  0  0  0  0
   43.3120   32.5410   38.5550 F   0  0  0  0  0  0  0  0  0  0  0  0
   44.1090   31.5140   39.0180 C   0  0  0  0  0  0  0  0  0  0  0  0
   43.9610   30.9640   40.3220 C   0  0  0  0  0  0  0  0  0  0  0  0
   44.8910   29.9510   40.5240 C   0  0  0  0  0  0  0  0  0  0  0  0
   44.7910   29.5770   41.5600 H   0  0  0  0  0  0  0  0  0  0  0  0
   45.8730   29.4160   39.7270 C   0  0  0  0  0  0  0  0  0  0  0  0
   46.4810   28.6290   40.0900 H   0  0  0  0  0  0  0  0  0  0  0  0
   45.8590   30.0680   38.5250 C   0  0  0  0  0  3  0  0  0  0  0  0
   45.0450   31.0850   38.1110 C   0  0  0  0  0  3  0  0  0  0  0  0
   44.2540   34.4050   41.5620 C   0  0  0  0  0  0  0  0  0  0  0  0
   45.1350   34.3540   40.6500 O   0  0  0  0  0  0  0  0  0  0  0  0
   44.5940   34.4740   42.9620 C   0  0  0  0  0  0  0  0  0  0  0  0
   44.3040   35.7260   43.6070 C   0  0  0  0  0  0  0  0  0  0  0  0
   44.6170   35.8180   44.9490 C   0  0  0  0  0  0  0  0  0  0  0  0
   45.1710   34.7370   45.5680 N   0  0  0  0  0  0  0  0  0  0  0  0
   45.4260   33.5660   44.9010 C   0  0  0  0  0  0  0  0  0  0  0  0
   45.1380   33.4710   43.6490 N   0  0  0  0  0  0  0  0  0  0  0  0
   43.8800   36.6100   43.2060 H   0  0  0  0  0  0  0  0  0  0  0  0
   44.4520   36.6980   45.5530 H   0  0  0  0  0  0  0  0  0  0  0  0
   46.0180   32.4400   45.6530 C   0  0  1  0  0  0  0  0  0  0  0  0
   46.9690   32.7350   46.7900 C   0  0  0  0  0  0  0  0  0  0  0  0
   45.5590   32.3190   47.0550 C   0  0  1  0  0  0  0  0  0  0  0  0
   46.1310   31.4940   45.1000 H   0  0  0  0  0  0  0  0  0  0  0  0
   47.7350   31.9450   46.9550 H   0  0  0  0  0  0  0  0  0  0  0  0
   47.2870   33.7880   46.8720 H   0  0  0  0  0  0  0  0  0  0  0  0
   45.3780   31.3140   47.5050 H   0  0  0  0  0  0  0  0  0  0  0  0
   44.7700   33.3810   47.6590 N   0  0  0  0  0  0  0  0  0  0  0  0
   45.3170   33.9080   48.3880 H   0  0  0  0  0  0  0  0  0  0  0  0
   43.9410   32.9800   48.1260 H   0  0  0  0  0  0  0  0  0  0  0  0
  1 11  1  0  0  0  0
  1  2  1  0  0  0  0
  2 23  1  0  0  0  0
  3  2  2  0  0  0  0
  3  7  1  0  0  0  0
  4  3  1  0  0  0  0
  5  6  1  0  0  0  0
  5  4  2  0  0  0  0
  6  1  2  0  0  0  0
  8  4  1  0  0  0  0
  9  5  1  0  0  0  0
 10  6  1  0  0  0  0
 11 13  2  0  0  0  0
 12 11  2  0  0  0  0
 14 15  1  0  0  0  0
 15 16  1  0  0  0  0
 16 17  2  0  0  0  0
 16 11  1  0  0  0  0
 17 18  1  0  0  0  0
 19 20  1  0  0  0  0
 19 17  1  0  0  0  0
 21 19  2  0  0  0  0
 22 21  1  0  0  0  0
 22 15  2  0  0  0  0
 23 25  1  0  0  0  0
 24 23  2  0  0  0  0
 25 26  2  0  0  0  0
 25 30  1  0  0  0  0
 26 27  1  0  0  0  0
 27 32  1  0  0  0  0
 27 28  2  0  0  0  0
 29 28  1  0  0  0  0
 29 33  1  0  0  0  0
 30 29  2  0  0  0  0
 31 26  1  0  0  0  0
 33 36  1  6  0  0  0
 33 34  1  0  0  0  0
 33 35  1  0  0  0  0
 34 38  1  0  0  0  0
 34 37  1  0  0  0  0
 34 35  1  0  0  0  0
 35 39  1  1  0  0  0
 35 40  1  0  0  0  0
 40 42  1  0  0  0  0
 40 41  1  0  0  0  0
M  END
>  <minimizedAffinity>
-5.8118453

>  <minimizedRMSD>
1.19093418

$$$$
