
 OpenBabel03252507453D

 37 39  0  0  0  0  0  0  0  0999 V2000
   46.9820   34.2160   40.9910 C   0  0  0  0  0  0  0  0  0  0  0  0
   46.4310   33.2890   40.7930 H   0  0  0  0  0  0  0  0  0  0  0  0
   47.0680   34.7930   40.0430 H   0  0  0  0  0  0  0  0  0  0  0  0
   48.3610   33.9530   41.4530 C   0  0  0  0  0  0  0  0  0  0  0  0
   48.9150   32.7320   41.0930 C   0  0  0  0  0  0  0  0  0  0  0  0
   50.2140   32.4270   41.4990 C   0  0  0  0  0  0  0  0  0  0  0  0
   50.8850   33.3510   42.2390 N   0  0  0  0  0  0  0  0  0  0  0  0
   50.3090   34.5270   42.5680 C   0  0  0  0  0  0  0  0  0  0  0  0
   49.0760   34.8070   42.1780 N   0  0  0  0  0  0  0  0  0  0  0  0
   50.6810   31.4840   41.2370 H   0  0  0  0  0  0  0  0  0  0  0  0
   50.9430   35.1760   43.1580 H   0  0  0  0  0  0  0  0  0  0  0  0
   47.9670   31.5660   40.1160 S   0  0  0  0  0  0  0  0  0  0  0  0
   50.2810   31.3180   38.3640 F   0  0  0  0  0  0  0  0  0  0  0  0
   49.1580   31.7930   37.7620 C   0  0  0  0  0  0  0  0  0  0  0  0
   47.9400   31.9930   38.3970 C   0  0  0  0  0  0  0  0  0  0  0  0
   46.8810   32.4820   37.6550 C   0  0  0  0  0  0  0  0  0  0  0  0
   45.9740   32.6070   38.2260 H   0  0  0  0  0  0  0  0  0  0  0  0
   47.0550   32.7560   36.3240 C   0  0  0  0  0  0  0  0  0  0  0  0
   46.2120   33.1360   35.7740 H   0  0  0  0  0  0  0  0  0  0  0  0
   48.2640   32.5590   35.6890 C   0  0  0  0  0  3  0  0  0  0  0  0
   49.3320   32.0710   36.4160 C   0  0  0  0  0  3  0  0  0  0  0  0
   46.1770   35.0350   41.9450 C   0  0  0  0  0  0  0  0  0  0  0  0
   46.4890   36.0960   41.8610 H   0  0  0  0  0  0  0  0  0  0  0  0
   46.3620   34.6970   42.9840 H   0  0  0  0  0  0  0  0  0  0  0  0
   44.7050   34.9640   41.7080 C   0  0  0  0  0  0  0  0  0  0  0  0
   43.8040   35.3940   42.7280 C   0  0  0  0  0  0  0  0  0  0  0  0
   42.1540   35.1120   41.9680 S   0  0  0  0  0  0  0  0  0  0  0  0
   42.9740   34.4510   40.3810 C   0  0  0  0  0  0  0  0  0  0  0  0
   44.0860   34.5390   40.6430 N   0  0  0  0  0  0  0  0  0  0  0  0
   44.0610   35.7880   43.7020 H   0  0  0  0  0  0  0  0  0  0  0  0
   42.2470   34.0130   39.2760 O   0  0  0  0  0  0  0  0  0  0  0  0
   40.3270   34.5600   37.5300 O   0  0  0  0  0  0  0  0  0  0  0  0
   41.4390   35.1960   38.3550 P   0  0  0  0  0  0  0  0  0  0  0  0
   40.7550   36.3040   39.4350 O   0  0  0  0  0  0  0  0  0  0  0  0
   39.9320   35.8630   39.7950 H   0  0  0  0  0  0  0  0  0  0  0  0
   42.5340   36.0100   37.3600 O   0  0  0  0  0  0  0  0  0  0  0  0
   42.9840   35.4070   36.7330 H   0  0  0  0  0  0  0  0  0  0  0  0
  1  4  1  0  0  0  0
  1 22  1  0  0  0  0
  2  1  1  0  0  0  0
  3  1  1  0  0  0  0
  4  9  1  0  0  0  0
  5  4  2  0  0  0  0
  5  6  1  0  0  0  0
  6  7  2  0  0  0  0
  7  8  1  0  0  0  0
  8 11  1  0  0  0  0
  9  8  2  0  0  0  0
 10  6  1  0  0  0  0
 12  5  1  0  0  0  0
 14 13  1  0  0  0  0
 14 15  1  0  0  0  0
 15 12  1  0  0  0  0
 16 17  1  0  0  0  0
 16 15  2  0  0  0  0
 18 16  1  0  0  0  0
 19 18  1  0  0  0  0
 20 18  2  0  0  0  0
 20 21  1  0  0  0  0
 21 14  2  0  0  0  0
 22 24  1  0  0  0  0
 23 22  1  0  0  0  0
 25 22  1  0  0  0  0
 25 26  2  0  0  0  0
 26 30  1  0  0  0  0
 27 26  1  0  0  0  0
 28 29  2  0  0  0  0
 28 27  1  0  0  0  0
 29 25  1  0  0  0  0
 31 28  1  0  0  0  0
 32 33  2  0  0  0  0
 33 31  1  0  0  0  0
 33 34  1  0  0  0  0
 34 35  1  0  0  0  0
 36 33  1  0  0  0  0
 37 36  1  0  0  0  0
M  END
>  <minimizedAffinity>
-4.89985037

>  <minimizedRMSD>
0.45110324

$$$$
