REMARK  Name = 
REMARK  9 active torsions:
REMARK  status: ('A' for Active; 'I' for Inactive)
REMARK    1  A    between atoms: C_1  and  C_2
REMARK    2  A    between atoms: C_1  and  C_12
REMARK    3  A    between atoms: C_5  and  O_7
REMARK    4  A    between atoms: O_7  and  P_9
REMARK    5  A    between atoms: P_9  and  O_10
REMARK    6  A    between atoms: P_9  and  O_11
REMARK    7  A    between atoms: C_12  and  C_13
REMARK    8  A    between atoms: C_14  and  S_19
REMARK    9  A    between atoms: S_19  and  C_31
REMARK                            x       y       z     vdW  Elec       q    Type
REMARK                         _______ _______ _______ _____ _____    ______ ____
ROOT
ATOM      1  C   UNL     1      47.122  34.325  40.846  0.00  0.00    +0.000 C 
ATOM      2  H   UNL     1      46.530  33.486  40.461  0.00  0.00    +0.000 HD
ATOM      3  H   UNL     1      47.273  35.064  40.027  0.00  0.00    +0.000 HD
ENDROOT
BRANCH   1   4
ATOM      4  C   UNL     1      48.468  33.898  41.283  0.00  0.00    +0.000 A 
ATOM      5  C   UNL     1      48.931  32.689  40.782  0.00  0.00    +0.000 A 
ATOM      6  C   UNL     1      50.194  32.234  41.158  0.00  0.00    +0.000 A 
ATOM      7  N   UNL     1      50.923  33.006  42.010  0.00  0.00    +0.000 NA
ATOM      8  C   UNL     1      50.436  34.176  42.474  0.00  0.00    +0.000 A 
ATOM      9  N   UNL     1      49.236  34.599  42.111  0.00  0.00    +0.000 NA
ATOM     10  H   UNL     1      50.590  31.295  40.788  0.00  0.00    +0.000 HD
ATOM     11  H   UNL     1      51.109  34.697  43.143  0.00  0.00    +0.000 HD
BRANCH   5  12
ATOM     12  S   UNL     1      47.911  31.728  39.664  0.00  0.00    +0.000 S 
BRANCH  12  15
ATOM     13  F   UNL     1      49.906  30.419  37.992  0.00  0.00    +0.000 F 
ATOM     14  C   UNL     1      49.191  31.395  37.370  0.00  0.00    +0.000 A 
ATOM     15  C   UNL     1      48.191  32.150  37.966  0.00  0.00    +0.000 A 
ATOM     16  C   UNL     1      47.548  33.110  37.208  0.00  0.00    +0.000 A 
ATOM     17  H   UNL     1      46.786  33.650  37.748  0.00  0.00    +0.000 HD
ATOM     18  C   UNL     1      47.907  33.293  35.898  0.00  0.00    +0.000 A 
ATOM     19  H   UNL     1      47.387  34.047  35.335  0.00  0.00    +0.000 HD
ATOM     20  C   UNL     1      48.900  32.544  35.302  0.00  0.00    +0.000 A 
ATOM     21  C   UNL     1      49.552  31.581  36.046  0.00  0.00    +0.000 A 
ENDBRANCH  12  15
ENDBRANCH   5  12
ENDBRANCH   1   4
BRANCH   1  22
ATOM     22  C   UNL     1      46.329  34.995  41.918  0.00  0.00    +0.000 C 
ATOM     23  H   UNL     1      46.631  36.060  41.977  0.00  0.00    +0.000 HD
ATOM     24  H   UNL     1      46.535  34.517  42.896  0.00  0.00    +0.000 HD
BRANCH  22  25
ATOM     25  C   UNL     1      44.853  34.942  41.698  0.00  0.00    +0.000 A 
ATOM     26  C   UNL     1      43.971  35.435  42.707  0.00  0.00    +0.000 A 
ATOM     27  S   UNL     1      42.308  35.152  41.976  0.00  0.00    +0.000 S 
ATOM     28  C   UNL     1      43.099  34.405  40.412  0.00  0.00    +0.000 A 
ATOM     29  N   UNL     1      44.215  34.483  40.659  0.00  0.00    +0.000 NA
ATOM     30  H   UNL     1      44.246  35.866  43.660  0.00  0.00    +0.000 HD
BRANCH  28  31
ATOM     31  O   UNL     1      42.352  33.933  39.335  0.00  0.00    +0.000 OA
BRANCH  31  33
ATOM     32  O   UNL     1      40.415  34.402  37.585  0.00  0.00    +0.000 OA
ATOM     33  P   UNL     1      41.497  35.083  38.415  0.00  0.00    +0.000 P 
BRANCH  33  34
ATOM     34  O   UNL     1      40.763  36.157  39.496  0.00  0.00    +0.000 OA
ATOM     35  H   UNL     1      39.958  35.680  39.853  0.00  0.00    +0.000 HD
ENDBRANCH  33  34
BRANCH  33  36
ATOM     36  O   UNL     1      42.558  35.947  37.426  0.00  0.00    +0.000 OA
ATOM     37  H   UNL     1      43.035  35.365  36.798  0.00  0.00    +0.000 HD
ENDBRANCH  33  36
ENDBRANCH  31  33
ENDBRANCH  28  31
ENDBRANCH  22  25
ENDBRANCH   1  22
TORSDOF 9
