
 OpenBabel03252508053D

 42 45  0  0  1  0  0  0  0  0999 V2000
   36.7560   29.7520   38.6080 C   0  0  0  0  0  0  0  0  0  0  0  0
   35.9410   29.5530   39.6840 C   0  0  0  0  0  0  0  0  0  0  0  0
   34.6570   29.0230   39.4500 C   0  0  0  0  0  0  0  0  0  0  0  0
   34.1890   28.6980   38.2000 C   0  0  0  0  0  0  0  0  0  0  0  0
   35.0130   28.9010   37.1250 C   0  0  0  0  0  0  0  0  0  0  0  0
   36.2540   29.4140   37.3440 C   0  0  0  0  0  0  0  0  0  0  0  0
   33.9390   28.8390   40.2410 H   0  0  0  0  0  0  0  0  0  0  0  0
   33.2240   28.3010   38.0290 H   0  0  0  0  0  0  0  0  0  0  0  0
   34.7120   28.6710   36.1350 H   0  0  0  0  0  0  0  0  0  0  0  0
   36.8980   29.5700   36.4850 H   0  0  0  0  0  0  0  0  0  0  0  0
   38.3480   30.2760   38.7530 S   0  0  0  0  0  0  0  0  0  0  0  0
   38.5590   30.9200   37.3460 O   0  0  0  0  0  0  0  0  0  0  0  0
   39.3210   29.1620   38.8700 O   0  0  0  0  0  0  0  0  0  0  0  0
   36.7610   32.6610   38.9730 F   0  0  0  0  0  0  0  0  0  0  0  0
   38.0480   32.7720   39.4600 C   0  0  0  0  0  0  0  0  0  0  0  0
   38.9800   31.6980   39.4000 C   0  0  0  0  0  0  0  0  0  0  0  0
   40.1920   32.0840   39.9610 C   0  0  0  0  0  0  0  0  0  0  0  0
   40.8810   31.2190   39.9500 H   0  0  0  0  0  0  0  0  0  0  0  0
   40.6250   33.2570   40.5280 C   0  0  0  0  0  0  0  0  0  0  0  0
   41.6140   33.3350   40.8980 H   0  0  0  0  0  0  0  0  0  0  0  0
   39.5980   34.1600   40.4920 C   0  0  0  0  0  3  0  0  0  0  0  0
   38.3340   34.0020   39.9970 C   0  0  0  0  0  3  0  0  0  0  0  0
   36.3420   29.8640   41.0460 C   0  0  0  0  0  0  0  0  0  0  0  0
   36.1060   30.9650   41.6300 O   0  0  0  0  0  0  0  0  0  0  0  0
   37.0480   28.7830   41.6890 C   0  0  0  0  0  0  0  0  0  0  0  0
   38.2300   29.1620   42.4140 C   0  0  0  0  0  0  0  0  0  0  0  0
   38.9240   28.1470   43.0420 C   0  0  0  0  0  0  0  0  0  0  0  0
   38.4540   26.8710   42.9380 N   0  0  0  0  0  0  0  0  0  0  0  0
   37.3190   26.5680   42.2320 C   0  0  0  0  0  0  0  0  0  0  0  0
   36.6650   27.5080   41.6430 N   0  0  0  0  0  0  0  0  0  0  0  0
   38.6640   30.1190   42.5440 H   0  0  0  0  0  0  0  0  0  0  0  0
   39.8260   28.2920   43.6180 H   0  0  0  0  0  0  0  0  0  0  0  0
   36.8740   25.1580   42.1820 C   0  0  1  0  0  0  0  0  0  0  0  0
   36.7370   24.4790   40.8390 C   0  0  0  0  0  0  0  0  0  0  0  0
   37.9040   24.1970   41.7280 C   0  0  1  0  0  0  0  0  0  0  0  0
   36.2340   24.8230   43.0130 H   0  0  0  0  0  0  0  0  0  0  0  0
   35.9590   23.6840   40.8120 H   0  0  0  0  0  0  0  0  0  0  0  0
   36.8230   25.1480   39.9660 H   0  0  0  0  0  0  0  0  0  0  0  0
   37.9800   23.1880   42.1980 H   0  0  0  0  0  0  0  0  0  0  0  0
   39.1570   24.6800   41.1700 N   0  0  0  0  0  0  0  0  0  0  0  0
   39.2190   24.4980   40.1350 H   0  0  0  0  0  0  0  0  0  0  0  0
   39.9500   24.1920   41.6160 H   0  0  0  0  0  0  0  0  0  0  0  0
  1 11  1  0  0  0  0
  1  2  1  0  0  0  0
  2 23  1  0  0  0  0
  3  2  2  0  0  0  0
  3  7  1  0  0  0  0
  4  3  1  0  0  0  0
  5  6  1  0  0  0  0
  5  4  2  0  0  0  0
  6  1  2  0  0  0  0
  8  4  1  0  0  0  0
  9  5  1  0  0  0  0
 10  6  1  0  0  0  0
 11 13  2  0  0  0  0
 11 16  1  0  0  0  0
 12 11  2  0  0  0  0
 14 15  1  0  0  0  0
 15 22  1  0  0  0  0
 16 15  2  0  0  0  0
 16 17  1  0  0  0  0
 17 19  2  0  0  0  0
 18 17  1  0  0  0  0
 19 20  1  0  0  0  0
 21 19  1  0  0  0  0
 22 21  2  0  0  0  0
 23 24  2  0  0  0  0
 23 25  1  0  0  0  0
 25 26  1  0  0  0  0
 26 31  1  0  0  0  0
 26 27  2  0  0  0  0
 27 32  1  0  0  0  0
 28 27  1  0  0  0  0
 29 28  2  0  0  0  0
 30 25  2  0  0  0  0
 30 29  1  0  0  0  0
 33 29  1  0  0  0  0
 33 36  1  1  0  0  0
 34 35  1  0  0  0  0
 34 33  1  0  0  0  0
 35 33  1  0  0  0  0
 35 39  1  1  0  0  0
 37 34  1  0  0  0  0
 38 34  1  0  0  0  0
 40 42  1  0  0  0  0
 40 35  1  0  0  0  0
 41 40  1  0  0  0  0
M  END
>  <minimizedAffinity>
-6.60640907

$$$$

 OpenBabel03252508053D

 42 45  0  0  1  0  0  0  0  0999 V2000
   38.8990   25.6900   41.1850 C   0  0  0  0  0  0  0  0  0  0  0  0
   40.0510   26.4220   41.1730 C   0  0  0  0  0  0  0  0  0  0  0  0
   41.0080   26.1630   42.1740 C   0  0  0  0  0  0  0  0  0  0  0  0
   40.8390   25.2150   43.1540 C   0  0  0  0  0  0  0  0  0  0  0  0
   39.6810   24.4850   43.1590 C   0  0  0  0  0  0  0  0  0  0  0  0
   38.7520   24.7310   42.1950 C   0  0  0  0  0  0  0  0  0  0  0  0
   41.9460   26.6990   42.2500 H   0  0  0  0  0  0  0  0  0  0  0  0
   41.5600   25.0240   43.9040 H   0  0  0  0  0  0  0  0  0  0  0  0
   39.4910   23.7380   43.8870 H   0  0  0  0  0  0  0  0  0  0  0  0
   37.8390   24.1450   42.2090 H   0  0  0  0  0  0  0  0  0  0  0  0
   37.7240   25.8200   39.9890 S   0  0  0  0  0  0  0  0  0  0  0  0
   36.5650   25.0050   40.6480 O   0  0  0  0  0  0  0  0  0  0  0  0
   38.0870   25.1190   38.7330 O   0  0  0  0  0  0  0  0  0  0  0  0
   36.8610   27.6060   42.0680 F   0  0  0  0  0  0  0  0  0  0  0  0
   36.2960   27.8390   40.8300 C   0  0  0  0  0  0  0  0  0  0  0  0
   36.5860   27.0290   39.6970 C   0  0  0  0  0  0  0  0  0  0  0  0
   35.8850   27.4890   38.5870 C   0  0  0  0  0  0  0  0  0  0  0  0
   36.1660   26.8770   37.7100 H   0  0  0  0  0  0  0  0  0  0  0  0
   35.0070   28.5280   38.4050 C   0  0  0  0  0  0  0  0  0  0  0  0
   34.5770   28.7000   37.4530 H   0  0  0  0  0  0  0  0  0  0  0  0
   34.8560   29.1820   39.5970 C   0  0  0  0  0  3  0  0  0  0  0  0
   35.4410   28.9120   40.8030 C   0  0  0  0  0  3  0  0  0  0  0  0
   40.3250   27.4470   40.1800 C   0  0  0  0  0  0  0  0  0  0  0  0
   40.9280   27.2410   39.0830 O   0  0  0  0  0  0  0  0  0  0  0  0
   39.8360   28.7500   40.5600 C   0  0  0  0  0  0  0  0  0  0  0  0
   39.7990   29.0070   41.9740 C   0  0  0  0  0  0  0  0  0  0  0  0
   39.3370   30.2480   42.3670 C   0  0  0  0  0  0  0  0  0  0  0  0
   38.9520   31.1360   41.4060 N   0  0  0  0  0  0  0  0  0  0  0  0
   39.0090   30.8360   40.0700 C   0  0  0  0  0  0  0  0  0  0  0  0
   39.4390   29.6810   39.6950 N   0  0  0  0  0  0  0  0  0  0  0  0
   40.0740   28.3790   42.7820 H   0  0  0  0  0  0  0  0  0  0  0  0
   39.2570   30.5700   43.3940 H   0  0  0  0  0  0  0  0  0  0  0  0
   38.5840   31.8640   39.0970 C   0  0  1  0  0  0  0  0  0  0  0  0
   37.3020   31.6570   38.3230 C   0  0  0  0  0  0  0  0  0  0  0  0
   37.3610   32.6090   39.4730 C   0  0  1  0  0  0  0  0  0  0  0  0
   39.3890   32.4590   38.6380 H   0  0  0  0  0  0  0  0  0  0  0  0
   37.3000   32.1310   37.3160 H   0  0  0  0  0  0  0  0  0  0  0  0
   36.8520   30.6550   38.4240 H   0  0  0  0  0  0  0  0  0  0  0  0
   37.2790   33.7010   39.2620 H   0  0  0  0  0  0  0  0  0  0  0  0
   36.5570   32.1680   40.6020 N   0  0  0  0  0  0  0  0  0  0  0  0
   35.6360   31.7640   40.2910 H   0  0  0  0  0  0  0  0  0  0  0  0
   36.3490   32.9700   41.2180 H   0  0  0  0  0  0  0  0  0  0  0  0
  1  6  1  0  0  0  0
  2  1  2  0  0  0  0
  2  3  1  0  0  0  0
  3  7  1  0  0  0  0
  3  4  2  0  0  0  0
  4  5  1  0  0  0  0
  4  8  1  0  0  0  0
  5  9  1  0  0  0  0
  6 10  1  0  0  0  0
  6  5  2  0  0  0  0
 11 12  2  0  0  0  0
 11  1  1  0  0  0  0
 13 11  2  0  0  0  0
 15 14  1  0  0  0  0
 16 11  1  0  0  0  0
 16 15  2  0  0  0  0
 17 16  1  0  0  0  0
 18 17  1  0  0  0  0
 19 17  2  0  0  0  0
 19 21  1  0  0  0  0
 20 19  1  0  0  0  0
 21 22  2  0  0  0  0
 22 15  1  0  0  0  0
 23 25  1  0  0  0  0
 23  2  1  0  0  0  0
 24 23  2  0  0  0  0
 25 26  1  0  0  0  0
 26 27  2  0  0  0  0
 26 31  1  0  0  0  0
 27 32  1  0  0  0  0
 28 27  1  0  0  0  0
 29 28  2  0  0  0  0
 30 29  1  0  0  0  0
 30 25  2  0  0  0  0
 33 36  1  6  0  0  0
 33 35  1  0  0  0  0
 33 29  1  0  0  0  0
 34 38  1  0  0  0  0
 34 33  1  0  0  0  0
 34 35  1  0  0  0  0
 35 39  1  6  0  0  0
 35 40  1  0  0  0  0
 37 34  1  0  0  0  0
 40 42  1  0  0  0  0
 41 40  1  0  0  0  0
M  END
>  <minimizedAffinity>
-6.05824566

$$$$

 OpenBabel03252508053D

 42 45  0  0  1  0  0  0  0  0999 V2000
   36.6810   27.1380   40.0020 C   0  0  0  0  0  0  0  0  0  0  0  0
   36.3200   28.2420   40.7180 C   0  0  0  0  0  0  0  0  0  0  0  0
   35.3130   29.0720   40.1890 C   0  0  0  0  0  0  0  0  0  0  0  0
   34.6800   28.8250   38.9940 C   0  0  0  0  0  0  0  0  0  0  0  0
   35.0480   27.7150   38.2820 C   0  0  0  0  0  0  0  0  0  0  0  0
   36.0210   26.9090   38.7880 C   0  0  0  0  0  0  0  0  0  0  0  0
   34.9680   29.9730   40.6810 H   0  0  0  0  0  0  0  0  0  0  0  0
   33.9240   29.4510   38.6000 H   0  0  0  0  0  0  0  0  0  0  0  0
   34.5980   27.4680   37.3540 H   0  0  0  0  0  0  0  0  0  0  0  0
   36.3040   26.0330   38.2150 H   0  0  0  0  0  0  0  0  0  0  0  0
   37.7900   26.0060   40.5670 S   0  0  0  0  0  0  0  0  0  0  0  0
   36.9740   25.3810   41.7440 O   0  0  0  0  0  0  0  0  0  0  0  0
   39.0030   26.6210   41.1600 O   0  0  0  0  0  0  0  0  0  0  0  0
   39.2530   25.4600   38.1560 F   0  0  0  0  0  0  0  0  0  0  0  0
   38.8610   24.3420   38.8640 C   0  0  0  0  0  0  0  0  0  0  0  0
   38.1000   24.4280   40.0630 C   0  0  0  0  0  0  0  0  0  0  0  0
   37.8490   23.1550   40.5630 C   0  0  0  0  0  0  0  0  0  0  0  0
   37.3020   23.2500   41.5200 H   0  0  0  0  0  0  0  0  0  0  0  0
   38.1850   21.8990   40.1250 C   0  0  0  0  0  0  0  0  0  0  0  0
   37.8800   21.0460   40.6730 H   0  0  0  0  0  0  0  0  0  0  0  0
   38.9060   22.0210   38.9690 C   0  0  0  0  0  3  0  0  0  0  0  0
   39.2720   23.1590   38.3030 C   0  0  0  0  0  3  0  0  0  0  0  0
   36.9280   28.5910   41.9920 C   0  0  0  0  0  0  0  0  0  0  0  0
   36.6090   28.0730   43.1050 O   0  0  0  0  0  0  0  0  0  0  0  0
   37.9530   29.6000   41.8730 C   0  0  0  0  0  0  0  0  0  0  0  0
   38.8600   29.6920   42.9840 C   0  0  0  0  0  0  0  0  0  0  0  0
   39.8520   30.6490   42.8950 C   0  0  0  0  0  0  0  0  0  0  0  0
   39.9090   31.4310   41.7800 N   0  0  0  0  0  0  0  0  0  0  0  0
   39.0150   31.2980   40.7500 C   0  0  0  0  0  0  0  0  0  0  0  0
   38.0860   30.4090   40.8240 N   0  0  0  0  0  0  0  0  0  0  0  0
   38.8880   29.1310   43.8820 H   0  0  0  0  0  0  0  0  0  0  0  0
   40.5980   30.8240   43.6570 H   0  0  0  0  0  0  0  0  0  0  0  0
   39.1580   32.1820   39.5730 C   0  0  1  0  0  0  0  0  0  0  0  0
   38.1930   32.0290   38.4190 C   0  0  0  0  0  0  0  0  0  0  0  0
   38.0600   33.1570   39.3900 C   0  0  1  0  0  0  0  0  0  0  0  0
   40.1740   32.5540   39.3690 H   0  0  0  0  0  0  0  0  0  0  0  0
   38.6240   32.3040   37.4310 H   0  0  0  0  0  0  0  0  0  0  0  0
   37.5400   31.1420   38.4700 H   0  0  0  0  0  0  0  0  0  0  0  0
   38.2780   34.1910   39.0340 H   0  0  0  0  0  0  0  0  0  0  0  0
   36.8530   33.0570   40.1960 N   0  0  0  0  0  0  0  0  0  0  0  0
   36.0260   32.7450   39.6240 H   0  0  0  0  0  0  0  0  0  0  0  0
   36.6210   33.9810   40.5950 H   0  0  0  0  0  0  0  0  0  0  0  0
  1 11  1  0  0  0  0
  1  2  1  0  0  0  0
  2 23  1  0  0  0  0
  3  7  1  0  0  0  0
  3  2  2  0  0  0  0
  4  3  1  0  0  0  0
  5  6  1  0  0  0  0
  5  4  2  0  0  0  0
  6  1  2  0  0  0  0
  8  4  1  0  0  0  0
  9  5  1  0  0  0  0
 10  6  1  0  0  0  0
 11 13  2  0  0  0  0
 11 12  2  0  0  0  0
 14 15  1  0  0  0  0
 15 16  1  0  0  0  0
 16 17  2  0  0  0  0
 16 11  1  0  0  0  0
 17 18  1  0  0  0  0
 19 17  1  0  0  0  0
 19 20  1  0  0  0  0
 21 19  2  0  0  0  0
 22 15  2  0  0  0  0
 22 21  1  0  0  0  0
 23 24  2  0  0  0  0
 25 23  1  0  0  0  0
 25 26  1  0  0  0  0
 26 31  1  0  0  0  0
 27 26  2  0  0  0  0
 27 32  1  0  0  0  0
 28 27  1  0  0  0  0
 29 30  1  0  0  0  0
 29 28  2  0  0  0  0
 30 25  2  0  0  0  0
 33 36  1  6  0  0  0
 33 29  1  0  0  0  0
 34 38  1  0  0  0  0
 34 35  1  0  0  0  0
 34 33  1  0  0  0  0
 35 39  1  6  0  0  0
 35 33  1  0  0  0  0
 35 40  1  0  0  0  0
 37 34  1  0  0  0  0
 40 42  1  0  0  0  0
 41 40  1  0  0  0  0
M  END
>  <minimizedAffinity>
-6.04864025

$$$$

 OpenBabel03252508053D

 42 45  0  0  1  0  0  0  0  0999 V2000
   36.6150   26.9190   40.1160 C   0  0  0  0  0  0  0  0  0  0  0  0
   36.3970   28.0390   40.8640 C   0  0  0  0  0  0  0  0  0  0  0  0
   36.6440   27.9670   42.2490 C   0  0  0  0  0  0  0  0  0  0  0  0
   37.0900   26.8310   42.8790 C   0  0  0  0  0  0  0  0  0  0  0  0
   37.3060   25.7110   42.1220 C   0  0  0  0  0  0  0  0  0  0  0  0
   37.0690   25.7740   40.7830 C   0  0  0  0  0  0  0  0  0  0  0  0
   36.4900   28.8020   42.9220 H   0  0  0  0  0  0  0  0  0  0  0  0
   37.2740   26.7810   43.9200 H   0  0  0  0  0  0  0  0  0  0  0  0
   37.6520   24.8030   42.5480 H   0  0  0  0  0  0  0  0  0  0  0  0
   37.2450   24.8800   40.1950 H   0  0  0  0  0  0  0  0  0  0  0  0
   36.4650   26.8960   38.4410 S   0  0  0  0  0  0  0  0  0  0  0  0
   36.1670   25.3800   38.2090 O   0  0  0  0  0  0  0  0  0  0  0  0
   37.7340   27.2010   37.7360 O   0  0  0  0  0  0  0  0  0  0  0  0
   36.2180   29.3750   37.0120 F   0  0  0  0  0  0  0  0  0  0  0  0
   35.1910   28.4780   36.8010 C   0  0  0  0  0  0  0  0  0  0  0  0
   35.1360   27.2160   37.4550 C   0  0  0  0  0  0  0  0  0  0  0  0
   34.0000   26.5190   37.0570 C   0  0  0  0  0  0  0  0  0  0  0  0
   34.0080   25.5230   37.5380 H   0  0  0  0  0  0  0  0  0  0  0  0
   32.9760   26.8210   36.1940 C   0  0  0  0  0  0  0  0  0  0  0  0
   32.1910   26.1280   36.0390 H   0  0  0  0  0  0  0  0  0  0  0  0
   33.2030   28.0650   35.6710 C   0  0  0  0  0  3  0  0  0  0  0  0
   34.2430   28.9200   35.9120 C   0  0  0  0  0  3  0  0  0  0  0  0
   35.9250   29.2900   40.2920 C   0  0  0  0  0  0  0  0  0  0  0  0
   34.7160   29.5290   39.9890 O   0  0  0  0  0  0  0  0  0  0  0  0
   36.9770   30.2570   40.0980 C   0  0  0  0  0  0  0  0  0  0  0  0
   36.6710   31.5970   40.5200 C   0  0  0  0  0  0  0  0  0  0  0  0
   37.6630   32.5420   40.3470 C   0  0  0  0  0  0  0  0  0  0  0  0
   38.8490   32.1540   39.7970 N   0  0  0  0  0  0  0  0  0  0  0  0
   39.0850   30.8600   39.4120 C   0  0  0  0  0  0  0  0  0  0  0  0
   38.1660   29.9700   39.5700 N   0  0  0  0  0  0  0  0  0  0  0  0
   35.7840   31.9820   40.9500 H   0  0  0  0  0  0  0  0  0  0  0  0
   37.5650   33.5820   40.6190 H   0  0  0  0  0  0  0  0  0  0  0  0
   40.4050   30.5240   38.8360 C   0  0  1  0  0  0  0  0  0  0  0  0
   40.4670   29.8660   37.4770 C   0  0  0  0  0  0  0  0  0  0  0  0
   40.7830   31.3160   37.6450 C   0  0  1  0  0  0  0  0  0  0  0  0
   41.2110   30.3250   39.5590 H   0  0  0  0  0  0  0  0  0  0  0  0
   41.3490   29.2030   37.3360 H   0  0  0  0  0  0  0  0  0  0  0  0
   39.4960   29.5280   37.0770 H   0  0  0  0  0  0  0  0  0  0  0  0
   41.8380   31.6490   37.5000 H   0  0  0  0  0  0  0  0  0  0  0  0
   39.8030   32.1770   37.0000 N   0  0  0  0  0  0  0  0  0  0  0  0
   39.5100   31.8010   36.0620 H   0  0  0  0  0  0  0  0  0  0  0  0
   40.2090   33.1130   36.8430 H   0  0  0  0  0  0  0  0  0  0  0  0
  1  6  2  0  0  0  0
  1  2  1  0  0  0  0
  2  3  2  0  0  0  0
  3  4  1  0  0  0  0
  3  7  1  0  0  0  0
  4  8  1  0  0  0  0
  5  9  1  0  0  0  0
  5  4  2  0  0  0  0
  6  5  1  0  0  0  0
 10  6  1  0  0  0  0
 11  1  1  0  0  0  0
 12 11  2  0  0  0  0
 13 11  2  0  0  0  0
 15 14  1  0  0  0  0
 15 16  1  0  0  0  0
 16 11  1  0  0  0  0
 17 16  2  0  0  0  0
 17 18  1  0  0  0  0
 19 17  1  0  0  0  0
 20 19  1  0  0  0  0
 21 22  1  0  0  0  0
 21 19  2  0  0  0  0
 22 15  2  0  0  0  0
 23  2  1  0  0  0  0
 24 23  2  0  0  0  0
 25 23  1  0  0  0  0
 25 26  1  0  0  0  0
 26 31  1  0  0  0  0
 27 26  2  0  0  0  0
 27 32  1  0  0  0  0
 28 27  1  0  0  0  0
 29 30  1  0  0  0  0
 29 28  2  0  0  0  0
 30 25  2  0  0  0  0
 33 29  1  0  0  0  0
 33 36  1  1  0  0  0
 34 35  1  0  0  0  0
 34 33  1  0  0  0  0
 35 39  1  6  0  0  0
 35 33  1  0  0  0  0
 37 34  1  0  0  0  0
 38 34  1  0  0  0  0
 40 35  1  0  0  0  0
 41 40  1  0  0  0  0
 42 40  1  0  0  0  0
M  END
>  <minimizedAffinity>
-5.95747757

$$$$

 OpenBabel03252508053D

 42 45  0  0  1  0  0  0  0  0999 V2000
   37.0850   28.7630   41.0760 C   0  0  0  0  0  0  0  0  0  0  0  0
   37.7180   29.8210   40.4890 C   0  0  0  0  0  0  0  0  0  0  0  0
   37.1100   30.4110   39.3640 C   0  0  0  0  0  0  0  0  0  0  0  0
   35.9210   29.9770   38.8320 C   0  0  0  0  0  0  0  0  0  0  0  0
   35.2930   28.9150   39.4250 C   0  0  0  0  0  0  0  0  0  0  0  0
   35.8740   28.3390   40.5130 C   0  0  0  0  0  0  0  0  0  0  0  0
   37.5430   31.2480   38.8290 H   0  0  0  0  0  0  0  0  0  0  0  0
   35.4690   30.4230   37.9860 H   0  0  0  0  0  0  0  0  0  0  0  0
   34.3730   28.5330   39.0630 H   0  0  0  0  0  0  0  0  0  0  0  0
   35.3670   27.4990   40.9740 H   0  0  0  0  0  0  0  0  0  0  0  0
   37.6420   28.0340   42.4860 S   0  0  0  0  0  0  0  0  0  0  0  0
   36.5810   26.9000   42.6510 O   0  0  0  0  0  0  0  0  0  0  0  0
   37.5300   28.9090   43.6790 O   0  0  0  0  0  0  0  0  0  0  0  0
   40.2860   28.6930   43.3970 F   0  0  0  0  0  0  0  0  0  0  0  0
   40.0580   27.3460   43.1990 C   0  0  0  0  0  0  0  0  0  0  0  0
   38.8150   26.8470   42.7180 C   0  0  0  0  0  0  0  0  0  0  0  0
   38.8640   25.4610   42.6150 C   0  0  0  0  0  0  0  0  0  0  0  0
   37.8720   25.0940   42.2900 H   0  0  0  0  0  0  0  0  0  0  0  0
   39.8480   24.5410   42.8790 C   0  0  0  0  0  0  0  0  0  0  0  0
   39.6660   23.5100   42.7230 H   0  0  0  0  0  0  0  0  0  0  0  0
   40.9560   25.2080   43.3250 C   0  0  0  0  0  3  0  0  0  0  0  0
   41.1330   26.5510   43.5060 C   0  0  0  0  0  3  0  0  0  0  0  0
   38.9790   30.3550   40.9770 C   0  0  0  0  0  0  0  0  0  0  0  0
   39.1090   31.0250   42.0460 O   0  0  0  0  0  0  0  0  0  0  0  0
   40.0950   30.0460   40.1160 C   0  0  0  0  0  0  0  0  0  0  0  0
   40.3360   28.6460   39.8960 C   0  0  0  0  0  0  0  0  0  0  0  0
   41.3970   28.3230   39.0740 C   0  0  0  0  0  0  0  0  0  0  0  0
   42.1370   29.3320   38.5320 N   0  0  0  0  0  0  0  0  0  0  0  0
   41.8600   30.6520   38.7780 C   0  0  0  0  0  0  0  0  0  0  0  0
   40.8720   30.9640   39.5430 N   0  0  0  0  0  0  0  0  0  0  0  0
   39.8180   27.8040   40.2750 H   0  0  0  0  0  0  0  0  0  0  0  0
   41.6890   27.3130   38.8260 H   0  0  0  0  0  0  0  0  0  0  0  0
   42.7070   31.6820   38.1380 C   0  0  1  0  0  0  0  0  0  0  0  0
   42.8990   31.6470   36.6390 C   0  0  0  0  0  0  0  0  0  0  0  0
   41.9780   32.6380   37.2750 C   0  0  1  0  0  0  0  0  0  0  0  0
   43.5050   32.1090   38.7650 H   0  0  0  0  0  0  0  0  0  0  0  0
   43.8740   32.0590   36.2990 H   0  0  0  0  0  0  0  0  0  0  0  0
   42.5170   30.7410   36.1400 H   0  0  0  0  0  0  0  0  0  0  0  0
   42.2660   33.7160   37.2590 H   0  0  0  0  0  0  0  0  0  0  0  0
   40.5840   32.3990   36.9360 N   0  0  0  0  0  0  0  0  0  0  0  0
   40.4680   32.1370   35.9230 H   0  0  0  0  0  0  0  0  0  0  0  0
   40.0320   33.2560   37.0970 H   0  0  0  0  0  0  0  0  0  0  0  0
  1 11  1  0  0  0  0
  2 23  1  0  0  0  0
  2  1  2  0  0  0  0
  3  2  1  0  0  0  0
  4  3  2  0  0  0  0
  4  5  1  0  0  0  0
  5  6  2  0  0  0  0
  6 10  1  0  0  0  0
  6  1  1  0  0  0  0
  7  3  1  0  0  0  0
  8  4  1  0  0  0  0
  9  5  1  0  0  0  0
 11 12  2  0  0  0  0
 11 16  1  0  0  0  0
 11 13  2  0  0  0  0
 15 14  1  0  0  0  0
 15 22  1  0  0  0  0
 16 15  2  0  0  0  0
 17 16  1  0  0  0  0
 17 19  2  0  0  0  0
 18 17  1  0  0  0  0
 19 21  1  0  0  0  0
 20 19  1  0  0  0  0
 21 22  2  0  0  0  0
 23 24  2  0  0  0  0
 25 23  1  0  0  0  0
 26 25  1  0  0  0  0
 26 31  1  0  0  0  0
 27 26  2  0  0  0  0
 28 29  2  0  0  0  0
 28 27  1  0  0  0  0
 29 30  1  0  0  0  0
 30 25  2  0  0  0  0
 32 27  1  0  0  0  0
 33 36  1  1  0  0  0
 33 29  1  0  0  0  0
 34 35  1  0  0  0  0
 34 33  1  0  0  0  0
 35 39  1  1  0  0  0
 35 33  1  0  0  0  0
 37 34  1  0  0  0  0
 38 34  1  0  0  0  0
 40 42  1  0  0  0  0
 40 35  1  0  0  0  0
 41 40  1  0  0  0  0
M  END
>  <minimizedAffinity>
-5.90373468

$$$$

 OpenBabel03252508053D

 42 45  0  0  1  0  0  0  0  0999 V2000
   37.3590   28.1760   41.1310 C   0  0  0  0  0  0  0  0  0  0  0  0
   37.2440   27.7790   39.8290 C   0  0  0  0  0  0  0  0  0  0  0  0
   37.0490   26.4090   39.5720 C   0  0  0  0  0  0  0  0  0  0  0  0
   36.9680   25.4580   40.5610 C   0  0  0  0  0  0  0  0  0  0  0  0
   37.0850   25.8630   41.8630 C   0  0  0  0  0  0  0  0  0  0  0  0
   37.2750   27.1870   42.1190 C   0  0  0  0  0  0  0  0  0  0  0  0
   36.9560   26.0010   38.5730 H   0  0  0  0  0  0  0  0  0  0  0  0
   36.8220   24.4290   40.3630 H   0  0  0  0  0  0  0  0  0  0  0  0
   37.0310   25.1790   42.6710 H   0  0  0  0  0  0  0  0  0  0  0  0
   37.3650   27.4960   43.1540 H   0  0  0  0  0  0  0  0  0  0  0  0
   37.4860   29.7900   41.5850 S   0  0  0  0  0  0  0  0  0  0  0  0
   38.0790   29.6300   43.0210 O   0  0  0  0  0  0  0  0  0  0  0  0
   36.1710   30.4620   41.7310 O   0  0  0  0  0  0  0  0  0  0  0  0
   36.9790   32.2370   40.1660 F   0  0  0  0  0  0  0  0  0  0  0  0
   38.2760   32.0820   40.6120 C   0  0  0  0  0  0  0  0  0  0  0  0
   38.7090   30.9160   41.3030 C   0  0  0  0  0  0  0  0  0  0  0  0
   40.0550   31.0280   41.6350 C   0  0  0  0  0  0  0  0  0  0  0  0
   40.3540   30.1350   42.2150 H   0  0  0  0  0  0  0  0  0  0  0  0
   40.9880   32.0110   41.4210 C   0  0  0  0  0  0  0  0  0  0  0  0
   41.9810   31.8850   41.7650 H   0  0  0  0  0  0  0  0  0  0  0  0
   40.3880   33.0400   40.7470 C   0  0  0  0  0  3  0  0  0  0  0  0
   39.0920   33.1470   40.3260 C   0  0  0  0  0  3  0  0  0  0  0  0
   37.3150   28.7070   38.7130 C   0  0  0  0  0  0  0  0  0  0  0  0
   36.3460   29.4210   38.3100 O   0  0  0  0  0  0  0  0  0  0  0  0
   38.6160   28.7460   38.0900 C   0  0  0  0  0  0  0  0  0  0  0  0
   38.9190   27.6390   37.2240 C   0  0  0  0  0  0  0  0  0  0  0  0
   40.1570   27.6520   36.6130 C   0  0  0  0  0  0  0  0  0  0  0  0
   41.0000   28.6950   36.8630 N   0  0  0  0  0  0  0  0  0  0  0  0
   40.6560   29.7250   37.6990 C   0  0  0  0  0  0  0  0  0  0  0  0
   39.5040   29.7210   38.2740 N   0  0  0  0  0  0  0  0  0  0  0  0
   38.3300   26.7940   36.9770 H   0  0  0  0  0  0  0  0  0  0  0  0
   40.5120   26.8840   35.9410 H   0  0  0  0  0  0  0  0  0  0  0  0
   41.6270   30.8210   37.9040 C   0  0  1  0  0  0  0  0  0  0  0  0
   42.2440   31.4900   36.6970 C   0  0  0  0  0  0  0  0  0  0  0  0
   41.1560   32.1570   37.4740 C   0  0  1  0  0  0  0  0  0  0  0  0
   42.2000   30.7910   38.8440 H   0  0  0  0  0  0  0  0  0  0  0  0
   43.2670   31.8900   36.8760 H   0  0  0  0  0  0  0  0  0  0  0  0
   42.0450   30.9910   35.7330 H   0  0  0  0  0  0  0  0  0  0  0  0
   41.4110   33.0640   38.0710 H   0  0  0  0  0  0  0  0  0  0  0  0
   39.9260   32.2850   36.7090 N   0  0  0  0  0  0  0  0  0  0  0  0
   40.1140   32.5600   35.7100 H   0  0  0  0  0  0  0  0  0  0  0  0
   39.3310   33.0200   37.1230 H   0  0  0  0  0  0  0  0  0  0  0  0
  1 11  1  0  0  0  0
  1  6  1  0  0  0  0
  2  1  2  0  0  0  0
  3  2  1  0  0  0  0
  3  4  2  0  0  0  0
  4  5  1  0  0  0  0
  5  6  2  0  0  0  0
  5  9  1  0  0  0  0
  6 10  1  0  0  0  0
  7  3  1  0  0  0  0
  8  4  1  0  0  0  0
 11 13  2  0  0  0  0
 11 12  2  0  0  0  0
 14 15  1  0  0  0  0
 15 16  1  0  0  0  0
 16 11  1  0  0  0  0
 16 17  2  0  0  0  0
 17 18  1  0  0  0  0
 19 17  1  0  0  0  0
 19 20  1  0  0  0  0
 21 19  2  0  0  0  0
 22 15  2  0  0  0  0
 22 21  1  0  0  0  0
 23  2  1  0  0  0  0
 24 23  2  0  0  0  0
 25 30  1  0  0  0  0
 25 23  1  0  0  0  0
 26 25  2  0  0  0  0
 27 28  2  0  0  0  0
 27 26  1  0  0  0  0
 28 29  1  0  0  0  0
 29 33  1  0  0  0  0
 29 30  2  0  0  0  0
 31 26  1  0  0  0  0
 32 27  1  0  0  0  0
 33 36  1  1  0  0  0
 34 37  1  0  0  0  0
 34 35  1  0  0  0  0
 34 33  1  0  0  0  0
 35 33  1  0  0  0  0
 35 39  1  1  0  0  0
 38 34  1  0  0  0  0
 40 42  1  0  0  0  0
 40 35  1  0  0  0  0
 41 40  1  0  0  0  0
M  END
>  <minimizedAffinity>
-5.88901997

$$$$

 OpenBabel03252508053D

 42 45  0  0  1  0  0  0  0  0999 V2000
   37.8850   28.6280   37.8450 C   0  0  0  0  0  0  0  0  0  0  0  0
   37.4230   29.9130   37.8400 C   0  0  0  0  0  0  0  0  0  0  0  0
   36.9220   30.4290   36.6290 C   0  0  0  0  0  0  0  0  0  0  0  0
   36.8750   29.7080   35.4610 C   0  0  0  0  0  0  0  0  0  0  0  0
   37.3400   28.4200   35.4740 C   0  0  0  0  0  0  0  0  0  0  0  0
   37.8260   27.9150   36.6400 C   0  0  0  0  0  0  0  0  0  0  0  0
   36.5440   31.4400   36.5270 H   0  0  0  0  0  0  0  0  0  0  0  0
   36.4990   30.1000   34.5540 H   0  0  0  0  0  0  0  0  0  0  0  0
   37.3300   27.8110   34.6060 H   0  0  0  0  0  0  0  0  0  0  0  0
   38.1900   26.8930   36.6380 H   0  0  0  0  0  0  0  0  0  0  0  0
   38.4080   27.8510   39.2410 S   0  0  0  0  0  0  0  0  0  0  0  0
   39.8760   28.3780   39.3200 O   0  0  0  0  0  0  0  0  0  0  0  0
   38.4830   26.3760   39.0970 O   0  0  0  0  0  0  0  0  0  0  0  0
   36.1990   26.9550   40.8450 F   0  0  0  0  0  0  0  0  0  0  0  0
   37.1220   27.7350   41.5110 C   0  0  0  0  0  0  0  0  0  0  0  0
   38.2590   28.2910   40.8620 C   0  0  0  0  0  0  0  0  0  0  0  0
   39.0150   29.0270   41.7670 C   0  0  0  0  0  0  0  0  0  0  0  0
   39.9190   29.4050   41.2520 H   0  0  0  0  0  0  0  0  0  0  0  0
   38.8630   29.3000   43.1040 C   0  0  0  0  0  0  0  0  0  0  0  0
   39.5740   29.9000   43.6080 H   0  0  0  0  0  0  0  0  0  0  0  0
   37.7220   28.6870   43.5440 C   0  0  0  0  0  3  0  0  0  0  0  0
   36.8360   27.9180   42.8410 C   0  0  0  0  0  3  0  0  0  0  0  0
   37.4300   30.7580   39.0230 C   0  0  0  0  0  0  0  0  0  0  0  0
   36.5220   30.7580   39.9090 O   0  0  0  0  0  0  0  0  0  0  0  0
   38.5880   31.6140   39.1010 C   0  0  0  0  0  0  0  0  0  0  0  0
   38.3670   32.8980   39.7080 C   0  0  0  0  0  0  0  0  0  0  0  0
   39.4600   33.7370   39.7980 C   0  0  0  0  0  0  0  0  0  0  0  0
   40.6590   33.3040   39.3150 N   0  0  0  0  0  0  0  0  0  0  0  0
   40.8110   32.0670   38.7450 C   0  0  0  0  0  0  0  0  0  0  0  0
   39.7980   31.2770   38.6560 N   0  0  0  0  0  0  0  0  0  0  0  0
   37.4770   33.3130   40.1050 H   0  0  0  0  0  0  0  0  0  0  0  0
   39.4330   34.7270   40.2300 H   0  0  0  0  0  0  0  0  0  0  0  0
   42.1510   31.6740   38.2580 C   0  0  1  0  0  0  0  0  0  0  0  0
   42.3390   31.3700   36.7890 C   0  0  0  0  0  0  0  0  0  0  0  0
   42.8060   32.6630   37.3730 C   0  0  1  0  0  0  0  0  0  0  0  0
   42.8040   31.1740   38.9900 H   0  0  0  0  0  0  0  0  0  0  0  0
   43.1410   30.6270   36.5800 H   0  0  0  0  0  0  0  0  0  0  0  0
   41.4070   31.3040   36.2030 H   0  0  0  0  0  0  0  0  0  0  0  0
   43.9050   32.8450   37.4470 H   0  0  0  0  0  0  0  0  0  0  0  0
   42.0560   33.8030   36.8720 N   0  0  0  0  0  0  0  0  0  0  0  0
   41.8660   33.7220   35.8400 H   0  0  0  0  0  0  0  0  0  0  0  0
   42.5970   34.6710   37.0180 H   0  0  0  0  0  0  0  0  0  0  0  0
  1 11  1  0  0  0  0
  2  1  1  0  0  0  0
  2 23  1  0  0  0  0
  3  2  2  0  0  0  0
  4  5  2  0  0  0  0
  4  3  1  0  0  0  0
  5  6  1  0  0  0  0
  6  1  2  0  0  0  0
  7  3  1  0  0  0  0
  8  4  1  0  0  0  0
  9  5  1  0  0  0  0
 10  6  1  0  0  0  0
 11 12  2  0  0  0  0
 11 16  1  0  0  0  0
 13 11  2  0  0  0  0
 14 15  1  0  0  0  0
 15 22  1  0  0  0  0
 16 15  2  0  0  0  0
 16 17  1  0  0  0  0
 17 19  2  0  0  0  0
 18 17  1  0  0  0  0
 19 21  1  0  0  0  0
 19 20  1  0  0  0  0
 22 21  2  0  0  0  0
 23 25  1  0  0  0  0
 23 24  2  0  0  0  0
 25 26  1  0  0  0  0
 26 27  2  0  0  0  0
 26 31  1  0  0  0  0
 27 32  1  0  0  0  0
 28 27  1  0  0  0  0
 29 28  2  0  0  0  0
 30 29  1  0  0  0  0
 30 25  2  0  0  0  0
 33 29  1  0  0  0  0
 33 36  1  1  0  0  0
 34 35  1  0  0  0  0
 34 33  1  0  0  0  0
 35 39  1  1  0  0  0
 35 33  1  0  0  0  0
 37 34  1  0  0  0  0
 38 34  1  0  0  0  0
 40 42  1  0  0  0  0
 40 35  1  0  0  0  0
 41 40  1  0  0  0  0
M  END
>  <minimizedAffinity>
-5.84399414

$$$$

 OpenBabel03252508053D

 42 45  0  0  1  0  0  0  0  0999 V2000
   36.5710   27.2280   39.8750 C   0  0  0  0  0  0  0  0  0  0  0  0
   36.2130   28.3120   40.6250 C   0  0  0  0  0  0  0  0  0  0  0  0
   35.1820   29.1390   40.1400 C   0  0  0  0  0  0  0  0  0  0  0  0
   34.5220   28.9100   38.9570 C   0  0  0  0  0  0  0  0  0  0  0  0
   34.8860   27.8210   38.2100 C   0  0  0  0  0  0  0  0  0  0  0  0
   35.8830   27.0180   38.6730 C   0  0  0  0  0  0  0  0  0  0  0  0
   34.8380   30.0240   40.6610 H   0  0  0  0  0  0  0  0  0  0  0  0
   33.7480   29.5340   38.5960 H   0  0  0  0  0  0  0  0  0  0  0  0
   34.4160   27.5890   37.2890 H   0  0  0  0  0  0  0  0  0  0  0  0
   36.1620   26.1590   38.0730 H   0  0  0  0  0  0  0  0  0  0  0  0
   37.7080   26.1000   40.3860 S   0  0  0  0  0  0  0  0  0  0  0  0
   38.0470   25.4110   39.0260 O   0  0  0  0  0  0  0  0  0  0  0  0
   37.1380   25.0550   41.2720 O   0  0  0  0  0  0  0  0  0  0  0  0
   39.2290   28.1750   39.1060 F   0  0  0  0  0  0  0  0  0  0  0  0
   39.9580   27.3470   39.9350 C   0  0  0  0  0  0  0  0  0  0  0  0
   39.3700   26.2480   40.6220 C   0  0  0  0  0  0  0  0  0  0  0  0
   40.3300   25.5910   41.3840 C   0  0  0  0  0  0  0  0  0  0  0  0
   39.8400   24.7750   41.9480 H   0  0  0  0  0  0  0  0  0  0  0  0
   41.6730   25.8030   41.5770 C   0  0  0  0  0  0  0  0  0  0  0  0
   42.2250   25.1640   42.2140 H   0  0  0  0  0  0  0  0  0  0  0  0
   42.0490   26.8920   40.8390 C   0  0  0  0  0  3  0  0  0  0  0  0
   41.2850   27.6850   40.0290 C   0  0  0  0  0  3  0  0  0  0  0  0
   36.8500   28.6400   41.8900 C   0  0  0  0  0  0  0  0  0  0  0  0
   36.5440   28.1160   43.0040 O   0  0  0  0  0  0  0  0  0  0  0  0
   37.8850   29.6370   41.7610 C   0  0  0  0  0  0  0  0  0  0  0  0
   38.9430   29.5570   42.7320 C   0  0  0  0  0  0  0  0  0  0  0  0
   39.9480   30.4980   42.6300 C   0  0  0  0  0  0  0  0  0  0  0  0
   39.8770   31.4270   41.6350 N   0  0  0  0  0  0  0  0  0  0  0  0
   38.8420   31.4550   40.7360 C   0  0  0  0  0  0  0  0  0  0  0  0
   37.8990   30.5820   40.8230 N   0  0  0  0  0  0  0  0  0  0  0  0
   39.0750   28.8760   43.5320 H   0  0  0  0  0  0  0  0  0  0  0  0
   40.7990   30.5520   43.2930 H   0  0  0  0  0  0  0  0  0  0  0  0
   38.8520   32.4910   39.6810 C   0  0  1  0  0  0  0  0  0  0  0  0
   37.6500   33.3950   39.5290 C   0  0  0  0  0  0  0  0  0  0  0  0
   38.9040   33.8840   40.1770 C   0  0  1  0  0  0  0  0  0  0  0  0
   39.4650   32.2710   38.7930 H   0  0  0  0  0  0  0  0  0  0  0  0
   37.4840   33.7540   38.4890 H   0  0  0  0  0  0  0  0  0  0  0  0
   36.7680   33.1040   40.1230 H   0  0  0  0  0  0  0  0  0  0  0  0
   39.5130   34.6500   39.6420 H   0  0  0  0  0  0  0  0  0  0  0  0
   38.7270   34.1610   41.5940 N   0  0  0  0  0  0  0  0  0  0  0  0
   37.8070   34.6360   41.7860 H   0  0  0  0  0  0  0  0  0  0  0  0
   39.4740   34.7930   41.9240 H   0  0  0  0  0  0  0  0  0  0  0  0
  1 11  1  0  0  0  0
  1  2  1  0  0  0  0
  2 23  1  0  0  0  0
  3  2  2  0  0  0  0
  3  7  1  0  0  0  0
  4  3  1  0  0  0  0
  5  6  1  0  0  0  0
  5  4  2  0  0  0  0
  6  1  2  0  0  0  0
  8  4  1  0  0  0  0
  9  5  1  0  0  0  0
 10  6  1  0  0  0  0
 11 16  1  0  0  0  0
 11 13  2  0  0  0  0
 12 11  2  0  0  0  0
 14 15  1  0  0  0  0
 15 22  2  0  0  0  0
 15 16  1  0  0  0  0
 16 17  2  0  0  0  0
 17 19  1  0  0  0  0
 17 18  1  0  0  0  0
 19 20  1  0  0  0  0
 21 19  2  0  0  0  0
 22 21  1  0  0  0  0
 23 24  2  0  0  0  0
 25 23  1  0  0  0  0
 25 26  1  0  0  0  0
 26 31  1  0  0  0  0
 27 26  2  0  0  0  0
 27 32  1  0  0  0  0
 28 27  1  0  0  0  0
 29 30  1  0  0  0  0
 29 28  2  0  0  0  0
 30 25  2  0  0  0  0
 33 36  1  6  0  0  0
 33 35  1  0  0  0  0
 33 29  1  0  0  0  0
 34 33  1  0  0  0  0
 34 38  1  0  0  0  0
 34 35  1  0  0  0  0
 35 39  1  6  0  0  0
 35 40  1  0  0  0  0
 37 34  1  0  0  0  0
 40 41  1  0  0  0  0
 40 42  1  0  0  0  0
M  END
>  <minimizedAffinity>
-5.84179544

$$$$

 OpenBabel03252508053D

 42 45  0  0  1  0  0  0  0  0999 V2000
   36.4870   29.2450   38.3590 C   0  0  0  0  0  0  0  0  0  0  0  0
   37.1090   30.4500   38.2060 C   0  0  0  0  0  0  0  0  0  0  0  0
   37.3090   30.9280   36.8960 C   0  0  0  0  0  0  0  0  0  0  0  0
   36.9110   30.2450   35.7730 C   0  0  0  0  0  0  0  0  0  0  0  0
   36.2880   29.0360   35.9340 C   0  0  0  0  0  0  0  0  0  0  0  0
   36.0920   28.5680   37.1970 C   0  0  0  0  0  0  0  0  0  0  0  0
   37.8020   31.8680   36.6770 H   0  0  0  0  0  0  0  0  0  0  0  0
   37.0640   30.6070   34.7910 H   0  0  0  0  0  0  0  0  0  0  0  0
   35.9560   28.4610   35.1080 H   0  0  0  0  0  0  0  0  0  0  0  0
   35.5970   27.6110   37.3120 H   0  0  0  0  0  0  0  0  0  0  0  0
   36.0880   28.6080   39.8630 S   0  0  0  0  0  0  0  0  0  0  0  0
   35.8310   27.1170   39.4760 O   0  0  0  0  0  0  0  0  0  0  0  0
   34.8140   29.1410   40.4050 O   0  0  0  0  0  0  0  0  0  0  0  0
   36.6550   30.1770   42.2020 F   0  0  0  0  0  0  0  0  0  0  0  0
   37.2210   28.9180   42.1960 C   0  0  0  0  0  0  0  0  0  0  0  0
   37.0710   28.0220   41.1010 C   0  0  0  0  0  0  0  0  0  0  0  0
   37.7400   26.8310   41.3620 C   0  0  0  0  0  0  0  0  0  0  0  0
   37.5650   26.1330   40.5220 H   0  0  0  0  0  0  0  0  0  0  0  0
   38.4830   26.3950   42.4310 C   0  0  0  0  0  0  0  0  0  0  0  0
   38.9150   25.4280   42.4180 H   0  0  0  0  0  0  0  0  0  0  0  0
   38.5140   27.3880   43.3710 C   0  0  0  0  0  3  0  0  0  0  0  0
   37.9320   28.6240   43.3320 C   0  0  0  0  0  3  0  0  0  0  0  0
   37.5680   31.2490   39.3300 C   0  0  0  0  0  0  0  0  0  0  0  0
   36.8050   31.9060   40.1020 O   0  0  0  0  0  0  0  0  0  0  0  0
   39.0010   31.2270   39.4940 C   0  0  0  0  0  0  0  0  0  0  0  0
   39.5840   29.9230   39.6610 C   0  0  0  0  0  0  0  0  0  0  0  0
   40.9550   29.8730   39.8170 C   0  0  0  0  0  0  0  0  0  0  0  0
   41.6580   31.0410   39.8030 N   0  0  0  0  0  0  0  0  0  0  0  0
   41.0480   32.2580   39.6400 C   0  0  0  0  0  0  0  0  0  0  0  0
   39.7700   32.3150   39.4930 N   0  0  0  0  0  0  0  0  0  0  0  0
   39.1160   28.9730   39.6860 H   0  0  0  0  0  0  0  0  0  0  0  0
   41.5180   28.9620   39.9520 H   0  0  0  0  0  0  0  0  0  0  0  0
   41.8900   33.4730   39.6240 C   0  0  1  0  0  0  0  0  0  0  0  0
   43.1810   33.4620   38.8370 C   0  0  0  0  0  0  0  0  0  0  0  0
   41.9670   34.1600   38.3160 C   0  0  1  0  0  0  0  0  0  0  0  0
   41.8140   34.1260   40.5080 H   0  0  0  0  0  0  0  0  0  0  0  0
   43.9680   34.1300   39.2520 H   0  0  0  0  0  0  0  0  0  0  0  0
   43.4880   32.4740   38.4570 H   0  0  0  0  0  0  0  0  0  0  0  0
   41.9770   35.2750   38.2640 H   0  0  0  0  0  0  0  0  0  0  0  0
   41.4280   33.5230   37.1250 N   0  0  0  0  0  0  0  0  0  0  0  0
   42.1910   33.2170   36.4670 H   0  0  0  0  0  0  0  0  0  0  0  0
   40.8280   34.1890   36.6120 H   0  0  0  0  0  0  0  0  0  0  0  0
  1 11  1  0  0  0  0
  2  1  1  0  0  0  0
  2 23  1  0  0  0  0
  3  2  2  0  0  0  0
  4  5  2  0  0  0  0
  4  3  1  0  0  0  0
  5  6  1  0  0  0  0
  6 10  1  0  0  0  0
  6  1  2  0  0  0  0
  7  3  1  0  0  0  0
  8  4  1  0  0  0  0
  9  5  1  0  0  0  0
 11 13  2  0  0  0  0
 11 16  1  0  0  0  0
 12 11  2  0  0  0  0
 15 14  1  0  0  0  0
 15 22  1  0  0  0  0
 16 17  1  0  0  0  0
 16 15  2  0  0  0  0
 17 19  2  0  0  0  0
 18 17  1  0  0  0  0
 19 21  1  0  0  0  0
 20 19  1  0  0  0  0
 22 21  2  0  0  0  0
 23 25  1  0  0  0  0
 23 24  2  0  0  0  0
 25 26  1  0  0  0  0
 26 31  1  0  0  0  0
 26 27  2  0  0  0  0
 27 32  1  0  0  0  0
 28 27  1  0  0  0  0
 29 28  2  0  0  0  0
 30 25  2  0  0  0  0
 30 29  1  0  0  0  0
 33 29  1  0  0  0  0
 33 36  1  1  0  0  0
 34 37  1  0  0  0  0
 34 33  1  0  0  0  0
 35 39  1  1  0  0  0
 35 34  1  0  0  0  0
 35 33  1  0  0  0  0
 38 34  1  0  0  0  0
 40 35  1  0  0  0  0
 41 40  1  0  0  0  0
 42 40  1  0  0  0  0
M  END
>  <minimizedAffinity>
-5.80449915

$$$$
