
 OpenBabel03252508023D

 42 45  0  0  1  0  0  0  0  0999 V2000
   42.0250   33.3030   41.2080 C   0  0  0  0  0  0  0  0  0  0  0  0
   42.7940   34.4240   41.3320 C   0  0  0  0  0  0  0  0  0  0  0  0
   42.1580   35.6760   41.2250 C   0  0  0  0  0  0  0  0  0  0  0  0
   40.8100   35.8230   41.0040 C   0  0  0  0  0  0  0  0  0  0  0  0
   40.0450   34.6940   40.8800 C   0  0  0  0  0  0  0  0  0  0  0  0
   40.6530   33.4810   40.9820 C   0  0  0  0  0  0  0  0  0  0  0  0
   42.6880   36.6180   41.3010 H   0  0  0  0  0  0  0  0  0  0  0  0
   40.3360   36.7650   40.9240 H   0  0  0  0  0  0  0  0  0  0  0  0
   39.0000   34.7400   40.7100 H   0  0  0  0  0  0  0  0  0  0  0  0
   40.0370   32.5940   40.8830 H   0  0  0  0  0  0  0  0  0  0  0  0
   42.6330   31.7500   41.4220 S   0  0  0  0  0  0  0  0  0  0  0  0
   42.0030   31.0310   40.1860 O   0  0  0  0  0  0  0  0  0  0  0  0
   42.1040   31.0760   42.6330 O   0  0  0  0  0  0  0  0  0  0  0  0
   44.4060   30.5350   43.3280 F   0  0  0  0  0  0  0  0  0  0  0  0
   44.8430   30.4910   42.0190 C   0  0  0  0  0  0  0  0  0  0  0  0
   44.1040   31.0740   40.9510 C   0  0  0  0  0  0  0  0  0  0  0  0
   44.7710   30.8820   39.7470 C   0  0  0  0  0  0  0  0  0  0  0  0
   44.1540   31.2960   38.9280 H   0  0  0  0  0  0  0  0  0  0  0  0
   45.9550   30.2650   39.4250 C   0  0  0  0  0  0  0  0  0  0  0  0
   46.2820   30.2360   38.4200 H   0  0  0  0  0  0  0  0  0  0  0  0
   46.5130   29.7730   40.5730 C   0  0  0  0  0  3  0  0  0  0  0  0
   46.0390   29.8410   41.8530 C   0  0  0  0  0  3  0  0  0  0  0  0
   44.2270   34.3740   41.5670 C   0  0  0  0  0  0  0  0  0  0  0  0
   45.1010   34.2670   40.6530 O   0  0  0  0  0  0  0  0  0  0  0  0
   44.5760   34.4610   42.9640 C   0  0  0  0  0  0  0  0  0  0  0  0
   44.2860   35.7200   43.5960 C   0  0  0  0  0  0  0  0  0  0  0  0
   44.6070   35.8300   44.9340 C   0  0  0  0  0  0  0  0  0  0  0  0
   45.1690   34.7580   45.5620 N   0  0  0  0  0  0  0  0  0  0  0  0
   45.4230   33.5800   44.9080 C   0  0  0  0  0  0  0  0  0  0  0  0
   45.1270   33.4680   43.6600 N   0  0  0  0  0  0  0  0  0  0  0  0
   43.8560   36.5970   43.1870 H   0  0  0  0  0  0  0  0  0  0  0  0
   44.4430   36.7160   45.5280 H   0  0  0  0  0  0  0  0  0  0  0  0
   46.0240   32.4640   45.6710 C   0  0  1  0  0  0  0  0  0  0  0  0
   46.9680   32.7770   46.8080 C   0  0  0  0  0  0  0  0  0  0  0  0
   45.5610   32.3490   47.0710 C   0  0  1  0  0  0  0  0  0  0  0  0
   46.1480   31.5170   45.1240 H   0  0  0  0  0  0  0  0  0  0  0  0
   47.7410   31.9960   46.9820 H   0  0  0  0  0  0  0  0  0  0  0  0
   47.2750   33.8340   46.8840 H   0  0  0  0  0  0  0  0  0  0  0  0
   45.3890   31.3460   47.5280 H   0  0  0  0  0  0  0  0  0  0  0  0
   44.7590   33.4080   47.6650 N   0  0  0  0  0  0  0  0  0  0  0  0
   45.2990   33.9440   48.3930 H   0  0  0  0  0  0  0  0  0  0  0  0
   43.9330   33.0010   48.1320 H   0  0  0  0  0  0  0  0  0  0  0  0
  1  2  1  0  0  0  0
  1 11  1  0  0  0  0
  2 23  1  0  0  0  0
  3  7  1  0  0  0  0
  3  2  2  0  0  0  0
  4  3  1  0  0  0  0
  5  6  1  0  0  0  0
  5  4  2  0  0  0  0
  6  1  2  0  0  0  0
  8  4  1  0  0  0  0
  9  5  1  0  0  0  0
 10  6  1  0  0  0  0
 11 13  2  0  0  0  0
 12 11  2  0  0  0  0
 15 14  1  0  0  0  0
 16 11  1  0  0  0  0
 16 15  2  0  0  0  0
 17 16  1  0  0  0  0
 18 17  1  0  0  0  0
 19 17  2  0  0  0  0
 19 21  1  0  0  0  0
 20 19  1  0  0  0  0
 21 22  2  0  0  0  0
 22 15  1  0  0  0  0
 23 25  1  0  0  0  0
 24 23  2  0  0  0  0
 25 26  2  0  0  0  0
 25 30  1  0  0  0  0
 26 27  1  0  0  0  0
 27 32  1  0  0  0  0
 27 28  2  0  0  0  0
 29 28  1  0  0  0  0
 29 33  1  0  0  0  0
 30 29  2  0  0  0  0
 31 26  1  0  0  0  0
 33 36  1  6  0  0  0
 33 34  1  0  0  0  0
 33 35  1  0  0  0  0
 34 38  1  0  0  0  0
 34 37  1  0  0  0  0
 34 35  1  0  0  0  0
 35 39  1  1  0  0  0
 35 40  1  0  0  0  0
 40 42  1  0  0  0  0
 40 41  1  0  0  0  0
M  END
>  <minimizedAffinity>
-5.82461452

>  <minimizedRMSD>
0.646571219

$$$$
