
 OpenBabel03252508593D

 45 47  0  0  1  0  0  0  0  0999 V2000
   47.3450   33.5900   42.9280 N   0  0  0  0  0  0  0  0  0  0  0  0
   47.1290   34.9440   42.5700 C   0  0  0  0  0  0  0  0  0  0  0  0
   45.7300   35.4590   42.8520 C   0  0  0  0  0  0  0  0  0  0  0  0
   45.1070   34.8840   44.1020 C   0  0  0  0  0  0  0  0  0  0  0  0
   46.0440   33.9490   44.8210 C   0  0  0  0  0  0  0  0  0  0  0  0
   46.4360   32.9020   43.7170 C   0  0  2  0  0  0  0  0  0  0  0  0
   47.3820   35.2170   41.5460 H   0  0  0  0  0  0  0  0  0  0  0  0
   47.8020   35.5590   43.2170 H   0  0  0  0  0  0  0  0  0  0  0  0
   45.7230   36.5480   42.8000 H   0  0  0  0  0  0  0  0  0  0  0  0
   45.1120   35.0820   41.9930 H   0  0  0  0  0  0  0  0  0  0  0  0
   44.1260   34.4270   43.9350 H   0  0  0  0  0  0  0  0  0  0  0  0
   44.9450   35.7540   44.7850 H   0  0  0  0  0  0  0  0  0  0  0  0
   45.4820   33.4440   45.6080 H   0  0  0  0  0  0  0  0  0  0  0  0
   46.9510   34.4790   45.1340 H   0  0  0  0  0  0  0  0  0  0  0  0
   45.4750   32.5820   43.2680 H   0  0  0  0  0  0  0  0  0  0  0  0
   48.1410   32.8570   41.9900 C   0  0  0  0  0  0  0  0  0  0  0  0
   48.9350   33.5500   41.6310 H   0  0  0  0  0  0  0  0  0  0  0  0
   48.6280   31.9900   42.4530 H   0  0  0  0  0  0  0  0  0  0  0  0
   47.2820   32.4230   40.8520 C   0  0  0  0  0  0  0  0  0  0  0  0
   47.1000   31.3460   40.8490 H   0  0  0  0  0  0  0  0  0  0  0  0
   46.2650   32.9010   40.9130 H   0  0  0  0  0  0  0  0  0  0  0  0
   49.3520   32.3360   37.7160 C   0  0  0  0  0  0  0  0  0  0  0  0
   48.7460   31.9540   38.9300 C   0  0  0  0  0  0  0  0  0  0  0  0
   47.9130   32.8390   39.5730 C   0  0  0  0  0  0  0  0  0  0  0  0
   47.7130   34.0400   39.0060 N   0  0  0  0  0  0  0  0  0  0  0  0
   48.3010   34.3910   37.8410 C   0  0  0  0  0  0  0  0  0  0  0  0
   49.1220   33.5440   37.1910 N   0  0  0  0  0  0  0  0  0  0  0  0
   50.0040   31.6110   37.2350 H   0  0  0  0  0  0  0  0  0  0  0  0
   48.9370   30.9910   39.3370 H   0  0  0  0  0  0  0  0  0  0  0  0
   48.1500   35.3560   37.3710 H   0  0  0  0  0  0  0  0  0  0  0  0
   47.0550   31.9150   44.4750 O   0  0  0  0  0  0  0  0  0  0  0  0
   44.9080   30.5000   43.8330 O   0  0  0  0  0  0  0  0  0  0  0  0
   46.0160   30.6510   44.8540 P   0  0  2  0  0  0  0  0  0  0  0  0
   45.2460   31.0840   46.3200 O   0  0  0  0  0  0  0  0  0  0  0  0
   45.8880   31.5070   46.9450 H   0  0  0  0  0  0  0  0  0  0  0  0
   46.8280   29.2030   45.1020 O   0  0  0  0  0  0  0  0  0  0  0  0
   46.6470   28.7220   47.7450 F   0  0  0  0  0  0  0  0  0  0  0  0
   47.8610   28.8740   47.1280 C   0  0  0  0  0  0  0  0  0  0  0  0
   48.0320   29.1220   45.7800 C   0  0  0  0  0  0  0  0  0  0  0  0
   49.3200   29.2560   45.2930 C   0  0  0  0  0  0  0  0  0  0  0  0
   49.3610   29.4470   44.2350 H   0  0  0  0  0  0  0  0  0  0  0  0
   50.4010   29.1440   46.1290 C   0  0  0  0  0  0  0  0  0  0  0  0
   51.3880   29.2620   45.6600 H   0  0  0  0  0  0  0  0  0  0  0  0
   50.2550   28.8960   47.4770 C   0  0  0  0  0  3  0  0  0  0  0  0
   48.9580   28.7600   47.9810 C   0  0  0  0  0  3  0  0  0  0  0  0
  1  6  1  0  0  0  0
  2  3  1  0  0  0  0
  2  1  1  0  0  0  0
  2  8  1  0  0  0  0
  3  4  1  0  0  0  0
  4 12  1  0  0  0  0
  4  5  1  0  0  0  0
  5 14  1  0  0  0  0
  5 13  1  0  0  0  0
  6 15  1  6  0  0  0
  6 31  1  0  0  0  0
  6  5  1  0  0  0  0
  7  2  1  0  0  0  0
  9  3  1  0  0  0  0
 10  3  1  0  0  0  0
 11  4  1  0  0  0  0
 16 18  1  0  0  0  0
 16  1  1  0  0  0  0
 17 16  1  0  0  0  0
 19 21  1  0  0  0  0
 19 16  1  0  0  0  0
 20 19  1  0  0  0  0
 22 23  1  0  0  0  0
 23 29  1  0  0  0  0
 23 24  2  0  0  0  0
 24 19  1  0  0  0  0
 25 24  1  0  0  0  0
 26 25  2  0  0  0  0
 27 22  2  0  0  0  0
 27 26  1  0  0  0  0
 28 22  1  0  0  0  0
 30 26  1  0  0  0  0
 31 33  1  0  0  0  0
 33 32  2  6  0  0  0
 33 36  1  0  0  0  0
 33 34  1  0  0  0  0
 34 35  1  0  0  0  0
 36 39  1  0  0  0  0
 38 37  1  0  0  0  0
 38 45  1  0  0  0  0
 39 38  2  0  0  0  0
 40 39  1  0  0  0  0
 40 42  2  0  0  0  0
 41 40  1  0  0  0  0
 42 44  1  0  0  0  0
 43 42  1  0  0  0  0
 44 45  2  0  0  0  0
M  END
>  <minimizedAffinity>
-4.1784296

>  <minimizedRMSD>
1.24495625

$$$$
