
 OpenBabel03252508593D

 45 47  0  0  1  0  0  0  0  0999 V2000
   47.1600   33.8560   42.8280 N   0  0  0  0  0  0  0  0  0  0  0  0
   46.9390   35.2310   42.5670 C   0  0  0  0  0  0  0  0  0  0  0  0
   45.5230   35.7070   42.8360 C   0  0  0  0  0  0  0  0  0  0  0  0
   44.8640   35.0300   44.0140 C   0  0  0  0  0  0  0  0  0  0  0  0
   45.7870   34.0510   44.6930 C   0  0  0  0  0  0  0  0  0  0  0  0
   46.2340   33.0980   43.5260 C   0  0  2  0  0  0  0  0  0  0  0  0
   47.2240   35.5860   41.5770 H   0  0  0  0  0  0  0  0  0  0  0  0
   47.5790   35.8010   43.2840 H   0  0  0  0  0  0  0  0  0  0  0  0
   45.5030   36.7960   42.8680 H   0  0  0  0  0  0  0  0  0  0  0  0
   44.9420   35.3910   41.9290 H   0  0  0  0  0  0  0  0  0  0  0  0
   43.8960   34.5760   43.7760 H   0  0  0  0  0  0  0  0  0  0  0  0
   44.6650   35.8420   44.7560 H   0  0  0  0  0  0  0  0  0  0  0  0
   45.2040   33.4810   45.4170 H   0  0  0  0  0  0  0  0  0  0  0  0
   46.6750   34.5660   45.0790 H   0  0  0  0  0  0  0  0  0  0  0  0
   45.2940   32.8030   43.0190 H   0  0  0  0  0  0  0  0  0  0  0  0
   48.0000   33.2060   41.8650 C   0  0  0  0  0  0  0  0  0  0  0  0
   48.7280   33.9690   41.5070 H   0  0  0  0  0  0  0  0  0  0  0  0
   48.5650   32.3760   42.3070 H   0  0  0  0  0  0  0  0  0  0  0  0
   47.1620   32.7210   40.7330 C   0  0  0  0  0  0  0  0  0  0  0  0
   46.9390   31.6540   40.8020 H   0  0  0  0  0  0  0  0  0  0  0  0
   46.1630   33.2380   40.7220 H   0  0  0  0  0  0  0  0  0  0  0  0
   49.3120   32.3170   37.6770 C   0  0  0  0  0  0  0  0  0  0  0  0
   48.6530   32.0490   38.8930 C   0  0  0  0  0  0  0  0  0  0  0  0
   47.8500   33.0160   39.4500 C   0  0  0  0  0  0  0  0  0  0  0  0
   47.7310   34.1850   38.7990 N   0  0  0  0  0  0  0  0  0  0  0  0
   48.3680   34.4260   37.6330 C   0  0  0  0  0  0  0  0  0  0  0  0
   49.1610   33.4960   37.0660 N   0  0  0  0  0  0  0  0  0  0  0  0
   49.9380   31.5280   37.2650 H   0  0  0  0  0  0  0  0  0  0  0  0
   48.7810   31.1070   39.3690 H   0  0  0  0  0  0  0  0  0  0  0  0
   48.2830   35.3640   37.0960 H   0  0  0  0  0  0  0  0  0  0  0  0
   46.8380   32.0630   44.2280 O   0  0  0  0  0  0  0  0  0  0  0  0
   46.4270   29.5560   43.4700 O   0  0  0  0  0  0  0  0  0  0  0  0
   45.8720   30.6900   44.3080 P   0  0  2  0  0  0  0  0  0  0  0  0
   44.3770   31.1130   43.5910 O   0  0  0  0  0  0  0  0  0  0  0  0
   44.1010   32.0260   43.8610 H   0  0  0  0  0  0  0  0  0  0  0  0
   45.5740   30.2040   45.8860 O   0  0  0  0  0  0  0  0  0  0  0  0
   45.1170   32.3060   47.5050 F   0  0  0  0  0  0  0  0  0  0  0  0
   46.1880   31.4750   47.6990 C   0  0  0  0  0  0  0  0  0  0  0  0
   46.4870   30.3790   46.9120 C   0  0  0  0  0  0  0  0  0  0  0  0
   47.6040   29.6270   47.2270 C   0  0  0  0  0  0  0  0  0  0  0  0
   47.7610   28.7950   46.5630 H   0  0  0  0  0  0  0  0  0  0  0  0
   48.3960   29.9610   48.2950 C   0  0  0  0  0  0  0  0  0  0  0  0
   49.2630   29.3100   48.4740 H   0  0  0  0  0  0  0  0  0  0  0  0
   48.1190   31.0490   49.0940 C   0  0  0  0  0  3  0  0  0  0  0  0
   46.9920   31.8170   48.7860 C   0  0  0  0  0  3  0  0  0  0  0  0
  1  6  1  0  0  0  0
  2  1  1  0  0  0  0
  2  3  1  0  0  0  0
  2  8  1  0  0  0  0
  3  9  1  0  0  0  0
  3  4  1  0  0  0  0
  4  5  1  0  0  0  0
  4 12  1  0  0  0  0
  5 14  1  0  0  0  0
  5 13  1  0  0  0  0
  6 15  1  6  0  0  0
  6 31  1  0  0  0  0
  6  5  1  0  0  0  0
  7  2  1  0  0  0  0
 10  3  1  0  0  0  0
 11  4  1  0  0  0  0
 16 18  1  0  0  0  0
 16  1  1  0  0  0  0
 17 16  1  0  0  0  0
 19 20  1  0  0  0  0
 19 16  1  0  0  0  0
 21 19  1  0  0  0  0
 22 23  1  0  0  0  0
 23 29  1  0  0  0  0
 23 24  2  0  0  0  0
 24 19  1  0  0  0  0
 25 24  1  0  0  0  0
 26 25  2  0  0  0  0
 27 26  1  0  0  0  0
 27 22  2  0  0  0  0
 28 22  1  0  0  0  0
 30 26  1  0  0  0  0
 31 33  1  0  0  0  0
 33 32  2  6  0  0  0
 33 36  1  0  0  0  0
 34 35  1  0  0  0  0
 34 33  1  0  0  0  0
 36 39  1  0  0  0  0
 37 38  1  0  0  0  0
 38 45  1  0  0  0  0
 39 40  1  0  0  0  0
 39 38  2  0  0  0  0
 40 42  2  0  0  0  0
 41 40  1  0  0  0  0
 42 43  1  0  0  0  0
 42 44  1  0  0  0  0
 45 44  2  0  0  0  0
M  END
>  <minimizedAffinity>
-4.89582348

>  <minimizedRMSD>
1.4476552

$$$$
