
 OpenBabel03252507053D

 47 50  0  0  0  0  0  0  0  0999 V2000
   36.8210   27.4450   42.5900 C   0  0  0  0  0  0  0  0  0  0  0  0
   36.5100   28.3780   42.0070 H   0  0  0  0  0  0  0  0  0  0  0  0
   35.8870   27.1480   43.1140 H   0  0  0  0  0  0  0  0  0  0  0  0
   37.3280   26.4780   41.8180 N   0  0  0  0  0  0  0  0  0  0  0  0
   38.0520   25.3230   42.2290 C   0  0  0  0  0  0  0  0  0  0  0  0
   36.9580   24.2740   42.0310 C   0  0  0  0  0  0  0  0  0  0  0  0
   36.4680   24.1790   40.6660 C   0  0  0  0  0  0  0  0  0  0  0  0
   36.6150   25.3200   39.7880 C   0  0  0  0  0  0  0  0  0  0  0  0
   37.0790   26.6390   40.3650 C   0  0  0  0  0  0  0  0  0  0  0  0
   38.1520   25.3880   43.3540 H   0  0  0  0  0  0  0  0  0  0  0  0
   38.9890   25.0910   41.7500 H   0  0  0  0  0  0  0  0  0  0  0  0
   37.4220   23.3180   42.3880 H   0  0  0  0  0  0  0  0  0  0  0  0
   36.1620   24.4870   42.7930 H   0  0  0  0  0  0  0  0  0  0  0  0
   36.9820   23.3090   40.1590 H   0  0  0  0  0  0  0  0  0  0  0  0
   35.3790   23.8810   40.6790 H   0  0  0  0  0  0  0  0  0  0  0  0
   36.4090   25.3210   38.7630 H   0  0  0  0  0  0  0  0  0  0  0  0
   37.1790   28.0980   39.4560 S   0  0  0  0  0  0  0  0  0  0  0  0
   34.6490   29.0270   40.5440 F   0  0  0  0  0  0  0  0  0  0  0  0
   34.7450   28.8630   39.1900 C   0  0  0  0  0  0  0  0  0  0  0  0
   35.8400   28.4540   38.4080 C   0  0  0  0  0  0  0  0  0  0  0  0
   35.6020   28.3940   37.0800 C   0  0  0  0  0  0  0  0  0  0  0  0
   36.4720   28.1130   36.5200 H   0  0  0  0  0  0  0  0  0  0  0  0
   34.4280   28.6830   36.4280 C   0  0  0  0  0  0  0  0  0  0  0  0
   34.4250   28.5760   35.3530 H   0  0  0  0  0  0  0  0  0  0  0  0
   33.3780   29.0790   37.2250 C   0  0  0  0  0  3  0  0  0  0  0  0
   33.5180   29.1740   38.5930 C   0  0  0  0  0  3  0  0  0  0  0  0
   37.7810   27.9580   43.6050 C   0  0  0  0  0  0  0  0  0  0  0  0
   38.2870   27.1410   44.1820 H   0  0  0  0  0  0  0  0  0  0  0  0
   37.1980   28.5190   44.3890 H   0  0  0  0  0  0  0  0  0  0  0  0
   38.7290   28.8570   42.9270 C   0  0  0  0  0  0  0  0  0  0  0  0
   40.0790   28.5910   42.9470 C   0  0  0  0  0  0  0  0  0  0  0  0
   40.9330   29.4740   42.2950 C   0  0  0  0  0  0  0  0  0  0  0  0
   40.3870   30.5570   41.6670 N   0  0  0  0  0  0  0  0  0  0  0  0
   39.0750   30.7790   41.6690 C   0  0  0  0  0  0  0  0  0  0  0  0
   38.2780   29.9200   42.3020 N   0  0  0  0  0  0  0  0  0  0  0  0
   40.6860   27.8030   43.3590 H   0  0  0  0  0  0  0  0  0  0  0  0
   42.0110   29.4280   42.2070 H   0  0  0  0  0  0  0  0  0  0  0  0
   38.5810   31.9520   40.9490 C   0  0  0  0  0  0  0  0  0  0  0  0
   37.4970   31.8470   40.0820 C   0  0  0  0  0  0  0  0  0  0  0  0
   37.0490   32.9530   39.4090 C   0  0  0  0  0  0  0  0  0  0  0  0
   37.7410   34.1030   39.6660 C   0  0  0  0  0  0  0  0  0  0  0  0
   38.8330   34.2750   40.5220 C   0  0  0  0  0  0  0  0  0  0  0  0
   39.2140   33.1280   41.1500 N   0  0  0  0  0  0  0  0  0  0  0  0
   36.9890   30.8950   39.9240 H   0  0  0  0  0  0  0  0  0  0  0  0
   36.2180   32.9710   38.7180 H   0  0  0  0  0  0  0  0  0  0  0  0
   37.4230   35.0210   39.1520 H   0  0  0  0  0  0  0  0  0  0  0  0
   39.3080   35.2140   40.6550 H   0  0  0  0  0  0  0  0  0  0  0  0
  1  3  1  0  0  0  0
  1 27  1  0  0  0  0
  2  1  1  0  0  0  0
  4  5  1  0  0  0  0
  4  1  1  0  0  0  0
  5 10  1  0  0  0  0
  6  5  1  0  0  0  0
  6 12  1  0  0  0  0
  6 13  1  0  0  0  0
  7 15  1  0  0  0  0
  7  6  1  0  0  0  0
  8  9  2  0  0  0  0
  8  7  1  0  0  0  0
  9  4  1  0  0  0  0
 11  5  1  0  0  0  0
 14  7  1  0  0  0  0
 16  8  1  0  0  0  0
 17  9  1  0  0  0  0
 19 18  1  0  0  0  0
 20 19  2  0  0  0  0
 20 17  1  0  0  0  0
 21 20  1  0  0  0  0
 22 21  1  0  0  0  0
 23 21  2  0  0  0  0
 23 25  1  0  0  0  0
 24 23  1  0  0  0  0
 25 26  2  0  0  0  0
 26 19  1  0  0  0  0
 27 28  1  0  0  0  0
 27 29  1  0  0  0  0
 30 31  1  0  0  0  0
 30 27  1  0  0  0  0
 31 36  1  0  0  0  0
 32 31  2  0  0  0  0
 33 34  2  0  0  0  0
 33 32  1  0  0  0  0
 34 35  1  0  0  0  0
 35 30  2  0  0  0  0
 37 32  1  0  0  0  0
 38 43  1  0  0  0  0
 38 34  1  0  0  0  0
 39 38  2  0  0  0  0
 40 41  2  0  0  0  0
 40 39  1  0  0  0  0
 41 42  1  0  0  0  0
 42 47  1  0  0  0  0
 42 43  2  0  0  0  0
 44 39  1  0  0  0  0
 45 40  1  0  0  0  0
 46 41  1  0  0  0  0
M  END
>  <minimizedAffinity>
-6.41396523

$$$$

 OpenBabel03252507053D

 47 50  0  0  0  0  0  0  0  0999 V2000
   35.3720   29.1130   38.7770 C   0  0  0  0  0  0  0  0  0  0  0  0
   35.1660   29.0010   39.8970 H   0  0  0  0  0  0  0  0  0  0  0  0
   34.5420   29.7640   38.4280 H   0  0  0  0  0  0  0  0  0  0  0  0
   36.5850   29.6060   38.5050 N   0  0  0  0  0  0  0  0  0  0  0  0
   37.4410   29.2680   37.4190 C   0  0  0  0  0  0  0  0  0  0  0  0
   37.2450   30.5190   36.5640 C   0  0  0  0  0  0  0  0  0  0  0  0
   37.6310   31.7550   37.2240 C   0  0  0  0  0  0  0  0  0  0  0  0
   37.6470   31.8000   38.6700 C   0  0  0  0  0  0  0  0  0  0  0  0
   37.0690   30.6410   39.4520 C   0  0  0  0  0  0  0  0  0  0  0  0
   36.9110   28.4610   36.8290 H   0  0  0  0  0  0  0  0  0  0  0  0
   38.4700   29.0160   37.6190 H   0  0  0  0  0  0  0  0  0  0  0  0
   37.8480   30.3210   35.6400 H   0  0  0  0  0  0  0  0  0  0  0  0
   36.1830   30.5020   36.2010 H   0  0  0  0  0  0  0  0  0  0  0  0
   38.6680   32.0400   36.8780 H   0  0  0  0  0  0  0  0  0  0  0  0
   36.9780   32.5980   36.8510 H   0  0  0  0  0  0  0  0  0  0  0  0
   38.0190   32.5920   39.2440 H   0  0  0  0  0  0  0  0  0  0  0  0
   36.9170   30.6230   41.1660 S   0  0  0  0  0  0  0  0  0  0  0  0
   35.6090   28.1350   41.9050 F   0  0  0  0  0  0  0  0  0  0  0  0
   36.9200   28.3020   42.2580 C   0  0  0  0  0  0  0  0  0  0  0  0
   37.7890   29.3800   42.0110 C   0  0  0  0  0  0  0  0  0  0  0  0
   39.0380   29.2280   42.4990 C   0  0  0  0  0  0  0  0  0  0  0  0
   39.6760   30.0560   42.2580 H   0  0  0  0  0  0  0  0  0  0  0  0
   39.5390   28.1570   43.1990 C   0  0  0  0  0  0  0  0  0  0  0  0
   40.5700   28.2150   43.5130 H   0  0  0  0  0  0  0  0  0  0  0  0
   38.6600   27.1210   43.4230 C   0  0  0  0  0  3  0  0  0  0  0  0
   37.3620   27.1760   42.9630 C   0  0  0  0  0  3  0  0  0  0  0  0
   35.1520   27.7450   38.2320 C   0  0  0  0  0  0  0  0  0  0  0  0
   35.0960   26.9600   39.0300 H   0  0  0  0  0  0  0  0  0  0  0  0
   36.0600   27.4550   37.6340 H   0  0  0  0  0  0  0  0  0  0  0  0
   33.9580   27.7800   37.3720 C   0  0  0  0  0  0  0  0  0  0  0  0
   33.5480   26.6520   36.7010 C   0  0  0  0  0  0  0  0  0  0  0  0
   32.4160   26.7390   35.8990 C   0  0  0  0  0  0  0  0  0  0  0  0
   31.7690   27.9390   35.8210 N   0  0  0  0  0  0  0  0  0  0  0  0
   32.1960   29.0080   36.4870 C   0  0  0  0  0  0  0  0  0  0  0  0
   33.2830   28.9000   37.2490 N   0  0  0  0  0  0  0  0  0  0  0  0
   33.9010   25.6360   36.6490 H   0  0  0  0  0  0  0  0  0  0  0  0
   31.9510   25.9640   35.3020 H   0  0  0  0  0  0  0  0  0  0  0  0
   31.4230   30.2440   36.3610 C   0  0  0  0  0  0  0  0  0  0  0  0
   30.6700   30.7200   37.4300 C   0  0  0  0  0  0  0  0  0  0  0  0
   29.9460   31.8760   37.2950 C   0  0  0  0  0  0  0  0  0  0  0  0
   30.0380   32.4740   36.0700 C   0  0  0  0  0  0  0  0  0  0  0  0
   30.7740   32.0480   34.9600 C   0  0  0  0  0  0  0  0  0  0  0  0
   31.4640   30.8940   35.1780 N   0  0  0  0  0  0  0  0  0  0  0  0
   30.6420   30.1920   38.3830 H   0  0  0  0  0  0  0  0  0  0  0  0
   29.3340   32.3240   38.0650 H   0  0  0  0  0  0  0  0  0  0  0  0
   29.4770   33.4050   35.9080 H   0  0  0  0  0  0  0  0  0  0  0  0
   30.7830   32.5840   34.0450 H   0  0  0  0  0  0  0  0  0  0  0  0
  1  2  1  0  0  0  0
  3  1  1  0  0  0  0
  4  1  1  0  0  0  0
  4  9  1  0  0  0  0
  5 11  1  0  0  0  0
  5  4  1  0  0  0  0
  6  7  1  0  0  0  0
  6  5  1  0  0  0  0
  7  8  1  0  0  0  0
  8 16  1  0  0  0  0
  8  9  2  0  0  0  0
  9 17  1  0  0  0  0
 10  5  1  0  0  0  0
 12  6  1  0  0  0  0
 13  6  1  0  0  0  0
 14  7  1  0  0  0  0
 15  7  1  0  0  0  0
 17 20  1  0  0  0  0
 18 19  1  0  0  0  0
 19 26  1  0  0  0  0
 20 19  2  0  0  0  0
 20 21  1  0  0  0  0
 21 23  2  0  0  0  0
 22 21  1  0  0  0  0
 23 25  1  0  0  0  0
 23 24  1  0  0  0  0
 26 25  2  0  0  0  0
 27  1  1  0  0  0  0
 27 28  1  0  0  0  0
 29 27  1  0  0  0  0
 30 27  1  0  0  0  0
 31 30  2  0  0  0  0
 32 31  1  0  0  0  0
 33 32  2  0  0  0  0
 33 34  1  0  0  0  0
 34 35  2  0  0  0  0
 35 30  1  0  0  0  0
 36 31  1  0  0  0  0
 37 32  1  0  0  0  0
 38 34  1  0  0  0  0
 38 39  1  0  0  0  0
 39 44  1  0  0  0  0
 40 39  2  0  0  0  0
 40 45  1  0  0  0  0
 41 40  1  0  0  0  0
 42 43  1  0  0  0  0
 42 41  2  0  0  0  0
 43 38  2  0  0  0  0
 46 41  1  0  0  0  0
 47 42  1  0  0  0  0
M  END
>  <minimizedAffinity>
-6.1834774

$$$$

 OpenBabel03252507053D

 47 50  0  0  0  0  0  0  0  0999 V2000
   35.0950   29.0910   37.7130 C   0  0  0  0  0  0  0  0  0  0  0  0
   36.1860   29.3850   37.8860 H   0  0  0  0  0  0  0  0  0  0  0  0
   34.6420   30.0190   37.3010 H   0  0  0  0  0  0  0  0  0  0  0  0
   34.9490   28.0290   36.9130 N   0  0  0  0  0  0  0  0  0  0  0  0
   35.8880   26.9880   36.6650 C   0  0  0  0  0  0  0  0  0  0  0  0
   35.2370   25.8800   37.4920 C   0  0  0  0  0  0  0  0  0  0  0  0
   33.8900   25.5380   37.0680 C   0  0  0  0  0  0  0  0  0  0  0  0
   33.1130   26.5200   36.3440 C   0  0  0  0  0  0  0  0  0  0  0  0
   33.6370   27.9350   36.2270 C   0  0  0  0  0  0  0  0  0  0  0  0
   36.8180   27.2450   37.2570 H   0  0  0  0  0  0  0  0  0  0  0  0
   36.1160   26.7160   35.6470 H   0  0  0  0  0  0  0  0  0  0  0  0
   35.9470   25.0150   37.4030 H   0  0  0  0  0  0  0  0  0  0  0  0
   35.3190   26.1860   38.5680 H   0  0  0  0  0  0  0  0  0  0  0  0
   33.9400   24.6160   36.4160 H   0  0  0  0  0  0  0  0  0  0  0  0
   33.2890   25.2040   37.9650 H   0  0  0  0  0  0  0  0  0  0  0  0
   32.1870   26.3420   35.8920 H   0  0  0  0  0  0  0  0  0  0  0  0
   32.7590   29.2240   35.4990 S   0  0  0  0  0  0  0  0  0  0  0  0
   31.5310   31.7130   34.6380 F   0  0  0  0  0  0  0  0  0  0  0  0
   31.1690   31.2050   35.8550 C   0  0  0  0  0  0  0  0  0  0  0  0
   31.5830   30.0250   36.4970 C   0  0  0  0  0  0  0  0  0  0  0  0
   31.0280   29.8100   37.7090 C   0  0  0  0  0  0  0  0  0  0  0  0
   31.3450   28.8830   38.1460 H   0  0  0  0  0  0  0  0  0  0  0  0
   30.1230   30.6070   38.3670 C   0  0  0  0  0  0  0  0  0  0  0  0
   29.7900   30.2710   39.3380 H   0  0  0  0  0  0  0  0  0  0  0  0
   29.7410   31.7540   37.7090 C   0  0  0  0  0  3  0  0  0  0  0  0
   30.2480   32.0640   36.4650 C   0  0  0  0  0  3  0  0  0  0  0  0
   34.5560   28.8800   39.0840 C   0  0  0  0  0  0  0  0  0  0  0  0
   34.1300   27.8540   39.2330 H   0  0  0  0  0  0  0  0  0  0  0  0
   33.6710   29.5610   39.2230 H   0  0  0  0  0  0  0  0  0  0  0  0
   35.6170   29.2090   40.0500 C   0  0  0  0  0  0  0  0  0  0  0  0
   35.8820   30.5190   40.3760 C   0  0  0  0  0  0  0  0  0  0  0  0
   36.8970   30.7760   41.2900 C   0  0  0  0  0  0  0  0  0  0  0  0
   37.5760   29.7150   41.8190 N   0  0  0  0  0  0  0  0  0  0  0  0
   37.2880   28.4620   41.4800 C   0  0  0  0  0  0  0  0  0  0  0  0
   36.3130   28.2410   40.6000 N   0  0  0  0  0  0  0  0  0  0  0  0
   35.4590   31.4660   40.0910 H   0  0  0  0  0  0  0  0  0  0  0  0
   37.2440   31.7320   41.6620 H   0  0  0  0  0  0  0  0  0  0  0  0
   38.0530   27.3900   42.1170 C   0  0  0  0  0  0  0  0  0  0  0  0
   38.8460   27.6510   43.2310 C   0  0  0  0  0  0  0  0  0  0  0  0
   39.5620   26.6380   43.8140 C   0  0  0  0  0  0  0  0  0  0  0  0
   39.4210   25.4160   43.2180 C   0  0  0  0  0  0  0  0  0  0  0  0
   38.6430   25.0900   42.1030 C   0  0  0  0  0  0  0  0  0  0  0  0
   37.9650   26.1520   41.5850 N   0  0  0  0  0  0  0  0  0  0  0  0
   38.9120   28.6530   43.6570 H   0  0  0  0  0  0  0  0  0  0  0  0
   40.2020   26.7420   44.6780 H   0  0  0  0  0  0  0  0  0  0  0  0
   39.9730   24.5680   43.6460 H   0  0  0  0  0  0  0  0  0  0  0  0
   38.5980   24.1050   41.7110 H   0  0  0  0  0  0  0  0  0  0  0  0
  1  2  1  0  0  0  0
  1 27  1  0  0  0  0
  3  1  1  0  0  0  0
  4  1  1  0  0  0  0
  5  4  1  0  0  0  0
  5 10  1  0  0  0  0
  5  6  1  0  0  0  0
  6 13  1  0  0  0  0
  7  6  1  0  0  0  0
  7 15  1  0  0  0  0
  8  7  1  0  0  0  0
  9  8  2  0  0  0  0
  9  4  1  0  0  0  0
 11  5  1  0  0  0  0
 12  6  1  0  0  0  0
 14  7  1  0  0  0  0
 16  8  1  0  0  0  0
 17  9  1  0  0  0  0
 17 20  1  0  0  0  0
 18 19  1  0  0  0  0
 19 26  2  0  0  0  0
 19 20  1  0  0  0  0
 20 21  2  0  0  0  0
 21 22  1  0  0  0  0
 21 23  1  0  0  0  0
 23 24  1  0  0  0  0
 25 23  2  0  0  0  0
 26 25  1  0  0  0  0
 27 29  1  0  0  0  0
 27 28  1  0  0  0  0
 27 30  1  0  0  0  0
 30 31  2  0  0  0  0
 30 35  1  0  0  0  0
 31 32  1  0  0  0  0
 32 37  1  0  0  0  0
 32 33  2  0  0  0  0
 34 33  1  0  0  0  0
 34 38  1  0  0  0  0
 35 34  2  0  0  0  0
 36 31  1  0  0  0  0
 38 39  1  0  0  0  0
 39 44  1  0  0  0  0
 39 40  2  0  0  0  0
 40 45  1  0  0  0  0
 41 46  1  0  0  0  0
 41 40  1  0  0  0  0
 42 41  2  0  0  0  0
 43 42  1  0  0  0  0
 43 38  2  0  0  0  0
 47 42  1  0  0  0  0
M  END
>  <minimizedAffinity>
-6.07551813

$$$$

 OpenBabel03252507053D

 47 50  0  0  0  0  0  0  0  0999 V2000
   39.3220   29.8110   42.8530 C   0  0  0  0  0  0  0  0  0  0  0  0
   38.2740   29.7570   42.3990 H   0  0  0  0  0  0  0  0  0  0  0  0
   39.1280   30.0810   43.9130 H   0  0  0  0  0  0  0  0  0  0  0  0
   40.0240   28.6810   42.7120 N   0  0  0  0  0  0  0  0  0  0  0  0
   41.3670   28.5380   42.2620 C   0  0  0  0  0  0  0  0  0  0  0  0
   42.0360   28.2450   43.6040 C   0  0  0  0  0  0  0  0  0  0  0  0
   41.5340   27.0550   44.2700 C   0  0  0  0  0  0  0  0  0  0  0  0
   40.2050   26.5820   43.9480 C   0  0  0  0  0  0  0  0  0  0  0  0
   39.3020   27.4430   43.0930 C   0  0  0  0  0  0  0  0  0  0  0  0
   41.7340   29.5780   42.0070 H   0  0  0  0  0  0  0  0  0  0  0  0
   41.5880   27.8270   41.4830 H   0  0  0  0  0  0  0  0  0  0  0  0
   43.1280   28.1700   43.3590 H   0  0  0  0  0  0  0  0  0  0  0  0
   41.9620   29.1820   44.2160 H   0  0  0  0  0  0  0  0  0  0  0  0
   42.2430   26.2000   44.0640 H   0  0  0  0  0  0  0  0  0  0  0  0
   41.5970   27.1980   45.3890 H   0  0  0  0  0  0  0  0  0  0  0  0
   39.7920   25.6780   44.2750 H   0  0  0  0  0  0  0  0  0  0  0  0
   37.6630   27.0530   42.7380 S   0  0  0  0  0  0  0  0  0  0  0  0
   36.4670   24.4340   42.3360 F   0  0  0  0  0  0  0  0  0  0  0  0
   36.7760   25.1770   41.2300 C   0  0  0  0  0  0  0  0  0  0  0  0
   37.3330   26.4650   41.1370 C   0  0  0  0  0  0  0  0  0  0  0  0
   37.5140   26.9180   39.8780 C   0  0  0  0  0  0  0  0  0  0  0  0
   37.9070   27.9160   39.8540 H   0  0  0  0  0  0  0  0  0  0  0  0
   37.2200   26.2670   38.7040 C   0  0  0  0  0  0  0  0  0  0  0  0
   37.4380   26.7910   37.7850 H   0  0  0  0  0  0  0  0  0  0  0  0
   36.6780   25.0080   38.8340 C   0  0  0  0  0  3  0  0  0  0  0  0
   36.4510   24.4550   40.0760 C   0  0  0  0  0  3  0  0  0  0  0  0
   39.9450   30.9840   42.1810 C   0  0  0  0  0  0  0  0  0  0  0  0
   40.9340   30.7440   41.7110 H   0  0  0  0  0  0  0  0  0  0  0  0
   40.2010   31.7460   42.9700 H   0  0  0  0  0  0  0  0  0  0  0  0
   38.9710   31.5370   41.2260 C   0  0  0  0  0  0  0  0  0  0  0  0
   38.9700   32.8810   40.9300 C   0  0  0  0  0  0  0  0  0  0  0  0
   38.0270   33.3530   40.0250 C   0  0  0  0  0  0  0  0  0  0  0  0
   37.1530   32.4590   39.4740 N   0  0  0  0  0  0  0  0  0  0  0  0
   37.1880   31.1660   39.7850 C   0  0  0  0  0  0  0  0  0  0  0  0
   38.1000   30.7370   40.6560 N   0  0  0  0  0  0  0  0  0  0  0  0
   39.5710   33.7200   41.2350 H   0  0  0  0  0  0  0  0  0  0  0  0
   37.8760   34.3670   39.6760 H   0  0  0  0  0  0  0  0  0  0  0  0
   36.2280   30.2810   39.1260 C   0  0  0  0  0  0  0  0  0  0  0  0
   35.2000   29.6850   39.8510 C   0  0  0  0  0  0  0  0  0  0  0  0
   34.3120   28.8520   39.2200 C   0  0  0  0  0  0  0  0  0  0  0  0
   34.5330   28.6800   37.8830 C   0  0  0  0  0  0  0  0  0  0  0  0
   35.5440   29.2470   37.1000 C   0  0  0  0  0  0  0  0  0  0  0  0
   36.3810   30.0600   37.8020 N   0  0  0  0  0  0  0  0  0  0  0  0
   35.0810   29.8680   40.9190 H   0  0  0  0  0  0  0  0  0  0  0  0
   33.4840   28.3460   39.6960 H   0  0  0  0  0  0  0  0  0  0  0  0
   33.8500   28.0210   37.3290 H   0  0  0  0  0  0  0  0  0  0  0  0
   35.6340   29.0510   36.0620 H   0  0  0  0  0  0  0  0  0  0  0  0
  1  3  1  0  0  0  0
  2  1  1  0  0  0  0
  4  1  1  0  0  0  0
  4  9  1  0  0  0  0
  5  4  1  0  0  0  0
  5  6  1  0  0  0  0
  6 13  1  0  0  0  0
  6  7  1  0  0  0  0
  7 15  1  0  0  0  0
  8  7  1  0  0  0  0
  8 16  1  0  0  0  0
  9  8  2  0  0  0  0
 10  5  1  0  0  0  0
 11  5  1  0  0  0  0
 12  6  1  0  0  0  0
 14  7  1  0  0  0  0
 17  9  1  0  0  0  0
 19 18  1  0  0  0  0
 20 19  1  0  0  0  0
 20 17  1  0  0  0  0
 21 20  2  0  0  0  0
 22 21  1  0  0  0  0
 23 25  2  0  0  0  0
 23 21  1  0  0  0  0
 24 23  1  0  0  0  0
 25 26  1  0  0  0  0
 26 19  2  0  0  0  0
 27  1  1  0  0  0  0
 27 29  1  0  0  0  0
 28 27  1  0  0  0  0
 30 27  1  0  0  0  0
 31 30  1  0  0  0  0
 31 36  1  0  0  0  0
 32 31  2  0  0  0  0
 33 34  2  0  0  0  0
 33 32  1  0  0  0  0
 34 35  1  0  0  0  0
 35 30  2  0  0  0  0
 37 32  1  0  0  0  0
 38 34  1  0  0  0  0
 38 39  1  0  0  0  0
 39 44  1  0  0  0  0
 40 45  1  0  0  0  0
 40 39  2  0  0  0  0
 41 40  1  0  0  0  0
 42 43  1  0  0  0  0
 42 41  2  0  0  0  0
 43 38  2  0  0  0  0
 46 41  1  0  0  0  0
 47 42  1  0  0  0  0
M  END
>  <minimizedAffinity>
-6.07430029

$$$$

 OpenBabel03252507053D

 47 50  0  0  0  0  0  0  0  0999 V2000
   40.0400   31.3170   41.7640 C   0  0  0  0  0  0  0  0  0  0  0  0
   40.6370   31.1990   42.7320 H   0  0  0  0  0  0  0  0  0  0  0  0
   39.0010   31.4830   42.1210 H   0  0  0  0  0  0  0  0  0  0  0  0
   40.4930   32.2960   40.9730 N   0  0  0  0  0  0  0  0  0  0  0  0
   41.7450   32.9690   41.0490 C   0  0  0  0  0  0  0  0  0  0  0  0
   42.4400   32.3110   39.8570 C   0  0  0  0  0  0  0  0  0  0  0  0
   41.7630   32.5170   38.5880 C   0  0  0  0  0  0  0  0  0  0  0  0
   40.3470   32.8150   38.5900 C   0  0  0  0  0  0  0  0  0  0  0  0
   39.5710   32.7000   39.8840 C   0  0  0  0  0  0  0  0  0  0  0  0
   42.2900   32.5380   41.9410 H   0  0  0  0  0  0  0  0  0  0  0  0
   41.7640   34.0470   41.0420 H   0  0  0  0  0  0  0  0  0  0  0  0
   43.4750   32.7440   39.8660 H   0  0  0  0  0  0  0  0  0  0  0  0
   42.5970   31.2330   40.1270 H   0  0  0  0  0  0  0  0  0  0  0  0
   42.2740   33.3640   38.0410 H   0  0  0  0  0  0  0  0  0  0  0  0
   41.9350   31.6200   37.9230 H   0  0  0  0  0  0  0  0  0  0  0  0
   39.7900   33.0950   37.7510 H   0  0  0  0  0  0  0  0  0  0  0  0
   37.8660   32.9090   39.9980 S   0  0  0  0  0  0  0  0  0  0  0  0
   37.5680   31.5630   37.4390 F   0  0  0  0  0  0  0  0  0  0  0  0
   36.9100   31.0430   38.5200 C   0  0  0  0  0  0  0  0  0  0  0  0
   36.8970   31.4730   39.8590 C   0  0  0  0  0  0  0  0  0  0  0  0
   36.1350   30.7290   40.6890 C   0  0  0  0  0  0  0  0  0  0  0  0
   36.1820   31.0710   41.7050 H   0  0  0  0  0  0  0  0  0  0  0  0
   35.3870   29.6230   40.3700 C   0  0  0  0  0  0  0  0  0  0  0  0
   34.8360   29.1550   41.1740 H   0  0  0  0  0  0  0  0  0  0  0  0
   35.4220   29.2310   39.0510 C   0  0  0  0  0  3  0  0  0  0  0  0
   36.1720   29.9220   38.1230 C   0  0  0  0  0  3  0  0  0  0  0  0
   40.1050   29.9690   41.1340 C   0  0  0  0  0  0  0  0  0  0  0  0
   41.1370   29.5310   41.1440 H   0  0  0  0  0  0  0  0  0  0  0  0
   39.8720   30.0810   40.0390 H   0  0  0  0  0  0  0  0  0  0  0  0
   39.1070   29.1080   41.7890 C   0  0  0  0  0  0  0  0  0  0  0  0
   38.5600   29.4670   42.9990 C   0  0  0  0  0  0  0  0  0  0  0  0
   37.6250   28.6170   43.5770 C   0  0  0  0  0  0  0  0  0  0  0  0
   37.2960   27.4690   42.9120 N   0  0  0  0  0  0  0  0  0  0  0  0
   37.8460   27.1580   41.7410 C   0  0  0  0  0  0  0  0  0  0  0  0
   38.7410   27.9880   41.2080 N   0  0  0  0  0  0  0  0  0  0  0  0
   38.6720   30.3140   43.6540 H   0  0  0  0  0  0  0  0  0  0  0  0
   37.0960   28.7320   44.5140 H   0  0  0  0  0  0  0  0  0  0  0  0
   37.4120   25.9210   41.0920 C   0  0  0  0  0  0  0  0  0  0  0  0
   36.6510   25.9610   39.9280 C   0  0  0  0  0  0  0  0  0  0  0  0
   36.2460   24.7930   39.3340 C   0  0  0  0  0  0  0  0  0  0  0  0
   36.6480   23.6540   39.9720 C   0  0  0  0  0  0  0  0  0  0  0  0
   37.4100   23.5460   41.1400 C   0  0  0  0  0  0  0  0  0  0  0  0
   37.7700   24.7500   41.6640 N   0  0  0  0  0  0  0  0  0  0  0  0
   36.3660   26.9080   39.4700 H   0  0  0  0  0  0  0  0  0  0  0  0
   35.6560   24.7230   38.4320 H   0  0  0  0  0  0  0  0  0  0  0  0
   36.3500   22.6890   39.5380 H   0  0  0  0  0  0  0  0  0  0  0  0
   37.6720   22.6090   41.5620 H   0  0  0  0  0  0  0  0  0  0  0  0
  1  3  1  0  0  0  0
  1  2  1  0  0  0  0
  4  5  1  0  0  0  0
  4  1  1  0  0  0  0
  5 10  1  0  0  0  0
  6 12  1  0  0  0  0
  6 13  1  0  0  0  0
  6  5  1  0  0  0  0
  7  8  1  0  0  0  0
  7  6  1  0  0  0  0
  8  9  2  0  0  0  0
  9 17  1  0  0  0  0
  9  4  1  0  0  0  0
 11  5  1  0  0  0  0
 14  7  1  0  0  0  0
 15  7  1  0  0  0  0
 16  8  1  0  0  0  0
 18 19  1  0  0  0  0
 19 20  1  0  0  0  0
 20 17  1  0  0  0  0
 20 21  2  0  0  0  0
 21 22  1  0  0  0  0
 23 21  1  0  0  0  0
 23 24  1  0  0  0  0
 25 23  2  0  0  0  0
 26 19  2  0  0  0  0
 26 25  1  0  0  0  0
 27 28  1  0  0  0  0
 27  1  1  0  0  0  0
 27 30  1  0  0  0  0
 29 27  1  0  0  0  0
 30 31  1  0  0  0  0
 31 32  2  0  0  0  0
 31 36  1  0  0  0  0
 32 37  1  0  0  0  0
 33 32  1  0  0  0  0
 34 33  2  0  0  0  0
 35 34  1  0  0  0  0
 35 30  2  0  0  0  0
 38 43  1  0  0  0  0
 38 34  1  0  0  0  0
 39 38  2  0  0  0  0
 40 39  1  0  0  0  0
 40 41  2  0  0  0  0
 41 42  1  0  0  0  0
 42 47  1  0  0  0  0
 42 43  2  0  0  0  0
 44 39  1  0  0  0  0
 45 40  1  0  0  0  0
 46 41  1  0  0  0  0
M  END
>  <minimizedAffinity>
-6.01341534

$$$$

 OpenBabel03252507053D

 47 50  0  0  0  0  0  0  0  0999 V2000
   36.9150   30.4880   41.1270 C   0  0  0  0  0  0  0  0  0  0  0  0
   36.5730   31.0890   42.0380 H   0  0  0  0  0  0  0  0  0  0  0  0
   37.9960   30.3200   41.3220 H   0  0  0  0  0  0  0  0  0  0  0  0
   36.2260   29.3560   40.9440 N   0  0  0  0  0  0  0  0  0  0  0  0
   34.9800   29.1930   40.2760 C   0  0  0  0  0  0  0  0  0  0  0  0
   35.4860   28.5520   38.9840 C   0  0  0  0  0  0  0  0  0  0  0  0
   36.1910   27.2970   39.1810 C   0  0  0  0  0  0  0  0  0  0  0  0
   36.7980   27.0300   40.4670 C   0  0  0  0  0  0  0  0  0  0  0  0
   36.8640   28.1370   41.4960 C   0  0  0  0  0  0  0  0  0  0  0  0
   34.6520   30.2240   39.9460 H   0  0  0  0  0  0  0  0  0  0  0  0
   34.1870   28.6520   40.7660 H   0  0  0  0  0  0  0  0  0  0  0  0
   34.5650   28.4320   38.3540 H   0  0  0  0  0  0  0  0  0  0  0  0
   36.0800   29.3360   38.4440 H   0  0  0  0  0  0  0  0  0  0  0  0
   35.4760   26.4460   38.9750 H   0  0  0  0  0  0  0  0  0  0  0  0
   36.9840   27.1840   38.3850 H   0  0  0  0  0  0  0  0  0  0  0  0
   37.2230   26.1180   40.7540 H   0  0  0  0  0  0  0  0  0  0  0  0
   37.6630   27.9860   43.0130 S   0  0  0  0  0  0  0  0  0  0  0  0
   39.4940   26.0870   44.2330 F   0  0  0  0  0  0  0  0  0  0  0  0
   40.0190   27.2250   43.6850 C   0  0  0  0  0  0  0  0  0  0  0  0
   39.3750   28.2850   43.0220 C   0  0  0  0  0  0  0  0  0  0  0  0
   40.1930   29.2710   42.5960 C   0  0  0  0  0  0  0  0  0  0  0  0
   39.6660   30.0400   42.0660 H   0  0  0  0  0  0  0  0  0  0  0  0
   41.5570   29.3480   42.7410 C   0  0  0  0  0  0  0  0  0  0  0  0
   42.0450   30.2210   42.3330 H   0  0  0  0  0  0  0  0  0  0  0  0
   42.1530   28.2940   43.3960 C   0  0  0  0  0  3  0  0  0  0  0  0
   41.4060   27.2350   43.8680 C   0  0  0  0  0  3  0  0  0  0  0  0
   36.7910   31.4470   39.9960 C   0  0  0  0  0  0  0  0  0  0  0  0
   35.7870   31.9410   39.9490 H   0  0  0  0  0  0  0  0  0  0  0  0
   36.8490   30.8660   39.0330 H   0  0  0  0  0  0  0  0  0  0  0  0
   37.9030   32.4090   40.0850 C   0  0  0  0  0  0  0  0  0  0  0  0
   37.6620   33.7620   40.0200 C   0  0  0  0  0  0  0  0  0  0  0  0
   38.7460   34.6270   40.1040 C   0  0  0  0  0  0  0  0  0  0  0  0
   39.9940   34.0890   40.2500 N   0  0  0  0  0  0  0  0  0  0  0  0
   40.1850   32.7750   40.3100 C   0  0  0  0  0  0  0  0  0  0  0  0
   39.1310   31.9650   40.2260 N   0  0  0  0  0  0  0  0  0  0  0  0
   36.7760   34.3660   39.9280 H   0  0  0  0  0  0  0  0  0  0  0  0
   38.7500   35.7090   40.0710 H   0  0  0  0  0  0  0  0  0  0  0  0
   41.5540   32.2930   40.4920 C   0  0  0  0  0  0  0  0  0  0  0  0
   42.0860   31.3300   39.6390 C   0  0  0  0  0  0  0  0  0  0  0  0
   43.3680   30.8830   39.8260 C   0  0  0  0  0  0  0  0  0  0  0  0
   44.0290   31.4510   40.8780 C   0  0  0  0  0  0  0  0  0  0  0  0
   43.5530   32.4180   41.7700 C   0  0  0  0  0  0  0  0  0  0  0  0
   42.2730   32.8070   41.5140 N   0  0  0  0  0  0  0  0  0  0  0  0
   41.5020   30.9190   38.8150 H   0  0  0  0  0  0  0  0  0  0  0  0
   43.8670   30.1420   39.2170 H   0  0  0  0  0  0  0  0  0  0  0  0
   45.0610   31.1290   41.0740 H   0  0  0  0  0  0  0  0  0  0  0  0
   44.1450   32.8000   42.5620 H   0  0  0  0  0  0  0  0  0  0  0  0
  1  3  1  0  0  0  0
  1  2  1  0  0  0  0
  4  1  1  0  0  0  0
  4  9  1  0  0  0  0
  5 11  1  0  0  0  0
  5  4  1  0  0  0  0
  6  7  1  0  0  0  0
  6  5  1  0  0  0  0
  7  8  1  0  0  0  0
  8 16  1  0  0  0  0
  8  9  2  0  0  0  0
  9 17  1  0  0  0  0
 10  5  1  0  0  0  0
 12  6  1  0  0  0  0
 13  6  1  0  0  0  0
 14  7  1  0  0  0  0
 15  7  1  0  0  0  0
 17 20  1  0  0  0  0
 19 26  1  0  0  0  0
 19 18  1  0  0  0  0
 20 19  2  0  0  0  0
 21 23  2  0  0  0  0
 21 20  1  0  0  0  0
 22 21  1  0  0  0  0
 23 25  1  0  0  0  0
 24 23  1  0  0  0  0
 25 26  2  0  0  0  0
 27 30  1  0  0  0  0
 27  1  1  0  0  0  0
 28 27  1  0  0  0  0
 29 27  1  0  0  0  0
 30 35  1  0  0  0  0
 31 30  2  0  0  0  0
 31 32  1  0  0  0  0
 32 33  2  0  0  0  0
 33 34  1  0  0  0  0
 34 38  1  0  0  0  0
 35 34  2  0  0  0  0
 36 31  1  0  0  0  0
 37 32  1  0  0  0  0
 38 43  1  0  0  0  0
 39 40  1  0  0  0  0
 39 38  2  0  0  0  0
 40 41  2  0  0  0  0
 41 46  1  0  0  0  0
 41 42  1  0  0  0  0
 42 47  1  0  0  0  0
 43 42  2  0  0  0  0
 44 39  1  0  0  0  0
 45 40  1  0  0  0  0
M  END
>  <minimizedAffinity>
-5.91100168

$$$$

 OpenBabel03252507053D

 47 50  0  0  0  0  0  0  0  0999 V2000
   39.5570   31.4850   38.3250 C   0  0  0  0  0  0  0  0  0  0  0  0
   38.4530   31.3140   38.0850 H   0  0  0  0  0  0  0  0  0  0  0  0
   39.9550   31.9390   37.3930 H   0  0  0  0  0  0  0  0  0  0  0  0
   39.7560   32.2410   39.4110 N   0  0  0  0  0  0  0  0  0  0  0  0
   40.9920   32.7330   39.9170 C   0  0  0  0  0  0  0  0  0  0  0  0
   40.8590   34.1940   39.4880 C   0  0  0  0  0  0  0  0  0  0  0  0
   39.7060   34.8750   40.0530 C   0  0  0  0  0  0  0  0  0  0  0  0
   38.5710   34.0880   40.4840 C   0  0  0  0  0  0  0  0  0  0  0  0
   38.5260   32.6130   40.1500 C   0  0  0  0  0  0  0  0  0  0  0  0
   41.8030   32.3330   39.2360 H   0  0  0  0  0  0  0  0  0  0  0  0
   41.2290   32.5900   40.9590 H   0  0  0  0  0  0  0  0  0  0  0  0
   41.8290   34.6640   39.8000 H   0  0  0  0  0  0  0  0  0  0  0  0
   40.9010   34.2090   38.3670 H   0  0  0  0  0  0  0  0  0  0  0  0
   40.0450   35.4760   40.9470 H   0  0  0  0  0  0  0  0  0  0  0  0
   39.3390   35.6560   39.3240 H   0  0  0  0  0  0  0  0  0  0  0  0
   37.7450   34.4590   41.0080 H   0  0  0  0  0  0  0  0  0  0  0  0
   37.1820   31.5950   40.4990 S   0  0  0  0  0  0  0  0  0  0  0  0
   35.2320   29.4530   40.7370 F   0  0  0  0  0  0  0  0  0  0  0  0
   36.3860   29.3560   41.4650 C   0  0  0  0  0  0  0  0  0  0  0  0
   37.4910   30.2230   41.5200 C   0  0  0  0  0  0  0  0  0  0  0  0
   38.4820   29.8320   42.3500 C   0  0  0  0  0  0  0  0  0  0  0  0
   39.3180   30.5030   42.3350 H   0  0  0  0  0  0  0  0  0  0  0  0
   38.5220   28.7010   43.1290 C   0  0  0  0  0  0  0  0  0  0  0  0
   39.4040   28.5550   43.7350 H   0  0  0  0  0  0  0  0  0  0  0  0
   37.4230   27.8760   43.0500 C   0  0  0  0  0  3  0  0  0  0  0  0
   36.3580   28.1850   42.2310 C   0  0  0  0  0  3  0  0  0  0  0  0
   40.1160   30.1110   38.4490 C   0  0  0  0  0  0  0  0  0  0  0  0
   40.7280   29.9700   39.3770 H   0  0  0  0  0  0  0  0  0  0  0  0
   40.8540   29.9550   37.6140 H   0  0  0  0  0  0  0  0  0  0  0  0
   39.0040   29.1520   38.3410 C   0  0  0  0  0  0  0  0  0  0  0  0
   37.9990   29.3490   37.4230 C   0  0  0  0  0  0  0  0  0  0  0  0
   36.9700   28.4170   37.3640 C   0  0  0  0  0  0  0  0  0  0  0  0
   37.0120   27.3520   38.2190 N   0  0  0  0  0  0  0  0  0  0  0  0
   38.0030   27.1950   39.0920 C   0  0  0  0  0  0  0  0  0  0  0  0
   38.9770   28.1030   39.1310 N   0  0  0  0  0  0  0  0  0  0  0  0
   37.8010   30.0930   36.6710 H   0  0  0  0  0  0  0  0  0  0  0  0
   36.1040   28.4080   36.7140 H   0  0  0  0  0  0  0  0  0  0  0  0
   37.9760   26.0110   39.9500 C   0  0  0  0  0  0  0  0  0  0  0  0
   36.8190   25.2440   40.0630 C   0  0  0  0  0  0  0  0  0  0  0  0
   36.8070   24.1410   40.8760 C   0  0  0  0  0  0  0  0  0  0  0  0
   37.9830   23.8890   41.5240 C   0  0  0  0  0  0  0  0  0  0  0  0
   39.1750   24.6170   41.4530 C   0  0  0  0  0  0  0  0  0  0  0  0
   39.1020   25.6960   40.6250 N   0  0  0  0  0  0  0  0  0  0  0  0
   35.9130   25.5030   39.5140 H   0  0  0  0  0  0  0  0  0  0  0  0
   35.9600   23.4850   41.0270 H   0  0  0  0  0  0  0  0  0  0  0  0
   38.0280   23.0150   42.1890 H   0  0  0  0  0  0  0  0  0  0  0  0
   40.0410   24.3410   41.9990 H   0  0  0  0  0  0  0  0  0  0  0  0
  1 27  1  0  0  0  0
  1  4  1  0  0  0  0
  2  1  1  0  0  0  0
  3  1  1  0  0  0  0
  4  5  1  0  0  0  0
  4  9  1  0  0  0  0
  5 11  1  0  0  0  0
  6 12  1  0  0  0  0
  6  5  1  0  0  0  0
  6  7  1  0  0  0  0
  7  8  1  0  0  0  0
  7 14  1  0  0  0  0
  8 16  1  0  0  0  0
  9  8  2  0  0  0  0
  9 17  1  0  0  0  0
 10  5  1  0  0  0  0
 13  6  1  0  0  0  0
 15  7  1  0  0  0  0
 17 20  1  0  0  0  0
 18 19  1  0  0  0  0
 19 20  2  0  0  0  0
 19 26  1  0  0  0  0
 20 21  1  0  0  0  0
 21 23  2  0  0  0  0
 22 21  1  0  0  0  0
 23 24  1  0  0  0  0
 25 23  1  0  0  0  0
 26 25  2  0  0  0  0
 27 28  1  0  0  0  0
 29 27  1  0  0  0  0
 30 27  1  0  0  0  0
 30 35  1  0  0  0  0
 31 30  2  0  0  0  0
 32 31  1  0  0  0  0
 32 33  2  0  0  0  0
 33 34  1  0  0  0  0
 34 35  2  0  0  0  0
 34 38  1  0  0  0  0
 36 31  1  0  0  0  0
 37 32  1  0  0  0  0
 38 39  2  0  0  0  0
 38 43  1  0  0  0  0
 39 40  1  0  0  0  0
 40 45  1  0  0  0  0
 40 41  2  0  0  0  0
 41 46  1  0  0  0  0
 42 41  1  0  0  0  0
 42 47  1  0  0  0  0
 43 42  2  0  0  0  0
 44 39  1  0  0  0  0
M  END
>  <minimizedAffinity>
-5.87662745

$$$$

 OpenBabel03252507053D

 47 50  0  0  0  0  0  0  0  0999 V2000
   37.7940   27.6040   42.7280 C   0  0  0  0  0  0  0  0  0  0  0  0
   37.0060   27.8340   41.9320 H   0  0  0  0  0  0  0  0  0  0  0  0
   37.1930   27.2170   43.5780 H   0  0  0  0  0  0  0  0  0  0  0  0
   38.7390   26.7530   42.3130 N   0  0  0  0  0  0  0  0  0  0  0  0
   40.0980   26.6870   42.7310 C   0  0  0  0  0  0  0  0  0  0  0  0
   40.0140   25.4440   43.6160 C   0  0  0  0  0  0  0  0  0  0  0  0
   39.5790   24.2460   42.9180 C   0  0  0  0  0  0  0  0  0  0  0  0
   38.8010   24.3870   41.7060 C   0  0  0  0  0  0  0  0  0  0  0  0
   38.2890   25.7550   41.3120 C   0  0  0  0  0  0  0  0  0  0  0  0
   40.2490   27.5280   43.4730 H   0  0  0  0  0  0  0  0  0  0  0  0
   40.8770   26.6570   41.9860 H   0  0  0  0  0  0  0  0  0  0  0  0
   41.0450   25.3390   44.0450 H   0  0  0  0  0  0  0  0  0  0  0  0
   39.3810   25.7180   44.5020 H   0  0  0  0  0  0  0  0  0  0  0  0
   40.4900   23.6340   42.6520 H   0  0  0  0  0  0  0  0  0  0  0  0
   39.0050   23.5850   43.6310 H   0  0  0  0  0  0  0  0  0  0  0  0
   38.5390   23.6040   41.0640 H   0  0  0  0  0  0  0  0  0  0  0  0
   37.2560   26.0390   39.9650 S   0  0  0  0  0  0  0  0  0  0  0  0
   35.1320   27.2640   38.4030 F   0  0  0  0  0  0  0  0  0  0  0  0
   36.3670   27.8510   38.3820 C   0  0  0  0  0  0  0  0  0  0  0  0
   37.5490   27.4880   39.0520 C   0  0  0  0  0  0  0  0  0  0  0  0
   38.6090   28.2890   38.8130 C   0  0  0  0  0  0  0  0  0  0  0  0
   39.4770   27.9970   39.3700 H   0  0  0  0  0  0  0  0  0  0  0  0
   38.6540   29.3960   38.0010 C   0  0  0  0  0  0  0  0  0  0  0  0
   39.5990   29.9150   37.9320 H   0  0  0  0  0  0  0  0  0  0  0  0
   37.4800   29.7220   37.3600 C   0  0  0  0  0  3  0  0  0  0  0  0
   36.3390   28.9680   37.5390 C   0  0  0  0  0  3  0  0  0  0  0  0
   38.3260   28.9420   43.1050 C   0  0  0  0  0  0  0  0  0  0  0  0
   39.4400   28.9510   43.2310 H   0  0  0  0  0  0  0  0  0  0  0  0
   37.9380   29.1990   44.1300 H   0  0  0  0  0  0  0  0  0  0  0  0
   37.8510   29.9220   42.1140 C   0  0  0  0  0  0  0  0  0  0  0  0
   36.5520   29.8820   41.6610 C   0  0  0  0  0  0  0  0  0  0  0  0
   36.1550   30.8270   40.7220 C   0  0  0  0  0  0  0  0  0  0  0  0
   37.0730   31.7460   40.3000 N   0  0  0  0  0  0  0  0  0  0  0  0
   38.3190   31.7520   40.7630 C   0  0  0  0  0  0  0  0  0  0  0  0
   38.6770   30.8360   41.6620 N   0  0  0  0  0  0  0  0  0  0  0  0
   35.6970   29.2660   41.8780 H   0  0  0  0  0  0  0  0  0  0  0  0
   35.1850   30.9480   40.2560 H   0  0  0  0  0  0  0  0  0  0  0  0
   39.2250   32.7910   40.2720 C   0  0  0  0  0  0  0  0  0  0  0  0
   40.2870   32.4660   39.4320 C   0  0  0  0  0  0  0  0  0  0  0  0
   41.1310   33.4490   38.9850 C   0  0  0  0  0  0  0  0  0  0  0  0
   40.8340   34.7080   39.4260 C   0  0  0  0  0  0  0  0  0  0  0  0
   39.7870   35.0990   40.2660 C   0  0  0  0  0  0  0  0  0  0  0  0
   38.9970   34.0630   40.6640 N   0  0  0  0  0  0  0  0  0  0  0  0
   40.4650   31.4380   39.1180 H   0  0  0  0  0  0  0  0  0  0  0  0
   41.9780   33.2960   38.3320 H   0  0  0  0  0  0  0  0  0  0  0  0
   41.4790   35.5340   39.0970 H   0  0  0  0  0  0  0  0  0  0  0  0
   39.6370   36.1080   40.5560 H   0  0  0  0  0  0  0  0  0  0  0  0
  1 27  1  0  0  0  0
  1  3  1  0  0  0  0
  2  1  1  0  0  0  0
  4  1  1  0  0  0  0
  4  5  1  0  0  0  0
  5 10  1  0  0  0  0
  5  6  1  0  0  0  0
  6 12  1  0  0  0  0
  6 13  1  0  0  0  0
  7  6  1  0  0  0  0
  7 15  1  0  0  0  0
  8  7  1  0  0  0  0
  9  8  2  0  0  0  0
  9  4  1  0  0  0  0
 11  5  1  0  0  0  0
 14  7  1  0  0  0  0
 16  8  1  0  0  0  0
 17  9  1  0  0  0  0
 19 18  1  0  0  0  0
 19 20  1  0  0  0  0
 20 17  1  0  0  0  0
 21 20  2  0  0  0  0
 21 22  1  0  0  0  0
 23 21  1  0  0  0  0
 24 23  1  0  0  0  0
 25 26  1  0  0  0  0
 25 23  2  0  0  0  0
 26 19  2  0  0  0  0
 27 28  1  0  0  0  0
 27 29  1  0  0  0  0
 30 27  1  0  0  0  0
 31 36  1  0  0  0  0
 31 30  2  0  0  0  0
 32 31  1  0  0  0  0
 33 32  2  0  0  0  0
 33 34  1  0  0  0  0
 34 35  2  0  0  0  0
 35 30  1  0  0  0  0
 37 32  1  0  0  0  0
 38 43  1  0  0  0  0
 38 34  1  0  0  0  0
 39 38  2  0  0  0  0
 40 41  2  0  0  0  0
 40 39  1  0  0  0  0
 41 42  1  0  0  0  0
 42 47  1  0  0  0  0
 42 43  2  0  0  0  0
 44 39  1  0  0  0  0
 45 40  1  0  0  0  0
 46 41  1  0  0  0  0
M  END
>  <minimizedAffinity>
-5.86612177

$$$$

 OpenBabel03252507053D

 47 50  0  0  0  0  0  0  0  0999 V2000
   38.7270   31.2210   38.0480 C   0  0  0  0  0  0  0  0  0  0  0  0
   37.5880   31.3310   38.0460 H   0  0  0  0  0  0  0  0  0  0  0  0
   39.0290   31.6700   37.0780 H   0  0  0  0  0  0  0  0  0  0  0  0
   39.3150   31.7930   39.1050 N   0  0  0  0  0  0  0  0  0  0  0  0
   40.7010   32.0480   39.3000 C   0  0  0  0  0  0  0  0  0  0  0  0
   40.7000   33.5580   39.0630 C   0  0  0  0  0  0  0  0  0  0  0  0
   39.8540   34.3020   39.9810 C   0  0  0  0  0  0  0  0  0  0  0  0
   38.7550   33.6190   40.6290 C   0  0  0  0  0  0  0  0  0  0  0  0
   38.3900   32.2200   40.1830 C   0  0  0  0  0  0  0  0  0  0  0  0
   41.2360   31.6400   38.3900 H   0  0  0  0  0  0  0  0  0  0  0  0
   41.1700   31.7370   40.2190 H   0  0  0  0  0  0  0  0  0  0  0  0
   41.7800   33.8520   39.1410 H   0  0  0  0  0  0  0  0  0  0  0  0
   40.4560   33.7170   37.9790 H   0  0  0  0  0  0  0  0  0  0  0  0
   40.5030   34.7290   40.8020 H   0  0  0  0  0  0  0  0  0  0  0  0
   39.4440   35.2140   39.4560 H   0  0  0  0  0  0  0  0  0  0  0  0
   38.1620   34.0210   41.3910 H   0  0  0  0  0  0  0  0  0  0  0  0
   37.0340   31.3480   40.7860 S   0  0  0  0  0  0  0  0  0  0  0  0
   35.2130   29.0820   40.8190 F   0  0  0  0  0  0  0  0  0  0  0  0
   36.3350   29.0180   41.5990 C   0  0  0  0  0  0  0  0  0  0  0  0
   37.3790   29.9470   41.7540 C   0  0  0  0  0  0  0  0  0  0  0  0
   38.3520   29.5730   42.6130 C   0  0  0  0  0  0  0  0  0  0  0  0
   39.1440   30.2940   42.6740 H   0  0  0  0  0  0  0  0  0  0  0  0
   38.4260   28.4080   43.3370 C   0  0  0  0  0  0  0  0  0  0  0  0
   39.2850   28.2850   43.9800 H   0  0  0  0  0  0  0  0  0  0  0  0
   37.3860   27.5230   43.1620 C   0  0  0  0  0  3  0  0  0  0  0  0
   36.3440   27.8090   42.3050 C   0  0  0  0  0  3  0  0  0  0  0  0
   38.9470   29.7520   37.9700 C   0  0  0  0  0  0  0  0  0  0  0  0
   39.5950   29.3620   38.7980 H   0  0  0  0  0  0  0  0  0  0  0  0
   39.5420   29.5340   37.0390 H   0  0  0  0  0  0  0  0  0  0  0  0
   37.6330   29.0920   37.9080 C   0  0  0  0  0  0  0  0  0  0  0  0
   36.5460   29.7510   37.3820 C   0  0  0  0  0  0  0  0  0  0  0  0
   35.3260   29.0850   37.3500 C   0  0  0  0  0  0  0  0  0  0  0  0
   35.2710   27.8110   37.8400 N   0  0  0  0  0  0  0  0  0  0  0  0
   36.3460   27.2070   38.3390 C   0  0  0  0  0  0  0  0  0  0  0  0
   37.5030   27.8660   38.3600 N   0  0  0  0  0  0  0  0  0  0  0  0
   36.3930   30.7210   36.9410 H   0  0  0  0  0  0  0  0  0  0  0  0
   34.3730   29.4400   36.9780 H   0  0  0  0  0  0  0  0  0  0  0  0
   36.1950   25.8330   38.8180 C   0  0  0  0  0  0  0  0  0  0  0  0
   36.8880   25.3950   39.9430 C   0  0  0  0  0  0  0  0  0  0  0  0
   36.7430   24.1020   40.3750 C   0  0  0  0  0  0  0  0  0  0  0  0
   35.8940   23.3370   39.6270 C   0  0  0  0  0  0  0  0  0  0  0  0
   35.1710   23.7160   38.4920 C   0  0  0  0  0  0  0  0  0  0  0  0
   35.3720   25.0130   38.1300 N   0  0  0  0  0  0  0  0  0  0  0  0
   37.5510   26.0620   40.4940 H   0  0  0  0  0  0  0  0  0  0  0  0
   37.2360   23.6720   41.2350 H   0  0  0  0  0  0  0  0  0  0  0  0
   35.7400   22.2920   39.9300 H   0  0  0  0  0  0  0  0  0  0  0  0
   34.5330   23.0440   37.9750 H   0  0  0  0  0  0  0  0  0  0  0  0
  1  4  1  0  0  0  0
  2  1  1  0  0  0  0
  3  1  1  0  0  0  0
  4  5  1  0  0  0  0
  4  9  1  0  0  0  0
  5 11  1  0  0  0  0
  6 12  1  0  0  0  0
  6  5  1  0  0  0  0
  6  7  1  0  0  0  0
  7  8  1  0  0  0  0
  7 14  1  0  0  0  0
  8 16  1  0  0  0  0
  9  8  2  0  0  0  0
  9 17  1  0  0  0  0
 10  5  1  0  0  0  0
 13  6  1  0  0  0  0
 15  7  1  0  0  0  0
 17 20  1  0  0  0  0
 18 19  1  0  0  0  0
 19 20  2  0  0  0  0
 19 26  1  0  0  0  0
 20 21  1  0  0  0  0
 21 22  1  0  0  0  0
 21 23  2  0  0  0  0
 23 24  1  0  0  0  0
 25 23  1  0  0  0  0
 26 25  2  0  0  0  0
 27  1  1  0  0  0  0
 27 28  1  0  0  0  0
 29 27  1  0  0  0  0
 30 27  1  0  0  0  0
 30 35  1  0  0  0  0
 31 30  2  0  0  0  0
 32 31  1  0  0  0  0
 32 33  2  0  0  0  0
 33 34  1  0  0  0  0
 34 35  2  0  0  0  0
 34 38  1  0  0  0  0
 36 31  1  0  0  0  0
 37 32  1  0  0  0  0
 38 39  1  0  0  0  0
 39 40  2  0  0  0  0
 39 44  1  0  0  0  0
 40 45  1  0  0  0  0
 41 46  1  0  0  0  0
 41 40  1  0  0  0  0
 42 41  2  0  0  0  0
 43 42  1  0  0  0  0
 43 38  2  0  0  0  0
 47 42  1  0  0  0  0
M  END
>  <minimizedAffinity>
-5.83202839

$$$$
