
 OpenBabel03252508593D

 45 47  0  0  1  0  0  0  0  0999 V2000
   47.4020   33.8610   42.8990 N   0  0  0  0  0  0  0  0  0  0  0  0
   46.9690   35.1560   42.5230 C   0  0  0  0  0  0  0  0  0  0  0  0
   45.5100   35.4490   42.8240 C   0  0  0  0  0  0  0  0  0  0  0  0
   45.0080   34.8070   44.0960 C   0  0  0  0  0  0  0  0  0  0  0  0
   46.0930   34.0450   44.8110 C   0  0  0  0  0  0  0  0  0  0  0  0
   46.6280   33.0530   43.7170 C   0  0  2  0  0  0  0  0  0  0  0  0
   47.1580   35.4460   41.4900 H   0  0  0  0  0  0  0  0  0  0  0  0
   47.5470   35.8830   43.1470 H   0  0  0  0  0  0  0  0  0  0  0  0
   45.3300   36.5220   42.7550 H   0  0  0  0  0  0  0  0  0  0  0  0
   44.9460   34.9630   41.9840 H   0  0  0  0  0  0  0  0  0  0  0  0
   44.1090   34.1970   43.9550 H   0  0  0  0  0  0  0  0  0  0  0  0
   44.7210   35.6530   44.7670 H   0  0  0  0  0  0  0  0  0  0  0  0
   45.6310   33.4730   45.6170 H   0  0  0  0  0  0  0  0  0  0  0  0
   46.9100   34.7180   45.0980 H   0  0  0  0  0  0  0  0  0  0  0  0
   45.7220   32.5760   43.2920 H   0  0  0  0  0  0  0  0  0  0  0  0
   48.2890   33.2450   41.9580 C   0  0  0  0  0  0  0  0  0  0  0  0
   48.9160   34.0580   41.5270 H   0  0  0  0  0  0  0  0  0  0  0  0
   48.9540   32.5160   42.4360 H   0  0  0  0  0  0  0  0  0  0  0  0
   47.4870   32.5900   40.8860 C   0  0  0  0  0  0  0  0  0  0  0  0
   47.4490   31.5040   40.9930 H   0  0  0  0  0  0  0  0  0  0  0  0
   46.4160   32.9340   40.9190 H   0  0  0  0  0  0  0  0  0  0  0  0
   49.3800   32.3730   37.6470 C   0  0  0  0  0  0  0  0  0  0  0  0
   48.8410   32.0400   38.9050 C   0  0  0  0  0  0  0  0  0  0  0  0
   48.0490   32.9540   39.5590 C   0  0  0  0  0  0  0  0  0  0  0  0
   47.8240   34.1340   38.9600 N   0  0  0  0  0  0  0  0  0  0  0  0
   48.3480   34.4380   37.7520 C   0  0  0  0  0  0  0  0  0  0  0  0
   49.1280   33.5620   37.0900 N   0  0  0  0  0  0  0  0  0  0  0  0
   50.0020   31.6260   37.1570 H   0  0  0  0  0  0  0  0  0  0  0  0
   49.0490   31.0910   39.3370 H   0  0  0  0  0  0  0  0  0  0  0  0
   48.1770   35.3860   37.2560 H   0  0  0  0  0  0  0  0  0  0  0  0
   47.4080   32.1910   44.4780 O   0  0  0  0  0  0  0  0  0  0  0  0
   46.8540   29.9680   43.1460 O   0  0  0  0  0  0  0  0  0  0  0  0
   46.7940   30.6270   44.5090 P   0  0  2  0  0  0  0  0  0  0  0  0
   45.1320   30.7700   44.8880 O   0  0  0  0  0  0  0  0  0  0  0  0
   44.9860   31.4570   45.5870 H   0  0  0  0  0  0  0  0  0  0  0  0
   47.5170   29.6750   45.6870 O   0  0  0  0  0  0  0  0  0  0  0  0
   49.7750   28.6680   46.7520 F   0  0  0  0  0  0  0  0  0  0  0  0
   49.0240   29.5980   47.4210 C   0  0  0  0  0  0  0  0  0  0  0  0
   47.8570   30.1580   46.9390 C   0  0  0  0  0  0  0  0  0  0  0  0
   47.1990   31.0890   47.7250 C   0  0  0  0  0  0  0  0  0  0  0  0
   46.3010   31.4730   47.2740 H   0  0  0  0  0  0  0  0  0  0  0  0
   47.6950   31.4440   48.9520 C   0  0  0  0  0  0  0  0  0  0  0  0
   47.1100   32.1900   49.5110 H   0  0  0  0  0  0  0  0  0  0  0  0
   48.8570   30.9000   49.4540 C   0  0  0  0  0  3  0  0  0  0  0  0
   49.5300   29.9590   48.6690 C   0  0  0  0  0  3  0  0  0  0  0  0
  1  6  1  0  0  0  0
  2  3  1  0  0  0  0
  2  1  1  0  0  0  0
  2  8  1  0  0  0  0
  3  4  1  0  0  0  0
  4 12  1  0  0  0  0
  4  5  1  0  0  0  0
  5 14  1  0  0  0  0
  5 13  1  0  0  0  0
  6 15  1  6  0  0  0
  6 31  1  0  0  0  0
  6  5  1  0  0  0  0
  7  2  1  0  0  0  0
  9  3  1  0  0  0  0
 10  3  1  0  0  0  0
 11  4  1  0  0  0  0
 16 18  1  0  0  0  0
 16  1  1  0  0  0  0
 17 16  1  0  0  0  0
 19 21  1  0  0  0  0
 19 20  1  0  0  0  0
 19 16  1  0  0  0  0
 22 23  1  0  0  0  0
 23 29  1  0  0  0  0
 23 24  2  0  0  0  0
 24 19  1  0  0  0  0
 25 24  1  0  0  0  0
 26 25  2  0  0  0  0
 27 22  2  0  0  0  0
 27 26  1  0  0  0  0
 28 22  1  0  0  0  0
 30 26  1  0  0  0  0
 31 33  1  0  0  0  0
 33 32  2  6  0  0  0
 33 34  1  0  0  0  0
 33 36  1  0  0  0  0
 34 35  1  0  0  0  0
 36 39  1  0  0  0  0
 37 38  1  0  0  0  0
 38 45  1  0  0  0  0
 39 38  2  0  0  0  0
 39 40  1  0  0  0  0
 40 42  2  0  0  0  0
 41 40  1  0  0  0  0
 42 44  1  0  0  0  0
 42 43  1  0  0  0  0
 45 44  2  0  0  0  0
M  END
>  <minimizedAffinity>
-4.72134256

>  <minimizedRMSD>
0.966762781

$$$$
