
 OpenBabel03252508593D

 45 47  0  0  1  0  0  0  0  0999 V2000
   46.5030   34.4590   43.7300 N   0  0  0  0  0  0  0  0  0  0  0  0
   46.1440   35.5010   42.8410 C   0  0  0  0  0  0  0  0  0  0  0  0
   44.6520   35.7620   42.7370 C   0  0  0  0  0  0  0  0  0  0  0  0
   43.9060   35.5650   44.0360 C   0  0  0  0  0  0  0  0  0  0  0  0
   44.8290   35.1920   45.1670 C   0  0  0  0  0  0  0  0  0  0  0  0
   45.5850   33.9270   44.6220 C   0  0  2  0  0  0  0  0  0  0  0  0
   46.5380   35.4270   41.8280 H   0  0  0  0  0  0  0  0  0  0  0  0
   46.5760   36.4450   43.2590 H   0  0  0  0  0  0  0  0  0  0  0  0
   44.4810   36.7240   42.2560 H   0  0  0  0  0  0  0  0  0  0  0  0
   44.2760   34.9680   42.0370 H   0  0  0  0  0  0  0  0  0  0  0  0
   43.0610   34.8740   43.9570 H   0  0  0  0  0  0  0  0  0  0  0  0
   43.4810   36.5660   44.2930 H   0  0  0  0  0  0  0  0  0  0  0  0
   44.2170   34.9020   46.0220 H   0  0  0  0  0  0  0  0  0  0  0  0
   45.5650   35.9860   45.3410 H   0  0  0  0  0  0  0  0  0  0  0  0
   44.7900   33.2600   44.2340 H   0  0  0  0  0  0  0  0  0  0  0  0
   47.5690   33.6270   43.2560 C   0  0  0  0  0  0  0  0  0  0  0  0
   48.2910   34.2950   42.7340 H   0  0  0  0  0  0  0  0  0  0  0  0
   48.0970   33.1280   44.0780 H   0  0  0  0  0  0  0  0  0  0  0  0
   47.0180   32.6200   42.3060 C   0  0  0  0  0  0  0  0  0  0  0  0
   47.1500   31.5940   42.6570 H   0  0  0  0  0  0  0  0  0  0  0  0
   45.9090   32.7550   42.1770 H   0  0  0  0  0  0  0  0  0  0  0  0
   49.3210   32.1080   39.3810 C   0  0  0  0  0  0  0  0  0  0  0  0
   48.7000   31.9560   40.6360 C   0  0  0  0  0  0  0  0  0  0  0  0
   47.6640   32.7910   40.9790 C   0  0  0  0  0  0  0  0  0  0  0  0
   47.2880   33.7240   40.0890 N   0  0  0  0  0  0  0  0  0  0  0  0
   47.8930   33.8570   38.8890 C   0  0  0  0  0  0  0  0  0  0  0  0
   48.9110   33.0520   38.5280 N   0  0  0  0  0  0  0  0  0  0  0  0
   50.1370   31.4290   39.1420 H   0  0  0  0  0  0  0  0  0  0  0  0
   49.0360   31.2010   41.3050 H   0  0  0  0  0  0  0  0  0  0  0  0
   47.6020   34.6050   38.1600 H   0  0  0  0  0  0  0  0  0  0  0  0
   46.2000   33.4520   45.7730 O   0  0  0  0  0  0  0  0  0  0  0  0
   45.3390   31.1580   44.7630 O   0  0  0  0  0  0  0  0  0  0  0  0
   46.1450   31.7760   45.8870 P   0  0  2  0  0  0  0  0  0  0  0  0
   45.2920   31.4190   47.3270 O   0  0  0  0  0  0  0  0  0  0  0  0
   45.5560   32.0360   48.0560 H   0  0  0  0  0  0  0  0  0  0  0  0
   47.6720   31.0880   46.0030 O   0  0  0  0  0  0  0  0  0  0  0  0
   47.9530   32.8950   47.9790 F   0  0  0  0  0  0  0  0  0  0  0  0
   48.3040   31.5830   48.1560 C   0  0  0  0  0  0  0  0  0  0  0  0
   48.1890   30.6010   47.1910 C   0  0  0  0  0  0  0  0  0  0  0  0
   48.5830   29.3140   47.5110 C   0  0  0  0  0  0  0  0  0  0  0  0
   48.4590   28.6150   46.7020 H   0  0  0  0  0  0  0  0  0  0  0  0
   49.0750   29.0210   48.7560 C   0  0  0  0  0  0  0  0  0  0  0  0
   49.3650   27.9740   48.9260 H   0  0  0  0  0  0  0  0  0  0  0  0
   49.2000   29.9840   49.7350 C   0  0  0  0  0  3  0  0  0  0  0  0
   48.8050   31.2880   49.4240 C   0  0  0  0  0  3  0  0  0  0  0  0
  1  6  1  0  0  0  0
  2  8  1  0  0  0  0
  2  1  1  0  0  0  0
  3  2  1  0  0  0  0
  3  4  1  0  0  0  0
  4 12  1  0  0  0  0
  4  5  1  0  0  0  0
  5 14  1  0  0  0  0
  5 13  1  0  0  0  0
  6 15  1  6  0  0  0
  6  5  1  0  0  0  0
  6 31  1  0  0  0  0
  7  2  1  0  0  0  0
  9  3  1  0  0  0  0
 10  3  1  0  0  0  0
 11  4  1  0  0  0  0
 16  1  1  0  0  0  0
 16 18  1  0  0  0  0
 17 16  1  0  0  0  0
 19 20  1  0  0  0  0
 19 16  1  0  0  0  0
 21 19  1  0  0  0  0
 22 23  1  0  0  0  0
 23 24  2  0  0  0  0
 23 29  1  0  0  0  0
 24 19  1  0  0  0  0
 25 24  1  0  0  0  0
 26 25  2  0  0  0  0
 27 26  1  0  0  0  0
 27 22  2  0  0  0  0
 28 22  1  0  0  0  0
 30 26  1  0  0  0  0
 31 33  1  0  0  0  0
 33 32  2  6  0  0  0
 33 36  1  0  0  0  0
 33 34  1  0  0  0  0
 34 35  1  0  0  0  0
 36 39  1  0  0  0  0
 37 38  1  0  0  0  0
 38 45  1  0  0  0  0
 39 40  1  0  0  0  0
 39 38  2  0  0  0  0
 40 42  2  0  0  0  0
 41 40  1  0  0  0  0
 42 43  1  0  0  0  0
 42 44  1  0  0  0  0
 45 44  2  0  0  0  0
M  END
>  <minimizedAffinity>
-4.62274027

>  <minimizedRMSD>
1.32716978

$$$$
