REMARK  Name = 
REMARK  4 active torsions:
REMARK  status: ('A' for Active; 'I' for Inactive)
REMARK    1  A    between atoms: C_2  and  C_12
REMARK    2  A    between atoms: C_3  and  C_7
REMARK    3  A    between atoms: C_12  and  C_14
REMARK    4  A    between atoms: N_16  and  C_30
REMARK                            x       y       z     vdW  Elec       q    Type
REMARK                         _______ _______ _______ _____ _____    ______ ____
ROOT
ATOM      1  C   UNL     1      46.517  34.834  41.915  0.00  0.00    +0.000 C 
ATOM      2  O   UNL     1      47.716  35.253  41.860  0.00  0.00    +0.000 OA
ENDROOT
BRANCH   1   3
ATOM      3  C   UNL     1      45.786  34.225  40.750  0.00  0.00    +0.000 A 
ATOM      4  C   UNL     1      44.439  34.323  40.492  0.00  0.00    +0.000 A 
ATOM      5  N   UNL     1      44.238  33.626  39.352  0.00  0.00    +0.000 N 
ATOM      6  C   UNL     1      45.420  33.126  38.938  0.00  0.00    +0.000 A 
ATOM      7  N   UNL     1      46.382  33.494  39.800  0.00  0.00    +0.000 NA
ATOM      8  N   UNL     1      45.723  32.331  37.800  0.00  0.00    +0.000 N 
ATOM      9  H   UNL     1      43.717  34.852  41.091  0.00  0.00    +0.000 HD
ATOM     10  H   UNL     1      46.488  31.661  37.764  0.00  0.00    +0.000 HD
ATOM     11  H   UNL     1      45.150  32.401  36.907  0.00  0.00    +0.000 HD
BRANCH   5  14
ATOM     12  F   UNL     1      42.092  35.133  40.060  0.00  0.00    +0.000 F 
ATOM     13  C   UNL     1      41.903  34.224  39.064  0.00  0.00    +0.000 A 
ATOM     14  C   UNL     1      42.993  33.440  38.686  0.00  0.00    +0.000 A 
ATOM     15  C   UNL     1      42.861  32.498  37.678  0.00  0.00    +0.000 A 
ATOM     16  H   UNL     1      43.692  31.874  37.362  0.00  0.00    +0.000 HD
ATOM     17  C   UNL     1      41.627  32.342  37.046  0.00  0.00    +0.000 A 
ATOM     18  H   UNL     1      41.529  31.592  36.246  0.00  0.00    +0.000 HD
ATOM     19  C   UNL     1      40.549  33.115  37.417  0.00  0.00    +0.000 A 
ATOM     20  C   UNL     1      40.671  34.063  38.428  0.00  0.00    +0.000 A 
ENDBRANCH   5  14
ENDBRANCH   1   3
BRANCH   1  22
ATOM     21  C   UNL     1      45.218  36.173  43.496  0.00  0.00    +0.000 A 
ATOM     22  C   UNL     1      45.872  34.969  43.164  0.00  0.00    +0.000 A 
ATOM     23  C   UNL     1      45.815  33.995  44.137  0.00  0.00    +0.000 A 
ATOM     24  N   UNL     1      45.185  34.182  45.309  0.00  0.00    +0.000 NA
ATOM     25  C   UNL     1      44.571  35.362  45.578  0.00  0.00    +0.000 A 
ATOM     26  N   UNL     1      44.592  36.347  44.671  0.00  0.00    +0.000 NA
ATOM     27  H   UNL     1      45.210  37.008  42.782  0.00  0.00    +0.000 HD
ATOM     28  H   UNL     1      44.076  35.464  46.539  0.00  0.00    +0.000 HD
BRANCH  23  29
ATOM     29  C   UNL     1      46.447  32.752  43.891  0.00  0.00    +0.000 A 
ATOM     30  C   UNL     1      47.715  32.276  44.012  0.00  0.00    +0.000 A 
ATOM     31  C   UNL     1      48.025  31.035  43.700  0.00  0.00    +0.000 A 
ATOM     32  C   UNL     1      47.032  30.238  43.250  0.00  0.00    +0.000 A 
ATOM     33  S   UNL     1      45.568  31.332  43.275  0.00  0.00    +0.000 S 
ATOM     34  H   UNL     1      48.446  33.019  44.392  0.00  0.00    +0.000 HD
ATOM     35  H   UNL     1      49.005  30.580  43.768  0.00  0.00    +0.000 HD
ATOM     36  H   UNL     1      46.999  29.184  42.923  0.00  0.00    +0.000 HD
ENDBRANCH  23  29
ENDBRANCH   1  22
TORSDOF 4
