
 OpenBabel03252503153D

 36 39  0  0  0  0  0  0  0  0999 V2000
   45.5470   34.5920   41.8490 C   0  0  0  0  0  0  0  0  0  0  0  0
   46.7340   34.8550   41.4750 O   0  0  0  0  0  0  0  0  0  0  0  0
   44.4370   34.2040   40.9110 C   0  0  0  0  0  0  0  0  0  0  0  0
   43.0910   34.2320   41.1870 C   0  0  0  0  0  0  0  0  0  0  0  0
   42.4820   33.8020   40.0590 N   0  0  0  0  0  0  0  0  0  0  0  0
   43.4270   33.5240   39.1380 C   0  0  0  0  0  0  0  0  0  0  0  0
   44.6400   33.7710   39.6610 N   0  0  0  0  0  0  0  0  0  0  0  0
   43.2880   33.0460   37.8080 N   0  0  0  0  0  0  0  0  0  0  0  0
   42.6410   34.5390   42.1160 H   0  0  0  0  0  0  0  0  0  0  0  0
   43.9860   32.4770   37.3340 H   0  0  0  0  0  0  0  0  0  0  0  0
   42.4250   33.2670   37.2270 H   0  0  0  0  0  0  0  0  0  0  0  0
   41.0290   35.9090   39.1500 F   0  0  0  0  0  0  0  0  0  0  0  0
   40.3500   34.7540   39.3920 C   0  0  0  0  0  0  0  0  0  0  0  0
   41.0790   33.6600   39.8600 C   0  0  0  0  0  0  0  0  0  0  0  0
   40.4440   32.4570   40.1250 C   0  0  0  0  0  0  0  0  0  0  0  0
   40.9850   31.5890   40.4900 H   0  0  0  0  0  0  0  0  0  0  0  0
   39.0670   32.3520   39.9180 C   0  0  0  0  0  0  0  0  0  0  0  0
   38.5700   31.3940   40.1310 H   0  0  0  0  0  0  0  0  0  0  0  0
   38.3460   33.4300   39.4570 C   0  0  0  0  0  3  0  0  0  0  0  0
   38.9750   34.6420   39.1870 C   0  0  0  0  0  3  0  0  0  0  0  0
   44.7110   35.8450   43.7760 C   0  0  0  0  0  0  0  0  0  0  0  0
   45.3030   34.6840   43.2370 C   0  0  0  0  0  0  0  0  0  0  0  0
   45.5980   33.7060   44.1610 C   0  0  0  0  0  0  0  0  0  0  0  0
   45.3420   33.8510   45.4720 N   0  0  0  0  0  0  0  0  0  0  0  0
   44.7710   34.9900   45.9390 C   0  0  0  0  0  0  0  0  0  0  0  0
   44.4600   35.9770   45.0880 N   0  0  0  0  0  0  0  0  0  0  0  0
   44.4400   36.6800   43.1150 H   0  0  0  0  0  0  0  0  0  0  0  0
   44.5840   35.0590   47.0060 H   0  0  0  0  0  0  0  0  0  0  0  0
   46.1970   32.5040   43.7100 C   0  0  0  0  0  0  0  0  0  0  0  0
   47.4740   32.0570   43.5750 C   0  0  0  0  0  0  0  0  0  0  0  0
   47.7440   30.8540   43.1140 C   0  0  0  0  0  0  0  0  0  0  0  0
   46.7010   30.0660   42.7750 C   0  0  0  0  0  0  0  0  0  0  0  0
   45.2470   31.1130   43.1380 S   0  0  0  0  0  0  0  0  0  0  0  0
   48.2480   32.7890   43.8850 H   0  0  0  0  0  0  0  0  0  0  0  0
   48.7280   30.4230   42.9770 H   0  0  0  0  0  0  0  0  0  0  0  0
   46.6280   29.0410   42.3730 H   0  0  0  0  0  0  0  0  0  0  0  0
  1 22  1  0  0  0  0
  2  1  2  0  0  0  0
  3  4  2  0  0  0  0
  3  1  1  0  0  0  0
  4  9  1  0  0  0  0
  5  4  1  0  0  0  0
  6  7  2  0  0  0  0
  6  5  1  0  0  0  0
  7  3  1  0  0  0  0
  8  6  1  0  0  0  0
 10  8  1  0  0  0  0
 11  8  1  0  0  0  0
 12 13  1  0  0  0  0
 13 14  1  0  0  0  0
 14  5  1  0  0  0  0
 14 15  2  0  0  0  0
 15 16  1  0  0  0  0
 17 15  1  0  0  0  0
 17 18  1  0  0  0  0
 19 17  2  0  0  0  0
 20 13  2  0  0  0  0
 20 19  1  0  0  0  0
 21 26  1  0  0  0  0
 22 21  2  0  0  0  0
 22 23  1  0  0  0  0
 23 24  2  0  0  0  0
 24 25  1  0  0  0  0
 25 28  1  0  0  0  0
 26 25  2  0  0  0  0
 27 21  1  0  0  0  0
 29 23  1  0  0  0  0
 30 29  2  0  0  0  0
 30 34  1  0  0  0  0
 31 30  1  0  0  0  0
 32 31  2  0  0  0  0
 32 33  1  0  0  0  0
 33 29  1  0  0  0  0
 35 31  1  0  0  0  0
 36 32  1  0  0  0  0
M  END
>  <minimizedAffinity>
-6.06053972

>  <minimizedRMSD>
1.76678562

$$$$
