
 OpenBabel03242514003D

 41 45  0  0  0  0  0  0  0  0999 V2000
   38.5550   30.3030   41.5720 C   0  0  0  0  0  0  0  0  0  0  0  0
   37.2610   30.3990   41.0960 C   0  0  0  0  0  0  0  0  0  0  0  0
   36.8830   31.6070   40.4550 C   0  0  0  0  0  0  0  0  0  0  0  0
   37.7960   32.5930   40.3430 N   0  0  0  0  0  0  0  0  0  0  0  0
   39.0550   32.4600   40.8240 C   0  0  0  0  0  0  0  0  0  0  0  0
   39.4170   31.3010   41.4380 N   0  0  0  0  0  0  0  0  0  0  0  0
   38.7830   29.3590   42.0490 H   0  0  0  0  0  0  0  0  0  0  0  0
   35.9120   31.8060   40.0430 H   0  0  0  0  0  0  0  0  0  0  0  0
   40.0830   33.4950   40.7320 C   0  0  0  0  0  0  0  0  0  0  0  0
   39.8730   34.6590   39.9770 C   0  0  0  0  0  0  0  0  0  0  0  0
   41.0280   35.4220   40.0980 C   0  0  0  0  0  0  0  0  0  0  0  0
   41.8730   34.7320   40.8890 N   0  0  0  0  0  0  0  0  0  0  0  0
   41.2920   33.5910   41.2530 N   0  0  0  0  0  0  0  0  0  0  0  0
   39.0490   35.0090   39.3890 H   0  0  0  0  0  0  0  0  0  0  0  0
   41.2610   36.3860   39.6670 H   0  0  0  0  0  0  0  0  0  0  0  0
   42.2680   36.4110   43.0570 F   0  0  0  0  0  0  0  0  0  0  0  0
   43.3400   35.8760   42.4260 C   0  0  0  0  0  0  0  0  0  0  0  0
   43.1900   35.0360   41.3440 C   0  0  0  0  0  0  0  0  0  0  0  0
   44.3250   34.5070   40.7230 C   0  0  0  0  0  0  0  0  0  0  0  0
   44.1660   33.8450   39.8670 H   0  0  0  0  0  0  0  0  0  0  0  0
   45.5940   34.8170   41.1810 C   0  0  0  0  0  0  0  0  0  0  0  0
   46.4580   34.3900   40.6780 H   0  0  0  0  0  0  0  0  0  0  0  0
   45.7360   35.6700   42.2810 C   0  0  0  0  0  3  0  0  0  0  0  0
   44.6090   36.2070   42.9120 C   0  0  0  0  0  3  0  0  0  0  0  0
   36.2920   29.4170   41.1860 O   0  0  0  0  0  0  0  0  0  0  0  0
   36.5420   28.0840   41.4620 C   0  0  0  0  0  0  0  0  0  0  0  0
   36.6230   27.5000   42.6970 C   0  0  0  0  0  0  0  0  0  0  0  0
   36.8800   26.1510   42.8160 C   0  0  0  0  0  0  0  0  0  0  0  0
   37.0640   25.3380   41.7010 C   0  0  0  0  0  0  0  0  0  0  0  0
   37.3100   24.0360   41.8910 N   0  0  0  0  0  0  0  0  0  0  0  0
   37.4930   23.2210   40.8230 C   0  0  0  0  0  0  0  0  0  0  0  0
   37.4210   23.7630   39.5650 C   0  0  0  0  0  0  0  0  0  0  0  0
   37.1610   25.1380   39.3740 C   0  0  0  0  0  0  0  0  0  0  0  0
   36.9800   25.9340   40.4710 C   0  0  0  0  0  0  0  0  0  0  0  0
   36.7200   27.3030   40.3190 C   0  0  0  0  0  0  0  0  0  0  0  0
   36.4770   28.1520   43.5500 H   0  0  0  0  0  0  0  0  0  0  0  0
   36.9320   25.7520   43.8300 H   0  0  0  0  0  0  0  0  0  0  0  0
   37.6920   22.1720   40.9880 H   0  0  0  0  0  0  0  0  0  0  0  0
   37.5640   23.1270   38.7020 H   0  0  0  0  0  0  0  0  0  0  0  0
   37.1070   25.5500   38.3720 H   0  0  0  0  0  0  0  0  0  0  0  0
   36.6760   27.6640   39.2980 H   0  0  0  0  0  0  0  0  0  0  0  0
  1  7  1  0  0  0  0
  2 25  1  0  0  0  0
  2  1  2  0  0  0  0
  3  2  1  0  0  0  0
  4  3  2  0  0  0  0
  4  5  1  0  0  0  0
  5  6  2  0  0  0  0
  6  1  1  0  0  0  0
  8  3  1  0  0  0  0
  9  5  1  0  0  0  0
  9 13  2  0  0  0  0
 10 11  2  0  0  0  0
 10  9  1  0  0  0  0
 11 12  1  0  0  0  0
 12 13  1  0  0  0  0
 12 18  1  0  0  0  0
 14 10  1  0  0  0  0
 15 11  1  0  0  0  0
 17 24  1  0  0  0  0
 17 16  1  0  0  0  0
 18 17  2  0  0  0  0
 19 21  2  0  0  0  0
 19 18  1  0  0  0  0
 20 19  1  0  0  0  0
 21 23  1  0  0  0  0
 22 21  1  0  0  0  0
 23 24  2  0  0  0  0
 25 26  1  0  0  0  0
 26 27  1  0  0  0  0
 27 28  2  0  0  0  0
 27 36  1  0  0  0  0
 28 37  1  0  0  0  0
 29 30  1  0  0  0  0
 29 28  1  0  0  0  0
 31 38  1  0  0  0  0
 31 30  2  0  0  0  0
 32 31  1  0  0  0  0
 33 32  2  0  0  0  0
 33 34  1  0  0  0  0
 34 29  2  0  0  0  0
 35 34  1  0  0  0  0
 35 26  2  0  0  0  0
 39 32  1  0  0  0  0
 40 33  1  0  0  0  0
 41 35  1  0  0  0  0
M  END
>  <minimizedAffinity>
-7.24378252

$$$$

 OpenBabel03242514003D

 41 45  0  0  0  0  0  0  0  0999 V2000
   36.9430   31.6290   40.3380 C   0  0  0  0  0  0  0  0  0  0  0  0
   37.0120   30.8360   39.2090 C   0  0  0  0  0  0  0  0  0  0  0  0
   38.1190   31.0190   38.3410 C   0  0  0  0  0  0  0  0  0  0  0  0
   39.0410   31.9510   38.6580 N   0  0  0  0  0  0  0  0  0  0  0  0
   38.9370   32.7090   39.7750 C   0  0  0  0  0  0  0  0  0  0  0  0
   37.8750   32.5320   40.6070 N   0  0  0  0  0  0  0  0  0  0  0  0
   36.0770   31.4420   40.9590 H   0  0  0  0  0  0  0  0  0  0  0  0
   38.2880   30.4680   37.4360 H   0  0  0  0  0  0  0  0  0  0  0  0
   39.9050   33.7320   40.1660 C   0  0  0  0  0  0  0  0  0  0  0  0
   39.5730   35.0950   40.1290 C   0  0  0  0  0  0  0  0  0  0  0  0
   40.6990   35.7880   40.5570 C   0  0  0  0  0  0  0  0  0  0  0  0
   41.6450   34.8680   40.8310 N   0  0  0  0  0  0  0  0  0  0  0  0
   41.1520   33.6550   40.5910 N   0  0  0  0  0  0  0  0  0  0  0  0
   38.6830   35.6220   39.8530 H   0  0  0  0  0  0  0  0  0  0  0  0
   40.8480   36.8530   40.6690 H   0  0  0  0  0  0  0  0  0  0  0  0
   42.2040   36.4110   43.0630 F   0  0  0  0  0  0  0  0  0  0  0  0
   43.2170   35.7890   42.4150 C   0  0  0  0  0  0  0  0  0  0  0  0
   42.9840   35.0120   41.3000 C   0  0  0  0  0  0  0  0  0  0  0  0
   44.0590   34.3890   40.6610 C   0  0  0  0  0  0  0  0  0  0  0  0
   43.8360   33.7810   39.7790 H   0  0  0  0  0  0  0  0  0  0  0  0
   45.3520   34.5430   41.1340 C   0  0  0  0  0  0  0  0  0  0  0  0
   46.1690   34.0460   40.6160 H   0  0  0  0  0  0  0  0  0  0  0  0
   45.5780   35.3330   42.2660 C   0  0  0  0  0  3  0  0  0  0  0  0
   44.5110   35.9620   42.9150 C   0  0  0  0  0  3  0  0  0  0  0  0
   36.0930   29.8690   38.8430 O   0  0  0  0  0  0  0  0  0  0  0  0
   36.2580   28.5090   39.0390 C   0  0  0  0  0  0  0  0  0  0  0  0
   36.1390   27.5220   38.0980 C   0  0  0  0  0  0  0  0  0  0  0  0
   36.3340   26.2020   38.4440 C   0  0  0  0  0  0  0  0  0  0  0  0
   36.6540   25.8230   39.7450 C   0  0  0  0  0  0  0  0  0  0  0  0
   36.8290   24.5230   40.0090 N   0  0  0  0  0  0  0  0  0  0  0  0
   37.1420   24.1260   41.2670 C   0  0  0  0  0  0  0  0  0  0  0  0
   37.2710   25.0810   42.2430 C   0  0  0  0  0  0  0  0  0  0  0  0
   37.0850   26.4510   41.9550 C   0  0  0  0  0  0  0  0  0  0  0  0
   36.7700   26.8200   40.6760 C   0  0  0  0  0  0  0  0  0  0  0  0
   36.5790   28.1710   40.3550 C   0  0  0  0  0  0  0  0  0  0  0  0
   35.8890   27.8400   37.0930 H   0  0  0  0  0  0  0  0  0  0  0  0
   36.2230   25.4680   37.6450 H   0  0  0  0  0  0  0  0  0  0  0  0
   37.2800   23.0740   41.4700 H   0  0  0  0  0  0  0  0  0  0  0  0
   37.5210   24.7820   43.2520 H   0  0  0  0  0  0  0  0  0  0  0  0
   37.1910   27.1940   42.7390 H   0  0  0  0  0  0  0  0  0  0  0  0
   36.6960   28.8720   41.1730 H   0  0  0  0  0  0  0  0  0  0  0  0
  1  6  1  0  0  0  0
  1  7  1  0  0  0  0
  2  1  2  0  0  0  0
  3  4  2  0  0  0  0
  3  2  1  0  0  0  0
  4  5  1  0  0  0  0
  5  9  1  0  0  0  0
  5  6  2  0  0  0  0
  8  3  1  0  0  0  0
  9 13  2  0  0  0  0
 10  9  1  0  0  0  0
 10 11  2  0  0  0  0
 11 15  1  0  0  0  0
 11 12  1  0  0  0  0
 12 18  1  0  0  0  0
 13 12  1  0  0  0  0
 14 10  1  0  0  0  0
 17 24  1  0  0  0  0
 17 16  1  0  0  0  0
 18 17  2  0  0  0  0
 19 21  2  0  0  0  0
 19 18  1  0  0  0  0
 20 19  1  0  0  0  0
 21 23  1  0  0  0  0
 22 21  1  0  0  0  0
 23 24  2  0  0  0  0
 25 26  1  0  0  0  0
 25  2  1  0  0  0  0
 26 35  1  0  0  0  0
 27 28  1  0  0  0  0
 27 26  2  0  0  0  0
 28 29  2  0  0  0  0
 29 30  1  0  0  0  0
 29 34  1  0  0  0  0
 30 31  2  0  0  0  0
 31 38  1  0  0  0  0
 31 32  1  0  0  0  0
 32 39  1  0  0  0  0
 33 32  2  0  0  0  0
 33 40  1  0  0  0  0
 34 33  1  0  0  0  0
 35 34  2  0  0  0  0
 35 41  1  0  0  0  0
 36 27  1  0  0  0  0
 37 28  1  0  0  0  0
M  END
>  <minimizedAffinity>
-7.20824242

$$$$

 OpenBabel03242514003D

 41 45  0  0  0  0  0  0  0  0999 V2000
   40.2090   32.2840   39.2750 C   0  0  0  0  0  0  0  0  0  0  0  0
   39.9750   33.5000   39.8880 C   0  0  0  0  0  0  0  0  0  0  0  0
   38.8210   33.6150   40.7060 C   0  0  0  0  0  0  0  0  0  0  0  0
   38.0170   32.5410   40.8430 N   0  0  0  0  0  0  0  0  0  0  0  0
   38.2810   31.3660   40.2240 C   0  0  0  0  0  0  0  0  0  0  0  0
   39.3890   31.2560   39.4410 N   0  0  0  0  0  0  0  0  0  0  0  0
   41.1030   32.2590   38.6660 H   0  0  0  0  0  0  0  0  0  0  0  0
   38.5290   34.5010   41.2350 H   0  0  0  0  0  0  0  0  0  0  0  0
   37.4450   30.1720   40.3370 C   0  0  0  0  0  0  0  0  0  0  0  0
   36.0460   30.2600   40.2770 C   0  0  0  0  0  0  0  0  0  0  0  0
   35.5630   28.9650   40.4130 C   0  0  0  0  0  0  0  0  0  0  0  0
   36.6340   28.1580   40.5470 N   0  0  0  0  0  0  0  0  0  0  0  0
   37.7400   28.8960   40.4990 N   0  0  0  0  0  0  0  0  0  0  0  0
   35.3710   31.0820   40.1550 H   0  0  0  0  0  0  0  0  0  0  0  0
   34.5410   28.6110   40.4190 H   0  0  0  0  0  0  0  0  0  0  0  0
   37.0310   27.0610   43.0600 F   0  0  0  0  0  0  0  0  0  0  0  0
   36.9250   26.2430   41.9860 C   0  0  0  0  0  0  0  0  0  0  0  0
   36.7270   26.7460   40.7190 C   0  0  0  0  0  0  0  0  0  0  0  0
   36.6240   25.8640   39.6390 C   0  0  0  0  0  0  0  0  0  0  0  0
   36.4680   26.3000   38.6480 H   0  0  0  0  0  0  0  0  0  0  0  0
   36.7190   24.4960   39.8280 C   0  0  0  0  0  0  0  0  0  0  0  0
   36.6350   23.8340   38.9690 H   0  0  0  0  0  0  0  0  0  0  0  0
   36.9190   23.9950   41.1190 C   0  0  0  0  0  3  0  0  0  0  0  0
   37.0250   24.8660   42.2080 C   0  0  0  0  0  3  0  0  0  0  0  0
   40.7700   34.6260   39.7780 O   0  0  0  0  0  0  0  0  0  0  0  0
   41.6830   35.0450   40.7310 C   0  0  0  0  0  0  0  0  0  0  0  0
   41.5590   36.1150   41.5740 C   0  0  0  0  0  0  0  0  0  0  0  0
   42.5580   36.4110   42.4770 C   0  0  0  0  0  0  0  0  0  0  0  0
   43.7170   35.6440   42.5670 C   0  0  0  0  0  0  0  0  0  0  0  0
   44.6450   35.9890   43.4670 N   0  0  0  0  0  0  0  0  0  0  0  0
   45.7830   35.2590   43.5760 C   0  0  0  0  0  0  0  0  0  0  0  0
   45.9490   34.1770   42.7510 C   0  0  0  0  0  0  0  0  0  0  0  0
   44.9640   33.8200   41.8040 C   0  0  0  0  0  0  0  0  0  0  0  0
   43.8270   34.5750   41.7180 C   0  0  0  0  0  0  0  0  0  0  0  0
   42.8290   34.2500   40.7900 C   0  0  0  0  0  0  0  0  0  0  0  0
   40.6500   36.6980   41.4860 H   0  0  0  0  0  0  0  0  0  0  0  0
   42.3950   37.2780   43.1180 H   0  0  0  0  0  0  0  0  0  0  0  0
   46.5260   35.5470   44.3060 H   0  0  0  0  0  0  0  0  0  0  0  0
   46.8510   33.5840   42.8250 H   0  0  0  0  0  0  0  0  0  0  0  0
   45.1120   32.9600   41.1590 H   0  0  0  0  0  0  0  0  0  0  0  0
   43.0250   33.3830   40.1700 H   0  0  0  0  0  0  0  0  0  0  0  0
  1  6  2  0  0  0  0
  1  2  1  0  0  0  0
  2  3  2  0  0  0  0
  3  4  1  0  0  0  0
  3  8  1  0  0  0  0
  5  9  1  0  0  0  0
  5  4  2  0  0  0  0
  6  5  1  0  0  0  0
  7  1  1  0  0  0  0
  9 13  2  0  0  0  0
 10  9  1  0  0  0  0
 10 11  2  0  0  0  0
 11 15  1  0  0  0  0
 11 12  1  0  0  0  0
 12 18  1  0  0  0  0
 13 12  1  0  0  0  0
 14 10  1  0  0  0  0
 17 24  1  0  0  0  0
 17 16  1  0  0  0  0
 18 17  2  0  0  0  0
 19 21  2  0  0  0  0
 19 18  1  0  0  0  0
 20 19  1  0  0  0  0
 21 23  1  0  0  0  0
 22 21  1  0  0  0  0
 23 24  2  0  0  0  0
 25  2  1  0  0  0  0
 25 26  1  0  0  0  0
 26 35  2  0  0  0  0
 26 27  1  0  0  0  0
 27 28  2  0  0  0  0
 28 29  1  0  0  0  0
 28 37  1  0  0  0  0
 29 30  1  0  0  0  0
 30 31  2  0  0  0  0
 31 38  1  0  0  0  0
 32 39  1  0  0  0  0
 32 31  1  0  0  0  0
 33 32  2  0  0  0  0
 34 33  1  0  0  0  0
 34 29  2  0  0  0  0
 35 34  1  0  0  0  0
 36 27  1  0  0  0  0
 40 33  1  0  0  0  0
 41 35  1  0  0  0  0
M  END
>  <minimizedAffinity>
-7.12124062

$$$$

 OpenBabel03242514003D

 41 45  0  0  0  0  0  0  0  0999 V2000
   38.5250   30.3570   41.7120 C   0  0  0  0  0  0  0  0  0  0  0  0
   37.2570   30.4170   41.1660 C   0  0  0  0  0  0  0  0  0  0  0  0
   36.9140   31.5750   40.4210 C   0  0  0  0  0  0  0  0  0  0  0  0
   37.8340   32.5520   40.2850 N   0  0  0  0  0  0  0  0  0  0  0  0
   39.0670   32.4550   40.8360 C   0  0  0  0  0  0  0  0  0  0  0  0
   39.3950   31.3440   41.5500 N   0  0  0  0  0  0  0  0  0  0  0  0
   38.7260   29.4510   42.2670 H   0  0  0  0  0  0  0  0  0  0  0  0
   35.9660   31.7430   39.9480 H   0  0  0  0  0  0  0  0  0  0  0  0
   40.1010   33.4820   40.7210 C   0  0  0  0  0  0  0  0  0  0  0  0
   39.9400   34.5790   39.8610 C   0  0  0  0  0  0  0  0  0  0  0  0
   41.0870   35.3520   39.9880 C   0  0  0  0  0  0  0  0  0  0  0  0
   41.8810   34.7330   40.8830 N   0  0  0  0  0  0  0  0  0  0  0  0
   41.2760   33.6240   41.3050 N   0  0  0  0  0  0  0  0  0  0  0  0
   39.1540   34.8760   39.1970 H   0  0  0  0  0  0  0  0  0  0  0  0
   41.3480   36.2770   39.4940 H   0  0  0  0  0  0  0  0  0  0  0  0
   44.1800   33.7020   39.7300 F   0  0  0  0  0  0  0  0  0  0  0  0
   44.2850   34.5420   40.7860 C   0  0  0  0  0  0  0  0  0  0  0  0
   43.1680   35.0780   41.3910 C   0  0  0  0  0  0  0  0  0  0  0  0
   43.3240   35.9400   42.4790 C   0  0  0  0  0  0  0  0  0  0  0  0
   42.4140   36.3450   42.9340 H   0  0  0  0  0  0  0  0  0  0  0  0
   44.5830   36.2610   42.9560 C   0  0  0  0  0  0  0  0  0  0  0  0
   44.6730   36.9350   43.8050 H   0  0  0  0  0  0  0  0  0  0  0  0
   45.7110   35.7130   42.3360 C   0  0  0  0  0  3  0  0  0  0  0  0
   45.5700   34.8490   41.2460 C   0  0  0  0  0  3  0  0  0  0  0  0
   36.2820   29.4430   41.2780 O   0  0  0  0  0  0  0  0  0  0  0  0
   36.5310   28.0930   41.4520 C   0  0  0  0  0  0  0  0  0  0  0  0
   36.7250   27.4380   42.6380 C   0  0  0  0  0  0  0  0  0  0  0  0
   36.9650   26.0800   42.6540 C   0  0  0  0  0  0  0  0  0  0  0  0
   37.0180   25.3300   41.4830 C   0  0  0  0  0  0  0  0  0  0  0  0
   37.2550   24.0160   41.5740 N   0  0  0  0  0  0  0  0  0  0  0  0
   37.3120   23.2620   40.4490 C   0  0  0  0  0  0  0  0  0  0  0  0
   37.1230   23.8750   39.2370 C   0  0  0  0  0  0  0  0  0  0  0  0
   36.8730   25.2630   39.1510 C   0  0  0  0  0  0  0  0  0  0  0  0
   36.8220   25.9980   40.3030 C   0  0  0  0  0  0  0  0  0  0  0  0
   36.5760   27.3760   40.2550 C   0  0  0  0  0  0  0  0  0  0  0  0
   36.6800   28.0420   43.5370 H   0  0  0  0  0  0  0  0  0  0  0  0
   37.1110   25.6230   43.6340 H   0  0  0  0  0  0  0  0  0  0  0  0
   37.5040   22.2010   40.5330 H   0  0  0  0  0  0  0  0  0  0  0  0
   37.1650   23.2880   38.3300 H   0  0  0  0  0  0  0  0  0  0  0  0
   36.7260   25.7330   38.1840 H   0  0  0  0  0  0  0  0  0  0  0  0
   36.4360   27.7960   39.2660 H   0  0  0  0  0  0  0  0  0  0  0  0
  1  7  1  0  0  0  0
  2 25  1  0  0  0  0
  2  1  2  0  0  0  0
  3  2  1  0  0  0  0
  4  3  2  0  0  0  0
  4  5  1  0  0  0  0
  5  6  2  0  0  0  0
  6  1  1  0  0  0  0
  8  3  1  0  0  0  0
  9  5  1  0  0  0  0
  9 13  2  0  0  0  0
 10 11  2  0  0  0  0
 10  9  1  0  0  0  0
 11 12  1  0  0  0  0
 12 13  1  0  0  0  0
 12 18  1  0  0  0  0
 14 10  1  0  0  0  0
 15 11  1  0  0  0  0
 16 17  1  0  0  0  0
 17 24  2  0  0  0  0
 17 18  1  0  0  0  0
 18 19  2  0  0  0  0
 19 20  1  0  0  0  0
 19 21  1  0  0  0  0
 21 22  1  0  0  0  0
 23 21  2  0  0  0  0
 24 23  1  0  0  0  0
 25 26  1  0  0  0  0
 26 27  1  0  0  0  0
 27 28  2  0  0  0  0
 27 36  1  0  0  0  0
 28 37  1  0  0  0  0
 29 30  1  0  0  0  0
 29 28  1  0  0  0  0
 31 38  1  0  0  0  0
 31 30  2  0  0  0  0
 32 31  1  0  0  0  0
 33 32  2  0  0  0  0
 33 34  1  0  0  0  0
 34 29  2  0  0  0  0
 35 34  1  0  0  0  0
 35 26  2  0  0  0  0
 39 32  1  0  0  0  0
 40 33  1  0  0  0  0
 41 35  1  0  0  0  0
M  END
>  <minimizedAffinity>
-7.03763008

$$$$

 OpenBabel03242514003D

 41 45  0  0  0  0  0  0  0  0999 V2000
   38.0050   27.1910   40.3780 C   0  0  0  0  0  0  0  0  0  0  0  0
   37.5570   26.8200   41.6310 C   0  0  0  0  0  0  0  0  0  0  0  0
   37.1590   27.8510   42.5210 C   0  0  0  0  0  0  0  0  0  0  0  0
   37.2370   29.1300   42.1030 N   0  0  0  0  0  0  0  0  0  0  0  0
   37.6830   29.4530   40.8660 C   0  0  0  0  0  0  0  0  0  0  0  0
   38.0640   28.4640   40.0130 N   0  0  0  0  0  0  0  0  0  0  0  0
   38.2940   26.3610   39.7460 H   0  0  0  0  0  0  0  0  0  0  0  0
   36.7930   27.6950   43.5180 H   0  0  0  0  0  0  0  0  0  0  0  0
   37.7890   30.8210   40.3620 C   0  0  0  0  0  0  0  0  0  0  0  0
   36.7670   31.3880   39.5850 C   0  0  0  0  0  0  0  0  0  0  0  0
   37.1770   32.6780   39.2740 C   0  0  0  0  0  0  0  0  0  0  0  0
   38.3840   32.8560   39.8460 N   0  0  0  0  0  0  0  0  0  0  0  0
   38.7280   31.7400   40.4860 N   0  0  0  0  0  0  0  0  0  0  0  0
   35.8260   31.0170   39.2350 H   0  0  0  0  0  0  0  0  0  0  0  0
   36.6710   33.4370   38.6930 H   0  0  0  0  0  0  0  0  0  0  0  0
   40.9400   32.6620   38.7940 F   0  0  0  0  0  0  0  0  0  0  0  0
   40.5250   33.8390   39.3190 C   0  0  0  0  0  0  0  0  0  0  0  0
   39.2620   33.9790   39.8530 C   0  0  0  0  0  0  0  0  0  0  0  0
   38.8750   35.2130   40.3840 C   0  0  0  0  0  0  0  0  0  0  0  0
   37.8650   35.2870   40.8000 H   0  0  0  0  0  0  0  0  0  0  0  0
   39.7430   36.2910   40.3810 C   0  0  0  0  0  0  0  0  0  0  0  0
   39.4150   37.2380   40.8020 H   0  0  0  0  0  0  0  0  0  0  0  0
   41.0230   36.1380   39.8370 C   0  0  0  0  0  3  0  0  0  0  0  0
   41.4240   34.9100   39.3020 C   0  0  0  0  0  3  0  0  0  0  0  0
   37.4590   25.5240   42.1030 O   0  0  0  0  0  0  0  0  0  0  0  0
   37.4370   24.3920   41.3060 C   0  0  0  0  0  0  0  0  0  0  0  0
   38.4710   23.5260   41.0770 C   0  0  0  0  0  0  0  0  0  0  0  0
   38.2980   22.4340   40.2530 C   0  0  0  0  0  0  0  0  0  0  0  0
   37.0810   22.1720   39.6290 C   0  0  0  0  0  0  0  0  0  0  0  0
   36.9850   21.0930   38.8420 N   0  0  0  0  0  0  0  0  0  0  0  0
   35.8120   20.8140   38.2220 C   0  0  0  0  0  0  0  0  0  0  0  0
   34.7480   21.6550   38.4220 C   0  0  0  0  0  0  0  0  0  0  0  0
   34.8580   22.7900   39.2550 C   0  0  0  0  0  0  0  0  0  0  0  0
   36.0550   23.0460   39.8660 C   0  0  0  0  0  0  0  0  0  0  0  0
   36.2000   24.1640   40.6990 C   0  0  0  0  0  0  0  0  0  0  0  0
   39.4080   23.7500   41.5730 H   0  0  0  0  0  0  0  0  0  0  0  0
   39.1640   21.7860   40.1150 H   0  0  0  0  0  0  0  0  0  0  0  0
   35.7450   19.9410   37.5880 H   0  0  0  0  0  0  0  0  0  0  0  0
   33.8040   21.4460   37.9350 H   0  0  0  0  0  0  0  0  0  0  0  0
   34.0060   23.4450   39.4020 H   0  0  0  0  0  0  0  0  0  0  0  0
   35.3200   24.7850   40.8130 H   0  0  0  0  0  0  0  0  0  0  0  0
  1  2  1  0  0  0  0
  2 25  1  0  0  0  0
  2  3  2  0  0  0  0
  3  8  1  0  0  0  0
  4  3  1  0  0  0  0
  5  4  2  0  0  0  0
  6  1  2  0  0  0  0
  6  5  1  0  0  0  0
  7  1  1  0  0  0  0
  9 13  2  0  0  0  0
  9  5  1  0  0  0  0
 10  9  1  0  0  0  0
 11 10  2  0  0  0  0
 11 12  1  0  0  0  0
 12 18  1  0  0  0  0
 12 13  1  0  0  0  0
 14 10  1  0  0  0  0
 15 11  1  0  0  0  0
 16 17  1  0  0  0  0
 17 18  1  0  0  0  0
 18 19  2  0  0  0  0
 19 20  1  0  0  0  0
 21 19  1  0  0  0  0
 21 22  1  0  0  0  0
 23 21  2  0  0  0  0
 24 17  2  0  0  0  0
 24 23  1  0  0  0  0
 26 25  1  0  0  0  0
 27 26  1  0  0  0  0
 27 36  1  0  0  0  0
 28 27  2  0  0  0  0
 29 34  1  0  0  0  0
 29 28  1  0  0  0  0
 30 29  2  0  0  0  0
 31 32  2  0  0  0  0
 31 30  1  0  0  0  0
 32 33  1  0  0  0  0
 33 40  1  0  0  0  0
 33 34  2  0  0  0  0
 34 35  1  0  0  0  0
 35 41  1  0  0  0  0
 35 26  2  0  0  0  0
 37 28  1  0  0  0  0
 38 31  1  0  0  0  0
 39 32  1  0  0  0  0
M  END
>  <minimizedAffinity>
-6.68404865

$$$$

 OpenBabel03242514003D

 41 45  0  0  0  0  0  0  0  0999 V2000
   36.3990   30.1340   39.8440 C   0  0  0  0  0  0  0  0  0  0  0  0
   37.1690   30.9700   40.6300 C   0  0  0  0  0  0  0  0  0  0  0  0
   37.9320   30.3800   41.6710 C   0  0  0  0  0  0  0  0  0  0  0  0
   37.8680   29.0430   41.8400 N   0  0  0  0  0  0  0  0  0  0  0  0
   37.1000   28.2580   41.0480 C   0  0  0  0  0  0  0  0  0  0  0  0
   36.3700   28.8240   40.0500 N   0  0  0  0  0  0  0  0  0  0  0  0
   35.8410   30.6420   39.0690 H   0  0  0  0  0  0  0  0  0  0  0  0
   38.5680   30.9170   42.3470 H   0  0  0  0  0  0  0  0  0  0  0  0
   36.9930   26.8060   41.1870 C   0  0  0  0  0  0  0  0  0  0  0  0
   37.1900   26.1810   42.4280 C   0  0  0  0  0  0  0  0  0  0  0  0
   37.0190   24.8190   42.2160 C   0  0  0  0  0  0  0  0  0  0  0  0
   36.7350   24.6580   40.9080 N   0  0  0  0  0  0  0  0  0  0  0  0
   36.7260   25.8510   40.3170 N   0  0  0  0  0  0  0  0  0  0  0  0
   37.4240   26.5540   43.4040 H   0  0  0  0  0  0  0  0  0  0  0  0
   37.0870   24.0010   42.9200 H   0  0  0  0  0  0  0  0  0  0  0  0
   38.7140   22.7650   40.4890 F   0  0  0  0  0  0  0  0  0  0  0  0
   37.4830   22.5680   39.9610 C   0  0  0  0  0  0  0  0  0  0  0  0
   36.4690   23.4840   40.1450 C   0  0  0  0  0  0  0  0  0  0  0  0
   35.2140   23.2400   39.5820 C   0  0  0  0  0  0  0  0  0  0  0  0
   34.4340   23.9890   39.7480 H   0  0  0  0  0  0  0  0  0  0  0  0
   34.9770   22.0930   38.8430 C   0  0  0  0  0  0  0  0  0  0  0  0
   33.9900   21.9300   38.4170 H   0  0  0  0  0  0  0  0  0  0  0  0
   36.0120   21.1690   38.6620 C   0  0  0  0  0  3  0  0  0  0  0  0
   37.2740   21.4000   39.2200 C   0  0  0  0  0  3  0  0  0  0  0  0
   37.2660   32.3430   40.4940 O   0  0  0  0  0  0  0  0  0  0  0  0
   38.4210   33.0220   40.1450 C   0  0  0  0  0  0  0  0  0  0  0  0
   38.9010   34.1720   40.7090 C   0  0  0  0  0  0  0  0  0  0  0  0
   40.0740   34.7360   40.2530 C   0  0  0  0  0  0  0  0  0  0  0  0
   40.8060   34.1670   39.2150 C   0  0  0  0  0  0  0  0  0  0  0  0
   41.9350   34.7690   38.8220 N   0  0  0  0  0  0  0  0  0  0  0  0
   42.6680   34.2360   37.8140 C   0  0  0  0  0  0  0  0  0  0  0  0
   42.2250   33.0840   37.2190 C   0  0  0  0  0  0  0  0  0  0  0  0
   41.0320   32.4550   37.6390 C   0  0  0  0  0  0  0  0  0  0  0  0
   40.3140   33.0160   38.6590 C   0  0  0  0  0  0  0  0  0  0  0  0
   39.1260   32.4200   39.1020 C   0  0  0  0  0  0  0  0  0  0  0  0
   38.3150   34.5970   41.5150 H   0  0  0  0  0  0  0  0  0  0  0  0
   40.3980   35.6520   40.7470 H   0  0  0  0  0  0  0  0  0  0  0  0
   43.5790   34.7310   37.5050 H   0  0  0  0  0  0  0  0  0  0  0  0
   42.7980   32.6460   36.4120 H   0  0  0  0  0  0  0  0  0  0  0  0
   40.6950   31.5430   37.1570 H   0  0  0  0  0  0  0  0  0  0  0  0
   38.8340   31.5110   38.5880 H   0  0  0  0  0  0  0  0  0  0  0  0
  1  6  2  0  0  0  0
  1  2  1  0  0  0  0
  2  3  2  0  0  0  0
  3  4  1  0  0  0  0
  3  8  1  0  0  0  0
  5  9  1  0  0  0  0
  5  4  2  0  0  0  0
  6  5  1  0  0  0  0
  7  1  1  0  0  0  0
  9 10  1  0  0  0  0
 10 14  1  0  0  0  0
 11 10  2  0  0  0  0
 11 15  1  0  0  0  0
 12 11  1  0  0  0  0
 13 12  1  0  0  0  0
 13  9  2  0  0  0  0
 17 18  1  0  0  0  0
 17 16  1  0  0  0  0
 18 12  1  0  0  0  0
 19 20  1  0  0  0  0
 19 18  2  0  0  0  0
 21 19  1  0  0  0  0
 22 21  1  0  0  0  0
 23 21  2  0  0  0  0
 23 24  1  0  0  0  0
 24 17  2  0  0  0  0
 25  2  1  0  0  0  0
 26 25  1  0  0  0  0
 26 27  1  0  0  0  0
 27 36  1  0  0  0  0
 28 27  2  0  0  0  0
 28 37  1  0  0  0  0
 29 28  1  0  0  0  0
 30 29  1  0  0  0  0
 31 30  2  0  0  0  0
 32 33  2  0  0  0  0
 32 31  1  0  0  0  0
 33 34  1  0  0  0  0
 34 35  1  0  0  0  0
 34 29  2  0  0  0  0
 35 26  2  0  0  0  0
 38 31  1  0  0  0  0
 39 32  1  0  0  0  0
 40 33  1  0  0  0  0
 41 35  1  0  0  0  0
M  END
>  <minimizedAffinity>
-6.58030176

$$$$

 OpenBabel03242514003D

 41 45  0  0  0  0  0  0  0  0999 V2000
   37.4280   31.2620   38.3370 C   0  0  0  0  0  0  0  0  0  0  0  0
   36.5750   30.7220   39.2800 C   0  0  0  0  0  0  0  0  0  0  0  0
   36.6970   31.1780   40.6180 C   0  0  0  0  0  0  0  0  0  0  0  0
   37.6310   32.1090   40.9000 N   0  0  0  0  0  0  0  0  0  0  0  0
   38.4500   32.6130   39.9470 C   0  0  0  0  0  0  0  0  0  0  0  0
   38.3320   32.1750   38.6640 N   0  0  0  0  0  0  0  0  0  0  0  0
   37.2860   30.8740   37.3370 H   0  0  0  0  0  0  0  0  0  0  0  0
   36.0960   30.8400   41.4400 H   0  0  0  0  0  0  0  0  0  0  0  0
   39.4800   33.6200   40.1960 C   0  0  0  0  0  0  0  0  0  0  0  0
   39.2060   34.9880   40.0430 C   0  0  0  0  0  0  0  0  0  0  0  0
   40.3800   35.6630   40.3530 C   0  0  0  0  0  0  0  0  0  0  0  0
   41.2970   34.7280   40.6730 N   0  0  0  0  0  0  0  0  0  0  0  0
   40.7400   33.5230   40.5730 N   0  0  0  0  0  0  0  0  0  0  0  0
   38.3280   35.5290   39.7550 H   0  0  0  0  0  0  0  0  0  0  0  0
   40.5810   36.7250   40.3550 H   0  0  0  0  0  0  0  0  0  0  0  0
   42.0220   36.4110   42.7510 F   0  0  0  0  0  0  0  0  0  0  0  0
   42.9780   35.7000   42.1080 C   0  0  0  0  0  0  0  0  0  0  0  0
   42.6620   34.8510   41.0690 C   0  0  0  0  0  0  0  0  0  0  0  0
   43.6800   34.1360   40.4330 C   0  0  0  0  0  0  0  0  0  0  0  0
   43.3910   33.4730   39.6110 H   0  0  0  0  0  0  0  0  0  0  0  0
   44.9990   34.2710   40.8320 C   0  0  0  0  0  0  0  0  0  0  0  0
   45.7700   33.7020   40.3180 H   0  0  0  0  0  0  0  0  0  0  0  0
   45.3090   35.1350   41.8880 C   0  0  0  0  0  3  0  0  0  0  0  0
   44.3000   35.8560   42.5340 C   0  0  0  0  0  3  0  0  0  0  0  0
   35.6020   29.7690   39.0390 O   0  0  0  0  0  0  0  0  0  0  0  0
   35.8240   28.4030   39.0140 C   0  0  0  0  0  0  0  0  0  0  0  0
   36.5140   27.6640   39.9380 C   0  0  0  0  0  0  0  0  0  0  0  0
   36.6530   26.3020   39.7780 C   0  0  0  0  0  0  0  0  0  0  0  0
   36.1050   25.6310   38.6890 C   0  0  0  0  0  0  0  0  0  0  0  0
   36.2790   24.3070   38.5980 N   0  0  0  0  0  0  0  0  0  0  0  0
   35.7560   23.6280   37.5470 C   0  0  0  0  0  0  0  0  0  0  0  0
   35.0570   24.3270   36.5980 C   0  0  0  0  0  0  0  0  0  0  0  0
   34.8780   25.7240   36.7010 C   0  0  0  0  0  0  0  0  0  0  0  0
   35.4170   26.3810   37.7730 C   0  0  0  0  0  0  0  0  0  0  0  0
   35.2590   27.7670   37.9080 C   0  0  0  0  0  0  0  0  0  0  0  0
   36.9310   28.2080   40.7770 H   0  0  0  0  0  0  0  0  0  0  0  0
   37.2150   25.7760   40.5510 H   0  0  0  0  0  0  0  0  0  0  0  0
   35.9030   22.5590   37.4840 H   0  0  0  0  0  0  0  0  0  0  0  0
   34.6330   23.8000   35.7530 H   0  0  0  0  0  0  0  0  0  0  0  0
   34.3220   26.2620   35.9410 H   0  0  0  0  0  0  0  0  0  0  0  0
   34.6950   28.2560   37.1220 H   0  0  0  0  0  0  0  0  0  0  0  0
  1  6  2  0  0  0  0
  1  2  1  0  0  0  0
  2  3  2  0  0  0  0
  3  4  1  0  0  0  0
  3  8  1  0  0  0  0
  5  9  1  0  0  0  0
  5  4  2  0  0  0  0
  6  5  1  0  0  0  0
  7  1  1  0  0  0  0
  9 13  2  0  0  0  0
 10  9  1  0  0  0  0
 10 11  2  0  0  0  0
 11 15  1  0  0  0  0
 11 12  1  0  0  0  0
 12 18  1  0  0  0  0
 13 12  1  0  0  0  0
 14 10  1  0  0  0  0
 17 24  1  0  0  0  0
 17 16  1  0  0  0  0
 18 17  2  0  0  0  0
 19 21  2  0  0  0  0
 19 18  1  0  0  0  0
 20 19  1  0  0  0  0
 21 23  1  0  0  0  0
 22 21  1  0  0  0  0
 23 24  2  0  0  0  0
 25  2  1  0  0  0  0
 26 25  1  0  0  0  0
 26 27  1  0  0  0  0
 27 36  1  0  0  0  0
 28 27  2  0  0  0  0
 28 37  1  0  0  0  0
 29 28  1  0  0  0  0
 30 29  1  0  0  0  0
 31 30  2  0  0  0  0
 32 33  2  0  0  0  0
 32 31  1  0  0  0  0
 33 34  1  0  0  0  0
 34 35  1  0  0  0  0
 34 29  2  0  0  0  0
 35 26  2  0  0  0  0
 38 31  1  0  0  0  0
 39 32  1  0  0  0  0
 40 33  1  0  0  0  0
 41 35  1  0  0  0  0
M  END
>  <minimizedAffinity>
-6.39923048

$$$$

 OpenBabel03242514003D

 41 45  0  0  0  0  0  0  0  0999 V2000
   38.7100   27.2290   40.3570 C   0  0  0  0  0  0  0  0  0  0  0  0
   37.8400   26.6960   41.2880 C   0  0  0  0  0  0  0  0  0  0  0  0
   36.9320   27.5810   41.9250 C   0  0  0  0  0  0  0  0  0  0  0  0
   36.9630   28.8880   41.5920 N   0  0  0  0  0  0  0  0  0  0  0  0
   37.8320   29.3720   40.6740 C   0  0  0  0  0  0  0  0  0  0  0  0
   38.7020   28.5220   40.0630 N   0  0  0  0  0  0  0  0  0  0  0  0
   39.3760   26.5050   39.9070 H   0  0  0  0  0  0  0  0  0  0  0  0
   36.2080   27.2930   42.6620 H   0  0  0  0  0  0  0  0  0  0  0  0
   37.9100   30.7770   40.2760 C   0  0  0  0  0  0  0  0  0  0  0  0
   36.8570   31.3920   39.5830 C   0  0  0  0  0  0  0  0  0  0  0  0
   37.2450   32.7070   39.3610 C   0  0  0  0  0  0  0  0  0  0  0  0
   38.4710   32.8510   39.9020 N   0  0  0  0  0  0  0  0  0  0  0  0
   38.8460   31.6920   40.4390 N   0  0  0  0  0  0  0  0  0  0  0  0
   35.9060   31.0400   39.2380 H   0  0  0  0  0  0  0  0  0  0  0  0
   36.7140   33.5040   38.8600 H   0  0  0  0  0  0  0  0  0  0  0  0
   40.8320   32.9050   38.4530 F   0  0  0  0  0  0  0  0  0  0  0  0
   40.5040   33.9650   39.2290 C   0  0  0  0  0  0  0  0  0  0  0  0
   39.3400   33.9800   39.9670 C   0  0  0  0  0  0  0  0  0  0  0  0
   39.0420   35.0940   40.7560 C   0  0  0  0  0  0  0  0  0  0  0  0
   38.1100   35.0700   41.3280 H   0  0  0  0  0  0  0  0  0  0  0  0
   39.9000   36.1790   40.8050 C   0  0  0  0  0  0  0  0  0  0  0  0
   39.6420   37.0330   41.4280 H   0  0  0  0  0  0  0  0  0  0  0  0
   41.0790   36.1550   40.0530 C   0  0  0  0  0  3  0  0  0  0  0  0
   41.3900   35.0460   39.2590 C   0  0  0  0  0  3  0  0  0  0  0  0
   37.7700   25.3660   41.6610 O   0  0  0  0  0  0  0  0  0  0  0  0
   37.2980   24.3440   40.8560 C   0  0  0  0  0  0  0  0  0  0  0  0
   36.1680   24.3610   40.0820 C   0  0  0  0  0  0  0  0  0  0  0  0
   35.8230   23.2600   39.3280 C   0  0  0  0  0  0  0  0  0  0  0  0
   36.5980   22.1030   39.3210 C   0  0  0  0  0  0  0  0  0  0  0  0
   36.2020   21.0720   38.5650 N   0  0  0  0  0  0  0  0  0  0  0  0
   36.9380   19.9330   38.5390 C   0  0  0  0  0  0  0  0  0  0  0  0
   38.0780   19.8710   39.2980 C   0  0  0  0  0  0  0  0  0  0  0  0
   38.4880   20.9640   40.0930 C   0  0  0  0  0  0  0  0  0  0  0  0
   37.7250   22.1000   40.0990 C   0  0  0  0  0  0  0  0  0  0  0  0
   38.1020   23.2030   40.8750 C   0  0  0  0  0  0  0  0  0  0  0  0
   35.5810   25.2710   40.1040 H   0  0  0  0  0  0  0  0  0  0  0  0
   34.9110   23.3410   38.7360 H   0  0  0  0  0  0  0  0  0  0  0  0
   36.6090   19.1060   37.9250 H   0  0  0  0  0  0  0  0  0  0  0  0
   38.6760   18.9700   39.2890 H   0  0  0  0  0  0  0  0  0  0  0  0
   39.3930   20.8990   40.6880 H   0  0  0  0  0  0  0  0  0  0  0  0
   39.0130   23.0870   41.4500 H   0  0  0  0  0  0  0  0  0  0  0  0
  1  2  1  0  0  0  0
  2 25  1  0  0  0  0
  2  3  2  0  0  0  0
  3  8  1  0  0  0  0
  4  3  1  0  0  0  0
  5  4  2  0  0  0  0
  6  1  2  0  0  0  0
  6  5  1  0  0  0  0
  7  1  1  0  0  0  0
  9 13  2  0  0  0  0
  9  5  1  0  0  0  0
 10  9  1  0  0  0  0
 11 10  2  0  0  0  0
 11 12  1  0  0  0  0
 12 18  1  0  0  0  0
 12 13  1  0  0  0  0
 14 10  1  0  0  0  0
 15 11  1  0  0  0  0
 16 17  1  0  0  0  0
 17 24  2  0  0  0  0
 17 18  1  0  0  0  0
 18 19  2  0  0  0  0
 19 21  1  0  0  0  0
 19 20  1  0  0  0  0
 21 22  1  0  0  0  0
 23 21  2  0  0  0  0
 24 23  1  0  0  0  0
 26 35  1  0  0  0  0
 26 25  1  0  0  0  0
 27 36  1  0  0  0  0
 27 26  2  0  0  0  0
 28 27  1  0  0  0  0
 29 28  2  0  0  0  0
 29 34  1  0  0  0  0
 30 29  1  0  0  0  0
 31 30  2  0  0  0  0
 31 32  1  0  0  0  0
 32 33  2  0  0  0  0
 33 34  1  0  0  0  0
 33 40  1  0  0  0  0
 34 35  2  0  0  0  0
 35 41  1  0  0  0  0
 37 28  1  0  0  0  0
 38 31  1  0  0  0  0
 39 32  1  0  0  0  0
M  END
>  <minimizedAffinity>
-6.34882498

$$$$

 OpenBabel03242514003D

 41 45  0  0  0  0  0  0  0  0999 V2000
   36.9400   31.0280   38.9880 C   0  0  0  0  0  0  0  0  0  0  0  0
   36.5910   30.1940   40.0320 C   0  0  0  0  0  0  0  0  0  0  0  0
   37.2490   30.3820   41.2750 C   0  0  0  0  0  0  0  0  0  0  0  0
   38.1750   31.3570   41.3750 N   0  0  0  0  0  0  0  0  0  0  0  0
   38.4900   32.1550   40.3270 C   0  0  0  0  0  0  0  0  0  0  0  0
   37.8570   31.9740   39.1360 N   0  0  0  0  0  0  0  0  0  0  0  0
   36.4050   30.8360   38.0680 H   0  0  0  0  0  0  0  0  0  0  0  0
   37.0680   29.8030   42.1600 H   0  0  0  0  0  0  0  0  0  0  0  0
   39.4840   33.2250   40.3790 C   0  0  0  0  0  0  0  0  0  0  0  0
   39.1680   34.5270   39.9620 C   0  0  0  0  0  0  0  0  0  0  0  0
   40.3170   35.2880   40.1380 C   0  0  0  0  0  0  0  0  0  0  0  0
   41.2610   34.4640   40.6350 N   0  0  0  0  0  0  0  0  0  0  0  0
   40.7440   33.2450   40.7690 N   0  0  0  0  0  0  0  0  0  0  0  0
   38.2750   34.9730   39.5740 H   0  0  0  0  0  0  0  0  0  0  0  0
   40.4830   36.3370   39.9350 H   0  0  0  0  0  0  0  0  0  0  0  0
   43.3400   33.3270   39.2000 F   0  0  0  0  0  0  0  0  0  0  0  0
   43.6200   34.1210   40.2600 C   0  0  0  0  0  0  0  0  0  0  0  0
   42.6170   34.7070   41.0020 C   0  0  0  0  0  0  0  0  0  0  0  0
   42.9520   35.5190   42.0890 C   0  0  0  0  0  0  0  0  0  0  0  0
   42.1290   35.9660   42.6550 H   0  0  0  0  0  0  0  0  0  0  0  0
   44.2760   35.7410   42.4280 C   0  0  0  0  0  0  0  0  0  0  0  0
   44.5070   36.3770   43.2790 H   0  0  0  0  0  0  0  0  0  0  0  0
   45.2870   35.1420   41.6690 C   0  0  0  0  0  3  0  0  0  0  0  0
   44.9660   34.3270   40.5790 C   0  0  0  0  0  3  0  0  0  0  0  0
   35.6490   29.1820   39.9780 O   0  0  0  0  0  0  0  0  0  0  0  0
   35.8710   27.9250   39.4430 C   0  0  0  0  0  0  0  0  0  0  0  0
   35.5040   27.4820   38.2020 C   0  0  0  0  0  0  0  0  0  0  0  0
   35.7950   26.1950   37.8060 C   0  0  0  0  0  0  0  0  0  0  0  0
   36.4660   25.3040   38.6390 C   0  0  0  0  0  0  0  0  0  0  0  0
   36.7160   24.0690   38.1890 N   0  0  0  0  0  0  0  0  0  0  0  0
   37.3680   23.1810   38.9810 C   0  0  0  0  0  0  0  0  0  0  0  0
   37.7550   23.5810   40.2330 C   0  0  0  0  0  0  0  0  0  0  0  0
   37.4880   24.8870   40.7000 C   0  0  0  0  0  0  0  0  0  0  0  0
   36.8280   25.7600   39.8790 C   0  0  0  0  0  0  0  0  0  0  0  0
   36.5460   27.0630   40.3090 C   0  0  0  0  0  0  0  0  0  0  0  0
   34.9830   28.1920   37.5700 H   0  0  0  0  0  0  0  0  0  0  0  0
   35.4730   25.9080   36.8040 H   0  0  0  0  0  0  0  0  0  0  0  0
   37.5640   22.1860   38.6070 H   0  0  0  0  0  0  0  0  0  0  0  0
   38.2770   22.8860   40.8780 H   0  0  0  0  0  0  0  0  0  0  0  0
   37.8020   25.1880   41.6940 H   0  0  0  0  0  0  0  0  0  0  0  0
   36.8810   27.3130   41.3100 H   0  0  0  0  0  0  0  0  0  0  0  0
  1  6  2  0  0  0  0
  1  2  1  0  0  0  0
  2  3  2  0  0  0  0
  3  4  1  0  0  0  0
  3  8  1  0  0  0  0
  5  9  1  0  0  0  0
  5  4  2  0  0  0  0
  6  5  1  0  0  0  0
  7  1  1  0  0  0  0
  9 13  2  0  0  0  0
 10 11  2  0  0  0  0
 10  9  1  0  0  0  0
 11 12  1  0  0  0  0
 12 13  1  0  0  0  0
 12 18  1  0  0  0  0
 14 10  1  0  0  0  0
 15 11  1  0  0  0  0
 16 17  1  0  0  0  0
 17 24  2  0  0  0  0
 17 18  1  0  0  0  0
 18 19  2  0  0  0  0
 19 21  1  0  0  0  0
 19 20  1  0  0  0  0
 21 22  1  0  0  0  0
 23 21  2  0  0  0  0
 24 23  1  0  0  0  0
 25  2  1  0  0  0  0
 26 25  1  0  0  0  0
 26 35  1  0  0  0  0
 27 26  2  0  0  0  0
 28 27  1  0  0  0  0
 28 29  2  0  0  0  0
 29 34  1  0  0  0  0
 30 29  1  0  0  0  0
 30 31  2  0  0  0  0
 31 32  1  0  0  0  0
 32 33  2  0  0  0  0
 32 39  1  0  0  0  0
 33 40  1  0  0  0  0
 34 35  2  0  0  0  0
 34 33  1  0  0  0  0
 35 41  1  0  0  0  0
 36 27  1  0  0  0  0
 37 28  1  0  0  0  0
 38 31  1  0  0  0  0
M  END
>  <minimizedAffinity>
-6.16049528

$$$$
