
 OpenBabel03252508593D

 45 47  0  0  1  0  0  0  0  0999 V2000
   47.3270   33.8720   42.7470 N   0  0  0  0  0  0  0  0  0  0  0  0
   46.9620   35.2170   42.4970 C   0  0  0  0  0  0  0  0  0  0  0  0
   45.5320   35.5660   42.8660 C   0  0  0  0  0  0  0  0  0  0  0  0
   45.0230   34.8440   44.0920 C   0  0  0  0  0  0  0  0  0  0  0  0
   46.0790   33.9610   44.7060 C   0  0  0  0  0  0  0  0  0  0  0  0
   46.5270   33.0400   43.5140 C   0  0  2  0  0  0  0  0  0  0  0  0
   47.1430   35.5860   41.4890 H   0  0  0  0  0  0  0  0  0  0  0  0
   47.5980   35.8520   43.1640 H   0  0  0  0  0  0  0  0  0  0  0  0
   45.4140   36.6490   42.8950 H   0  0  0  0  0  0  0  0  0  0  0  0
   44.9190   35.1880   42.0040 H   0  0  0  0  0  0  0  0  0  0  0  0
   44.0870   34.3010   43.9260 H   0  0  0  0  0  0  0  0  0  0  0  0
   44.8050   35.6430   44.8420 H   0  0  0  0  0  0  0  0  0  0  0  0
   45.6040   33.3480   45.4730 H   0  0  0  0  0  0  0  0  0  0  0  0
   46.9420   34.5580   45.0250 H   0  0  0  0  0  0  0  0  0  0  0  0
   45.5840   32.6550   43.0770 H   0  0  0  0  0  0  0  0  0  0  0  0
   48.1520   33.2910   41.7300 C   0  0  0  0  0  0  0  0  0  0  0  0
   48.7650   34.1170   41.3020 H   0  0  0  0  0  0  0  0  0  0  0  0
   48.8340   32.5340   42.1360 H   0  0  0  0  0  0  0  0  0  0  0  0
   47.2830   32.6950   40.6760 C   0  0  0  0  0  0  0  0  0  0  0  0
   47.1640   31.6160   40.7900 H   0  0  0  0  0  0  0  0  0  0  0  0
   46.2430   33.1210   40.7260 H   0  0  0  0  0  0  0  0  0  0  0  0
   48.8650   32.2580   37.2950 C   0  0  0  0  0  0  0  0  0  0  0  0
   48.3260   31.9750   38.5660 C   0  0  0  0  0  0  0  0  0  0  0  0
   47.8480   33.0070   39.3380 C   0  0  0  0  0  0  0  0  0  0  0  0
   47.9180   34.2510   38.8370 N   0  0  0  0  0  0  0  0  0  0  0  0
   48.4370   34.5060   37.6160 C   0  0  0  0  0  0  0  0  0  0  0  0
   48.9130   33.5140   36.8390 N   0  0  0  0  0  0  0  0  0  0  0  0
   49.2330   31.4170   36.7110 H   0  0  0  0  0  0  0  0  0  0  0  0
   48.2940   30.9720   38.9160 H   0  0  0  0  0  0  0  0  0  0  0  0
   48.5020   35.5050   37.1980 H   0  0  0  0  0  0  0  0  0  0  0  0
   47.2720   32.0720   44.1750 O   0  0  0  0  0  0  0  0  0  0  0  0
   46.9510   29.6770   43.0860 O   0  0  0  0  0  0  0  0  0  0  0  0
   46.4990   30.5810   44.2140 P   0  0  2  0  0  0  0  0  0  0  0  0
   44.8400   30.8920   43.9280 O   0  0  0  0  0  0  0  0  0  0  0  0
   44.5440   31.7060   44.4110 H   0  0  0  0  0  0  0  0  0  0  0  0
   46.6350   29.8240   45.7060 O   0  0  0  0  0  0  0  0  0  0  0  0
   44.2600   29.4510   46.9170 F   0  0  0  0  0  0  0  0  0  0  0  0
   45.2240   30.2530   47.4680 C   0  0  0  0  0  0  0  0  0  0  0  0
   46.4640   30.4910   46.9060 C   0  0  0  0  0  0  0  0  0  0  0  0
   47.3410   31.3260   47.5770 C   0  0  0  0  0  0  0  0  0  0  0  0
   48.2800   31.4550   47.0690 H   0  0  0  0  0  0  0  0  0  0  0  0
   46.9880   31.9020   48.7690 C   0  0  0  0  0  0  0  0  0  0  0  0
   47.7430   32.5500   49.2340 H   0  0  0  0  0  0  0  0  0  0  0  0
   45.7570   31.6790   49.3490 C   0  0  0  0  0  0  0  0  0  0  0  0
   44.8620   30.8380   48.6810 C   0  0  0  0  0  0  0  0  0  0  0  0
  1  6  1  0  0  0  0
  2  1  1  0  0  0  0
  2  3  1  0  0  0  0
  2  8  1  0  0  0  0
  3  9  1  0  0  0  0
  3  4  1  0  0  0  0
  4  5  1  0  0  0  0
  4 12  1  0  0  0  0
  5 14  1  0  0  0  0
  5 13  1  0  0  0  0
  6 15  1  6  0  0  0
  6 31  1  0  0  0  0
  6  5  1  0  0  0  0
  7  2  1  0  0  0  0
 10  3  1  0  0  0  0
 11  4  1  0  0  0  0
 16 18  1  0  0  0  0
 16  1  1  0  0  0  0
 17 16  1  0  0  0  0
 19 21  1  0  0  0  0
 19 20  1  0  0  0  0
 19 16  1  0  0  0  0
 22 23  1  0  0  0  0
 23 29  1  0  0  0  0
 23 24  2  0  0  0  0
 24 19  1  0  0  0  0
 25 24  1  0  0  0  0
 26 25  2  0  0  0  0
 27 22  2  0  0  0  0
 27 26  1  0  0  0  0
 28 22  1  0  0  0  0
 30 26  1  0  0  0  0
 31 33  1  0  0  0  0
 33 32  2  6  0  0  0
 33 36  1  0  0  0  0
 34 33  1  0  0  0  0
 34 35  1  0  0  0  0
 36 39  1  0  0  0  0
 37 38  1  0  0  0  0
 38 45  1  0  0  0  0
 39 38  2  0  0  0  0
 39 40  1  0  0  0  0
 40 42  2  0  0  0  0
 41 40  1  0  0  0  0
 42 43  1  0  0  0  0
 42 44  1  0  0  0  0
 45 44  2  0  0  0  0
M  END
>  <minimizedAffinity>
-5.14780569

>  <minimizedRMSD>
2.20207882

$$$$
