REMARK  Name = 
REMARK  8 active torsions:
REMARK  status: ('A' for Active; 'I' for Inactive)
REMARK    1  A    between atoms: N_1  and  C_7
REMARK    2  A    between atoms: C_6  and  O_15
REMARK    3  A    between atoms: C_7  and  C_8
REMARK    4  A    between atoms: C_8  and  C_11
REMARK    5  A    between atoms: O_15  and  P_17
REMARK    6  A    between atoms: P_17  and  O_18
REMARK    7  A    between atoms: P_17  and  O_19
REMARK    8  A    between atoms: O_19  and  C_39
REMARK                            x       y       z     vdW  Elec       q    Type
REMARK                         _______ _______ _______ _____ _____    ______ ____
ROOT
ATOM      1  N   UNL     1      47.169  34.157  43.084  0.00  0.00    +0.000 NA
ATOM      2  C   UNL     1      46.669  35.362  42.532  0.00  0.00    +0.000 C 
ATOM      3  C   UNL     1      45.180  35.580  42.729  0.00  0.00    +0.000 C 
ATOM      4  C   UNL     1      44.655  35.059  44.046  0.00  0.00    +0.000 C 
ATOM      5  C   UNL     1      45.750  34.471  44.898  0.00  0.00    +0.000 C 
ATOM      6  C   UNL     1      46.409  33.397  43.959  0.00  0.00    +0.000 C 
ATOM      7  H   UNL     1      46.893  35.540  41.481  0.00  0.00    +0.000 HD
ATOM      8  H   UNL     1      47.162  36.199  43.087  0.00  0.00    +0.000 HD
ATOM      9  H   UNL     1      44.931  36.620  42.520  0.00  0.00    +0.000 HD
ATOM     10  H   UNL     1      44.696  34.956  41.931  0.00  0.00    +0.000 HD
ATOM     11  H   UNL     1      43.809  34.372  43.942  0.00  0.00    +0.000 HD
ATOM     12  H   UNL     1      44.276  35.956  44.595  0.00  0.00    +0.000 HD
ATOM     13  H   UNL     1      45.286  33.967  45.747  0.00  0.00    +0.000 HD
ATOM     14  H   UNL     1      46.503  35.232  45.136  0.00  0.00    +0.000 HD
ATOM     15  H   UNL     1      45.562  32.807  43.556  0.00  0.00    +0.000 HD
ENDROOT
BRANCH   1  16
ATOM     16  C   UNL     1      48.145  33.500  42.266  0.00  0.00    +0.000 C 
ATOM     17  H   UNL     1      48.730  34.300  41.758  0.00  0.00    +0.000 HD
ATOM     18  H   UNL     1      48.839  32.894  42.861  0.00  0.00    +0.000 HD
BRANCH  16  19
ATOM     19  C   UNL     1      47.448  32.652  41.258  0.00  0.00    +0.000 C 
ATOM     20  H   UNL     1      47.536  31.585  41.473  0.00  0.00    +0.000 HD
ATOM     21  H   UNL     1      46.344  32.868  41.247  0.00  0.00    +0.000 HD
BRANCH  19  24
ATOM     22  C   UNL     1      49.340  32.292  38.031  0.00  0.00    +0.000 A 
ATOM     23  C   UNL     1      48.818  32.024  39.312  0.00  0.00    +0.000 A 
ATOM     24  C   UNL     1      47.991  32.947  39.907  0.00  0.00    +0.000 A 
ATOM     25  N   UNL     1      47.717  34.074  39.230  0.00  0.00    +0.000 NA
ATOM     26  C   UNL     1      48.225  34.316  38.002  0.00  0.00    +0.000 A 
ATOM     27  N   UNL     1      49.038  33.429  37.396  0.00  0.00    +0.000 NA
ATOM     28  H   UNL     1      49.990  31.539  37.590  0.00  0.00    +0.000 HD
ATOM     29  H   UNL     1      49.066  31.116  39.806  0.00  0.00    +0.000 HD
ATOM     30  H   UNL     1      48.014  35.221  37.443  0.00  0.00    +0.000 HD
ENDBRANCH  19  24
ENDBRANCH  16  19
ENDBRANCH   1  16
BRANCH   6  31
ATOM     31  O   UNL     1      47.204  32.693  44.855  0.00  0.00    +0.000 OA
BRANCH  31  33
ATOM     32  O   UNL     1      46.007  30.542  43.873  0.00  0.00    +0.000 OA
ATOM     33  P   UNL     1      46.650  31.128  45.113  0.00  0.00    +0.000 P 
BRANCH  33  34
ATOM     34  O   UNL     1      45.401  31.246  46.277  0.00  0.00    +0.000 OA
ATOM     35  H   UNL     1      45.639  31.895  46.987  0.00  0.00    +0.000 HD
ENDBRANCH  33  34
BRANCH  33  36
ATOM     36  O   UNL     1      47.840  30.117  45.728  0.00  0.00    +0.000 OA
BRANCH  36  39
ATOM     37  F   UNL     1      47.797  28.723  48.031  0.00  0.00    +0.000 F 
ATOM     38  C   UNL     1      48.667  29.764  47.843  0.00  0.00    +0.000 A 
ATOM     39  C   UNL     1      48.747  30.523  46.692  0.00  0.00    +0.000 A 
ATOM     40  C   UNL     1      49.676  31.548  46.642  0.00  0.00    +0.000 A 
ATOM     41  H   UNL     1      49.670  32.086  45.711  0.00  0.00    +0.000 HD
ATOM     42  C   UNL     1      50.497  31.802  47.709  0.00  0.00    +0.000 A 
ATOM     43  H   UNL     1      51.206  32.633  47.586  0.00  0.00    +0.000 HD
ATOM     44  C   UNL     1      50.436  31.058  48.869  0.00  0.00    +0.000 A 
ATOM     45  C   UNL     1      49.501  30.020  48.931  0.00  0.00    +0.000 A 
ENDBRANCH  36  39
ENDBRANCH  33  36
ENDBRANCH  31  33
ENDBRANCH   6  31
TORSDOF 8
