
 OpenBabel03242519373D

 27 28  0  0  0  0  0  0  0  0999 V2000
   48.4230   32.9280   41.3100 O   0  0  0  0  0  0  0  0  0  0  0  0
   47.3140   33.9710   41.2200 P   0  0  2  0  0  0  0  0  0  0  0  0
   45.9340   33.3800   42.0700 O   0  0  0  0  0  0  0  0  0  0  0  0
   44.4090   35.8410   44.3070 C   0  0  0  0  0  0  0  0  0  0  0  0
   44.8230   35.2070   43.1100 C   0  0  0  0  0  0  0  0  0  0  0  0
   45.5250   34.0080   43.2430 C   0  0  0  0  0  0  0  0  0  0  0  0
   45.7830   33.5050   44.4710 N   0  0  0  0  0  0  0  0  0  0  0  0
   45.3670   34.1490   45.5940 C   0  0  0  0  0  0  0  0  0  0  0  0
   44.6850   35.3090   45.5090 N   0  0  0  0  0  0  0  0  0  0  0  0
   43.8720   36.7620   44.1140 H   0  0  0  0  0  0  0  0  0  0  0  0
   44.6090   35.6210   42.1280 H   0  0  0  0  0  0  0  0  0  0  0  0
   45.6000   33.7030   46.5630 H   0  0  0  0  0  0  0  0  0  0  0  0
   46.8700   34.3100   39.6560 O   0  0  0  0  0  0  0  0  0  0  0  0
   48.5580   35.0250   37.5700 F   0  0  0  0  0  0  0  0  0  0  0  0
   48.0250   33.8010   37.6040 C   0  0  0  0  0  0  0  0  0  0  0  0
   47.1820   33.4190   38.6300 C   0  0  0  0  0  0  0  0  0  0  0  0
   46.6690   32.1390   38.6000 C   0  0  0  0  0  0  0  0  0  0  0  0
   46.0040   31.7810   39.3730 H   0  0  0  0  0  0  0  0  0  0  0  0
   46.9760   31.2500   37.5820 C   0  0  0  0  0  0  0  0  0  0  0  0
   46.5400   30.2410   37.6070 H   0  0  0  0  0  0  0  0  0  0  0  0
   47.8100   31.6150   36.5600 C   0  0  0  0  0  0  0  0  0  0  0  0
   48.3130   32.8870   36.6000 C   0  0  0  0  0  0  0  0  0  0  0  0
   47.8400   35.3460   42.0400 O   0  0  0  0  0  0  0  0  0  0  0  0
   49.0540   35.8130   41.5770 C   0  0  0  0  0  0  0  0  0  0  0  0
   49.3270   37.1190   41.9400 F   0  0  0  0  0  0  0  0  0  0  0  0
   50.0570   34.9250   41.9400 F   0  0  0  0  0  0  0  0  0  0  0  0
   48.9790   35.7960   40.1780 F   0  0  0  0  0  0  0  0  0  0  0  0
  2  1  2  1  0  0  0
  2 23  1  0  0  0  0
  2  3  1  0  0  0  0
  3  6  1  0  0  0  0
  4  9  1  0  0  0  0
  5  6  1  0  0  0  0
  5  4  2  0  0  0  0
  6  7  2  0  0  0  0
  7  8  1  0  0  0  0
  8 12  1  0  0  0  0
  9  8  2  0  0  0  0
 10  4  1  0  0  0  0
 11  5  1  0  0  0  0
 13  2  1  0  0  0  0
 14 15  1  0  0  0  0
 15 16  1  0  0  0  0
 16 13  1  0  0  0  0
 17 16  2  0  0  0  0
 17 18  1  0  0  0  0
 19 20  1  0  0  0  0
 19 17  1  0  0  0  0
 21 22  1  0  0  0  0
 21 19  2  0  0  0  0
 22 15  2  0  0  0  0
 24 25  1  0  0  0  0
 24 26  1  0  0  0  0
 24 23  1  0  0  0  0
 27 24  1  0  0  0  0
M  END
>  <minimizedAffinity>
-5.43069839

>  <minimizedRMSD>
1.27044523

$$$$
