
 OpenBabel03252509023D

 45 47  0  0  1  0  0  0  0  0999 V2000
   38.8010   28.6310   38.4410 N   0  0  0  0  0  0  0  0  0  0  0  0
   38.9990   28.2900   37.0800 C   0  0  0  0  0  0  0  0  0  0  0  0
   37.7430   28.3210   36.2290 C   0  0  0  0  0  0  0  0  0  0  0  0
   36.7680   29.4070   36.6180 C   0  0  0  0  0  0  0  0  0  0  0  0
   37.2880   30.2540   37.7510 C   0  0  0  0  0  0  0  0  0  0  0  0
   37.6160   29.2050   38.8740 C   0  0  2  0  0  0  0  0  0  0  0  0
   39.5050   27.3450   36.8890 H   0  0  0  0  0  0  0  0  0  0  0  0
   39.6650   29.0770   36.6450 H   0  0  0  0  0  0  0  0  0  0  0  0
   38.0140   28.3110   35.1740 H   0  0  0  0  0  0  0  0  0  0  0  0
   37.2300   27.3470   36.4490 H   0  0  0  0  0  0  0  0  0  0  0  0
   35.7560   29.0390   36.8190 H   0  0  0  0  0  0  0  0  0  0  0  0
   36.6960   30.0800   35.7290 H   0  0  0  0  0  0  0  0  0  0  0  0
   36.4770   30.9000   38.0910 H   0  0  0  0  0  0  0  0  0  0  0  0
   38.2200   30.7540   37.4610 H   0  0  0  0  0  0  0  0  0  0  0  0
   36.7120   28.5690   38.9490 H   0  0  0  0  0  0  0  0  0  0  0  0
   39.5590   27.8330   39.3590 C   0  0  0  0  0  0  0  0  0  0  0  0
   40.5950   28.2420   39.3620 H   0  0  0  0  0  0  0  0  0  0  0  0
   39.1640   27.8950   40.3800 H   0  0  0  0  0  0  0  0  0  0  0  0
   39.5650   26.4190   38.8900 C   0  0  0  0  0  0  0  0  0  0  0  0
   39.0810   26.2960   37.9180 H   0  0  0  0  0  0  0  0  0  0  0  0
   40.6170   26.0460   38.7530 H   0  0  0  0  0  0  0  0  0  0  0  0
   36.9160   24.9490   41.1150 C   0  0  0  0  0  0  0  0  0  0  0  0
   37.5600   25.7560   40.1560 C   0  0  0  0  0  0  0  0  0  0  0  0
   38.8980   25.5610   39.9030 C   0  0  0  0  0  0  0  0  0  0  0  0
   39.5340   24.6000   40.5920 N   0  0  0  0  0  0  0  0  0  0  0  0
   38.9020   23.8350   41.5090 C   0  0  0  0  0  0  0  0  0  0  0  0
   37.5920   24.0040   41.7760 N   0  0  0  0  0  0  0  0  0  0  0  0
   35.8570   25.1300   41.2880 H   0  0  0  0  0  0  0  0  0  0  0  0
   37.0110   26.5040   39.6370 H   0  0  0  0  0  0  0  0  0  0  0  0
   39.4010   23.0550   42.0740 H   0  0  0  0  0  0  0  0  0  0  0  0
   37.8140   30.0280   39.9750 O   0  0  0  0  0  0  0  0  0  0  0  0
   35.7560   28.6090   40.8560 O   0  0  0  0  0  0  0  0  0  0  0  0
   36.6830   29.7600   41.1880 P   0  0  2  0  0  0  0  0  0  0  0  0
   35.6950   31.1560   41.2410 O   0  0  0  0  0  0  0  0  0  0  0  0
   36.2380   31.9780   41.1340 H   0  0  0  0  0  0  0  0  0  0  0  0
   37.3910   29.5670   42.6980 O   0  0  0  0  0  0  0  0  0  0  0  0
   37.0440   27.0810   43.6730 F   0  0  0  0  0  0  0  0  0  0  0  0
   38.2930   27.5710   43.3970 C   0  0  0  0  0  0  0  0  0  0  0  0
   38.5490   28.8340   42.8970 C   0  0  0  0  0  0  0  0  0  0  0  0
   39.8650   29.1960   42.6650 C   0  0  0  0  0  0  0  0  0  0  0  0
   39.9710   30.1930   42.2760 H   0  0  0  0  0  0  0  0  0  0  0  0
   40.8890   28.3240   42.9270 C   0  0  0  0  0  0  0  0  0  0  0  0
   41.9020   28.6920   42.7150 H   0  0  0  0  0  0  0  0  0  0  0  0
   40.6580   27.0590   43.4260 C   0  0  0  0  0  3  0  0  0  0  0  0
   39.3330   26.6820   43.6640 C   0  0  0  0  0  3  0  0  0  0  0  0
  1  6  1  0  0  0  0
  1 16  1  0  0  0  0
  2  1  1  0  0  0  0
  3 10  1  0  0  0  0
  3  4  1  0  0  0  0
  3  2  1  0  0  0  0
  4 11  1  0  0  0  0
  4  5  1  0  0  0  0
  5 13  1  0  0  0  0
  5  6  1  0  0  0  0
  6 15  1  1  0  0  0
  6 31  1  0  0  0  0
  7  2  1  0  0  0  0
  8  2  1  0  0  0  0
  9  3  1  0  0  0  0
 12  4  1  0  0  0  0
 14  5  1  0  0  0  0
 16 17  1  0  0  0  0
 16 18  1  0  0  0  0
 19 16  1  0  0  0  0
 19 24  1  0  0  0  0
 20 19  1  0  0  0  0
 21 19  1  0  0  0  0
 22 28  1  0  0  0  0
 22 27  1  0  0  0  0
 23 22  2  0  0  0  0
 24 23  1  0  0  0  0
 24 25  2  0  0  0  0
 25 26  1  0  0  0  0
 26 27  2  0  0  0  0
 26 30  1  0  0  0  0
 29 23  1  0  0  0  0
 31 33  1  0  0  0  0
 33 32  2  6  0  0  0
 33 34  1  0  0  0  0
 33 36  1  0  0  0  0
 35 34  1  0  0  0  0
 36 39  1  0  0  0  0
 38 45  1  0  0  0  0
 38 37  1  0  0  0  0
 39 38  2  0  0  0  0
 40 39  1  0  0  0  0
 40 42  2  0  0  0  0
 41 40  1  0  0  0  0
 42 44  1  0  0  0  0
 43 42  1  0  0  0  0
 44 45  2  0  0  0  0
M  END
>  <minimizedAffinity>
-5.56562471

$$$$

 OpenBabel03252509023D

 45 47  0  0  1  0  0  0  0  0999 V2000
   40.6580   31.5400   41.3980 N   0  0  0  0  0  0  0  0  0  0  0  0
   41.7210   31.2970   42.3010 C   0  0  0  0  0  0  0  0  0  0  0  0
   42.9580   30.6810   41.6740 C   0  0  0  0  0  0  0  0  0  0  0  0
   43.2350   31.1610   40.2690 C   0  0  0  0  0  0  0  0  0  0  0  0
   42.2320   32.1900   39.8160 C   0  0  0  0  0  0  0  0  0  0  0  0
   40.8500   31.4730   40.0270 C   0  0  2  0  0  0  0  0  0  0  0  0
   41.4760   30.7160   43.1890 H   0  0  0  0  0  0  0  0  0  0  0  0
   42.0540   32.2950   42.6820 H   0  0  0  0  0  0  0  0  0  0  0  0
   43.8000   30.7710   42.3600 H   0  0  0  0  0  0  0  0  0  0  0  0
   42.7160   29.5880   41.5890 H   0  0  0  0  0  0  0  0  0  0  0  0
   43.3430   30.3510   39.5400 H   0  0  0  0  0  0  0  0  0  0  0  0
   44.2220   31.6830   40.3190 H   0  0  0  0  0  0  0  0  0  0  0  0
   42.3850   32.3660   38.7500 H   0  0  0  0  0  0  0  0  0  0  0  0
   42.2670   33.0730   40.4650 H   0  0  0  0  0  0  0  0  0  0  0  0
   40.9650   30.4790   39.5520 H   0  0  0  0  0  0  0  0  0  0  0  0
   39.3600   31.2470   41.9290 C   0  0  0  0  0  0  0  0  0  0  0  0
   38.9720   32.1920   42.3720 H   0  0  0  0  0  0  0  0  0  0  0  0
   38.6610   30.9220   41.1490 H   0  0  0  0  0  0  0  0  0  0  0  0
   39.4880   30.1990   42.9820 C   0  0  0  0  0  0  0  0  0  0  0  0
   40.5200   29.8750   43.1300 H   0  0  0  0  0  0  0  0  0  0  0  0
   39.1480   30.5900   43.9800 H   0  0  0  0  0  0  0  0  0  0  0  0
   36.8300   27.5490   43.1720 C   0  0  0  0  0  0  0  0  0  0  0  0
   37.6460   28.6510   43.4980 C   0  0  0  0  0  0  0  0  0  0  0  0
   38.6340   29.0370   42.6250 C   0  0  0  0  0  0  0  0  0  0  0  0
   38.7770   28.3370   41.4880 N   0  0  0  0  0  0  0  0  0  0  0  0
   37.9860   27.2830   41.1890 C   0  0  0  0  0  0  0  0  0  0  0  0
   37.0100   26.8830   42.0270 N   0  0  0  0  0  0  0  0  0  0  0  0
   36.0570   27.2720   43.8860 H   0  0  0  0  0  0  0  0  0  0  0  0
   37.4920   29.1720   44.4120 H   0  0  0  0  0  0  0  0  0  0  0  0
   38.0880   26.7070   40.2750 H   0  0  0  0  0  0  0  0  0  0  0  0
   39.9880   32.3230   39.3430 O   0  0  0  0  0  0  0  0  0  0  0  0
   39.7550   30.1560   37.8350 O   0  0  0  0  0  0  0  0  0  0  0  0
   39.3120   31.5960   37.9870 P   0  0  2  0  0  0  0  0  0  0  0  0
   39.9450   32.4270   36.6310 O   0  0  0  0  0  0  0  0  0  0  0  0
   39.9840   33.4020   36.8000 H   0  0  0  0  0  0  0  0  0  0  0  0
   37.6400   31.7360   37.9490 O   0  0  0  0  0  0  0  0  0  0  0  0
   36.3790   29.7390   36.6550 F   0  0  0  0  0  0  0  0  0  0  0  0
   36.1910   29.9520   37.9950 C   0  0  0  0  0  0  0  0  0  0  0  0
   36.8020   30.9540   38.7250 C   0  0  0  0  0  0  0  0  0  0  0  0
   36.5190   31.0510   40.0770 C   0  0  0  0  0  0  0  0  0  0  0  0
   37.0370   31.8560   40.5650 H   0  0  0  0  0  0  0  0  0  0  0  0
   35.6530   30.1740   40.6760 C   0  0  0  0  0  0  0  0  0  0  0  0
   35.4840   30.3220   41.7510 H   0  0  0  0  0  0  0  0  0  0  0  0
   35.0310   29.1670   39.9680 C   0  0  0  0  0  3  0  0  0  0  0  0
   35.3100   29.0590   38.6030 C   0  0  0  0  0  3  0  0  0  0  0  0
  1 16  1  0  0  0  0
  1  2  1  0  0  0  0
  2  8  1  0  0  0  0
  2  7  1  0  0  0  0
  3  2  1  0  0  0  0
  3  9  1  0  0  0  0
  4 12  1  0  0  0  0
  4  3  1  0  0  0  0
  5  6  1  0  0  0  0
  5  4  1  0  0  0  0
  5 14  1  0  0  0  0
  6 15  1  6  0  0  0
  6  1  1  0  0  0  0
 10  3  1  0  0  0  0
 11  4  1  0  0  0  0
 13  5  1  0  0  0  0
 16 17  1  0  0  0  0
 16 19  1  0  0  0  0
 18 16  1  0  0  0  0
 19 20  1  0  0  0  0
 19 21  1  0  0  0  0
 22 23  1  0  0  0  0
 22 28  1  0  0  0  0
 23 29  1  0  0  0  0
 24 19  1  0  0  0  0
 24 23  2  0  0  0  0
 25 24  1  0  0  0  0
 26 25  2  0  0  0  0
 26 27  1  0  0  0  0
 27 22  2  0  0  0  0
 30 26  1  0  0  0  0
 31  6  1  0  0  0  0
 33 32  2  6  0  0  0
 33 31  1  0  0  0  0
 34 35  1  0  0  0  0
 34 33  1  0  0  0  0
 36 33  1  0  0  0  0
 36 39  1  0  0  0  0
 37 38  1  0  0  0  0
 38 45  2  0  0  0  0
 38 39  1  0  0  0  0
 39 40  2  0  0  0  0
 40 41  1  0  0  0  0
 40 42  1  0  0  0  0
 42 43  1  0  0  0  0
 44 42  2  0  0  0  0
 45 44  1  0  0  0  0
M  END
>  <minimizedAffinity>
-5.51590061

$$$$

 OpenBabel03252509023D

 45 47  0  0  1  0  0  0  0  0999 V2000
   38.3200   28.9340   38.0290 N   0  0  0  0  0  0  0  0  0  0  0  0
   38.1000   28.6600   36.6570 C   0  0  0  0  0  0  0  0  0  0  0  0
   36.6710   28.2880   36.3050 C   0  0  0  0  0  0  0  0  0  0  0  0
   35.6310   29.0180   37.1210 C   0  0  0  0  0  0  0  0  0  0  0  0
   36.2530   29.9960   38.0840 C   0  0  0  0  0  0  0  0  0  0  0  0
   37.2610   29.1130   38.9050 C   0  0  2  0  0  0  0  0  0  0  0  0
   38.7560   27.9190   36.2020 H   0  0  0  0  0  0  0  0  0  0  0  0
   38.2990   29.6120   36.1030 H   0  0  0  0  0  0  0  0  0  0  0  0
   36.5310   28.3540   35.2260 H   0  0  0  0  0  0  0  0  0  0  0  0
   36.5850   27.2050   36.5850 H   0  0  0  0  0  0  0  0  0  0  0  0
   34.9180   28.3540   37.6210 H   0  0  0  0  0  0  0  0  0  0  0  0
   35.0460   29.6260   36.3880 H   0  0  0  0  0  0  0  0  0  0  0  0
   35.4700   30.3590   38.7520 H   0  0  0  0  0  0  0  0  0  0  0  0
   36.8230   30.7600   37.5430 H   0  0  0  0  0  0  0  0  0  0  0  0
   36.6760   28.2270   39.2230 H   0  0  0  0  0  0  0  0  0  0  0  0
   39.5580   28.4220   38.5370 C   0  0  0  0  0  0  0  0  0  0  0  0
   39.3150   27.8500   39.4610 H   0  0  0  0  0  0  0  0  0  0  0  0
   40.0410   27.7380   37.8280 H   0  0  0  0  0  0  0  0  0  0  0  0
   40.4630   29.5610   38.8580 C   0  0  0  0  0  0  0  0  0  0  0  0
   39.9210   30.4910   39.0410 H   0  0  0  0  0  0  0  0  0  0  0  0
   41.0430   29.3590   39.8010 H   0  0  0  0  0  0  0  0  0  0  0  0
   42.9330   31.1710   36.5270 C   0  0  0  0  0  0  0  0  0  0  0  0
   42.0100   30.9820   37.5750 C   0  0  0  0  0  0  0  0  0  0  0  0
   41.4340   29.7460   37.7490 C   0  0  0  0  0  0  0  0  0  0  0  0
   41.7830   28.7650   36.9000 N   0  0  0  0  0  0  0  0  0  0  0  0
   42.6690   28.9620   35.9000 C   0  0  0  0  0  0  0  0  0  0  0  0
   43.2480   30.1630   35.7070 N   0  0  0  0  0  0  0  0  0  0  0  0
   43.3700   32.1610   36.4200 H   0  0  0  0  0  0  0  0  0  0  0  0
   41.7680   31.7920   38.2200 H   0  0  0  0  0  0  0  0  0  0  0  0
   42.9600   28.1810   35.2060 H   0  0  0  0  0  0  0  0  0  0  0  0
   37.5940   29.9660   39.9490 O   0  0  0  0  0  0  0  0  0  0  0  0
   35.8230   28.4390   41.1980 O   0  0  0  0  0  0  0  0  0  0  0  0
   36.6690   29.6890   41.3250 P   0  0  2  0  0  0  0  0  0  0  0  0
   35.5660   30.9930   41.4330 O   0  0  0  0  0  0  0  0  0  0  0  0
   36.0060   31.8500   41.2000 H   0  0  0  0  0  0  0  0  0  0  0  0
   37.5910   29.6710   42.7270 O   0  0  0  0  0  0  0  0  0  0  0  0
   40.1200   30.3770   42.1300 F   0  0  0  0  0  0  0  0  0  0  0  0
   39.8270   29.1440   42.6490 C   0  0  0  0  0  0  0  0  0  0  0  0
   38.5570   28.7110   42.9790 C   0  0  0  0  0  0  0  0  0  0  0  0
   38.4090   27.4360   43.4960 C   0  0  0  0  0  0  0  0  0  0  0  0
   37.3890   27.1830   43.7250 H   0  0  0  0  0  0  0  0  0  0  0  0
   39.4970   26.6220   43.6760 C   0  0  0  0  0  0  0  0  0  0  0  0
   39.2910   25.6260   44.0910 H   0  0  0  0  0  0  0  0  0  0  0  0
   40.7740   27.0310   43.3540 C   0  0  0  0  0  3  0  0  0  0  0  0
   40.9350   28.3180   42.8310 C   0  0  0  0  0  3  0  0  0  0  0  0
  1 16  1  0  0  0  0
  1  6  1  0  0  0  0
  2  1  1  0  0  0  0
  3 10  1  0  0  0  0
  3  2  1  0  0  0  0
  3  4  1  0  0  0  0
  4 11  1  0  0  0  0
  4  5  1  0  0  0  0
  5 13  1  0  0  0  0
  5  6  1  0  0  0  0
  6 15  1  1  0  0  0
  6 31  1  0  0  0  0
  7  2  1  0  0  0  0
  8  2  1  0  0  0  0
  9  3  1  0  0  0  0
 12  4  1  0  0  0  0
 14  5  1  0  0  0  0
 16 19  1  0  0  0  0
 16 17  1  0  0  0  0
 18 16  1  0  0  0  0
 19 20  1  0  0  0  0
 19 21  1  0  0  0  0
 22 23  1  0  0  0  0
 23 24  2  0  0  0  0
 23 29  1  0  0  0  0
 24 19  1  0  0  0  0
 25 24  1  0  0  0  0
 26 25  2  0  0  0  0
 27 26  1  0  0  0  0
 27 22  2  0  0  0  0
 28 22  1  0  0  0  0
 30 26  1  0  0  0  0
 31 33  1  0  0  0  0
 33 32  2  6  0  0  0
 33 34  1  0  0  0  0
 33 36  1  0  0  0  0
 35 34  1  0  0  0  0
 36 39  1  0  0  0  0
 37 38  1  0  0  0  0
 38 45  2  0  0  0  0
 38 39  1  0  0  0  0
 39 40  2  0  0  0  0
 40 42  1  0  0  0  0
 40 41  1  0  0  0  0
 42 43  1  0  0  0  0
 44 42  2  0  0  0  0
 45 44  1  0  0  0  0
M  END
>  <minimizedAffinity>
-5.36502123

$$$$

 OpenBabel03252509023D

 45 47  0  0  1  0  0  0  0  0999 V2000
   40.8200   29.8640   40.1930 N   0  0  0  0  0  0  0  0  0  0  0  0
   42.0620   29.2310   39.9400 C   0  0  0  0  0  0  0  0  0  0  0  0
   43.1080   30.1210   39.2960 C   0  0  0  0  0  0  0  0  0  0  0  0
   43.0560   31.5590   39.7580 C   0  0  0  0  0  0  0  0  0  0  0  0
   41.9900   31.7790   40.8000 C   0  0  0  0  0  0  0  0  0  0  0  0
   40.6850   31.2410   40.1100 C   0  0  2  0  0  0  0  0  0  0  0  0
   42.0220   28.3030   39.3720 H   0  0  0  0  0  0  0  0  0  0  0  0
   42.4890   28.9520   40.9360 H   0  0  0  0  0  0  0  0  0  0  0  0
   44.0890   29.6530   39.3790 H   0  0  0  0  0  0  0  0  0  0  0  0
   42.8370   30.1330   38.2070 H   0  0  0  0  0  0  0  0  0  0  0  0
   42.9780   32.2820   38.9400 H   0  0  0  0  0  0  0  0  0  0  0  0
   44.0350   31.7480   40.2640 H   0  0  0  0  0  0  0  0  0  0  0  0
   41.8920   32.8530   40.9640 H   0  0  0  0  0  0  0  0  0  0  0  0
   42.1890   31.1680   41.6890 H   0  0  0  0  0  0  0  0  0  0  0  0
   40.6710   31.7160   39.1090 H   0  0  0  0  0  0  0  0  0  0  0  0
   39.6780   29.0400   39.9270 C   0  0  0  0  0  0  0  0  0  0  0  0
   38.7850   29.6060   40.2760 H   0  0  0  0  0  0  0  0  0  0  0  0
   39.5580   28.8380   38.8560 H   0  0  0  0  0  0  0  0  0  0  0  0
   39.8090   27.7640   40.6850 C   0  0  0  0  0  0  0  0  0  0  0  0
   39.7830   26.8850   40.0370 H   0  0  0  0  0  0  0  0  0  0  0  0
   40.7960   27.7150   41.2210 H   0  0  0  0  0  0  0  0  0  0  0  0
   37.6310   28.5880   43.6350 C   0  0  0  0  0  0  0  0  0  0  0  0
   38.6530   28.6550   42.6670 C   0  0  0  0  0  0  0  0  0  0  0  0
   38.7260   27.6810   41.6990 C   0  0  0  0  0  0  0  0  0  0  0  0
   37.8090   26.7000   41.7240 N   0  0  0  0  0  0  0  0  0  0  0  0
   36.8360   26.6500   42.6590 C   0  0  0  0  0  0  0  0  0  0  0  0
   36.7400   27.5910   43.6180 N   0  0  0  0  0  0  0  0  0  0  0  0
   37.6030   29.3760   44.3850 H   0  0  0  0  0  0  0  0  0  0  0  0
   39.3550   29.4530   42.6910 H   0  0  0  0  0  0  0  0  0  0  0  0
   36.0890   25.8650   42.6920 H   0  0  0  0  0  0  0  0  0  0  0  0
   39.7000   31.7160   40.9670 O   0  0  0  0  0  0  0  0  0  0  0  0
   39.8470   33.8490   39.4020 O   0  0  0  0  0  0  0  0  0  0  0  0
   38.9680   33.1150   40.3930 P   0  0  2  0  0  0  0  0  0  0  0  0
   38.8070   34.1600   41.7390 O   0  0  0  0  0  0  0  0  0  0  0  0
   38.5300   33.6570   42.5460 H   0  0  0  0  0  0  0  0  0  0  0  0
   37.4370   32.8320   39.7690 O   0  0  0  0  0  0  0  0  0  0  0  0
   37.4210   31.5580   37.3960 F   0  0  0  0  0  0  0  0  0  0  0  0
   36.8760   30.9880   38.5150 C   0  0  0  0  0  0  0  0  0  0  0  0
   36.8470   31.5790   39.7640 C   0  0  0  0  0  0  0  0  0  0  0  0
   36.2610   30.8840   40.8080 C   0  0  0  0  0  0  0  0  0  0  0  0
   36.2830   31.4170   41.7420 H   0  0  0  0  0  0  0  0  0  0  0  0
   35.7240   29.6390   40.6080 C   0  0  0  0  0  0  0  0  0  0  0  0
   35.2790   29.1580   41.4900 H   0  0  0  0  0  0  0  0  0  0  0  0
   35.7410   29.0300   39.3710 C   0  0  0  0  0  3  0  0  0  0  0  0
   36.3300   29.7220   38.3090 C   0  0  0  0  0  3  0  0  0  0  0  0
  2  1  1  0  0  0  0
  2  8  1  0  0  0  0
  3  9  1  0  0  0  0
  3  4  1  0  0  0  0
  3  2  1  0  0  0  0
  4 12  1  0  0  0  0
  4  5  1  0  0  0  0
  5 13  1  0  0  0  0
  5 14  1  0  0  0  0
  6 15  1  6  0  0  0
  6  1  1  0  0  0  0
  6  5  1  0  0  0  0
  6 31  1  0  0  0  0
  7  2  1  0  0  0  0
 10  3  1  0  0  0  0
 11  4  1  0  0  0  0
 16  1  1  0  0  0  0
 16 17  1  0  0  0  0
 16 19  1  0  0  0  0
 18 16  1  0  0  0  0
 19 21  1  0  0  0  0
 19 24  1  0  0  0  0
 20 19  1  0  0  0  0
 22 28  1  0  0  0  0
 23 29  1  0  0  0  0
 23 22  2  0  0  0  0
 24 25  2  0  0  0  0
 24 23  1  0  0  0  0
 25 26  1  0  0  0  0
 26 30  1  0  0  0  0
 26 27  2  0  0  0  0
 27 22  1  0  0  0  0
 33 32  2  6  0  0  0
 33 31  1  0  0  0  0
 33 34  1  0  0  0  0
 34 35  1  0  0  0  0
 36 33  1  0  0  0  0
 37 38  1  0  0  0  0
 38 39  1  0  0  0  0
 39 36  1  0  0  0  0
 39 40  2  0  0  0  0
 40 41  1  0  0  0  0
 42 40  1  0  0  0  0
 42 43  1  0  0  0  0
 44 42  2  0  0  0  0
 45 38  2  0  0  0  0
 45 44  1  0  0  0  0
M  END
>  <minimizedAffinity>
-5.34523106

$$$$

 OpenBabel03252509023D

 45 47  0  0  1  0  0  0  0  0999 V2000
   37.3080   28.8430   42.2450 N   0  0  0  0  0  0  0  0  0  0  0  0
   36.5920   27.6380   42.4520 C   0  0  0  0  0  0  0  0  0  0  0  0
   37.4490   26.3860   42.4700 C   0  0  0  0  0  0  0  0  0  0  0  0
   38.8130   26.5870   43.0870 C   0  0  0  0  0  0  0  0  0  0  0  0
   39.0020   27.9940   43.5920 C   0  0  0  0  0  0  0  0  0  0  0  0
   38.6910   28.8810   42.3330 C   0  0  2  0  0  0  0  0  0  0  0  0
   35.7530   27.4550   41.7810 H   0  0  0  0  0  0  0  0  0  0  0  0
   36.1450   27.7000   43.4760 H   0  0  0  0  0  0  0  0  0  0  0  0
   36.8790   25.5570   42.8880 H   0  0  0  0  0  0  0  0  0  0  0  0
   37.6280   26.1510   41.3860 H   0  0  0  0  0  0  0  0  0  0  0  0
   39.6390   26.2740   42.4410 H   0  0  0  0  0  0  0  0  0  0  0  0
   38.8370   25.9240   43.9860 H   0  0  0  0  0  0  0  0  0  0  0  0
   40.0500   28.1180   43.8660 H   0  0  0  0  0  0  0  0  0  0  0  0
   38.2650   28.2260   44.3700 H   0  0  0  0  0  0  0  0  0  0  0  0
   39.2900   28.4390   41.5120 H   0  0  0  0  0  0  0  0  0  0  0  0
   36.6430   29.7790   41.3880 C   0  0  0  0  0  0  0  0  0  0  0  0
   36.2390   30.5840   42.0430 H   0  0  0  0  0  0  0  0  0  0  0  0
   37.3310   30.2370   40.6670 H   0  0  0  0  0  0  0  0  0  0  0  0
   35.5310   29.0860   40.6760 C   0  0  0  0  0  0  0  0  0  0  0  0
   35.2520   28.1430   41.1500 H   0  0  0  0  0  0  0  0  0  0  0  0
   34.5990   29.7150   40.6830 H   0  0  0  0  0  0  0  0  0  0  0  0
   35.4660   29.1130   36.9190 C   0  0  0  0  0  0  0  0  0  0  0  0
   35.1060   29.3290   38.2640 C   0  0  0  0  0  0  0  0  0  0  0  0
   35.9230   28.8530   39.2620 C   0  0  0  0  0  0  0  0  0  0  0  0
   37.0380   28.1960   38.9030 N   0  0  0  0  0  0  0  0  0  0  0  0
   37.3690   27.9980   37.6080 C   0  0  0  0  0  0  0  0  0  0  0  0
   36.5870   28.4540   36.6100 N   0  0  0  0  0  0  0  0  0  0  0  0
   34.7970   29.5050   36.1550 H   0  0  0  0  0  0  0  0  0  0  0  0
   34.2120   29.8550   38.4960 H   0  0  0  0  0  0  0  0  0  0  0  0
   38.2650   27.4690   37.3020 H   0  0  0  0  0  0  0  0  0  0  0  0
   39.1470   30.1260   42.7490 O   0  0  0  0  0  0  0  0  0  0  0  0
   41.5810   29.2650   42.1520 O   0  0  0  0  0  0  0  0  0  0  0  0
   40.6780   30.4810   42.1550 P   0  0  2  0  0  0  0  0  0  0  0  0
   41.3790   31.5820   43.2610 O   0  0  0  0  0  0  0  0  0  0  0  0
   40.7130   32.2500   43.5660 H   0  0  0  0  0  0  0  0  0  0  0  0
   40.6290   31.2170   40.6480 O   0  0  0  0  0  0  0  0  0  0  0  0
   39.7980   30.2220   38.2880 F   0  0  0  0  0  0  0  0  0  0  0  0
   39.1160   31.2290   38.9180 C   0  0  0  0  0  0  0  0  0  0  0  0
   39.4810   31.7890   40.1270 C   0  0  0  0  0  0  0  0  0  0  0  0
   38.6950   32.8030   40.6470 C   0  0  0  0  0  0  0  0  0  0  0  0
   39.0520   33.1800   41.5890 H   0  0  0  0  0  0  0  0  0  0  0  0
   37.5820   33.2410   39.9780 C   0  0  0  0  0  0  0  0  0  0  0  0
   37.0160   34.0490   40.4610 H   0  0  0  0  0  0  0  0  0  0  0  0
   37.1980   32.6970   38.7700 C   0  0  0  0  0  3  0  0  0  0  0  0
   37.9840   31.6720   38.2360 C   0  0  0  0  0  3  0  0  0  0  0  0
  1  6  1  0  0  0  0
  1  2  1  0  0  0  0
  2  3  1  0  0  0  0
  2  8  1  0  0  0  0
  3  9  1  0  0  0  0
  3  4  1  0  0  0  0
  4  5  1  0  0  0  0
  4 12  1  0  0  0  0
  5 13  1  0  0  0  0
  5 14  1  0  0  0  0
  6 15  1  6  0  0  0
  6 31  1  0  0  0  0
  6  5  1  0  0  0  0
  7  2  1  0  0  0  0
 10  3  1  0  0  0  0
 11  4  1  0  0  0  0
 16 17  1  0  0  0  0
 16  1  1  0  0  0  0
 18 16  1  0  0  0  0
 19 21  1  0  0  0  0
 19 20  1  0  0  0  0
 19 16  1  0  0  0  0
 22 23  1  0  0  0  0
 23 29  1  0  0  0  0
 23 24  2  0  0  0  0
 24 19  1  0  0  0  0
 25 24  1  0  0  0  0
 26 25  2  0  0  0  0
 27 22  2  0  0  0  0
 27 26  1  0  0  0  0
 28 22  1  0  0  0  0
 30 26  1  0  0  0  0
 33 32  2  6  0  0  0
 33 31  1  0  0  0  0
 33 34  1  0  0  0  0
 34 35  1  0  0  0  0
 36 33  1  0  0  0  0
 37 38  1  0  0  0  0
 38 39  1  0  0  0  0
 39 40  2  0  0  0  0
 39 36  1  0  0  0  0
 40 41  1  0  0  0  0
 42 43  1  0  0  0  0
 42 40  1  0  0  0  0
 44 42  2  0  0  0  0
 45 44  1  0  0  0  0
 45 38  2  0  0  0  0
M  END
>  <minimizedAffinity>
-5.29494858

$$$$

 OpenBabel03252509023D

 45 47  0  0  1  0  0  0  0  0999 V2000
   38.1460   30.7570   38.4450 N   0  0  0  0  0  0  0  0  0  0  0  0
   39.2160   31.6050   38.0650 C   0  0  0  0  0  0  0  0  0  0  0  0
   39.9010   32.3180   39.2170 C   0  0  0  0  0  0  0  0  0  0  0  0
   39.9790   31.4980   40.4830 C   0  0  0  0  0  0  0  0  0  0  0  0
   39.3900   30.1230   40.3030 C   0  0  0  0  0  0  0  0  0  0  0  0
   37.9400   30.4110   39.7710 C   0  0  2  0  0  0  0  0  0  0  0  0
   38.9940   32.3480   37.3010 H   0  0  0  0  0  0  0  0  0  0  0  0
   40.0040   30.9470   37.6200 H   0  0  0  0  0  0  0  0  0  0  0  0
   40.8530   32.7260   38.8810 H   0  0  0  0  0  0  0  0  0  0  0  0
   39.2290   33.1870   39.4480 H   0  0  0  0  0  0  0  0  0  0  0  0
   39.5650   32.0050   41.3610 H   0  0  0  0  0  0  0  0  0  0  0  0
   41.0690   31.3510   40.6800 H   0  0  0  0  0  0  0  0  0  0  0  0
   39.3240   29.6510   41.2850 H   0  0  0  0  0  0  0  0  0  0  0  0
   39.9380   29.5670   39.5330 H   0  0  0  0  0  0  0  0  0  0  0  0
   37.5240   31.1700   40.4630 H   0  0  0  0  0  0  0  0  0  0  0  0
   37.0210   30.8030   37.5590 C   0  0  0  0  0  0  0  0  0  0  0  0
   36.1140   30.6360   38.1830 H   0  0  0  0  0  0  0  0  0  0  0  0
   36.9240   31.7800   37.0690 H   0  0  0  0  0  0  0  0  0  0  0  0
   37.1540   29.7230   36.5420 C   0  0  0  0  0  0  0  0  0  0  0  0
   37.1130   30.1010   35.5190 H   0  0  0  0  0  0  0  0  0  0  0  0
   38.1500   29.2060   36.6340 H   0  0  0  0  0  0  0  0  0  0  0  0
   33.7600   28.1170   36.7060 C   0  0  0  0  0  0  0  0  0  0  0  0
   34.7820   29.0660   36.5070 C   0  0  0  0  0  0  0  0  0  0  0  0
   36.0870   28.7120   36.7560 C   0  0  0  0  0  0  0  0  0  0  0  0
   36.3280   27.4610   37.1820 N   0  0  0  0  0  0  0  0  0  0  0  0
   35.3370   26.5620   37.3680 C   0  0  0  0  0  0  0  0  0  0  0  0
   34.0500   26.8830   37.1320 N   0  0  0  0  0  0  0  0  0  0  0  0
   32.7400   28.4320   36.4990 H   0  0  0  0  0  0  0  0  0  0  0  0
   34.5380   30.0440   36.1680 H   0  0  0  0  0  0  0  0  0  0  0  0
   35.5150   25.5490   37.7120 H   0  0  0  0  0  0  0  0  0  0  0  0
   37.3450   29.1600   39.8910 O   0  0  0  0  0  0  0  0  0  0  0  0
   34.7100   28.9280   40.0510 O   0  0  0  0  0  0  0  0  0  0  0  0
   35.9680   29.1930   40.8520 P   0  0  2  0  0  0  0  0  0  0  0  0
   35.8250   30.7970   41.4320 O   0  0  0  0  0  0  0  0  0  0  0  0
   36.7110   31.1630   41.6850 H   0  0  0  0  0  0  0  0  0  0  0  0
   36.0840   28.1700   42.1780 O   0  0  0  0  0  0  0  0  0  0  0  0
   36.5460   25.6940   41.2260 F   0  0  0  0  0  0  0  0  0  0  0  0
   37.4430   26.3210   42.0490 C   0  0  0  0  0  0  0  0  0  0  0  0
   37.2750   27.5880   42.5760 C   0  0  0  0  0  0  0  0  0  0  0  0
   38.2670   28.0970   43.3960 C   0  0  0  0  0  0  0  0  0  0  0  0
   38.0540   29.0860   43.7600 H   0  0  0  0  0  0  0  0  0  0  0  0
   39.3880   27.3620   43.6790 C   0  0  0  0  0  0  0  0  0  0  0  0
   40.1250   27.8410   44.3390 H   0  0  0  0  0  0  0  0  0  0  0  0
   39.5780   26.0960   43.1660 C   0  0  0  0  0  3  0  0  0  0  0  0
   38.5830   25.5720   42.3360 C   0  0  0  0  0  3  0  0  0  0  0  0
  1  6  1  0  0  0  0
  2  1  1  0  0  0  0
  2  3  1  0  0  0  0
  3 10  1  0  0  0  0
  3  4  1  0  0  0  0
  4 12  1  0  0  0  0
  4 11  1  0  0  0  0
  5  4  1  0  0  0  0
  5 13  1  0  0  0  0
  6 31  1  0  0  0  0
  6  5  1  0  0  0  0
  6 15  1  1  0  0  0
  7  2  1  0  0  0  0
  8  2  1  0  0  0  0
  9  3  1  0  0  0  0
 14  5  1  0  0  0  0
 16 17  1  0  0  0  0
 16  1  1  0  0  0  0
 18 16  1  0  0  0  0
 19 21  1  0  0  0  0
 19 24  1  0  0  0  0
 19 16  1  0  0  0  0
 20 19  1  0  0  0  0
 22 27  1  0  0  0  0
 23 22  2  0  0  0  0
 23 24  1  0  0  0  0
 24 25  2  0  0  0  0
 25 26  1  0  0  0  0
 26 30  1  0  0  0  0
 27 26  2  0  0  0  0
 28 22  1  0  0  0  0
 29 23  1  0  0  0  0
 31 33  1  0  0  0  0
 33 32  2  6  0  0  0
 33 34  1  0  0  0  0
 33 36  1  0  0  0  0
 34 35  1  0  0  0  0
 36 39  1  0  0  0  0
 37 38  1  0  0  0  0
 38 45  2  0  0  0  0
 38 39  1  0  0  0  0
 39 40  2  0  0  0  0
 40 42  1  0  0  0  0
 40 41  1  0  0  0  0
 42 43  1  0  0  0  0
 44 42  2  0  0  0  0
 45 44  1  0  0  0  0
M  END
>  <minimizedAffinity>
-5.21721554

$$$$

 OpenBabel03252509023D

 45 47  0  0  1  0  0  0  0  0999 V2000
   40.6980   30.3310   39.3310 N   0  0  0  0  0  0  0  0  0  0  0  0
   41.8280   30.2900   38.4770 C   0  0  0  0  0  0  0  0  0  0  0  0
   41.6740   31.0690   37.1840 C   0  0  0  0  0  0  0  0  0  0  0  0
   40.8600   32.3340   37.3260 C   0  0  0  0  0  0  0  0  0  0  0  0
   40.4150   32.5630   38.7470 C   0  0  0  0  0  0  0  0  0  0  0  0
   39.6670   31.2310   39.1160 C   0  0  2  0  0  0  0  0  0  0  0  0
   42.2050   29.3000   38.2230 H   0  0  0  0  0  0  0  0  0  0  0  0
   42.6630   30.7940   39.0240 H   0  0  0  0  0  0  0  0  0  0  0  0
   42.6510   31.2070   36.7210 H   0  0  0  0  0  0  0  0  0  0  0  0
   41.0820   30.3900   36.5140 H   0  0  0  0  0  0  0  0  0  0  0  0
   40.0240   32.4000   36.6230 H   0  0  0  0  0  0  0  0  0  0  0  0
   41.5580   33.1710   37.0760 H   0  0  0  0  0  0  0  0  0  0  0  0
   39.7000   33.3870   38.7500 H   0  0  0  0  0  0  0  0  0  0  0  0
   41.2820   32.6680   39.4100 H   0  0  0  0  0  0  0  0  0  0  0  0
   38.9670   31.0500   38.2760 H   0  0  0  0  0  0  0  0  0  0  0  0
   40.4050   29.0840   39.9730 C   0  0  0  0  0  0  0  0  0  0  0  0
   41.3720   28.5410   40.0770 H   0  0  0  0  0  0  0  0  0  0  0  0
   39.9840   29.2270   40.9760 H   0  0  0  0  0  0  0  0  0  0  0  0
   39.4650   28.3030   39.1210 C   0  0  0  0  0  0  0  0  0  0  0  0
   38.4550   28.7190   39.1180 H   0  0  0  0  0  0  0  0  0  0  0  0
   39.7980   28.3110   38.0460 H   0  0  0  0  0  0  0  0  0  0  0  0
   40.4070   25.1200   40.8820 C   0  0  0  0  0  0  0  0  0  0  0  0
   40.4240   26.4560   40.4340 C   0  0  0  0  0  0  0  0  0  0  0  0
   39.4340   26.8930   39.5860 C   0  0  0  0  0  0  0  0  0  0  0  0
   38.4860   26.0140   39.2220 N   0  0  0  0  0  0  0  0  0  0  0  0
   38.4830   24.7370   39.6610 C   0  0  0  0  0  0  0  0  0  0  0  0
   39.4410   24.2820   40.4920 N   0  0  0  0  0  0  0  0  0  0  0  0
   41.2050   24.8090   41.5530 H   0  0  0  0  0  0  0  0  0  0  0  0
   41.1980   27.1110   40.7520 H   0  0  0  0  0  0  0  0  0  0  0  0
   37.7250   24.0160   39.3750 H   0  0  0  0  0  0  0  0  0  0  0  0
   39.0350   31.5850   40.3020 O   0  0  0  0  0  0  0  0  0  0  0  0
   36.9040   31.0010   38.8390 O   0  0  0  0  0  0  0  0  0  0  0  0
   37.3610   31.5610   40.1700 P   0  0  2  0  0  0  0  0  0  0  0  0
   36.8540   33.1960   40.1880 O   0  0  0  0  0  0  0  0  0  0  0  0
   37.3700   33.7190   40.8530 H   0  0  0  0  0  0  0  0  0  0  0  0
   36.6240   30.7750   41.4570 O   0  0  0  0  0  0  0  0  0  0  0  0
   35.3250   28.5070   40.8080 F   0  0  0  0  0  0  0  0  0  0  0  0
   36.4140   28.4930   41.6390 C   0  0  0  0  0  0  0  0  0  0  0  0
   37.1300   29.6140   42.0160 C   0  0  0  0  0  0  0  0  0  0  0  0
   38.2110   29.4500   42.8650 C   0  0  0  0  0  0  0  0  0  0  0  0
   38.7090   30.3720   43.1050 H   0  0  0  0  0  0  0  0  0  0  0  0
   38.5630   28.2060   43.3200 C   0  0  0  0  0  0  0  0  0  0  0  0
   39.4330   28.1660   43.9890 H   0  0  0  0  0  0  0  0  0  0  0  0
   37.8640   27.0740   42.9580 C   0  0  0  0  0  3  0  0  0  0  0  0
   36.7700   27.2270   42.1020 C   0  0  0  0  0  3  0  0  0  0  0  0
  1 16  1  0  0  0  0
  2  8  1  0  0  0  0
  2  1  1  0  0  0  0
  3  4  1  0  0  0  0
  3  2  1  0  0  0  0
  4  5  1  0  0  0  0
  5 13  1  0  0  0  0
  5  6  1  0  0  0  0
  5 14  1  0  0  0  0
  6 15  1  6  0  0  0
  6  1  1  0  0  0  0
  6 31  1  0  0  0  0
  7  2  1  0  0  0  0
  9  3  1  0  0  0  0
 10  3  1  0  0  0  0
 11  4  1  0  0  0  0
 12  4  1  0  0  0  0
 16 17  1  0  0  0  0
 16 18  1  0  0  0  0
 19 24  1  0  0  0  0
 19 16  1  0  0  0  0
 20 19  1  0  0  0  0
 21 19  1  0  0  0  0
 22 28  1  0  0  0  0
 23 29  1  0  0  0  0
 23 22  2  0  0  0  0
 24 23  1  0  0  0  0
 25 24  2  0  0  0  0
 25 26  1  0  0  0  0
 26 27  2  0  0  0  0
 27 22  1  0  0  0  0
 30 26  1  0  0  0  0
 33 32  2  6  0  0  0
 33 34  1  0  0  0  0
 33 31  1  0  0  0  0
 33 36  1  0  0  0  0
 34 35  1  0  0  0  0
 36 39  1  0  0  0  0
 37 38  1  0  0  0  0
 38 39  2  0  0  0  0
 38 45  1  0  0  0  0
 39 40  1  0  0  0  0
 40 41  1  0  0  0  0
 40 42  2  0  0  0  0
 42 43  1  0  0  0  0
 44 42  1  0  0  0  0
 45 44  2  0  0  0  0
M  END
>  <minimizedAffinity>
-5.21419001

$$$$

 OpenBabel03252509023D

 45 47  0  0  1  0  0  0  0  0999 V2000
   37.0810   26.5280   39.9700 N   0  0  0  0  0  0  0  0  0  0  0  0
   37.5160   25.2050   40.2300 C   0  0  0  0  0  0  0  0  0  0  0  0
   38.4560   25.0670   41.4130 C   0  0  0  0  0  0  0  0  0  0  0  0
   38.1530   26.0170   42.5480 C   0  0  0  0  0  0  0  0  0  0  0  0
   36.9430   26.8680   42.2650 C   0  0  0  0  0  0  0  0  0  0  0  0
   37.2840   27.5450   40.8880 C   0  0  2  0  0  0  0  0  0  0  0  0
   37.9590   24.6700   39.3910 H   0  0  0  0  0  0  0  0  0  0  0  0
   36.6060   24.6170   40.5100 H   0  0  0  0  0  0  0  0  0  0  0  0
   38.5280   24.0200   41.7040 H   0  0  0  0  0  0  0  0  0  0  0  0
   39.4600   25.3700   41.0120 H   0  0  0  0  0  0  0  0  0  0  0  0
   39.0110   26.6220   42.8570 H   0  0  0  0  0  0  0  0  0  0  0  0
   37.8850   25.3690   43.4190 H   0  0  0  0  0  0  0  0  0  0  0  0
   36.8810   27.6370   43.0360 H   0  0  0  0  0  0  0  0  0  0  0  0
   36.0530   26.2410   42.1310 H   0  0  0  0  0  0  0  0  0  0  0  0
   38.3060   27.9550   41.0140 H   0  0  0  0  0  0  0  0  0  0  0  0
   37.0130   26.8580   38.5770 C   0  0  0  0  0  0  0  0  0  0  0  0
   37.0000   27.9690   38.5100 H   0  0  0  0  0  0  0  0  0  0  0  0
   37.8870   26.4920   38.0250 H   0  0  0  0  0  0  0  0  0  0  0  0
   35.7610   26.2920   38.0000 C   0  0  0  0  0  0  0  0  0  0  0  0
   35.9370   25.3840   37.4200 H   0  0  0  0  0  0  0  0  0  0  0  0
   35.0430   25.9950   38.8150 H   0  0  0  0  0  0  0  0  0  0  0  0
   33.3970   28.9880   36.8750 C   0  0  0  0  0  0  0  0  0  0  0  0
   34.0310   28.0120   37.6680 C   0  0  0  0  0  0  0  0  0  0  0  0
   35.1010   27.3190   37.1530 C   0  0  0  0  0  0  0  0  0  0  0  0
   35.4950   27.6090   35.9030 N   0  0  0  0  0  0  0  0  0  0  0  0
   34.8760   28.5480   35.1550 C   0  0  0  0  0  0  0  0  0  0  0  0
   33.8250   29.2420   35.6340 N   0  0  0  0  0  0  0  0  0  0  0  0
   32.5540   29.5170   37.3150 H   0  0  0  0  0  0  0  0  0  0  0  0
   33.6800   27.8190   38.6530 H   0  0  0  0  0  0  0  0  0  0  0  0
   35.1810   28.7940   34.1430 H   0  0  0  0  0  0  0  0  0  0  0  0
   36.2980   28.5210   40.8050 O   0  0  0  0  0  0  0  0  0  0  0  0
   37.8260   30.1220   42.2620 O   0  0  0  0  0  0  0  0  0  0  0  0
   36.9010   30.0670   41.0640 P   0  0  2  0  0  0  0  0  0  0  0  0
   35.5560   31.0460   41.4660 O   0  0  0  0  0  0  0  0  0  0  0  0
   34.7730   30.8220   40.9010 H   0  0  0  0  0  0  0  0  0  0  0  0
   37.6240   30.7150   39.6950 O   0  0  0  0  0  0  0  0  0  0  0  0
   40.1560   30.4410   38.8210 F   0  0  0  0  0  0  0  0  0  0  0  0
   39.6800   31.6470   39.2630 C   0  0  0  0  0  0  0  0  0  0  0  0
   38.3960   31.8640   39.7250 C   0  0  0  0  0  0  0  0  0  0  0  0
   38.0520   33.1390   40.1410 C   0  0  0  0  0  0  0  0  0  0  0  0
   37.0360   33.2160   40.4830 H   0  0  0  0  0  0  0  0  0  0  0  0
   38.9640   34.1610   40.0950 C   0  0  0  0  0  0  0  0  0  0  0  0
   38.6080   35.1400   40.4440 H   0  0  0  0  0  0  0  0  0  0  0  0
   40.2500   33.9690   39.6380 C   0  0  0  0  0  3  0  0  0  0  0  0
   40.6090   32.6850   39.2160 C   0  0  0  0  0  3  0  0  0  0  0  0
  1  2  1  0  0  0  0
  1  6  1  0  0  0  0
  2  8  1  0  0  0  0
  2  3  1  0  0  0  0
  3  9  1  0  0  0  0
  3  4  1  0  0  0  0
  4 11  1  0  0  0  0
  4 12  1  0  0  0  0
  5  4  1  0  0  0  0
  5 13  1  0  0  0  0
  6 15  1  6  0  0  0
  6  5  1  0  0  0  0
  7  2  1  0  0  0  0
 10  3  1  0  0  0  0
 14  5  1  0  0  0  0
 16  1  1  0  0  0  0
 17 16  1  0  0  0  0
 18 16  1  0  0  0  0
 19 16  1  0  0  0  0
 19 21  1  0  0  0  0
 20 19  1  0  0  0  0
 22 28  1  0  0  0  0
 22 23  1  0  0  0  0
 23 29  1  0  0  0  0
 24 23  2  0  0  0  0
 24 19  1  0  0  0  0
 25 24  1  0  0  0  0
 26 27  1  0  0  0  0
 26 25  2  0  0  0  0
 27 22  2  0  0  0  0
 30 26  1  0  0  0  0
 31  6  1  0  0  0  0
 31 33  1  0  0  0  0
 33 34  1  0  0  0  0
 33 32  2  1  0  0  0
 35 34  1  0  0  0  0
 36 39  1  0  0  0  0
 36 33  1  0  0  0  0
 37 38  1  0  0  0  0
 38 39  1  0  0  0  0
 39 40  2  0  0  0  0
 40 41  1  0  0  0  0
 42 40  1  0  0  0  0
 42 43  1  0  0  0  0
 44 42  2  0  0  0  0
 45 38  2  0  0  0  0
 45 44  1  0  0  0  0
M  END
>  <minimizedAffinity>
-5.19498348

$$$$

 OpenBabel03252509023D

 45 47  0  0  1  0  0  0  0  0999 V2000
   37.1120   30.9280   39.8540 N   0  0  0  0  0  0  0  0  0  0  0  0
   37.0300   31.4200   38.5280 C   0  0  0  0  0  0  0  0  0  0  0  0
   36.7890   30.3580   37.4710 C   0  0  0  0  0  0  0  0  0  0  0  0
   35.8960   29.2300   37.9310 C   0  0  0  0  0  0  0  0  0  0  0  0
   35.4040   29.4370   39.3400 C   0  0  0  0  0  0  0  0  0  0  0  0
   36.7280   29.6340   40.1650 C   0  0  2  0  0  0  0  0  0  0  0  0
   37.8620   32.0390   38.1910 H   0  0  0  0  0  0  0  0  0  0  0  0
   36.1300   32.0840   38.4860 H   0  0  0  0  0  0  0  0  0  0  0  0
   36.4790   30.8320   36.5400 H   0  0  0  0  0  0  0  0  0  0  0  0
   37.8000   29.9040   37.2920 H   0  0  0  0  0  0  0  0  0  0  0  0
   36.3370   28.2370   37.7970 H   0  0  0  0  0  0  0  0  0  0  0  0
   34.9930   29.2730   37.2730 H   0  0  0  0  0  0  0  0  0  0  0  0
   34.9130   28.5200   39.6670 H   0  0  0  0  0  0  0  0  0  0  0  0
   34.8130   30.3580   39.4100 H   0  0  0  0  0  0  0  0  0  0  0  0
   37.3840   28.7940   39.8620 H   0  0  0  0  0  0  0  0  0  0  0  0
   38.1220   31.5600   40.6510 C   0  0  0  0  0  0  0  0  0  0  0  0
   38.0660   32.6510   40.4340 H   0  0  0  0  0  0  0  0  0  0  0  0
   37.9480   31.4160   41.7240 H   0  0  0  0  0  0  0  0  0  0  0  0
   39.4570   31.0250   40.2640 C   0  0  0  0  0  0  0  0  0  0  0  0
   39.7950   30.2210   40.9210 H   0  0  0  0  0  0  0  0  0  0  0  0
   39.4270   30.5790   39.2310 H   0  0  0  0  0  0  0  0  0  0  0  0
   42.4020   33.1620   41.2050 C   0  0  0  0  0  0  0  0  0  0  0  0
   41.4560   32.1180   41.1960 C   0  0  0  0  0  0  0  0  0  0  0  0
   40.4490   32.1320   40.2610 C   0  0  0  0  0  0  0  0  0  0  0  0
   40.4150   33.1520   39.3880 N   0  0  0  0  0  0  0  0  0  0  0  0
   41.3300   34.1450   39.4090 C   0  0  0  0  0  0  0  0  0  0  0  0
   42.3270   34.1570   40.3150 N   0  0  0  0  0  0  0  0  0  0  0  0
   43.1860   33.1180   41.9580 H   0  0  0  0  0  0  0  0  0  0  0  0
   41.5270   31.3330   41.9090 H   0  0  0  0  0  0  0  0  0  0  0  0
   41.3170   34.9760   38.7120 H   0  0  0  0  0  0  0  0  0  0  0  0
   36.2600   29.5350   41.4700 O   0  0  0  0  0  0  0  0  0  0  0  0
   36.3180   27.4170   43.0620 O   0  0  0  0  0  0  0  0  0  0  0  0
   37.1750   28.4770   42.4010 P   0  0  2  0  0  0  0  0  0  0  0  0
   37.8360   29.4070   43.6770 O   0  0  0  0  0  0  0  0  0  0  0  0
   38.1380   30.2920   43.3490 H   0  0  0  0  0  0  0  0  0  0  0  0
   38.4450   27.7960   41.5420 O   0  0  0  0  0  0  0  0  0  0  0  0
   40.7250   28.8840   42.4750 F   0  0  0  0  0  0  0  0  0  0  0  0
   40.4880   27.5380   42.5620 C   0  0  0  0  0  0  0  0  0  0  0  0
   39.3450   26.9090   42.1070 C   0  0  0  0  0  0  0  0  0  0  0  0
   39.2420   25.5370   42.2620 C   0  0  0  0  0  0  0  0  0  0  0  0
   38.3210   25.1320   41.8810 H   0  0  0  0  0  0  0  0  0  0  0  0
   40.2490   24.8210   42.8540 C   0  0  0  0  0  0  0  0  0  0  0  0
   40.0850   23.7370   42.9370 H   0  0  0  0  0  0  0  0  0  0  0  0
   41.3990   25.4260   43.3160 C   0  0  0  0  0  3  0  0  0  0  0  0
   41.5140   26.8100   43.1640 C   0  0  0  0  0  3  0  0  0  0  0  0
  1  6  1  0  0  0  0
  1 16  1  0  0  0  0
  2  1  1  0  0  0  0
  3  4  1  0  0  0  0
  3  2  1  0  0  0  0
  4  5  1  0  0  0  0
  5 14  1  0  0  0  0
  5 13  1  0  0  0  0
  5  6  1  0  0  0  0
  6 15  1  6  0  0  0
  6 31  1  0  0  0  0
  7  2  1  0  0  0  0
  8  2  1  0  0  0  0
  9  3  1  0  0  0  0
 10  3  1  0  0  0  0
 11  4  1  0  0  0  0
 12  4  1  0  0  0  0
 16 18  1  0  0  0  0
 17 16  1  0  0  0  0
 19 16  1  0  0  0  0
 19 20  1  0  0  0  0
 21 19  1  0  0  0  0
 22 28  1  0  0  0  0
 23 22  1  0  0  0  0
 23 29  1  0  0  0  0
 24 19  1  0  0  0  0
 24 23  2  0  0  0  0
 25 26  2  0  0  0  0
 25 24  1  0  0  0  0
 26 27  1  0  0  0  0
 27 22  2  0  0  0  0
 30 26  1  0  0  0  0
 31 33  1  0  0  0  0
 33 32  2  1  0  0  0
 33 34  1  0  0  0  0
 35 34  1  0  0  0  0
 36 39  1  0  0  0  0
 36 33  1  0  0  0  0
 37 38  1  0  0  0  0
 38 45  1  0  0  0  0
 39 40  1  0  0  0  0
 39 38  2  0  0  0  0
 40 42  2  0  0  0  0
 41 40  1  0  0  0  0
 42 43  1  0  0  0  0
 42 44  1  0  0  0  0
 45 44  2  0  0  0  0
M  END
>  <minimizedAffinity>
-5.16613913

$$$$
