
 OpenBabel03252509073D

 41 44  0  0  0  0  0  0  0  0999 V2000
   47.6670   31.8140   38.8850 C   0  0  0  0  0  0  0  0  0  0  0  0
   47.2150   33.1040   38.9130 C   0  0  0  0  0  0  0  0  0  0  0  0
   47.8390   34.0710   38.1400 C   0  0  0  0  0  0  0  0  0  0  0  0
   48.9090   33.7360   37.3460 C   0  0  0  0  0  0  0  0  0  0  0  0
   49.4000   32.4350   37.2870 C   0  0  0  0  0  0  0  0  0  0  0  0
   48.7550   31.4780   38.0750 C   0  0  0  0  0  0  0  0  0  0  0  0
   47.5000   35.1010   38.1460 H   0  0  0  0  0  0  0  0  0  0  0  0
   49.3880   34.4770   36.7530 H   0  0  0  0  0  0  0  0  0  0  0  0
   50.2230   32.0980   36.6970 H   0  0  0  0  0  0  0  0  0  0  0  0
   49.1190   30.4450   38.0500 H   0  0  0  0  0  0  0  0  0  0  0  0
   45.4080   35.2880   43.2260 Cl  0  0  0  0  0  0  0  0  0  0  0  0
   45.2340   34.5310   41.6640 C   0  0  0  0  0  0  0  0  0  0  0  0
   46.3150   34.1430   40.9460 C   0  0  0  0  0  0  0  0  0  0  0  0
   46.0800   33.5560   39.7080 C   0  0  0  0  0  0  0  0  0  0  0  0
   44.8100   33.3730   39.2190 C   0  0  0  0  0  0  0  0  0  0  0  0
   43.7360   33.7640   39.9470 C   0  0  0  0  0  0  0  0  0  0  0  0
   43.9550   34.3520   41.1890 C   0  0  0  0  0  0  0  0  0  0  0  0
   44.6950   32.9130   38.2490 H   0  0  0  0  0  0  0  0  0  0  0  0
   42.7490   33.6080   39.5430 H   0  0  0  0  0  0  0  0  0  0  0  0
   43.0670   34.6490   41.7370 H   0  0  0  0  0  0  0  0  0  0  0  0
   49.5860   35.7670   41.9170 C   0  0  0  0  0  0  0  0  0  0  0  0
   48.3090   35.5720   41.3820 C   0  0  0  0  0  0  0  0  0  0  0  0
   47.6470   34.3700   41.4810 C   0  0  0  0  0  0  0  0  0  0  0  0
   48.3450   33.4360   42.1260 N   0  0  0  0  0  0  0  0  0  0  0  0
   49.5620   33.5840   42.6490 C   0  0  0  0  0  0  0  0  0  0  0  0
   50.1700   34.7560   42.5360 N   0  0  0  0  0  0  0  0  0  0  0  0
   50.0860   36.7140   41.8280 H   0  0  0  0  0  0  0  0  0  0  0  0
   47.8340   36.4130   40.8710 H   0  0  0  0  0  0  0  0  0  0  0  0
   49.9090   32.6710   43.1240 H   0  0  0  0  0  0  0  0  0  0  0  0
   46.9200   30.5980   39.7750 S   0  0  0  0  0  0  0  0  0  0  0  0
   45.6220   30.1450   39.1270 O   0  0  0  0  0  0  0  0  0  0  0  0
   47.8610   29.3600   39.5640 O   0  0  0  0  0  0  0  0  0  0  0  0
   48.4940   30.1840   42.5080 F   0  0  0  0  0  0  0  0  0  0  0  0
   47.1860   30.4980   42.6500 C   0  0  0  0  0  0  0  0  0  0  0  0
   46.5660   30.5630   41.4240 C   0  0  0  0  0  0  0  0  0  0  0  0
   45.1720   30.7260   41.7350 C   0  0  0  0  0  0  0  0  0  0  0  0
   44.4310   30.8030   40.9040 H   0  0  0  0  0  0  0  0  0  0  0  0
   44.5180   30.8120   42.9740 C   0  0  0  0  0  0  0  0  0  0  0  0
   43.4580   30.9350   43.0460 H   0  0  0  0  0  0  0  0  0  0  0  0
   45.3660   30.7240   44.0510 C   0  0  0  0  0  3  0  0  0  0  0  0
   46.7240   30.5630   43.9280 C   0  0  0  0  0  3  0  0  0  0  0  0
  1  2  1  0  0  0  0
  1 30  1  0  0  0  0
  2 14  1  0  0  0  0
  3  7  1  0  0  0  0
  3  2  2  0  0  0  0
  4  3  1  0  0  0  0
  5  4  2  0  0  0  0
  5  6  1  0  0  0  0
  6  1  2  0  0  0  0
  8  4  1  0  0  0  0
  9  5  1  0  0  0  0
 10  6  1  0  0  0  0
 12 11  1  0  0  0  0
 13 23  1  0  0  0  0
 13 12  2  0  0  0  0
 14 13  1  0  0  0  0
 15 14  2  0  0  0  0
 15 16  1  0  0  0  0
 16 17  2  0  0  0  0
 17 12  1  0  0  0  0
 17 20  1  0  0  0  0
 18 15  1  0  0  0  0
 19 16  1  0  0  0  0
 21 26  1  0  0  0  0
 22 23  1  0  0  0  0
 22 21  2  0  0  0  0
 23 24  2  0  0  0  0
 24 25  1  0  0  0  0
 25 29  1  0  0  0  0
 26 25  2  0  0  0  0
 27 21  1  0  0  0  0
 28 22  1  0  0  0  0
 30 35  1  0  0  0  0
 31 30  2  0  0  0  0
 32 30  2  0  0  0  0
 33 34  1  0  0  0  0
 34 41  1  0  0  0  0
 35 36  1  0  0  0  0
 35 34  2  0  0  0  0
 36 38  2  0  0  0  0
 37 36  1  0  0  0  0
 38 39  1  0  0  0  0
 38 40  1  0  0  0  0
 41 40  2  0  0  0  0
M  END
>  <minimizedAffinity>
-4.81642437

>  <minimizedRMSD>
1.15624905

$$$$
