
     RDKit          3D

 42 45  0  0  0  0  0  0  0  0999 V2000
   46.4544   33.8632   43.2533 C   0  0  0  0  0  0  0  0  0  0  0  0
   45.7434   34.8449   42.4337 C   0  0  0  0  0  0  0  0  0  0  0  0
   45.3269   36.0678   43.1689 C   0  0  0  0  0  0  0  0  0  0  0  0
   44.5409   35.7751   44.4393 C   0  0  0  0  0  0  0  0  0  0  0  0
   44.9841   34.5138   45.1438 C   0  0  0  0  0  0  0  0  0  0  0  0
   46.4070   34.1654   44.7617 C   0  0  0  0  0  0  0  0  0  0  0  0
   47.8809   33.7053   42.9003 C   0  0  0  0  0  0  0  0  0  0  0  0
   48.5863   34.9049   42.7195 C   0  0  0  0  0  0  0  0  0  0  0  0
   49.9472   34.8692   42.3873 C   0  0  0  0  0  0  0  0  0  0  0  0
   50.5065   33.6244   42.2595 N   0  0  0  0  0  0  0  0  0  0  0  0
   49.7892   32.4761   42.4428 C   0  0  0  0  0  0  0  0  0  0  0  0
   48.4967   32.5306   42.7581 N   0  0  0  0  0  0  0  0  0  0  0  0
   50.5236   31.2283   42.2732 C   0  0  0  0  0  0  0  0  0  0  0  0
   51.5724   31.2563   41.4061 N   0  0  0  0  0  0  0  0  0  0  0  0
   52.1396   30.0298   41.3657 C   0  0  0  0  0  0  0  0  0  0  0  0
   51.4201   29.2441   42.2251 N   0  0  0  0  0  0  0  0  0  0  0  0
   50.4509   29.9708   42.7667 N   0  0  0  0  0  0  0  0  0  0  0  0
   46.0070   32.8271   43.1935 H   0  0  0  0  0  0  0  0  0  0  0  0
   46.2592   35.1575   41.5240 H   0  0  0  0  0  0  0  0  0  0  0  0
   44.7907   34.3606   42.0671 H   0  0  0  0  0  0  0  0  0  0  0  0
   46.0954   36.8164   43.3671 H   0  0  0  0  0  0  0  0  0  0  0  0
   44.5791   36.5931   42.5029 H   0  0  0  0  0  0  0  0  0  0  0  0
   43.4507   35.7275   44.2563 H   0  0  0  0  0  0  0  0  0  0  0  0
   44.7173   36.6164   45.1420 H   0  0  0  0  0  0  0  0  0  0  0  0
   44.8581   34.5485   46.2219 H   0  0  0  0  0  0  0  0  0  0  0  0
   44.3432   33.6865   44.7537 H   0  0  0  0  0  0  0  0  0  0  0  0
   47.0418   35.0137   45.0373 H   0  0  0  0  0  0  0  0  0  0  0  0
   46.6829   33.2736   45.3246 H   0  0  0  0  0  0  0  0  0  0  0  0
   48.2309   35.9199   42.7991 H   0  0  0  0  0  0  0  0  0  0  0  0
   50.5548   35.7477   42.2327 H   0  0  0  0  0  0  0  0  0  0  0  0
   52.9924   29.7390   40.7689 H   0  0  0  0  0  0  0  0  0  0  0  0
   50.0082   27.1135   41.0167 F   0  0  0  0  0  0  0  0  0  0  0  0
   50.9510   26.8381   41.9163 C   0  0  0  0  0  0  0  0  0  0  0  0
   51.6477   27.8689   42.5137 C   0  0  0  0  0  0  0  0  0  0  0  0
   52.6114   27.5147   43.4372 C   0  0  0  0  0  0  0  0  0  0  0  0
   53.1634   28.3310   43.9105 H   0  0  0  0  0  0  0  0  0  0  0  0
   52.9020   26.2156   43.7808 C   0  0  0  0  0  0  0  0  0  0  0  0
   53.6909   26.0664   44.5291 H   0  0  0  0  0  0  0  0  0  0  0  0
   52.2075   25.1949   43.1850 C   0  0  0  0  0  0  0  0  0  0  0  0
   51.2276   25.5165   42.2480 C   0  0  0  0  0  0  0  0  0  0  0  0
   52.4435   24.1751   43.4620 H   0  0  0  0  0  0  0  0  0  0  0  0
   50.7140   24.6772   41.8120 H   0  0  0  0  0  0  0  0  0  0  0  0
  1  6  1  0
  2  3  1  0
  2  1  1  0
  3  4  1  0
  4  5  1  0
  6  5  1  0
  7  1  1  0
  8  7  2  0
  9  8  1  0
 10  9  2  0
 10 11  1  0
 11 12  2  0
 12  7  1  0
 13 11  1  0
 13 17  2  0
 14 13  1  0
 15 14  2  0
 15 16  1  0
 16 17  1  0
  1 18  1  0
  2 19  1  0
  2 20  1  0
  3 21  1  0
  3 22  1  0
  4 23  1  0
  4 24  1  0
  5 25  1  0
  5 26  1  0
  6 27  1  0
  6 28  1  0
  8 29  1  0
  9 30  1  0
 15 31  1  0
 32 33  1  0
 33 34  2  0
 34 35  1  0
 35 36  1  0
 35 37  2  0
 37 38  1  0
 37 39  1  0
 39 40  2  0
 40 33  1  0
 39 41  1  0
 40 42  1  0
 16 34  1  0
M  ISO  8  18  13  19  13  20  13  21  13  22  13  23  13  24  13  25  13
M  ISO  8  26  13  27  13  28  13  29  14  30  14  31  14  36  15  38  16
M  END
>  <DihAtoms>  (1) 
14,15,33,32

>  <DihDeg>  (1) 
-22.888832026380143

$$$$
