
 OpenBabel03252509083D

 41 44  0  0  0  0  0  0  0  0999 V2000
   47.7880   31.8900   39.0780 C   0  0  0  0  0  0  0  0  0  0  0  0
   47.2180   33.1250   38.9400 C   0  0  0  0  0  0  0  0  0  0  0  0
   47.7360   34.0250   38.0220 C   0  0  0  0  0  0  0  0  0  0  0  0
   48.8200   33.6800   37.2520 C   0  0  0  0  0  0  0  0  0  0  0  0
   49.4300   32.4340   37.3600 C   0  0  0  0  0  0  0  0  0  0  0  0
   48.8900   31.5430   38.2920 C   0  0  0  0  0  0  0  0  0  0  0  0
   47.3030   35.0110   37.8950 H   0  0  0  0  0  0  0  0  0  0  0  0
   49.2180   34.3710   36.5480 H   0  0  0  0  0  0  0  0  0  0  0  0
   50.2720   32.0920   36.7990 H   0  0  0  0  0  0  0  0  0  0  0  0
   49.3480   30.5540   38.4000 H   0  0  0  0  0  0  0  0  0  0  0  0
   45.2790   35.3650   43.1650 Cl  0  0  0  0  0  0  0  0  0  0  0  0
   45.1530   34.5790   41.6130 C   0  0  0  0  0  0  0  0  0  0  0  0
   46.2550   34.1890   40.9300 C   0  0  0  0  0  0  0  0  0  0  0  0
   46.0580   33.5800   39.6970 C   0  0  0  0  0  0  0  0  0  0  0  0
   44.8040   33.3760   39.1770 C   0  0  0  0  0  0  0  0  0  0  0  0
   43.7070   33.7700   39.8710 C   0  0  0  0  0  0  0  0  0  0  0  0
   43.8880   34.3810   41.1070 C   0  0  0  0  0  0  0  0  0  0  0  0
   44.7180   32.8990   38.2130 H   0  0  0  0  0  0  0  0  0  0  0  0
   42.7330   33.5980   39.4430 H   0  0  0  0  0  0  0  0  0  0  0  0
   42.9840   34.6790   41.6270 H   0  0  0  0  0  0  0  0  0  0  0  0
   49.5510   35.8050   41.8300 C   0  0  0  0  0  0  0  0  0  0  0  0
   48.2920   35.5860   41.2640 C   0  0  0  0  0  0  0  0  0  0  0  0
   47.5710   34.4380   41.4960 C   0  0  0  0  0  0  0  0  0  0  0  0
   48.1950   33.5790   42.3010 N   0  0  0  0  0  0  0  0  0  0  0  0
   49.3920   33.7520   42.8600 C   0  0  0  0  0  0  0  0  0  0  0  0
   50.0590   34.8700   42.6150 N   0  0  0  0  0  0  0  0  0  0  0  0
   50.0980   36.7090   41.6350 H   0  0  0  0  0  0  0  0  0  0  0  0
   47.8800   36.3640   40.6150 H   0  0  0  0  0  0  0  0  0  0  0  0
   49.6750   32.9030   43.4770 H   0  0  0  0  0  0  0  0  0  0  0  0
   47.1730   30.7490   40.1490 S   0  0  0  0  0  0  0  0  0  0  0  0
   47.3520   29.3340   39.6260 O   0  0  0  0  0  0  0  0  0  0  0  0
   48.1760   30.8010   41.3550 O   0  0  0  0  0  0  0  0  0  0  0  0
   45.9130   31.4520   42.9850 F   0  0  0  0  0  0  0  0  0  0  0  0
   45.0160   31.0790   42.0430 C   0  0  0  0  0  0  0  0  0  0  0  0
   45.6540   30.7030   40.8850 C   0  0  0  0  0  0  0  0  0  0  0  0
   44.6090   30.1730   40.0530 C   0  0  0  0  0  0  0  0  0  0  0  0
   44.8600   29.7860   39.0370 H   0  0  0  0  0  0  0  0  0  0  0  0
   43.2310   30.0410   40.2930 C   0  0  0  0  0  0  0  0  0  0  0  0
   42.5690   29.6210   39.5660 H   0  0  0  0  0  0  0  0  0  0  0  0
   42.8430   30.4970   41.5280 C   0  0  0  0  0  3  0  0  0  0  0  0
   43.7170   31.0300   42.4450 C   0  0  0  0  0  3  0  0  0  0  0  0
  1 30  1  0  0  0  0
  2  1  1  0  0  0  0
  2 14  1  0  0  0  0
  3  2  2  0  0  0  0
  4  5  2  0  0  0  0
  4  3  1  0  0  0  0
  5  6  1  0  0  0  0
  6 10  1  0  0  0  0
  6  1  2  0  0  0  0
  7  3  1  0  0  0  0
  8  4  1  0  0  0  0
  9  5  1  0  0  0  0
 12 11  1  0  0  0  0
 13 23  1  0  0  0  0
 13 12  2  0  0  0  0
 14 13  1  0  0  0  0
 15 14  2  0  0  0  0
 15 16  1  0  0  0  0
 16 17  2  0  0  0  0
 17 12  1  0  0  0  0
 17 20  1  0  0  0  0
 18 15  1  0  0  0  0
 19 16  1  0  0  0  0
 21 26  1  0  0  0  0
 22 23  1  0  0  0  0
 22 21  2  0  0  0  0
 23 24  2  0  0  0  0
 24 25  1  0  0  0  0
 25 29  1  0  0  0  0
 26 25  2  0  0  0  0
 27 21  1  0  0  0  0
 28 22  1  0  0  0  0
 30 35  1  0  0  0  0
 30 32  2  0  0  0  0
 31 30  2  0  0  0  0
 34 41  1  0  0  0  0
 34 33  1  0  0  0  0
 35 34  2  0  0  0  0
 36 38  2  0  0  0  0
 36 35  1  0  0  0  0
 37 36  1  0  0  0  0
 38 40  1  0  0  0  0
 39 38  1  0  0  0  0
 40 41  2  0  0  0  0
M  END
>  <minimizedAffinity>
-4.77179432

>  <minimizedRMSD>
0.783984721

$$$$
