REMARK  Name = 
REMARK  4 active torsions:
REMARK  status: ('A' for Active; 'I' for Inactive)
REMARK    1  A    between atoms: C_3  and  C_10
REMARK    2  A    between atoms: C_4  and  C_15
REMARK    3  A    between atoms: C_14  and  S_20
REMARK    4  A    between atoms: S_20  and  C_35
REMARK                            x       y       z     vdW  Elec       q    Type
REMARK                         _______ _______ _______ _____ _____    ______ ____
ROOT
ATOM      1  C   UNL     1      47.797  31.872  38.997  0.00  0.00    +0.000 A 
ATOM      2  C   UNL     1      47.236  33.113  38.879  0.00  0.00    +0.000 A 
ATOM      3  C   UNL     1      47.767  34.028  37.983  0.00  0.00    +0.000 A 
ATOM      4  C   UNL     1      48.854  33.690  37.214  0.00  0.00    +0.000 A 
ATOM      5  C   UNL     1      49.455  32.438  37.302  0.00  0.00    +0.000 A 
ATOM      6  C   UNL     1      48.902  31.533  38.212  0.00  0.00    +0.000 A 
ATOM      7  H   UNL     1      47.341  35.019  37.872  0.00  0.00    +0.000 HD
ATOM      8  H   UNL     1      49.262  34.392  36.527  0.00  0.00    +0.000 HD
ATOM      9  H   UNL     1      50.298  32.102  36.740  0.00  0.00    +0.000 HD
ATOM     10  H   UNL     1      49.353  30.539  38.304  0.00  0.00    +0.000 HD
ENDROOT
BRANCH   2  14
ATOM     11 CL   UNL     1      45.281  35.281  43.135  0.00  0.00    +0.000 Cl
ATOM     12  C   UNL     1      45.161  34.528  41.566  0.00  0.00    +0.000 A 
ATOM     13  C   UNL     1      46.266  34.144  40.884  0.00  0.00    +0.000 A 
ATOM     14  C   UNL     1      46.074  33.561  39.637  0.00  0.00    +0.000 A 
ATOM     15  C   UNL     1      44.822  33.377  39.104  0.00  0.00    +0.000 A 
ATOM     16  C   UNL     1      43.723  33.765  39.797  0.00  0.00    +0.000 A 
ATOM     17  C   UNL     1      43.899  34.349  41.047  0.00  0.00    +0.000 A 
ATOM     18  H   UNL     1      44.740  32.920  38.130  0.00  0.00    +0.000 HD
ATOM     19  H   UNL     1      42.751  33.609  39.359  0.00  0.00    +0.000 HD
ATOM     20  H   UNL     1      42.993  34.643  41.566  0.00  0.00    +0.000 HD
BRANCH  13  23
ATOM     21  C   UNL     1      49.536  35.744  41.899  0.00  0.00    +0.000 A 
ATOM     22  C   UNL     1      48.279  35.547  41.320  0.00  0.00    +0.000 A 
ATOM     23  C   UNL     1      47.579  34.371  41.464  0.00  0.00    +0.000 A 
ATOM     24  N   UNL     1      48.221  33.464  42.199  0.00  0.00    +0.000 NA
ATOM     25  C   UNL     1      49.417  33.614  42.767  0.00  0.00    +0.000 A 
ATOM     26  N   UNL     1      50.063  34.760  42.608  0.00  0.00    +0.000 NA
ATOM     27  H   UNL     1      50.066  36.670  41.774  0.00  0.00    +0.000 HD
ATOM     28  H   UNL     1      47.851  36.365  40.735  0.00  0.00    +0.000 HD
ATOM     29  H   UNL     1      49.717  32.725  43.315  0.00  0.00    +0.000 HD
ENDBRANCH  13  23
ENDBRANCH   2  14
BRANCH   1  30
ATOM     30  S   UNL     1      47.166  30.714  40.041  0.00  0.00    +0.000 S 
ATOM     31  O   UNL     1      46.795  29.438  39.305  0.00  0.00    +0.000 OA
ATOM     32  O   UNL     1      48.409  30.273  40.892  0.00  0.00    +0.000 OA
BRANCH  30  35
ATOM     33  F   UNL     1      44.937  32.856  40.796  0.00  0.00    +0.000 F 
ATOM     34  C   UNL     1      44.879  31.705  41.503  0.00  0.00    +0.000 A 
ATOM     35  C   UNL     1      45.932  30.881  41.180  0.00  0.00    +0.000 A 
ATOM     36  C   UNL     1      45.842  29.796  42.118  0.00  0.00    +0.000 A 
ATOM     37  H   UNL     1      46.594  28.974  42.078  0.00  0.00    +0.000 HD
ATOM     38  C   UNL     1      44.920  29.558  43.151  0.00  0.00    +0.000 A 
ATOM     39  H   UNL     1      44.983  28.692  43.775  0.00  0.00    +0.000 HD
ATOM     40  C   UNL     1      43.959  30.532  43.265  0.00  0.00    +0.000 A 
ATOM     41  C   UNL     1      43.904  31.636  42.449  0.00  0.00    +0.000 A 
ENDBRANCH  30  35
ENDBRANCH   1  30
TORSDOF 4
