
 OpenBabel03252509073D

 41 44  0  0  0  0  0  0  0  0999 V2000
   47.6480   31.7450   39.2010 C   0  0  0  0  0  0  0  0  0  0  0  0
   47.1760   33.0210   39.0730 C   0  0  0  0  0  0  0  0  0  0  0  0
   47.7850   33.8970   38.1870 C   0  0  0  0  0  0  0  0  0  0  0  0
   48.8610   33.4840   37.4390 C   0  0  0  0  0  0  0  0  0  0  0  0
   49.3730   32.1940   37.5370 C   0  0  0  0  0  0  0  0  0  0  0  0
   48.7420   31.3300   38.4360 C   0  0  0  0  0  0  0  0  0  0  0  0
   47.4310   34.9150   38.0690 H   0  0  0  0  0  0  0  0  0  0  0  0
   49.3290   34.1560   36.7600 H   0  0  0  0  0  0  0  0  0  0  0  0
   50.2010   31.8010   36.9910 H   0  0  0  0  0  0  0  0  0  0  0  0
   49.1220   30.3070   38.5360 H   0  0  0  0  0  0  0  0  0  0  0  0
   45.3240   35.5630   43.1650 Cl  0  0  0  0  0  0  0  0  0  0  0  0
   45.1670   34.6850   41.6650 C   0  0  0  0  0  0  0  0  0  0  0  0
   46.2550   34.2290   41.0010 C   0  0  0  0  0  0  0  0  0  0  0  0
   46.0330   33.5490   39.8090 C   0  0  0  0  0  0  0  0  0  0  0  0
   44.7700   33.3420   39.3120 C   0  0  0  0  0  0  0  0  0  0  0  0
   43.6890   33.8030   39.9880 C   0  0  0  0  0  0  0  0  0  0  0  0
   43.8940   34.4850   41.1820 C   0  0  0  0  0  0  0  0  0  0  0  0
   44.6650   32.8080   38.3810 H   0  0  0  0  0  0  0  0  0  0  0  0
   42.7070   33.6270   39.5790 H   0  0  0  0  0  0  0  0  0  0  0  0
   43.0010   34.8350   41.6890 H   0  0  0  0  0  0  0  0  0  0  0  0
   49.5600   35.8590   41.8390 C   0  0  0  0  0  0  0  0  0  0  0  0
   48.2900   35.6350   41.2980 C   0  0  0  0  0  0  0  0  0  0  0  0
   47.5800   34.4820   41.5400 C   0  0  0  0  0  0  0  0  0  0  0  0
   48.2260   33.6230   42.3280 N   0  0  0  0  0  0  0  0  0  0  0  0
   49.4330   33.8000   42.8630 C   0  0  0  0  0  0  0  0  0  0  0  0
   50.0890   34.9230   42.6090 N   0  0  0  0  0  0  0  0  0  0  0  0
   50.0980   36.7670   41.6370 H   0  0  0  0  0  0  0  0  0  0  0  0
   47.8610   36.4140   40.6620 H   0  0  0  0  0  0  0  0  0  0  0  0
   49.7330   32.9500   43.4690 H   0  0  0  0  0  0  0  0  0  0  0  0
   46.9190   30.6340   40.2320 S   0  0  0  0  0  0  0  0  0  0  0  0
   45.5630   30.1900   39.7110 O   0  0  0  0  0  0  0  0  0  0  0  0
   47.7960   29.3430   40.0570 O   0  0  0  0  0  0  0  0  0  0  0  0
   44.5960   31.5050   42.2250 F   0  0  0  0  0  0  0  0  0  0  0  0
   45.6980   30.9990   42.8250 C   0  0  0  0  0  0  0  0  0  0  0  0
   46.6820   30.7400   41.8990 C   0  0  0  0  0  0  0  0  0  0  0  0
   47.8310   30.3830   42.6860 C   0  0  0  0  0  0  0  0  0  0  0  0
   48.7860   30.1250   42.1710 H   0  0  0  0  0  0  0  0  0  0  0  0
   47.9910   30.2910   44.0780 C   0  0  0  0  0  0  0  0  0  0  0  0
   48.9210   30.0070   44.5210 H   0  0  0  0  0  0  0  0  0  0  0  0
   46.8530   30.5960   44.7830 C   0  0  0  0  0  0  0  0  0  0  0  0
   45.6710   30.9600   44.1850 C   0  0  0  0  0  0  0  0  0  0  0  0
  1 30  1  0  0  0  0
  2  1  1  0  0  0  0
  2 14  1  0  0  0  0
  3  2  2  0  0  0  0
  4  5  2  0  0  0  0
  4  3  1  0  0  0  0
  5  6  1  0  0  0  0
  6 10  1  0  0  0  0
  6  1  2  0  0  0  0
  7  3  1  0  0  0  0
  8  4  1  0  0  0  0
  9  5  1  0  0  0  0
 12 11  1  0  0  0  0
 13 23  1  0  0  0  0
 13 12  2  0  0  0  0
 14 13  1  0  0  0  0
 15 14  2  0  0  0  0
 15 16  1  0  0  0  0
 16 17  2  0  0  0  0
 17 12  1  0  0  0  0
 17 20  1  0  0  0  0
 18 15  1  0  0  0  0
 19 16  1  0  0  0  0
 21 26  1  0  0  0  0
 22 23  1  0  0  0  0
 22 21  2  0  0  0  0
 23 24  2  0  0  0  0
 24 25  1  0  0  0  0
 25 29  1  0  0  0  0
 26 25  2  0  0  0  0
 27 21  1  0  0  0  0
 28 22  1  0  0  0  0
 30 35  1  0  0  0  0
 31 30  2  0  0  0  0
 32 30  2  0  0  0  0
 33 34  1  0  0  0  0
 34 41  1  0  0  0  0
 35 36  1  0  0  0  0
 35 34  2  0  0  0  0
 36 38  2  0  0  0  0
 37 36  1  0  0  0  0
 38 39  1  0  0  0  0
 38 40  1  0  0  0  0
 41 40  2  0  0  0  0
M  END
>  <minimizedAffinity>
-4.90520477

>  <minimizedRMSD>
1.22336614

$$$$
