
 OpenBabel03252509073D

 41 44  0  0  0  0  0  0  0  0999 V2000
   48.3450   31.7590   38.7190 C   0  0  0  0  0  0  0  0  0  0  0  0
   47.3740   32.6800   38.9940 C   0  0  0  0  0  0  0  0  0  0  0  0
   47.3180   33.8610   38.2690 C   0  0  0  0  0  0  0  0  0  0  0  0
   48.2340   34.1060   37.2760 C   0  0  0  0  0  0  0  0  0  0  0  0
   49.2390   33.1950   36.9630 C   0  0  0  0  0  0  0  0  0  0  0  0
   49.2750   32.0120   37.7070 C   0  0  0  0  0  0  0  0  0  0  0  0
   46.5580   34.6080   38.4700 H   0  0  0  0  0  0  0  0  0  0  0  0
   48.1920   35.0110   36.7200 H   0  0  0  0  0  0  0  0  0  0  0  0
   49.9840   33.3120   36.2080 H   0  0  0  0  0  0  0  0  0  0  0  0
   50.0540   31.2750   37.4840 H   0  0  0  0  0  0  0  0  0  0  0  0
   45.7640   33.4370   43.8390 Cl  0  0  0  0  0  0  0  0  0  0  0  0
   45.6010   32.8240   42.2130 C   0  0  0  0  0  0  0  0  0  0  0  0
   46.5680   33.0240   41.2870 C   0  0  0  0  0  0  0  0  0  0  0  0
   46.3480   32.5070   40.0150 C   0  0  0  0  0  0  0  0  0  0  0  0
   45.2010   31.8230   39.6960 C   0  0  0  0  0  0  0  0  0  0  0  0
   44.2400   31.6300   40.6320 C   0  0  0  0  0  0  0  0  0  0  0  0
   44.4470   32.1390   41.9100 C   0  0  0  0  0  0  0  0  0  0  0  0
   45.0890   31.4490   38.6900 H   0  0  0  0  0  0  0  0  0  0  0  0
   43.3500   31.0880   40.3590 H   0  0  0  0  0  0  0  0  0  0  0  0
   43.6530   31.9600   42.6270 H   0  0  0  0  0  0  0  0  0  0  0  0
   49.0470   35.8240   41.8330 C   0  0  0  0  0  0  0  0  0  0  0  0
   47.8920   35.1270   41.4650 C   0  0  0  0  0  0  0  0  0  0  0  0
   47.7620   33.7700   41.6480 C   0  0  0  0  0  0  0  0  0  0  0  0
   48.8360   33.2090   42.2020 N   0  0  0  0  0  0  0  0  0  0  0  0
   49.9530   33.8370   42.5660 C   0  0  0  0  0  0  0  0  0  0  0  0
   50.0440   35.1450   42.3750 N   0  0  0  0  0  0  0  0  0  0  0  0
   49.1290   36.8840   41.6800 H   0  0  0  0  0  0  0  0  0  0  0  0
   47.0730   35.6950   41.0160 H   0  0  0  0  0  0  0  0  0  0  0  0
   50.6790   33.1520   42.9950 H   0  0  0  0  0  0  0  0  0  0  0  0
   48.4320   30.2950   39.5430 S   0  0  0  0  0  0  0  0  0  0  0  0
   47.8400   30.4010   40.9380 O   0  0  0  0  0  0  0  0  0  0  0  0
   47.3910   29.3910   38.7930 O   0  0  0  0  0  0  0  0  0  0  0  0
   50.6150   28.8600   37.7270 F   0  0  0  0  0  0  0  0  0  0  0  0
   50.8030   28.7170   39.0580 C   0  0  0  0  0  0  0  0  0  0  0  0
   49.7660   29.2840   39.7600 C   0  0  0  0  0  0  0  0  0  0  0  0
   50.0060   28.9070   41.1270 C   0  0  0  0  0  0  0  0  0  0  0  0
   49.2960   29.2400   41.9200 H   0  0  0  0  0  0  0  0  0  0  0  0
   51.0400   28.1430   41.6930 C   0  0  0  0  0  0  0  0  0  0  0  0
   51.0850   27.9440   42.7430 H   0  0  0  0  0  0  0  0  0  0  0  0
   51.9580   27.6940   40.7760 C   0  0  0  0  0  3  0  0  0  0  0  0
   51.8730   27.9630   39.4310 C   0  0  0  0  0  3  0  0  0  0  0  0
  1  2  1  0  0  0  0
  1 30  1  0  0  0  0
  2 14  1  0  0  0  0
  3  7  1  0  0  0  0
  3  2  2  0  0  0  0
  4  3  1  0  0  0  0
  5  4  2  0  0  0  0
  5  6  1  0  0  0  0
  6  1  2  0  0  0  0
  8  4  1  0  0  0  0
  9  5  1  0  0  0  0
 10  6  1  0  0  0  0
 12 11  1  0  0  0  0
 13 23  1  0  0  0  0
 13 12  2  0  0  0  0
 14 13  1  0  0  0  0
 15 14  2  0  0  0  0
 15 16  1  0  0  0  0
 16 17  2  0  0  0  0
 17 12  1  0  0  0  0
 17 20  1  0  0  0  0
 18 15  1  0  0  0  0
 19 16  1  0  0  0  0
 21 26  1  0  0  0  0
 22 23  1  0  0  0  0
 22 21  2  0  0  0  0
 23 24  2  0  0  0  0
 24 25  1  0  0  0  0
 25 29  1  0  0  0  0
 26 25  2  0  0  0  0
 27 21  1  0  0  0  0
 28 22  1  0  0  0  0
 30 35  1  0  0  0  0
 30 31  2  0  0  0  0
 32 30  2  0  0  0  0
 33 34  1  0  0  0  0
 34 41  2  0  0  0  0
 34 35  1  0  0  0  0
 35 36  2  0  0  0  0
 36 38  1  0  0  0  0
 36 37  1  0  0  0  0
 38 39  1  0  0  0  0
 40 38  2  0  0  0  0
 41 40  1  0  0  0  0
M  END
>  <minimizedAffinity>
-3.93246245

>  <minimizedRMSD>
3.73789358

$$$$
