
 OpenBabel03252509083D

 41 44  0  0  0  0  0  0  0  0999 V2000
   47.6660   31.8140   38.8860 C   0  0  0  0  0  0  0  0  0  0  0  0
   47.2140   33.1040   38.9130 C   0  0  0  0  0  0  0  0  0  0  0  0
   47.8380   34.0700   38.1400 C   0  0  0  0  0  0  0  0  0  0  0  0
   48.9080   33.7350   37.3460 C   0  0  0  0  0  0  0  0  0  0  0  0
   49.4000   32.4340   37.2880 C   0  0  0  0  0  0  0  0  0  0  0  0
   48.7540   31.4770   38.0760 C   0  0  0  0  0  0  0  0  0  0  0  0
   47.5000   35.1000   38.1460 H   0  0  0  0  0  0  0  0  0  0  0  0
   49.3870   34.4760   36.7530 H   0  0  0  0  0  0  0  0  0  0  0  0
   50.2220   32.0960   36.6970 H   0  0  0  0  0  0  0  0  0  0  0  0
   49.1180   30.4440   38.0510 H   0  0  0  0  0  0  0  0  0  0  0  0
   45.4080   35.2890   43.2260 Cl  0  0  0  0  0  0  0  0  0  0  0  0
   45.2340   34.5310   41.6640 C   0  0  0  0  0  0  0  0  0  0  0  0
   46.3140   34.1430   40.9470 C   0  0  0  0  0  0  0  0  0  0  0  0
   46.0790   33.5560   39.7090 C   0  0  0  0  0  0  0  0  0  0  0  0
   44.8100   33.3720   39.2190 C   0  0  0  0  0  0  0  0  0  0  0  0
   43.7350   33.7640   39.9480 C   0  0  0  0  0  0  0  0  0  0  0  0
   43.9550   34.3520   41.1890 C   0  0  0  0  0  0  0  0  0  0  0  0
   44.6940   32.9120   38.2500 H   0  0  0  0  0  0  0  0  0  0  0  0
   42.7490   33.6080   39.5430 H   0  0  0  0  0  0  0  0  0  0  0  0
   43.0670   34.6490   41.7370 H   0  0  0  0  0  0  0  0  0  0  0  0
   49.5860   35.7670   41.9170 C   0  0  0  0  0  0  0  0  0  0  0  0
   48.3090   35.5720   41.3830 C   0  0  0  0  0  0  0  0  0  0  0  0
   47.6470   34.3700   41.4810 C   0  0  0  0  0  0  0  0  0  0  0  0
   48.3450   33.4360   42.1260 N   0  0  0  0  0  0  0  0  0  0  0  0
   49.5620   33.5840   42.6490 C   0  0  0  0  0  0  0  0  0  0  0  0
   50.1700   34.7550   42.5360 N   0  0  0  0  0  0  0  0  0  0  0  0
   50.0860   36.7140   41.8280 H   0  0  0  0  0  0  0  0  0  0  0  0
   47.8340   36.4130   40.8710 H   0  0  0  0  0  0  0  0  0  0  0  0
   49.9090   32.6700   43.1250 H   0  0  0  0  0  0  0  0  0  0  0  0
   46.9190   30.5980   39.7760 S   0  0  0  0  0  0  0  0  0  0  0  0
   45.6220   30.1450   39.1280 O   0  0  0  0  0  0  0  0  0  0  0  0
   47.8610   29.3600   39.5650 O   0  0  0  0  0  0  0  0  0  0  0  0
   48.4940   30.1830   42.5090 F   0  0  0  0  0  0  0  0  0  0  0  0
   47.1860   30.4980   42.6500 C   0  0  0  0  0  0  0  0  0  0  0  0
   46.5650   30.5630   41.4250 C   0  0  0  0  0  0  0  0  0  0  0  0
   45.1710   30.7260   41.7360 C   0  0  0  0  0  0  0  0  0  0  0  0
   44.4310   30.8040   40.9040 H   0  0  0  0  0  0  0  0  0  0  0  0
   44.5170   30.8120   42.9750 C   0  0  0  0  0  0  0  0  0  0  0  0
   43.4570   30.9350   43.0470 H   0  0  0  0  0  0  0  0  0  0  0  0
   45.3650   30.7240   44.0520 C   0  0  0  0  0  3  0  0  0  0  0  0
   46.7240   30.5640   43.9290 C   0  0  0  0  0  3  0  0  0  0  0  0
  1  2  1  0  0  0  0
  1 30  1  0  0  0  0
  2 14  1  0  0  0  0
  3  7  1  0  0  0  0
  3  2  2  0  0  0  0
  4  3  1  0  0  0  0
  5  4  2  0  0  0  0
  5  6  1  0  0  0  0
  6  1  2  0  0  0  0
  8  4  1  0  0  0  0
  9  5  1  0  0  0  0
 10  6  1  0  0  0  0
 12 11  1  0  0  0  0
 13 23  1  0  0  0  0
 13 12  2  0  0  0  0
 14 13  1  0  0  0  0
 15 14  2  0  0  0  0
 15 16  1  0  0  0  0
 16 17  2  0  0  0  0
 17 12  1  0  0  0  0
 17 20  1  0  0  0  0
 18 15  1  0  0  0  0
 19 16  1  0  0  0  0
 21 26  1  0  0  0  0
 22 23  1  0  0  0  0
 22 21  2  0  0  0  0
 23 24  2  0  0  0  0
 24 25  1  0  0  0  0
 25 29  1  0  0  0  0
 26 25  2  0  0  0  0
 27 21  1  0  0  0  0
 28 22  1  0  0  0  0
 30 35  1  0  0  0  0
 31 30  2  0  0  0  0
 32 30  2  0  0  0  0
 33 34  1  0  0  0  0
 34 41  1  0  0  0  0
 35 36  1  0  0  0  0
 35 34  2  0  0  0  0
 36 38  2  0  0  0  0
 37 36  1  0  0  0  0
 38 39  1  0  0  0  0
 38 40  1  0  0  0  0
 41 40  2  0  0  0  0
M  END
>  <minimizedAffinity>
-4.81661129

>  <minimizedRMSD>
1.21267831

$$$$
