
 OpenBabel03252509073D

 41 44  0  0  0  0  0  0  0  0999 V2000
   47.7880   31.8900   39.0790 C   0  0  0  0  0  0  0  0  0  0  0  0
   47.2180   33.1240   38.9410 C   0  0  0  0  0  0  0  0  0  0  0  0
   47.7370   34.0250   38.0230 C   0  0  0  0  0  0  0  0  0  0  0  0
   48.8200   33.6790   37.2530 C   0  0  0  0  0  0  0  0  0  0  0  0
   49.4300   32.4330   37.3610 C   0  0  0  0  0  0  0  0  0  0  0  0
   48.8890   31.5420   38.2930 C   0  0  0  0  0  0  0  0  0  0  0  0
   47.3040   35.0110   37.8960 H   0  0  0  0  0  0  0  0  0  0  0  0
   49.2190   34.3700   36.5500 H   0  0  0  0  0  0  0  0  0  0  0  0
   50.2710   32.0910   36.8000 H   0  0  0  0  0  0  0  0  0  0  0  0
   49.3470   30.5530   38.4010 H   0  0  0  0  0  0  0  0  0  0  0  0
   45.2790   35.3660   43.1660 Cl  0  0  0  0  0  0  0  0  0  0  0  0
   45.1530   34.5800   41.6130 C   0  0  0  0  0  0  0  0  0  0  0  0
   46.2550   34.1900   40.9310 C   0  0  0  0  0  0  0  0  0  0  0  0
   46.0580   33.5800   39.6980 C   0  0  0  0  0  0  0  0  0  0  0  0
   44.8040   33.3760   39.1780 C   0  0  0  0  0  0  0  0  0  0  0  0
   43.7070   33.7710   39.8710 C   0  0  0  0  0  0  0  0  0  0  0  0
   43.8880   34.3820   41.1080 C   0  0  0  0  0  0  0  0  0  0  0  0
   44.7180   32.8990   38.2150 H   0  0  0  0  0  0  0  0  0  0  0  0
   42.7330   33.5990   39.4440 H   0  0  0  0  0  0  0  0  0  0  0  0
   42.9840   34.6800   41.6270 H   0  0  0  0  0  0  0  0  0  0  0  0
   49.5510   35.8060   41.8310 C   0  0  0  0  0  0  0  0  0  0  0  0
   48.2920   35.5870   41.2650 C   0  0  0  0  0  0  0  0  0  0  0  0
   47.5710   34.4380   41.4970 C   0  0  0  0  0  0  0  0  0  0  0  0
   48.1950   33.5790   42.3010 N   0  0  0  0  0  0  0  0  0  0  0  0
   49.3930   33.7510   42.8600 C   0  0  0  0  0  0  0  0  0  0  0  0
   50.0590   34.8700   42.6160 N   0  0  0  0  0  0  0  0  0  0  0  0
   50.0980   36.7100   41.6370 H   0  0  0  0  0  0  0  0  0  0  0  0
   47.8800   36.3650   40.6170 H   0  0  0  0  0  0  0  0  0  0  0  0
   49.6760   32.9020   43.4760 H   0  0  0  0  0  0  0  0  0  0  0  0
   47.1710   30.7480   40.1500 S   0  0  0  0  0  0  0  0  0  0  0  0
   47.3510   29.3340   39.6260 O   0  0  0  0  0  0  0  0  0  0  0  0
   48.1740   30.8000   41.3560 O   0  0  0  0  0  0  0  0  0  0  0  0
   45.9110   31.4540   42.9840 F   0  0  0  0  0  0  0  0  0  0  0  0
   45.0150   31.0800   42.0440 C   0  0  0  0  0  0  0  0  0  0  0  0
   45.6530   30.7030   40.8850 C   0  0  0  0  0  0  0  0  0  0  0  0
   44.6070   30.1730   40.0540 C   0  0  0  0  0  0  0  0  0  0  0  0
   44.8590   29.7850   39.0390 H   0  0  0  0  0  0  0  0  0  0  0  0
   43.2300   30.0410   40.2940 C   0  0  0  0  0  0  0  0  0  0  0  0
   42.5680   29.6200   39.5660 H   0  0  0  0  0  0  0  0  0  0  0  0
   42.8410   30.4980   41.5290 C   0  0  0  0  0  3  0  0  0  0  0  0
   43.7160   31.0310   42.4450 C   0  0  0  0  0  3  0  0  0  0  0  0
  1 30  1  0  0  0  0
  2  1  1  0  0  0  0
  2 14  1  0  0  0  0
  3  2  2  0  0  0  0
  4  5  2  0  0  0  0
  4  3  1  0  0  0  0
  5  6  1  0  0  0  0
  6 10  1  0  0  0  0
  6  1  2  0  0  0  0
  7  3  1  0  0  0  0
  8  4  1  0  0  0  0
  9  5  1  0  0  0  0
 12 11  1  0  0  0  0
 13 23  1  0  0  0  0
 13 12  2  0  0  0  0
 14 13  1  0  0  0  0
 15 14  2  0  0  0  0
 15 16  1  0  0  0  0
 16 17  2  0  0  0  0
 17 12  1  0  0  0  0
 17 20  1  0  0  0  0
 18 15  1  0  0  0  0
 19 16  1  0  0  0  0
 21 26  1  0  0  0  0
 22 23  1  0  0  0  0
 22 21  2  0  0  0  0
 23 24  2  0  0  0  0
 24 25  1  0  0  0  0
 25 29  1  0  0  0  0
 26 25  2  0  0  0  0
 27 21  1  0  0  0  0
 28 22  1  0  0  0  0
 30 35  1  0  0  0  0
 30 32  2  0  0  0  0
 31 30  2  0  0  0  0
 34 41  1  0  0  0  0
 34 33  1  0  0  0  0
 35 34  2  0  0  0  0
 36 38  2  0  0  0  0
 36 35  1  0  0  0  0
 37 36  1  0  0  0  0
 38 40  1  0  0  0  0
 39 38  1  0  0  0  0
 40 41  2  0  0  0  0
M  END
>  <minimizedAffinity>
-4.77232313

>  <minimizedRMSD>
0.684180975

$$$$
