
 OpenBabel03252506153D

 39 41  0  0  0  0  0  0  0  0999 V2000
   45.3150   32.8560   41.5650 F   0  0  0  0  0  0  0  0  0  0  0  0
   46.3790   33.5890   41.2690 C   0  0  0  0  0  0  0  0  0  0  0  0
   46.7590   34.5840   42.1510 C   0  0  0  0  0  0  0  0  0  0  0  0
   47.8690   35.4160   41.9370 C   0  0  0  0  0  0  0  0  0  0  0  0
   48.6320   35.2290   40.7720 C   0  0  0  0  0  0  0  0  0  0  0  0
   48.2130   34.2290   39.9300 C   0  0  0  0  0  0  0  0  0  0  0  0
   47.1480   33.4240   40.1240 C   0  0  0  0  0  0  0  0  0  0  0  0
   48.1070   36.1770   42.6740 H   0  0  0  0  0  0  0  0  0  0  0  0
   49.4660   35.8930   40.6650 H   0  0  0  0  0  0  0  0  0  0  0  0
   48.9010   34.1970   39.0780 H   0  0  0  0  0  0  0  0  0  0  0  0
   45.4540   34.0990   45.5460 C   0  0  0  0  0  0  0  0  0  0  0  0
   44.5980   35.2180   45.6940 C   0  0  0  0  0  0  0  0  0  0  0  0
   44.4780   36.1430   44.6060 C   0  0  0  0  0  0  0  0  0  0  0  0
   45.2090   35.8760   43.4830 N   0  0  0  0  0  0  0  0  0  0  0  0
   45.9970   34.8190   43.3850 C   0  0  0  0  0  0  0  0  0  0  0  0
   46.1200   33.9360   44.4070 N   0  0  0  0  0  0  0  0  0  0  0  0
   44.0530   35.3610   46.6120 H   0  0  0  0  0  0  0  0  0  0  0  0
   43.8400   36.9880   44.6980 H   0  0  0  0  0  0  0  0  0  0  0  0
   45.5470   33.2190   46.6290 N   0  0  0  0  0  0  0  0  0  0  0  0
   46.4230   32.7740   47.0280 H   0  0  0  0  0  0  0  0  0  0  0  0
   44.6900   32.9030   47.1730 H   0  0  0  0  0  0  0  0  0  0  0  0
   46.8290   32.4620   39.2100 O   0  0  0  0  0  0  0  0  0  0  0  0
   44.6370   33.3130   38.0030 O   0  0  0  0  0  0  0  0  0  0  0  0
   45.9870   32.6650   37.7770 P   0  0  2  0  0  0  0  0  0  0  0  0
   45.7800   31.1790   37.0000 O   0  0  0  0  0  0  0  0  0  0  0  0
   45.4620   31.9240   34.3100 F   0  0  0  0  0  0  0  0  0  0  0  0
   44.5410   31.1100   34.8830 C   0  0  0  0  0  0  0  0  0  0  0  0
   44.7440   30.7750   36.2080 C   0  0  0  0  0  0  0  0  0  0  0  0
   43.8320   29.9440   36.8460 C   0  0  0  0  0  0  0  0  0  0  0  0
   43.9190   29.6290   37.8980 H   0  0  0  0  0  0  0  0  0  0  0  0
   42.7310   29.4590   36.1600 C   0  0  0  0  0  0  0  0  0  0  0  0
   42.0050   28.8020   36.6540 H   0  0  0  0  0  0  0  0  0  0  0  0
   42.5100   29.7800   34.8400 C   0  0  0  0  0  0  0  0  0  0  0  0
   43.4330   30.6090   34.2300 C   0  0  0  0  0  0  0  0  0  0  0  0
   46.8320   33.6270   36.6580 O   0  0  0  0  0  0  0  0  0  0  0  0
   48.1180   33.0940   36.4260 C   0  0  0  0  0  0  0  0  0  0  0  0
   48.1850   32.9570   35.0280 F   0  0  0  0  0  0  0  0  0  0  0  0
   49.0960   33.9880   36.7980 F   0  0  0  0  0  0  0  0  0  0  0  0
   48.3490   31.9150   37.0760 F   0  0  0  0  0  0  0  0  0  0  0  0
  2  1  1  0  0  0  0
  2  3  1  0  0  0  0
  3 15  1  0  0  0  0
  4  3  2  0  0  0  0
  4  8  1  0  0  0  0
  5  4  1  0  0  0  0
  6  7  1  0  0  0  0
  6  5  2  0  0  0  0
  7  2  2  0  0  0  0
  9  5  1  0  0  0  0
 10  6  1  0  0  0  0
 11 12  1  0  0  0  0
 11 19  1  0  0  0  0
 12 17  1  0  0  0  0
 13 18  1  0  0  0  0
 13 12  2  0  0  0  0
 14 13  1  0  0  0  0
 15 14  2  0  0  0  0
 15 16  1  0  0  0  0
 16 11  2  0  0  0  0
 19 20  1  0  0  0  0
 19 21  1  0  0  0  0
 22  7  1  0  0  0  0
 24 23  2  1  0  0  0
 24 22  1  0  0  0  0
 25 24  1  0  0  0  0
 26 27  1  0  0  0  0
 27 28  1  0  0  0  0
 28 29  2  0  0  0  0
 28 25  1  0  0  0  0
 29 30  1  0  0  0  0
 31 32  1  0  0  0  0
 31 29  1  0  0  0  0
 33 31  2  0  0  0  0
 34 33  1  0  0  0  0
 34 27  2  0  0  0  0
 35 24  1  0  0  0  0
 36 35  1  0  0  0  0
 36 38  1  0  0  0  0
 36 39  1  0  0  0  0
 37 36  1  0  0  0  0
M  END
>  <minimizedAffinity>
-5.93404865

>  <minimizedRMSD>
2.72527623

$$$$
