
 OpenBabel03242515583D

 37 40  0  0  0  0  0  0  0  0999 V2000
   37.8530   29.2350   41.1210 C   0  0  0  0  0  0  0  0  0  0  0  0
   38.1950   29.6690   42.4070 C   0  0  0  0  0  0  0  0  0  0  0  0
   38.1560   28.8540   43.5100 C   0  0  0  0  0  0  0  0  0  0  0  0
   37.7790   27.5740   43.4120 C   0  0  0  0  0  0  0  0  0  0  0  0
   37.4290   27.0910   42.1710 C   0  0  0  0  0  0  0  0  0  0  0  0
   37.0420   25.7790   42.0820 C   0  0  0  0  0  0  0  0  0  0  0  0
   36.6770   25.2410   40.8800 C   0  0  0  0  0  0  0  0  0  0  0  0
   36.7170   26.0800   39.7700 C   0  0  0  0  0  0  0  0  0  0  0  0
   37.1080   27.3610   39.9330 C   0  0  0  0  0  0  0  0  0  0  0  0
   37.4740   27.9250   41.0800 C   0  0  0  0  0  0  0  0  0  0  0  0
   38.5100   30.6930   42.5570 H   0  0  0  0  0  0  0  0  0  0  0  0
   38.4370   29.2600   44.4820 H   0  0  0  0  0  0  0  0  0  0  0  0
   37.7630   26.9630   44.3080 H   0  0  0  0  0  0  0  0  0  0  0  0
   37.0330   25.1660   43.0110 H   0  0  0  0  0  0  0  0  0  0  0  0
   36.3880   24.1760   40.9380 H   0  0  0  0  0  0  0  0  0  0  0  0
   36.4090   25.4610   38.9330 H   0  0  0  0  0  0  0  0  0  0  0  0
   39.4370   30.5880   38.1890 C   0  0  0  0  0  0  0  0  0  0  0  0
   38.4850   31.5450   37.7190 C   0  0  0  0  0  0  0  0  0  0  0  0
   37.2640   31.7380   38.4330 C   0  0  0  0  0  0  0  0  0  0  0  0
   37.0900   30.9860   39.5310 N   0  0  0  0  0  0  0  0  0  0  0  0
   37.9550   30.1120   39.9660 C   0  0  0  0  0  0  0  0  0  0  0  0
   39.1290   29.9230   39.2820 N   0  0  0  0  0  0  0  0  0  0  0  0
   40.3490   30.4670   37.6240 H   0  0  0  0  0  0  0  0  0  0  0  0
   36.5610   32.4660   38.0590 H   0  0  0  0  0  0  0  0  0  0  0  0
   38.8030   32.2680   36.5410 N   0  0  0  0  0  0  0  0  0  0  0  0
   39.3930   31.7980   35.8300 H   0  0  0  0  0  0  0  0  0  0  0  0
   38.4540   33.2540   36.3880 H   0  0  0  0  0  0  0  0  0  0  0  0
   37.0460   27.9450   38.7210 O   0  0  0  0  0  0  0  0  0  0  0  0
   34.6280   28.8890   39.8710 F   0  0  0  0  0  0  0  0  0  0  0  0
   34.6250   28.6340   38.5190 C   0  0  0  0  0  0  0  0  0  0  0  0
   35.8610   28.1780   38.0430 C   0  0  0  0  0  0  0  0  0  0  0  0
   35.9950   27.9010   36.7030 C   0  0  0  0  0  0  0  0  0  0  0  0
   36.8950   27.5390   36.1910 H   0  0  0  0  0  0  0  0  0  0  0  0
   34.9500   28.0550   35.8010 C   0  0  0  0  0  0  0  0  0  0  0  0
   35.0060   27.8500   34.7410 H   0  0  0  0  0  0  0  0  0  0  0  0
   33.7350   28.5100   36.3090 C   0  0  0  0  0  3  0  0  0  0  0  0
   33.5770   28.7950   37.6490 C   0  0  0  0  0  3  0  0  0  0  0  0
  1  2  1  0  0  0  0
  2 11  1  0  0  0  0
  2  3  2  0  0  0  0
  3 12  1  0  0  0  0
  4  3  1  0  0  0  0
  4 13  1  0  0  0  0
  5  4  2  0  0  0  0
  6  5  1  0  0  0  0
  6 14  1  0  0  0  0
  7 15  1  0  0  0  0
  7  6  2  0  0  0  0
  8  9  2  0  0  0  0
  8  7  1  0  0  0  0
  9 10  1  0  0  0  0
 10  1  2  0  0  0  0
 10  5  1  0  0  0  0
 16  8  1  0  0  0  0
 17 22  1  0  0  0  0
 18 17  2  0  0  0  0
 18 19  1  0  0  0  0
 19 20  2  0  0  0  0
 20 21  1  0  0  0  0
 21  1  1  0  0  0  0
 22 21  2  0  0  0  0
 23 17  1  0  0  0  0
 24 19  1  0  0  0  0
 25 18  1  0  0  0  0
 26 25  1  0  0  0  0
 27 25  1  0  0  0  0
 28  9  1  0  0  0  0
 30 29  1  0  0  0  0
 31 30  1  0  0  0  0
 31 28  1  0  0  0  0
 32 31  2  0  0  0  0
 33 32  1  0  0  0  0
 34 36  2  0  0  0  0
 34 32  1  0  0  0  0
 35 34  1  0  0  0  0
 36 37  1  0  0  0  0
 37 30  2  0  0  0  0
M  END
>  <minimizedAffinity>
-6.39957905

$$$$

 OpenBabel03242515583D

 37 40  0  0  0  0  0  0  0  0999 V2000
   36.9560   27.2080   40.9090 C   0  0  0  0  0  0  0  0  0  0  0  0
   37.2030   26.6530   42.1700 C   0  0  0  0  0  0  0  0  0  0  0  0
   37.1280   25.3080   42.4270 C   0  0  0  0  0  0  0  0  0  0  0  0
   36.8060   24.4360   41.4640 C   0  0  0  0  0  0  0  0  0  0  0  0
   36.5510   24.9240   40.2020 C   0  0  0  0  0  0  0  0  0  0  0  0
   36.2200   24.0230   39.2240 C   0  0  0  0  0  0  0  0  0  0  0  0
   35.9490   24.4440   37.9520 C   0  0  0  0  0  0  0  0  0  0  0  0
   36.0240   25.8120   37.7060 C   0  0  0  0  0  0  0  0  0  0  0  0
   36.3560   26.6410   38.7190 C   0  0  0  0  0  0  0  0  0  0  0  0
   36.6300   26.2760   39.9670 C   0  0  0  0  0  0  0  0  0  0  0  0
   37.4690   27.3020   42.9940 H   0  0  0  0  0  0  0  0  0  0  0  0
   37.3340   24.9460   43.4350 H   0  0  0  0  0  0  0  0  0  0  0  0
   36.7590   23.3800   41.7090 H   0  0  0  0  0  0  0  0  0  0  0  0
   36.1770   22.9430   39.4910 H   0  0  0  0  0  0  0  0  0  0  0  0
   35.6970   23.6240   37.2550 H   0  0  0  0  0  0  0  0  0  0  0  0
   35.7920   25.9270   36.6530 H   0  0  0  0  0  0  0  0  0  0  0  0
   35.8750   30.6380   40.9320 C   0  0  0  0  0  0  0  0  0  0  0  0
   36.9980   31.3360   40.3890 C   0  0  0  0  0  0  0  0  0  0  0  0
   38.1600   30.6060   39.9940 C   0  0  0  0  0  0  0  0  0  0  0  0
   38.1160   29.2760   40.1650 N   0  0  0  0  0  0  0  0  0  0  0  0
   37.0950   28.6330   40.6600 C   0  0  0  0  0  0  0  0  0  0  0  0
   35.9750   29.3310   41.0410 N   0  0  0  0  0  0  0  0  0  0  0  0
   35.0130   31.2210   41.2200 H   0  0  0  0  0  0  0  0  0  0  0  0
   38.9950   31.1550   39.5860 H   0  0  0  0  0  0  0  0  0  0  0  0
   36.9030   32.7460   40.2660 N   0  0  0  0  0  0  0  0  0  0  0  0
   36.3210   33.2510   40.9590 H   0  0  0  0  0  0  0  0  0  0  0  0
   37.4060   33.2680   39.4970 H   0  0  0  0  0  0  0  0  0  0  0  0
   36.3460   27.8910   38.2190 O   0  0  0  0  0  0  0  0  0  0  0  0
   36.6540   28.3910   35.4400 F   0  0  0  0  0  0  0  0  0  0  0  0
   35.4200   28.6470   35.9930 C   0  0  0  0  0  0  0  0  0  0  0  0
   35.3640   28.3660   37.3650 C   0  0  0  0  0  0  0  0  0  0  0  0
   34.1800   28.5650   38.0340 C   0  0  0  0  0  0  0  0  0  0  0  0
   33.9880   28.3900   39.1000 H   0  0  0  0  0  0  0  0  0  0  0  0
   33.0350   29.0360   37.4040 C   0  0  0  0  0  0  0  0  0  0  0  0
   32.0840   29.2090   37.8870 H   0  0  0  0  0  0  0  0  0  0  0  0
   33.1290   29.3050   36.0400 C   0  0  0  0  0  3  0  0  0  0  0  0
   34.3040   29.1130   35.3460 C   0  0  0  0  0  3  0  0  0  0  0  0
  1  2  1  0  0  0  0
  2  3  2  0  0  0  0
  2 11  1  0  0  0  0
  3 12  1  0  0  0  0
  4 13  1  0  0  0  0
  4  3  1  0  0  0  0
  5  4  2  0  0  0  0
  6 14  1  0  0  0  0
  6  5  1  0  0  0  0
  7  6  2  0  0  0  0
  8  7  1  0  0  0  0
  8  9  2  0  0  0  0
  9 10  1  0  0  0  0
 10  5  1  0  0  0  0
 10  1  2  0  0  0  0
 15  7  1  0  0  0  0
 16  8  1  0  0  0  0
 17 22  1  0  0  0  0
 17 23  1  0  0  0  0
 18 17  2  0  0  0  0
 19 20  2  0  0  0  0
 19 18  1  0  0  0  0
 20 21  1  0  0  0  0
 21  1  1  0  0  0  0
 21 22  2  0  0  0  0
 24 19  1  0  0  0  0
 25 18  1  0  0  0  0
 25 26  1  0  0  0  0
 27 25  1  0  0  0  0
 28  9  1  0  0  0  0
 29 30  1  0  0  0  0
 30 31  1  0  0  0  0
 31 32  2  0  0  0  0
 31 28  1  0  0  0  0
 32 33  1  0  0  0  0
 34 35  1  0  0  0  0
 34 32  1  0  0  0  0
 36 34  2  0  0  0  0
 37 30  2  0  0  0  0
 37 36  1  0  0  0  0
M  END
>  <minimizedAffinity>
-6.32347584

$$$$

 OpenBabel03242515583D

 37 40  0  0  0  0  0  0  0  0999 V2000
   36.9580   26.4840   39.6530 C   0  0  0  0  0  0  0  0  0  0  0  0
   36.9600   25.0920   39.7970 C   0  0  0  0  0  0  0  0  0  0  0  0
   37.0070   24.4630   41.0150 C   0  0  0  0  0  0  0  0  0  0  0  0
   37.0540   25.1630   42.1550 C   0  0  0  0  0  0  0  0  0  0  0  0
   37.0560   26.5380   42.0750 C   0  0  0  0  0  0  0  0  0  0  0  0
   37.1070   27.2450   43.2470 C   0  0  0  0  0  0  0  0  0  0  0  0
   37.1170   28.6120   43.2360 C   0  0  0  0  0  0  0  0  0  0  0  0
   37.0740   29.2380   41.9940 C   0  0  0  0  0  0  0  0  0  0  0  0
   37.0250   28.4760   40.8810 C   0  0  0  0  0  0  0  0  0  0  0  0
   37.0100   27.1470   40.8440 C   0  0  0  0  0  0  0  0  0  0  0  0
   36.9230   24.4660   38.9170 H   0  0  0  0  0  0  0  0  0  0  0  0
   37.0050   23.3730   41.0530 H   0  0  0  0  0  0  0  0  0  0  0  0
   37.0890   24.6270   43.0980 H   0  0  0  0  0  0  0  0  0  0  0  0
   37.1400   26.6800   44.2060 H   0  0  0  0  0  0  0  0  0  0  0  0
   37.1580   29.0660   44.2430 H   0  0  0  0  0  0  0  0  0  0  0  0
   37.0760   30.3010   42.2080 H   0  0  0  0  0  0  0  0  0  0  0  0
   38.2450   27.7990   36.5620 C   0  0  0  0  0  0  0  0  0  0  0  0
   37.0660   28.2260   35.8760 C   0  0  0  0  0  0  0  0  0  0  0  0
   35.7890   28.0670   36.4960 C   0  0  0  0  0  0  0  0  0  0  0  0
   35.7850   27.5100   37.7170 N   0  0  0  0  0  0  0  0  0  0  0  0
   36.8570   27.1170   38.3490 C   0  0  0  0  0  0  0  0  0  0  0  0
   38.0860   27.2690   37.7560 N   0  0  0  0  0  0  0  0  0  0  0  0
   39.1930   27.9340   36.0640 H   0  0  0  0  0  0  0  0  0  0  0  0
   34.9150   28.3980   35.9590 H   0  0  0  0  0  0  0  0  0  0  0  0
   37.2230   28.7980   34.5880 N   0  0  0  0  0  0  0  0  0  0  0  0
   38.0160   28.4680   34.0070 H   0  0  0  0  0  0  0  0  0  0  0  0
   36.5580   29.5360   34.2270 H   0  0  0  0  0  0  0  0  0  0  0  0
   37.0030   29.3200   39.8310 O   0  0  0  0  0  0  0  0  0  0  0  0
   39.8360   29.3120   39.6340 F   0  0  0  0  0  0  0  0  0  0  0  0
   39.2080   30.5370   39.6360 C   0  0  0  0  0  0  0  0  0  0  0  0
   37.8140   30.4390   39.7310 C   0  0  0  0  0  0  0  0  0  0  0  0
   37.0660   31.5930   39.7270 C   0  0  0  0  0  0  0  0  0  0  0  0
   35.9740   31.6720   39.7950 H   0  0  0  0  0  0  0  0  0  0  0  0
   37.6400   32.8540   39.6330 C   0  0  0  0  0  0  0  0  0  0  0  0
   37.0960   33.7880   39.6270 H   0  0  0  0  0  0  0  0  0  0  0  0
   39.0290   32.9130   39.5410 C   0  0  0  0  0  3  0  0  0  0  0  0
   39.8010   31.7700   39.5420 C   0  0  0  0  0  3  0  0  0  0  0  0
  1  2  2  0  0  0  0
  1 10  1  0  0  0  0
  2  3  1  0  0  0  0
  3 12  1  0  0  0  0
  3  4  2  0  0  0  0
  4 13  1  0  0  0  0
  5  4  1  0  0  0  0
  5  6  1  0  0  0  0
  6 14  1  0  0  0  0
  7  6  2  0  0  0  0
  7 15  1  0  0  0  0
  8 16  1  0  0  0  0
  8  7  1  0  0  0  0
  9  8  2  0  0  0  0
 10  9  1  0  0  0  0
 10  5  2  0  0  0  0
 11  2  1  0  0  0  0
 17 22  1  0  0  0  0
 18 19  1  0  0  0  0
 18 17  2  0  0  0  0
 19 20  2  0  0  0  0
 20 21  1  0  0  0  0
 21  1  1  0  0  0  0
 22 21  2  0  0  0  0
 23 17  1  0  0  0  0
 24 19  1  0  0  0  0
 25 18  1  0  0  0  0
 26 25  1  0  0  0  0
 27 25  1  0  0  0  0
 28  9  1  0  0  0  0
 29 30  1  0  0  0  0
 30 31  1  0  0  0  0
 31 28  1  0  0  0  0
 32 31  2  0  0  0  0
 32 33  1  0  0  0  0
 34 32  1  0  0  0  0
 35 34  1  0  0  0  0
 36 37  1  0  0  0  0
 36 34  2  0  0  0  0
 37 30  2  0  0  0  0
M  END
>  <minimizedAffinity>
-6.3118968

$$$$

 OpenBabel03242515583D

 37 40  0  0  0  0  0  0  0  0999 V2000
   35.4240   28.3340   38.5010 C   0  0  0  0  0  0  0  0  0  0  0  0
   34.2710   28.3400   37.7070 C   0  0  0  0  0  0  0  0  0  0  0  0
   33.7750   27.2180   37.0940 C   0  0  0  0  0  0  0  0  0  0  0  0
   34.3810   26.0310   37.2260 C   0  0  0  0  0  0  0  0  0  0  0  0
   35.5220   25.9640   37.9950 C   0  0  0  0  0  0  0  0  0  0  0  0
   36.1360   24.7460   38.1210 C   0  0  0  0  0  0  0  0  0  0  0  0
   37.2750   24.6140   38.8660 C   0  0  0  0  0  0  0  0  0  0  0  0
   37.7700   25.7620   39.4780 C   0  0  0  0  0  0  0  0  0  0  0  0
   37.1120   26.9280   39.3100 C   0  0  0  0  0  0  0  0  0  0  0  0
   36.0020   27.1020   38.5980 C   0  0  0  0  0  0  0  0  0  0  0  0
   33.7310   29.2650   37.5600 H   0  0  0  0  0  0  0  0  0  0  0  0
   32.8710   27.2960   36.4900 H   0  0  0  0  0  0  0  0  0  0  0  0
   33.9560   25.1680   36.7260 H   0  0  0  0  0  0  0  0  0  0  0  0
   35.6860   23.8700   37.6030 H   0  0  0  0  0  0  0  0  0  0  0  0
   37.6740   23.5840   38.8920 H   0  0  0  0  0  0  0  0  0  0  0  0
   38.6520   25.4390   40.0200 H   0  0  0  0  0  0  0  0  0  0  0  0
   37.0980   31.5100   38.7120 C   0  0  0  0  0  0  0  0  0  0  0  0
   36.8920   31.8950   40.0730 C   0  0  0  0  0  0  0  0  0  0  0  0
   36.1630   31.0350   40.9490 C   0  0  0  0  0  0  0  0  0  0  0  0
   35.7080   29.8900   40.4180 N   0  0  0  0  0  0  0  0  0  0  0  0
   35.8930   29.5320   39.1770 C   0  0  0  0  0  0  0  0  0  0  0  0
   36.5930   30.3560   38.3320 N   0  0  0  0  0  0  0  0  0  0  0  0
   37.6540   32.1840   38.0780 H   0  0  0  0  0  0  0  0  0  0  0  0
   36.0200   31.3480   41.9720 H   0  0  0  0  0  0  0  0  0  0  0  0
   37.4300   33.1370   40.4960 N   0  0  0  0  0  0  0  0  0  0  0  0
   37.5000   33.8970   39.7940 H   0  0  0  0  0  0  0  0  0  0  0  0
   37.7510   33.2890   41.4920 H   0  0  0  0  0  0  0  0  0  0  0  0
   37.7990   27.8660   39.9890 O   0  0  0  0  0  0  0  0  0  0  0  0
   36.2860   27.4990   42.3650 F   0  0  0  0  0  0  0  0  0  0  0  0
   37.6580   27.4820   42.4820 C   0  0  0  0  0  0  0  0  0  0  0  0
   38.3160   27.6660   41.2590 C   0  0  0  0  0  0  0  0  0  0  0  0
   39.6900   27.6540   41.2370 C   0  0  0  0  0  0  0  0  0  0  0  0
   40.3380   27.7840   40.3610 H   0  0  0  0  0  0  0  0  0  0  0  0
   40.4540   27.4690   42.3830 C   0  0  0  0  0  0  0  0  0  0  0  0
   41.5340   27.4530   42.4160 H   0  0  0  0  0  0  0  0  0  0  0  0
   39.7660   27.2900   43.5810 C   0  0  0  0  0  3  0  0  0  0  0  0
   38.3870   27.2970   43.6280 C   0  0  0  0  0  3  0  0  0  0  0  0
  1 10  1  0  0  0  0
  1 21  1  0  0  0  0
  2  1  2  0  0  0  0
  3  4  2  0  0  0  0
  3  2  1  0  0  0  0
  4  5  1  0  0  0  0
  5  6  2  0  0  0  0
  5 10  1  0  0  0  0
  6  7  1  0  0  0  0
  7 15  1  0  0  0  0
  7  8  2  0  0  0  0
  8 16  1  0  0  0  0
  9  8  1  0  0  0  0
  9 28  1  0  0  0  0
 10  9  2  0  0  0  0
 11  2  1  0  0  0  0
 12  3  1  0  0  0  0
 13  4  1  0  0  0  0
 14  6  1  0  0  0  0
 17 18  1  0  0  0  0
 18 25  1  0  0  0  0
 18 19  2  0  0  0  0
 19 24  1  0  0  0  0
 20 19  1  0  0  0  0
 21 20  2  0  0  0  0
 22 17  2  0  0  0  0
 22 21  1  0  0  0  0
 23 17  1  0  0  0  0
 25 27  1  0  0  0  0
 26 25  1  0  0  0  0
 28 31  1  0  0  0  0
 29 30  1  0  0  0  0
 30 37  1  0  0  0  0
 31 30  2  0  0  0  0
 32 31  1  0  0  0  0
 32 34  2  0  0  0  0
 33 32  1  0  0  0  0
 34 35  1  0  0  0  0
 34 36  1  0  0  0  0
 36 37  2  0  0  0  0
M  END
>  <minimizedAffinity>
-6.24787331

$$$$

 OpenBabel03242515583D

 37 40  0  0  0  0  0  0  0  0999 V2000
   40.0000   29.4720   41.3820 C   0  0  0  0  0  0  0  0  0  0  0  0
   41.2950   29.3500   41.8990 C   0  0  0  0  0  0  0  0  0  0  0  0
   41.6120   28.5160   42.9410 C   0  0  0  0  0  0  0  0  0  0  0  0
   40.6790   27.7600   43.5320 C   0  0  0  0  0  0  0  0  0  0  0  0
   39.3850   27.8390   43.0660 C   0  0  0  0  0  0  0  0  0  0  0  0
   38.4370   27.0630   43.6790 C   0  0  0  0  0  0  0  0  0  0  0  0
   37.1340   27.1000   43.2680 C   0  0  0  0  0  0  0  0  0  0  0  0
   36.8260   27.9540   42.2130 C   0  0  0  0  0  0  0  0  0  0  0  0
   37.8120   28.6890   41.6570 C   0  0  0  0  0  0  0  0  0  0  0  0
   39.0900   28.6820   42.0220 C   0  0  0  0  0  0  0  0  0  0  0  0
   42.0980   29.9320   41.4680 H   0  0  0  0  0  0  0  0  0  0  0  0
   42.6430   28.4710   43.2930 H   0  0  0  0  0  0  0  0  0  0  0  0
   40.9720   27.1130   44.3520 H   0  0  0  0  0  0  0  0  0  0  0  0
   38.7550   26.4030   44.5180 H   0  0  0  0  0  0  0  0  0  0  0  0
   36.4670   26.4290   43.8390 H   0  0  0  0  0  0  0  0  0  0  0  0
   35.7630   27.8210   42.0400 H   0  0  0  0  0  0  0  0  0  0  0  0
   39.7930   30.2770   37.8830 C   0  0  0  0  0  0  0  0  0  0  0  0
   39.2540   31.6010   37.8870 C   0  0  0  0  0  0  0  0  0  0  0  0
   38.9600   32.2420   39.1280 C   0  0  0  0  0  0  0  0  0  0  0  0
   39.2180   31.5360   40.2400 N   0  0  0  0  0  0  0  0  0  0  0  0
   39.7100   30.3270   40.2440 C   0  0  0  0  0  0  0  0  0  0  0  0
   39.9940   29.7080   39.0520 N   0  0  0  0  0  0  0  0  0  0  0  0
   40.0030   29.8230   36.9270 H   0  0  0  0  0  0  0  0  0  0  0  0
   38.5550   33.2410   39.1050 H   0  0  0  0  0  0  0  0  0  0  0  0
   39.0320   32.2270   36.6330 N   0  0  0  0  0  0  0  0  0  0  0  0
   38.7930   31.6200   35.8270 H   0  0  0  0  0  0  0  0  0  0  0  0
   39.1060   33.2750   36.5190 H   0  0  0  0  0  0  0  0  0  0  0  0
   37.2460   29.4240   40.6810 O   0  0  0  0  0  0  0  0  0  0  0  0
   37.9650   27.4000   38.8230 F   0  0  0  0  0  0  0  0  0  0  0  0
   36.6870   27.9050   38.7420 C   0  0  0  0  0  0  0  0  0  0  0  0
   36.4250   28.8930   39.7000 C   0  0  0  0  0  0  0  0  0  0  0  0
   35.1770   29.4680   39.7350 C   0  0  0  0  0  0  0  0  0  0  0  0
   34.8290   30.2480   40.4230 H   0  0  0  0  0  0  0  0  0  0  0  0
   34.1640   29.1090   38.8550 C   0  0  0  0  0  0  0  0  0  0  0  0
   33.1690   29.5320   38.8430 H   0  0  0  0  0  0  0  0  0  0  0  0
   34.4610   28.1240   37.9150 C   0  0  0  0  0  3  0  0  0  0  0  0
   35.7050   27.5310   37.8610 C   0  0  0  0  0  3  0  0  0  0  0  0
  1  2  2  0  0  0  0
  1 10  1  0  0  0  0
  2  3  1  0  0  0  0
  3 12  1  0  0  0  0
  3  4  2  0  0  0  0
  4 13  1  0  0  0  0
  5  4  1  0  0  0  0
  5  6  1  0  0  0  0
  6 14  1  0  0  0  0
  7  6  2  0  0  0  0
  7 15  1  0  0  0  0
  8  7  1  0  0  0  0
  9 10  1  0  0  0  0
  9  8  2  0  0  0  0
 10  5  2  0  0  0  0
 11  2  1  0  0  0  0
 16  8  1  0  0  0  0
 17 18  2  0  0  0  0
 17 22  1  0  0  0  0
 18 19  1  0  0  0  0
 19 20  2  0  0  0  0
 20 21  1  0  0  0  0
 21  1  1  0  0  0  0
 22 21  2  0  0  0  0
 23 17  1  0  0  0  0
 24 19  1  0  0  0  0
 25 18  1  0  0  0  0
 26 25  1  0  0  0  0
 27 25  1  0  0  0  0
 28  9  1  0  0  0  0
 30 29  1  0  0  0  0
 30 31  1  0  0  0  0
 31 32  2  0  0  0  0
 31 28  1  0  0  0  0
 32 33  1  0  0  0  0
 34 32  1  0  0  0  0
 35 34  1  0  0  0  0
 36 34  2  0  0  0  0
 37 36  1  0  0  0  0
 37 30  2  0  0  0  0
M  END
>  <minimizedAffinity>
-6.1704073

$$$$

 OpenBabel03242515583D

 37 40  0  0  0  0  0  0  0  0999 V2000
   37.3710   31.5250   39.7880 C   0  0  0  0  0  0  0  0  0  0  0  0
   37.1900   32.9090   39.6790 C   0  0  0  0  0  0  0  0  0  0  0  0
   38.1540   33.8220   40.0200 C   0  0  0  0  0  0  0  0  0  0  0  0
   39.3460   33.4290   40.4870 C   0  0  0  0  0  0  0  0  0  0  0  0
   39.5810   32.0780   40.6170 C   0  0  0  0  0  0  0  0  0  0  0  0
   40.8030   31.6870   41.0980 C   0  0  0  0  0  0  0  0  0  0  0  0
   41.0970   30.3610   41.2560 C   0  0  0  0  0  0  0  0  0  0  0  0
   40.1070   29.4460   40.9110 C   0  0  0  0  0  0  0  0  0  0  0  0
   38.9270   29.9040   40.4430 C   0  0  0  0  0  0  0  0  0  0  0  0
   38.6000   31.1810   40.2710 C   0  0  0  0  0  0  0  0  0  0  0  0
   36.2500   33.2950   39.3080 H   0  0  0  0  0  0  0  0  0  0  0  0
   37.9450   34.8860   39.9090 H   0  0  0  0  0  0  0  0  0  0  0  0
   40.0820   34.1830   40.7440 H   0  0  0  0  0  0  0  0  0  0  0  0
   41.5470   32.4730   41.3560 H   0  0  0  0  0  0  0  0  0  0  0  0
   42.1120   30.1730   41.6500 H   0  0  0  0  0  0  0  0  0  0  0  0
   40.5430   28.4700   41.0960 H   0  0  0  0  0  0  0  0  0  0  0  0
   35.6760   29.3840   37.4480 C   0  0  0  0  0  0  0  0  0  0  0  0
   34.6300   28.8080   38.2340 C   0  0  0  0  0  0  0  0  0  0  0  0
   34.4960   29.1720   39.6090 C   0  0  0  0  0  0  0  0  0  0  0  0
   35.3880   30.0560   40.0810 N   0  0  0  0  0  0  0  0  0  0  0  0
   36.3440   30.5850   39.3690 C   0  0  0  0  0  0  0  0  0  0  0  0
   36.4770   30.2380   38.0480 N   0  0  0  0  0  0  0  0  0  0  0  0
   35.7480   29.0860   36.4130 H   0  0  0  0  0  0  0  0  0  0  0  0
   33.6990   28.7240   40.1810 H   0  0  0  0  0  0  0  0  0  0  0  0
   33.7590   27.8850   37.6000 N   0  0  0  0  0  0  0  0  0  0  0  0
   34.1460   27.3080   36.8310 H   0  0  0  0  0  0  0  0  0  0  0  0
   32.7500   27.7850   37.8980 H   0  0  0  0  0  0  0  0  0  0  0  0
   38.1580   28.8260   40.2000 O   0  0  0  0  0  0  0  0  0  0  0  0
   37.2000   29.6010   42.7590 F   0  0  0  0  0  0  0  0  0  0  0  0
   37.2200   28.2540   42.4740 C   0  0  0  0  0  0  0  0  0  0  0  0
   37.7020   27.9710   41.1900 C   0  0  0  0  0  0  0  0  0  0  0  0
   37.7570   26.6610   40.7760 C   0  0  0  0  0  0  0  0  0  0  0  0
   38.1090   26.2900   39.8060 H   0  0  0  0  0  0  0  0  0  0  0  0
   37.3540   25.6050   41.5840 C   0  0  0  0  0  0  0  0  0  0  0  0
   37.3800   24.5610   41.3040 H   0  0  0  0  0  0  0  0  0  0  0  0
   36.8810   25.9240   42.8550 C   0  0  0  0  0  3  0  0  0  0  0  0
   36.8150   27.2300   43.2920 C   0  0  0  0  0  3  0  0  0  0  0  0
  1 10  1  0  0  0  0
  2  1  2  0  0  0  0
  2  3  1  0  0  0  0
  3  4  2  0  0  0  0
  4  5  1  0  0  0  0
  4 13  1  0  0  0  0
  5  6  1  0  0  0  0
  6  7  2  0  0  0  0
  6 14  1  0  0  0  0
  7 15  1  0  0  0  0
  8 16  1  0  0  0  0
  8  7  1  0  0  0  0
  9  8  2  0  0  0  0
 10  9  1  0  0  0  0
 10  5  2  0  0  0  0
 11  2  1  0  0  0  0
 12  3  1  0  0  0  0
 17 22  2  0  0  0  0
 17 18  1  0  0  0  0
 18 19  2  0  0  0  0
 19 20  1  0  0  0  0
 19 24  1  0  0  0  0
 21  1  1  0  0  0  0
 21 20  2  0  0  0  0
 22 21  1  0  0  0  0
 23 17  1  0  0  0  0
 25 27  1  0  0  0  0
 25 18  1  0  0  0  0
 26 25  1  0  0  0  0
 28  9  1  0  0  0  0
 28 31  1  0  0  0  0
 30 29  1  0  0  0  0
 30 37  1  0  0  0  0
 31 30  2  0  0  0  0
 32 31  1  0  0  0  0
 32 34  2  0  0  0  0
 33 32  1  0  0  0  0
 34 36  1  0  0  0  0
 35 34  1  0  0  0  0
 36 37  2  0  0  0  0
M  END
>  <minimizedAffinity>
-6.07036924

$$$$

 OpenBabel03242515583D

 37 40  0  0  0  0  0  0  0  0999 V2000
   37.1660   29.6040   37.8010 C   0  0  0  0  0  0  0  0  0  0  0  0
   37.1370   29.8530   36.4240 C   0  0  0  0  0  0  0  0  0  0  0  0
   36.8170   28.8960   35.4950 C   0  0  0  0  0  0  0  0  0  0  0  0
   36.5090   27.6470   35.8640 C   0  0  0  0  0  0  0  0  0  0  0  0
   36.5220   27.3430   37.2070 C   0  0  0  0  0  0  0  0  0  0  0  0
   36.2080   26.0610   37.5740 C   0  0  0  0  0  0  0  0  0  0  0  0
   36.2080   25.6930   38.8910 C   0  0  0  0  0  0  0  0  0  0  0  0
   36.5390   26.6720   39.8230 C   0  0  0  0  0  0  0  0  0  0  0  0
   36.8380   27.9150   39.3880 C   0  0  0  0  0  0  0  0  0  0  0  0
   36.8470   28.3160   38.1210 C   0  0  0  0  0  0  0  0  0  0  0  0
   37.3750   30.8410   36.0570 H   0  0  0  0  0  0  0  0  0  0  0  0
   36.8150   29.1610   34.4370 H   0  0  0  0  0  0  0  0  0  0  0  0
   36.2610   26.9210   35.0970 H   0  0  0  0  0  0  0  0  0  0  0  0
   35.9540   25.3280   36.7750 H   0  0  0  0  0  0  0  0  0  0  0  0
   35.9370   24.6350   39.0580 H   0  0  0  0  0  0  0  0  0  0  0  0
   36.4660   26.1840   40.7890 H   0  0  0  0  0  0  0  0  0  0  0  0
   39.3160   31.8000   39.6690 C   0  0  0  0  0  0  0  0  0  0  0  0
   38.3960   32.5810   40.4350 C   0  0  0  0  0  0  0  0  0  0  0  0
   36.9930   32.3410   40.3140 C   0  0  0  0  0  0  0  0  0  0  0  0
   36.6250   31.3700   39.4640 N   0  0  0  0  0  0  0  0  0  0  0  0
   37.4600   30.6540   38.7620 C   0  0  0  0  0  0  0  0  0  0  0  0
   38.8090   30.8810   38.8760 N   0  0  0  0  0  0  0  0  0  0  0  0
   40.3690   32.0080   39.7850 H   0  0  0  0  0  0  0  0  0  0  0  0
   36.3190   32.9430   40.9020 H   0  0  0  0  0  0  0  0  0  0  0  0
   38.9290   33.5760   41.2940 N   0  0  0  0  0  0  0  0  0  0  0  0
   39.8160   34.0310   41.0110 H   0  0  0  0  0  0  0  0  0  0  0  0
   38.4430   33.8470   42.1920 H   0  0  0  0  0  0  0  0  0  0  0  0
   37.1280   28.6500   40.4790 O   0  0  0  0  0  0  0  0  0  0  0  0
   36.1610   27.7000   42.9740 F   0  0  0  0  0  0  0  0  0  0  0  0
   37.5250   27.7100   42.7890 C   0  0  0  0  0  0  0  0  0  0  0  0
   37.9050   28.1900   41.5290 C   0  0  0  0  0  0  0  0  0  0  0  0
   39.2410   28.2350   41.2120 C   0  0  0  0  0  0  0  0  0  0  0  0
   39.6850   28.5840   40.2710 H   0  0  0  0  0  0  0  0  0  0  0  0
   40.2330   27.8260   42.0950 C   0  0  0  0  0  0  0  0  0  0  0  0
   41.2940   27.8440   41.8920 H   0  0  0  0  0  0  0  0  0  0  0  0
   39.8180   27.3550   43.3390 C   0  0  0  0  0  3  0  0  0  0  0  0
   38.4830   27.2990   43.6800 C   0  0  0  0  0  3  0  0  0  0  0  0
  1 10  1  0  0  0  0
  1 21  1  0  0  0  0
  2  1  2  0  0  0  0
  3  4  2  0  0  0  0
  3  2  1  0  0  0  0
  4  5  1  0  0  0  0
  5  6  2  0  0  0  0
  5 10  1  0  0  0  0
  6  7  1  0  0  0  0
  7 15  1  0  0  0  0
  7  8  2  0  0  0  0
  8 16  1  0  0  0  0
  9  8  1  0  0  0  0
  9 28  1  0  0  0  0
 10  9  2  0  0  0  0
 11  2  1  0  0  0  0
 12  3  1  0  0  0  0
 13  4  1  0  0  0  0
 14  6  1  0  0  0  0
 17 23  1  0  0  0  0
 17 18  1  0  0  0  0
 18 25  1  0  0  0  0
 19 18  2  0  0  0  0
 19 24  1  0  0  0  0
 20 19  1  0  0  0  0
 21 22  1  0  0  0  0
 21 20  2  0  0  0  0
 22 17  2  0  0  0  0
 25 27  1  0  0  0  0
 26 25  1  0  0  0  0
 28 31  1  0  0  0  0
 30 29  1  0  0  0  0
 30 37  1  0  0  0  0
 31 30  2  0  0  0  0
 32 31  1  0  0  0  0
 32 34  2  0  0  0  0
 33 32  1  0  0  0  0
 34 36  1  0  0  0  0
 35 34  1  0  0  0  0
 36 37  2  0  0  0  0
M  END
>  <minimizedAffinity>
-5.75833321

$$$$

 OpenBabel03242515583D

 37 40  0  0  0  0  0  0  0  0999 V2000
   36.5630   25.7680   39.0930 C   0  0  0  0  0  0  0  0  0  0  0  0
   36.1900   24.9700   38.0050 C   0  0  0  0  0  0  0  0  0  0  0  0
   35.3160   25.3860   37.0340 C   0  0  0  0  0  0  0  0  0  0  0  0
   34.7600   26.6030   37.0760 C   0  0  0  0  0  0  0  0  0  0  0  0
   35.0880   27.4330   38.1250 C   0  0  0  0  0  0  0  0  0  0  0  0
   34.5120   28.6750   38.1610 C   0  0  0  0  0  0  0  0  0  0  0  0
   34.7920   29.5440   39.1790 C   0  0  0  0  0  0  0  0  0  0  0  0
   35.6770   29.1070   40.1610 C   0  0  0  0  0  0  0  0  0  0  0  0
   36.2070   27.8700   40.0600 C   0  0  0  0  0  0  0  0  0  0  0  0
   35.9650   26.9950   39.0890 C   0  0  0  0  0  0  0  0  0  0  0  0
   36.6030   23.9760   37.9090 H   0  0  0  0  0  0  0  0  0  0  0  0
   35.0710   24.7110   36.2130 H   0  0  0  0  0  0  0  0  0  0  0  0
   34.0740   26.8930   36.2870 H   0  0  0  0  0  0  0  0  0  0  0  0
   33.8120   28.9580   37.3430 H   0  0  0  0  0  0  0  0  0  0  0  0
   34.2680   30.5130   39.0950 H   0  0  0  0  0  0  0  0  0  0  0  0
   35.7700   29.9390   40.8520 H   0  0  0  0  0  0  0  0  0  0  0  0
   37.5990   24.2100   42.1640 C   0  0  0  0  0  0  0  0  0  0  0  0
   39.0240   24.2990   42.1090 C   0  0  0  0  0  0  0  0  0  0  0  0
   39.6510   24.9210   40.9860 C   0  0  0  0  0  0  0  0  0  0  0  0
   38.8330   25.3940   40.0330 N   0  0  0  0  0  0  0  0  0  0  0  0
   37.5310   25.3150   40.0780 C   0  0  0  0  0  0  0  0  0  0  0  0
   36.9260   24.7180   41.1550 N   0  0  0  0  0  0  0  0  0  0  0  0
   37.1590   23.7320   43.0270 H   0  0  0  0  0  0  0  0  0  0  0  0
   40.7280   24.9770   40.9670 H   0  0  0  0  0  0  0  0  0  0  0  0
   39.7630   23.7540   43.1900 N   0  0  0  0  0  0  0  0  0  0  0  0
   39.3590   22.9410   43.6890 H   0  0  0  0  0  0  0  0  0  0  0  0
   40.6940   24.1610   43.4820 H   0  0  0  0  0  0  0  0  0  0  0  0
   37.0080   27.7010   41.1290 O   0  0  0  0  0  0  0  0  0  0  0  0
   37.2360   28.9410   43.6740 F   0  0  0  0  0  0  0  0  0  0  0  0
   38.1750   29.2730   42.7250 C   0  0  0  0  0  0  0  0  0  0  0  0
   37.9840   28.6090   41.5060 C   0  0  0  0  0  0  0  0  0  0  0  0
   38.8660   28.8430   40.4780 C   0  0  0  0  0  0  0  0  0  0  0  0
   38.8430   28.3990   39.4750 H   0  0  0  0  0  0  0  0  0  0  0  0
   39.9410   29.7140   40.5990 C   0  0  0  0  0  0  0  0  0  0  0  0
   40.6590   29.9310   39.8210 H   0  0  0  0  0  0  0  0  0  0  0  0
   40.0990   30.3580   41.8250 C   0  0  0  0  0  3  0  0  0  0  0  0
   39.2280   30.1390   42.8720 C   0  0  0  0  0  3  0  0  0  0  0  0
  1 21  1  0  0  0  0
  2  1  2  0  0  0  0
  3  4  2  0  0  0  0
  3  2  1  0  0  0  0
  4  5  1  0  0  0  0
  5  6  2  0  0  0  0
  5 10  1  0  0  0  0
  6  7  1  0  0  0  0
  7  8  2  0  0  0  0
  8 16  1  0  0  0  0
  9  8  1  0  0  0  0
  9 28  1  0  0  0  0
 10  1  1  0  0  0  0
 10  9  2  0  0  0  0
 11  2  1  0  0  0  0
 12  3  1  0  0  0  0
 13  4  1  0  0  0  0
 14  6  1  0  0  0  0
 15  7  1  0  0  0  0
 17 23  1  0  0  0  0
 18 17  1  0  0  0  0
 18 25  1  0  0  0  0
 19 18  2  0  0  0  0
 20 21  2  0  0  0  0
 20 19  1  0  0  0  0
 21 22  1  0  0  0  0
 22 17  2  0  0  0  0
 24 19  1  0  0  0  0
 25 27  1  0  0  0  0
 25 26  1  0  0  0  0
 28 31  1  0  0  0  0
 30 37  1  0  0  0  0
 30 29  1  0  0  0  0
 31 30  2  0  0  0  0
 32 34  2  0  0  0  0
 32 31  1  0  0  0  0
 33 32  1  0  0  0  0
 34 36  1  0  0  0  0
 35 34  1  0  0  0  0
 36 37  2  0  0  0  0
M  END
>  <minimizedAffinity>
-5.7136817

$$$$

 OpenBabel03242515583D

 37 40  0  0  0  0  0  0  0  0999 V2000
   40.9530   31.5420   40.7320 C   0  0  0  0  0  0  0  0  0  0  0  0
   41.7750   32.6760   40.7300 C   0  0  0  0  0  0  0  0  0  0  0  0
   41.3100   33.9400   40.4700 C   0  0  0  0  0  0  0  0  0  0  0  0
   40.0180   34.1610   40.1990 C   0  0  0  0  0  0  0  0  0  0  0  0
   39.1610   33.0830   40.1860 C   0  0  0  0  0  0  0  0  0  0  0  0
   37.8420   33.3200   39.9050 C   0  0  0  0  0  0  0  0  0  0  0  0
   36.9410   32.2920   39.8720 C   0  0  0  0  0  0  0  0  0  0  0  0
   37.4270   31.0130   40.1320 C   0  0  0  0  0  0  0  0  0  0  0  0
   38.7400   30.8560   40.4010 C   0  0  0  0  0  0  0  0  0  0  0  0
   39.6490   31.8250   40.4480 C   0  0  0  0  0  0  0  0  0  0  0  0
   42.8300   32.5680   40.9420 H   0  0  0  0  0  0  0  0  0  0  0  0
   42.0080   34.7780   40.4860 H   0  0  0  0  0  0  0  0  0  0  0  0
   39.6910   35.1760   40.0010 H   0  0  0  0  0  0  0  0  0  0  0  0
   37.5220   34.3670   39.7060 H   0  0  0  0  0  0  0  0  0  0  0  0
   35.9090   32.6100   39.6360 H   0  0  0  0  0  0  0  0  0  0  0  0
   36.5620   30.3610   40.0700 H   0  0  0  0  0  0  0  0  0  0  0  0
   42.0100   28.9220   42.9560 C   0  0  0  0  0  0  0  0  0  0  0  0
   42.3630   27.8620   42.0640 C   0  0  0  0  0  0  0  0  0  0  0  0
   42.2420   28.0540   40.6540 C   0  0  0  0  0  0  0  0  0  0  0  0
   41.7930   29.2530   40.2530 N   0  0  0  0  0  0  0  0  0  0  0  0
   41.4690   30.2240   41.0610 C   0  0  0  0  0  0  0  0  0  0  0  0
   41.5840   30.0430   42.4170 N   0  0  0  0  0  0  0  0  0  0  0  0
   42.1130   28.7410   44.0160 H   0  0  0  0  0  0  0  0  0  0  0  0
   42.5140   27.2400   40.0020 H   0  0  0  0  0  0  0  0  0  0  0  0
   42.8230   26.6460   42.6320 N   0  0  0  0  0  0  0  0  0  0  0  0
   42.4530   26.3790   43.5630 H   0  0  0  0  0  0  0  0  0  0  0  0
   43.5180   26.0300   42.1290 H   0  0  0  0  0  0  0  0  0  0  0  0
   38.9410   29.5390   40.6020 O   0  0  0  0  0  0  0  0  0  0  0  0
   38.7060   30.1790   43.3590 F   0  0  0  0  0  0  0  0  0  0  0  0
   38.0940   29.0240   42.9250 C   0  0  0  0  0  0  0  0  0  0  0  0
   38.2610   28.7960   41.5530 C   0  0  0  0  0  0  0  0  0  0  0  0
   37.6840   27.6830   40.9900 C   0  0  0  0  0  0  0  0  0  0  0  0
   37.7290   27.3760   39.9380 H   0  0  0  0  0  0  0  0  0  0  0  0
   36.9420   26.7710   41.7310 C   0  0  0  0  0  0  0  0  0  0  0  0
   36.4710   25.8830   41.3350 H   0  0  0  0  0  0  0  0  0  0  0  0
   36.7980   27.0300   43.0930 C   0  0  0  0  0  3  0  0  0  0  0  0
   37.3660   28.1410   43.6800 C   0  0  0  0  0  3  0  0  0  0  0  0
  1 21  1  0  0  0  0
  2  1  1  0  0  0  0
  2 11  1  0  0  0  0
  3 12  1  0  0  0  0
  3  2  2  0  0  0  0
  4  3  1  0  0  0  0
  5  4  2  0  0  0  0
  5 10  1  0  0  0  0
  6  5  1  0  0  0  0
  7  6  2  0  0  0  0
  7  8  1  0  0  0  0
  8  9  2  0  0  0  0
  9 10  1  0  0  0  0
  9 28  1  0  0  0  0
 10  1  2  0  0  0  0
 13  4  1  0  0  0  0
 14  6  1  0  0  0  0
 15  7  1  0  0  0  0
 16  8  1  0  0  0  0
 17 23  1  0  0  0  0
 18 25  1  0  0  0  0
 18 17  2  0  0  0  0
 19 18  1  0  0  0  0
 20 19  2  0  0  0  0
 20 21  1  0  0  0  0
 21 22  2  0  0  0  0
 22 17  1  0  0  0  0
 24 19  1  0  0  0  0
 25 26  1  0  0  0  0
 27 25  1  0  0  0  0
 28 31  1  0  0  0  0
 30 29  1  0  0  0  0
 30 37  1  0  0  0  0
 31 30  2  0  0  0  0
 32 31  1  0  0  0  0
 32 34  2  0  0  0  0
 33 32  1  0  0  0  0
 34 36  1  0  0  0  0
 35 34  1  0  0  0  0
 36 37  2  0  0  0  0
M  END
>  <minimizedAffinity>
-5.70023346

$$$$
