
     RDKit          3D

 46 49  0  0  0  0  0  0  0  0999 V2000
   44.5001   35.5360   45.1228 C   0  0  0  0  0  0  0  0  0  0  0  0
   45.1613   35.5060   43.8810 C   0  0  0  0  0  0  0  0  0  0  0  0
   46.0807   34.5439   43.6419 C   0  0  0  0  0  0  0  0  0  0  0  0
   46.3149   33.6486   44.6318 N   0  0  0  0  0  0  0  0  0  0  0  0
   45.6909   33.6795   45.7997 C   0  0  0  0  0  0  0  0  0  0  0  0
   44.7791   34.6180   46.0623 N   0  0  0  0  0  0  0  0  0  0  0  0
   46.0156   32.6843   46.7847 N   0  0  0  0  0  0  0  0  0  0  0  0
   45.2638   32.4577   47.9729 C   0  0  0  0  0  0  0  0  0  0  0  0
   46.3346   32.1053   48.9902 C   0  0  0  0  0  0  0  0  0  0  0  0
   47.6164   32.0064   48.2401 C   0  0  0  0  0  0  0  0  0  0  0  0
   47.1337   31.7717   46.8059 C   0  0  1  0  0  0  0  0  0  0  0  0
   44.8169   36.5187   42.9179 N   0  0  0  0  0  0  0  0  0  0  0  0
   46.6273   30.0760   46.6373 S   0  0  0  0  0  0  0  0  0  0  0  0
   45.6117   30.5109   43.4903 O   0  0  0  0  0  0  0  0  0  0  0  0
   44.9803   29.9856   44.4230 C   0  0  0  0  0  0  0  0  0  0  0  0
   45.0799   29.7801   45.8844 C   0  0  1  0  0  0  0  0  0  0  0  0
   44.5360   28.3813   46.0349 C   0  0  0  0  0  0  0  0  0  0  0  0
   43.2205   28.5872   45.2717 C   0  0  0  0  0  0  0  0  0  0  0  0
   43.7323   29.3317   44.1271 N   0  0  0  0  0  0  0  0  0  0  0  0
   43.7665   36.3212   45.2854 H   0  0  0  0  0  0  0  0  0  0  0  0
   46.6053   34.4950   42.6972 H   0  0  0  0  0  0  0  0  0  0  0  0
   44.3821   31.8970   48.0220 H   0  0  0  0  0  0  0  0  0  0  0  0
   44.9465   33.4959   48.3198 H   0  0  0  0  0  0  0  0  0  0  0  0
   46.3290   32.7019   49.8949 H   0  0  0  0  0  0  0  0  0  0  0  0
   46.0770   31.0544   49.3149 H   0  0  0  0  0  0  0  0  0  0  0  0
   48.2718   31.1869   48.5866 H   0  0  0  0  0  0  0  0  0  0  0  0
   48.1237   32.9870   48.3078 H   0  0  0  0  0  0  0  0  0  0  0  0
   47.9706   32.0546   46.1611 H   0  0  0  0  0  0  0  0  0  0  0  0
   44.6804   36.1958   41.9238 H   0  0  0  0  0  0  0  0  0  0  0  0
   44.6990   37.5199   43.1410 H   0  0  0  0  0  0  0  0  0  0  0  0
   44.1977   30.3858   46.2370 H   0  0  0  0  0  0  0  0  0  0  0  0
   44.3087   28.0943   47.0654 H   0  0  0  0  0  0  0  0  0  0  0  0
   45.1416   27.6293   45.4941 H   0  0  0  0  0  0  0  0  0  0  0  0
   42.8346   27.6099   44.9280 H   0  0  0  0  0  0  0  0  0  0  0  0
   42.5065   29.1627   45.8823 H   0  0  0  0  0  0  0  0  0  0  0  0
   43.6460   31.3999   42.1998 F   0  0  0  0  0  0  0  0  0  0  0  0
   42.9120   30.3024   41.9493 C   0  0  0  0  0  0  0  0  0  0  0  0
   42.9814   29.3330   42.8997 C   0  0  0  0  0  0  0  0  0  0  0  0
   42.2514   28.1505   42.7290 C   0  0  0  0  0  0  0  0  0  0  0  0
   42.2526   27.3201   43.4479 H   0  0  0  0  0  0  0  0  0  0  0  0
   41.4523   27.9477   41.5991 C   0  0  0  0  0  0  0  0  0  0  0  0
   40.8957   27.0256   41.4866 H   0  0  0  0  0  0  0  0  0  0  0  0
   41.3880   28.9518   40.6270 C   0  0  0  0  0  0  0  0  0  0  0  0
   42.1308   30.0985   40.8495 C   0  0  0  0  0  0  0  0  0  0  0  0
   40.7735   28.8082   39.7475 H   0  0  0  0  0  0  0  0  0  0  0  0
   42.0820   30.8689   40.1046 H   0  0  0  0  0  0  0  0  0  0  0  0
  1  6  2  0
  2  1  1  0
  3  2  2  0
  3  4  1  0
  4  5  2  0
  5  6  1  0
  5  7  1  0
  7 11  1  0
  7  8  1  0
  8  9  1  0
 10  9  1  0
 11 10  1  0
 12  2  1  0
 13 11  1  0
 14 15  2  0
 15 16  1  0
 16 17  1  0
 16 13  1  0
 18 17  1  0
 19 15  1  0
 19 18  1  0
  1 20  1  0
  3 21  1  0
  8 22  1  0
  8 23  1  0
  9 24  1  0
  9 25  1  0
 10 26  1  0
 10 27  1  0
 11 28  1  6
 12 29  1  0
 12 30  1  0
 16 31  1  1
 17 32  1  0
 17 33  1  0
 18 34  1  0
 18 35  1  0
 36 37  1  0
 37 38  2  0
 38 39  1  0
 39 40  1  0
 39 41  2  0
 41 42  1  0
 41 43  1  0
 43 44  2  0
 44 37  1  0
 43 45  1  0
 44 46  1  0
 19 38  1  0
M  ISO  8  20  14  21  14  22  13  23  13  24  13  25  13  26  13  27  13
M  ISO  8  28  13  31  13  32  13  33  13  34  13  35  13  40  15  42  16
M  END
>  <DihAtoms>  (1) 
14,18,37,36

>  <DihDeg>  (1) 
90.00287666801079

$$$$
