
 OpenBabel03242523273D

 45 48  0  0  1  0  0  0  0  0999 V2000
   37.3560   27.6190   37.1990 C   0  0  0  0  0  0  0  0  0  0  0  0
   37.4290   26.4290   37.7620 C   0  0  0  0  0  0  0  0  0  0  0  0
   38.6830   25.8390   37.7190 C   0  0  0  0  0  0  0  0  0  0  0  0
   39.7210   26.5600   37.0880 N   0  0  0  0  0  0  0  0  0  0  0  0
   39.5680   27.7430   36.5450 C   0  0  0  0  0  0  0  0  0  0  0  0
   38.3230   28.3480   36.5820 N   0  0  0  0  0  0  0  0  0  0  0  0
   38.9490   24.8740   38.1230 H   0  0  0  0  0  0  0  0  0  0  0  0
   40.4580   28.1650   36.1000 H   0  0  0  0  0  0  0  0  0  0  0  0
   36.3510   25.6380   38.3020 C   0  0  1  0  0  0  0  0  0  0  0  0
   36.4240   24.3960   38.8320 C   0  0  0  0  0  0  0  0  0  0  0  0
   36.3940   25.4530   39.8950 C   0  0  1  0  0  0  0  0  0  0  0  0
   35.3610   26.1430   38.0560 H   0  0  0  0  0  0  0  0  0  0  0  0
   35.5610   23.6970   38.8590 H   0  0  0  0  0  0  0  0  0  0  0  0
   37.3760   23.7860   38.8050 H   0  0  0  0  0  0  0  0  0  0  0  0
   35.4250   25.6350   40.4010 H   0  0  0  0  0  0  0  0  0  0  0  0
   37.6210   25.8170   40.5030 N   0  0  0  0  0  0  0  0  0  0  0  0
   38.5060   25.3430   40.2220 H   0  0  0  0  0  0  0  0  0  0  0  0
   39.4910   27.9680   40.3490 F   0  0  0  0  0  0  0  0  0  0  0  0
   38.6800   27.8460   41.4260 C   0  0  0  0  0  0  0  0  0  0  0  0
   37.7760   26.8070   41.4950 C   0  0  0  0  0  0  0  0  0  0  0  0
   37.0280   26.8320   42.6540 C   0  0  0  0  0  0  0  0  0  0  0  0
   36.2750   26.0410   42.8030 H   0  0  0  0  0  0  0  0  0  0  0  0
   37.1130   27.7470   43.6630 C   0  0  0  0  0  0  0  0  0  0  0  0
   36.5210   27.7400   44.5440 H   0  0  0  0  0  0  0  0  0  0  0  0
   38.0470   28.7460   43.4980 C   0  0  0  0  0  3  0  0  0  0  0  0
   38.8540   28.8250   42.3820 C   0  0  0  0  0  3  0  0  0  0  0  0
   36.1480   28.4930   37.1730 C   0  0  0  0  0  0  0  0  0  0  0  0
   35.1230   28.9070   36.7230 O   0  0  0  0  0  0  0  0  0  0  0  0
   37.5260   31.2580   36.9560 Cl  0  0  0  0  0  0  0  0  0  0  0  0
   36.8050   30.6690   38.4440 C   0  0  0  0  0  0  0  0  0  0  0  0
   36.1980   29.3900   38.3900 C   0  0  0  0  0  0  0  0  0  0  0  0
   35.6710   29.0590   39.6090 C   0  0  0  0  0  0  0  0  0  0  0  0
   35.6500   29.7150   40.7490 C   0  0  0  0  0  0  0  0  0  0  0  0
   36.2580   30.9570   40.7450 C   0  0  0  0  0  0  0  0  0  0  0  0
   36.8270   31.4320   39.6150 C   0  0  0  0  0  0  0  0  0  0  0  0
   35.1530   28.0650   39.6640 H   0  0  0  0  0  0  0  0  0  0  0  0
   35.1930   29.3470   41.6760 H   0  0  0  0  0  0  0  0  0  0  0  0
   36.2540   31.5280   41.6910 H   0  0  0  0  0  0  0  0  0  0  0  0
   37.3990   32.6740   39.7280 O   0  0  0  0  0  0  0  0  0  0  0  0
   39.6930   31.9000   40.7320 O   0  0  0  0  0  0  0  0  0  0  0  0
   38.9120   33.1220   40.3320 P   0  0  0  0  0  0  0  0  0  0  0  0
   39.7360   34.0040   39.1440 O   0  0  0  0  0  0  0  0  0  0  0  0
   40.2210   33.4040   38.5230 H   0  0  0  0  0  0  0  0  0  0  0  0
   38.7640   34.1580   41.6650 O   0  0  0  0  0  0  0  0  0  0  0  0
   39.3190   34.9580   41.6020 H   0  0  0  0  0  0  0  0  0  0  0  0
  1  2  1  0  0  0  0
  2  9  1  0  0  0  0
  3  2  2  0  0  0  0
  3  7  1  0  0  0  0
  4  3  1  0  0  0  0
  5  6  1  0  0  0  0
  5  4  2  0  0  0  0
  6  1  2  0  0  0  0
  8  5  1  0  0  0  0
  9 12  1  6  0  0  0
  9 10  1  0  0  0  0
  9 11  1  0  0  0  0
 10 13  1  0  0  0  0
 10 11  1  0  0  0  0
 11 15  1  1  0  0  0
 11 16  1  0  0  0  0
 14 10  1  0  0  0  0
 16 20  1  0  0  0  0
 17 16  1  0  0  0  0
 18 19  1  0  0  0  0
 19 20  2  0  0  0  0
 19 26  1  0  0  0  0
 20 21  1  0  0  0  0
 21 22  1  0  0  0  0
 21 23  2  0  0  0  0
 23 24  1  0  0  0  0
 25 23  1  0  0  0  0
 26 25  2  0  0  0  0
 27  1  1  0  0  0  0
 27 31  1  0  0  0  0
 28 27  2  0  0  0  0
 29 30  1  0  0  0  0
 30 35  1  0  0  0  0
 31 30  2  0  0  0  0
 31 32  1  0  0  0  0
 32 36  1  0  0  0  0
 32 33  2  0  0  0  0
 33 37  1  0  0  0  0
 34 33  1  0  0  0  0
 34 38  1  0  0  0  0
 35 39  1  0  0  0  0
 35 34  2  0  0  0  0
 39 41  1  0  0  0  0
 41 40  2  0  0  0  0
 41 44  1  0  0  0  0
 42 41  1  0  0  0  0
 43 42  1  0  0  0  0
 45 44  1  0  0  0  0
M  END
>  <minimizedAffinity>
-6.38497686

$$$$

 OpenBabel03242523273D

 45 48  0  0  1  0  0  0  0  0999 V2000
   41.2600   31.2560   40.7450 C   0  0  0  0  0  0  0  0  0  0  0  0
   40.4020   32.0190   40.0960 C   0  0  0  0  0  0  0  0  0  0  0  0
   40.4740   31.9340   38.7150 C   0  0  0  0  0  0  0  0  0  0  0  0
   41.4390   31.0620   38.1650 N   0  0  0  0  0  0  0  0  0  0  0  0
   42.2620   30.3350   38.8790 C   0  0  0  0  0  0  0  0  0  0  0  0
   42.2020   30.4050   40.2610 N   0  0  0  0  0  0  0  0  0  0  0  0
   39.8610   32.4740   38.0090 H   0  0  0  0  0  0  0  0  0  0  0  0
   42.9440   29.7170   38.3100 H   0  0  0  0  0  0  0  0  0  0  0  0
   39.4970   32.9980   40.6470 C   0  0  1  0  0  0  0  0  0  0  0  0
   38.7380   33.8920   39.9730 C   0  0  0  0  0  0  0  0  0  0  0  0
   37.9440   32.6890   40.3870 C   0  0  1  0  0  0  0  0  0  0  0  0
   39.6400   33.0420   41.7750 H   0  0  0  0  0  0  0  0  0  0  0  0
   38.3880   34.8470   40.4180 H   0  0  0  0  0  0  0  0  0  0  0  0
   38.8270   34.0320   38.8540 H   0  0  0  0  0  0  0  0  0  0  0  0
   37.3030   32.7920   41.2850 H   0  0  0  0  0  0  0  0  0  0  0  0
   37.6910   31.6940   39.4120 N   0  0  0  0  0  0  0  0  0  0  0  0
   37.9330   31.8650   38.4130 H   0  0  0  0  0  0  0  0  0  0  0  0
   38.9170   29.2080   38.7250 F   0  0  0  0  0  0  0  0  0  0  0  0
   37.7080   29.2270   39.3360 C   0  0  0  0  0  0  0  0  0  0  0  0
   37.1210   30.4300   39.6680 C   0  0  0  0  0  0  0  0  0  0  0  0
   35.8970   30.2690   40.2850 C   0  0  0  0  0  0  0  0  0  0  0  0
   35.3480   31.1740   40.5900 H   0  0  0  0  0  0  0  0  0  0  0  0
   35.2730   29.0890   40.5690 C   0  0  0  0  0  0  0  0  0  0  0  0
   34.3280   28.9980   41.0450 H   0  0  0  0  0  0  0  0  0  0  0  0
   35.9410   27.9440   40.1960 C   0  0  0  0  0  3  0  0  0  0  0  0
   37.1720   27.9790   39.5720 C   0  0  0  0  0  3  0  0  0  0  0  0
   41.3400   31.1070   42.2270 C   0  0  0  0  0  0  0  0  0  0  0  0
   41.7280   31.3850   43.3210 O   0  0  0  0  0  0  0  0  0  0  0  0
   42.5930   28.3790   42.9840 Cl  0  0  0  0  0  0  0  0  0  0  0  0
   40.8610   28.6630   42.9850 C   0  0  0  0  0  0  0  0  0  0  0  0
   40.4340   29.9660   42.6280 C   0  0  0  0  0  0  0  0  0  0  0  0
   39.0690   30.0520   42.6790 C   0  0  0  0  0  0  0  0  0  0  0  0
   38.1560   29.1560   42.9890 C   0  0  0  0  0  0  0  0  0  0  0  0
   38.6290   27.9010   43.3270 C   0  0  0  0  0  0  0  0  0  0  0  0
   39.9580   27.6520   43.3270 C   0  0  0  0  0  0  0  0  0  0  0  0
   38.6320   31.0540   42.4260 H   0  0  0  0  0  0  0  0  0  0  0  0
   37.0740   29.3380   42.9930 H   0  0  0  0  0  0  0  0  0  0  0  0
   37.8830   27.1300   43.5900 H   0  0  0  0  0  0  0  0  0  0  0  0
   40.3110   26.3750   43.6800 O   0  0  0  0  0  0  0  0  0  0  0  0
   40.5140   25.3940   41.2570 O   0  0  0  0  0  0  0  0  0  0  0  0
   40.7190   25.0540   42.7080 P   0  0  0  0  0  0  0  0  0  0  0  0
   42.3320   24.6310   43.0080 O   0  0  0  0  0  0  0  0  0  0  0  0
   42.9530   25.1660   42.4500 H   0  0  0  0  0  0  0  0  0  0  0  0
   39.7980   23.6880   43.1030 O   0  0  0  0  0  0  0  0  0  0  0  0
   40.3310   22.8800   43.2310 H   0  0  0  0  0  0  0  0  0  0  0  0
  1 27  1  0  0  0  0
  2  9  1  0  0  0  0
  2  1  2  0  0  0  0
  3  2  1  0  0  0  0
  4  3  2  0  0  0  0
  4  5  1  0  0  0  0
  5  6  2  0  0  0  0
  6  1  1  0  0  0  0
  7  3  1  0  0  0  0
  8  5  1  0  0  0  0
  9 12  1  1  0  0  0
 10 11  1  0  0  0  0
 10 13  1  0  0  0  0
 10  9  1  0  0  0  0
 11  9  1  0  0  0  0
 11 15  1  1  0  0  0
 14 10  1  0  0  0  0
 16 20  1  0  0  0  0
 16 11  1  0  0  0  0
 17 16  1  0  0  0  0
 18 19  1  0  0  0  0
 19 26  2  0  0  0  0
 19 20  1  0  0  0  0
 20 21  2  0  0  0  0
 21 23  1  0  0  0  0
 21 22  1  0  0  0  0
 23 24  1  0  0  0  0
 25 23  2  0  0  0  0
 26 25  1  0  0  0  0
 27 31  1  0  0  0  0
 27 28  2  0  0  0  0
 29 30  1  0  0  0  0
 30 35  1  0  0  0  0
 31 32  1  0  0  0  0
 31 30  2  0  0  0  0
 32 33  2  0  0  0  0
 33 37  1  0  0  0  0
 33 34  1  0  0  0  0
 34 38  1  0  0  0  0
 35 34  2  0  0  0  0
 35 39  1  0  0  0  0
 36 32  1  0  0  0  0
 40 41  2  0  0  0  0
 41 42  1  0  0  0  0
 41 44  1  0  0  0  0
 41 39  1  0  0  0  0
 43 42  1  0  0  0  0
 44 45  1  0  0  0  0
M  END
>  <minimizedAffinity>
-6.31981754

$$$$

 OpenBabel03242523273D

 45 48  0  0  1  0  0  0  0  0999 V2000
   39.4590   30.5730   39.9670 C   0  0  0  0  0  0  0  0  0  0  0  0
   38.4950   30.1970   39.1500 C   0  0  0  0  0  0  0  0  0  0  0  0
   38.9170   29.8120   37.8870 C   0  0  0  0  0  0  0  0  0  0  0  0
   40.3020   29.8660   37.6190 N   0  0  0  0  0  0  0  0  0  0  0  0
   41.2030   30.2560   38.4860 C   0  0  0  0  0  0  0  0  0  0  0  0
   40.7990   30.6420   39.7540 N   0  0  0  0  0  0  0  0  0  0  0  0
   38.2860   29.4720   37.0790 H   0  0  0  0  0  0  0  0  0  0  0  0
   42.2240   30.2420   38.1290 H   0  0  0  0  0  0  0  0  0  0  0  0
   37.0710   30.2520   39.3770 C   0  0  1  0  0  0  0  0  0  0  0  0
   36.0920   29.7200   38.6110 C   0  0  0  0  0  0  0  0  0  0  0  0
   36.4090   28.8500   39.7910 C   0  0  1  0  0  0  0  0  0  0  0  0
   36.8590   30.9790   40.2270 H   0  0  0  0  0  0  0  0  0  0  0  0
   35.0530   30.1110   38.5980 H   0  0  0  0  0  0  0  0  0  0  0  0
   36.3070   29.2450   37.6080 H   0  0  0  0  0  0  0  0  0  0  0  0
   35.7250   28.9080   40.6600 H   0  0  0  0  0  0  0  0  0  0  0  0
   37.2320   27.7180   39.5770 N   0  0  0  0  0  0  0  0  0  0  0  0
   38.2250   27.8390   39.2840 H   0  0  0  0  0  0  0  0  0  0  0  0
   35.7480   26.2490   37.6300 F   0  0  0  0  0  0  0  0  0  0  0  0
   36.1090   25.6640   38.7970 C   0  0  0  0  0  0  0  0  0  0  0  0
   36.8280   26.3760   39.7330 C   0  0  0  0  0  0  0  0  0  0  0  0
   37.1150   25.6310   40.8590 C   0  0  0  0  0  0  0  0  0  0  0  0
   37.6890   26.1130   41.6670 H   0  0  0  0  0  0  0  0  0  0  0  0
   36.7630   24.3340   41.0930 C   0  0  0  0  0  0  0  0  0  0  0  0
   37.0000   23.7870   41.9720 H   0  0  0  0  0  0  0  0  0  0  0  0
   36.0450   23.7110   40.0960 C   0  0  0  0  0  3  0  0  0  0  0  0
   35.6990   24.3530   38.9260 C   0  0  0  0  0  3  0  0  0  0  0  0
   39.2820   30.9630   41.3960 C   0  0  0  0  0  0  0  0  0  0  0  0
   39.2180   31.7330   42.3050 O   0  0  0  0  0  0  0  0  0  0  0  0
   41.6790   29.0980   42.0000 Cl  0  0  0  0  0  0  0  0  0  0  0  0
   40.0440   28.7500   42.5350 C   0  0  0  0  0  0  0  0  0  0  0  0
   39.0510   29.7010   42.1960 C   0  0  0  0  0  0  0  0  0  0  0  0
   37.8310   29.3130   42.6800 C   0  0  0  0  0  0  0  0  0  0  0  0
   37.4730   28.2510   43.3690 C   0  0  0  0  0  0  0  0  0  0  0  0
   38.4820   27.3540   43.6710 C   0  0  0  0  0  0  0  0  0  0  0  0
   39.7490   27.5940   43.2640 C   0  0  0  0  0  0  0  0  0  0  0  0
   36.9780   30.0120   42.4750 H   0  0  0  0  0  0  0  0  0  0  0  0
   36.4510   28.0380   43.7070 H   0  0  0  0  0  0  0  0  0  0  0  0
   38.2060   26.4530   44.2480 H   0  0  0  0  0  0  0  0  0  0  0  0
   40.6660   26.6390   43.6210 O   0  0  0  0  0  0  0  0  0  0  0  0
   41.0850   25.3660   41.3680 O   0  0  0  0  0  0  0  0  0  0  0  0
   41.0700   25.1850   42.8620 P   0  0  0  0  0  0  0  0  0  0  0  0
   42.5860   24.6770   43.4230 O   0  0  0  0  0  0  0  0  0  0  0  0
   43.3200   25.0920   42.9020 H   0  0  0  0  0  0  0  0  0  0  0  0
   39.9840   23.9500   43.2690 O   0  0  0  0  0  0  0  0  0  0  0  0
   40.4190   23.1240   43.5540 H   0  0  0  0  0  0  0  0  0  0  0  0
  1 27  1  0  0  0  0
  2  9  1  0  0  0  0
  2  1  2  0  0  0  0
  3  2  1  0  0  0  0
  4  3  2  0  0  0  0
  4  5  1  0  0  0  0
  5  6  2  0  0  0  0
  6  1  1  0  0  0  0
  7  3  1  0  0  0  0
  8  5  1  0  0  0  0
  9 11  1  0  0  0  0
  9 12  1  1  0  0  0
 10  9  1  0  0  0  0
 10 11  1  0  0  0  0
 11 15  1  1  0  0  0
 13 10  1  0  0  0  0
 14 10  1  0  0  0  0
 16 20  1  0  0  0  0
 16 11  1  0  0  0  0
 17 16  1  0  0  0  0
 18 19  1  0  0  0  0
 19 26  2  0  0  0  0
 19 20  1  0  0  0  0
 20 21  2  0  0  0  0
 21 23  1  0  0  0  0
 21 22  1  0  0  0  0
 23 24  1  0  0  0  0
 25 23  2  0  0  0  0
 26 25  1  0  0  0  0
 27 31  1  0  0  0  0
 27 28  2  0  0  0  0
 29 30  1  0  0  0  0
 30 35  1  0  0  0  0
 31 30  2  0  0  0  0
 31 32  1  0  0  0  0
 32 33  2  0  0  0  0
 33 34  1  0  0  0  0
 33 37  1  0  0  0  0
 34 38  1  0  0  0  0
 35 39  1  0  0  0  0
 35 34  2  0  0  0  0
 36 32  1  0  0  0  0
 40 41  2  0  0  0  0
 41 44  1  0  0  0  0
 41 42  1  0  0  0  0
 41 39  1  0  0  0  0
 43 42  1  0  0  0  0
 44 45  1  0  0  0  0
M  END
>  <minimizedAffinity>
-6.26448488

$$$$

 OpenBabel03242523273D

 45 48  0  0  1  0  0  0  0  0999 V2000
   39.4140   29.6180   41.2920 C   0  0  0  0  0  0  0  0  0  0  0  0
   38.9500   30.5470   40.4800 C   0  0  0  0  0  0  0  0  0  0  0  0
   39.6940   30.7370   39.3260 C   0  0  0  0  0  0  0  0  0  0  0  0
   40.8440   29.9350   39.1520 N   0  0  0  0  0  0  0  0  0  0  0  0
   41.2440   29.0310   40.0110 C   0  0  0  0  0  0  0  0  0  0  0  0
   40.5110   28.8250   41.1680 N   0  0  0  0  0  0  0  0  0  0  0  0
   39.4810   31.4450   38.5390 H   0  0  0  0  0  0  0  0  0  0  0  0
   42.1440   28.4990   39.7350 H   0  0  0  0  0  0  0  0  0  0  0  0
   37.8470   31.4490   40.7050 C   0  0  1  0  0  0  0  0  0  0  0  0
   37.0600   32.0380   39.7770 C   0  0  0  0  0  0  0  0  0  0  0  0
   36.4040   30.8300   40.3770 C   0  0  1  0  0  0  0  0  0  0  0  0
   37.8340   31.7510   41.8020 H   0  0  0  0  0  0  0  0  0  0  0  0
   36.5180   32.9900   39.9580 H   0  0  0  0  0  0  0  0  0  0  0  0
   37.2720   31.9540   38.6690 H   0  0  0  0  0  0  0  0  0  0  0  0
   35.6430   31.0060   41.1630 H   0  0  0  0  0  0  0  0  0  0  0  0
   36.4280   29.6250   39.6340 N   0  0  0  0  0  0  0  0  0  0  0  0
   37.0240   28.8290   39.9460 H   0  0  0  0  0  0  0  0  0  0  0  0
   37.4450   29.9750   36.9890 F   0  0  0  0  0  0  0  0  0  0  0  0
   36.1740   29.5480   37.1800 C   0  0  0  0  0  0  0  0  0  0  0  0
   35.6890   29.3770   38.4590 C   0  0  0  0  0  0  0  0  0  0  0  0
   34.3820   28.9340   38.4740 C   0  0  0  0  0  0  0  0  0  0  0  0
   33.9020   28.7670   39.4520 H   0  0  0  0  0  0  0  0  0  0  0  0
   33.5940   28.6730   37.3910 C   0  0  0  0  0  0  0  0  0  0  0  0
   32.5890   28.3320   37.4360 H   0  0  0  0  0  0  0  0  0  0  0  0
   34.1730   28.8750   36.1580 C   0  0  0  0  0  3  0  0  0  0  0  0
   35.4720   29.3160   36.0160 C   0  0  0  0  0  3  0  0  0  0  0  0
   38.7640   29.1690   42.5580 C   0  0  0  0  0  0  0  0  0  0  0  0
   38.1000   29.3090   43.5390 O   0  0  0  0  0  0  0  0  0  0  0  0
   36.8380   26.9860   41.5030 Cl  0  0  0  0  0  0  0  0  0  0  0  0
   38.3260   26.6110   42.3560 C   0  0  0  0  0  0  0  0  0  0  0  0
   39.1140   27.7130   42.7680 C   0  0  0  0  0  0  0  0  0  0  0  0
   40.2440   27.2810   43.4090 C   0  0  0  0  0  0  0  0  0  0  0  0
   40.6730   26.0670   43.6800 C   0  0  0  0  0  0  0  0  0  0  0  0
   39.8640   25.0290   43.2560 C   0  0  0  0  0  0  0  0  0  0  0  0
   38.7080   25.2890   42.6040 C   0  0  0  0  0  0  0  0  0  0  0  0
   40.9430   28.0830   43.7620 H   0  0  0  0  0  0  0  0  0  0  0  0
   41.6070   25.8350   44.2080 H   0  0  0  0  0  0  0  0  0  0  0  0
   40.2020   23.9990   43.4720 H   0  0  0  0  0  0  0  0  0  0  0  0
   37.9880   24.1840   42.2300 O   0  0  0  0  0  0  0  0  0  0  0  0
   38.7250   24.1280   39.7140 O   0  0  0  0  0  0  0  0  0  0  0  0
   37.8130   23.4650   40.7110 P   0  0  0  0  0  0  0  0  0  0  0  0
   38.1620   21.8130   40.8430 O   0  0  0  0  0  0  0  0  0  0  0  0
   39.1350   21.6430   40.7530 H   0  0  0  0  0  0  0  0  0  0  0  0
   36.2130   23.5610   40.1620 O   0  0  0  0  0  0  0  0  0  0  0  0
   35.8570   22.7100   39.8410 H   0  0  0  0  0  0  0  0  0  0  0  0
  1 27  1  0  0  0  0
  2  9  1  0  0  0  0
  2  1  2  0  0  0  0
  3  2  1  0  0  0  0
  4  3  2  0  0  0  0
  4  5  1  0  0  0  0
  5  6  2  0  0  0  0
  6  1  1  0  0  0  0
  7  3  1  0  0  0  0
  8  5  1  0  0  0  0
  9 12  1  1  0  0  0
 10 13  1  0  0  0  0
 10 11  1  0  0  0  0
 10  9  1  0  0  0  0
 11  9  1  0  0  0  0
 11 15  1  1  0  0  0
 14 10  1  0  0  0  0
 16 17  1  0  0  0  0
 16 11  1  0  0  0  0
 18 19  1  0  0  0  0
 19 20  1  0  0  0  0
 20 21  2  0  0  0  0
 20 16  1  0  0  0  0
 21 22  1  0  0  0  0
 23 24  1  0  0  0  0
 23 21  1  0  0  0  0
 25 23  2  0  0  0  0
 26 25  1  0  0  0  0
 26 19  2  0  0  0  0
 27 31  1  0  0  0  0
 27 28  2  0  0  0  0
 29 30  1  0  0  0  0
 30 35  2  0  0  0  0
 30 31  1  0  0  0  0
 31 32  2  0  0  0  0
 32 33  1  0  0  0  0
 32 36  1  0  0  0  0
 33 37  1  0  0  0  0
 34 38  1  0  0  0  0
 34 33  2  0  0  0  0
 35 34  1  0  0  0  0
 39 35  1  0  0  0  0
 40 41  2  0  0  0  0
 41 42  1  0  0  0  0
 41 39  1  0  0  0  0
 43 42  1  0  0  0  0
 44 41  1  0  0  0  0
 45 44  1  0  0  0  0
M  END
>  <minimizedAffinity>
-6.2479887

$$$$

 OpenBabel03242523273D

 45 48  0  0  1  0  0  0  0  0999 V2000
   37.4200   28.7610   41.3730 C   0  0  0  0  0  0  0  0  0  0  0  0
   37.9570   27.9780   40.4580 C   0  0  0  0  0  0  0  0  0  0  0  0
   38.0120   26.6350   40.7960 C   0  0  0  0  0  0  0  0  0  0  0  0
   37.5010   26.2610   42.0590 N   0  0  0  0  0  0  0  0  0  0  0  0
   36.9830   27.1010   42.9190 C   0  0  0  0  0  0  0  0  0  0  0  0
   36.9170   28.4460   42.5960 N   0  0  0  0  0  0  0  0  0  0  0  0
   38.4110   25.8390   40.1870 H   0  0  0  0  0  0  0  0  0  0  0  0
   36.6350   26.6600   43.8430 H   0  0  0  0  0  0  0  0  0  0  0  0
   38.5870   28.3680   39.2200 C   0  0  1  0  0  0  0  0  0  0  0  0
   38.7830   27.6090   38.1190 C   0  0  0  0  0  0  0  0  0  0  0  0
   37.5840   28.4970   37.9740 C   0  0  1  0  0  0  0  0  0  0  0  0
   39.0730   29.3880   39.3570 H   0  0  0  0  0  0  0  0  0  0  0  0
   39.5900   27.8070   37.3810 H   0  0  0  0  0  0  0  0  0  0  0  0
   38.5520   26.5020   38.1040 H   0  0  0  0  0  0  0  0  0  0  0  0
   37.7100   29.4240   37.3820 H   0  0  0  0  0  0  0  0  0  0  0  0
   36.3060   27.9220   38.1790 N   0  0  0  0  0  0  0  0  0  0  0  0
   36.1810   27.1520   38.8710 H   0  0  0  0  0  0  0  0  0  0  0  0
   35.9500   27.8230   35.3470 F   0  0  0  0  0  0  0  0  0  0  0  0
   34.9490   28.2640   36.1460 C   0  0  0  0  0  0  0  0  0  0  0  0
   35.1240   28.3070   37.5120 C   0  0  0  0  0  0  0  0  0  0  0  0
   34.0070   28.7760   38.1750 C   0  0  0  0  0  0  0  0  0  0  0  0
   34.0480   28.8470   39.2740 H   0  0  0  0  0  0  0  0  0  0  0  0
   32.8280   29.1700   37.6120 C   0  0  0  0  0  0  0  0  0  0  0  0
   31.9850   29.5270   38.1500 H   0  0  0  0  0  0  0  0  0  0  0  0
   32.7540   29.0890   36.2390 C   0  0  0  0  0  3  0  0  0  0  0  0
   33.8060   28.6360   35.4690 C   0  0  0  0  0  3  0  0  0  0  0  0
   37.1770   30.2250   41.2280 C   0  0  0  0  0  0  0  0  0  0  0  0
   36.5000   31.2030   41.1280 O   0  0  0  0  0  0  0  0  0  0  0  0
   37.8310   32.0490   38.8130 Cl  0  0  0  0  0  0  0  0  0  0  0  0
   38.9630   31.7630   40.1230 C   0  0  0  0  0  0  0  0  0  0  0  0
   38.5210   30.9150   41.1680 C   0  0  0  0  0  0  0  0  0  0  0  0
   39.4920   30.7860   42.1240 C   0  0  0  0  0  0  0  0  0  0  0  0
   40.7000   31.3010   42.2040 C   0  0  0  0  0  0  0  0  0  0  0  0
   41.0810   32.1200   41.1560 C   0  0  0  0  0  0  0  0  0  0  0  0
   40.2310   32.3510   40.1300 C   0  0  0  0  0  0  0  0  0  0  0  0
   39.2300   30.1420   43.0040 H   0  0  0  0  0  0  0  0  0  0  0  0
   41.4040   31.1240   43.0270 H   0  0  0  0  0  0  0  0  0  0  0  0
   42.0920   32.5640   41.2000 H   0  0  0  0  0  0  0  0  0  0  0  0
   40.7150   33.1780   39.1490 O   0  0  0  0  0  0  0  0  0  0  0  0
   42.3770   31.6610   37.8040 O   0  0  0  0  0  0  0  0  0  0  0  0
   41.4070   32.8010   37.6550 P   0  0  0  0  0  0  0  0  0  0  0  0
   40.1720   32.4060   36.5640 O   0  0  0  0  0  0  0  0  0  0  0  0
   39.9260   31.4480   36.6320 H   0  0  0  0  0  0  0  0  0  0  0  0
   42.2070   34.1380   36.9890 O   0  0  0  0  0  0  0  0  0  0  0  0
   41.9700   34.3130   36.0580 H   0  0  0  0  0  0  0  0  0  0  0  0
  1  6  1  0  0  0  0
  2  3  1  0  0  0  0
  2  1  2  0  0  0  0
  3  4  2  0  0  0  0
  4  5  1  0  0  0  0
  5  8  1  0  0  0  0
  6  5  2  0  0  0  0
  7  3  1  0  0  0  0
  9 12  1  1  0  0  0
  9  2  1  0  0  0  0
 10  9  1  0  0  0  0
 11 15  1  6  0  0  0
 11 10  1  0  0  0  0
 11 16  1  0  0  0  0
 11  9  1  0  0  0  0
 13 10  1  0  0  0  0
 14 10  1  0  0  0  0
 16 17  1  0  0  0  0
 18 19  1  0  0  0  0
 19 20  1  0  0  0  0
 20 21  2  0  0  0  0
 20 16  1  0  0  0  0
 21 22  1  0  0  0  0
 23 24  1  0  0  0  0
 23 21  1  0  0  0  0
 25 23  2  0  0  0  0
 26 19  2  0  0  0  0
 26 25  1  0  0  0  0
 27  1  1  0  0  0  0
 28 27  2  0  0  0  0
 29 30  1  0  0  0  0
 30 35  2  0  0  0  0
 30 31  1  0  0  0  0
 31 27  1  0  0  0  0
 31 32  2  0  0  0  0
 32 33  1  0  0  0  0
 32 36  1  0  0  0  0
 33 37  1  0  0  0  0
 34 38  1  0  0  0  0
 34 33  2  0  0  0  0
 35 34  1  0  0  0  0
 39 35  1  0  0  0  0
 41 40  2  0  0  0  0
 41 39  1  0  0  0  0
 42 43  1  0  0  0  0
 42 41  1  0  0  0  0
 44 41  1  0  0  0  0
 45 44  1  0  0  0  0
M  END
>  <minimizedAffinity>
-6.21401548

$$$$

 OpenBabel03242523273D

 45 48  0  0  1  0  0  0  0  0999 V2000
   39.4460   31.9460   39.0790 C   0  0  0  0  0  0  0  0  0  0  0  0
   40.3050   30.9730   39.3120 C   0  0  0  0  0  0  0  0  0  0  0  0
   41.2820   31.2700   40.2500 C   0  0  0  0  0  0  0  0  0  0  0  0
   41.2530   32.5540   40.8370 N   0  0  0  0  0  0  0  0  0  0  0  0
   40.3650   33.4720   40.5490 C   0  0  0  0  0  0  0  0  0  0  0  0
   39.3790   33.1920   39.6180 N   0  0  0  0  0  0  0  0  0  0  0  0
   42.0720   30.6110   40.5790 H   0  0  0  0  0  0  0  0  0  0  0  0
   40.4770   34.4060   41.0840 H   0  0  0  0  0  0  0  0  0  0  0  0
   40.4110   29.7060   38.6330 C   0  0  1  0  0  0  0  0  0  0  0  0
   41.2880   28.7070   38.8820 C   0  0  0  0  0  0  0  0  0  0  0  0
   39.9510   28.4410   39.5060 C   0  0  1  0  0  0  0  0  0  0  0  0
   39.7500   29.7250   37.7070 H   0  0  0  0  0  0  0  0  0  0  0  0
   41.5920   27.9610   38.1160 H   0  0  0  0  0  0  0  0  0  0  0  0
   42.1360   28.8220   39.6210 H   0  0  0  0  0  0  0  0  0  0  0  0
   39.2750   27.7430   38.9750 H   0  0  0  0  0  0  0  0  0  0  0  0
   39.8040   28.6970   40.8910 N   0  0  0  0  0  0  0  0  0  0  0  0
   40.5120   29.2710   41.3970 H   0  0  0  0  0  0  0  0  0  0  0  0
   38.8540   30.0410   43.2250 F   0  0  0  0  0  0  0  0  0  0  0  0
   38.2810   28.8810   42.8250 C   0  0  0  0  0  0  0  0  0  0  0  0
   38.7410   28.2370   41.6960 C   0  0  0  0  0  0  0  0  0  0  0  0
   38.0460   27.0750   41.4290 C   0  0  0  0  0  0  0  0  0  0  0  0
   38.3390   26.4870   40.5440 H   0  0  0  0  0  0  0  0  0  0  0  0
   37.0110   26.5570   42.1510 C   0  0  0  0  0  0  0  0  0  0  0  0
   36.4950   25.6580   41.9190 H   0  0  0  0  0  0  0  0  0  0  0  0
   36.6270   27.2750   43.2620 C   0  0  0  0  0  3  0  0  0  0  0  0
   37.2470   28.4520   43.6300 C   0  0  0  0  0  3  0  0  0  0  0  0
   38.2620   31.8600   38.1760 C   0  0  0  0  0  0  0  0  0  0  0  0
   37.6270   32.1220   37.2000 O   0  0  0  0  0  0  0  0  0  0  0  0
   37.3800   29.3320   36.6210 Cl  0  0  0  0  0  0  0  0  0  0  0  0
   36.7580   29.7360   38.2120 C   0  0  0  0  0  0  0  0  0  0  0  0
   37.2630   30.9180   38.8070 C   0  0  0  0  0  0  0  0  0  0  0  0
   36.7050   31.1070   40.0430 C   0  0  0  0  0  0  0  0  0  0  0  0
   35.8230   30.3960   40.7120 C   0  0  0  0  0  0  0  0  0  0  0  0
   35.3630   29.2530   40.0830 C   0  0  0  0  0  0  0  0  0  0  0  0
   35.8190   28.9230   38.8530 C   0  0  0  0  0  0  0  0  0  0  0  0
   37.0540   32.0140   40.6030 H   0  0  0  0  0  0  0  0  0  0  0  0
   35.4400   30.6480   41.7090 H   0  0  0  0  0  0  0  0  0  0  0  0
   34.6200   28.6390   40.6230 H   0  0  0  0  0  0  0  0  0  0  0  0
   35.2940   27.7700   38.3280 O   0  0  0  0  0  0  0  0  0  0  0  0
   34.5410   27.8590   35.8190 O   0  0  0  0  0  0  0  0  0  0  0  0
   34.0480   27.5560   37.2080 P   0  0  0  0  0  0  0  0  0  0  0  0
   33.4830   25.9620   37.3140 O   0  0  0  0  0  0  0  0  0  0  0  0
   34.0230   25.3520   36.7500 H   0  0  0  0  0  0  0  0  0  0  0  0
   32.7200   28.5460   37.5630 O   0  0  0  0  0  0  0  0  0  0  0  0
   31.8670   28.0720   37.5660 H   0  0  0  0  0  0  0  0  0  0  0  0
  1  2  2  0  0  0  0
  1  6  1  0  0  0  0
  2  3  1  0  0  0  0
  3  7  1  0  0  0  0
  3  4  2  0  0  0  0
  5  4  1  0  0  0  0
  5  8  1  0  0  0  0
  6  5  2  0  0  0  0
  9 12  1  6  0  0  0
  9 10  1  0  0  0  0
  9  2  1  0  0  0  0
  9 11  1  0  0  0  0
 10 11  1  0  0  0  0
 10 14  1  0  0  0  0
 11 15  1  6  0  0  0
 11 16  1  0  0  0  0
 13 10  1  0  0  0  0
 16 17  1  0  0  0  0
 16 20  1  0  0  0  0
 19 18  1  0  0  0  0
 19 26  1  0  0  0  0
 20 19  2  0  0  0  0
 21 20  1  0  0  0  0
 21 23  2  0  0  0  0
 22 21  1  0  0  0  0
 23 25  1  0  0  0  0
 24 23  1  0  0  0  0
 25 26  2  0  0  0  0
 27 31  1  0  0  0  0
 27  1  1  0  0  0  0
 28 27  2  0  0  0  0
 29 30  1  0  0  0  0
 30 31  2  0  0  0  0
 30 35  1  0  0  0  0
 31 32  1  0  0  0  0
 32 36  1  0  0  0  0
 32 33  2  0  0  0  0
 33 37  1  0  0  0  0
 34 38  1  0  0  0  0
 34 33  1  0  0  0  0
 35 34  2  0  0  0  0
 39 35  1  0  0  0  0
 40 41  2  0  0  0  0
 41 42  1  0  0  0  0
 41 44  1  0  0  0  0
 41 39  1  0  0  0  0
 43 42  1  0  0  0  0
 44 45  1  0  0  0  0
M  END
>  <minimizedAffinity>
-6.09460831

$$$$

 OpenBabel03242523273D

 45 48  0  0  1  0  0  0  0  0999 V2000
   39.3420   25.8740   41.5170 C   0  0  0  0  0  0  0  0  0  0  0  0
   38.6520   26.4040   42.5080 C   0  0  0  0  0  0  0  0  0  0  0  0
   39.3690   26.6060   43.6770 C   0  0  0  0  0  0  0  0  0  0  0  0
   40.7300   26.2270   43.6800 N   0  0  0  0  0  0  0  0  0  0  0  0
   41.3470   25.7010   42.6510 C   0  0  0  0  0  0  0  0  0  0  0  0
   40.6470   25.4950   41.4740 N   0  0  0  0  0  0  0  0  0  0  0  0
   38.9880   27.0270   44.5950 H   0  0  0  0  0  0  0  0  0  0  0  0
   42.3900   25.4640   42.8110 H   0  0  0  0  0  0  0  0  0  0  0  0
   37.2380   26.6830   42.5500 C   0  0  1  0  0  0  0  0  0  0  0  0
   36.5680   27.4150   43.4690 C   0  0  0  0  0  0  0  0  0  0  0  0
   36.8490   28.2050   42.2260 C   0  0  1  0  0  0  0  0  0  0  0  0
   36.7090   26.0370   41.7760 H   0  0  0  0  0  0  0  0  0  0  0  0
   35.4880   27.2740   43.6860 H   0  0  0  0  0  0  0  0  0  0  0  0
   37.0690   27.8130   44.4010 H   0  0  0  0  0  0  0  0  0  0  0  0
   36.0200   28.3200   41.5010 H   0  0  0  0  0  0  0  0  0  0  0  0
   37.9360   29.1140   42.2510 N   0  0  0  0  0  0  0  0  0  0  0  0
   38.7600   28.9290   42.8610 H   0  0  0  0  0  0  0  0  0  0  0  0
   40.3000   30.6950   42.0030 F   0  0  0  0  0  0  0  0  0  0  0  0
   39.1610   31.0680   41.3730 C   0  0  0  0  0  0  0  0  0  0  0  0
   38.0230   30.3000   41.4930 C   0  0  0  0  0  0  0  0  0  0  0  0
   36.9570   30.8190   40.7860 C   0  0  0  0  0  0  0  0  0  0  0  0
   35.9990   30.2750   40.8180 H   0  0  0  0  0  0  0  0  0  0  0  0
   36.9520   31.9560   40.0310 C   0  0  0  0  0  0  0  0  0  0  0  0
   36.1130   32.3300   39.4980 H   0  0  0  0  0  0  0  0  0  0  0  0
   38.1390   32.6520   39.9760 C   0  0  0  0  0  3  0  0  0  0  0  0
   39.2720   32.2320   40.6410 C   0  0  0  0  0  3  0  0  0  0  0  0
   38.8300   25.6230   40.1390 C   0  0  0  0  0  0  0  0  0  0  0  0
   38.3910   24.9520   39.2550 O   0  0  0  0  0  0  0  0  0  0  0  0
   36.2270   26.6870   38.8410 Cl  0  0  0  0  0  0  0  0  0  0  0  0
   37.7610   27.5340   38.7310 C   0  0  0  0  0  0  0  0  0  0  0  0
   38.8640   26.9340   39.3860 C   0  0  0  0  0  0  0  0  0  0  0  0
   39.9880   27.6990   39.2290 C   0  0  0  0  0  0  0  0  0  0  0  0
   40.1780   28.8370   38.5970 C   0  0  0  0  0  0  0  0  0  0  0  0
   39.0670   29.3780   37.9750 C   0  0  0  0  0  0  0  0  0  0  0  0
   37.8760   28.7420   38.0370 C   0  0  0  0  0  0  0  0  0  0  0  0
   40.9160   27.3130   39.7270 H   0  0  0  0  0  0  0  0  0  0  0  0
   41.1360   29.3680   38.5350 H   0  0  0  0  0  0  0  0  0  0  0  0
   39.2010   30.3330   37.4360 H   0  0  0  0  0  0  0  0  0  0  0  0
   36.8460   29.3710   37.3850 O   0  0  0  0  0  0  0  0  0  0  0  0
   35.1200   29.3080   35.4120 O   0  0  0  0  0  0  0  0  0  0  0  0
   36.5680   29.5670   35.7300 P   0  0  0  0  0  0  0  0  0  0  0  0
   37.0130   31.1390   35.2820 O   0  0  0  0  0  0  0  0  0  0  0  0
   36.2700   31.7780   35.4290 H   0  0  0  0  0  0  0  0  0  0  0  0
   37.5410   28.5270   34.8110 O   0  0  0  0  0  0  0  0  0  0  0  0
   38.0140   28.9740   34.0830 H   0  0  0  0  0  0  0  0  0  0  0  0
  1  2  1  0  0  0  0
  2  9  1  0  0  0  0
  2  3  2  0  0  0  0
  3  4  1  0  0  0  0
  3  7  1  0  0  0  0
  5  8  1  0  0  0  0
  5  4  2  0  0  0  0
  6  1  2  0  0  0  0
  6  5  1  0  0  0  0
  9 12  1  6  0  0  0
  9 10  1  0  0  0  0
 10 13  1  0  0  0  0
 10 14  1  0  0  0  0
 11 15  1  6  0  0  0
 11 16  1  0  0  0  0
 11  9  1  0  0  0  0
 11 10  1  0  0  0  0
 16 17  1  0  0  0  0
 19 20  1  0  0  0  0
 19 18  1  0  0  0  0
 20 16  1  0  0  0  0
 21 22  1  0  0  0  0
 21 20  2  0  0  0  0
 23 21  1  0  0  0  0
 24 23  1  0  0  0  0
 25 23  2  0  0  0  0
 25 26  1  0  0  0  0
 26 19  2  0  0  0  0
 27  1  1  0  0  0  0
 28 27  2  0  0  0  0
 30 29  1  0  0  0  0
 30 31  1  0  0  0  0
 31 27  1  0  0  0  0
 32 31  2  0  0  0  0
 32 36  1  0  0  0  0
 33 32  1  0  0  0  0
 34 35  1  0  0  0  0
 34 33  2  0  0  0  0
 35 30  2  0  0  0  0
 37 33  1  0  0  0  0
 38 34  1  0  0  0  0
 39 35  1  0  0  0  0
 40 41  2  0  0  0  0
 41 39  1  0  0  0  0
 42 43  1  0  0  0  0
 42 41  1  0  0  0  0
 44 41  1  0  0  0  0
 45 44  1  0  0  0  0
M  END
>  <minimizedAffinity>
-5.9017024

$$$$

 OpenBabel03242523273D

 45 48  0  0  1  0  0  0  0  0999 V2000
   37.9040   30.3870   41.4370 C   0  0  0  0  0  0  0  0  0  0  0  0
   37.1730   29.4040   41.9250 C   0  0  0  0  0  0  0  0  0  0  0  0
   36.0340   29.1040   41.1940 C   0  0  0  0  0  0  0  0  0  0  0  0
   35.7850   29.8690   40.0320 N   0  0  0  0  0  0  0  0  0  0  0  0
   36.5600   30.8370   39.6110 C   0  0  0  0  0  0  0  0  0  0  0  0
   37.7040   31.1480   40.3280 N   0  0  0  0  0  0  0  0  0  0  0  0
   35.3110   28.3370   41.4250 H   0  0  0  0  0  0  0  0  0  0  0  0
   36.2340   31.3290   38.7060 H   0  0  0  0  0  0  0  0  0  0  0  0
   37.3570   28.7000   43.1700 C   0  0  1  0  0  0  0  0  0  0  0  0
   36.8200   27.5130   43.5340 C   0  0  0  0  0  0  0  0  0  0  0  0
   38.2330   27.3600   43.0530 C   0  0  1  0  0  0  0  0  0  0  0  0
   37.8950   29.3810   43.9050 H   0  0  0  0  0  0  0  0  0  0  0  0
   36.6640   27.2180   44.5930 H   0  0  0  0  0  0  0  0  0  0  0  0
   36.0500   26.9830   42.8990 H   0  0  0  0  0  0  0  0  0  0  0  0
   39.0220   27.2630   43.8250 H   0  0  0  0  0  0  0  0  0  0  0  0
   38.4360   26.8960   41.7310 N   0  0  0  0  0  0  0  0  0  0  0  0
   39.0560   27.4240   41.0790 H   0  0  0  0  0  0  0  0  0  0  0  0
   39.1220   24.2370   42.5130 F   0  0  0  0  0  0  0  0  0  0  0  0
   38.1920   24.4470   41.5510 C   0  0  0  0  0  0  0  0  0  0  0  0
   37.8620   25.7320   41.1790 C   0  0  0  0  0  0  0  0  0  0  0  0
   36.8970   25.7670   40.1920 C   0  0  0  0  0  0  0  0  0  0  0  0
   36.5650   26.7520   39.8260 H   0  0  0  0  0  0  0  0  0  0  0  0
   36.2910   24.6950   39.6030 C   0  0  0  0  0  0  0  0  0  0  0  0
   35.5510   24.7550   38.8440 H   0  0  0  0  0  0  0  0  0  0  0  0
   36.6920   23.4540   40.0450 C   0  0  0  0  0  3  0  0  0  0  0  0
   37.6480   23.2930   41.0270 C   0  0  0  0  0  3  0  0  0  0  0  0
   39.2070   30.8560   41.9880 C   0  0  0  0  0  0  0  0  0  0  0  0
   39.9940   31.0820   42.8570 O   0  0  0  0  0  0  0  0  0  0  0  0
   40.8890   28.7880   40.4130 Cl  0  0  0  0  0  0  0  0  0  0  0  0
   40.8880   30.5020   40.0320 C   0  0  0  0  0  0  0  0  0  0  0  0
   40.0590   31.3270   40.8310 C   0  0  0  0  0  0  0  0  0  0  0  0
   40.1450   32.6300   40.4220 C   0  0  0  0  0  0  0  0  0  0  0  0
   40.8430   33.1900   39.4580 C   0  0  0  0  0  0  0  0  0  0  0  0
   41.6360   32.3380   38.7110 C   0  0  0  0  0  0  0  0  0  0  0  0
   41.6630   31.0150   38.9880 C   0  0  0  0  0  0  0  0  0  0  0  0
   39.5100   33.3630   40.9870 H   0  0  0  0  0  0  0  0  0  0  0  0
   40.8360   34.2610   39.2190 H   0  0  0  0  0  0  0  0  0  0  0  0
   42.2340   32.7840   37.8950 H   0  0  0  0  0  0  0  0  0  0  0  0
   42.4830   30.2680   38.1820 O   0  0  0  0  0  0  0  0  0  0  0  0
   42.6510   27.8740   37.1260 O   0  0  0  0  0  0  0  0  0  0  0  0
   42.1000   29.2530   36.8860 P   0  0  0  0  0  0  0  0  0  0  0  0
   40.4160   29.2080   36.7040 O   0  0  0  0  0  0  0  0  0  0  0  0
   40.0100   28.5220   37.2920 H   0  0  0  0  0  0  0  0  0  0  0  0
   42.7110   29.8570   35.4260 O   0  0  0  0  0  0  0  0  0  0  0  0
   42.0530   29.8810   34.7050 H   0  0  0  0  0  0  0  0  0  0  0  0
  1  2  1  0  0  0  0
  1 27  1  0  0  0  0
  2  9  1  0  0  0  0
  3  7  1  0  0  0  0
  3  2  2  0  0  0  0
  4  3  1  0  0  0  0
  5  4  2  0  0  0  0
  5  6  1  0  0  0  0
  6  1  2  0  0  0  0
  8  5  1  0  0  0  0
  9 10  1  0  0  0  0
  9 12  1  1  0  0  0
 10 13  1  0  0  0  0
 11  9  1  0  0  0  0
 11 10  1  0  0  0  0
 11 15  1  1  0  0  0
 14 10  1  0  0  0  0
 16 11  1  0  0  0  0
 17 16  1  0  0  0  0
 19 18  1  0  0  0  0
 20 19  1  0  0  0  0
 20 16  1  0  0  0  0
 21 20  2  0  0  0  0
 22 21  1  0  0  0  0
 23 25  2  0  0  0  0
 23 21  1  0  0  0  0
 24 23  1  0  0  0  0
 25 26  1  0  0  0  0
 26 19  2  0  0  0  0
 27 28  2  0  0  0  0
 30 29  1  0  0  0  0
 30 31  1  0  0  0  0
 31 27  1  0  0  0  0
 32 31  2  0  0  0  0
 32 36  1  0  0  0  0
 33 32  1  0  0  0  0
 34 35  1  0  0  0  0
 34 33  2  0  0  0  0
 35 30  2  0  0  0  0
 37 33  1  0  0  0  0
 38 34  1  0  0  0  0
 39 35  1  0  0  0  0
 41 40  2  0  0  0  0
 41 39  1  0  0  0  0
 42 41  1  0  0  0  0
 42 43  1  0  0  0  0
 44 41  1  0  0  0  0
 45 44  1  0  0  0  0
M  END
>  <minimizedAffinity>
-5.89175177

$$$$

 OpenBabel03242523273D

 45 48  0  0  1  0  0  0  0  0999 V2000
   38.1460   29.9840   38.8450 C   0  0  0  0  0  0  0  0  0  0  0  0
   38.4580   31.2240   38.5260 C   0  0  0  0  0  0  0  0  0  0  0  0
   39.6370   31.3640   37.8110 C   0  0  0  0  0  0  0  0  0  0  0  0
   40.3610   30.1890   37.5120 N   0  0  0  0  0  0  0  0  0  0  0  0
   39.9860   28.9860   37.8680 C   0  0  0  0  0  0  0  0  0  0  0  0
   38.8090   28.8270   38.5800 N   0  0  0  0  0  0  0  0  0  0  0  0
   40.0630   32.2910   37.4560 H   0  0  0  0  0  0  0  0  0  0  0  0
   40.6490   28.1870   37.5650 H   0  0  0  0  0  0  0  0  0  0  0  0
   37.7880   32.4360   38.9280 C   0  0  1  0  0  0  0  0  0  0  0  0
   37.0320   32.6340   40.0320 C   0  0  0  0  0  0  0  0  0  0  0  0
   38.4260   33.1560   40.2120 C   0  0  1  0  0  0  0  0  0  0  0  0
   37.8330   33.1870   38.0740 H   0  0  0  0  0  0  0  0  0  0  0  0
   36.2410   33.4120   40.0940 H   0  0  0  0  0  0  0  0  0  0  0  0
   36.7550   31.7880   40.7300 H   0  0  0  0  0  0  0  0  0  0  0  0
   38.5770   34.2470   40.0950 H   0  0  0  0  0  0  0  0  0  0  0  0
   39.3420   32.3610   40.9440 N   0  0  0  0  0  0  0  0  0  0  0  0
   39.0170   31.4950   41.4250 H   0  0  0  0  0  0  0  0  0  0  0  0
   41.1440   30.7490   42.4620 F   0  0  0  0  0  0  0  0  0  0  0  0
   41.5910   31.8580   41.8270 C   0  0  0  0  0  0  0  0  0  0  0  0
   40.7180   32.6320   41.0930 C   0  0  0  0  0  0  0  0  0  0  0  0
   41.3360   33.7200   40.5100 C   0  0  0  0  0  0  0  0  0  0  0  0
   40.7200   34.4010   39.9010 H   0  0  0  0  0  0  0  0  0  0  0  0
   42.6550   34.0580   40.6030 C   0  0  0  0  0  0  0  0  0  0  0  0
   43.1020   34.9040   40.1410 H   0  0  0  0  0  0  0  0  0  0  0  0
   43.4440   33.2200   41.3600 C   0  0  0  0  0  3  0  0  0  0  0  0
   42.9390   32.1020   41.9910 C   0  0  0  0  0  3  0  0  0  0  0  0
   36.9010   29.5550   39.5450 C   0  0  0  0  0  0  0  0  0  0  0  0
   35.7200   29.4440   39.6780 O   0  0  0  0  0  0  0  0  0  0  0  0
   36.8070   26.4630   39.6790 Cl  0  0  0  0  0  0  0  0  0  0  0  0
   37.2980   27.4590   41.0380 C   0  0  0  0  0  0  0  0  0  0  0  0
   37.3040   28.8600   40.8260 C   0  0  0  0  0  0  0  0  0  0  0  0
   37.7140   29.5130   41.9570 C   0  0  0  0  0  0  0  0  0  0  0  0
   38.0760   29.0560   43.1360 C   0  0  0  0  0  0  0  0  0  0  0  0
   38.0500   27.6820   43.2880 C   0  0  0  0  0  0  0  0  0  0  0  0
   37.6680   26.8910   42.2600 C   0  0  0  0  0  0  0  0  0  0  0  0
   37.7670   30.6310   41.8840 H   0  0  0  0  0  0  0  0  0  0  0  0
   38.3880   29.6810   43.9820 H   0  0  0  0  0  0  0  0  0  0  0  0
   38.3490   27.2730   44.2700 H   0  0  0  0  0  0  0  0  0  0  0  0
   37.6810   25.5450   42.5250 O   0  0  0  0  0  0  0  0  0  0  0  0
   38.0140   23.2870   41.2350 O   0  0  0  0  0  0  0  0  0  0  0  0
   38.7530   24.3470   42.0060 P   0  0  0  0  0  0  0  0  0  0  0  0
   39.9540   25.0640   41.0490 O   0  0  0  0  0  0  0  0  0  0  0  0
   39.6630   25.1380   40.1040 H   0  0  0  0  0  0  0  0  0  0  0  0
   39.5620   23.6330   43.3120 O   0  0  0  0  0  0  0  0  0  0  0  0
   40.5300   23.5820   43.1930 H   0  0  0  0  0  0  0  0  0  0  0  0
  1 27  1  0  0  0  0
  2  1  2  0  0  0  0
  2  9  1  0  0  0  0
  3  2  1  0  0  0  0
  4  3  2  0  0  0  0
  4  5  1  0  0  0  0
  5  6  2  0  0  0  0
  6  1  1  0  0  0  0
  7  3  1  0  0  0  0
  8  5  1  0  0  0  0
  9 12  1  6  0  0  0
  9 10  1  0  0  0  0
  9 11  1  0  0  0  0
 10 13  1  0  0  0  0
 10 11  1  0  0  0  0
 10 14  1  0  0  0  0
 11 15  1  6  0  0  0
 11 16  1  0  0  0  0
 16 20  1  0  0  0  0
 16 17  1  0  0  0  0
 19 26  1  0  0  0  0
 19 18  1  0  0  0  0
 20 19  2  0  0  0  0
 21 23  2  0  0  0  0
 21 20  1  0  0  0  0
 22 21  1  0  0  0  0
 23 25  1  0  0  0  0
 24 23  1  0  0  0  0
 25 26  2  0  0  0  0
 27 28  2  0  0  0  0
 27 31  1  0  0  0  0
 29 30  1  0  0  0  0
 30 35  1  0  0  0  0
 31 30  2  0  0  0  0
 31 32  1  0  0  0  0
 32 33  2  0  0  0  0
 33 34  1  0  0  0  0
 33 37  1  0  0  0  0
 34 38  1  0  0  0  0
 35 39  1  0  0  0  0
 35 34  2  0  0  0  0
 36 32  1  0  0  0  0
 40 41  2  0  0  0  0
 41 39  1  0  0  0  0
 41 44  1  0  0  0  0
 42 41  1  0  0  0  0
 43 42  1  0  0  0  0
 45 44  1  0  0  0  0
M  END
>  <minimizedAffinity>
-5.85171986

$$$$
