
 OpenBabel03242511073D

 27 29  0  0  1  0  0  0  0  0999 V2000
   37.5410   27.4360   42.5720 C   0  0  1  0  0  0  0  0  0  0  0  0
   36.5580   27.6690   43.6780 C   0  0  0  0  0  0  0  0  0  0  0  0
   37.3180   28.8190   43.0240 C   0  0  2  0  0  0  0  0  0  0  0  0
   37.0770   27.0660   41.6440 H   0  0  0  0  0  0  0  0  0  0  0  0
   36.8710   27.2840   44.6500 H   0  0  0  0  0  0  0  0  0  0  0  0
   35.4630   27.5770   43.4790 H   0  0  0  0  0  0  0  0  0  0  0  0
   38.0430   29.2890   43.7480 H   0  0  0  0  0  0  0  0  0  0  0  0
   40.1190   24.7930   42.9010 C   0  0  0  0  0  0  0  0  0  0  0  0
   41.2240   25.5320   43.4500 C   0  0  0  0  0  0  0  0  0  0  0  0
   41.0360   26.9300   43.6780 C   0  0  0  0  0  0  0  0  0  0  0  0
   39.8480   27.5030   43.3750 N   0  0  0  0  0  0  0  0  0  0  0  0
   38.8340   26.7550   42.8570 C   0  0  0  0  0  0  0  0  0  0  0  0
   38.9650   25.4170   42.6230 N   0  0  0  0  0  0  0  0  0  0  0  0
   40.3140   23.7510   42.7520 H   0  0  0  0  0  0  0  0  0  0  0  0
   42.1710   25.1210   43.7020 H   0  0  0  0  0  0  0  0  0  0  0  0
   41.8550   27.4830   44.0850 H   0  0  0  0  0  0  0  0  0  0  0  0
   36.5610   29.7800   42.3000 N   0  0  0  0  0  0  0  0  0  0  0  0
   35.7670   30.1470   42.8900 H   0  0  0  0  0  0  0  0  0  0  0  0
   35.8170   28.4030   39.9160 F   0  0  0  0  0  0  0  0  0  0  0  0
   36.3310   29.6480   39.8390 C   0  0  0  0  0  0  0  0  0  0  0  0
   36.6880   30.2970   40.9970 C   0  0  0  0  0  0  0  0  0  0  0  0
   37.2060   31.5580   40.8080 C   0  0  0  0  0  0  0  0  0  0  0  0
   37.5310   32.1870   41.6520 H   0  0  0  0  0  0  0  0  0  0  0  0
   37.3530   32.1210   39.5610 C   0  0  0  0  0  0  0  0  0  0  0  0
   37.7660   33.1210   39.4460 H   0  0  0  0  0  0  0  0  0  0  0  0
   36.9740   31.4120   38.4500 C   0  0  0  0  0  3  0  0  0  0  0  0
   36.4560   30.1600   38.5680 C   0  0  0  0  0  3  0  0  0  0  0  0
  1  4  1  6  0  0  0
  1 12  1  0  0  0  0
  1  3  1  0  0  0  0
  1  2  1  0  0  0  0
  2  5  1  0  0  0  0
  3  2  1  0  0  0  0
  3  7  1  1  0  0  0
  6  2  1  0  0  0  0
  8  9  1  0  0  0  0
  9 10  2  0  0  0  0
  9 15  1  0  0  0  0
 10 16  1  0  0  0  0
 11 10  1  0  0  0  0
 12 11  2  0  0  0  0
 13 12  1  0  0  0  0
 13  8  2  0  0  0  0
 14  8  1  0  0  0  0
 17 18  1  0  0  0  0
 17  3  1  0  0  0  0
 20 19  1  0  0  0  0
 20 21  1  0  0  0  0
 21 17  1  0  0  0  0
 22 21  2  0  0  0  0
 22 23  1  0  0  0  0
 24 22  1  0  0  0  0
 25 24  1  0  0  0  0
 26 27  1  0  0  0  0
 26 24  2  0  0  0  0
 27 20  2  0  0  0  0
M  END
>  <minimizedAffinity>
-5.13166475

$$$$

 OpenBabel03242511073D

 27 29  0  0  1  0  0  0  0  0999 V2000
   36.9800   30.2770   39.6320 C   0  0  1  0  0  0  0  0  0  0  0  0
   36.7560   31.6510   40.1830 C   0  0  0  0  0  0  0  0  0  0  0  0
   36.1880   30.4110   40.8660 C   0  0  2  0  0  0  0  0  0  0  0  0
   38.0340   29.9550   39.6720 H   0  0  0  0  0  0  0  0  0  0  0  0
   36.1130   32.2850   39.5690 H   0  0  0  0  0  0  0  0  0  0  0  0
   37.5930   32.1950   40.6840 H   0  0  0  0  0  0  0  0  0  0  0  0
   35.0620   30.3940   40.8040 H   0  0  0  0  0  0  0  0  0  0  0  0
   34.5030   28.8900   37.2480 C   0  0  0  0  0  0  0  0  0  0  0  0
   35.1730   29.0810   35.9900 C   0  0  0  0  0  0  0  0  0  0  0  0
   36.4630   29.6960   36.0140 C   0  0  0  0  0  0  0  0  0  0  0  0
   37.0010   30.0730   37.1970 N   0  0  0  0  0  0  0  0  0  0  0  0
   36.3230   29.8680   38.3600 C   0  0  0  0  0  0  0  0  0  0  0  0
   35.0900   29.2840   38.3880 N   0  0  0  0  0  0  0  0  0  0  0  0
   33.5430   28.4250   37.1720 H   0  0  0  0  0  0  0  0  0  0  0  0
   34.7860   28.7990   35.0410 H   0  0  0  0  0  0  0  0  0  0  0  0
   36.9640   29.8400   35.0810 H   0  0  0  0  0  0  0  0  0  0  0  0
   36.6740   30.0920   42.1620 N   0  0  0  0  0  0  0  0  0  0  0  0
   36.1930   30.6800   42.8930 H   0  0  0  0  0  0  0  0  0  0  0  0
   36.0980   27.5270   43.2690 F   0  0  0  0  0  0  0  0  0  0  0  0
   37.3790   27.9310   43.1420 C   0  0  0  0  0  0  0  0  0  0  0  0
   37.6400   29.1720   42.6100 C   0  0  0  0  0  0  0  0  0  0  0  0
   38.9780   29.4880   42.5290 C   0  0  0  0  0  0  0  0  0  0  0  0
   39.3240   30.4500   42.1210 H   0  0  0  0  0  0  0  0  0  0  0  0
   39.9690   28.6300   42.9460 C   0  0  0  0  0  0  0  0  0  0  0  0
   41.0170   28.9110   42.8680 H   0  0  0  0  0  0  0  0  0  0  0  0
   39.6320   27.4080   43.4680 C   0  0  0  0  0  3  0  0  0  0  0  0
   38.3290   27.0350   43.5760 C   0  0  0  0  0  3  0  0  0  0  0  0
  1  4  1  1  0  0  0
  1  2  1  0  0  0  0
  1  3  1  0  0  0  0
  2  6  1  0  0  0  0
  2  3  1  0  0  0  0
  3  7  1  6  0  0  0
  3 17  1  0  0  0  0
  5  2  1  0  0  0  0
  8 13  1  0  0  0  0
  9 10  1  0  0  0  0
  9  8  2  0  0  0  0
 10 11  2  0  0  0  0
 11 12  1  0  0  0  0
 12 13  2  0  0  0  0
 12  1  1  0  0  0  0
 14  8  1  0  0  0  0
 15  9  1  0  0  0  0
 16 10  1  0  0  0  0
 17 21  1  0  0  0  0
 17 18  1  0  0  0  0
 20 19  1  0  0  0  0
 20 27  1  0  0  0  0
 21 20  2  0  0  0  0
 22 21  1  0  0  0  0
 22 24  2  0  0  0  0
 23 22  1  0  0  0  0
 24 26  1  0  0  0  0
 25 24  1  0  0  0  0
 26 27  2  0  0  0  0
M  END
>  <minimizedAffinity>
-5.11278439

$$$$

 OpenBabel03242511073D

 27 29  0  0  1  0  0  0  0  0999 V2000
   36.4010   28.9540   40.0380 C   0  0  1  0  0  0  0  0  0  0  0  0
   34.9940   29.4330   39.8500 C   0  0  0  0  0  0  0  0  0  0  0  0
   35.9650   30.1430   40.7900 C   0  0  2  0  0  0  0  0  0  0  0  0
   37.0230   29.0580   39.1340 H   0  0  0  0  0  0  0  0  0  0  0  0
   34.2310   28.7630   40.2500 H   0  0  0  0  0  0  0  0  0  0  0  0
   34.7020   29.9480   38.9030 H   0  0  0  0  0  0  0  0  0  0  0  0
   35.6440   30.0310   41.8640 H   0  0  0  0  0  0  0  0  0  0  0  0
   37.1790   26.5300   42.7320 C   0  0  0  0  0  0  0  0  0  0  0  0
   37.1930   25.2860   42.0080 C   0  0  0  0  0  0  0  0  0  0  0  0
   36.9210   25.3350   40.6060 C   0  0  0  0  0  0  0  0  0  0  0  0
   36.6630   26.5240   40.0160 N   0  0  0  0  0  0  0  0  0  0  0  0
   36.6620   27.6720   40.7490 C   0  0  0  0  0  0  0  0  0  0  0  0
   36.9170   27.6780   42.0890 N   0  0  0  0  0  0  0  0  0  0  0  0
   37.3900   26.4350   43.7770 H   0  0  0  0  0  0  0  0  0  0  0  0
   37.3910   24.3330   42.4330 H   0  0  0  0  0  0  0  0  0  0  0  0
   36.9300   24.4130   40.0650 H   0  0  0  0  0  0  0  0  0  0  0  0
   36.3430   31.4730   40.4630 N   0  0  0  0  0  0  0  0  0  0  0  0
   35.5030   32.0310   40.1540 H   0  0  0  0  0  0  0  0  0  0  0  0
   36.8360   34.0540   39.3520 F   0  0  0  0  0  0  0  0  0  0  0  0
   37.8380   33.3790   39.9540 C   0  0  0  0  0  0  0  0  0  0  0  0
   37.5850   32.1350   40.4820 C   0  0  0  0  0  0  0  0  0  0  0  0
   38.6740   31.5320   41.0680 C   0  0  0  0  0  0  0  0  0  0  0  0
   38.6080   30.5340   41.5300 H   0  0  0  0  0  0  0  0  0  0  0  0
   39.9130   32.1280   41.1220 C   0  0  0  0  0  0  0  0  0  0  0  0
   40.7540   31.6230   41.5930 H   0  0  0  0  0  0  0  0  0  0  0  0
   40.0890   33.3720   40.5730 C   0  0  0  0  0  3  0  0  0  0  0  0
   39.0540   34.0220   39.9780 C   0  0  0  0  0  3  0  0  0  0  0  0
  1  4  1  6  0  0  0
  1 12  1  0  0  0  0
  1  3  1  0  0  0  0
  2  1  1  0  0  0  0
  2  5  1  0  0  0  0
  2  3  1  0  0  0  0
  3  7  1  1  0  0  0
  6  2  1  0  0  0  0
  8 14  1  0  0  0  0
  9 15  1  0  0  0  0
  9  8  2  0  0  0  0
 10  9  1  0  0  0  0
 11 10  2  0  0  0  0
 11 12  1  0  0  0  0
 12 13  2  0  0  0  0
 13  8  1  0  0  0  0
 16 10  1  0  0  0  0
 17 21  1  0  0  0  0
 17  3  1  0  0  0  0
 18 17  1  0  0  0  0
 19 20  1  0  0  0  0
 20 27  2  0  0  0  0
 20 21  1  0  0  0  0
 21 22  2  0  0  0  0
 22 24  1  0  0  0  0
 22 23  1  0  0  0  0
 24 25  1  0  0  0  0
 26 24  2  0  0  0  0
 27 26  1  0  0  0  0
M  END
>  <minimizedAffinity>
-5.08907509

$$$$

 OpenBabel03242511073D

 27 29  0  0  1  0  0  0  0  0999 V2000
   36.8730   30.2170   39.2040 C   0  0  1  0  0  0  0  0  0  0  0  0
   36.8120   31.6310   39.6950 C   0  0  0  0  0  0  0  0  0  0  0  0
   36.0370   30.5100   40.3800 C   0  0  2  0  0  0  0  0  0  0  0  0
   37.8670   29.7550   39.3220 H   0  0  0  0  0  0  0  0  0  0  0  0
   36.3010   32.3220   39.0210 H   0  0  0  0  0  0  0  0  0  0  0  0
   37.6860   32.0740   40.2310 H   0  0  0  0  0  0  0  0  0  0  0  0
   34.9250   30.6460   40.2480 H   0  0  0  0  0  0  0  0  0  0  0  0
   34.4300   28.9360   36.7280 C   0  0  0  0  0  0  0  0  0  0  0  0
   35.1360   29.1420   35.4910 C   0  0  0  0  0  0  0  0  0  0  0  0
   36.4360   29.7290   35.5630 C   0  0  0  0  0  0  0  0  0  0  0  0
   36.9520   30.0680   36.7660 N   0  0  0  0  0  0  0  0  0  0  0  0
   36.2400   29.8510   37.9070 C   0  0  0  0  0  0  0  0  0  0  0  0
   34.9960   29.2930   37.8910 N   0  0  0  0  0  0  0  0  0  0  0  0
   33.4630   28.4930   36.6170 H   0  0  0  0  0  0  0  0  0  0  0  0
   34.7670   28.8900   34.5270 H   0  0  0  0  0  0  0  0  0  0  0  0
   36.9640   29.8840   34.6460 H   0  0  0  0  0  0  0  0  0  0  0  0
   36.3970   30.1810   41.7150 N   0  0  0  0  0  0  0  0  0  0  0  0
   36.0070   30.8900   42.3900 H   0  0  0  0  0  0  0  0  0  0  0  0
   39.0760   30.3990   42.6720 F   0  0  0  0  0  0  0  0  0  0  0  0
   38.4390   29.2120   42.7260 C   0  0  0  0  0  0  0  0  0  0  0  0
   37.1490   29.1220   42.2570 C   0  0  0  0  0  0  0  0  0  0  0  0
   36.5930   27.8660   42.3540 C   0  0  0  0  0  0  0  0  0  0  0  0
   35.5670   27.6570   42.0150 H   0  0  0  0  0  0  0  0  0  0  0  0
   37.2740   26.7910   42.8770 C   0  0  0  0  0  0  0  0  0  0  0  0
   36.8060   25.8110   42.9390 H   0  0  0  0  0  0  0  0  0  0  0  0
   38.5600   26.9580   43.3250 C   0  0  0  0  0  3  0  0  0  0  0  0
   39.1670   28.1720   43.2570 C   0  0  0  0  0  3  0  0  0  0  0  0
  1  4  1  1  0  0  0
  1  2  1  0  0  0  0
  1  3  1  0  0  0  0
  2  6  1  0  0  0  0
  2  3  1  0  0  0  0
  3  7  1  6  0  0  0
  3 17  1  0  0  0  0
  5  2  1  0  0  0  0
  8 13  1  0  0  0  0
  9 10  1  0  0  0  0
  9  8  2  0  0  0  0
 10 11  2  0  0  0  0
 11 12  1  0  0  0  0
 12  1  1  0  0  0  0
 13 12  2  0  0  0  0
 14  8  1  0  0  0  0
 15  9  1  0  0  0  0
 16 10  1  0  0  0  0
 17 21  1  0  0  0  0
 17 18  1  0  0  0  0
 19 20  1  0  0  0  0
 20 27  1  0  0  0  0
 21 22  1  0  0  0  0
 21 20  2  0  0  0  0
 22 24  2  0  0  0  0
 23 22  1  0  0  0  0
 24 25  1  0  0  0  0
 24 26  1  0  0  0  0
 27 26  2  0  0  0  0
M  END
>  <minimizedAffinity>
-5.05994987

$$$$

 OpenBabel03242511073D

 27 29  0  0  1  0  0  0  0  0999 V2000
   38.6410   29.6440   41.5880 C   0  0  1  0  0  0  0  0  0  0  0  0
   39.3790   30.0700   42.8210 C   0  0  0  0  0  0  0  0  0  0  0  0
   37.9960   29.4290   42.8940 C   0  0  2  0  0  0  0  0  0  0  0  0
   39.1240   28.8090   41.0560 H   0  0  0  0  0  0  0  0  0  0  0  0
   39.4910   31.1500   42.9300 H   0  0  0  0  0  0  0  0  0  0  0  0
   40.2560   29.4780   43.1780 H   0  0  0  0  0  0  0  0  0  0  0  0
   37.2260   30.1670   43.2590 H   0  0  0  0  0  0  0  0  0  0  0  0
   36.9140   31.1970   38.7000 C   0  0  0  0  0  0  0  0  0  0  0  0
   37.1880   32.5930   38.9130 C   0  0  0  0  0  0  0  0  0  0  0  0
   37.9590   32.9460   40.0640 C   0  0  0  0  0  0  0  0  0  0  0  0
   38.3960   31.9760   40.9000 N   0  0  0  0  0  0  0  0  0  0  0  0
   38.1070   30.6680   40.6490 C   0  0  0  0  0  0  0  0  0  0  0  0
   37.3760   30.2810   39.5640 N   0  0  0  0  0  0  0  0  0  0  0  0
   36.3350   30.9890   37.8240 H   0  0  0  0  0  0  0  0  0  0  0  0
   36.8650   33.3840   38.2830 H   0  0  0  0  0  0  0  0  0  0  0  0
   38.1640   33.9820   40.2270 H   0  0  0  0  0  0  0  0  0  0  0  0
   37.8910   28.1620   43.5300 N   0  0  0  0  0  0  0  0  0  0  0  0
   37.6430   28.2790   44.5490 H   0  0  0  0  0  0  0  0  0  0  0  0
   40.3140   26.6630   43.6680 F   0  0  0  0  0  0  0  0  0  0  0  0
   39.2140   26.1110   43.1160 C   0  0  0  0  0  0  0  0  0  0  0  0
   38.0550   26.8480   43.0540 C   0  0  0  0  0  0  0  0  0  0  0  0
   36.9940   26.1950   42.4680 C   0  0  0  0  0  0  0  0  0  0  0  0
   36.0080   26.6710   42.3560 H   0  0  0  0  0  0  0  0  0  0  0  0
   37.0880   24.9100   41.9860 C   0  0  0  0  0  0  0  0  0  0  0  0
   36.2300   24.4220   41.5280 H   0  0  0  0  0  0  0  0  0  0  0  0
   38.2790   24.2370   42.0820 C   0  0  0  0  0  3  0  0  0  0  0  0
   39.3660   24.8260   42.6500 C   0  0  0  0  0  3  0  0  0  0  0  0
  1  4  1  6  0  0  0
  1  2  1  0  0  0  0
  1  3  1  0  0  0  0
  2  3  1  0  0  0  0
  2  5  1  0  0  0  0
  2  6  1  0  0  0  0
  3  7  1  1  0  0  0
  3 17  1  0  0  0  0
  8  9  2  0  0  0  0
  8 13  1  0  0  0  0
  9 10  1  0  0  0  0
 10 16  1  0  0  0  0
 10 11  2  0  0  0  0
 12 11  1  0  0  0  0
 12  1  1  0  0  0  0
 13 12  2  0  0  0  0
 14  8  1  0  0  0  0
 15  9  1  0  0  0  0
 17 18  1  0  0  0  0
 20 19  1  0  0  0  0
 21 20  1  0  0  0  0
 21 17  1  0  0  0  0
 22 21  2  0  0  0  0
 23 22  1  0  0  0  0
 24 26  2  0  0  0  0
 24 22  1  0  0  0  0
 25 24  1  0  0  0  0
 26 27  1  0  0  0  0
 27 20  2  0  0  0  0
M  END
>  <minimizedAffinity>
-4.90044546

$$$$

 OpenBabel03242511073D

 27 29  0  0  1  0  0  0  0  0999 V2000
   36.7610   27.4070   42.4030 C   0  0  1  0  0  0  0  0  0  0  0  0
   36.8850   28.1820   43.6790 C   0  0  0  0  0  0  0  0  0  0  0  0
   37.3950   28.7360   42.3520 C   0  0  2  0  0  0  0  0  0  0  0  0
   35.7190   27.2690   42.0730 H   0  0  0  0  0  0  0  0  0  0  0  0
   37.5820   27.7550   44.4020 H   0  0  0  0  0  0  0  0  0  0  0  0
   35.9810   28.6520   44.1350 H   0  0  0  0  0  0  0  0  0  0  0  0
   38.5200   28.8120   42.3500 H   0  0  0  0  0  0  0  0  0  0  0  0
   39.6780   25.1360   42.1230 C   0  0  0  0  0  0  0  0  0  0  0  0
   39.0470   23.8990   41.7480 C   0  0  0  0  0  0  0  0  0  0  0  0
   37.6250   23.8960   41.6150 C   0  0  0  0  0  0  0  0  0  0  0  0
   36.9290   25.0340   41.8430 N   0  0  0  0  0  0  0  0  0  0  0  0
   37.5780   26.1790   42.1950 C   0  0  0  0  0  0  0  0  0  0  0  0
   38.9340   26.2320   42.3340 N   0  0  0  0  0  0  0  0  0  0  0  0
   40.7430   25.0820   42.2070 H   0  0  0  0  0  0  0  0  0  0  0  0
   39.5550   22.9850   41.5610 H   0  0  0  0  0  0  0  0  0  0  0  0
   37.1520   22.9790   41.3370 H   0  0  0  0  0  0  0  0  0  0  0  0
   36.7630   29.8990   41.8370 N   0  0  0  0  0  0  0  0  0  0  0  0
   36.0460   30.2640   42.5200 H   0  0  0  0  0  0  0  0  0  0  0  0
   36.5030   28.7740   39.2290 F   0  0  0  0  0  0  0  0  0  0  0  0
   36.7990   30.0830   39.3690 C   0  0  0  0  0  0  0  0  0  0  0  0
   36.9240   30.6090   40.6330 C   0  0  0  0  0  0  0  0  0  0  0  0
   37.2330   31.9510   40.6640 C   0  0  0  0  0  0  0  0  0  0  0  0
   37.3600   32.4960   41.6120 H   0  0  0  0  0  0  0  0  0  0  0  0
   37.4000   32.7010   39.5230 C   0  0  0  0  0  0  0  0  0  0  0  0
   37.6430   33.7590   39.5830 H   0  0  0  0  0  0  0  0  0  0  0  0
   37.2590   32.1050   38.2950 C   0  0  0  0  0  3  0  0  0  0  0  0
   36.9560   30.7840   38.1950 C   0  0  0  0  0  3  0  0  0  0  0  0
  1  4  1  6  0  0  0
  1  2  1  0  0  0  0
  2  6  1  0  0  0  0
  2  5  1  0  0  0  0
  3  7  1  6  0  0  0
  3  1  1  0  0  0  0
  3  2  1  0  0  0  0
  8 14  1  0  0  0  0
  8 13  1  0  0  0  0
  9  8  2  0  0  0  0
 10  9  1  0  0  0  0
 10 11  2  0  0  0  0
 11 12  1  0  0  0  0
 12 13  2  0  0  0  0
 12  1  1  0  0  0  0
 15  9  1  0  0  0  0
 16 10  1  0  0  0  0
 17  3  1  0  0  0  0
 17 18  1  0  0  0  0
 19 20  1  0  0  0  0
 20 21  1  0  0  0  0
 21 22  2  0  0  0  0
 21 17  1  0  0  0  0
 22 23  1  0  0  0  0
 24 25  1  0  0  0  0
 24 22  1  0  0  0  0
 26 24  2  0  0  0  0
 27 26  1  0  0  0  0
 27 20  2  0  0  0  0
M  END
>  <minimizedAffinity>
-4.88067818

$$$$

 OpenBabel03242511073D

 27 29  0  0  1  0  0  0  0  0999 V2000
   39.1060   29.7320   41.4730 C   0  0  1  0  0  0  0  0  0  0  0  0
   40.0300   30.1810   42.5640 C   0  0  0  0  0  0  0  0  0  0  0  0
   38.6920   29.5130   42.8690 C   0  0  2  0  0  0  0  0  0  0  0  0
   39.5100   28.9030   40.8700 H   0  0  0  0  0  0  0  0  0  0  0  0
   40.1370   31.2640   42.6490 H   0  0  0  0  0  0  0  0  0  0  0  0
   40.9660   29.6090   42.7720 H   0  0  0  0  0  0  0  0  0  0  0  0
   37.9780   30.2390   43.3550 H   0  0  0  0  0  0  0  0  0  0  0  0
   37.0160   31.2360   38.8070 C   0  0  0  0  0  0  0  0  0  0  0  0
   37.1670   32.6410   39.0760 C   0  0  0  0  0  0  0  0  0  0  0  0
   37.9860   33.0150   40.1860 C   0  0  0  0  0  0  0  0  0  0  0  0
   38.5790   32.0570   40.9330 N   0  0  0  0  0  0  0  0  0  0  0  0
   38.4020   30.7400   40.6320 C   0  0  0  0  0  0  0  0  0  0  0  0
   37.6310   30.3320   39.5840 N   0  0  0  0  0  0  0  0  0  0  0  0
   36.3940   31.0120   37.9650 H   0  0  0  0  0  0  0  0  0  0  0  0
   36.7190   33.4240   38.5150 H   0  0  0  0  0  0  0  0  0  0  0  0
   38.1000   34.0590   40.3910 H   0  0  0  0  0  0  0  0  0  0  0  0
   38.7200   28.2500   43.5180 N   0  0  0  0  0  0  0  0  0  0  0  0
   39.0060   28.3580   44.5270 H   0  0  0  0  0  0  0  0  0  0  0  0
   36.2040   27.3710   42.4990 F   0  0  0  0  0  0  0  0  0  0  0  0
   37.2390   26.5090   42.5660 C   0  0  0  0  0  0  0  0  0  0  0  0
   38.4450   26.9470   43.0630 C   0  0  0  0  0  0  0  0  0  0  0  0
   39.4320   25.9870   43.0920 C   0  0  0  0  0  0  0  0  0  0  0  0
   40.4440   26.2060   43.4660 H   0  0  0  0  0  0  0  0  0  0  0  0
   39.2260   24.6980   42.6590 C   0  0  0  0  0  0  0  0  0  0  0  0
   40.0280   23.9640   42.6960 H   0  0  0  0  0  0  0  0  0  0  0  0
   37.9950   24.3340   42.1760 C   0  0  0  0  0  3  0  0  0  0  0  0
   36.9780   25.2340   42.1200 C   0  0  0  0  0  3  0  0  0  0  0  0
  1  4  1  6  0  0  0
  1  2  1  0  0  0  0
  1  3  1  0  0  0  0
  2  5  1  0  0  0  0
  2  6  1  0  0  0  0
  2  3  1  0  0  0  0
  3  7  1  1  0  0  0
  3 17  1  0  0  0  0
  8  9  2  0  0  0  0
  8 13  1  0  0  0  0
  9 10  1  0  0  0  0
 10 16  1  0  0  0  0
 10 11  2  0  0  0  0
 12 11  1  0  0  0  0
 12  1  1  0  0  0  0
 13 12  2  0  0  0  0
 14  8  1  0  0  0  0
 15  9  1  0  0  0  0
 17 18  1  0  0  0  0
 19 20  1  0  0  0  0
 20 21  1  0  0  0  0
 21 22  2  0  0  0  0
 21 17  1  0  0  0  0
 22 23  1  0  0  0  0
 24 25  1  0  0  0  0
 24 22  1  0  0  0  0
 26 24  2  0  0  0  0
 27 26  1  0  0  0  0
 27 20  2  0  0  0  0
M  END
>  <minimizedAffinity>
-4.86687231

$$$$

 OpenBabel03242511073D

 27 29  0  0  1  0  0  0  0  0999 V2000
   36.6840   27.9840   40.1160 C   0  0  1  0  0  0  0  0  0  0  0  0
   35.5500   28.4300   39.2450 C   0  0  0  0  0  0  0  0  0  0  0  0
   35.6410   28.8340   40.7140 C   0  0  2  0  0  0  0  0  0  0  0  0
   37.6570   28.4110   39.8220 H   0  0  0  0  0  0  0  0  0  0  0  0
   34.8760   27.6290   38.9360 H   0  0  0  0  0  0  0  0  0  0  0  0
   35.7180   29.2150   38.4690 H   0  0  0  0  0  0  0  0  0  0  0  0
   34.8170   28.3570   41.3180 H   0  0  0  0  0  0  0  0  0  0  0  0
   36.4730   24.2850   40.0140 C   0  0  0  0  0  0  0  0  0  0  0  0
   36.9880   23.9290   41.3090 C   0  0  0  0  0  0  0  0  0  0  0  0
   37.4010   24.9910   42.1710 C   0  0  0  0  0  0  0  0  0  0  0  0
   37.2980   26.2730   41.7490 N   0  0  0  0  0  0  0  0  0  0  0  0
   36.8020   26.5530   40.5120 C   0  0  0  0  0  0  0  0  0  0  0  0
   36.3940   25.5740   39.6540 N   0  0  0  0  0  0  0  0  0  0  0  0
   36.1780   23.4510   39.4110 H   0  0  0  0  0  0  0  0  0  0  0  0
   37.0860   22.9370   41.6780 H   0  0  0  0  0  0  0  0  0  0  0  0
   37.7850   24.7310   43.1340 H   0  0  0  0  0  0  0  0  0  0  0  0
   35.8110   30.2140   41.0070 N   0  0  0  0  0  0  0  0  0  0  0  0
   34.9220   30.6210   41.4020 H   0  0  0  0  0  0  0  0  0  0  0  0
   38.3140   29.9160   42.3410 F   0  0  0  0  0  0  0  0  0  0  0  0
   38.1220   30.9510   41.4980 C   0  0  0  0  0  0  0  0  0  0  0  0
   36.9090   31.0830   40.8650 C   0  0  0  0  0  0  0  0  0  0  0  0
   36.8160   32.1740   40.0300 C   0  0  0  0  0  0  0  0  0  0  0  0
   35.9000   32.3960   39.4620 H   0  0  0  0  0  0  0  0  0  0  0  0
   37.8540   33.0580   39.8470 C   0  0  0  0  0  0  0  0  0  0  0  0
   37.7480   33.9110   39.1800 H   0  0  0  0  0  0  0  0  0  0  0  0
   39.0360   32.8610   40.5130 C   0  0  0  0  0  3  0  0  0  0  0  0
   39.1930   31.8030   41.3530 C   0  0  0  0  0  3  0  0  0  0  0  0
  1  4  1  6  0  0  0
  1 12  1  0  0  0  0
  1  3  1  0  0  0  0
  2  1  1  0  0  0  0
  2  3  1  0  0  0  0
  3 17  1  0  0  0  0
  3  7  1  1  0  0  0
  5  2  1  0  0  0  0
  6  2  1  0  0  0  0
  8  9  1  0  0  0  0
  9 15  1  0  0  0  0
  9 10  2  0  0  0  0
 10 16  1  0  0  0  0
 11 10  1  0  0  0  0
 12 11  2  0  0  0  0
 13  8  2  0  0  0  0
 13 12  1  0  0  0  0
 14  8  1  0  0  0  0
 17 18  1  0  0  0  0
 20 19  1  0  0  0  0
 21 17  1  0  0  0  0
 21 20  2  0  0  0  0
 22 21  1  0  0  0  0
 23 22  1  0  0  0  0
 24 22  2  0  0  0  0
 24 26  1  0  0  0  0
 25 24  1  0  0  0  0
 26 27  2  0  0  0  0
 27 20  1  0  0  0  0
M  END
>  <minimizedAffinity>
-4.66984797

$$$$

 OpenBabel03242511073D

 27 29  0  0  1  0  0  0  0  0999 V2000
   37.0830   31.0890   38.8880 C   0  0  1  0  0  0  0  0  0  0  0  0
   37.1270   30.3800   37.5690 C   0  0  0  0  0  0  0  0  0  0  0  0
   37.4780   29.6710   38.8730 C   0  0  2  0  0  0  0  0  0  0  0  0
   36.0660   31.3860   39.1920 H   0  0  0  0  0  0  0  0  0  0  0  0
   37.9170   30.7220   36.8980 H   0  0  0  0  0  0  0  0  0  0  0  0
   36.1760   30.1010   37.0540 H   0  0  0  0  0  0  0  0  0  0  0  0
   38.5730   29.4010   38.9060 H   0  0  0  0  0  0  0  0  0  0  0  0
   40.2790   32.9610   39.0300 C   0  0  0  0  0  0  0  0  0  0  0  0
   39.9190   34.0870   39.8500 C   0  0  0  0  0  0  0  0  0  0  0  0
   38.5710   34.1600   40.3170 C   0  0  0  0  0  0  0  0  0  0  0  0
   37.6920   33.1890   39.9800 N   0  0  0  0  0  0  0  0  0  0  0  0
   38.0870   32.1430   39.2000 C   0  0  0  0  0  0  0  0  0  0  0  0
   39.3620   32.0290   38.7310 N   0  0  0  0  0  0  0  0  0  0  0  0
   41.3000   32.9560   38.7100 H   0  0  0  0  0  0  0  0  0  0  0  0
   40.5770   34.8700   40.1380 H   0  0  0  0  0  0  0  0  0  0  0  0
   38.2990   34.9960   40.9260 H   0  0  0  0  0  0  0  0  0  0  0  0
   36.6350   28.6060   39.2900 N   0  0  0  0  0  0  0  0  0  0  0  0
   35.7650   28.5670   38.6960 H   0  0  0  0  0  0  0  0  0  0  0  0
   36.6950   29.1830   42.0830 F   0  0  0  0  0  0  0  0  0  0  0  0
   36.7880   27.9050   41.6600 C   0  0  0  0  0  0  0  0  0  0  0  0
   36.7610   27.6440   40.3100 C   0  0  0  0  0  0  0  0  0  0  0  0
   36.8680   26.3100   39.9850 C   0  0  0  0  0  0  0  0  0  0  0  0
   36.8590   25.9640   38.9400 H   0  0  0  0  0  0  0  0  0  0  0  0
   36.9900   25.3220   40.9350 C   0  0  0  0  0  0  0  0  0  0  0  0
   37.0720   24.2780   40.6440 H   0  0  0  0  0  0  0  0  0  0  0  0
   37.0100   25.6610   42.2640 C   0  0  0  0  0  3  0  0  0  0  0  0
   36.9090   26.9600   42.6520 C   0  0  0  0  0  3  0  0  0  0  0  0
  1  4  1  1  0  0  0
  1 12  1  0  0  0  0
  2  3  1  0  0  0  0
  2  1  1  0  0  0  0
  3  1  1  0  0  0  0
  3  7  1  1  0  0  0
  3 17  1  0  0  0  0
  5  2  1  0  0  0  0
  6  2  1  0  0  0  0
  8  9  1  0  0  0  0
  9 15  1  0  0  0  0
  9 10  2  0  0  0  0
 10 16  1  0  0  0  0
 11 10  1  0  0  0  0
 12 11  2  0  0  0  0
 13  8  2  0  0  0  0
 13 12  1  0  0  0  0
 14  8  1  0  0  0  0
 17 21  1  0  0  0  0
 18 17  1  0  0  0  0
 20 19  1  0  0  0  0
 20 27  1  0  0  0  0
 21 20  2  0  0  0  0
 22 21  1  0  0  0  0
 22 24  2  0  0  0  0
 23 22  1  0  0  0  0
 24 26  1  0  0  0  0
 25 24  1  0  0  0  0
 26 27  2  0  0  0  0
M  END
>  <minimizedAffinity>
-4.63010073

$$$$
