
 OpenBabel03242509573D

 35 40  0  0  0  0  0  0  0  0999 V2000
   40.5090   33.7690   38.2000 C   0  0  0  0  0  3  0  0  0  0  0  0
   39.8520   34.7640   38.9310 C   0  0  0  0  0  3  0  0  0  0  0  0
   40.5630   35.4220   39.9290 C   0  0  0  0  0  3  0  0  0  0  0  0
   41.8640   35.0590   40.1420 N   0  0  0  0  0  0  0  0  0  0  0  0
   42.4700   34.0980   39.4260 C   0  0  0  0  0  0  0  0  0  0  0  0
   41.8000   33.4450   38.4510 N   0  0  0  0  0  0  0  0  0  0  0  0
   43.8210   33.8100   39.7370 N   0  0  0  0  0  0  0  0  0  0  0  0
   44.4920   34.4700   40.6880 C   0  0  0  0  0  3  0  0  0  0  0  0
   45.7940   34.0730   40.8690 C   0  0  0  0  0  0  0  0  0  0  0  0
   46.4110   33.0730   40.1470 C   0  0  0  0  0  0  0  0  0  0  0  0
   47.6120   32.7150   40.3220 O   0  0  0  0  0  0  0  0  0  0  0  0
   45.6890   32.4400   39.2000 N   0  0  0  0  0  0  0  0  0  0  0  0
   44.3910   32.8070   38.9930 C   0  0  0  0  0  0  0  0  0  0  0  0
   43.7580   32.1870   38.0980 O   0  0  0  0  0  0  0  0  0  0  0  0
   46.2400   31.3800   38.3890 C   0  0  0  0  0  0  0  0  0  0  0  0
   46.1790   30.0100   38.4090 C   0  0  0  0  0  3  0  0  0  0  0  0
   46.9140   29.5390   37.3680 N   0  0  0  0  0  0  0  0  0  0  0  0
   47.4390   30.5840   36.6910 C   0  0  0  0  0  0  0  0  0  0  0  0
   48.2480   30.6060   35.5730 C   0  0  0  0  0  3  0  0  0  0  0  0
   48.6900   31.8040   35.0170 C   0  0  0  0  0  3  0  0  0  0  0  0
   48.2920   32.9550   35.6220 C   0  0  0  0  0  3  0  0  0  0  0  0
   47.4890   32.9280   36.7310 C   0  0  0  0  0  3  0  0  0  0  0  0
   47.0350   31.7510   37.3060 C   0  0  0  0  0  0  0  0  0  0  0  0
   47.0500   28.5450   37.1330 H   0  0  0  0  0  0  0  0  0  0  0  0
   46.6600   34.7110   41.8750 C   0  0  0  0  0  2  0  0  0  0  0  0
   45.9640   34.8780   43.1840 C   0  0  0  0  0  0  0  0  0  0  0  0
   45.1040   35.9320   43.4820 C   0  0  0  0  0  3  0  0  0  0  0  0
   44.5050   36.0110   44.7140 C   0  0  0  0  0  3  0  0  0  0  0  0
   44.7170   35.0700   45.7060 C   0  0  0  0  0  3  0  0  0  0  0  0
   45.5760   34.0180   45.4100 C   0  0  0  0  0  0  0  0  0  0  0  0
   45.8520   33.0190   46.3490 C   0  0  0  0  0  3  0  0  0  0  0  0
   46.6970   31.9580   46.0960 C   0  0  0  0  0  3  0  0  0  0  0  0
   47.2960   31.8890   44.8470 C   0  0  0  0  0  3  0  0  0  0  0  0
   47.0460   32.8640   43.8880 C   0  0  0  0  0  3  0  0  0  0  0  0
   46.1850   33.9250   44.1760 C   0  0  0  0  0  0  0  0  0  0  0  0
  1  6  2  0  0  0  0
  1  2  1  0  0  0  0
  2  3  2  0  0  0  0
  3  4  1  0  0  0  0
  5  7  1  0  0  0  0
  5  4  2  0  0  0  0
  6  5  1  0  0  0  0
  7  8  1  0  0  0  0
  8  9  2  0  0  0  0
  9 25  1  0  0  0  0
 10 11  2  0  0  0  0
 10  9  1  0  0  0  0
 12 10  1  0  0  0  0
 13 12  1  0  0  0  0
 13  7  1  0  0  0  0
 14 13  2  0  0  0  0
 15 16  2  0  0  0  0
 15 12  1  0  0  0  0
 17 16  1  0  0  0  0
 18 23  1  0  0  0  0
 18 17  1  0  0  0  0
 19 18  2  0  0  0  0
 20 19  1  0  0  0  0
 20 21  2  0  0  0  0
 21 22  1  0  0  0  0
 22 23  2  0  0  0  0
 23 15  1  0  0  0  0
 24 17  1  0  0  0  0
 25 26  1  0  0  0  0
 26 27  2  0  0  0  0
 26 35  1  0  0  0  0
 27 28  1  0  0  0  0
 28 29  2  0  0  0  0
 30 29  1  0  0  0  0
 30 31  1  0  0  0  0
 32 31  2  0  0  0  0
 33 32  1  0  0  0  0
 34 35  1  0  0  0  0
 34 33  2  0  0  0  0
 35 30  2  0  0  0  0
M  END
>  <minimizedAffinity>
-7.81051159

$$$$

 OpenBabel03242509573D

 35 40  0  0  0  0  0  0  0  0999 V2000
   40.1680   34.1920   38.6930 C   0  0  0  0  0  3  0  0  0  0  0  0
   39.5460   34.9230   39.7100 C   0  0  0  0  0  3  0  0  0  0  0  0
   40.3280   35.3630   40.7730 C   0  0  0  0  0  3  0  0  0  0  0  0
   41.6600   35.0570   40.7660 N   0  0  0  0  0  0  0  0  0  0  0  0
   42.2320   34.3520   39.7760 C   0  0  0  0  0  0  0  0  0  0  0  0
   41.4930   33.9140   38.7320 N   0  0  0  0  0  0  0  0  0  0  0  0
   43.6210   34.0970   39.8760 N   0  0  0  0  0  0  0  0  0  0  0  0
   44.3580   34.5470   40.8980 C   0  0  0  0  0  3  0  0  0  0  0  0
   45.6900   34.2160   40.8510 C   0  0  0  0  0  0  0  0  0  0  0  0
   46.2740   33.4770   39.8440 C   0  0  0  0  0  0  0  0  0  0  0  0
   47.5030   33.1770   39.8110 O   0  0  0  0  0  0  0  0  0  0  0  0
   45.4850   33.0470   38.8380 N   0  0  0  0  0  0  0  0  0  0  0  0
   44.1560   33.3560   38.8520 C   0  0  0  0  0  0  0  0  0  0  0  0
   43.4610   32.9330   37.8910 O   0  0  0  0  0  0  0  0  0  0  0  0
   45.9960   32.2660   37.7360 C   0  0  0  0  0  0  0  0  0  0  0  0
   46.5300   32.5570   36.5060 C   0  0  0  0  0  3  0  0  0  0  0  0
   46.8400   31.3840   35.8930 N   0  0  0  0  0  0  0  0  0  0  0  0
   46.5140   30.3600   36.7110 C   0  0  0  0  0  0  0  0  0  0  0  0
   46.6410   28.9980   36.5280 C   0  0  0  0  0  3  0  0  0  0  0  0
   46.2410   28.0910   37.5060 C   0  0  0  0  0  3  0  0  0  0  0  0
   45.7180   28.6020   38.6520 C   0  0  0  0  0  3  0  0  0  0  0  0
   45.5940   29.9550   38.8290 C   0  0  0  0  0  3  0  0  0  0  0  0
   45.9830   30.8800   37.8730 C   0  0  0  0  0  0  0  0  0  0  0  0
   47.2570   31.2920   34.9550 H   0  0  0  0  0  0  0  0  0  0  0  0
   46.6270   34.6470   41.9020 C   0  0  0  0  0  2  0  0  0  0  0  0
   45.9470   34.8190   43.2190 C   0  0  0  0  0  0  0  0  0  0  0  0
   45.0940   35.8760   43.5240 C   0  0  0  0  0  3  0  0  0  0  0  0
   44.5100   35.9600   44.7640 C   0  0  0  0  0  3  0  0  0  0  0  0
   44.7300   35.0210   45.7550 C   0  0  0  0  0  3  0  0  0  0  0  0
   45.5830   33.9650   45.4520 C   0  0  0  0  0  0  0  0  0  0  0  0
   45.8670   32.9680   46.3890 C   0  0  0  0  0  3  0  0  0  0  0  0
   46.7060   31.9040   46.1290 C   0  0  0  0  0  3  0  0  0  0  0  0
   47.2890   31.8300   44.8740 C   0  0  0  0  0  3  0  0  0  0  0  0
   47.0310   32.8030   43.9150 C   0  0  0  0  0  3  0  0  0  0  0  0
   46.1770   33.8680   44.2110 C   0  0  0  0  0  0  0  0  0  0  0  0
  1  6  2  0  0  0  0
  1  2  1  0  0  0  0
  2  3  2  0  0  0  0
  4  3  1  0  0  0  0
  5  7  1  0  0  0  0
  5  4  2  0  0  0  0
  6  5  1  0  0  0  0
  7  8  1  0  0  0  0
  9  8  2  0  0  0  0
  9 25  1  0  0  0  0
 10  9  1  0  0  0  0
 11 10  2  0  0  0  0
 12 13  1  0  0  0  0
 12 10  1  0  0  0  0
 13  7  1  0  0  0  0
 14 13  2  0  0  0  0
 15 23  1  0  0  0  0
 15 12  1  0  0  0  0
 16 15  2  0  0  0  0
 17 16  1  0  0  0  0
 17 18  1  0  0  0  0
 18 23  1  0  0  0  0
 19 18  2  0  0  0  0
 19 20  1  0  0  0  0
 20 21  2  0  0  0  0
 21 22  1  0  0  0  0
 23 22  2  0  0  0  0
 24 17  1  0  0  0  0
 25 26  1  0  0  0  0
 26 27  2  0  0  0  0
 26 35  1  0  0  0  0
 27 28  1  0  0  0  0
 28 29  2  0  0  0  0
 30 29  1  0  0  0  0
 30 31  1  0  0  0  0
 32 31  2  0  0  0  0
 33 32  1  0  0  0  0
 34 35  1  0  0  0  0
 34 33  2  0  0  0  0
 35 30  2  0  0  0  0
M  END
>  <minimizedAffinity>
-7.61113644

$$$$

 OpenBabel03242509573D

 35 40  0  0  0  0  0  0  0  0999 V2000
   47.6400   31.7090   35.4640 C   0  0  0  0  0  3  0  0  0  0  0  0
   49.0210   31.9190   35.5450 C   0  0  0  0  0  3  0  0  0  0  0  0
   49.5240   32.5430   36.6810 C   0  0  0  0  0  3  0  0  0  0  0  0
   48.6420   32.9180   37.6560 N   0  0  0  0  0  0  0  0  0  0  0  0
   47.3200   32.7060   37.5520 C   0  0  0  0  0  0  0  0  0  0  0  0
   46.8080   32.1010   36.4570 N   0  0  0  0  0  0  0  0  0  0  0  0
   46.5050   33.1370   38.6260 N   0  0  0  0  0  0  0  0  0  0  0  0
   47.0120   33.7180   39.7200 C   0  0  0  0  0  3  0  0  0  0  0  0
   46.0910   34.0790   40.6720 C   0  0  0  0  0  0  0  0  0  0  0  0
   44.7310   33.8780   40.5570 C   0  0  0  0  0  0  0  0  0  0  0  0
   43.8920   34.2160   41.4420 O   0  0  0  0  0  0  0  0  0  0  0  0
   44.2730   33.2890   39.4340 N   0  0  0  0  0  0  0  0  0  0  0  0
   45.1590   32.9180   38.4650 C   0  0  0  0  0  0  0  0  0  0  0  0
   44.6840   32.3710   37.4350 O   0  0  0  0  0  0  0  0  0  0  0  0
   42.8690   33.0330   39.2150 C   0  0  0  0  0  0  0  0  0  0  0  0
   42.0240   31.9820   39.4610 C   0  0  0  0  0  3  0  0  0  0  0  0
   40.7830   32.3260   39.0290 N   0  0  0  0  0  0  0  0  0  0  0  0
   40.8270   33.5740   38.5150 C   0  0  0  0  0  0  0  0  0  0  0  0
   39.8270   34.3450   37.9590 C   0  0  0  0  0  3  0  0  0  0  0  0
   40.0760   35.6280   37.4780 C   0  0  0  0  0  3  0  0  0  0  0  0
   41.3500   36.0930   37.5790 C   0  0  0  0  0  3  0  0  0  0  0  0
   42.3400   35.3240   38.1310 C   0  0  0  0  0  3  0  0  0  0  0  0
   42.1200   34.0440   38.6170 C   0  0  0  0  0  0  0  0  0  0  0  0
   39.9430   31.7310   39.0840 H   0  0  0  0  0  0  0  0  0  0  0  0
   46.5000   34.7220   41.9320 C   0  0  0  0  0  2  0  0  0  0  0  0
   46.7560   33.7240   43.0110 C   0  0  0  0  0  0  0  0  0  0  0  0
   47.5940   32.6210   42.8710 C   0  0  0  0  0  3  0  0  0  0  0  0
   47.7730   31.7490   43.9160 C   0  0  0  0  0  3  0  0  0  0  0  0
   47.1460   31.9130   45.1380 C   0  0  0  0  0  3  0  0  0  0  0  0
   46.3080   33.0140   45.2790 C   0  0  0  0  0  0  0  0  0  0  0  0
   45.6310   33.2630   46.4760 C   0  0  0  0  0  3  0  0  0  0  0  0
   44.7920   34.3430   46.6580 C   0  0  0  0  0  3  0  0  0  0  0  0
   44.6200   35.2170   45.5960 C   0  0  0  0  0  3  0  0  0  0  0  0
   45.2760   35.0020   44.3900 C   0  0  0  0  0  3  0  0  0  0  0  0
   46.1190   33.8990   44.2380 C   0  0  0  0  0  0  0  0  0  0  0  0
  1  2  2  0  0  0  0
  1  6  1  0  0  0  0
  2  3  1  0  0  0  0
  3  4  2  0  0  0  0
  5  4  1  0  0  0  0
  5  7  1  0  0  0  0
  6  5  2  0  0  0  0
  7  8  1  0  0  0  0
  8  9  2  0  0  0  0
  9 25  1  0  0  0  0
 10  9  1  0  0  0  0
 10 11  2  0  0  0  0
 12 10  1  0  0  0  0
 13  7  1  0  0  0  0
 13 12  1  0  0  0  0
 14 13  2  0  0  0  0
 15 12  1  0  0  0  0
 15 16  2  0  0  0  0
 17 24  1  0  0  0  0
 17 16  1  0  0  0  0
 18 23  1  0  0  0  0
 18 17  1  0  0  0  0
 19 18  2  0  0  0  0
 20 21  2  0  0  0  0
 20 19  1  0  0  0  0
 21 22  1  0  0  0  0
 22 23  2  0  0  0  0
 23 15  1  0  0  0  0
 25 26  1  0  0  0  0
 26 35  1  0  0  0  0
 27 26  2  0  0  0  0
 27 28  1  0  0  0  0
 28 29  2  0  0  0  0
 29 30  1  0  0  0  0
 30 31  1  0  0  0  0
 31 32  2  0  0  0  0
 33 32  1  0  0  0  0
 34 33  2  0  0  0  0
 35 34  1  0  0  0  0
 35 30  2  0  0  0  0
M  END
>  <minimizedAffinity>
-7.45313215

$$$$

 OpenBabel03242509573D

 35 40  0  0  0  0  0  0  0  0999 V2000
   46.8100   29.8900   37.2400 C   0  0  0  0  0  3  0  0  0  0  0  0
   48.2060   29.8720   37.3170 C   0  0  0  0  0  3  0  0  0  0  0  0
   48.8260   30.7680   38.1800 C   0  0  0  0  0  3  0  0  0  0  0  0
   48.0380   31.6190   38.9050 N   0  0  0  0  0  0  0  0  0  0  0  0
   46.6990   31.6160   38.8100 C   0  0  0  0  0  0  0  0  0  0  0  0
   46.0730   30.7540   37.9790 N   0  0  0  0  0  0  0  0  0  0  0  0
   45.9880   32.5420   39.6100 N   0  0  0  0  0  0  0  0  0  0  0  0
   46.6040   33.3830   40.4500 C   0  0  0  0  0  3  0  0  0  0  0  0
   45.7750   34.2190   41.1560 C   0  0  0  0  0  0  0  0  0  0  0  0
   44.4000   34.2290   41.0450 C   0  0  0  0  0  0  0  0  0  0  0  0
   43.6460   35.0040   41.7010 O   0  0  0  0  0  0  0  0  0  0  0  0
   43.8300   33.3620   40.1840 N   0  0  0  0  0  0  0  0  0  0  0  0
   44.6230   32.5160   39.4650 C   0  0  0  0  0  0  0  0  0  0  0  0
   44.0440   31.7240   38.6740 O   0  0  0  0  0  0  0  0  0  0  0  0
   42.4000   33.2910   39.9930 C   0  0  0  0  0  0  0  0  0  0  0  0
   41.3900   32.5170   40.5040 C   0  0  0  0  0  3  0  0  0  0  0  0
   40.2220   32.9210   39.9400 N   0  0  0  0  0  0  0  0  0  0  0  0
   40.4740   33.9340   39.0830 C   0  0  0  0  0  0  0  0  0  0  0  0
   39.6150   34.6620   38.2850 C   0  0  0  0  0  3  0  0  0  0  0  0
   40.0760   35.6840   37.4590 C   0  0  0  0  0  3  0  0  0  0  0  0
   41.4130   35.9370   37.4700 C   0  0  0  0  0  3  0  0  0  0  0  0
   42.2610   35.2120   38.2630 C   0  0  0  0  0  3  0  0  0  0  0  0
   41.8300   34.1900   39.0950 C   0  0  0  0  0  0  0  0  0  0  0  0
   39.2930   32.5190   40.1330 H   0  0  0  0  0  0  0  0  0  0  0  0
   46.3080   35.1940   42.1220 C   0  0  0  0  0  2  0  0  0  0  0  0
   45.8350   34.9190   43.5110 C   0  0  0  0  0  0  0  0  0  0  0  0
   44.9470   35.7340   44.2080 C   0  0  0  0  0  3  0  0  0  0  0  0
   44.5640   35.4080   45.4850 C   0  0  0  0  0  3  0  0  0  0  0  0
   45.0270   34.2790   46.1350 C   0  0  0  0  0  3  0  0  0  0  0  0
   45.9140   33.4640   45.4410 C   0  0  0  0  0  0  0  0  0  0  0  0
   46.4370   32.3020   46.0150 C   0  0  0  0  0  3  0  0  0  0  0  0
   47.3180   31.4670   45.3600 C   0  0  0  0  0  3  0  0  0  0  0  0
   47.6970   31.8060   44.0710 C   0  0  0  0  0  3  0  0  0  0  0  0
   47.1990   32.9550   43.4660 C   0  0  0  0  0  3  0  0  0  0  0  0
   46.3080   33.7790   44.1570 C   0  0  0  0  0  0  0  0  0  0  0  0
  1  2  2  0  0  0  0
  1  6  1  0  0  0  0
  2  3  1  0  0  0  0
  3  4  2  0  0  0  0
  5  4  1  0  0  0  0
  5  7  1  0  0  0  0
  6  5  2  0  0  0  0
  7  8  1  0  0  0  0
  8  9  2  0  0  0  0
  9 25  1  0  0  0  0
 10  9  1  0  0  0  0
 10 11  2  0  0  0  0
 12 10  1  0  0  0  0
 13  7  1  0  0  0  0
 13 12  1  0  0  0  0
 14 13  2  0  0  0  0
 15 12  1  0  0  0  0
 15 16  2  0  0  0  0
 17 24  1  0  0  0  0
 17 16  1  0  0  0  0
 18 23  1  0  0  0  0
 18 17  1  0  0  0  0
 19 18  2  0  0  0  0
 20 21  2  0  0  0  0
 20 19  1  0  0  0  0
 21 22  1  0  0  0  0
 22 23  2  0  0  0  0
 23 15  1  0  0  0  0
 25 26  1  0  0  0  0
 26 35  2  0  0  0  0
 26 27  1  0  0  0  0
 27 28  2  0  0  0  0
 28 29  1  0  0  0  0
 30 31  1  0  0  0  0
 30 29  2  0  0  0  0
 32 31  2  0  0  0  0
 33 32  1  0  0  0  0
 34 33  2  0  0  0  0
 34 35  1  0  0  0  0
 35 30  1  0  0  0  0
M  END
>  <minimizedAffinity>
-7.35213709

$$$$

 OpenBabel03242509573D

 35 40  0  0  0  0  0  0  0  0999 V2000
   46.6300   32.7090   36.4470 C   0  0  0  0  0  3  0  0  0  0  0  0
   48.0010   32.4490   36.3520 C   0  0  0  0  0  3  0  0  0  0  0  0
   48.7670   32.5380   37.5090 C   0  0  0  0  0  3  0  0  0  0  0  0
   48.1390   32.8760   38.6760 N   0  0  0  0  0  0  0  0  0  0  0  0
   46.8200   33.1230   38.7390 C   0  0  0  0  0  0  0  0  0  0  0  0
   46.0550   33.0420   37.6280 N   0  0  0  0  0  0  0  0  0  0  0  0
   46.2810   33.4630   40.0020 N   0  0  0  0  0  0  0  0  0  0  0  0
   47.0340   33.5240   41.1080 C   0  0  0  0  0  3  0  0  0  0  0  0
   46.3630   33.8680   42.2550 C   0  0  0  0  0  0  0  0  0  0  0  0
   45.0120   34.1390   42.3170 C   0  0  0  0  0  0  0  0  0  0  0  0
   44.4040   34.4550   43.3800 O   0  0  0  0  0  0  0  0  0  0  0  0
   44.3000   34.0640   41.1730 N   0  0  0  0  0  0  0  0  0  0  0  0
   44.9340   33.7260   40.0130 C   0  0  0  0  0  0  0  0  0  0  0  0
   44.2270   33.6680   38.9720 O   0  0  0  0  0  0  0  0  0  0  0  0
   42.8810   34.3280   41.1290 C   0  0  0  0  0  0  0  0  0  0  0  0
   42.1080   35.4370   40.9020 C   0  0  0  0  0  3  0  0  0  0  0  0
   40.8030   35.0670   40.9880 N   0  0  0  0  0  0  0  0  0  0  0  0
   40.7380   33.7470   41.2640 C   0  0  0  0  0  0  0  0  0  0  0  0
   39.6430   32.9260   41.4430 C   0  0  0  0  0  3  0  0  0  0  0  0
   39.7850   31.5700   41.7250 C   0  0  0  0  0  3  0  0  0  0  0  0
   41.0520   31.0840   41.8180 C   0  0  0  0  0  3  0  0  0  0  0  0
   42.1360   31.9020   41.6400 C   0  0  0  0  0  3  0  0  0  0  0  0
   42.0230   33.2550   41.3580 C   0  0  0  0  0  0  0  0  0  0  0  0
   39.9940   35.6930   40.8630 H   0  0  0  0  0  0  0  0  0  0  0  0
   47.0560   33.9680   43.5500 C   0  0  0  0  0  2  0  0  0  0  0  0
   47.3030   32.6280   44.1570 C   0  0  0  0  0  0  0  0  0  0  0  0
   48.0510   31.6230   43.5510 C   0  0  0  0  0  3  0  0  0  0  0  0
   48.2280   30.4150   44.1800 C   0  0  0  0  0  3  0  0  0  0  0  0
   47.6860   30.1360   45.4210 C   0  0  0  0  0  3  0  0  0  0  0  0
   46.9380   31.1390   46.0280 C   0  0  0  0  0  0  0  0  0  0  0  0
   46.3500   30.9500   47.2820 C   0  0  0  0  0  3  0  0  0  0  0  0
   45.6010   31.9190   47.9180 C   0  0  0  0  0  3  0  0  0  0  0  0
   45.4300   33.1340   47.2730 C   0  0  0  0  0  3  0  0  0  0  0  0
   45.9990   33.3590   46.0250 C   0  0  0  0  0  3  0  0  0  0  0  0
   46.7510   32.3570   45.4080 C   0  0  0  0  0  0  0  0  0  0  0  0
  1  6  1  0  0  0  0
  2  1  2  0  0  0  0
  2  3  1  0  0  0  0
  3  4  2  0  0  0  0
  4  5  1  0  0  0  0
  5  7  1  0  0  0  0
  6  5  2  0  0  0  0
  7 13  1  0  0  0  0
  7  8  1  0  0  0  0
  8  9  2  0  0  0  0
  9 10  1  0  0  0  0
  9 25  1  0  0  0  0
 10 11  2  0  0  0  0
 12 10  1  0  0  0  0
 13 12  1  0  0  0  0
 14 13  2  0  0  0  0
 15 12  1  0  0  0  0
 15 23  1  0  0  0  0
 16 17  1  0  0  0  0
 16 15  2  0  0  0  0
 17 18  1  0  0  0  0
 18 23  2  0  0  0  0
 18 19  1  0  0  0  0
 19 20  2  0  0  0  0
 20 21  1  0  0  0  0
 22 21  2  0  0  0  0
 23 22  1  0  0  0  0
 24 17  1  0  0  0  0
 25 26  1  0  0  0  0
 26 35  1  0  0  0  0
 27 26  2  0  0  0  0
 27 28  1  0  0  0  0
 28 29  2  0  0  0  0
 29 30  1  0  0  0  0
 30 31  1  0  0  0  0
 31 32  2  0  0  0  0
 33 32  1  0  0  0  0
 34 33  2  0  0  0  0
 35 34  1  0  0  0  0
 35 30  2  0  0  0  0
M  END
>  <minimizedAffinity>
-7.14307404

$$$$

 OpenBabel03242509573D

 35 40  0  0  0  0  0  0  0  0999 V2000
   48.3830   32.5090   37.6770 C   0  0  0  0  0  3  0  0  0  0  0  0
   49.6230   31.8750   37.8060 C   0  0  0  0  0  3  0  0  0  0  0  0
   50.0660   31.5530   39.0840 C   0  0  0  0  0  3  0  0  0  0  0  0
   49.2660   31.8760   40.1450 N   0  0  0  0  0  0  0  0  0  0  0  0
   48.0800   32.4870   39.9940 C   0  0  0  0  0  0  0  0  0  0  0  0
   47.6280   32.8090   38.7610 N   0  0  0  0  0  0  0  0  0  0  0  0
   47.3390   32.7690   41.1660 N   0  0  0  0  0  0  0  0  0  0  0  0
   47.7750   32.4330   42.3860 C   0  0  0  0  0  3  0  0  0  0  0  0
   46.9410   32.7760   43.4210 C   0  0  0  0  0  0  0  0  0  0  0  0
   45.7310   33.4200   43.2670 C   0  0  0  0  0  0  0  0  0  0  0  0
   44.9710   33.7320   44.2290 O   0  0  0  0  0  0  0  0  0  0  0  0
   45.3390   33.7370   42.0160 N   0  0  0  0  0  0  0  0  0  0  0  0
   46.1430   33.4120   40.9620 C   0  0  0  0  0  0  0  0  0  0  0  0
   45.7340   33.7280   39.8140 O   0  0  0  0  0  0  0  0  0  0  0  0
   44.0910   34.4110   41.7460 C   0  0  0  0  0  0  0  0  0  0  0  0
   43.7100   35.7180   41.5850 C   0  0  0  0  0  3  0  0  0  0  0  0
   42.3730   35.7420   41.3430 N   0  0  0  0  0  0  0  0  0  0  0  0
   41.9030   34.4750   41.3470 C   0  0  0  0  0  0  0  0  0  0  0  0
   40.6230   33.9980   41.1510 C   0  0  0  0  0  3  0  0  0  0  0  0
   40.3370   32.6360   41.1950 C   0  0  0  0  0  3  0  0  0  0  0  0
   41.3740   31.7910   41.4400 C   0  0  0  0  0  3  0  0  0  0  0  0
   42.6430   32.2690   41.6350 C   0  0  0  0  0  3  0  0  0  0  0  0
   42.9550   33.6190   41.5970 C   0  0  0  0  0  0  0  0  0  0  0  0
   41.8080   36.5880   41.1820 H   0  0  0  0  0  0  0  0  0  0  0  0
   47.2830   32.4650   44.8190 C   0  0  0  0  0  2  0  0  0  0  0  0
   46.6650   31.1850   45.2740 C   0  0  0  0  0  0  0  0  0  0  0  0
   46.6000   30.0320   44.4980 C   0  0  0  0  0  3  0  0  0  0  0  0
   46.0110   28.8950   44.9940 C   0  0  0  0  0  3  0  0  0  0  0  0
   45.4630   28.8340   46.2620 C   0  0  0  0  0  3  0  0  0  0  0  0
   45.5280   29.9850   47.0390 C   0  0  0  0  0  0  0  0  0  0  0  0
   45.0020   30.0210   48.3330 C   0  0  0  0  0  3  0  0  0  0  0  0
   45.0460   31.1410   49.1360 C   0  0  0  0  0  3  0  0  0  0  0  0
   45.6430   32.2830   48.6240 C   0  0  0  0  0  3  0  0  0  0  0  0
   46.1770   32.2870   47.3410 C   0  0  0  0  0  3  0  0  0  0  0  0
   46.1160   31.1350   46.5540 C   0  0  0  0  0  0  0  0  0  0  0  0
  1  2  2  0  0  0  0
  1  6  1  0  0  0  0
  2  3  1  0  0  0  0
  3  4  2  0  0  0  0
  5  4  1  0  0  0  0
  5  7  1  0  0  0  0
  6  5  2  0  0  0  0
  7  8  1  0  0  0  0
  8  9  2  0  0  0  0
  9 25  1  0  0  0  0
 10  9  1  0  0  0  0
 10 11  2  0  0  0  0
 12 10  1  0  0  0  0
 13  7  1  0  0  0  0
 13 12  1  0  0  0  0
 14 13  2  0  0  0  0
 15 12  1  0  0  0  0
 16 15  2  0  0  0  0
 17 18  1  0  0  0  0
 17 16  1  0  0  0  0
 18 23  1  0  0  0  0
 19 20  1  0  0  0  0
 19 18  2  0  0  0  0
 20 21  2  0  0  0  0
 21 22  1  0  0  0  0
 23 22  2  0  0  0  0
 23 15  1  0  0  0  0
 24 17  1  0  0  0  0
 25 26  1  0  0  0  0
 26 35  1  0  0  0  0
 27 28  1  0  0  0  0
 27 26  2  0  0  0  0
 28 29  2  0  0  0  0
 29 30  1  0  0  0  0
 30 31  1  0  0  0  0
 31 32  2  0  0  0  0
 33 32  1  0  0  0  0
 34 33  2  0  0  0  0
 35 30  2  0  0  0  0
 35 34  1  0  0  0  0
M  END
>  <minimizedAffinity>
-7.13683939

$$$$

 OpenBabel03242509573D

 35 40  0  0  0  0  0  0  0  0999 V2000
   51.5190   29.8070   42.5320 C   0  0  0  0  0  3  0  0  0  0  0  0
   52.2580   30.4390   41.5270 C   0  0  0  0  0  3  0  0  0  0  0  0
   51.6940   31.5410   40.8930 C   0  0  0  0  0  3  0  0  0  0  0  0
   50.4480   31.9450   41.2860 N   0  0  0  0  0  0  0  0  0  0  0  0
   49.7590   31.3180   42.2540 C   0  0  0  0  0  0  0  0  0  0  0  0
   50.2870   30.2460   42.8840 N   0  0  0  0  0  0  0  0  0  0  0  0
   48.4790   31.8280   42.5760 N   0  0  0  0  0  0  0  0  0  0  0  0
   47.9630   32.9030   41.9670 C   0  0  0  0  0  3  0  0  0  0  0  0
   46.7110   33.2720   42.3920 C   0  0  0  0  0  0  0  0  0  0  0  0
   45.9960   32.6170   43.3730 C   0  0  0  0  0  0  0  0  0  0  0  0
   44.8420   32.9670   43.7560 O   0  0  0  0  0  0  0  0  0  0  0  0
   46.5620   31.5400   43.9540 N   0  0  0  0  0  0  0  0  0  0  0  0
   47.8060   31.1430   43.5560 C   0  0  0  0  0  0  0  0  0  0  0  0
   48.2920   30.1320   44.1280 O   0  0  0  0  0  0  0  0  0  0  0  0
   45.8990   30.7840   44.9910 C   0  0  0  0  0  0  0  0  0  0  0  0
   45.0590   29.7000   45.0150 C   0  0  0  0  0  3  0  0  0  0  0  0
   44.7540   29.4310   46.3120 N   0  0  0  0  0  0  0  0  0  0  0  0
   45.3850   30.3240   47.1060 C   0  0  0  0  0  0  0  0  0  0  0  0
   45.3810   30.4530   48.4800 C   0  0  0  0  0  3  0  0  0  0  0  0
   46.1070   31.4530   49.1210 C   0  0  0  0  0  3  0  0  0  0  0  0
   46.8230   32.3020   48.3350 C   0  0  0  0  0  3  0  0  0  0  0  0
   46.8230   32.1710   46.9720 C   0  0  0  0  0  3  0  0  0  0  0  0
   46.1100   31.1840   46.3080 C   0  0  0  0  0  0  0  0  0  0  0  0
   44.1410   28.6700   46.6370 H   0  0  0  0  0  0  0  0  0  0  0  0
   46.0180   34.4380   41.8190 C   0  0  0  0  0  2  0  0  0  0  0  0
   45.2070   34.0730   40.6220 C   0  0  0  0  0  0  0  0  0  0  0  0
   45.6930   33.3350   39.5450 C   0  0  0  0  0  3  0  0  0  0  0  0
   44.8770   33.0430   38.4800 C   0  0  0  0  0  3  0  0  0  0  0  0
   43.5580   33.4550   38.4190 C   0  0  0  0  0  3  0  0  0  0  0  0
   43.0720   34.1920   39.4930 C   0  0  0  0  0  0  0  0  0  0  0  0
   41.7520   34.6520   39.5210 C   0  0  0  0  0  3  0  0  0  0  0  0
   41.2300   35.3850   40.5660 C   0  0  0  0  0  3  0  0  0  0  0  0
   42.0630   35.6730   41.6360 C   0  0  0  0  0  3  0  0  0  0  0  0
   43.3810   35.2330   41.6440 C   0  0  0  0  0  3  0  0  0  0  0  0
   43.8790   34.4930   40.5690 C   0  0  0  0  0  0  0  0  0  0  0  0
  1  6  1  0  0  0  0
  2  1  2  0  0  0  0
  3  4  2  0  0  0  0
  3  2  1  0  0  0  0
  4  5  1  0  0  0  0
  5  7  1  0  0  0  0
  5  6  2  0  0  0  0
  7 13  1  0  0  0  0
  8  9  2  0  0  0  0
  8  7  1  0  0  0  0
  9 10  1  0  0  0  0
 10 11  2  0  0  0  0
 10 12  1  0  0  0  0
 12 15  1  0  0  0  0
 13 12  1  0  0  0  0
 13 14  2  0  0  0  0
 15 16  2  0  0  0  0
 15 23  1  0  0  0  0
 16 17  1  0  0  0  0
 17 24  1  0  0  0  0
 17 18  1  0  0  0  0
 18 19  1  0  0  0  0
 19 20  2  0  0  0  0
 21 20  1  0  0  0  0
 22 21  2  0  0  0  0
 23 22  1  0  0  0  0
 23 18  2  0  0  0  0
 25  9  1  0  0  0  0
 26 25  1  0  0  0  0
 27 26  2  0  0  0  0
 28 27  1  0  0  0  0
 29 28  2  0  0  0  0
 29 30  1  0  0  0  0
 30 31  2  0  0  0  0
 30 35  1  0  0  0  0
 31 32  1  0  0  0  0
 32 33  2  0  0  0  0
 33 34  1  0  0  0  0
 35 26  1  0  0  0  0
 35 34  2  0  0  0  0
M  END
>  <minimizedAffinity>
-7.12416983

$$$$

 OpenBabel03242509573D

 35 40  0  0  0  0  0  0  0  0999 V2000
   43.2600   27.8700   35.9650 C   0  0  0  0  0  3  0  0  0  0  0  0
   44.2760   27.5240   35.0690 C   0  0  0  0  0  3  0  0  0  0  0  0
   45.4450   28.2770   35.0800 C   0  0  0  0  0  3  0  0  0  0  0  0
   45.5360   29.3150   35.9660 N   0  0  0  0  0  0  0  0  0  0  0  0
   44.5440   29.6270   36.8150 C   0  0  0  0  0  0  0  0  0  0  0  0
   43.3980   28.9090   36.8220 N   0  0  0  0  0  0  0  0  0  0  0  0
   44.7520   30.7230   37.6860 N   0  0  0  0  0  0  0  0  0  0  0  0
   45.8940   31.4220   37.6940 C   0  0  0  0  0  3  0  0  0  0  0  0
   45.9410   32.4550   38.5970 C   0  0  0  0  0  0  0  0  0  0  0  0
   44.9150   32.7880   39.4560 C   0  0  0  0  0  0  0  0  0  0  0  0
   44.9700   33.7430   40.2850 O   0  0  0  0  0  0  0  0  0  0  0  0
   43.7860   32.0510   39.4060 N   0  0  0  0  0  0  0  0  0  0  0  0
   43.7030   31.0160   38.5210 C   0  0  0  0  0  0  0  0  0  0  0  0
   42.6300   30.3570   38.5120 O   0  0  0  0  0  0  0  0  0  0  0  0
   42.6540   32.3150   40.2630 C   0  0  0  0  0  0  0  0  0  0  0  0
   42.2840   31.9350   41.5270 C   0  0  0  0  0  3  0  0  0  0  0  0
   41.0860   32.5120   41.8080 N   0  0  0  0  0  0  0  0  0  0  0  0
   40.6930   33.2490   40.7460 C   0  0  0  0  0  0  0  0  0  0  0  0
   39.5560   34.0100   40.5610 C   0  0  0  0  0  3  0  0  0  0  0  0
   39.3300   34.7060   39.3760 C   0  0  0  0  0  3  0  0  0  0  0  0
   40.2770   34.6050   38.4050 C   0  0  0  0  0  3  0  0  0  0  0  0
   41.4030   33.8480   38.5930 C   0  0  0  0  0  3  0  0  0  0  0  0
   41.6530   33.1450   39.7620 C   0  0  0  0  0  0  0  0  0  0  0  0
   40.5620   32.4050   42.6890 H   0  0  0  0  0  0  0  0  0  0  0  0
   47.1340   33.3090   38.7260 C   0  0  0  0  0  2  0  0  0  0  0  0
   48.1310   32.7360   39.6760 C   0  0  0  0  0  0  0  0  0  0  0  0
   48.5180   31.3990   39.6890 C   0  0  0  0  0  3  0  0  0  0  0  0
   49.4430   30.9530   40.6010 C   0  0  0  0  0  3  0  0  0  0  0  0
   50.0280   31.7880   41.5350 C   0  0  0  0  0  3  0  0  0  0  0  0
   49.6430   33.1240   41.5240 C   0  0  0  0  0  0  0  0  0  0  0  0
   50.1790   34.0440   42.4290 C   0  0  0  0  0  3  0  0  0  0  0  0
   49.8250   35.3770   42.4520 C   0  0  0  0  0  3  0  0  0  0  0  0
   48.8900   35.8150   41.5260 C   0  0  0  0  0  3  0  0  0  0  0  0
   48.3340   34.9300   40.6100 C   0  0  0  0  0  3  0  0  0  0  0  0
   48.7150   33.5860   40.6140 C   0  0  0  0  0  0  0  0  0  0  0  0
  1  6  1  0  0  0  0
  2  3  1  0  0  0  0
  2  1  2  0  0  0  0
  3  4  2  0  0  0  0
  4  5  1  0  0  0  0
  5  6  2  0  0  0  0
  5  7  1  0  0  0  0
  7  8  1  0  0  0  0
  7 13  1  0  0  0  0
  8  9  2  0  0  0  0
  9 25  1  0  0  0  0
  9 10  1  0  0  0  0
 10 11  2  0  0  0  0
 12 10  1  0  0  0  0
 12 15  1  0  0  0  0
 13 12  1  0  0  0  0
 14 13  2  0  0  0  0
 15 16  2  0  0  0  0
 16 17  1  0  0  0  0
 17 24  1  0  0  0  0
 18 17  1  0  0  0  0
 19 18  1  0  0  0  0
 20 19  2  0  0  0  0
 21 22  2  0  0  0  0
 21 20  1  0  0  0  0
 22 23  1  0  0  0  0
 23 15  1  0  0  0  0
 23 18  2  0  0  0  0
 25 26  1  0  0  0  0
 26 27  2  0  0  0  0
 26 35  1  0  0  0  0
 27 28  1  0  0  0  0
 28 29  2  0  0  0  0
 30 29  1  0  0  0  0
 30 31  1  0  0  0  0
 31 32  2  0  0  0  0
 33 32  1  0  0  0  0
 34 35  1  0  0  0  0
 34 33  2  0  0  0  0
 35 30  2  0  0  0  0
M  END
>  <minimizedAffinity>
-7.09005642

$$$$

 OpenBabel03242509573D

 35 40  0  0  0  0  0  0  0  0999 V2000
   41.0810   32.1910   39.7770 C   0  0  0  0  0  3  0  0  0  0  0  0
   41.1610   31.8500   38.4230 C   0  0  0  0  0  3  0  0  0  0  0  0
   42.3700   32.0500   37.7670 C   0  0  0  0  0  3  0  0  0  0  0  0
   43.4140   32.5720   38.4800 N   0  0  0  0  0  0  0  0  0  0  0  0
   43.3100   32.8930   39.7800 C   0  0  0  0  0  0  0  0  0  0  0  0
   42.1450   32.7060   40.4390 N   0  0  0  0  0  0  0  0  0  0  0  0
   44.4580   33.4240   40.4130 N   0  0  0  0  0  0  0  0  0  0  0  0
   45.6180   33.5900   39.7670 C   0  0  0  0  0  3  0  0  0  0  0  0
   46.6380   34.1170   40.5210 C   0  0  0  0  0  0  0  0  0  0  0  0
   46.5260   34.4640   41.8510 C   0  0  0  0  0  0  0  0  0  0  0  0
   47.4730   34.9490   42.5350 O   0  0  0  0  0  0  0  0  0  0  0  0
   45.3340   34.2760   42.4530 N   0  0  0  0  0  0  0  0  0  0  0  0
   44.2970   33.7550   41.7350 C   0  0  0  0  0  0  0  0  0  0  0  0
   43.2050   33.5980   42.3420 O   0  0  0  0  0  0  0  0  0  0  0  0
   45.1110   34.6060   43.8420 C   0  0  0  0  0  0  0  0  0  0  0  0
   44.6210   35.6960   44.5130 C   0  0  0  0  0  3  0  0  0  0  0  0
   44.6480   35.4200   45.8440 N   0  0  0  0  0  0  0  0  0  0  0  0
   45.1450   34.1780   46.0250 C   0  0  0  0  0  0  0  0  0  0  0  0
   45.3620   33.4650   47.1870 C   0  0  0  0  0  3  0  0  0  0  0  0
   45.8900   32.1770   47.1640 C   0  0  0  0  0  3  0  0  0  0  0  0
   46.1850   31.6470   45.9470 C   0  0  0  0  0  3  0  0  0  0  0  0
   45.9690   32.3580   44.7970 C   0  0  0  0  0  3  0  0  0  0  0  0
   45.4440   33.6410   44.7900 C   0  0  0  0  0  0  0  0  0  0  0  0
   44.3390   36.0560   46.5930 H   0  0  0  0  0  0  0  0  0  0  0  0
   47.9750   34.3510   39.9480 C   0  0  0  0  0  2  0  0  0  0  0  0
   48.7100   33.0760   39.7070 C   0  0  0  0  0  0  0  0  0  0  0  0
   49.2250   32.2690   40.7180 C   0  0  0  0  0  3  0  0  0  0  0  0
   49.8910   31.1090   40.4070 C   0  0  0  0  0  3  0  0  0  0  0  0
   50.0830   30.6870   39.1040 C   0  0  0  0  0  3  0  0  0  0  0  0
   49.5690   31.4920   38.0940 C   0  0  0  0  0  0  0  0  0  0  0  0
   49.7130   31.1490   36.7460 C   0  0  0  0  0  3  0  0  0  0  0  0
   49.2180   31.9190   35.7140 C   0  0  0  0  0  3  0  0  0  0  0  0
   48.5470   33.0870   36.0400 C   0  0  0  0  0  3  0  0  0  0  0  0
   48.3840   33.4620   37.3690 C   0  0  0  0  0  3  0  0  0  0  0  0
   48.8980   32.6600   38.3900 C   0  0  0  0  0  0  0  0  0  0  0  0
  1  6  1  0  0  0  0
  2  1  2  0  0  0  0
  3  2  1  0  0  0  0
  3  4  2  0  0  0  0
  4  5  1  0  0  0  0
  5  7  1  0  0  0  0
  5  6  2  0  0  0  0
  7 13  1  0  0  0  0
  8  7  1  0  0  0  0
  8  9  2  0  0  0  0
  9 10  1  0  0  0  0
 10 12  1  0  0  0  0
 10 11  2  0  0  0  0
 12 15  1  0  0  0  0
 13 14  2  0  0  0  0
 13 12  1  0  0  0  0
 15 16  2  0  0  0  0
 15 23  1  0  0  0  0
 16 17  1  0  0  0  0
 17 18  1  0  0  0  0
 17 24  1  0  0  0  0
 18 19  1  0  0  0  0
 20 19  2  0  0  0  0
 21 20  1  0  0  0  0
 22 21  2  0  0  0  0
 23 22  1  0  0  0  0
 23 18  2  0  0  0  0
 25  9  1  0  0  0  0
 26 25  1  0  0  0  0
 26 27  1  0  0  0  0
 28 27  2  0  0  0  0
 29 28  1  0  0  0  0
 30 35  1  0  0  0  0
 30 29  2  0  0  0  0
 31 30  1  0  0  0  0
 32 33  1  0  0  0  0
 32 31  2  0  0  0  0
 33 34  2  0  0  0  0
 34 35  1  0  0  0  0
 35 26  2  0  0  0  0
M  END
>  <minimizedAffinity>
-7.08377123

$$$$
