
 OpenBabel03242510043D

 26 30  0  0  0  0  0  0  0  0999 V2000
   45.4010   33.6910   44.6490 C   0  0  0  0  0  0  0  0  0  0  0  0
   45.1560   34.8950   45.2790 C   0  0  0  0  0  3  0  0  0  0  0  0
   44.5380   35.9730   44.6690 C   0  0  0  0  0  3  0  0  0  0  0  0
   44.1760   35.7830   43.3950 N   0  0  0  0  0  0  0  0  0  0  0  0
   44.3820   34.6460   42.7270 C   0  0  0  0  0  0  0  0  0  0  0  0
   44.9810   33.6750   43.4000 N   0  0  0  0  0  0  0  0  0  0  0  0
   46.0550   32.5080   45.1050 C   0  0  0  0  0  0  0  0  0  0  0  0
   46.7240   31.7470   44.1220 C   0  0  0  0  0  3  0  0  0  0  0  0
   47.4070   30.5700   44.3700 C   0  0  0  0  0  3  0  0  0  0  0  0
   47.4470   30.1000   45.6490 C   0  0  0  0  0  3  0  0  0  0  0  0
   46.8220   30.7850   46.6540 C   0  0  0  0  0  0  0  0  0  0  0  0
   46.8550   30.3040   47.9470 C   0  0  0  0  0  3  0  0  0  0  0  0
   46.2300   30.9530   49.0020 C   0  0  0  0  0  3  0  0  0  0  0  0
   45.5620   32.1370   48.6550 C   0  0  0  0  0  3  0  0  0  0  0  0
   45.5520   32.5780   47.3670 C   0  0  0  0  0  3  0  0  0  0  0  0
   46.1650   31.9410   46.3340 C   0  0  0  0  0  0  0  0  0  0  0  0
   44.0370   34.3100   41.3360 C   0  0  0  0  0  0  0  0  0  0  0  0
   44.9120   33.5940   40.5200 C   0  0  0  0  0  3  0  0  0  0  0  0
   44.6420   33.2590   39.2260 C   0  0  0  0  0  3  0  0  0  0  0  0
   43.4530   33.6260   38.6460 C   0  0  0  0  0  3  0  0  0  0  0  0
   42.5510   34.3320   39.3990 C   0  0  0  0  0  0  0  0  0  0  0  0
   41.3580   34.7020   38.8190 C   0  0  0  0  0  3  0  0  0  0  0  0
   40.4060   35.4120   39.5120 C   0  0  0  0  0  3  0  0  0  0  0  0
   40.7260   35.7330   40.8360 C   0  0  0  0  0  3  0  0  0  0  0  0
   41.9210   35.3510   41.3800 C   0  0  0  0  0  3  0  0  0  0  0  0
   42.8730   34.6430   40.6950 C   0  0  0  0  0  0  0  0  0  0  0  0
  1  7  1  0  0  0  0
  1  2  1  0  0  0  0
  3  2  2  0  0  0  0
  4  3  1  0  0  0  0
  5  4  2  0  0  0  0
  5  6  1  0  0  0  0
  6  1  2  0  0  0  0
  7 16  1  0  0  0  0
  8  9  1  0  0  0  0
  8  7  2  0  0  0  0
  9 10  2  0  0  0  0
 10 11  1  0  0  0  0
 11 12  1  0  0  0  0
 12 13  2  0  0  0  0
 14 13  1  0  0  0  0
 15 14  2  0  0  0  0
 16 11  2  0  0  0  0
 16 15  1  0  0  0  0
 17  5  1  0  0  0  0
 18 17  2  0  0  0  0
 19 18  1  0  0  0  0
 20 19  2  0  0  0  0
 20 21  1  0  0  0  0
 21 26  1  0  0  0  0
 22 21  2  0  0  0  0
 22 23  1  0  0  0  0
 23 24  2  0  0  0  0
 24 25  1  0  0  0  0
 26 17  1  0  0  0  0
 26 25  2  0  0  0  0
M  END
>  <minimizedAffinity>
-7.49552917

$$$$

 OpenBabel03242510043D

 26 30  0  0  0  0  0  0  0  0999 V2000
   43.1370   33.1690   41.4950 C   0  0  0  0  0  0  0  0  0  0  0  0
   43.1560   31.9450   42.1320 C   0  0  0  0  0  3  0  0  0  0  0  0
   44.3130   31.3020   42.5370 C   0  0  0  0  0  3  0  0  0  0  0  0
   45.4530   31.9500   42.2710 N   0  0  0  0  0  0  0  0  0  0  0  0
   45.5070   33.1350   41.6590 C   0  0  0  0  0  0  0  0  0  0  0  0
   44.3450   33.6660   41.3120 N   0  0  0  0  0  0  0  0  0  0  0  0
   42.0570   33.9440   40.9780 C   0  0  0  0  0  0  0  0  0  0  0  0
   41.8220   35.1840   41.6120 C   0  0  0  0  0  3  0  0  0  0  0  0
   40.8190   36.0690   41.2570 C   0  0  0  0  0  3  0  0  0  0  0  0
   39.9930   35.7340   40.2240 C   0  0  0  0  0  3  0  0  0  0  0  0
   40.1630   34.5500   39.5630 C   0  0  0  0  0  0  0  0  0  0  0  0
   39.3220   34.2070   38.5240 C   0  0  0  0  0  3  0  0  0  0  0  0
   39.4430   33.0140   37.8260 C   0  0  0  0  0  3  0  0  0  0  0  0
   40.4860   32.1810   38.2570 C   0  0  0  0  0  3  0  0  0  0  0  0
   41.2950   32.5550   39.2870 C   0  0  0  0  0  3  0  0  0  0  0  0
   41.1750   33.7240   39.9700 C   0  0  0  0  0  0  0  0  0  0  0  0
   46.6850   33.9470   41.3090 C   0  0  0  0  0  0  0  0  0  0  0  0
   47.3610   34.7010   42.2680 C   0  0  0  0  0  3  0  0  0  0  0  0
   48.4540   35.4700   41.9980 C   0  0  0  0  0  3  0  0  0  0  0  0
   48.9570   35.5390   40.7230 C   0  0  0  0  0  3  0  0  0  0  0  0
   48.3350   34.8190   39.7360 C   0  0  0  0  0  0  0  0  0  0  0  0
   48.8380   34.8880   38.4560 C   0  0  0  0  0  3  0  0  0  0  0  0
   48.2670   34.1940   37.4160 C   0  0  0  0  0  3  0  0  0  0  0  0
   47.1480   33.4170   37.7400 C   0  0  0  0  0  3  0  0  0  0  0  0
   46.6740   33.3740   39.0220 C   0  0  0  0  0  3  0  0  0  0  0  0
   47.2390   34.0620   40.0630 C   0  0  0  0  0  0  0  0  0  0  0  0
  1  2  1  0  0  0  0
  2  3  2  0  0  0  0
  4  3  1  0  0  0  0
  5  4  2  0  0  0  0
  6  1  2  0  0  0  0
  6  5  1  0  0  0  0
  7  1  1  0  0  0  0
  7  8  1  0  0  0  0
  9  8  2  0  0  0  0
 10  9  1  0  0  0  0
 11 16  1  0  0  0  0
 11 10  2  0  0  0  0
 12 11  1  0  0  0  0
 13 14  1  0  0  0  0
 13 12  2  0  0  0  0
 14 15  2  0  0  0  0
 15 16  1  0  0  0  0
 16  7  2  0  0  0  0
 17  5  1  0  0  0  0
 17 18  1  0  0  0  0
 19 18  2  0  0  0  0
 20 19  1  0  0  0  0
 21 26  1  0  0  0  0
 21 20  2  0  0  0  0
 22 21  1  0  0  0  0
 23 24  1  0  0  0  0
 23 22  2  0  0  0  0
 24 25  2  0  0  0  0
 25 26  1  0  0  0  0
 26 17  2  0  0  0  0
M  END
>  <minimizedAffinity>
-7.36471796

$$$$

 OpenBabel03242510043D

 26 30  0  0  0  0  0  0  0  0999 V2000
   45.4440   33.2130   41.6060 C   0  0  0  0  0  0  0  0  0  0  0  0
   45.3190   32.0510   42.3410 C   0  0  0  0  0  3  0  0  0  0  0  0
   44.1050   31.4910   42.7010 C   0  0  0  0  0  3  0  0  0  0  0  0
   43.0200   32.1550   42.2840 N   0  0  0  0  0  0  0  0  0  0  0  0
   43.0690   33.2810   41.5700 C   0  0  0  0  0  0  0  0  0  0  0  0
   44.2780   33.7350   41.2780 N   0  0  0  0  0  0  0  0  0  0  0  0
   46.5960   33.9420   41.1880 C   0  0  0  0  0  0  0  0  0  0  0  0
   47.2380   34.7140   42.1810 C   0  0  0  0  0  3  0  0  0  0  0  0
   48.3630   35.4910   41.9670 C   0  0  0  0  0  3  0  0  0  0  0  0
   48.9010   35.5210   40.7140 C   0  0  0  0  0  3  0  0  0  0  0  0
   48.3330   34.7980   39.7030 C   0  0  0  0  0  0  0  0  0  0  0  0
   48.8730   34.8360   38.4340 C   0  0  0  0  0  3  0  0  0  0  0  0
   48.3320   34.1310   37.3690 C   0  0  0  0  0  3  0  0  0  0  0  0
   47.1930   33.3730   37.6810 C   0  0  0  0  0  3  0  0  0  0  0  0
   46.6910   33.3610   38.9470 C   0  0  0  0  0  3  0  0  0  0  0  0
   47.2220   34.0540   39.9890 C   0  0  0  0  0  0  0  0  0  0  0  0
   41.9610   34.1020   41.0540 C   0  0  0  0  0  0  0  0  0  0  0  0
   41.6420   35.3350   41.6220 C   0  0  0  0  0  3  0  0  0  0  0  0
   40.6260   36.1330   41.1850 C   0  0  0  0  0  3  0  0  0  0  0  0
   39.8430   35.7440   40.1270 C   0  0  0  0  0  3  0  0  0  0  0  0
   40.1080   34.5400   39.5270 C   0  0  0  0  0  0  0  0  0  0  0  0
   39.3220   34.1470   38.4660 C   0  0  0  0  0  3  0  0  0  0  0  0
   39.5290   32.9540   37.8160 C   0  0  0  0  0  3  0  0  0  0  0  0
   40.5820   32.1680   38.2990 C   0  0  0  0  0  3  0  0  0  0  0  0
   41.3410   32.5880   39.3560 C   0  0  0  0  0  3  0  0  0  0  0  0
   41.1410   33.7770   40.0070 C   0  0  0  0  0  0  0  0  0  0  0  0
  1  2  1  0  0  0  0
  2  3  2  0  0  0  0
  4  3  1  0  0  0  0
  5  4  2  0  0  0  0
  6  5  1  0  0  0  0
  6  1  2  0  0  0  0
  7  1  1  0  0  0  0
  7  8  1  0  0  0  0
  9  8  2  0  0  0  0
 10  9  1  0  0  0  0
 11 16  1  0  0  0  0
 11 10  2  0  0  0  0
 12 11  1  0  0  0  0
 13 14  1  0  0  0  0
 13 12  2  0  0  0  0
 14 15  2  0  0  0  0
 15 16  1  0  0  0  0
 16  7  2  0  0  0  0
 17  5  1  0  0  0  0
 17 18  1  0  0  0  0
 19 18  2  0  0  0  0
 20 19  1  0  0  0  0
 21 26  1  0  0  0  0
 21 20  2  0  0  0  0
 22 21  1  0  0  0  0
 23 24  1  0  0  0  0
 23 22  2  0  0  0  0
 24 25  2  0  0  0  0
 25 26  1  0  0  0  0
 26 17  2  0  0  0  0
M  END
>  <minimizedAffinity>
-7.33130693

$$$$

 OpenBabel03242510043D

 26 30  0  0  0  0  0  0  0  0999 V2000
   46.0900   34.7300   43.3730 C   0  0  0  0  0  0  0  0  0  0  0  0
   45.1270   35.6070   43.8300 C   0  0  0  0  0  3  0  0  0  0  0  0
   44.5400   35.5260   45.0820 C   0  0  0  0  0  3  0  0  0  0  0  0
   44.9690   34.5200   45.8530 N   0  0  0  0  0  0  0  0  0  0  0  0
   45.8970   33.6380   45.4740 C   0  0  0  0  0  0  0  0  0  0  0  0
   46.3960   33.8030   44.2590 N   0  0  0  0  0  0  0  0  0  0  0  0
   46.7600   34.6420   42.1170 C   0  0  0  0  0  0  0  0  0  0  0  0
   47.9690   35.3620   42.0030 C   0  0  0  0  0  3  0  0  0  0  0  0
   48.7550   35.4030   40.8650 C   0  0  0  0  0  3  0  0  0  0  0  0
   48.3470   34.7010   39.7690 C   0  0  0  0  0  3  0  0  0  0  0  0
   47.1870   33.9790   39.8070 C   0  0  0  0  0  0  0  0  0  0  0  0
   46.7700   33.2760   38.6950 C   0  0  0  0  0  3  0  0  0  0  0  0
   45.5970   32.5360   38.6740 C   0  0  0  0  0  3  0  0  0  0  0  0
   44.8660   32.5550   39.8720 C   0  0  0  0  0  3  0  0  0  0  0  0
   45.3110   33.2610   40.9480 C   0  0  0  0  0  3  0  0  0  0  0  0
   46.4600   33.9870   40.9660 C   0  0  0  0  0  0  0  0  0  0  0  0
   46.4520   32.4960   46.2190 C   0  0  0  0  0  0  0  0  0  0  0  0
   47.1300   32.6730   47.4250 C   0  0  0  0  0  3  0  0  0  0  0  0
   47.6640   31.6510   48.1530 C   0  0  0  0  0  3  0  0  0  0  0  0
   47.5540   30.3540   47.7160 C   0  0  0  0  0  3  0  0  0  0  0  0
   46.8980   30.1170   46.5360 C   0  0  0  0  0  0  0  0  0  0  0  0
   46.7880   28.8170   46.0950 C   0  0  0  0  0  3  0  0  0  0  0  0
   46.1440   28.5030   44.9220 C   0  0  0  0  0  3  0  0  0  0  0  0
   45.6120   29.5830   44.2080 C   0  0  0  0  0  3  0  0  0  0  0  0
   45.7410   30.8620   44.6740 C   0  0  0  0  0  3  0  0  0  0  0  0
   46.3810   31.1820   45.8430 C   0  0  0  0  0  0  0  0  0  0  0  0
  1  2  2  0  0  0  0
  1  6  1  0  0  0  0
  2  3  1  0  0  0  0
  3  4  2  0  0  0  0
  5  4  1  0  0  0  0
  5 17  1  0  0  0  0
  6  5  2  0  0  0  0
  7  1  1  0  0  0  0
  8  7  1  0  0  0  0
  9  8  2  0  0  0  0
 10 11  2  0  0  0  0
 10  9  1  0  0  0  0
 11 16  1  0  0  0  0
 12 11  1  0  0  0  0
 13 12  2  0  0  0  0
 13 14  1  0  0  0  0
 14 15  2  0  0  0  0
 15 16  1  0  0  0  0
 16  7  2  0  0  0  0
 17 18  1  0  0  0  0
 18 19  2  0  0  0  0
 20 19  1  0  0  0  0
 21 20  2  0  0  0  0
 22 21  1  0  0  0  0
 23 22  2  0  0  0  0
 24 25  2  0  0  0  0
 24 23  1  0  0  0  0
 25 26  1  0  0  0  0
 26 17  2  0  0  0  0
 26 21  1  0  0  0  0
M  END
>  <minimizedAffinity>
-7.18602657

$$$$

 OpenBabel03242510043D

 26 30  0  0  0  0  0  0  0  0999 V2000
   45.8110   30.3090   46.6260 C   0  0  0  0  0  0  0  0  0  0  0  0
   46.6970   30.3960   47.6810 C   0  0  0  0  0  3  0  0  0  0  0  0
   47.4120   31.5390   47.9960 C   0  0  0  0  0  3  0  0  0  0  0  0
   47.1930   32.5920   47.1990 N   0  0  0  0  0  0  0  0  0  0  0  0
   46.3510   32.5760   46.1640 C   0  0  0  0  0  0  0  0  0  0  0  0
   45.7150   31.4350   45.9470 N   0  0  0  0  0  0  0  0  0  0  0  0
   45.0340   29.2160   46.1390 C   0  0  0  0  0  0  0  0  0  0  0  0
   44.6450   29.2840   44.7830 C   0  0  0  0  0  3  0  0  0  0  0  0
   43.8860   28.3250   44.1350 C   0  0  0  0  0  3  0  0  0  0  0  0
   43.4800   27.2310   44.8430 C   0  0  0  0  0  3  0  0  0  0  0  0
   43.8210   27.0980   46.1590 C   0  0  0  0  0  0  0  0  0  0  0  0
   43.4030   25.9960   46.8770 C   0  0  0  0  0  3  0  0  0  0  0  0
   43.7110   25.8150   48.2180 C   0  0  0  0  0  3  0  0  0  0  0  0
   44.4820   26.8390   48.7890 C   0  0  0  0  0  3  0  0  0  0  0  0
   44.8760   27.9110   48.0470 C   0  0  0  0  0  3  0  0  0  0  0  0
   44.5720   28.0870   46.7340 C   0  0  0  0  0  0  0  0  0  0  0  0
   46.0230   33.6550   45.2170 C   0  0  0  0  0  0  0  0  0  0  0  0
   44.9980   34.5650   45.4760 C   0  0  0  0  0  3  0  0  0  0  0  0
   44.6520   35.5800   44.6340 C   0  0  0  0  0  3  0  0  0  0  0  0
   45.3220   35.7590   43.4490 C   0  0  0  0  0  3  0  0  0  0  0  0
   46.3400   34.8950   43.1390 C   0  0  0  0  0  0  0  0  0  0  0  0
   47.0120   35.0720   41.9500 C   0  0  0  0  0  3  0  0  0  0  0  0
   48.0430   34.2450   41.5720 C   0  0  0  0  0  3  0  0  0  0  0  0
   48.3630   33.2180   42.4670 C   0  0  0  0  0  3  0  0  0  0  0  0
   47.6730   33.0700   43.6380 C   0  0  0  0  0  3  0  0  0  0  0  0
   46.6460   33.8910   44.0210 C   0  0  0  0  0  0  0  0  0  0  0  0
  1  2  1  0  0  0  0
  2  3  2  0  0  0  0
  4  3  1  0  0  0  0
  5  4  2  0  0  0  0
  6  5  1  0  0  0  0
  6  1  2  0  0  0  0
  7  1  1  0  0  0  0
  7 16  1  0  0  0  0
  8  7  2  0  0  0  0
  9  8  1  0  0  0  0
  9 10  2  0  0  0  0
 10 11  1  0  0  0  0
 11 16  2  0  0  0  0
 11 12  1  0  0  0  0
 12 13  2  0  0  0  0
 13 14  1  0  0  0  0
 15 14  2  0  0  0  0
 16 15  1  0  0  0  0
 17 18  1  0  0  0  0
 17  5  1  0  0  0  0
 19 18  2  0  0  0  0
 20 19  1  0  0  0  0
 21 20  2  0  0  0  0
 21 26  1  0  0  0  0
 22 21  1  0  0  0  0
 23 22  2  0  0  0  0
 23 24  1  0  0  0  0
 24 25  2  0  0  0  0
 25 26  1  0  0  0  0
 26 17  2  0  0  0  0
M  END
>  <minimizedAffinity>
-7.16512775

$$$$

 OpenBabel03242510043D

 26 30  0  0  0  0  0  0  0  0999 V2000
   46.3220   32.5590   46.0770 C   0  0  0  0  0  0  0  0  0  0  0  0
   47.0480   32.5400   47.2500 C   0  0  0  0  0  3  0  0  0  0  0  0
   47.1380   31.4390   48.0860 C   0  0  0  0  0  3  0  0  0  0  0  0
   46.4630   30.3560   47.6830 N   0  0  0  0  0  0  0  0  0  0  0  0
   45.7430   30.3060   46.5610 C   0  0  0  0  0  0  0  0  0  0  0  0
   45.7210   31.4110   45.8320 N   0  0  0  0  0  0  0  0  0  0  0  0
   46.0890   33.6020   45.1320 C   0  0  0  0  0  0  0  0  0  0  0  0
   45.0480   34.5030   45.4440 C   0  0  0  0  0  3  0  0  0  0  0  0
   44.6710   35.5720   44.6500 C   0  0  0  0  0  3  0  0  0  0  0  0
   45.3440   35.7830   43.4830 C   0  0  0  0  0  3  0  0  0  0  0  0
   46.3640   34.9500   43.1170 C   0  0  0  0  0  0  0  0  0  0  0  0
   47.0390   35.1580   41.9310 C   0  0  0  0  0  3  0  0  0  0  0  0
   48.0750   34.3390   41.5060 C   0  0  0  0  0  3  0  0  0  0  0  0
   48.3850   33.2820   42.3750 C   0  0  0  0  0  3  0  0  0  0  0  0
   47.6960   33.1100   43.5360 C   0  0  0  0  0  3  0  0  0  0  0  0
   46.6810   33.9130   43.9510 C   0  0  0  0  0  0  0  0  0  0  0  0
   44.9600   29.1870   46.0090 C   0  0  0  0  0  0  0  0  0  0  0  0
   44.5480   29.1730   44.6770 C   0  0  0  0  0  3  0  0  0  0  0  0
   43.8210   28.1640   44.1170 C   0  0  0  0  0  3  0  0  0  0  0  0
   43.4480   27.0770   44.8670 C   0  0  0  0  0  3  0  0  0  0  0  0
   43.8230   27.0340   46.1850 C   0  0  0  0  0  0  0  0  0  0  0  0
   43.4490   25.9440   46.9400 C   0  0  0  0  0  3  0  0  0  0  0  0
   43.7890   25.8330   48.2670 C   0  0  0  0  0  3  0  0  0  0  0  0
   44.5350   26.8910   48.7990 C   0  0  0  0  0  3  0  0  0  0  0  0
   44.8880   27.9590   48.0210 C   0  0  0  0  0  3  0  0  0  0  0  0
   44.5530   28.0760   46.6980 C   0  0  0  0  0  0  0  0  0  0  0  0
  1  2  1  0  0  0  0
  2  3  2  0  0  0  0
  4  3  1  0  0  0  0
  5  4  2  0  0  0  0
  6  1  2  0  0  0  0
  6  5  1  0  0  0  0
  7  8  1  0  0  0  0
  7  1  1  0  0  0  0
  9  8  2  0  0  0  0
 10  9  1  0  0  0  0
 11 10  2  0  0  0  0
 11 16  1  0  0  0  0
 12 11  1  0  0  0  0
 13 12  2  0  0  0  0
 13 14  1  0  0  0  0
 14 15  2  0  0  0  0
 15 16  1  0  0  0  0
 16  7  2  0  0  0  0
 17  5  1  0  0  0  0
 17 26  1  0  0  0  0
 18 17  2  0  0  0  0
 19 18  1  0  0  0  0
 19 20  2  0  0  0  0
 20 21  1  0  0  0  0
 21 26  2  0  0  0  0
 21 22  1  0  0  0  0
 22 23  2  0  0  0  0
 23 24  1  0  0  0  0
 25 24  2  0  0  0  0
 26 25  1  0  0  0  0
M  END
>  <minimizedAffinity>
-7.14280987

$$$$

 OpenBabel03242510043D

 26 30  0  0  0  0  0  0  0  0999 V2000
   45.8690   33.5830   45.5210 C   0  0  0  0  0  0  0  0  0  0  0  0
   44.9370   34.5370   45.8780 C   0  0  0  0  0  3  0  0  0  0  0  0
   44.5570   35.5890   45.0620 C   0  0  0  0  0  3  0  0  0  0  0  0
   45.1580   35.6350   43.8670 N   0  0  0  0  0  0  0  0  0  0  0  0
   46.0660   34.7450   43.4580 C   0  0  0  0  0  0  0  0  0  0  0  0
   46.3600   33.7780   44.3130 N   0  0  0  0  0  0  0  0  0  0  0  0
   46.4030   32.4740   46.2430 C   0  0  0  0  0  0  0  0  0  0  0  0
   47.1080   32.7820   47.4260 C   0  0  0  0  0  3  0  0  0  0  0  0
   47.7010   31.8450   48.2540 C   0  0  0  0  0  3  0  0  0  0  0  0
   47.6020   30.5270   47.9170 C   0  0  0  0  0  3  0  0  0  0  0  0
   46.9320   30.1540   46.7850 C   0  0  0  0  0  0  0  0  0  0  0  0
   46.8400   28.8220   46.4390 C   0  0  0  0  0  3  0  0  0  0  0  0
   46.1810   28.3880   45.2980 C   0  0  0  0  0  3  0  0  0  0  0  0
   45.6140   29.4090   44.5200 C   0  0  0  0  0  3  0  0  0  0  0  0
   45.7270   30.7140   44.8950 C   0  0  0  0  0  3  0  0  0  0  0  0
   46.3730   31.1370   46.0140 C   0  0  0  0  0  0  0  0  0  0  0  0
   46.7960   34.6830   42.1810 C   0  0  0  0  0  0  0  0  0  0  0  0
   48.0110   35.3430   42.0030 C   0  0  0  0  0  3  0  0  0  0  0  0
   48.7250   35.3190   40.8420 C   0  0  0  0  0  3  0  0  0  0  0  0
   48.2640   34.6180   39.7550 C   0  0  0  0  0  3  0  0  0  0  0  0
   47.0730   33.9490   39.8700 C   0  0  0  0  0  0  0  0  0  0  0  0
   46.6080   33.2460   38.7800 C   0  0  0  0  0  3  0  0  0  0  0  0
   45.4220   32.5500   38.8210 C   0  0  0  0  0  3  0  0  0  0  0  0
   44.7240   32.6030   40.0330 C   0  0  0  0  0  3  0  0  0  0  0  0
   45.2140   33.3120   41.0940 C   0  0  0  0  0  3  0  0  0  0  0  0
   46.3950   34.0060   41.0600 C   0  0  0  0  0  0  0  0  0  0  0  0
  1  2  1  0  0  0  0
  1  7  1  0  0  0  0
  3  2  2  0  0  0  0
  4  3  1  0  0  0  0
  5  4  2  0  0  0  0
  5  6  1  0  0  0  0
  6  1  2  0  0  0  0
  7  8  1  0  0  0  0
  8  9  2  0  0  0  0
 10  9  1  0  0  0  0
 11 10  2  0  0  0  0
 12 11  1  0  0  0  0
 13 12  2  0  0  0  0
 14 15  2  0  0  0  0
 14 13  1  0  0  0  0
 15 16  1  0  0  0  0
 16  7  2  0  0  0  0
 16 11  1  0  0  0  0
 17  5  1  0  0  0  0
 18 17  1  0  0  0  0
 19 18  2  0  0  0  0
 20 21  2  0  0  0  0
 20 19  1  0  0  0  0
 21 26  1  0  0  0  0
 22 23  2  0  0  0  0
 22 21  1  0  0  0  0
 23 24  1  0  0  0  0
 24 25  2  0  0  0  0
 26 25  1  0  0  0  0
 26 17  2  0  0  0  0
M  END
>  <minimizedAffinity>
-7.10074711

$$$$

 OpenBabel03242510043D

 26 30  0  0  0  0  0  0  0  0999 V2000
   45.2160   33.8100   41.2760 C   0  0  0  0  0  0  0  0  0  0  0  0
   46.2420   33.2320   40.5560 C   0  0  0  0  0  3  0  0  0  0  0  0
   46.1450   32.8800   39.2210 C   0  0  0  0  0  3  0  0  0  0  0  0
   44.9660   33.1380   38.6420 N   0  0  0  0  0  0  0  0  0  0  0  0
   43.9340   33.6960   39.2790 C   0  0  0  0  0  0  0  0  0  0  0  0
   44.1280   33.9950   40.5540 N   0  0  0  0  0  0  0  0  0  0  0  0
   45.1290   34.1930   42.6470 C   0  0  0  0  0  0  0  0  0  0  0  0
   44.5430   35.4500   42.9080 C   0  0  0  0  0  3  0  0  0  0  0  0
   44.3770   35.9940   44.1690 C   0  0  0  0  0  3  0  0  0  0  0  0
   44.8040   35.2740   45.2470 C   0  0  0  0  0  3  0  0  0  0  0  0
   45.3800   34.0470   45.0710 C   0  0  0  0  0  0  0  0  0  0  0  0
   45.8200   33.3240   46.1600 C   0  0  0  0  0  3  0  0  0  0  0  0
   46.4210   32.0790   46.0390 C   0  0  0  0  0  3  0  0  0  0  0  0
   46.5470   31.6100   44.7220 C   0  0  0  0  0  3  0  0  0  0  0  0
   46.1000   32.3550   43.6730 C   0  0  0  0  0  3  0  0  0  0  0  0
   45.5120   33.5740   43.7940 C   0  0  0  0  0  0  0  0  0  0  0  0
   42.5950   34.0290   38.7640 C   0  0  0  0  0  0  0  0  0  0  0  0
   42.2570   35.3340   38.4050 C   0  0  0  0  0  3  0  0  0  0  0  0
   41.0330   35.6970   37.9250 C   0  0  0  0  0  3  0  0  0  0  0  0
   40.0420   34.7600   37.7670 C   0  0  0  0  0  3  0  0  0  0  0  0
   40.3150   33.4590   38.1040 C   0  0  0  0  0  0  0  0  0  0  0  0
   39.3220   32.5180   37.9470 C   0  0  0  0  0  3  0  0  0  0  0  0
   39.5230   31.1950   38.2630 C   0  0  0  0  0  3  0  0  0  0  0  0
   40.7940   30.8690   38.7520 C   0  0  0  0  0  3  0  0  0  0  0  0
   41.7560   31.8300   38.8960 C   0  0  0  0  0  3  0  0  0  0  0  0
   41.5630   33.1490   38.5820 C   0  0  0  0  0  0  0  0  0  0  0  0
  1  7  1  0  0  0  0
  2  1  1  0  0  0  0
  3  2  2  0  0  0  0
  4  3  1  0  0  0  0
  4  5  2  0  0  0  0
  5  6  1  0  0  0  0
  6  1  2  0  0  0  0
  7  8  2  0  0  0  0
  7 16  1  0  0  0  0
  8  9  1  0  0  0  0
  9 10  2  0  0  0  0
 11 10  1  0  0  0  0
 11 12  1  0  0  0  0
 13 12  2  0  0  0  0
 14 13  1  0  0  0  0
 15 16  1  0  0  0  0
 15 14  2  0  0  0  0
 16 11  2  0  0  0  0
 17  5  1  0  0  0  0
 18 17  2  0  0  0  0
 19 18  1  0  0  0  0
 20 19  2  0  0  0  0
 20 21  1  0  0  0  0
 21 26  1  0  0  0  0
 22 21  2  0  0  0  0
 22 23  1  0  0  0  0
 23 24  2  0  0  0  0
 24 25  1  0  0  0  0
 26 17  1  0  0  0  0
 26 25  2  0  0  0  0
M  END
>  <minimizedAffinity>
-7.07209778

$$$$

 OpenBabel03242510043D

 26 30  0  0  0  0  0  0  0  0999 V2000
   44.9890   34.4230   43.1050 C   0  0  0  0  0  0  0  0  0  0  0  0
   44.5150   35.6470   43.5320 C   0  0  0  0  0  3  0  0  0  0  0  0
   44.4340   36.0230   44.8620 C   0  0  0  0  0  3  0  0  0  0  0  0
   44.8560   35.1080   45.7440 N   0  0  0  0  0  0  0  0  0  0  0  0
   45.3260   33.9080   45.3990 C   0  0  0  0  0  0  0  0  0  0  0  0
   45.3620   33.6450   44.1020 N   0  0  0  0  0  0  0  0  0  0  0  0
   45.1010   33.8620   41.7980 C   0  0  0  0  0  0  0  0  0  0  0  0
   44.0120   33.0760   41.3630 C   0  0  0  0  0  3  0  0  0  0  0  0
   43.9400   32.4470   40.1320 C   0  0  0  0  0  3  0  0  0  0  0  0
   44.9860   32.5880   39.2690 C   0  0  0  0  0  3  0  0  0  0  0  0
   46.0740   33.3360   39.6220 C   0  0  0  0  0  0  0  0  0  0  0  0
   47.1360   33.4720   38.7520 C   0  0  0  0  0  3  0  0  0  0  0  0
   48.2690   34.2110   39.0630 C   0  0  0  0  0  3  0  0  0  0  0  0
   48.2520   34.8100   40.3320 C   0  0  0  0  0  3  0  0  0  0  0  0
   47.1840   34.6530   41.1620 C   0  0  0  0  0  3  0  0  0  0  0  0
   46.0760   33.9280   40.8560 C   0  0  0  0  0  0  0  0  0  0  0  0
   45.8170   32.8200   46.2620 C   0  0  0  0  0  0  0  0  0  0  0  0
   45.4190   32.7110   47.5940 C   0  0  0  0  0  3  0  0  0  0  0  0
   45.8440   31.7260   48.4360 C   0  0  0  0  0  3  0  0  0  0  0  0
   46.7160   30.7620   47.9940 C   0  0  0  0  0  3  0  0  0  0  0  0
   47.1440   30.8170   46.6930 C   0  0  0  0  0  0  0  0  0  0  0  0
   48.0200   29.8510   46.2480 C   0  0  0  0  0  3  0  0  0  0  0  0
   48.4920   29.8430   44.9570 C   0  0  0  0  0  3  0  0  0  0  0  0
   48.0280   30.8720   44.1290 C   0  0  0  0  0  3  0  0  0  0  0  0
   47.1600   31.8160   44.6050 C   0  0  0  0  0  3  0  0  0  0  0  0
   46.6850   31.8290   45.8900 C   0  0  0  0  0  0  0  0  0  0  0  0
  1  2  2  0  0  0  0
  1  6  1  0  0  0  0
  2  3  1  0  0  0  0
  3  4  2  0  0  0  0
  5  4  1  0  0  0  0
  5 17  1  0  0  0  0
  6  5  2  0  0  0  0
  7  1  1  0  0  0  0
  8  7  1  0  0  0  0
  9  8  2  0  0  0  0
 10 11  2  0  0  0  0
 10  9  1  0  0  0  0
 11 16  1  0  0  0  0
 12 13  2  0  0  0  0
 12 11  1  0  0  0  0
 13 14  1  0  0  0  0
 14 15  2  0  0  0  0
 16 15  1  0  0  0  0
 16  7  2  0  0  0  0
 17 18  1  0  0  0  0
 18 19  2  0  0  0  0
 20 19  1  0  0  0  0
 21 20  2  0  0  0  0
 22 21  1  0  0  0  0
 23 22  2  0  0  0  0
 24 25  2  0  0  0  0
 24 23  1  0  0  0  0
 25 26  1  0  0  0  0
 26 17  2  0  0  0  0
 26 21  1  0  0  0  0
M  END
>  <minimizedAffinity>
-6.96266651

$$$$
