
 OpenBabel03242510183D

 35 40  0  0  0  0  0  0  0  0999 V2000
   42.4730   34.1450   40.8480 C   0  0  0  0  0  3  0  0  0  0  0  0
   43.2950   33.4870   39.9070 C   0  0  0  0  0  3  0  0  0  0  0  0
   44.6410   33.6080   40.0030 C   0  0  0  0  0  0  0  0  0  0  0  0
   45.1360   34.3670   41.0160 N   0  0  0  0  0  0  0  0  0  0  0  0
   44.3520   34.9920   41.9060 C   0  0  0  0  0  0  0  0  0  0  0  0
   43.0470   34.8780   41.8170 N   0  0  0  0  0  0  0  0  0  0  0  0
   45.4460   32.8980   38.9980 C   0  0  0  0  0  2  0  0  0  0  0  0
   46.8130   33.3700   38.7900 C   0  0  0  0  0  2  0  0  0  0  0  0
   47.8960   32.9390   39.6590 C   0  0  0  0  0  0  0  0  0  0  0  0
   48.1870   31.6260   39.4270 N   0  0  0  0  0  0  0  0  0  0  0  0
   49.1350   30.9670   40.1300 C   0  0  0  0  0  3  0  0  0  0  0  0
   49.8270   31.6130   41.0950 N   0  0  0  0  0  0  0  0  0  0  0  0
   49.6050   32.9050   41.3890 C   0  0  0  0  0  0  0  0  0  0  0  0
   50.3030   33.6350   42.3610 C   0  0  0  0  0  3  0  0  0  0  0  0
   49.9270   34.9570   42.4820 C   0  0  0  0  0  3  0  0  0  0  0  0
   48.9620   35.6330   41.7680 C   0  0  0  0  0  3  0  0  0  0  0  0
   48.3170   34.8630   40.8320 C   0  0  0  0  0  3  0  0  0  0  0  0
   48.6360   33.5380   40.6560 C   0  0  0  0  0  0  0  0  0  0  0  0
   45.0550   35.9970   43.2170 S   0  0  0  0  0  0  0  0  0  0  0  0
   44.8590   34.2430   46.7480 N   0  0  0  0  0  0  0  0  0  0  0  0
   44.4330   35.1830   45.9450 N   0  0  0  0  0  0  0  0  0  0  0  0
   45.0730   35.0530   44.7500 C   0  0  0  0  0  0  0  0  0  0  0  0
   45.9040   33.9520   44.9250 C   0  0  0  0  0  3  0  0  0  0  0  0
   45.7410   33.4500   46.2360 C   0  0  0  0  0  0  0  0  0  0  0  0
   44.5170   34.1420   47.7140 H   0  0  0  0  0  0  0  0  0  0  0  0
   46.5310   32.3540   46.6550 C   0  0  0  0  0  0  0  0  0  0  0  0
   46.7140   32.1230   47.9870 N   0  0  0  0  0  0  0  0  0  0  0  0
   47.3880   31.1250   48.5170 C   0  0  0  0  0  3  0  0  0  0  0  0
   47.9900   30.1910   47.7730 N   0  0  0  0  0  0  0  0  0  0  0  0
   47.8830   30.3090   46.4330 C   0  0  0  0  0  0  0  0  0  0  0  0
   48.4750   29.3870   45.6190 C   0  0  0  0  0  3  0  0  0  0  0  0
   48.3860   29.4830   44.2280 C   0  0  0  0  0  3  0  0  0  0  0  0
   47.6640   30.5670   43.7210 C   0  0  0  0  0  3  0  0  0  0  0  0
   47.1050   31.4380   44.6170 C   0  0  0  0  0  3  0  0  0  0  0  0
   47.1680   31.3750   45.9600 C   0  0  0  0  0  0  0  0  0  0  0  0
  1  6  1  0  0  0  0
  2  3  1  0  0  0  0
  2  1  2  0  0  0  0
  3  4  2  0  0  0  0
  4  5  1  0  0  0  0
  5 19  1  0  0  0  0
  6  5  2  0  0  0  0
  7  3  1  0  0  0  0
  8  7  1  0  0  0  0
  8  9  1  0  0  0  0
  9 18  1  0  0  0  0
 10  9  2  0  0  0  0
 10 11  1  0  0  0  0
 11 12  2  0  0  0  0
 12 13  1  0  0  0  0
 13 14  1  0  0  0  0
 14 15  2  0  0  0  0
 16 15  1  0  0  0  0
 17 16  2  0  0  0  0
 18 17  1  0  0  0  0
 18 13  2  0  0  0  0
 19 22  1  0  0  0  0
 20 25  1  0  0  0  0
 21 20  1  0  0  0  0
 22 23  1  0  0  0  0
 22 21  2  0  0  0  0
 23 24  2  0  0  0  0
 24 26  1  0  0  0  0
 24 20  1  0  0  0  0
 26 27  1  0  0  0  0
 27 28  2  0  0  0  0
 29 28  1  0  0  0  0
 30 29  2  0  0  0  0
 31 30  1  0  0  0  0
 32 31  2  0  0  0  0
 33 32  1  0  0  0  0
 33 34  2  0  0  0  0
 34 35  1  0  0  0  0
 35 30  1  0  0  0  0
 35 26  2  0  0  0  0
M  END
>  <minimizedAffinity>
-7.71028709

$$$$

 OpenBabel03242510183D

 35 40  0  0  0  0  0  0  0  0999 V2000
   45.6750   29.5310   45.4260 C   0  0  0  0  0  3  0  0  0  0  0  0
   46.7760   29.2020   44.6050 C   0  0  0  0  0  3  0  0  0  0  0  0
   47.6770   30.1640   44.2870 C   0  0  0  0  0  0  0  0  0  0  0  0
   47.4690   31.4120   44.7820 N   0  0  0  0  0  0  0  0  0  0  0  0
   46.4210   31.7210   45.5600 C   0  0  0  0  0  0  0  0  0  0  0  0
   45.5460   30.7920   45.8710 N   0  0  0  0  0  0  0  0  0  0  0  0
   48.8030   29.7630   43.4310 C   0  0  0  0  0  2  0  0  0  0  0  0
   49.6020   30.8340   42.8420 C   0  0  0  0  0  2  0  0  0  0  0  0
   49.0660   31.6740   41.7830 C   0  0  0  0  0  0  0  0  0  0  0  0
   48.5510   30.8980   40.7860 N   0  0  0  0  0  0  0  0  0  0  0  0
   48.0220   31.4310   39.6620 C   0  0  0  0  0  3  0  0  0  0  0  0
   47.9910   32.7730   39.5050 N   0  0  0  0  0  0  0  0  0  0  0  0
   48.4750   33.6110   40.4370 C   0  0  0  0  0  0  0  0  0  0  0  0
   48.4520   35.0100   40.3420 C   0  0  0  0  0  3  0  0  0  0  0  0
   48.9840   35.6780   41.4260 C   0  0  0  0  0  3  0  0  0  0  0  0
   49.5250   35.1400   42.5730 C   0  0  0  0  0  3  0  0  0  0  0  0
   49.5160   33.7670   42.6040 C   0  0  0  0  0  3  0  0  0  0  0  0
   49.0050   33.0330   41.5600 C   0  0  0  0  0  0  0  0  0  0  0  0
   46.1830   33.3900   46.1770 S   0  0  0  0  0  0  0  0  0  0  0  0
   44.0420   35.7450   43.8430 N   0  0  0  0  0  0  0  0  0  0  0  0
   44.5830   35.5290   45.0140 N   0  0  0  0  0  0  0  0  0  0  0  0
   45.2630   34.3500   44.9640 C   0  0  0  0  0  0  0  0  0  0  0  0
   45.0750   33.9010   43.6610 C   0  0  0  0  0  3  0  0  0  0  0  0
   44.2750   34.8320   42.9600 C   0  0  0  0  0  0  0  0  0  0  0  0
   43.4740   36.5800   43.6410 H   0  0  0  0  0  0  0  0  0  0  0  0
   43.9110   34.5530   41.6220 C   0  0  0  0  0  0  0  0  0  0  0  0
   44.7720   33.8660   40.8160 N   0  0  0  0  0  0  0  0  0  0  0  0
   44.5490   33.5060   39.5700 C   0  0  0  0  0  3  0  0  0  0  0  0
   43.4060   33.7850   38.9370 N   0  0  0  0  0  0  0  0  0  0  0  0
   42.4680   34.4650   39.6290 C   0  0  0  0  0  0  0  0  0  0  0  0
   41.2790   34.7790   39.0380 C   0  0  0  0  0  3  0  0  0  0  0  0
   40.2900   35.4860   39.7270 C   0  0  0  0  0  3  0  0  0  0  0  0
   40.5840   35.8480   41.0440 C   0  0  0  0  0  3  0  0  0  0  0  0
   41.8020   35.4870   41.5510 C   0  0  0  0  0  3  0  0  0  0  0  0
   42.7760   34.8050   40.9180 C   0  0  0  0  0  0  0  0  0  0  0  0
  1  6  1  0  0  0  0
  2  1  2  0  0  0  0
  3  2  1  0  0  0  0
  3  4  2  0  0  0  0
  4  5  1  0  0  0  0
  5  6  2  0  0  0  0
  5 19  1  0  0  0  0
  7  3  1  0  0  0  0
  8  7  1  0  0  0  0
  9  8  1  0  0  0  0
 10  9  2  0  0  0  0
 11 10  1  0  0  0  0
 12 11  2  0  0  0  0
 12 13  1  0  0  0  0
 13 18  1  0  0  0  0
 14 13  2  0  0  0  0
 14 15  1  0  0  0  0
 15 16  2  0  0  0  0
 16 17  1  0  0  0  0
 18  9  1  0  0  0  0
 18 17  2  0  0  0  0
 20 21  1  0  0  0  0
 22 21  2  0  0  0  0
 22 19  1  0  0  0  0
 23 22  1  0  0  0  0
 24 23  2  0  0  0  0
 24 20  1  0  0  0  0
 25 20  1  0  0  0  0
 26 24  1  0  0  0  0
 27 26  2  0  0  0  0
 28 27  1  0  0  0  0
 29 28  2  0  0  0  0
 29 30  1  0  0  0  0
 30 35  1  0  0  0  0
 31 30  2  0  0  0  0
 31 32  1  0  0  0  0
 32 33  2  0  0  0  0
 33 34  1  0  0  0  0
 35 34  2  0  0  0  0
 35 26  1  0  0  0  0
M  END
>  <minimizedAffinity>
-7.64668369

$$$$

 OpenBabel03242510183D

 35 40  0  0  0  0  0  0  0  0999 V2000
   42.2360   33.3100   39.9040 C   0  0  0  0  0  3  0  0  0  0  0  0
   43.3070   32.7000   39.2160 C   0  0  0  0  0  3  0  0  0  0  0  0
   44.5720   33.1310   39.4430 C   0  0  0  0  0  0  0  0  0  0  0  0
   44.7440   34.1420   40.3350 N   0  0  0  0  0  0  0  0  0  0  0  0
   43.7240   34.7200   40.9860 C   0  0  0  0  0  0  0  0  0  0  0  0
   42.4970   34.3050   40.7690 N   0  0  0  0  0  0  0  0  0  0  0  0
   45.6470   32.4580   38.6990 C   0  0  0  0  0  2  0  0  0  0  0  0
   46.9480   33.1220   38.6680 C   0  0  0  0  0  2  0  0  0  0  0  0
   47.9800   32.7980   39.6390 C   0  0  0  0  0  0  0  0  0  0  0  0
   48.3260   31.4820   39.5310 N   0  0  0  0  0  0  0  0  0  0  0  0
   49.2420   30.9110   40.3450 C   0  0  0  0  0  3  0  0  0  0  0  0
   49.8450   31.6530   41.3010 N   0  0  0  0  0  0  0  0  0  0  0  0
   49.5660   32.9550   41.4760 C   0  0  0  0  0  0  0  0  0  0  0  0
   50.1720   33.7810   42.4330 C   0  0  0  0  0  3  0  0  0  0  0  0
   49.7500   35.0940   42.4240 C   0  0  0  0  0  3  0  0  0  0  0  0
   48.8170   35.6800   41.5970 C   0  0  0  0  0  3  0  0  0  0  0  0
   48.2620   34.8190   40.6830 C   0  0  0  0  0  3  0  0  0  0  0  0
   48.6310   33.4960   40.6330 C   0  0  0  0  0  0  0  0  0  0  0  0
   44.0030   36.0620   42.1440 S   0  0  0  0  0  0  0  0  0  0  0  0
   45.1020   34.9700   45.7740 N   0  0  0  0  0  0  0  0  0  0  0  0
   44.5350   35.8600   45.0010 N   0  0  0  0  0  0  0  0  0  0  0  0
   44.5380   35.3870   43.7250 C   0  0  0  0  0  0  0  0  0  0  0  0
   45.1500   34.1420   43.8220 C   0  0  0  0  0  3  0  0  0  0  0  0
   45.5060   33.9030   45.1690 C   0  0  0  0  0  0  0  0  0  0  0  0
   45.2170   35.1090   46.7880 H   0  0  0  0  0  0  0  0  0  0  0  0
   46.1920   32.7110   45.4970 C   0  0  0  0  0  0  0  0  0  0  0  0
   47.0360   32.1450   44.5860 N   0  0  0  0  0  0  0  0  0  0  0  0
   47.7640   31.0640   44.7680 C   0  0  0  0  0  3  0  0  0  0  0  0
   47.7550   30.3790   45.9160 N   0  0  0  0  0  0  0  0  0  0  0  0
   46.9560   30.8390   46.9020 C   0  0  0  0  0  0  0  0  0  0  0  0
   46.9030   30.1840   48.0980 C   0  0  0  0  0  3  0  0  0  0  0  0
   46.0830   30.6330   49.1360 C   0  0  0  0  0  3  0  0  0  0  0  0
   45.3270   31.7810   48.8830 C   0  0  0  0  0  3  0  0  0  0  0  0
   45.4480   32.3690   47.6540 C   0  0  0  0  0  3  0  0  0  0  0  0
   46.2290   31.9670   46.6330 C   0  0  0  0  0  0  0  0  0  0  0  0
  1  6  1  0  0  0  0
  2  3  1  0  0  0  0
  2  1  2  0  0  0  0
  3  4  2  0  0  0  0
  4  5  1  0  0  0  0
  5 19  1  0  0  0  0
  6  5  2  0  0  0  0
  7  3  1  0  0  0  0
  8  7  1  0  0  0  0
  8  9  1  0  0  0  0
  9 18  1  0  0  0  0
 10  9  2  0  0  0  0
 10 11  1  0  0  0  0
 11 12  2  0  0  0  0
 12 13  1  0  0  0  0
 13 14  1  0  0  0  0
 15 14  2  0  0  0  0
 16 15  1  0  0  0  0
 17 16  2  0  0  0  0
 18 17  1  0  0  0  0
 18 13  2  0  0  0  0
 19 22  1  0  0  0  0
 20 25  1  0  0  0  0
 21 20  1  0  0  0  0
 22 23  1  0  0  0  0
 22 21  2  0  0  0  0
 23 24  2  0  0  0  0
 24 26  1  0  0  0  0
 24 20  1  0  0  0  0
 26 35  1  0  0  0  0
 27 28  1  0  0  0  0
 27 26  2  0  0  0  0
 28 29  2  0  0  0  0
 29 30  1  0  0  0  0
 30 31  1  0  0  0  0
 31 32  2  0  0  0  0
 33 32  1  0  0  0  0
 34 33  2  0  0  0  0
 35 30  2  0  0  0  0
 35 34  1  0  0  0  0
M  END
>  <minimizedAffinity>
-7.57765102

$$$$

 OpenBabel03242510183D

 35 40  0  0  0  0  0  0  0  0999 V2000
   47.5570   34.2060   42.7960 C   0  0  0  0  0  3  0  0  0  0  0  0
   46.4140   34.8260   42.2460 C   0  0  0  0  0  3  0  0  0  0  0  0
   45.2410   34.7720   42.9220 C   0  0  0  0  0  0  0  0  0  0  0  0
   45.2270   34.1140   44.1110 N   0  0  0  0  0  0  0  0  0  0  0  0
   46.3140   33.5250   44.6290 C   0  0  0  0  0  0  0  0  0  0  0  0
   47.4530   33.5750   43.9780 N   0  0  0  0  0  0  0  0  0  0  0  0
   44.0850   35.4370   42.3010 C   0  0  0  0  0  2  0  0  0  0  0  0
   43.7810   35.0820   40.9180 C   0  0  0  0  0  2  0  0  0  0  0  0
   42.5750   34.3430   40.5790 C   0  0  0  0  0  0  0  0  0  0  0  0
   42.3930   33.3170   41.4610 N   0  0  0  0  0  0  0  0  0  0  0  0
   41.3620   32.4500   41.3500 C   0  0  0  0  0  3  0  0  0  0  0  0
   40.4730   32.5890   40.3420 N   0  0  0  0  0  0  0  0  0  0  0  0
   40.5760   33.5700   39.4300 C   0  0  0  0  0  0  0  0  0  0  0  0
   39.6760   33.7790   38.3770 C   0  0  0  0  0  3  0  0  0  0  0  0
   39.9600   34.8620   37.5700 C   0  0  0  0  0  3  0  0  0  0  0  0
   41.0090   35.7480   37.6780 C   0  0  0  0  0  3  0  0  0  0  0  0
   41.8530   35.4890   38.7310 C   0  0  0  0  0  3  0  0  0  0  0  0
   41.6350   34.4280   39.5760 C   0  0  0  0  0  0  0  0  0  0  0  0
   46.2400   32.6550   46.1980 S   0  0  0  0  0  0  0  0  0  0  0  0
   46.4740   28.8500   45.1750 N   0  0  0  0  0  0  0  0  0  0  0  0
   46.8520   30.0850   44.9690 N   0  0  0  0  0  0  0  0  0  0  0  0
   46.2520   30.8800   45.8980 C   0  0  0  0  0  0  0  0  0  0  0  0
   45.4960   30.0000   46.6650 C   0  0  0  0  0  3  0  0  0  0  0  0
   45.6630   28.6880   46.1670 C   0  0  0  0  0  0  0  0  0  0  0  0
   46.7990   28.0660   44.5910 H   0  0  0  0  0  0  0  0  0  0  0  0
   44.9420   27.6300   46.7670 C   0  0  0  0  0  0  0  0  0  0  0  0
   45.4940   26.9400   47.8070 N   0  0  0  0  0  0  0  0  0  0  0  0
   44.9260   25.9630   48.4810 C   0  0  0  0  0  3  0  0  0  0  0  0
   43.6920   25.5270   48.2070 N   0  0  0  0  0  0  0  0  0  0  0  0
   43.0360   26.1310   47.1940 C   0  0  0  0  0  0  0  0  0  0  0  0
   41.7730   25.7310   46.8660 C   0  0  0  0  0  3  0  0  0  0  0  0
   41.0690   26.3340   45.8210 C   0  0  0  0  0  3  0  0  0  0  0  0
   41.7250   27.3610   45.1360 C   0  0  0  0  0  3  0  0  0  0  0  0
   42.9900   27.6920   45.5380 C   0  0  0  0  0  3  0  0  0  0  0  0
   43.6960   27.1360   46.5410 C   0  0  0  0  0  0  0  0  0  0  0  0
  1  6  1  0  0  0  0
  2  1  2  0  0  0  0
  2  3  1  0  0  0  0
  3  4  2  0  0  0  0
  4  5  1  0  0  0  0
  5 19  1  0  0  0  0
  6  5  2  0  0  0  0
  7  3  1  0  0  0  0
  8  7  1  0  0  0  0
  9  8  1  0  0  0  0
  9 10  1  0  0  0  0
 11 10  2  0  0  0  0
 12 11  1  0  0  0  0
 13 18  1  0  0  0  0
 13 12  2  0  0  0  0
 14 13  1  0  0  0  0
 15 16  1  0  0  0  0
 15 14  2  0  0  0  0
 16 17  2  0  0  0  0
 17 18  1  0  0  0  0
 18  9  2  0  0  0  0
 20 24  1  0  0  0  0
 21 20  1  0  0  0  0
 21 22  2  0  0  0  0
 22 19  1  0  0  0  0
 22 23  1  0  0  0  0
 24 23  2  0  0  0  0
 24 26  1  0  0  0  0
 25 20  1  0  0  0  0
 26 27  1  0  0  0  0
 27 28  2  0  0  0  0
 29 28  1  0  0  0  0
 30 29  2  0  0  0  0
 31 30  1  0  0  0  0
 32 31  2  0  0  0  0
 33 34  2  0  0  0  0
 33 32  1  0  0  0  0
 34 35  1  0  0  0  0
 35 26  2  0  0  0  0
 35 30  1  0  0  0  0
M  END
>  <minimizedAffinity>
-7.32001019

$$$$

 OpenBabel03242510183D

 35 40  0  0  0  0  0  0  0  0999 V2000
   50.9330   32.0520   41.2850 C   0  0  0  0  0  3  0  0  0  0  0  0
   50.2200   33.0000   42.0500 C   0  0  0  0  0  3  0  0  0  0  0  0
   49.0360   33.4700   41.5880 C   0  0  0  0  0  0  0  0  0  0  0  0
   48.5920   32.9960   40.3950 N   0  0  0  0  0  0  0  0  0  0  0  0
   49.2720   32.0960   39.6700 C   0  0  0  0  0  0  0  0  0  0  0  0
   50.4200   31.6380   40.1140 N   0  0  0  0  0  0  0  0  0  0  0  0
   48.3370   34.4540   42.4280 C   0  0  0  0  0  2  0  0  0  0  0  0
   46.8790   34.3810   42.4600 C   0  0  0  0  0  2  0  0  0  0  0  0
   46.1520   34.4370   43.7180 C   0  0  0  0  0  0  0  0  0  0  0  0
   45.3370   35.5320   43.7380 N   0  0  0  0  0  0  0  0  0  0  0  0
   44.5750   35.8400   44.8120 C   0  0  0  0  0  3  0  0  0  0  0  0
   44.6080   35.0490   45.9070 N   0  0  0  0  0  0  0  0  0  0  0  0
   45.3790   33.9520   45.9730 C   0  0  0  0  0  0  0  0  0  0  0  0
   45.4390   33.0810   47.0690 C   0  0  0  0  0  3  0  0  0  0  0  0
   46.2840   32.0010   46.9140 C   0  0  0  0  0  3  0  0  0  0  0  0
   47.0630   31.6830   45.8230 C   0  0  0  0  0  3  0  0  0  0  0  0
   46.9580   32.5740   44.7830 C   0  0  0  0  0  3  0  0  0  0  0  0
   46.1380   33.6740   44.8660 C   0  0  0  0  0  0  0  0  0  0  0  0
   48.6490   31.5120   38.0910 S   0  0  0  0  0  0  0  0  0  0  0  0
   45.6250   33.7840   36.9630 N   0  0  0  0  0  0  0  0  0  0  0  0
   46.8950   33.4900   36.8660 N   0  0  0  0  0  0  0  0  0  0  0  0
   47.1530   32.4190   37.6670 C   0  0  0  0  0  0  0  0  0  0  0  0
   45.9210   32.1130   38.2350 C   0  0  0  0  0  3  0  0  0  0  0  0
   44.9490   33.0210   37.7570 C   0  0  0  0  0  0  0  0  0  0  0  0
   45.1950   34.5650   36.4470 H   0  0  0  0  0  0  0  0  0  0  0  0
   43.6250   32.9280   38.2440 C   0  0  0  0  0  0  0  0  0  0  0  0
   42.7690   32.0130   37.7040 N   0  0  0  0  0  0  0  0  0  0  0  0
   41.5280   31.7920   38.0830 C   0  0  0  0  0  3  0  0  0  0  0  0
   40.9520   32.4690   39.0810 N   0  0  0  0  0  0  0  0  0  0  0  0
   41.6990   33.4080   39.6990 C   0  0  0  0  0  0  0  0  0  0  0  0
   41.1670   34.1340   40.7260 C   0  0  0  0  0  3  0  0  0  0  0  0
   41.9120   35.1160   41.3830 C   0  0  0  0  0  3  0  0  0  0  0  0
   43.2220   35.3120   40.9340 C   0  0  0  0  0  3  0  0  0  0  0  0
   43.6660   34.5350   39.8990 C   0  0  0  0  0  3  0  0  0  0  0  0
   42.9780   33.5800   39.2450 C   0  0  0  0  0  0  0  0  0  0  0  0
  1  2  1  0  0  0  0
  3  2  2  0  0  0  0
  3  7  1  0  0  0  0
  4  3  1  0  0  0  0
  5  6  1  0  0  0  0
  5  4  2  0  0  0  0
  6  1  2  0  0  0  0
  7  8  1  0  0  0  0
  8  9  1  0  0  0  0
  9 10  2  0  0  0  0
  9 18  1  0  0  0  0
 10 11  1  0  0  0  0
 11 12  2  0  0  0  0
 12 13  1  0  0  0  0
 13 14  1  0  0  0  0
 15 14  2  0  0  0  0
 16 15  1  0  0  0  0
 17 18  1  0  0  0  0
 17 16  2  0  0  0  0
 18 13  2  0  0  0  0
 19  5  1  0  0  0  0
 20 24  1  0  0  0  0
 21 20  1  0  0  0  0
 21 22  2  0  0  0  0
 22 19  1  0  0  0  0
 22 23  1  0  0  0  0
 24 23  2  0  0  0  0
 24 26  1  0  0  0  0
 25 20  1  0  0  0  0
 26 35  1  0  0  0  0
 27 28  1  0  0  0  0
 27 26  2  0  0  0  0
 28 29  2  0  0  0  0
 29 30  1  0  0  0  0
 30 31  1  0  0  0  0
 31 32  2  0  0  0  0
 33 32  1  0  0  0  0
 34 33  2  0  0  0  0
 35 30  2  0  0  0  0
 35 34  1  0  0  0  0
M  END
>  <minimizedAffinity>
-7.27852821

$$$$

 OpenBabel03242510183D

 35 40  0  0  0  0  0  0  0  0999 V2000
   48.4670   34.1240   37.1130 C   0  0  0  0  0  3  0  0  0  0  0  0
   48.5040   34.6950   38.4040 C   0  0  0  0  0  3  0  0  0  0  0  0
   47.8680   34.0680   39.4240 C   0  0  0  0  0  0  0  0  0  0  0  0
   47.2210   32.9060   39.1460 N   0  0  0  0  0  0  0  0  0  0  0  0
   47.1880   32.3680   37.9180 C   0  0  0  0  0  0  0  0  0  0  0  0
   47.8010   32.9720   36.9270 N   0  0  0  0  0  0  0  0  0  0  0  0
   47.9420   34.7080   40.7460 C   0  0  0  0  0  2  0  0  0  0  0  0
   47.6720   33.8640   41.9070 C   0  0  0  0  0  2  0  0  0  0  0  0
   46.7220   34.2740   42.9290 C   0  0  0  0  0  0  0  0  0  0  0  0
   46.0330   35.3750   42.5110 N   0  0  0  0  0  0  0  0  0  0  0  0
   45.1110   35.9830   43.2910 C   0  0  0  0  0  3  0  0  0  0  0  0
   44.8500   35.4960   44.5250 N   0  0  0  0  0  0  0  0  0  0  0  0
   45.4800   34.4160   45.0140 C   0  0  0  0  0  0  0  0  0  0  0  0
   45.2370   33.8520   46.2740 C   0  0  0  0  0  3  0  0  0  0  0  0
   45.9830   32.7290   46.5660 C   0  0  0  0  0  3  0  0  0  0  0  0
   46.9240   32.1060   45.7760 C   0  0  0  0  0  3  0  0  0  0  0  0
   47.1140   32.7070   44.5550 C   0  0  0  0  0  3  0  0  0  0  0  0
   46.4080   33.8290   44.1950 C   0  0  0  0  0  0  0  0  0  0  0  0
   46.3050   30.8370   37.6000 S   0  0  0  0  0  0  0  0  0  0  0  0
   42.4520   31.5500   37.1240 N   0  0  0  0  0  0  0  0  0  0  0  0
   43.5970   31.2090   36.5920 N   0  0  0  0  0  0  0  0  0  0  0  0
   44.5340   31.1620   37.5780 C   0  0  0  0  0  0  0  0  0  0  0  0
   43.8350   31.5010   38.7310 C   0  0  0  0  0  3  0  0  0  0  0  0
   42.4840   31.7480   38.4010 C   0  0  0  0  0  0  0  0  0  0  0  0
   41.5910   31.6530   36.5690 H   0  0  0  0  0  0  0  0  0  0  0  0
   41.5920   32.1610   39.4180 C   0  0  0  0  0  0  0  0  0  0  0  0
   41.0890   31.2400   40.2900 N   0  0  0  0  0  0  0  0  0  0  0  0
   40.2850   31.4880   41.3020 C   0  0  0  0  0  3  0  0  0  0  0  0
   39.8610   32.7210   41.5960 N   0  0  0  0  0  0  0  0  0  0  0  0
   40.2900   33.7250   40.8030 C   0  0  0  0  0  0  0  0  0  0  0  0
   39.8930   35.0070   41.0520 C   0  0  0  0  0  3  0  0  0  0  0  0
   40.3170   36.0680   40.2470 C   0  0  0  0  0  3  0  0  0  0  0  0
   41.1640   35.7450   39.1830 C   0  0  0  0  0  3  0  0  0  0  0  0
   41.5080   34.4310   39.0150 C   0  0  0  0  0  3  0  0  0  0  0  0
   41.1220   33.3860   39.7700 C   0  0  0  0  0  0  0  0  0  0  0  0
  1  2  1  0  0  0  0
  2  3  2  0  0  0  0
  3  7  1  0  0  0  0
  4  3  1  0  0  0  0
  5  4  2  0  0  0  0
  6  1  2  0  0  0  0
  6  5  1  0  0  0  0
  7  8  1  0  0  0  0
  8  9  1  0  0  0  0
  9 18  1  0  0  0  0
 10  9  2  0  0  0  0
 10 11  1  0  0  0  0
 11 12  2  0  0  0  0
 12 13  1  0  0  0  0
 13 14  1  0  0  0  0
 14 15  2  0  0  0  0
 16 15  1  0  0  0  0
 17 16  2  0  0  0  0
 18 17  1  0  0  0  0
 18 13  2  0  0  0  0
 19  5  1  0  0  0  0
 20 24  1  0  0  0  0
 21 20  1  0  0  0  0
 21 22  2  0  0  0  0
 22 19  1  0  0  0  0
 22 23  1  0  0  0  0
 24 23  2  0  0  0  0
 24 26  1  0  0  0  0
 25 20  1  0  0  0  0
 26 35  2  0  0  0  0
 26 27  1  0  0  0  0
 27 28  2  0  0  0  0
 28 29  1  0  0  0  0
 30 31  1  0  0  0  0
 30 29  2  0  0  0  0
 32 31  2  0  0  0  0
 33 32  1  0  0  0  0
 34 33  2  0  0  0  0
 34 35  1  0  0  0  0
 35 30  1  0  0  0  0
M  END
>  <minimizedAffinity>
-7.19552326

$$$$

 OpenBabel03242510183D

 35 40  0  0  0  0  0  0  0  0999 V2000
   48.6260   33.6110   36.4600 C   0  0  0  0  0  3  0  0  0  0  0  0
   48.6690   34.2590   37.7140 C   0  0  0  0  0  3  0  0  0  0  0  0
   47.8830   33.8060   38.7210 C   0  0  0  0  0  0  0  0  0  0  0  0
   47.0850   32.7370   38.4670 N   0  0  0  0  0  0  0  0  0  0  0  0
   47.0460   32.1250   37.2740 C   0  0  0  0  0  0  0  0  0  0  0  0
   47.8050   32.5600   36.2950 N   0  0  0  0  0  0  0  0  0  0  0  0
   47.9710   34.5190   40.0050 C   0  0  0  0  0  2  0  0  0  0  0  0
   46.7820   34.5050   40.8530 C   0  0  0  0  0  2  0  0  0  0  0  0
   46.8230   33.9460   42.1950 C   0  0  0  0  0  0  0  0  0  0  0  0
   47.6860   32.8890   42.2340 N   0  0  0  0  0  0  0  0  0  0  0  0
   47.8830   32.1650   43.3590 C   0  0  0  0  0  3  0  0  0  0  0  0
   47.2150   32.4850   44.4890 N   0  0  0  0  0  0  0  0  0  0  0  0
   46.3480   33.5090   44.5390 C   0  0  0  0  0  0  0  0  0  0  0  0
   45.6420   33.9030   45.6850 C   0  0  0  0  0  3  0  0  0  0  0  0
   44.8200   34.9990   45.5170 C   0  0  0  0  0  3  0  0  0  0  0  0
   44.6150   35.7390   44.3740 C   0  0  0  0  0  3  0  0  0  0  0  0
   45.3360   35.3030   43.2890 C   0  0  0  0  0  3  0  0  0  0  0  0
   46.1740   34.2180   43.3790 C   0  0  0  0  0  0  0  0  0  0  0  0
   45.9620   30.7240   36.9840 S   0  0  0  0  0  0  0  0  0  0  0  0
   42.7890   30.6750   39.3330 N   0  0  0  0  0  0  0  0  0  0  0  0
   43.8880   30.0900   38.9300 N   0  0  0  0  0  0  0  0  0  0  0  0
   44.4870   30.8880   38.0040 C   0  0  0  0  0  0  0  0  0  0  0  0
   43.6450   31.9900   37.9060 C   0  0  0  0  0  3  0  0  0  0  0  0
   42.5500   31.8190   38.7830 C   0  0  0  0  0  0  0  0  0  0  0  0
   42.1630   30.2560   40.0350 H   0  0  0  0  0  0  0  0  0  0  0  0
   41.5330   32.8010   38.8120 C   0  0  0  0  0  0  0  0  0  0  0  0
   40.4880   32.7190   37.9380 N   0  0  0  0  0  0  0  0  0  0  0  0
   39.4590   33.5360   37.8780 C   0  0  0  0  0  3  0  0  0  0  0  0
   39.3220   34.5770   38.7050 N   0  0  0  0  0  0  0  0  0  0  0  0
   40.2950   34.7690   39.6200 C   0  0  0  0  0  0  0  0  0  0  0  0
   40.2120   35.8160   40.4930 C   0  0  0  0  0  3  0  0  0  0  0  0
   41.2050   36.0430   41.4500 C   0  0  0  0  0  3  0  0  0  0  0  0
   42.2780   35.1470   41.4620 C   0  0  0  0  0  3  0  0  0  0  0  0
   42.2720   34.1290   40.5480 C   0  0  0  0  0  3  0  0  0  0  0  0
   41.3330   33.8780   39.6170 C   0  0  0  0  0  0  0  0  0  0  0  0
  1  2  1  0  0  0  0
  2  3  2  0  0  0  0
  3  7  1  0  0  0  0
  4  3  1  0  0  0  0
  5  4  2  0  0  0  0
  6  1  2  0  0  0  0
  6  5  1  0  0  0  0
  7  8  1  0  0  0  0
  8  9  1  0  0  0  0
  9 10  2  0  0  0  0
  9 18  1  0  0  0  0
 10 11  1  0  0  0  0
 11 12  2  0  0  0  0
 12 13  1  0  0  0  0
 13 14  1  0  0  0  0
 15 14  2  0  0  0  0
 16 15  1  0  0  0  0
 17 18  1  0  0  0  0
 17 16  2  0  0  0  0
 18 13  2  0  0  0  0
 19  5  1  0  0  0  0
 19 22  1  0  0  0  0
 20 25  1  0  0  0  0
 21 20  1  0  0  0  0
 22 21  2  0  0  0  0
 23 22  1  0  0  0  0
 23 24  2  0  0  0  0
 24 26  1  0  0  0  0
 24 20  1  0  0  0  0
 26 35  1  0  0  0  0
 27 26  2  0  0  0  0
 28 27  1  0  0  0  0
 28 29  2  0  0  0  0
 29 30  1  0  0  0  0
 30 31  1  0  0  0  0
 31 32  2  0  0  0  0
 32 33  1  0  0  0  0
 34 33  2  0  0  0  0
 35 30  2  0  0  0  0
 35 34  1  0  0  0  0
M  END
>  <minimizedAffinity>
-7.12367868

$$$$

 OpenBabel03242510183D

 35 40  0  0  0  0  0  0  0  0999 V2000
   50.4590   31.3600   39.5550 C   0  0  0  0  0  3  0  0  0  0  0  0
   50.1370   31.4550   40.9270 C   0  0  0  0  0  3  0  0  0  0  0  0
   49.1150   32.2570   41.3130 C   0  0  0  0  0  0  0  0  0  0  0  0
   48.4450   32.9360   40.3460 N   0  0  0  0  0  0  0  0  0  0  0  0
   48.7550   32.8440   39.0450 C   0  0  0  0  0  0  0  0  0  0  0  0
   49.7440   32.0690   38.6650 N   0  0  0  0  0  0  0  0  0  0  0  0
   48.8240   32.3140   42.7540 C   0  0  0  0  0  2  0  0  0  0  0  0
   47.4870   31.9060   43.1760 C   0  0  0  0  0  2  0  0  0  0  0  0
   46.7690   32.6370   44.2080 C   0  0  0  0  0  0  0  0  0  0  0  0
   46.8830   31.9890   45.4040 N   0  0  0  0  0  0  0  0  0  0  0  0
   46.2770   32.4400   46.5250 C   0  0  0  0  0  3  0  0  0  0  0  0
   45.5320   33.5660   46.4780 N   0  0  0  0  0  0  0  0  0  0  0  0
   45.3670   34.2670   45.3440 C   0  0  0  0  0  0  0  0  0  0  0  0
   44.6260   35.4520   45.2370 C   0  0  0  0  0  3  0  0  0  0  0  0
   44.6080   36.0190   43.9800 C   0  0  0  0  0  3  0  0  0  0  0  0
   45.2240   35.5630   42.8340 C   0  0  0  0  0  3  0  0  0  0  0  0
   45.9330   34.4000   43.0060 C   0  0  0  0  0  3  0  0  0  0  0  0
   45.9960   33.7770   44.2300 C   0  0  0  0  0  0  0  0  0  0  0  0
   47.8470   33.7750   37.8070 S   0  0  0  0  0  0  0  0  0  0  0  0
   44.1520   32.5020   37.2550 N   0  0  0  0  0  0  0  0  0  0  0  0
   45.3330   32.7490   36.7510 N   0  0  0  0  0  0  0  0  0  0  0  0
   46.1450   33.1920   37.7500 C   0  0  0  0  0  0  0  0  0  0  0  0
   45.3350   33.1770   38.8800 C   0  0  0  0  0  3  0  0  0  0  0  0
   44.0450   32.7240   38.5230 C   0  0  0  0  0  0  0  0  0  0  0  0
   43.3670   32.1560   36.6850 H   0  0  0  0  0  0  0  0  0  0  0  0
   43.0360   32.6760   39.5120 C   0  0  0  0  0  0  0  0  0  0  0  0
   43.0070   31.6400   40.3990 N   0  0  0  0  0  0  0  0  0  0  0  0
   42.1530   31.4880   41.3890 C   0  0  0  0  0  3  0  0  0  0  0  0
   41.1840   32.3730   41.6420 N   0  0  0  0  0  0  0  0  0  0  0  0
   41.1060   33.4490   40.8310 C   0  0  0  0  0  0  0  0  0  0  0  0
   40.1380   34.3890   41.0380 C   0  0  0  0  0  3  0  0  0  0  0  0
   40.0280   35.5120   40.2130 C   0  0  0  0  0  3  0  0  0  0  0  0
   40.9570   35.6170   39.1740 C   0  0  0  0  0  3  0  0  0  0  0  0
   41.8910   34.6250   39.0470 C   0  0  0  0  0  3  0  0  0  0  0  0
   42.0280   33.5330   39.8230 C   0  0  0  0  0  0  0  0  0  0  0  0
  1  2  1  0  0  0  0
  2  3  2  0  0  0  0
  3  7  1  0  0  0  0
  4  3  1  0  0  0  0
  5  4  2  0  0  0  0
  6  5  1  0  0  0  0
  6  1  2  0  0  0  0
  7  8  1  0  0  0  0
  8  9  1  0  0  0  0
  9 18  2  0  0  0  0
  9 10  1  0  0  0  0
 10 11  2  0  0  0  0
 12 11  1  0  0  0  0
 13 12  2  0  0  0  0
 14 13  1  0  0  0  0
 15 14  2  0  0  0  0
 16 17  2  0  0  0  0
 16 15  1  0  0  0  0
 17 18  1  0  0  0  0
 18 13  1  0  0  0  0
 19  5  1  0  0  0  0
 20 24  1  0  0  0  0
 21 20  1  0  0  0  0
 21 22  2  0  0  0  0
 22 19  1  0  0  0  0
 22 23  1  0  0  0  0
 24 23  2  0  0  0  0
 24 26  1  0  0  0  0
 25 20  1  0  0  0  0
 26 35  2  0  0  0  0
 26 27  1  0  0  0  0
 27 28  2  0  0  0  0
 28 29  1  0  0  0  0
 30 31  1  0  0  0  0
 30 29  2  0  0  0  0
 32 31  2  0  0  0  0
 33 32  1  0  0  0  0
 34 33  2  0  0  0  0
 34 35  1  0  0  0  0
 35 30  1  0  0  0  0
M  END
>  <minimizedAffinity>
-7.06432009

$$$$

 OpenBabel03242510183D

 35 40  0  0  0  0  0  0  0  0999 V2000
   48.0080   34.0070   38.1690 C   0  0  0  0  0  3  0  0  0  0  0  0
   46.8510   33.2290   37.9470 C   0  0  0  0  0  3  0  0  0  0  0  0
   45.9930   33.0070   38.9730 C   0  0  0  0  0  0  0  0  0  0  0  0
   46.2970   33.5550   40.1780 N   0  0  0  0  0  0  0  0  0  0  0  0
   47.3980   34.2920   40.3860 C   0  0  0  0  0  0  0  0  0  0  0  0
   48.2320   34.5090   39.3950 N   0  0  0  0  0  0  0  0  0  0  0  0
   44.8040   32.1920   38.6810 C   0  0  0  0  0  2  0  0  0  0  0  0
   43.7470   32.1790   39.6890 C   0  0  0  0  0  2  0  0  0  0  0  0
   42.4140   32.6740   39.3860 C   0  0  0  0  0  0  0  0  0  0  0  0
   41.8230   31.8800   38.4460 N   0  0  0  0  0  0  0  0  0  0  0  0
   40.5900   32.1410   37.9580 C   0  0  0  0  0  3  0  0  0  0  0  0
   39.9050   33.2170   38.4060 N   0  0  0  0  0  0  0  0  0  0  0  0
   40.4110   34.0510   39.3290 C   0  0  0  0  0  0  0  0  0  0  0  0
   39.7420   35.1680   39.8480 C   0  0  0  0  0  3  0  0  0  0  0  0
   40.4400   35.8750   40.8070 C   0  0  0  0  0  3  0  0  0  0  0  0
   41.6960   35.6130   41.3060 C   0  0  0  0  0  3  0  0  0  0  0  0
   42.2960   34.5050   40.7590 C   0  0  0  0  0  3  0  0  0  0  0  0
   41.6630   33.7540   39.7980 C   0  0  0  0  0  0  0  0  0  0  0  0
   47.7620   34.9800   42.0040 S   0  0  0  0  0  0  0  0  0  0  0  0
   45.0620   33.6410   44.5520 N   0  0  0  0  0  0  0  0  0  0  0  0
   45.3400   34.3730   43.5050 N   0  0  0  0  0  0  0  0  0  0  0  0
   46.6670   34.2430   43.2280 C   0  0  0  0  0  0  0  0  0  0  0  0
   47.1360   33.3690   44.2020 C   0  0  0  0  0  3  0  0  0  0  0  0
   46.0670   32.9970   45.0480 C   0  0  0  0  0  0  0  0  0  0  0  0
   44.1150   33.5820   44.9530 H   0  0  0  0  0  0  0  0  0  0  0  0
   46.3250   32.1470   46.1480 C   0  0  0  0  0  0  0  0  0  0  0  0
   46.9080   32.6550   47.2730 N   0  0  0  0  0  0  0  0  0  0  0  0
   47.1700   31.9930   48.3790 C   0  0  0  0  0  3  0  0  0  0  0  0
   46.8780   30.6960   48.5240 N   0  0  0  0  0  0  0  0  0  0  0  0
   46.2960   30.0750   47.4770 C   0  0  0  0  0  0  0  0  0  0  0  0
   45.9730   28.7520   47.5630 C   0  0  0  0  0  3  0  0  0  0  0  0
   45.3740   28.0790   46.4950 C   0  0  0  0  0  3  0  0  0  0  0  0
   45.1260   28.8310   45.3440 C   0  0  0  0  0  3  0  0  0  0  0  0
   45.4840   30.1520   45.3520 C   0  0  0  0  0  3  0  0  0  0  0  0
   46.0590   30.8320   46.3620 C   0  0  0  0  0  0  0  0  0  0  0  0
  1  6  1  0  0  0  0
  2  1  2  0  0  0  0
  2  3  1  0  0  0  0
  3  4  2  0  0  0  0
  4  5  1  0  0  0  0
  5 19  1  0  0  0  0
  6  5  2  0  0  0  0
  7  3  1  0  0  0  0
  7  8  1  0  0  0  0
  9  8  1  0  0  0  0
  9 18  1  0  0  0  0
 10  9  2  0  0  0  0
 11 12  2  0  0  0  0
 11 10  1  0  0  0  0
 12 13  1  0  0  0  0
 13 18  2  0  0  0  0
 13 14  1  0  0  0  0
 14 15  2  0  0  0  0
 15 16  1  0  0  0  0
 17 16  2  0  0  0  0
 18 17  1  0  0  0  0
 19 22  1  0  0  0  0
 20 25  1  0  0  0  0
 20 24  1  0  0  0  0
 21 20  1  0  0  0  0
 22 21  2  0  0  0  0
 22 23  1  0  0  0  0
 23 24  2  0  0  0  0
 24 26  1  0  0  0  0
 26 35  2  0  0  0  0
 26 27  1  0  0  0  0
 27 28  2  0  0  0  0
 28 29  1  0  0  0  0
 30 31  1  0  0  0  0
 30 29  2  0  0  0  0
 32 31  2  0  0  0  0
 33 34  2  0  0  0  0
 33 32  1  0  0  0  0
 34 35  1  0  0  0  0
 35 30  1  0  0  0  0
M  END
>  <minimizedAffinity>
-7.02759171

$$$$
