
 OpenBabel03242510053D

 28 32  0  0  0  0  0  0  0  0999 V2000
   44.4120   34.6700   42.7770 C   0  0  0  0  0  0  0  0  0  0  0  0
   44.1870   35.8350   43.5070 C   0  0  0  0  0  3  0  0  0  0  0  0
   44.5720   36.0010   44.8270 C   0  0  0  0  0  3  0  0  0  0  0  0
   45.2010   34.9260   45.3860 N   0  0  0  0  0  0  0  0  0  0  0  0
   45.4340   33.8040   44.7280 C   0  0  0  0  0  0  0  0  0  0  0  0
   45.0350   33.7280   43.4710 N   0  0  0  0  0  0  0  0  0  0  0  0
   44.0630   34.3240   41.4510 C   0  0  0  0  0  0  0  0  0  0  0  0
   45.0290   33.5570   40.7540 C   0  0  0  0  0  3  0  0  0  0  0  0
   44.8760   33.1100   39.4540 C   0  0  0  0  0  3  0  0  0  0  0  0
   43.6990   33.4290   38.7730 C   0  0  0  0  0  3  0  0  0  0  0  0
   42.7290   34.1730   39.4110 C   0  0  0  0  0  0  0  0  0  0  0  0
   41.5660   34.4980   38.7490 C   0  0  0  0  0  3  0  0  0  0  0  0
   40.5650   35.2460   39.3330 C   0  0  0  0  0  3  0  0  0  0  0  0
   40.8180   35.6480   40.6450 C   0  0  0  0  0  3  0  0  0  0  0  0
   41.9800   35.3090   41.2710 C   0  0  0  0  0  3  0  0  0  0  0  0
   42.9640   34.5760   40.7030 C   0  0  0  0  0  0  0  0  0  0  0  0
   46.1170   32.7200   45.4290 C   0  0  0  0  0  0  0  0  0  0  0  0
   47.2200   32.2660   45.0070 O   0  0  0  0  0  0  0  0  0  0  0  0
   45.8110   31.9510   46.6100 C   0  0  0  0  0  0  0  0  0  0  0  0
   45.8940   32.5470   47.8800 C   0  0  0  0  0  3  0  0  0  0  0  0
   45.6970   31.9360   49.1030 C   0  0  0  0  0  3  0  0  0  0  0  0
   45.3860   30.6010   49.0550 C   0  0  0  0  0  3  0  0  0  0  0  0
   45.2760   29.9120   47.8720 C   0  0  0  0  0  0  0  0  0  0  0  0
   44.9470   28.5740   47.8200 C   0  0  0  0  0  3  0  0  0  0  0  0
   44.8140   27.8740   46.6150 C   0  0  0  0  0  3  0  0  0  0  0  0
   45.0310   28.5940   45.4410 C   0  0  0  0  0  3  0  0  0  0  0  0
   45.3590   29.9240   45.5310 C   0  0  0  0  0  3  0  0  0  0  0  0
   45.4920   30.6160   46.7140 C   0  0  0  0  0  0  0  0  0  0  0  0
  1  6  2  0  0  0  0
  1  2  1  0  0  0  0
  2  3  2  0  0  0  0
  3  4  1  0  0  0  0
  5  4  2  0  0  0  0
  5 17  1  0  0  0  0
  6  5  1  0  0  0  0
  7  1  1  0  0  0  0
  8  7  1  0  0  0  0
  9  8  2  0  0  0  0
 10 11  2  0  0  0  0
 10  9  1  0  0  0  0
 11 16  1  0  0  0  0
 12 13  2  0  0  0  0
 12 11  1  0  0  0  0
 13 14  1  0  0  0  0
 14 15  2  0  0  0  0
 16 15  1  0  0  0  0
 16  7  2  0  0  0  0
 17 19  1  0  0  0  0
 18 17  2  0  0  0  0
 19 28  2  0  0  0  0
 19 20  1  0  0  0  0
 20 21  2  0  0  0  0
 22 21  1  0  0  0  0
 23 22  2  0  0  0  0
 24 23  1  0  0  0  0
 25 24  2  0  0  0  0
 26 27  2  0  0  0  0
 26 25  1  0  0  0  0
 27 28  1  0  0  0  0
 28 23  1  0  0  0  0
M  END
>  <minimizedAffinity>
-7.51710939

$$$$

 OpenBabel03242510053D

 28 32  0  0  0  0  0  0  0  0999 V2000
   44.1110   33.4920   38.9470 C   0  0  0  0  0  0  0  0  0  0  0  0
   45.0400   32.7300   38.2430 C   0  0  0  0  0  3  0  0  0  0  0  0
   46.3510   32.5450   38.6510 C   0  0  0  0  0  3  0  0  0  0  0  0
   46.6870   33.1720   39.8170 N   0  0  0  0  0  0  0  0  0  0  0  0
   45.8350   33.9030   40.5150 C   0  0  0  0  0  0  0  0  0  0  0  0
   44.6020   34.0270   40.0560 N   0  0  0  0  0  0  0  0  0  0  0  0
   42.7610   33.8060   38.6610 C   0  0  0  0  0  0  0  0  0  0  0  0
   42.4980   35.1800   38.4320 C   0  0  0  0  0  3  0  0  0  0  0  0
   41.2500   35.6920   38.1280 C   0  0  0  0  0  3  0  0  0  0  0  0
   40.1720   34.8090   38.0380 C   0  0  0  0  0  3  0  0  0  0  0  0
   40.3790   33.4630   38.2510 C   0  0  0  0  0  0  0  0  0  0  0  0
   39.3230   32.5830   38.1690 C   0  0  0  0  0  3  0  0  0  0  0  0
   39.4690   31.2280   38.3800 C   0  0  0  0  0  3  0  0  0  0  0  0
   40.7680   30.8140   38.6810 C   0  0  0  0  0  3  0  0  0  0  0  0
   41.7900   31.7120   38.7540 C   0  0  0  0  0  3  0  0  0  0  0  0
   41.6520   33.0410   38.5490 C   0  0  0  0  0  0  0  0  0  0  0  0
   46.3060   34.5250   41.7480 C   0  0  0  0  0  0  0  0  0  0  0  0
   47.3980   35.1640   41.7790 O   0  0  0  0  0  0  0  0  0  0  0  0
   45.7820   34.5970   43.0910 C   0  0  0  0  0  0  0  0  0  0  0  0
   44.9430   35.6610   43.4630 C   0  0  0  0  0  3  0  0  0  0  0  0
   44.4130   35.9070   44.7140 C   0  0  0  0  0  3  0  0  0  0  0  0
   44.7530   35.0040   45.6890 C   0  0  0  0  0  3  0  0  0  0  0  0
   45.5650   33.9250   45.4440 C   0  0  0  0  0  0  0  0  0  0  0  0
   45.8940   33.0060   46.4170 C   0  0  0  0  0  3  0  0  0  0  0  0
   46.7050   31.8930   46.1660 C   0  0  0  0  0  3  0  0  0  0  0  0
   47.1800   31.7430   44.8630 C   0  0  0  0  0  3  0  0  0  0  0  0
   46.8320   32.6770   43.9190 C   0  0  0  0  0  3  0  0  0  0  0  0
   46.0370   33.7740   44.1640 C   0  0  0  0  0  0  0  0  0  0  0  0
  1  6  1  0  0  0  0
  2  3  1  0  0  0  0
  2  1  2  0  0  0  0
  3  4  2  0  0  0  0
  4  5  1  0  0  0  0
  5 17  1  0  0  0  0
  6  5  2  0  0  0  0
  7  1  1  0  0  0  0
  8  7  2  0  0  0  0
  9  8  1  0  0  0  0
 10  9  2  0  0  0  0
 10 11  1  0  0  0  0
 11 16  1  0  0  0  0
 12 11  2  0  0  0  0
 12 13  1  0  0  0  0
 13 14  2  0  0  0  0
 14 15  1  0  0  0  0
 16  7  1  0  0  0  0
 16 15  2  0  0  0  0
 17 18  2  0  0  0  0
 17 19  1  0  0  0  0
 19 20  2  0  0  0  0
 19 28  1  0  0  0  0
 20 21  1  0  0  0  0
 21 22  2  0  0  0  0
 23 22  1  0  0  0  0
 23 24  1  0  0  0  0
 25 24  2  0  0  0  0
 26 25  1  0  0  0  0
 27 28  1  0  0  0  0
 27 26  2  0  0  0  0
 28 23  2  0  0  0  0
M  END
>  <minimizedAffinity>
-7.40131044

$$$$

 OpenBabel03242510053D

 28 32  0  0  0  0  0  0  0  0999 V2000
   46.5090   32.4490   46.2640 C   0  0  0  0  0  0  0  0  0  0  0  0
   47.0440   32.5620   47.5450 C   0  0  0  0  0  3  0  0  0  0  0  0
   47.2600   31.4830   48.3860 C   0  0  0  0  0  3  0  0  0  0  0  0
   46.9060   30.2680   47.8720 N   0  0  0  0  0  0  0  0  0  0  0  0
   46.3960   30.1180   46.6620 C   0  0  0  0  0  0  0  0  0  0  0  0
   46.2240   31.2000   45.9230 N   0  0  0  0  0  0  0  0  0  0  0  0
   46.1970   33.4340   45.2990 C   0  0  0  0  0  0  0  0  0  0  0  0
   45.1300   34.3000   45.6440 C   0  0  0  0  0  3  0  0  0  0  0  0
   44.6780   35.3340   44.8450 C   0  0  0  0  0  3  0  0  0  0  0  0
   45.3040   35.5480   43.6150 C   0  0  0  0  0  3  0  0  0  0  0  0
   46.3480   34.7320   43.2360 C   0  0  0  0  0  0  0  0  0  0  0  0
   46.9710   34.9300   42.0240 C   0  0  0  0  0  3  0  0  0  0  0  0
   48.0140   34.1410   41.5890 C   0  0  0  0  0  3  0  0  0  0  0  0
   48.3940   33.1260   42.4690 C   0  0  0  0  0  3  0  0  0  0  0  0
   47.7550   32.9580   43.6610 C   0  0  0  0  0  3  0  0  0  0  0  0
   46.7330   33.7290   44.0920 C   0  0  0  0  0  0  0  0  0  0  0  0
   46.0570   28.7700   46.2170 C   0  0  0  0  0  0  0  0  0  0  0  0
   46.5730   28.2800   45.1710 O   0  0  0  0  0  0  0  0  0  0  0  0
   45.1790   27.7450   46.7270 C   0  0  0  0  0  0  0  0  0  0  0  0
   45.6570   26.8080   47.6580 C   0  0  0  0  0  3  0  0  0  0  0  0
   44.9680   25.7360   48.1920 C   0  0  0  0  0  3  0  0  0  0  0  0
   43.6770   25.5840   47.7540 C   0  0  0  0  0  3  0  0  0  0  0  0
   43.1020   26.4380   46.8460 C   0  0  0  0  0  0  0  0  0  0  0  0
   41.7990   26.2990   46.4170 C   0  0  0  0  0  3  0  0  0  0  0  0
   41.2030   27.1800   45.5070 C   0  0  0  0  0  3  0  0  0  0  0  0
   41.9920   28.2300   45.0390 C   0  0  0  0  0  3  0  0  0  0  0  0
   43.2850   28.3370   45.4870 C   0  0  0  0  0  3  0  0  0  0  0  0
   43.8750   27.4720   46.3790 C   0  0  0  0  0  0  0  0  0  0  0  0
  1  2  1  0  0  0  0
  2  3  2  0  0  0  0
  4  3  1  0  0  0  0
  5  4  2  0  0  0  0
  6  1  2  0  0  0  0
  6  5  1  0  0  0  0
  7  8  1  0  0  0  0
  7  1  1  0  0  0  0
  9  8  2  0  0  0  0
 10  9  1  0  0  0  0
 11 10  2  0  0  0  0
 11 16  1  0  0  0  0
 12 11  1  0  0  0  0
 13 12  2  0  0  0  0
 13 14  1  0  0  0  0
 14 15  2  0  0  0  0
 15 16  1  0  0  0  0
 16  7  2  0  0  0  0
 17  5  1  0  0  0  0
 17 19  1  0  0  0  0
 18 17  2  0  0  0  0
 19 20  1  0  0  0  0
 20 21  2  0  0  0  0
 22 21  1  0  0  0  0
 23 22  2  0  0  0  0
 24 23  1  0  0  0  0
 25 24  2  0  0  0  0
 26 27  2  0  0  0  0
 26 25  1  0  0  0  0
 27 28  1  0  0  0  0
 28 19  2  0  0  0  0
 28 23  1  0  0  0  0
M  END
>  <minimizedAffinity>
-7.39024734

$$$$

 OpenBabel03242510053D

 28 32  0  0  0  0  0  0  0  0999 V2000
   45.0150   33.0710   39.0210 C   0  0  0  0  0  0  0  0  0  0  0  0
   46.0770   32.9930   38.1230 C   0  0  0  0  0  3  0  0  0  0  0  0
   47.3520   33.4590   38.3980 C   0  0  0  0  0  3  0  0  0  0  0  0
   47.5110   34.0140   39.6350 N   0  0  0  0  0  0  0  0  0  0  0  0
   46.5300   34.1050   40.5170 C   0  0  0  0  0  0  0  0  0  0  0  0
   45.3430   33.6350   40.1740 N   0  0  0  0  0  0  0  0  0  0  0  0
   43.6620   32.6790   38.8930 C   0  0  0  0  0  0  0  0  0  0  0  0
   43.4110   31.3000   39.1030 C   0  0  0  0  0  3  0  0  0  0  0  0
   42.1590   30.7190   39.0340 C   0  0  0  0  0  3  0  0  0  0  0  0
   41.0620   31.5320   38.7390 C   0  0  0  0  0  3  0  0  0  0  0  0
   41.2560   32.8800   38.5270 C   0  0  0  0  0  0  0  0  0  0  0  0
   40.1830   33.6910   38.2310 C   0  0  0  0  0  3  0  0  0  0  0  0
   40.3180   35.0440   38.0020 C   0  0  0  0  0  3  0  0  0  0  0  0
   41.6230   35.5310   38.0940 C   0  0  0  0  0  3  0  0  0  0  0  0
   42.6620   34.7000   38.3890 C   0  0  0  0  0  3  0  0  0  0  0  0
   42.5350   33.3740   38.6150 C   0  0  0  0  0  0  0  0  0  0  0  0
   46.8170   34.7170   41.8100 C   0  0  0  0  0  0  0  0  0  0  0  0
   47.8720   35.3910   41.9920 O   0  0  0  0  0  0  0  0  0  0  0  0
   46.1220   34.7460   43.0740 C   0  0  0  0  0  0  0  0  0  0  0  0
   45.2340   35.7940   43.3670 C   0  0  0  0  0  3  0  0  0  0  0  0
   44.5440   36.0000   44.5450 C   0  0  0  0  0  3  0  0  0  0  0  0
   44.7610   35.0670   45.5280 C   0  0  0  0  0  3  0  0  0  0  0  0
   45.6050   33.9980   45.3570 C   0  0  0  0  0  0  0  0  0  0  0  0
   45.8110   33.0500   46.3360 C   0  0  0  0  0  3  0  0  0  0  0  0
   46.6560   31.9480   46.1570 C   0  0  0  0  0  3  0  0  0  0  0  0
   47.2970   31.8400   44.9230 C   0  0  0  0  0  3  0  0  0  0  0  0
   47.0690   32.8030   43.9720 C   0  0  0  0  0  3  0  0  0  0  0  0
   46.2410   33.8890   44.1450 C   0  0  0  0  0  0  0  0  0  0  0  0
  1  6  1  0  0  0  0
  2  3  1  0  0  0  0
  2  1  2  0  0  0  0
  3  4  2  0  0  0  0
  4  5  1  0  0  0  0
  5 17  1  0  0  0  0
  6  5  2  0  0  0  0
  7  1  1  0  0  0  0
  7  8  1  0  0  0  0
  9  8  2  0  0  0  0
 10  9  1  0  0  0  0
 11 16  1  0  0  0  0
 11 10  2  0  0  0  0
 12 11  1  0  0  0  0
 13 14  1  0  0  0  0
 13 12  2  0  0  0  0
 14 15  2  0  0  0  0
 15 16  1  0  0  0  0
 16  7  2  0  0  0  0
 17 18  2  0  0  0  0
 17 19  1  0  0  0  0
 19 20  2  0  0  0  0
 19 28  1  0  0  0  0
 20 21  1  0  0  0  0
 21 22  2  0  0  0  0
 23 22  1  0  0  0  0
 23 24  1  0  0  0  0
 25 24  2  0  0  0  0
 26 25  1  0  0  0  0
 27 28  1  0  0  0  0
 27 26  2  0  0  0  0
 28 23  2  0  0  0  0
M  END
>  <minimizedAffinity>
-7.36975861

$$$$

 OpenBabel03242510053D

 28 32  0  0  0  0  0  0  0  0999 V2000
   47.3060   33.5880   39.3590 C   0  0  0  0  0  0  0  0  0  0  0  0
   47.4110   33.6240   37.9710 C   0  0  0  0  0  3  0  0  0  0  0  0
   46.3790   33.2820   37.1130 C   0  0  0  0  0  3  0  0  0  0  0  0
   45.2210   32.8970   37.7250 N   0  0  0  0  0  0  0  0  0  0  0  0
   45.0800   32.8500   39.0390 C   0  0  0  0  0  0  0  0  0  0  0  0
   46.1140   33.1940   39.7860 N   0  0  0  0  0  0  0  0  0  0  0  0
   48.2560   33.8700   40.3690 C   0  0  0  0  0  0  0  0  0  0  0  0
   48.2730   35.2120   40.8220 C   0  0  0  0  0  3  0  0  0  0  0  0
   49.1170   35.6890   41.8080 C   0  0  0  0  0  3  0  0  0  0  0  0
   50.0160   34.8010   42.4020 C   0  0  0  0  0  3  0  0  0  0  0  0
   50.0360   33.4840   41.9940 C   0  0  0  0  0  0  0  0  0  0  0  0
   50.9210   32.5990   42.5690 C   0  0  0  0  0  3  0  0  0  0  0  0
   50.9920   31.2740   42.1960 C   0  0  0  0  0  3  0  0  0  0  0  0
   50.0980   30.8940   41.1940 C   0  0  0  0  0  3  0  0  0  0  0  0
   49.2350   31.7960   40.6460 C   0  0  0  0  0  3  0  0  0  0  0  0
   49.1620   33.0960   41.0080 C   0  0  0  0  0  0  0  0  0  0  0  0
   43.7940   32.4230   39.5820 C   0  0  0  0  0  0  0  0  0  0  0  0
   43.7340   31.6100   40.5490 O   0  0  0  0  0  0  0  0  0  0  0  0
   42.4230   32.7290   39.2510 C   0  0  0  0  0  0  0  0  0  0  0  0
   41.7230   31.9240   38.3380 C   0  0  0  0  0  3  0  0  0  0  0  0
   40.4370   32.1160   37.8720 C   0  0  0  0  0  3  0  0  0  0  0  0
   39.7860   33.2180   38.3660 C   0  0  0  0  0  3  0  0  0  0  0  0
   40.3690   34.0770   39.2650 C   0  0  0  0  0  0  0  0  0  0  0  0
   39.7120   35.1750   39.7770 C   0  0  0  0  0  3  0  0  0  0  0  0
   40.2960   36.0410   40.7090 C   0  0  0  0  0  3  0  0  0  0  0  0
   41.5980   35.7460   41.1120 C   0  0  0  0  0  3  0  0  0  0  0  0
   42.2220   34.6440   40.5810 C   0  0  0  0  0  3  0  0  0  0  0  0
   41.6520   33.7920   39.6630 C   0  0  0  0  0  0  0  0  0  0  0  0
  1  6  1  0  0  0  0
  1  7  1  0  0  0  0
  2  1  2  0  0  0  0
  3  4  2  0  0  0  0
  3  2  1  0  0  0  0
  4  5  1  0  0  0  0
  5 17  1  0  0  0  0
  5  6  2  0  0  0  0
  7  8  2  0  0  0  0
  7 16  1  0  0  0  0
  8  9  1  0  0  0  0
  9 10  2  0  0  0  0
 11 10  1  0  0  0  0
 11 12  1  0  0  0  0
 13 12  2  0  0  0  0
 14 13  1  0  0  0  0
 15 16  1  0  0  0  0
 15 14  2  0  0  0  0
 16 11  2  0  0  0  0
 17 18  2  0  0  0  0
 19 17  1  0  0  0  0
 19 28  1  0  0  0  0
 20 19  2  0  0  0  0
 21 20  1  0  0  0  0
 21 22  2  0  0  0  0
 22 23  1  0  0  0  0
 23 28  2  0  0  0  0
 23 24  1  0  0  0  0
 24 25  2  0  0  0  0
 25 26  1  0  0  0  0
 27 26  2  0  0  0  0
 28 27  1  0  0  0  0
M  END
>  <minimizedAffinity>
-7.25545216

$$$$

 OpenBabel03242510053D

 28 32  0  0  0  0  0  0  0  0999 V2000
   43.8220   33.5760   39.0280 C   0  0  0  0  0  0  0  0  0  0  0  0
   44.4010   33.0290   37.8850 C   0  0  0  0  0  3  0  0  0  0  0  0
   45.7470   32.7220   37.7780 C   0  0  0  0  0  3  0  0  0  0  0  0
   46.4940   32.9950   38.8880 N   0  0  0  0  0  0  0  0  0  0  0  0
   45.9830   33.5130   39.9920 C   0  0  0  0  0  0  0  0  0  0  0  0
   44.6880   33.7760   40.0120 N   0  0  0  0  0  0  0  0  0  0  0  0
   42.4910   33.9740   39.2930 C   0  0  0  0  0  0  0  0  0  0  0  0
   42.0770   35.1640   38.6430 C   0  0  0  0  0  3  0  0  0  0  0  0
   40.8140   35.7150   38.7620 C   0  0  0  0  0  3  0  0  0  0  0  0
   39.8780   35.0690   39.5720 C   0  0  0  0  0  3  0  0  0  0  0  0
   40.2350   33.9070   40.2240 C   0  0  0  0  0  0  0  0  0  0  0  0
   39.3220   33.2630   41.0290 C   0  0  0  0  0  3  0  0  0  0  0  0
   39.6240   32.1040   41.7120 C   0  0  0  0  0  3  0  0  0  0  0  0
   40.9240   31.6310   41.5250 C   0  0  0  0  0  3  0  0  0  0  0  0
   41.8020   32.2940   40.7210 C   0  0  0  0  0  3  0  0  0  0  0  0
   41.5110   33.4300   40.0500 C   0  0  0  0  0  0  0  0  0  0  0  0
   46.8770   33.7620   41.1170 C   0  0  0  0  0  0  0  0  0  0  0  0
   47.9510   34.4130   40.9640 O   0  0  0  0  0  0  0  0  0  0  0  0
   46.8410   33.4070   42.5160 C   0  0  0  0  0  0  0  0  0  0  0  0
   47.5460   32.2830   42.9760 C   0  0  0  0  0  3  0  0  0  0  0  0
   47.5640   31.7770   44.2610 C   0  0  0  0  0  3  0  0  0  0  0  0
   46.8030   32.4590   45.1760 C   0  0  0  0  0  3  0  0  0  0  0  0
   46.0710   33.5720   44.8430 C   0  0  0  0  0  0  0  0  0  0  0  0
   45.3200   34.2700   45.7640 C   0  0  0  0  0  3  0  0  0  0  0  0
   44.5900   35.4180   45.4320 C   0  0  0  0  0  3  0  0  0  0  0  0
   44.6510   35.8400   44.1050 C   0  0  0  0  0  3  0  0  0  0  0  0
   45.4080   35.1200   43.2150 C   0  0  0  0  0  3  0  0  0  0  0  0
   46.1260   33.9910   43.5370 C   0  0  0  0  0  0  0  0  0  0  0  0
  1  7  1  0  0  0  0
  1  6  1  0  0  0  0
  2  1  2  0  0  0  0
  3  2  1  0  0  0  0
  3  4  2  0  0  0  0
  4  5  1  0  0  0  0
  5  6  2  0  0  0  0
  5 17  1  0  0  0  0
  7 16  1  0  0  0  0
  8  9  1  0  0  0  0
  8  7  2  0  0  0  0
  9 10  2  0  0  0  0
 10 11  1  0  0  0  0
 11 12  1  0  0  0  0
 12 13  2  0  0  0  0
 14 13  1  0  0  0  0
 15 14  2  0  0  0  0
 16 11  2  0  0  0  0
 16 15  1  0  0  0  0
 17 19  1  0  0  0  0
 18 17  2  0  0  0  0
 19 20  2  0  0  0  0
 19 28  1  0  0  0  0
 20 21  1  0  0  0  0
 21 22  2  0  0  0  0
 23 22  1  0  0  0  0
 23 24  1  0  0  0  0
 25 24  2  0  0  0  0
 26 25  1  0  0  0  0
 27 28  1  0  0  0  0
 27 26  2  0  0  0  0
 28 23  2  0  0  0  0
M  END
>  <minimizedAffinity>
-7.25098276

$$$$

 OpenBabel03242510053D

 28 32  0  0  0  0  0  0  0  0999 V2000
   44.1850   34.5970   42.2720 C   0  0  0  0  0  0  0  0  0  0  0  0
   44.0490   35.6770   43.1410 C   0  0  0  0  0  3  0  0  0  0  0  0
   44.6570   35.7470   44.3830 C   0  0  0  0  0  3  0  0  0  0  0  0
   45.4200   34.6640   44.7150 N   0  0  0  0  0  0  0  0  0  0  0  0
   45.5770   33.6200   43.9190 C   0  0  0  0  0  0  0  0  0  0  0  0
   44.9620   33.6340   42.7500 N   0  0  0  0  0  0  0  0  0  0  0  0
   43.6170   34.3520   41.0010 C   0  0  0  0  0  0  0  0  0  0  0  0
   44.4510   33.6520   40.0930 C   0  0  0  0  0  3  0  0  0  0  0  0
   44.0810   33.3050   38.8070 C   0  0  0  0  0  3  0  0  0  0  0  0
   42.8060   33.6630   38.3600 C   0  0  0  0  0  3  0  0  0  0  0  0
   41.9590   34.3450   39.2080 C   0  0  0  0  0  0  0  0  0  0  0  0
   40.7020   34.7070   38.7790 C   0  0  0  0  0  3  0  0  0  0  0  0
   39.8150   35.3960   39.5790 C   0  0  0  0  0  3  0  0  0  0  0  0
   40.2860   35.6970   40.8580 C   0  0  0  0  0  3  0  0  0  0  0  0
   41.5360   35.3240   41.2510 C   0  0  0  0  0  3  0  0  0  0  0  0
   42.4090   34.6490   40.4700 C   0  0  0  0  0  0  0  0  0  0  0  0
   46.4180   32.5200   44.3790 C   0  0  0  0  0  0  0  0  0  0  0  0
   47.6710   32.5390   44.2000 O   0  0  0  0  0  0  0  0  0  0  0  0
   46.1470   31.2770   45.0600 C   0  0  0  0  0  0  0  0  0  0  0  0
   46.1370   30.0690   44.3420 C   0  0  0  0  0  3  0  0  0  0  0  0
   45.8360   28.8120   44.8290 C   0  0  0  0  0  3  0  0  0  0  0  0
   45.5150   28.7540   46.1610 C   0  0  0  0  0  3  0  0  0  0  0  0
   45.4930   29.8680   46.9630 C   0  0  0  0  0  0  0  0  0  0  0  0
   45.1880   29.8110   48.3060 C   0  0  0  0  0  3  0  0  0  0  0  0
   45.1850   30.9420   49.1310 C   0  0  0  0  0  3  0  0  0  0  0  0
   45.5090   32.1590   48.5320 C   0  0  0  0  0  3  0  0  0  0  0  0
   45.8070   32.1780   47.1920 C   0  0  0  0  0  3  0  0  0  0  0  0
   45.8090   31.0690   46.3780 C   0  0  0  0  0  0  0  0  0  0  0  0
  1  6  2  0  0  0  0
  1  2  1  0  0  0  0
  2  3  2  0  0  0  0
  3  4  1  0  0  0  0
  5 17  1  0  0  0  0
  5  4  2  0  0  0  0
  6  5  1  0  0  0  0
  7  1  1  0  0  0  0
  8  7  2  0  0  0  0
  9  8  1  0  0  0  0
 10  9  2  0  0  0  0
 10 11  1  0  0  0  0
 11 16  1  0  0  0  0
 12 11  2  0  0  0  0
 12 13  1  0  0  0  0
 13 14  2  0  0  0  0
 14 15  1  0  0  0  0
 16  7  1  0  0  0  0
 16 15  2  0  0  0  0
 17 19  1  0  0  0  0
 18 17  2  0  0  0  0
 19 28  1  0  0  0  0
 20 21  1  0  0  0  0
 20 19  2  0  0  0  0
 21 22  2  0  0  0  0
 22 23  1  0  0  0  0
 23 24  1  0  0  0  0
 24 25  2  0  0  0  0
 26 25  1  0  0  0  0
 27 26  2  0  0  0  0
 28 23  2  0  0  0  0
 28 27  1  0  0  0  0
M  END
>  <minimizedAffinity>
-7.22946835

$$$$

 OpenBabel03242510053D

 28 32  0  0  0  0  0  0  0  0999 V2000
   46.4510   34.3100   41.6020 C   0  0  0  0  0  0  0  0  0  0  0  0
   47.7040   34.5890   41.0600 C   0  0  0  0  0  3  0  0  0  0  0  0
   48.0580   34.2970   39.7530 C   0  0  0  0  0  3  0  0  0  0  0  0
   47.0810   33.7030   39.0070 N   0  0  0  0  0  0  0  0  0  0  0  0
   45.8800   33.4230   39.4830 C   0  0  0  0  0  0  0  0  0  0  0  0
   45.6230   33.7350   40.7410 N   0  0  0  0  0  0  0  0  0  0  0  0
   45.9400   34.5090   42.9060 C   0  0  0  0  0  0  0  0  0  0  0  0
   45.1060   35.6440   43.0590 C   0  0  0  0  0  3  0  0  0  0  0  0
   44.4990   36.0090   44.2460 C   0  0  0  0  0  3  0  0  0  0  0  0
   44.7150   35.2160   45.3760 C   0  0  0  0  0  3  0  0  0  0  0  0
   45.5190   34.1000   45.2760 C   0  0  0  0  0  0  0  0  0  0  0  0
   45.7430   33.3120   46.3830 C   0  0  0  0  0  3  0  0  0  0  0  0
   46.5430   32.1900   46.3440 C   0  0  0  0  0  3  0  0  0  0  0  0
   47.1070   31.9100   45.0990 C   0  0  0  0  0  3  0  0  0  0  0  0
   46.8650   32.7110   44.0230 C   0  0  0  0  0  3  0  0  0  0  0  0
   46.0820   33.8120   44.0560 C   0  0  0  0  0  0  0  0  0  0  0  0
   44.9140   32.7870   38.5930 C   0  0  0  0  0  0  0  0  0  0  0  0
   45.2440   32.4250   37.4260 O   0  0  0  0  0  0  0  0  0  0  0  0
   43.5210   32.4340   38.7240 C   0  0  0  0  0  0  0  0  0  0  0  0
   43.1530   31.1010   38.9700 C   0  0  0  0  0  3  0  0  0  0  0  0
   41.8720   30.5910   39.0590 C   0  0  0  0  0  3  0  0  0  0  0  0
   40.8600   31.5000   38.8860 C   0  0  0  0  0  3  0  0  0  0  0  0
   41.0980   32.8300   38.6420 C   0  0  0  0  0  0  0  0  0  0  0  0
   40.0830   33.7500   38.4850 C   0  0  0  0  0  3  0  0  0  0  0  0
   40.3220   35.1100   38.2560 C   0  0  0  0  0  3  0  0  0  0  0  0
   41.6550   35.5120   38.1910 C   0  0  0  0  0  3  0  0  0  0  0  0
   42.6400   34.5690   38.3500 C   0  0  0  0  0  3  0  0  0  0  0  0
   42.4090   33.2310   38.5730 C   0  0  0  0  0  0  0  0  0  0  0  0
  1  7  1  0  0  0  0
  2  1  1  0  0  0  0
  3  2  2  0  0  0  0
  4  5  2  0  0  0  0
  4  3  1  0  0  0  0
  5  6  1  0  0  0  0
  6  1  2  0  0  0  0
  7  8  2  0  0  0  0
  7 16  1  0  0  0  0
  8  9  1  0  0  0  0
  9 10  2  0  0  0  0
 11 10  1  0  0  0  0
 11 12  1  0  0  0  0
 13 12  2  0  0  0  0
 14 13  1  0  0  0  0
 15 16  1  0  0  0  0
 15 14  2  0  0  0  0
 16 11  2  0  0  0  0
 17 19  1  0  0  0  0
 17  5  1  0  0  0  0
 18 17  2  0  0  0  0
 19 20  1  0  0  0  0
 20 21  2  0  0  0  0
 22 21  1  0  0  0  0
 23 22  2  0  0  0  0
 24 23  1  0  0  0  0
 25 24  2  0  0  0  0
 26 25  1  0  0  0  0
 26 27  2  0  0  0  0
 27 28  1  0  0  0  0
 28 23  1  0  0  0  0
 28 19  2  0  0  0  0
M  END
>  <minimizedAffinity>
-7.17863512

$$$$

 OpenBabel03242510053D

 28 32  0  0  0  0  0  0  0  0999 V2000
   46.0360   33.9460   41.8240 C   0  0  0  0  0  0  0  0  0  0  0  0
   47.2680   33.8510   41.1800 C   0  0  0  0  0  3  0  0  0  0  0  0
   47.4100   33.5960   39.8270 C   0  0  0  0  0  3  0  0  0  0  0  0
   46.2400   33.4370   39.1420 N   0  0  0  0  0  0  0  0  0  0  0  0
   45.0510   33.5200   39.7140 C   0  0  0  0  0  0  0  0  0  0  0  0
   45.0040   33.7680   41.0110 N   0  0  0  0  0  0  0  0  0  0  0  0
   45.7150   34.1670   43.1840 C   0  0  0  0  0  0  0  0  0  0  0  0
   44.9520   35.3330   43.4410 C   0  0  0  0  0  3  0  0  0  0  0  0
   44.5270   35.7230   44.6980 C   0  0  0  0  0  3  0  0  0  0  0  0
   44.8650   34.9240   45.7930 C   0  0  0  0  0  3  0  0  0  0  0  0
   45.6050   33.7780   45.5920 C   0  0  0  0  0  0  0  0  0  0  0  0
   45.9480   32.9850   46.6640 C   0  0  0  0  0  3  0  0  0  0  0  0
   46.6930   31.8330   46.5250 C   0  0  0  0  0  3  0  0  0  0  0  0
   47.0720   31.5290   45.2160 C   0  0  0  0  0  3  0  0  0  0  0  0
   46.7150   32.3370   44.1780 C   0  0  0  0  0  3  0  0  0  0  0  0
   45.9860   33.4670   44.3090 C   0  0  0  0  0  0  0  0  0  0  0  0
   43.8680   33.3350   38.8810 C   0  0  0  0  0  0  0  0  0  0  0  0
   43.9160   32.6340   37.8290 O   0  0  0  0  0  0  0  0  0  0  0  0
   42.5070   33.8060   38.9660 C   0  0  0  0  0  0  0  0  0  0  0  0
   42.0820   34.8800   38.1650 C   0  0  0  0  0  3  0  0  0  0  0  0
   40.8410   35.4860   38.1710 C   0  0  0  0  0  3  0  0  0  0  0  0
   39.9350   34.9700   39.0630 C   0  0  0  0  0  3  0  0  0  0  0  0
   40.2350   33.9210   39.8960 C   0  0  0  0  0  0  0  0  0  0  0  0
   39.3220   33.3890   40.7800 C   0  0  0  0  0  3  0  0  0  0  0  0
   39.6180   32.3060   41.6160 C   0  0  0  0  0  3  0  0  0  0  0  0
   40.9020   31.7700   41.5200 C   0  0  0  0  0  3  0  0  0  0  0  0
   41.7870   32.3260   40.6290 C   0  0  0  0  0  3  0  0  0  0  0  0
   41.4990   33.3920   39.8070 C   0  0  0  0  0  0  0  0  0  0  0  0
  1  7  1  0  0  0  0
  2  1  1  0  0  0  0
  3  2  2  0  0  0  0
  4  5  2  0  0  0  0
  4  3  1  0  0  0  0
  5  6  1  0  0  0  0
  6  1  2  0  0  0  0
  7  8  2  0  0  0  0
  7 16  1  0  0  0  0
  8  9  1  0  0  0  0
  9 10  2  0  0  0  0
 11 10  1  0  0  0  0
 11 12  1  0  0  0  0
 13 12  2  0  0  0  0
 14 13  1  0  0  0  0
 15 16  1  0  0  0  0
 15 14  2  0  0  0  0
 16 11  2  0  0  0  0
 17 19  1  0  0  0  0
 17  5  1  0  0  0  0
 18 17  2  0  0  0  0
 19 28  1  0  0  0  0
 20 21  1  0  0  0  0
 20 19  2  0  0  0  0
 21 22  2  0  0  0  0
 22 23  1  0  0  0  0
 23 24  1  0  0  0  0
 24 25  2  0  0  0  0
 26 25  1  0  0  0  0
 27 26  2  0  0  0  0
 28 23  2  0  0  0  0
 28 27  1  0  0  0  0
M  END
>  <minimizedAffinity>
-7.15867519

$$$$
