
 OpenBabel03242510183D

 35 40  0  0  0  0  0  0  0  0999 V2000
   50.1210   32.7440   41.6360 C   0  0  0  0  0  3  0  0  0  0  0  0
   49.3580   33.7690   42.2330 C   0  0  0  0  0  3  0  0  0  0  0  0
   48.2000   34.1540   41.6580 C   0  0  0  0  0  0  0  0  0  0  0  0
   47.8280   33.5220   40.5200 N   0  0  0  0  0  0  0  0  0  0  0  0
   48.5470   32.5480   39.9480 C   0  0  0  0  0  0  0  0  0  0  0  0
   49.6740   32.1720   40.5060 N   0  0  0  0  0  0  0  0  0  0  0  0
   47.4520   35.2240   42.3380 C   0  0  0  0  0  2  0  0  0  0  0  0
   46.0370   35.0100   42.5790 C   0  0  0  0  0  2  0  0  0  0  0  0
   45.4490   34.9850   43.9140 C   0  0  0  0  0  0  0  0  0  0  0  0
   44.6030   35.6950   44.7810 C   0  0  0  0  0  3  0  0  0  0  0  0
   44.4980   35.1460   45.9820 N   0  0  0  0  0  0  0  0  0  0  0  0
   45.2480   34.0460   46.0170 C   0  0  0  0  0  0  0  0  0  0  0  0
   45.4150   33.1940   47.0800 C   0  0  0  0  0  3  0  0  0  0  0  0
   46.2480   32.1130   46.9050 C   0  0  0  0  0  3  0  0  0  0  0  0
   46.8640   31.9290   45.7070 C   0  0  0  0  0  3  0  0  0  0  0  0
   46.6520   32.8210   44.6830 C   0  0  0  0  0  3  0  0  0  0  0  0
   45.8310   33.9360   44.7710 C   0  0  0  0  0  0  0  0  0  0  0  0
   43.9290   35.5100   46.7600 H   0  0  0  0  0  0  0  0  0  0  0  0
   48.0040   31.7570   38.4300 S   0  0  0  0  0  0  0  0  0  0  0  0
   44.8950   33.6810   36.9500 N   0  0  0  0  0  0  0  0  0  0  0  0
   46.1690   33.4010   36.8790 N   0  0  0  0  0  0  0  0  0  0  0  0
   46.4730   32.5240   37.8740 C   0  0  0  0  0  0  0  0  0  0  0  0
   45.2650   32.3140   38.5260 C   0  0  0  0  0  3  0  0  0  0  0  0
   44.2570   33.0830   37.9010 C   0  0  0  0  0  0  0  0  0  0  0  0
   44.4330   34.3300   36.2960 H   0  0  0  0  0  0  0  0  0  0  0  0
   42.9480   33.0640   38.4340 C   0  0  0  0  0  0  0  0  0  0  0  0
   42.0290   32.1900   37.9330 N   0  0  0  0  0  0  0  0  0  0  0  0
   40.7910   32.0340   38.3570 C   0  0  0  0  0  3  0  0  0  0  0  0
   40.2870   32.7490   39.3700 N   0  0  0  0  0  0  0  0  0  0  0  0
   41.1010   33.6530   39.9510 C   0  0  0  0  0  0  0  0  0  0  0  0
   40.6430   34.4170   40.9860 C   0  0  0  0  0  3  0  0  0  0  0  0
   41.4560   35.3670   41.6040 C   0  0  0  0  0  3  0  0  0  0  0  0
   42.7580   35.4920   41.1060 C   0  0  0  0  0  3  0  0  0  0  0  0
   43.1270   34.6830   40.0680 C   0  0  0  0  0  3  0  0  0  0  0  0
   42.3720   33.7550   39.4480 C   0  0  0  0  0  0  0  0  0  0  0  0
  1  2  1  0  0  0  0
  3  2  2  0  0  0  0
  3  7  1  0  0  0  0
  4  3  1  0  0  0  0
  5  6  1  0  0  0  0
  5  4  2  0  0  0  0
  6  1  2  0  0  0  0
  7  8  1  0  0  0  0
  8  9  1  0  0  0  0
  9 17  1  0  0  0  0
  9 10  2  0  0  0  0
 10 11  1  0  0  0  0
 11 12  1  0  0  0  0
 11 18  1  0  0  0  0
 12 13  1  0  0  0  0
 14 13  2  0  0  0  0
 15 14  1  0  0  0  0
 16 17  1  0  0  0  0
 16 15  2  0  0  0  0
 17 12  2  0  0  0  0
 19  5  1  0  0  0  0
 20 24  1  0  0  0  0
 21 20  1  0  0  0  0
 21 22  2  0  0  0  0
 22 19  1  0  0  0  0
 22 23  1  0  0  0  0
 24 26  1  0  0  0  0
 24 23  2  0  0  0  0
 25 20  1  0  0  0  0
 26 35  1  0  0  0  0
 27 28  1  0  0  0  0
 27 26  2  0  0  0  0
 28 29  2  0  0  0  0
 29 30  1  0  0  0  0
 30 31  1  0  0  0  0
 31 32  2  0  0  0  0
 33 32  1  0  0  0  0
 34 33  2  0  0  0  0
 35 30  2  0  0  0  0
 35 34  1  0  0  0  0
M  END
>  <minimizedAffinity>
-7.66787338

$$$$

 OpenBabel03242510183D

 35 40  0  0  0  0  0  0  0  0999 V2000
   44.6220   33.3920   39.8400 C   0  0  0  0  0  3  0  0  0  0  0  0
   43.5190   33.9150   39.1340 C   0  0  0  0  0  3  0  0  0  0  0  0
   42.8550   34.9770   39.6330 C   0  0  0  0  0  0  0  0  0  0  0  0
   43.2930   35.4910   40.8060 N   0  0  0  0  0  0  0  0  0  0  0  0
   44.3380   35.0000   41.4830 C   0  0  0  0  0  0  0  0  0  0  0  0
   44.9860   33.9670   40.9980 N   0  0  0  0  0  0  0  0  0  0  0  0
   41.7190   35.4750   38.8410 C   0  0  0  0  0  3  0  0  0  0  0  0
   40.4000   34.9550   39.1510 C   0  0  0  0  0  3  0  0  0  0  0  0
   40.1070   34.1880   40.3560 C   0  0  0  0  0  0  0  0  0  0  0  0
   40.0130   34.2850   41.7540 C   0  0  0  0  0  3  0  0  0  0  0  0
   39.7460   33.1300   42.3460 N   0  0  0  0  0  0  0  0  0  0  0  0
   39.6420   32.1850   41.4130 C   0  0  0  0  0  0  0  0  0  0  0  0
   39.3780   30.8530   41.6140 C   0  0  0  0  0  3  0  0  0  0  0  0
   39.3220   30.0410   40.5050 C   0  0  0  0  0  3  0  0  0  0  0  0
   39.5240   30.5760   39.2720 C   0  0  0  0  0  3  0  0  0  0  0  0
   39.7840   31.9190   39.1420 C   0  0  0  0  0  3  0  0  0  0  0  0
   39.8590   32.8100   40.2030 C   0  0  0  0  0  0  0  0  0  0  0  0
   39.6370   32.9880   43.3600 H   0  0  0  0  0  0  0  0  0  0  0  0
   44.8620   35.7210   43.0420 S   0  0  0  0  0  0  0  0  0  0  0  0
   47.3390   33.1240   44.6780 N   0  0  0  0  0  0  0  0  0  0  0  0
   47.1070   34.0060   43.7420 N   0  0  0  0  0  0  0  0  0  0  0  0
   45.8670   34.5300   43.9420 C   0  0  0  0  0  0  0  0  0  0  0  0
   45.4000   33.8800   45.0770 C   0  0  0  0  0  3  0  0  0  0  0  0
   46.3810   32.9700   45.5320 C   0  0  0  0  0  0  0  0  0  0  0  0
   48.2190   32.5910   44.7310 H   0  0  0  0  0  0  0  0  0  0  0  0
   46.0980   32.1560   46.6520 C   0  0  0  0  0  0  0  0  0  0  0  0
   46.1080   32.7030   47.9020 N   0  0  0  0  0  0  0  0  0  0  0  0
   45.8240   32.0770   49.0260 C   0  0  0  0  0  3  0  0  0  0  0  0
   45.4800   30.7840   49.0590 N   0  0  0  0  0  0  0  0  0  0  0  0
   45.4360   30.1290   47.8810 C   0  0  0  0  0  0  0  0  0  0  0  0
   45.0970   28.8070   47.8510 C   0  0  0  0  0  3  0  0  0  0  0  0
   45.0490   28.0970   46.6500 C   0  0  0  0  0  3  0  0  0  0  0  0
   45.3660   28.8110   45.4900 C   0  0  0  0  0  3  0  0  0  0  0  0
   45.6930   30.1320   45.6210 C   0  0  0  0  0  3  0  0  0  0  0  0
   45.7470   30.8510   46.7590 C   0  0  0  0  0  0  0  0  0  0  0  0
  1  6  1  0  0  0  0
  2  3  1  0  0  0  0
  2  1  2  0  0  0  0
  3  4  2  0  0  0  0
  4  5  1  0  0  0  0
  5 19  1  0  0  0  0
  6  5  2  0  0  0  0
  7  8  2  0  0  0  0
  7  3  1  0  0  0  0
  8  9  1  0  0  0  0
  9 10  2  0  0  0  0
 10 11  1  0  0  0  0
 11 18  1  0  0  0  0
 12 13  1  0  0  0  0
 12 11  1  0  0  0  0
 14 13  2  0  0  0  0
 15 14  1  0  0  0  0
 16 15  2  0  0  0  0
 16 17  1  0  0  0  0
 17  9  1  0  0  0  0
 17 12  2  0  0  0  0
 19 22  1  0  0  0  0
 20 25  1  0  0  0  0
 20 24  1  0  0  0  0
 21 22  2  0  0  0  0
 21 20  1  0  0  0  0
 22 23  1  0  0  0  0
 23 24  2  0  0  0  0
 24 26  1  0  0  0  0
 26 35  2  0  0  0  0
 26 27  1  0  0  0  0
 27 28  2  0  0  0  0
 28 29  1  0  0  0  0
 30 29  2  0  0  0  0
 31 30  1  0  0  0  0
 32 31  2  0  0  0  0
 33 34  2  0  0  0  0
 33 32  1  0  0  0  0
 34 35  1  0  0  0  0
 35 30  1  0  0  0  0
M  END
>  <minimizedAffinity>
-7.62108183

$$$$

 OpenBabel03242510183D

 35 40  0  0  0  0  0  0  0  0999 V2000
   48.8440   35.4790   41.2950 C   0  0  0  0  0  3  0  0  0  0  0  0
   48.9060   34.4770   42.2850 C   0  0  0  0  0  3  0  0  0  0  0  0
   48.6620   33.1950   41.9460 C   0  0  0  0  0  0  0  0  0  0  0  0
   48.3660   32.9370   40.6500 N   0  0  0  0  0  0  0  0  0  0  0  0
   48.3060   33.8840   39.7050 C   0  0  0  0  0  0  0  0  0  0  0  0
   48.5430   35.1320   40.0330 N   0  0  0  0  0  0  0  0  0  0  0  0
   48.7500   32.1990   43.0270 C   0  0  0  0  0  2  0  0  0  0  0  0
   47.5160   31.7940   43.6740 C   0  0  0  0  0  2  0  0  0  0  0  0
   46.9070   32.5380   44.7700 C   0  0  0  0  0  0  0  0  0  0  0  0
   46.7940   32.5850   46.1690 C   0  0  0  0  0  3  0  0  0  0  0  0
   45.9820   33.5380   46.6010 N   0  0  0  0  0  0  0  0  0  0  0  0
   45.4940   34.1940   45.5500 C   0  0  0  0  0  0  0  0  0  0  0  0
   44.6140   35.2480   45.5690 C   0  0  0  0  0  3  0  0  0  0  0  0
   44.2280   35.7780   44.3600 C   0  0  0  0  0  3  0  0  0  0  0  0
   44.7240   35.2500   43.2090 C   0  0  0  0  0  3  0  0  0  0  0  0
   45.6020   34.1950   43.2610 C   0  0  0  0  0  3  0  0  0  0  0  0
   46.0440   33.5990   44.4330 C   0  0  0  0  0  0  0  0  0  0  0  0
   45.7640   33.7390   47.5880 H   0  0  0  0  0  0  0  0  0  0  0  0
   47.8960   33.4780   38.0040 S   0  0  0  0  0  0  0  0  0  0  0  0
   44.0520   32.9610   37.2860 N   0  0  0  0  0  0  0  0  0  0  0  0
   45.2620   33.1200   36.8180 N   0  0  0  0  0  0  0  0  0  0  0  0
   46.1230   33.2000   37.8690 C   0  0  0  0  0  0  0  0  0  0  0  0
   45.3100   33.0680   38.9870 C   0  0  0  0  0  3  0  0  0  0  0  0
   43.9670   32.9160   38.5750 C   0  0  0  0  0  0  0  0  0  0  0  0
   43.2280   32.8770   36.6730 H   0  0  0  0  0  0  0  0  0  0  0  0
   42.9530   32.8160   39.5540 C   0  0  0  0  0  0  0  0  0  0  0  0
   42.8960   31.7140   40.3550 N   0  0  0  0  0  0  0  0  0  0  0  0
   42.0360   31.5060   41.3320 C   0  0  0  0  0  3  0  0  0  0  0  0
   41.0890   32.3960   41.6540 N   0  0  0  0  0  0  0  0  0  0  0  0
   41.0410   33.5320   40.9290 C   0  0  0  0  0  0  0  0  0  0  0  0
   40.0940   34.4760   41.2050 C   0  0  0  0  0  3  0  0  0  0  0  0
   40.0110   35.6580   40.4700 C   0  0  0  0  0  3  0  0  0  0  0  0
   40.9460   35.8210   39.4420 C   0  0  0  0  0  3  0  0  0  0  0  0
   41.8560   34.8210   39.2410 C   0  0  0  0  0  3  0  0  0  0  0  0
   41.9690   33.6690   39.9300 C   0  0  0  0  0  0  0  0  0  0  0  0
  1  2  1  0  0  0  0
  3  2  2  0  0  0  0
  3  7  1  0  0  0  0
  4  3  1  0  0  0  0
  5  6  1  0  0  0  0
  5  4  2  0  0  0  0
  6  1  2  0  0  0  0
  7  8  1  0  0  0  0
  8  9  1  0  0  0  0
  9 10  2  0  0  0  0
 10 11  1  0  0  0  0
 11 18  1  0  0  0  0
 12 13  1  0  0  0  0
 12 11  1  0  0  0  0
 14 13  2  0  0  0  0
 15 16  2  0  0  0  0
 15 14  1  0  0  0  0
 16 17  1  0  0  0  0
 17  9  1  0  0  0  0
 17 12  2  0  0  0  0
 19  5  1  0  0  0  0
 20 24  1  0  0  0  0
 21 20  1  0  0  0  0
 21 22  2  0  0  0  0
 22 19  1  0  0  0  0
 22 23  1  0  0  0  0
 24 23  2  0  0  0  0
 24 26  1  0  0  0  0
 25 20  1  0  0  0  0
 26 35  2  0  0  0  0
 26 27  1  0  0  0  0
 27 28  2  0  0  0  0
 28 29  1  0  0  0  0
 30 31  1  0  0  0  0
 30 29  2  0  0  0  0
 32 31  2  0  0  0  0
 33 32  1  0  0  0  0
 34 33  2  0  0  0  0
 34 35  1  0  0  0  0
 35 30  1  0  0  0  0
M  END
>  <minimizedAffinity>
-7.51416159

$$$$

 OpenBabel03242510183D

 35 40  0  0  0  0  0  0  0  0999 V2000
   40.6320   34.3930   39.6270 C   0  0  0  0  0  3  0  0  0  0  0  0
   41.3730   35.1680   40.5430 C   0  0  0  0  0  3  0  0  0  0  0  0
   42.7140   35.0330   40.5930 C   0  0  0  0  0  0  0  0  0  0  0  0
   43.2830   34.1450   39.7450 N   0  0  0  0  0  0  0  0  0  0  0  0
   42.5860   33.4050   38.8730 C   0  0  0  0  0  0  0  0  0  0  0  0
   41.2820   33.5360   38.8230 N   0  0  0  0  0  0  0  0  0  0  0  0
   43.4250   35.8770   41.5670 C   0  0  0  0  0  2  0  0  0  0  0  0
   44.6450   35.3530   42.1500 C   0  0  0  0  0  2  0  0  0  0  0  0
   44.8090   35.1120   43.5790 C   0  0  0  0  0  0  0  0  0  0  0  0
   44.4950   35.6250   44.8480 C   0  0  0  0  0  3  0  0  0  0  0  0
   45.0240   34.9300   45.8430 N   0  0  0  0  0  0  0  0  0  0  0  0
   45.7210   33.9150   45.3340 C   0  0  0  0  0  0  0  0  0  0  0  0
   46.4240   32.9640   46.0320 C   0  0  0  0  0  3  0  0  0  0  0  0
   47.0860   32.0020   45.3050 C   0  0  0  0  0  3  0  0  0  0  0  0
   47.0200   32.0240   43.9470 C   0  0  0  0  0  3  0  0  0  0  0  0
   46.2970   33.0050   43.3120 C   0  0  0  0  0  3  0  0  0  0  0  0
   45.6010   34.0120   43.9640 C   0  0  0  0  0  0  0  0  0  0  0  0
   44.9140   35.1390   46.8460 H   0  0  0  0  0  0  0  0  0  0  0  0
   43.4020   32.2340   37.7830 S   0  0  0  0  0  0  0  0  0  0  0  0
   47.2790   32.8820   37.4500 N   0  0  0  0  0  0  0  0  0  0  0  0
   46.0980   32.8710   36.8890 N   0  0  0  0  0  0  0  0  0  0  0  0
   45.1790   32.5170   37.8280 C   0  0  0  0  0  0  0  0  0  0  0  0
   45.9260   32.3280   38.9830 C   0  0  0  0  0  3  0  0  0  0  0  0
   47.2900   32.5710   38.7040 C   0  0  0  0  0  0  0  0  0  0  0  0
   48.1370   33.1200   36.9300 H   0  0  0  0  0  0  0  0  0  0  0  0
   48.2460   32.3870   39.7280 C   0  0  0  0  0  0  0  0  0  0  0  0
   48.8510   31.1730   39.8740 N   0  0  0  0  0  0  0  0  0  0  0  0
   49.7850   30.8710   40.7530 C   0  0  0  0  0  3  0  0  0  0  0  0
   50.2570   31.7630   41.6320 N   0  0  0  0  0  0  0  0  0  0  0  0
   49.7340   33.0050   41.5890 C   0  0  0  0  0  0  0  0  0  0  0  0
   50.1710   33.9580   42.4630 C   0  0  0  0  0  3  0  0  0  0  0  0
   49.6450   35.2500   42.4520 C   0  0  0  0  0  3  0  0  0  0  0  0
   48.6530   35.5110   41.5010 C   0  0  0  0  0  3  0  0  0  0  0  0
   48.2810   34.4930   40.6680 C   0  0  0  0  0  3  0  0  0  0  0  0
   48.7660   33.2370   40.6480 C   0  0  0  0  0  0  0  0  0  0  0  0
  1  2  1  0  0  0  0
  2  3  2  0  0  0  0
  3  7  1  0  0  0  0
  4  3  1  0  0  0  0
  5  4  2  0  0  0  0
  6  5  1  0  0  0  0
  6  1  2  0  0  0  0
  7  8  1  0  0  0  0
  8  9  1  0  0  0  0
  9 17  1  0  0  0  0
  9 10  2  0  0  0  0
 10 11  1  0  0  0  0
 11 18  1  0  0  0  0
 12 11  1  0  0  0  0
 12 13  1  0  0  0  0
 14 13  2  0  0  0  0
 15 14  1  0  0  0  0
 16 15  2  0  0  0  0
 16 17  1  0  0  0  0
 17 12  2  0  0  0  0
 19 22  1  0  0  0  0
 19  5  1  0  0  0  0
 20 24  1  0  0  0  0
 21 20  1  0  0  0  0
 21 22  2  0  0  0  0
 22 23  1  0  0  0  0
 24 23  2  0  0  0  0
 24 26  1  0  0  0  0
 25 20  1  0  0  0  0
 26 27  2  0  0  0  0
 26 35  1  0  0  0  0
 27 28  1  0  0  0  0
 28 29  2  0  0  0  0
 30 29  1  0  0  0  0
 30 31  1  0  0  0  0
 32 31  2  0  0  0  0
 33 32  1  0  0  0  0
 34 33  2  0  0  0  0
 35 34  1  0  0  0  0
 35 30  2  0  0  0  0
M  END
>  <minimizedAffinity>
-7.38333893

$$$$

 OpenBabel03242510183D

 35 40  0  0  0  0  0  0  0  0999 V2000
   49.7160   31.7100   40.8490 C   0  0  0  0  0  3  0  0  0  0  0  0
   49.2300   32.2280   42.0680 C   0  0  0  0  0  3  0  0  0  0  0  0
   48.2980   33.2020   42.0490 C   0  0  0  0  0  0  0  0  0  0  0  0
   47.8720   33.6350   40.8390 N   0  0  0  0  0  0  0  0  0  0  0  0
   48.3290   33.1480   39.6790 C   0  0  0  0  0  0  0  0  0  0  0  0
   49.2360   32.2000   39.6950 N   0  0  0  0  0  0  0  0  0  0  0  0
   47.8310   33.6920   43.3560 C   0  0  0  0  0  2  0  0  0  0  0  0
   47.3040   32.7170   44.2930 C   0  0  0  0  0  2  0  0  0  0  0  0
   46.3880   33.0610   45.3740 C   0  0  0  0  0  0  0  0  0  0  0  0
   45.4070   33.9880   45.7630 C   0  0  0  0  0  3  0  0  0  0  0  0
   44.9470   33.7860   46.9880 N   0  0  0  0  0  0  0  0  0  0  0  0
   45.5680   32.7300   47.5110 C   0  0  0  0  0  0  0  0  0  0  0  0
   45.3800   32.1970   48.7620 C   0  0  0  0  0  3  0  0  0  0  0  0
   46.1370   31.1010   49.1070 C   0  0  0  0  0  3  0  0  0  0  0  0
   47.0260   30.5930   48.2130 C   0  0  0  0  0  3  0  0  0  0  0  0
   47.1640   31.1750   46.9760 C   0  0  0  0  0  3  0  0  0  0  0  0
   46.4450   32.2800   46.5450 C   0  0  0  0  0  0  0  0  0  0  0  0
   44.2270   34.3530   47.4590 H   0  0  0  0  0  0  0  0  0  0  0  0
   47.7320   33.7750   38.1050 S   0  0  0  0  0  0  0  0  0  0  0  0
   44.0800   32.6430   37.1350 N   0  0  0  0  0  0  0  0  0  0  0  0
   45.3010   32.9120   36.7560 N   0  0  0  0  0  0  0  0  0  0  0  0
   46.0320   33.2380   37.8560 C   0  0  0  0  0  0  0  0  0  0  0  0
   45.1330   33.1300   38.9090 C   0  0  0  0  0  3  0  0  0  0  0  0
   43.8690   32.7420   38.4070 C   0  0  0  0  0  0  0  0  0  0  0  0
   43.3400   32.3720   36.4710 H   0  0  0  0  0  0  0  0  0  0  0  0
   42.7810   32.6210   39.3000 C   0  0  0  0  0  0  0  0  0  0  0  0
   42.6390   31.4820   40.0370 N   0  0  0  0  0  0  0  0  0  0  0  0
   41.7020   31.2480   40.9340 C   0  0  0  0  0  3  0  0  0  0  0  0
   40.7530   32.1450   41.2280 N   0  0  0  0  0  0  0  0  0  0  0  0
   40.7850   33.3170   40.5610 C   0  0  0  0  0  0  0  0  0  0  0  0
   39.8410   34.2700   40.8130 C   0  0  0  0  0  3  0  0  0  0  0  0
   39.8410   35.4890   40.1360 C   0  0  0  0  0  3  0  0  0  0  0  0
   40.8550   35.6780   39.1910 C   0  0  0  0  0  3  0  0  0  0  0  0
   41.7560   34.6670   39.0090 C   0  0  0  0  0  3  0  0  0  0  0  0
   41.7900   33.4790   39.6440 C   0  0  0  0  0  0  0  0  0  0  0  0
  1  2  1  0  0  0  0
  3  2  2  0  0  0  0
  3  7  1  0  0  0  0
  4  3  1  0  0  0  0
  5  6  1  0  0  0  0
  5  4  2  0  0  0  0
  6  1  2  0  0  0  0
  7  8  1  0  0  0  0
  8  9  1  0  0  0  0
  9 10  2  0  0  0  0
  9 17  1  0  0  0  0
 10 11  1  0  0  0  0
 11 18  1  0  0  0  0
 11 12  1  0  0  0  0
 12 13  1  0  0  0  0
 13 14  2  0  0  0  0
 15 14  1  0  0  0  0
 16 15  2  0  0  0  0
 17 16  1  0  0  0  0
 17 12  2  0  0  0  0
 19  5  1  0  0  0  0
 20 24  1  0  0  0  0
 21 20  1  0  0  0  0
 21 22  2  0  0  0  0
 22 19  1  0  0  0  0
 22 23  1  0  0  0  0
 24 23  2  0  0  0  0
 24 26  1  0  0  0  0
 25 20  1  0  0  0  0
 26 35  2  0  0  0  0
 26 27  1  0  0  0  0
 27 28  2  0  0  0  0
 28 29  1  0  0  0  0
 30 31  1  0  0  0  0
 30 29  2  0  0  0  0
 32 31  2  0  0  0  0
 33 32  1  0  0  0  0
 34 33  2  0  0  0  0
 34 35  1  0  0  0  0
 35 30  1  0  0  0  0
M  END
>  <minimizedAffinity>
-7.32537556

$$$$

 OpenBabel03242510183D

 35 40  0  0  0  0  0  0  0  0999 V2000
   49.3960   32.5170   40.4970 C   0  0  0  0  0  3  0  0  0  0  0  0
   48.8360   33.4350   41.4100 C   0  0  0  0  0  3  0  0  0  0  0  0
   47.7680   34.1700   41.0390 C   0  0  0  0  0  0  0  0  0  0  0  0
   47.2850   33.9820   39.7880 N   0  0  0  0  0  0  0  0  0  0  0  0
   47.8120   33.1130   38.9170 C   0  0  0  0  0  0  0  0  0  0  0  0
   48.8500   32.3960   39.2760 N   0  0  0  0  0  0  0  0  0  0  0  0
   47.2310   35.1030   42.0430 C   0  0  0  0  0  2  0  0  0  0  0  0
   45.8320   34.9710   42.4060 C   0  0  0  0  0  2  0  0  0  0  0  0
   45.3620   34.9690   43.7870 C   0  0  0  0  0  0  0  0  0  0  0  0
   44.6040   35.6990   44.7160 C   0  0  0  0  0  3  0  0  0  0  0  0
   44.5970   35.1640   45.9280 N   0  0  0  0  0  0  0  0  0  0  0  0
   45.3350   34.0550   45.9110 C   0  0  0  0  0  0  0  0  0  0  0  0
   45.5840   33.2120   46.9650 C   0  0  0  0  0  3  0  0  0  0  0  0
   46.3850   32.1190   46.7320 C   0  0  0  0  0  3  0  0  0  0  0  0
   46.8920   31.9140   45.4870 C   0  0  0  0  0  3  0  0  0  0  0  0
   46.6030   32.7980   44.4750 C   0  0  0  0  0  3  0  0  0  0  0  0
   45.8060   33.9240   44.6210 C   0  0  0  0  0  0  0  0  0  0  0  0
   44.1020   35.5430   46.7480 H   0  0  0  0  0  0  0  0  0  0  0  0
   47.1300   32.9190   37.2660 S   0  0  0  0  0  0  0  0  0  0  0  0
   43.3080   31.9490   37.1800 N   0  0  0  0  0  0  0  0  0  0  0  0
   44.5220   31.7340   36.7480 N   0  0  0  0  0  0  0  0  0  0  0  0
   45.3640   32.5920   37.3860 C   0  0  0  0  0  0  0  0  0  0  0  0
   44.5360   33.3200   38.2290 C   0  0  0  0  0  3  0  0  0  0  0  0
   43.2020   32.8790   38.0710 C   0  0  0  0  0  0  0  0  0  0  0  0
   42.4950   31.4170   36.8360 H   0  0  0  0  0  0  0  0  0  0  0  0
   42.1740   33.5210   38.7980 C   0  0  0  0  0  0  0  0  0  0  0  0
   41.7470   34.7580   38.4120 N   0  0  0  0  0  0  0  0  0  0  0  0
   40.7760   35.4530   38.9680 C   0  0  0  0  0  3  0  0  0  0  0  0
   40.0750   34.9960   40.0130 N   0  0  0  0  0  0  0  0  0  0  0  0
   40.4050   33.7780   40.4900 C   0  0  0  0  0  0  0  0  0  0  0  0
   39.7310   33.2600   41.5580 C   0  0  0  0  0  3  0  0  0  0  0  0
   40.0520   32.0070   42.0810 C   0  0  0  0  0  3  0  0  0  0  0  0
   41.0960   31.3180   41.4550 C   0  0  0  0  0  3  0  0  0  0  0  0
   41.7120   31.9180   40.3920 C   0  0  0  0  0  3  0  0  0  0  0  0
   41.4290   33.1220   39.8580 C   0  0  0  0  0  0  0  0  0  0  0  0
  1  2  1  0  0  0  0
  3  2  2  0  0  0  0
  3  7  1  0  0  0  0
  4  3  1  0  0  0  0
  5  6  1  0  0  0  0
  5  4  2  0  0  0  0
  6  1  2  0  0  0  0
  7  8  1  0  0  0  0
  8  9  1  0  0  0  0
  9 17  1  0  0  0  0
  9 10  2  0  0  0  0
 10 11  1  0  0  0  0
 11 18  1  0  0  0  0
 12 11  1  0  0  0  0
 12 13  1  0  0  0  0
 14 13  2  0  0  0  0
 15 14  1  0  0  0  0
 16 17  1  0  0  0  0
 16 15  2  0  0  0  0
 17 12  2  0  0  0  0
 19 22  1  0  0  0  0
 19  5  1  0  0  0  0
 20 24  1  0  0  0  0
 21 20  1  0  0  0  0
 21 22  2  0  0  0  0
 22 23  1  0  0  0  0
 24 23  2  0  0  0  0
 24 26  1  0  0  0  0
 25 20  1  0  0  0  0
 26 35  1  0  0  0  0
 27 26  2  0  0  0  0
 27 28  1  0  0  0  0
 28 29  2  0  0  0  0
 29 30  1  0  0  0  0
 30 31  1  0  0  0  0
 31 32  2  0  0  0  0
 33 32  1  0  0  0  0
 34 33  2  0  0  0  0
 35 34  1  0  0  0  0
 35 30  2  0  0  0  0
M  END
>  <minimizedAffinity>
-7.29908943

$$$$

 OpenBabel03242510183D

 35 40  0  0  0  0  0  0  0  0999 V2000
   48.2840   33.4100   36.2830 C   0  0  0  0  0  3  0  0  0  0  0  0
   48.4330   34.0850   37.5120 C   0  0  0  0  0  3  0  0  0  0  0  0
   47.8010   33.6160   38.6070 C   0  0  0  0  0  0  0  0  0  0  0  0
   47.0450   32.5020   38.4620 N   0  0  0  0  0  0  0  0  0  0  0  0
   46.8980   31.8570   37.2990 C   0  0  0  0  0  0  0  0  0  0  0  0
   47.5130   32.3120   36.2320 N   0  0  0  0  0  0  0  0  0  0  0  0
   48.0070   34.3650   39.8580 C   0  0  0  0  0  2  0  0  0  0  0  0
   46.9040   34.4240   40.7980 C   0  0  0  0  0  2  0  0  0  0  0  0
   46.9640   33.8500   42.1380 C   0  0  0  0  0  0  0  0  0  0  0  0
   47.5400   32.8140   42.8900 C   0  0  0  0  0  3  0  0  0  0  0  0
   47.1230   32.7800   44.1470 N   0  0  0  0  0  0  0  0  0  0  0  0
   46.2510   33.7700   44.3360 C   0  0  0  0  0  0  0  0  0  0  0  0
   45.5870   34.0750   45.4980 C   0  0  0  0  0  3  0  0  0  0  0  0
   44.7180   35.1410   45.4730 C   0  0  0  0  0  3  0  0  0  0  0  0
   44.5520   35.8430   44.3210 C   0  0  0  0  0  3  0  0  0  0  0  0
   45.2500   35.4850   43.1930 C   0  0  0  0  0  3  0  0  0  0  0  0
   46.1440   34.4260   43.1270 C   0  0  0  0  0  0  0  0  0  0  0  0
   47.4240   32.1010   44.8610 H   0  0  0  0  0  0  0  0  0  0  0  0
   45.8700   30.3900   37.1700 S   0  0  0  0  0  0  0  0  0  0  0  0
   42.0630   31.4220   37.0920 N   0  0  0  0  0  0  0  0  0  0  0  0
   43.1150   30.9910   36.4460 N   0  0  0  0  0  0  0  0  0  0  0  0
   44.1400   30.8600   37.3320 C   0  0  0  0  0  0  0  0  0  0  0  0
   43.5920   31.2460   38.5480 C   0  0  0  0  0  3  0  0  0  0  0  0
   42.2390   31.6070   38.3590 C   0  0  0  0  0  0  0  0  0  0  0  0
   41.1610   31.6000   36.6260 H   0  0  0  0  0  0  0  0  0  0  0  0
   41.4940   32.0860   39.4600 C   0  0  0  0  0  0  0  0  0  0  0  0
   41.0730   31.2120   40.4190 N   0  0  0  0  0  0  0  0  0  0  0  0
   40.4090   31.5210   41.5150 C   0  0  0  0  0  3  0  0  0  0  0  0
   40.0660   32.7800   41.8130 N   0  0  0  0  0  0  0  0  0  0  0  0
   40.4250   33.7390   40.9370 C   0  0  0  0  0  0  0  0  0  0  0  0
   40.0990   35.0420   41.1830 C   0  0  0  0  0  3  0  0  0  0  0  0
   40.4480   36.0590   40.2940 C   0  0  0  0  0  3  0  0  0  0  0  0
   41.1460   35.6710   39.1450 C   0  0  0  0  0  3  0  0  0  0  0  0
   41.4280   34.3420   38.9860 C   0  0  0  0  0  3  0  0  0  0  0  0
   41.1100   33.3350   39.8220 C   0  0  0  0  0  0  0  0  0  0  0  0
  1  2  1  0  0  0  0
  2  3  2  0  0  0  0
  3  7  1  0  0  0  0
  4  3  1  0  0  0  0
  5  4  2  0  0  0  0
  6  1  2  0  0  0  0
  6  5  1  0  0  0  0
  7  8  1  0  0  0  0
  8  9  1  0  0  0  0
  9 10  2  0  0  0  0
  9 17  1  0  0  0  0
 10 11  1  0  0  0  0
 11 12  1  0  0  0  0
 11 18  1  0  0  0  0
 12 13  1  0  0  0  0
 14 13  2  0  0  0  0
 15 14  1  0  0  0  0
 16 15  2  0  0  0  0
 17 16  1  0  0  0  0
 17 12  2  0  0  0  0
 19  5  1  0  0  0  0
 19 22  1  0  0  0  0
 20 24  1  0  0  0  0
 21 20  1  0  0  0  0
 21 22  2  0  0  0  0
 22 23  1  0  0  0  0
 24 23  2  0  0  0  0
 24 26  1  0  0  0  0
 25 20  1  0  0  0  0
 26 35  2  0  0  0  0
 26 27  1  0  0  0  0
 27 28  2  0  0  0  0
 28 29  1  0  0  0  0
 30 31  1  0  0  0  0
 30 29  2  0  0  0  0
 32 31  2  0  0  0  0
 33 32  1  0  0  0  0
 34 33  2  0  0  0  0
 34 35  1  0  0  0  0
 35 30  1  0  0  0  0
M  END
>  <minimizedAffinity>
-7.19046783

$$$$

 OpenBabel03242510183D

 35 40  0  0  0  0  0  0  0  0999 V2000
   49.9420   34.7960   42.4500 C   0  0  0  0  0  3  0  0  0  0  0  0
   48.7940   34.9880   41.6530 C   0  0  0  0  0  3  0  0  0  0  0  0
   48.2490   33.9350   41.0110 C   0  0  0  0  0  0  0  0  0  0  0  0
   48.8450   32.7300   41.1720 N   0  0  0  0  0  0  0  0  0  0  0  0
   49.9340   32.5400   41.9260 C   0  0  0  0  0  0  0  0  0  0  0  0
   50.4660   33.5630   42.5510 N   0  0  0  0  0  0  0  0  0  0  0  0
   47.0490   34.2060   40.2030 C   0  0  0  0  0  2  0  0  0  0  0  0
   45.7590   33.8760   40.7780 C   0  0  0  0  0  2  0  0  0  0  0  0
   45.1010   34.6960   41.7890 C   0  0  0  0  0  0  0  0  0  0  0  0
   44.3030   35.8380   41.9620 C   0  0  0  0  0  3  0  0  0  0  0  0
   44.0660   36.1280   43.2330 N   0  0  0  0  0  0  0  0  0  0  0  0
   44.6730   35.2230   43.9990 C   0  0  0  0  0  0  0  0  0  0  0  0
   44.6760   35.1710   45.3710 C   0  0  0  0  0  3  0  0  0  0  0  0
   45.3780   34.1490   45.9670 C   0  0  0  0  0  3  0  0  0  0  0  0
   46.0310   33.2430   45.1920 C   0  0  0  0  0  3  0  0  0  0  0  0
   45.9860   33.3530   43.8230 C   0  0  0  0  0  3  0  0  0  0  0  0
   45.3040   34.3490   43.1380 C   0  0  0  0  0  0  0  0  0  0  0  0
   43.5040   36.9220   43.5720 H   0  0  0  0  0  0  0  0  0  0  0  0
   50.6840   30.9150   42.0880 S   0  0  0  0  0  0  0  0  0  0  0  0
   49.5790   28.8670   45.2730 N   0  0  0  0  0  0  0  0  0  0  0  0
   50.5130   29.1660   44.4090 N   0  0  0  0  0  0  0  0  0  0  0  0
   50.0180   30.0950   43.5460 C   0  0  0  0  0  0  0  0  0  0  0  0
   48.7200   30.3140   43.9850 C   0  0  0  0  0  3  0  0  0  0  0  0
   48.4630   29.4980   45.1110 C   0  0  0  0  0  0  0  0  0  0  0  0
   49.7220   28.1790   46.0270 H   0  0  0  0  0  0  0  0  0  0  0  0
   47.1770   29.5180   45.6960 C   0  0  0  0  0  0  0  0  0  0  0  0
   46.1840   28.7470   45.1660 N   0  0  0  0  0  0  0  0  0  0  0  0
   44.9550   28.6350   45.6300 C   0  0  0  0  0  3  0  0  0  0  0  0
   44.5380   29.2940   46.7180 N   0  0  0  0  0  0  0  0  0  0  0  0
   45.4320   30.0950   47.3330 C   0  0  0  0  0  0  0  0  0  0  0  0
   45.0640   30.7970   48.4440 C   0  0  0  0  0  3  0  0  0  0  0  0
   45.9610   31.6400   49.1010 C   0  0  0  0  0  3  0  0  0  0  0  0
   47.2490   31.7240   48.5590 C   0  0  0  0  0  3  0  0  0  0  0  0
   47.5240   30.9820   47.4450 C   0  0  0  0  0  3  0  0  0  0  0  0
   46.6860   30.1570   46.7860 C   0  0  0  0  0  0  0  0  0  0  0  0
  1  6  1  0  0  0  0
  2  1  2  0  0  0  0
  3  4  2  0  0  0  0
  3  2  1  0  0  0  0
  4  5  1  0  0  0  0
  5 19  1  0  0  0  0
  5  6  2  0  0  0  0
  7  8  1  0  0  0  0
  7  3  1  0  0  0  0
  8  9  1  0  0  0  0
  9 10  2  0  0  0  0
  9 17  1  0  0  0  0
 10 11  1  0  0  0  0
 11 18  1  0  0  0  0
 11 12  1  0  0  0  0
 12 13  1  0  0  0  0
 13 14  2  0  0  0  0
 15 14  1  0  0  0  0
 16 15  2  0  0  0  0
 17 16  1  0  0  0  0
 17 12  2  0  0  0  0
 19 22  1  0  0  0  0
 20 25  1  0  0  0  0
 21 20  1  0  0  0  0
 22 23  1  0  0  0  0
 22 21  2  0  0  0  0
 23 24  2  0  0  0  0
 24 20  1  0  0  0  0
 24 26  1  0  0  0  0
 26 35  1  0  0  0  0
 27 28  1  0  0  0  0
 27 26  2  0  0  0  0
 28 29  2  0  0  0  0
 29 30  1  0  0  0  0
 30 31  1  0  0  0  0
 31 32  2  0  0  0  0
 33 32  1  0  0  0  0
 34 33  2  0  0  0  0
 35 30  2  0  0  0  0
 35 34  1  0  0  0  0
M  END
>  <minimizedAffinity>
-7.05425596

$$$$

 OpenBabel03242510183D

 35 40  0  0  0  0  0  0  0  0999 V2000
   48.3710   31.9400   40.3430 C   0  0  0  0  0  3  0  0  0  0  0  0
   48.5570   30.9650   41.3450 C   0  0  0  0  0  3  0  0  0  0  0  0
   48.3010   31.2790   42.6310 C   0  0  0  0  0  0  0  0  0  0  0  0
   47.8730   32.5370   42.8930 N   0  0  0  0  0  0  0  0  0  0  0  0
   47.6950   33.4670   41.9470 C   0  0  0  0  0  0  0  0  0  0  0  0
   47.9430   33.1630   40.6950 N   0  0  0  0  0  0  0  0  0  0  0  0
   48.5100   30.2120   43.6240 C   0  0  0  0  0  2  0  0  0  0  0  0
   47.3920   29.8570   44.4770 C   0  0  0  0  0  2  0  0  0  0  0  0
   47.5110   29.6880   45.9210 C   0  0  0  0  0  0  0  0  0  0  0  0
   48.0320   28.8420   46.9140 C   0  0  0  0  0  3  0  0  0  0  0  0
   47.7340   29.2270   48.1450 N   0  0  0  0  0  0  0  0  0  0  0  0
   47.0020   30.3390   48.0810 C   0  0  0  0  0  0  0  0  0  0  0  0
   46.4880   31.0510   49.1360 C   0  0  0  0  0  3  0  0  0  0  0  0
   45.7470   32.1740   48.8450 C   0  0  0  0  0  3  0  0  0  0  0  0
   45.5560   32.5330   47.5480 C   0  0  0  0  0  3  0  0  0  0  0  0
   46.1000   31.7740   46.5390 C   0  0  0  0  0  3  0  0  0  0  0  0
   46.8580   30.6300   46.7400 C   0  0  0  0  0  0  0  0  0  0  0  0
   48.0200   28.7470   49.0100 H   0  0  0  0  0  0  0  0  0  0  0  0
   47.1350   35.1230   42.3620 S   0  0  0  0  0  0  0  0  0  0  0  0
   43.2180   35.4460   42.7010 N   0  0  0  0  0  0  0  0  0  0  0  0
   44.4060   35.8290   43.0890 N   0  0  0  0  0  0  0  0  0  0  0  0
   45.3360   35.1630   42.3510 C   0  0  0  0  0  0  0  0  0  0  0  0
   44.5860   34.3640   41.4970 C   0  0  0  0  0  3  0  0  0  0  0  0
   43.2110   34.5690   41.7510 C   0  0  0  0  0  0  0  0  0  0  0  0
   42.3530   35.8150   43.1210 H   0  0  0  0  0  0  0  0  0  0  0  0
   42.2580   33.8160   41.0290 C   0  0  0  0  0  0  0  0  0  0  0  0
   41.9010   32.5770   41.4750 N   0  0  0  0  0  0  0  0  0  0  0  0
   41.0000   31.7850   40.9300 C   0  0  0  0  0  3  0  0  0  0  0  0
   40.3130   32.1280   39.8340 N   0  0  0  0  0  0  0  0  0  0  0  0
   40.5800   33.3350   39.2940 C   0  0  0  0  0  0  0  0  0  0  0  0
   39.9150   33.7410   38.1730 C   0  0  0  0  0  3  0  0  0  0  0  0
   40.1720   34.9790   37.5840 C   0  0  0  0  0  3  0  0  0  0  0  0
   41.1420   35.7750   38.2030 C   0  0  0  0  0  3  0  0  0  0  0  0
   41.7530   35.2840   39.3230 C   0  0  0  0  0  3  0  0  0  0  0  0
   41.5310   34.0970   39.9200 C   0  0  0  0  0  0  0  0  0  0  0  0
  1  6  2  0  0  0  0
  1  2  1  0  0  0  0
  2  3  2  0  0  0  0
  3  4  1  0  0  0  0
  3  7  1  0  0  0  0
  5 19  1  0  0  0  0
  5  4  2  0  0  0  0
  6  5  1  0  0  0  0
  7  8  1  0  0  0  0
  8  9  1  0  0  0  0
  9 17  1  0  0  0  0
  9 10  2  0  0  0  0
 10 11  1  0  0  0  0
 11 18  1  0  0  0  0
 12 11  1  0  0  0  0
 12 13  1  0  0  0  0
 14 13  2  0  0  0  0
 15 14  1  0  0  0  0
 16 17  1  0  0  0  0
 16 15  2  0  0  0  0
 17 12  2  0  0  0  0
 20 21  1  0  0  0  0
 20 25  1  0  0  0  0
 22 19  1  0  0  0  0
 22 21  2  0  0  0  0
 23 24  2  0  0  0  0
 23 22  1  0  0  0  0
 24 20  1  0  0  0  0
 26 27  1  0  0  0  0
 26 24  1  0  0  0  0
 28 27  2  0  0  0  0
 29 28  1  0  0  0  0
 30 29  2  0  0  0  0
 30 35  1  0  0  0  0
 31 30  1  0  0  0  0
 32 31  2  0  0  0  0
 32 33  1  0  0  0  0
 33 34  2  0  0  0  0
 34 35  1  0  0  0  0
 35 26  2  0  0  0  0
M  END
>  <minimizedAffinity>
-7.04605722

$$$$
