
 OpenBabel03242510073D

 38 43  0  0  0  0  0  0  0  0999 V2000
   47.3880   33.2740   41.2390 C   0  0  0  0  0  0  0  0  0  0  0  0
   47.6500   34.1840   40.2350 C   0  0  0  0  0  3  0  0  0  0  0  0
   48.4560   35.3090   40.4700 C   0  0  0  0  0  3  0  0  0  0  0  0
   49.0170   35.5440   41.7130 C   0  0  0  0  0  3  0  0  0  0  0  0
   48.7530   34.6430   42.6990 C   0  0  0  0  0  3  0  0  0  0  0  0
   47.9640   33.5520   42.4490 C   0  0  0  0  0  0  0  0  0  0  0  0
   47.7100   32.6260   43.5120 N   0  0  0  0  0  0  0  0  0  0  0  0
   48.1170   31.3840   43.8390 C   0  0  0  0  0  3  0  0  0  0  0  0
   47.5390   30.9980   44.9740 N   0  0  0  0  0  0  0  0  0  0  0  0
   46.7450   31.9610   45.4200 C   0  0  0  0  0  0  0  0  0  0  0  0
   45.9310   32.0860   46.5180 C   0  0  0  0  0  0  0  0  0  0  0  0
   45.8130   31.1580   47.3810 O   0  0  0  0  0  0  0  0  0  0  0  0
   45.2040   33.1790   46.7660 N   0  0  0  0  0  0  0  0  0  0  0  0
   45.3220   34.1750   45.8520 C   0  0  0  0  0  0  0  0  0  0  0  0
   44.6530   35.4490   45.8800 N   0  0  0  0  0  0  0  0  0  0  0  0
   46.0980   34.0930   44.7760 N   0  0  0  0  0  0  0  0  0  0  0  0
   46.8470   32.9880   44.5050 C   0  0  0  0  0  0  0  0  0  0  0  0
   44.5960   33.2600   47.5940 H   0  0  0  0  0  0  0  0  0  0  0  0
   44.8170   36.1340   45.1280 H   0  0  0  0  0  0  0  0  0  0  0  0
   44.0090   35.6760   46.6510 H   0  0  0  0  0  0  0  0  0  0  0  0
   46.5430   32.1300   40.9270 C   0  0  0  0  0  0  0  0  0  0  0  0
   47.1020   31.2510   40.2180 O   0  0  0  0  0  0  0  0  0  0  0  0
   42.8970   32.6750   41.4070 C   0  0  0  0  0  0  0  0  0  0  0  0
   42.6350   31.5630   42.2270 C   0  0  0  0  0  3  0  0  0  0  0  0
   43.6330   30.6610   42.6130 C   0  0  0  0  0  3  0  0  0  0  0  0
   44.8790   30.9220   42.1440 N   0  0  0  0  0  0  0  0  0  0  0  0
   45.1580   31.9590   41.3700 C   0  0  0  0  0  0  0  0  0  0  0  0
   44.1850   32.8050   41.0170 N   0  0  0  0  0  0  0  0  0  0  0  0
   42.0330   33.6720   40.9050 C   0  0  0  0  0  0  0  0  0  0  0  0
   42.1010   34.9150   41.5630 C   0  0  0  0  0  3  0  0  0  0  0  0
   41.3340   36.0190   41.2190 C   0  0  0  0  0  3  0  0  0  0  0  0
   40.4410   35.8900   40.1540 C   0  0  0  0  0  3  0  0  0  0  0  0
   40.3350   34.6930   39.4740 C   0  0  0  0  0  0  0  0  0  0  0  0
   39.4640   34.5510   38.4280 C   0  0  0  0  0  3  0  0  0  0  0  0
   39.3230   33.3930   37.7270 C   0  0  0  0  0  3  0  0  0  0  0  0
   40.1290   32.3690   38.1540 C   0  0  0  0  0  3  0  0  0  0  0  0
   41.0010   32.4980   39.1960 C   0  0  0  0  0  3  0  0  0  0  0  0
   41.1280   33.6620   39.8830 C   0  0  0  0  0  0  0  0  0  0  0  0
  1  6  1  0  0  0  0
  2  3  1  0  0  0  0
  2  1  2  0  0  0  0
  3  4  2  0  0  0  0
  4  5  1  0  0  0  0
  6  5  2  0  0  0  0
  6  7  1  0  0  0  0
  7  8  1  0  0  0  0
  7 17  1  0  0  0  0
  8  9  2  0  0  0  0
  9 10  1  0  0  0  0
 10 11  1  0  0  0  0
 11 13  1  0  0  0  0
 11 12  2  0  0  0  0
 13 18  1  0  0  0  0
 14 15  1  0  0  0  0
 14 13  1  0  0  0  0
 15 20  1  0  0  0  0
 16 14  2  0  0  0  0
 17 16  1  0  0  0  0
 17 10  2  0  0  0  0
 19 15  1  0  0  0  0
 21  1  1  0  0  0  0
 21 27  1  0  0  0  0
 22 21  2  0  0  0  0
 23 24  1  0  0  0  0
 24 25  2  0  0  0  0
 26 25  1  0  0  0  0
 27 26  2  0  0  0  0
 28 27  1  0  0  0  0
 28 23  2  0  0  0  0
 29 23  1  0  0  0  0
 29 30  1  0  0  0  0
 31 30  2  0  0  0  0
 32 31  1  0  0  0  0
 33 38  1  0  0  0  0
 33 32  2  0  0  0  0
 34 33  1  0  0  0  0
 35 36  1  0  0  0  0
 35 34  2  0  0  0  0
 36 37  2  0  0  0  0
 37 38  1  0  0  0  0
 38 29  2  0  0  0  0
M  END
>  <minimizedAffinity>
-8.55464172

$$$$

 OpenBabel03242510073D

 38 43  0  0  0  0  0  0  0  0999 V2000
   48.6400   33.2470   41.8240 C   0  0  0  0  0  0  0  0  0  0  0  0
   49.7960   33.6480   42.4630 C   0  0  0  0  0  3  0  0  0  0  0  0
   50.1840   34.9970   42.4760 C   0  0  0  0  0  3  0  0  0  0  0  0
   49.4250   35.9710   41.8510 C   0  0  0  0  0  3  0  0  0  0  0  0
   48.2880   35.5680   41.2220 C   0  0  0  0  0  3  0  0  0  0  0  0
   47.9250   34.2470   41.2200 C   0  0  0  0  0  0  0  0  0  0  0  0
   46.7210   33.8620   40.5470 N   0  0  0  0  0  0  0  0  0  0  0  0
   46.4060   33.2320   39.3990 C   0  0  0  0  0  3  0  0  0  0  0  0
   45.0840   33.1450   39.2740 N   0  0  0  0  0  0  0  0  0  0  0  0
   44.4990   33.7080   40.3210 C   0  0  0  0  0  0  0  0  0  0  0  0
   43.1890   33.8930   40.6900 C   0  0  0  0  0  0  0  0  0  0  0  0
   42.2210   33.4870   39.9710 O   0  0  0  0  0  0  0  0  0  0  0  0
   42.8300   34.5060   41.8210 N   0  0  0  0  0  0  0  0  0  0  0  0
   43.8560   34.9430   42.5960 C   0  0  0  0  0  0  0  0  0  0  0  0
   43.7460   35.6300   43.8570 N   0  0  0  0  0  0  0  0  0  0  0  0
   45.1350   34.7850   42.2750 N   0  0  0  0  0  0  0  0  0  0  0  0
   45.5230   34.1620   41.1260 C   0  0  0  0  0  0  0  0  0  0  0  0
   41.8430   34.6380   42.0870 H   0  0  0  0  0  0  0  0  0  0  0  0
   44.5970   35.9170   44.3620 H   0  0  0  0  0  0  0  0  0  0  0  0
   42.8180   35.8340   44.2530 H   0  0  0  0  0  0  0  0  0  0  0  0
   48.2960   31.8330   41.8480 C   0  0  0  0  0  0  0  0  0  0  0  0
   47.7100   31.4250   40.8090 O   0  0  0  0  0  0  0  0  0  0  0  0
   47.9110   29.8030   44.9390 C   0  0  0  0  0  0  0  0  0  0  0  0
   49.1840   29.2040   44.9430 C   0  0  0  0  0  3  0  0  0  0  0  0
   50.1420   29.4640   43.9560 C   0  0  0  0  0  3  0  0  0  0  0  0
   49.7680   30.3340   42.9840 N   0  0  0  0  0  0  0  0  0  0  0  0
   48.5790   30.9140   42.9520 C   0  0  0  0  0  0  0  0  0  0  0  0
   47.6830   30.6480   43.9070 N   0  0  0  0  0  0  0  0  0  0  0  0
   46.8230   29.6570   45.8240 C   0  0  0  0  0  0  0  0  0  0  0  0
   45.9650   28.5740   45.5500 C   0  0  0  0  0  3  0  0  0  0  0  0
   44.8420   28.2630   46.3050 C   0  0  0  0  0  3  0  0  0  0  0  0
   44.5450   29.0720   47.4020 C   0  0  0  0  0  3  0  0  0  0  0  0
   45.3530   30.1480   47.7140 C   0  0  0  0  0  0  0  0  0  0  0  0
   45.0740   30.9500   48.7870 C   0  0  0  0  0  3  0  0  0  0  0  0
   45.8390   32.0210   49.1350 C   0  0  0  0  0  3  0  0  0  0  0  0
   46.9210   32.2350   48.3220 C   0  0  0  0  0  3  0  0  0  0  0  0
   47.2090   31.4420   47.2490 C   0  0  0  0  0  3  0  0  0  0  0  0
   46.4350   30.3780   46.9170 C   0  0  0  0  0  0  0  0  0  0  0  0
  1 21  1  0  0  0  0
  1  2  1  0  0  0  0
  2  3  2  0  0  0  0
  4  3  1  0  0  0  0
  5  4  2  0  0  0  0
  6  5  1  0  0  0  0
  6  1  2  0  0  0  0
  7 17  1  0  0  0  0
  7  6  1  0  0  0  0
  8  7  1  0  0  0  0
  9  8  2  0  0  0  0
  9 10  1  0  0  0  0
 10 11  1  0  0  0  0
 10 17  2  0  0  0  0
 11 13  1  0  0  0  0
 12 11  2  0  0  0  0
 13 18  1  0  0  0  0
 13 14  1  0  0  0  0
 14 15  1  0  0  0  0
 15 20  1  0  0  0  0
 15 19  1  0  0  0  0
 16 14  2  0  0  0  0
 17 16  1  0  0  0  0
 21 27  1  0  0  0  0
 22 21  2  0  0  0  0
 23 24  1  0  0  0  0
 23 29  1  0  0  0  0
 25 24  2  0  0  0  0
 26 25  1  0  0  0  0
 27 26  2  0  0  0  0
 27 28  1  0  0  0  0
 28 23  2  0  0  0  0
 29 38  1  0  0  0  0
 30 29  2  0  0  0  0
 30 31  1  0  0  0  0
 31 32  2  0  0  0  0
 32 33  1  0  0  0  0
 33 34  1  0  0  0  0
 34 35  2  0  0  0  0
 36 35  1  0  0  0  0
 37 36  2  0  0  0  0
 38 37  1  0  0  0  0
 38 33  2  0  0  0  0
M  END
>  <minimizedAffinity>
-8.00337219

$$$$

 OpenBabel03242510073D

 38 43  0  0  0  0  0  0  0  0999 V2000
   48.3520   32.8790   41.7850 C   0  0  0  0  0  0  0  0  0  0  0  0
   49.6630   32.8650   42.2170 C   0  0  0  0  0  3  0  0  0  0  0  0
   50.3650   34.0610   42.4340 C   0  0  0  0  0  3  0  0  0  0  0  0
   49.7710   35.2930   42.2240 C   0  0  0  0  0  3  0  0  0  0  0  0
   48.4780   35.2980   41.7980 C   0  0  0  0  0  3  0  0  0  0  0  0
   47.8090   34.1210   41.5910 C   0  0  0  0  0  0  0  0  0  0  0  0
   46.4500   34.1680   41.1420 N   0  0  0  0  0  0  0  0  0  0  0  0
   45.7810   33.8240   40.0240 C   0  0  0  0  0  3  0  0  0  0  0  0
   44.4870   34.1020   40.1630 N   0  0  0  0  0  0  0  0  0  0  0  0
   44.2700   34.6300   41.3590 C   0  0  0  0  0  0  0  0  0  0  0  0
   43.1480   35.0890   42.0040 C   0  0  0  0  0  0  0  0  0  0  0  0
   41.9980   35.0620   41.4590 O   0  0  0  0  0  0  0  0  0  0  0  0
   43.1720   35.5940   43.2400 N   0  0  0  0  0  0  0  0  0  0  0  0
   44.3950   35.6270   43.8300 C   0  0  0  0  0  0  0  0  0  0  0  0
   44.6980   36.1180   45.1490 N   0  0  0  0  0  0  0  0  0  0  0  0
   45.5040   35.1950   43.2400 N   0  0  0  0  0  0  0  0  0  0  0  0
   45.5010   34.6760   41.9800 C   0  0  0  0  0  0  0  0  0  0  0  0
   42.3230   35.9340   43.7130 H   0  0  0  0  0  0  0  0  0  0  0  0
   45.6670   36.0950   45.4960 H   0  0  0  0  0  0  0  0  0  0  0  0
   43.9450   36.4930   45.7440 H   0  0  0  0  0  0  0  0  0  0  0  0
   47.6820   31.6030   41.5790 C   0  0  0  0  0  0  0  0  0  0  0  0
   47.8410   31.1140   40.4280 O   0  0  0  0  0  0  0  0  0  0  0  0
   46.2680   30.5190   44.8420 C   0  0  0  0  0  0  0  0  0  0  0  0
   45.3600   29.5600   44.3580 C   0  0  0  0  0  3  0  0  0  0  0  0
   45.2200   29.2780   42.9940 C   0  0  0  0  0  3  0  0  0  0  0  0
   46.0160   29.9900   42.1580 N   0  0  0  0  0  0  0  0  0  0  0  0
   46.8800   30.8990   42.5820 C   0  0  0  0  0  0  0  0  0  0  0  0
   46.9930   31.1490   43.8910 N   0  0  0  0  0  0  0  0  0  0  0  0
   46.5370   30.9480   46.1590 C   0  0  0  0  0  0  0  0  0  0  0  0
   45.6770   31.9470   46.6550 C   0  0  0  0  0  3  0  0  0  0  0  0
   45.7770   32.4980   47.9240 C   0  0  0  0  0  3  0  0  0  0  0  0
   46.7920   32.0330   48.7620 C   0  0  0  0  0  3  0  0  0  0  0  0
   47.6620   31.0540   48.3260 C   0  0  0  0  0  0  0  0  0  0  0  0
   48.6620   30.5880   49.1360 C   0  0  0  0  0  3  0  0  0  0  0  0
   49.5440   29.6250   48.7520 C   0  0  0  0  0  3  0  0  0  0  0  0
   49.3530   29.1540   47.4800 C   0  0  0  0  0  3  0  0  0  0  0  0
   48.3600   29.6110   46.6620 C   0  0  0  0  0  3  0  0  0  0  0  0
   47.4880   30.5710   47.0630 C   0  0  0  0  0  0  0  0  0  0  0  0
  1  2  1  0  0  0  0
  2  3  2  0  0  0  0
  4  3  1  0  0  0  0
  5  4  2  0  0  0  0
  6  1  2  0  0  0  0
  6  5  1  0  0  0  0
  7  6  1  0  0  0  0
  7 17  1  0  0  0  0
  8  9  2  0  0  0  0
  8  7  1  0  0  0  0
  9 10  1  0  0  0  0
 10 17  2  0  0  0  0
 10 11  1  0  0  0  0
 11 13  1  0  0  0  0
 12 11  2  0  0  0  0
 13 18  1  0  0  0  0
 13 14  1  0  0  0  0
 14 15  1  0  0  0  0
 15 19  1  0  0  0  0
 15 20  1  0  0  0  0
 16 14  2  0  0  0  0
 17 16  1  0  0  0  0
 21  1  1  0  0  0  0
 21 27  1  0  0  0  0
 22 21  2  0  0  0  0
 23 29  1  0  0  0  0
 24 23  1  0  0  0  0
 25 24  2  0  0  0  0
 26 27  2  0  0  0  0
 26 25  1  0  0  0  0
 27 28  1  0  0  0  0
 28 23  2  0  0  0  0
 29 30  2  0  0  0  0
 29 38  1  0  0  0  0
 30 31  1  0  0  0  0
 31 32  2  0  0  0  0
 33 32  1  0  0  0  0
 33 34  1  0  0  0  0
 35 34  2  0  0  0  0
 36 35  1  0  0  0  0
 37 38  1  0  0  0  0
 37 36  2  0  0  0  0
 38 33  2  0  0  0  0
M  END
>  <minimizedAffinity>
-7.97577

$$$$

 OpenBabel03242510073D

 38 43  0  0  0  0  0  0  0  0999 V2000
   47.1850   33.8190   41.7060 C   0  0  0  0  0  0  0  0  0  0  0  0
   47.5450   34.7870   40.7910 C   0  0  0  0  0  3  0  0  0  0  0  0
   48.7020   35.5600   40.9720 C   0  0  0  0  0  3  0  0  0  0  0  0
   49.5230   35.3800   42.0720 C   0  0  0  0  0  3  0  0  0  0  0  0
   49.1610   34.4240   42.9720 C   0  0  0  0  0  3  0  0  0  0  0  0
   48.0270   33.6810   42.7770 C   0  0  0  0  0  0  0  0  0  0  0  0
   47.6800   32.6840   43.7460 N   0  0  0  0  0  0  0  0  0  0  0  0
   48.0310   31.4080   43.9980 C   0  0  0  0  0  3  0  0  0  0  0  0
   47.3710   30.9550   45.0610 N   0  0  0  0  0  0  0  0  0  0  0  0
   46.5780   31.9060   45.5320 C   0  0  0  0  0  0  0  0  0  0  0  0
   45.6990   31.9730   46.5850 C   0  0  0  0  0  0  0  0  0  0  0  0
   45.5010   30.9860   47.3640 O   0  0  0  0  0  0  0  0  0  0  0  0
   44.9890   33.0670   46.8740 N   0  0  0  0  0  0  0  0  0  0  0  0
   45.1930   34.1270   46.0500 C   0  0  0  0  0  0  0  0  0  0  0  0
   44.5600   35.4170   46.1380 N   0  0  0  0  0  0  0  0  0  0  0  0
   46.0330   34.1020   45.0210 N   0  0  0  0  0  0  0  0  0  0  0  0
   46.7670   32.9970   44.7090 C   0  0  0  0  0  0  0  0  0  0  0  0
   44.3330   33.1050   47.6670 H   0  0  0  0  0  0  0  0  0  0  0  0
   44.7920   36.1510   45.4540 H   0  0  0  0  0  0  0  0  0  0  0  0
   43.8760   35.6040   46.8840 H   0  0  0  0  0  0  0  0  0  0  0  0
   45.9720   33.0530   41.4580 C   0  0  0  0  0  0  0  0  0  0  0  0
   46.1700   31.8310   41.2240 O   0  0  0  0  0  0  0  0  0  0  0  0
   42.2900   33.3630   41.0520 C   0  0  0  0  0  0  0  0  0  0  0  0
   42.1470   34.6810   41.5220 C   0  0  0  0  0  3  0  0  0  0  0  0
   43.2360   35.4470   41.9580 C   0  0  0  0  0  3  0  0  0  0  0  0
   44.4470   34.8380   41.9020 N   0  0  0  0  0  0  0  0  0  0  0  0
   44.6140   33.5990   41.4660 C   0  0  0  0  0  0  0  0  0  0  0  0
   43.5570   32.8910   41.0560 N   0  0  0  0  0  0  0  0  0  0  0  0
   41.3260   32.4420   40.5930 C   0  0  0  0  0  0  0  0  0  0  0  0
   40.8550   32.6630   39.2840 C   0  0  0  0  0  3  0  0  0  0  0  0
   39.9080   31.8670   38.6550 C   0  0  0  0  0  3  0  0  0  0  0  0
   39.3920   30.7800   39.3610 C   0  0  0  0  0  3  0  0  0  0  0  0
   39.8190   30.5170   40.6470 C   0  0  0  0  0  0  0  0  0  0  0  0
   39.3220   29.4550   41.3510 C   0  0  0  0  0  3  0  0  0  0  0  0
   39.7110   29.1550   42.6210 C   0  0  0  0  0  3  0  0  0  0  0  0
   40.6480   30.0070   43.1440 C   0  0  0  0  0  3  0  0  0  0  0  0
   41.1520   31.0700   42.4520 C   0  0  0  0  0  3  0  0  0  0  0  0
   40.7520   31.3530   41.1860 C   0  0  0  0  0  0  0  0  0  0  0  0
  1  6  1  0  0  0  0
  2  3  1  0  0  0  0
  2  1  2  0  0  0  0
  3  4  2  0  0  0  0
  4  5  1  0  0  0  0
  6  5  2  0  0  0  0
  6  7  1  0  0  0  0
  7  8  1  0  0  0  0
  7 17  1  0  0  0  0
  8  9  2  0  0  0  0
  9 10  1  0  0  0  0
 10 11  1  0  0  0  0
 11 13  1  0  0  0  0
 11 12  2  0  0  0  0
 13 18  1  0  0  0  0
 14 15  1  0  0  0  0
 14 13  1  0  0  0  0
 15 20  1  0  0  0  0
 16 14  2  0  0  0  0
 17 16  1  0  0  0  0
 17 10  2  0  0  0  0
 19 15  1  0  0  0  0
 21 27  1  0  0  0  0
 21  1  1  0  0  0  0
 22 21  2  0  0  0  0
 23 28  2  0  0  0  0
 23 24  1  0  0  0  0
 24 25  2  0  0  0  0
 26 25  1  0  0  0  0
 27 26  2  0  0  0  0
 28 27  1  0  0  0  0
 29 23  1  0  0  0  0
 29 38  1  0  0  0  0
 30 29  2  0  0  0  0
 31 30  1  0  0  0  0
 31 32  2  0  0  0  0
 32 33  1  0  0  0  0
 33 38  2  0  0  0  0
 33 34  1  0  0  0  0
 34 35  2  0  0  0  0
 35 36  1  0  0  0  0
 37 36  2  0  0  0  0
 38 37  1  0  0  0  0
M  END
>  <minimizedAffinity>
-7.96352243

$$$$

 OpenBabel03242510073D

 38 43  0  0  0  0  0  0  0  0999 V2000
   48.2510   32.2320   41.2760 C   0  0  0  0  0  0  0  0  0  0  0  0
   49.3330   31.4860   40.8560 C   0  0  0  0  0  3  0  0  0  0  0  0
   50.6410   31.8380   41.2240 C   0  0  0  0  0  3  0  0  0  0  0  0
   50.8920   32.9430   42.0190 C   0  0  0  0  0  3  0  0  0  0  0  0
   49.8190   33.6750   42.4280 C   0  0  0  0  0  3  0  0  0  0  0  0
   48.5510   33.3150   42.0580 C   0  0  0  0  0  0  0  0  0  0  0  0
   47.4480   34.1110   42.5090 N   0  0  0  0  0  0  0  0  0  0  0  0
   46.7210   35.1330   42.0180 C   0  0  0  0  0  3  0  0  0  0  0  0
   45.7890   35.4930   42.8970 N   0  0  0  0  0  0  0  0  0  0  0  0
   45.8750   34.7290   43.9770 C   0  0  0  0  0  0  0  0  0  0  0  0
   45.1760   34.6730   45.1570 C   0  0  0  0  0  0  0  0  0  0  0  0
   44.2100   35.4620   45.4080 O   0  0  0  0  0  0  0  0  0  0  0  0
   45.4510   33.7960   46.1260 N   0  0  0  0  0  0  0  0  0  0  0  0
   46.4810   32.9490   45.8690 C   0  0  0  0  0  0  0  0  0  0  0  0
   46.9800   31.9160   46.7380 N   0  0  0  0  0  0  0  0  0  0  0  0
   47.1820   32.9720   44.7410 N   0  0  0  0  0  0  0  0  0  0  0  0
   46.9180   33.8580   43.7390 C   0  0  0  0  0  0  0  0  0  0  0  0
   44.9190   33.7640   47.0080 H   0  0  0  0  0  0  0  0  0  0  0  0
   47.7710   31.3280   46.4380 H   0  0  0  0  0  0  0  0  0  0  0  0
   46.5450   31.7630   47.6590 H   0  0  0  0  0  0  0  0  0  0  0  0
   46.9210   31.8120   40.8580 C   0  0  0  0  0  0  0  0  0  0  0  0
   46.3810   30.9660   41.6210 O   0  0  0  0  0  0  0  0  0  0  0  0
   44.2180   32.9260   38.5610 C   0  0  0  0  0  0  0  0  0  0  0  0
   45.0130   33.1900   37.4310 C   0  0  0  0  0  3  0  0  0  0  0  0
   46.4000   33.0030   37.4260 C   0  0  0  0  0  3  0  0  0  0  0  0
   46.9400   32.5510   38.5860 N   0  0  0  0  0  0  0  0  0  0  0  0
   46.2200   32.2930   39.6660 C   0  0  0  0  0  0  0  0  0  0  0  0
   44.8960   32.4810   39.6430 N   0  0  0  0  0  0  0  0  0  0  0  0
   42.8290   33.0660   38.7610 C   0  0  0  0  0  0  0  0  0  0  0  0
   42.0210   32.1840   38.0170 C   0  0  0  0  0  3  0  0  0  0  0  0
   40.6350   32.1650   38.0760 C   0  0  0  0  0  3  0  0  0  0  0  0
   40.0020   33.0730   38.9250 C   0  0  0  0  0  3  0  0  0  0  0  0
   40.7470   33.9600   39.6780 C   0  0  0  0  0  0  0  0  0  0  0  0
   40.1400   34.8560   40.5140 C   0  0  0  0  0  3  0  0  0  0  0  0
   40.8300   35.7500   41.2760 C   0  0  0  0  0  3  0  0  0  0  0  0
   42.1920   35.6810   41.1380 C   0  0  0  0  0  3  0  0  0  0  0  0
   42.8080   34.7910   40.3060 C   0  0  0  0  0  3  0  0  0  0  0  0
   42.1040   33.9070   39.5550 C   0  0  0  0  0  0  0  0  0  0  0  0
  1  6  1  0  0  0  0
  2  3  1  0  0  0  0
  2  1  2  0  0  0  0
  3  4  2  0  0  0  0
  4  5  1  0  0  0  0
  6  5  2  0  0  0  0
  6  7  1  0  0  0  0
  7 17  1  0  0  0  0
  8  7  1  0  0  0  0
  8  9  2  0  0  0  0
  9 10  1  0  0  0  0
 10 11  1  0  0  0  0
 11 12  2  0  0  0  0
 11 13  1  0  0  0  0
 13 18  1  0  0  0  0
 14 13  1  0  0  0  0
 14 15  1  0  0  0  0
 15 20  1  0  0  0  0
 16 14  2  0  0  0  0
 17 10  2  0  0  0  0
 17 16  1  0  0  0  0
 19 15  1  0  0  0  0
 21  1  1  0  0  0  0
 21 22  2  0  0  0  0
 23 29  1  0  0  0  0
 23 28  1  0  0  0  0
 24 23  2  0  0  0  0
 25 24  1  0  0  0  0
 25 26  2  0  0  0  0
 26 27  1  0  0  0  0
 27 21  1  0  0  0  0
 28 27  2  0  0  0  0
 29 38  1  0  0  0  0
 30 31  1  0  0  0  0
 30 29  2  0  0  0  0
 31 32  2  0  0  0  0
 32 33  1  0  0  0  0
 33 34  1  0  0  0  0
 34 35  2  0  0  0  0
 36 35  1  0  0  0  0
 37 36  2  0  0  0  0
 38 33  2  0  0  0  0
 38 37  1  0  0  0  0
M  END
>  <minimizedAffinity>
-7.85546732

$$$$

 OpenBabel03242510073D

 38 43  0  0  0  0  0  0  0  0999 V2000
   46.0580   34.5630   41.5720 C   0  0  0  0  0  0  0  0  0  0  0  0
   47.3710   34.9190   41.3380 C   0  0  0  0  0  3  0  0  0  0  0  0
   48.0890   34.3680   40.2650 C   0  0  0  0  0  3  0  0  0  0  0  0
   47.5090   33.4510   39.4070 C   0  0  0  0  0  3  0  0  0  0  0  0
   46.2140   33.1040   39.6450 C   0  0  0  0  0  3  0  0  0  0  0  0
   45.5300   33.6530   40.6970 C   0  0  0  0  0  0  0  0  0  0  0  0
   44.1690   33.2630   40.9140 N   0  0  0  0  0  0  0  0  0  0  0  0
   43.5170   32.4320   41.7510 C   0  0  0  0  0  3  0  0  0  0  0  0
   42.2110   32.4630   41.4970 N   0  0  0  0  0  0  0  0  0  0  0  0
   41.9700   33.3020   40.5000 C   0  0  0  0  0  0  0  0  0  0  0  0
   40.8270   33.7020   39.8510 C   0  0  0  0  0  0  0  0  0  0  0  0
   39.6790   33.2540   40.1690 O   0  0  0  0  0  0  0  0  0  0  0  0
   40.8290   34.5820   38.8470 N   0  0  0  0  0  0  0  0  0  0  0  0
   42.0490   35.0650   38.5000 C   0  0  0  0  0  0  0  0  0  0  0  0
   42.3300   36.0190   37.4580 N   0  0  0  0  0  0  0  0  0  0  0  0
   43.1770   34.7040   39.1010 N   0  0  0  0  0  0  0  0  0  0  0  0
   43.1980   33.8080   40.1280 C   0  0  0  0  0  0  0  0  0  0  0  0
   39.9640   34.8730   38.3680 H   0  0  0  0  0  0  0  0  0  0  0  0
   43.3000   36.3170   37.2810 H   0  0  0  0  0  0  0  0  0  0  0  0
   41.5610   36.4020   36.8900 H   0  0  0  0  0  0  0  0  0  0  0  0
   45.3720   35.1720   42.7030 C   0  0  0  0  0  0  0  0  0  0  0  0
   44.7770   36.2500   42.4280 O   0  0  0  0  0  0  0  0  0  0  0  0
   45.9260   32.9490   45.6300 C   0  0  0  0  0  0  0  0  0  0  0  0
   45.2300   33.7060   46.5900 C   0  0  0  0  0  3  0  0  0  0  0  0
   44.5950   34.9140   46.2800 C   0  0  0  0  0  3  0  0  0  0  0  0
   44.6900   35.3170   44.9880 N   0  0  0  0  0  0  0  0  0  0  0  0
   45.3380   34.6290   44.0610 C   0  0  0  0  0  0  0  0  0  0  0  0
   45.9360   33.4780   44.3860 N   0  0  0  0  0  0  0  0  0  0  0  0
   46.6330   31.7350   45.7530 C   0  0  0  0  0  0  0  0  0  0  0  0
   46.5180   30.8570   44.6580 C   0  0  0  0  0  3  0  0  0  0  0  0
   47.1380   29.6170   44.5880 C   0  0  0  0  0  3  0  0  0  0  0  0
   47.9250   29.2160   45.6680 C   0  0  0  0  0  3  0  0  0  0  0  0
   48.0720   30.0390   46.7670 C   0  0  0  0  0  0  0  0  0  0  0  0
   48.8400   29.6590   47.8340 C   0  0  0  0  0  3  0  0  0  0  0  0
   49.0150   30.4340   48.9390 C   0  0  0  0  0  3  0  0  0  0  0  0
   48.3570   31.6350   48.9010 C   0  0  0  0  0  3  0  0  0  0  0  0
   47.5880   32.0250   47.8430 C   0  0  0  0  0  3  0  0  0  0  0  0
   47.4250   31.2390   46.7490 C   0  0  0  0  0  0  0  0  0  0  0  0
  1 21  1  0  0  0  0
  2  1  1  0  0  0  0
  3  2  2  0  0  0  0
  4  5  2  0  0  0  0
  4  3  1  0  0  0  0
  5  6  1  0  0  0  0
  6  7  1  0  0  0  0
  6  1  2  0  0  0  0
  7  8  1  0  0  0  0
  9  8  2  0  0  0  0
 10  9  1  0  0  0  0
 11 12  2  0  0  0  0
 11 10  1  0  0  0  0
 13 11  1  0  0  0  0
 14 13  1  0  0  0  0
 14 16  2  0  0  0  0
 15 14  1  0  0  0  0
 16 17  1  0  0  0  0
 17 10  2  0  0  0  0
 17  7  1  0  0  0  0
 18 13  1  0  0  0  0
 19 15  1  0  0  0  0
 20 15  1  0  0  0  0
 21 27  1  0  0  0  0
 22 21  2  0  0  0  0
 23 29  1  0  0  0  0
 23 24  1  0  0  0  0
 25 24  2  0  0  0  0
 26 25  1  0  0  0  0
 27 28  1  0  0  0  0
 27 26  2  0  0  0  0
 28 23  2  0  0  0  0
 29 38  1  0  0  0  0
 30 29  2  0  0  0  0
 31 30  1  0  0  0  0
 31 32  2  0  0  0  0
 32 33  1  0  0  0  0
 33 34  1  0  0  0  0
 34 35  2  0  0  0  0
 36 35  1  0  0  0  0
 37 36  2  0  0  0  0
 38 33  2  0  0  0  0
 38 37  1  0  0  0  0
M  END
>  <minimizedAffinity>
-7.83375645

$$$$

 OpenBabel03242510073D

 38 43  0  0  0  0  0  0  0  0999 V2000
   47.4940   34.3070   41.6380 C   0  0  0  0  0  0  0  0  0  0  0  0
   48.1320   35.5040   41.3830 C   0  0  0  0  0  3  0  0  0  0  0  0
   49.4470   35.7300   41.8180 C   0  0  0  0  0  3  0  0  0  0  0  0
   50.1490   34.7640   42.5170 C   0  0  0  0  0  3  0  0  0  0  0  0
   49.5130   33.5860   42.7660 C   0  0  0  0  0  3  0  0  0  0  0  0
   48.2300   33.3850   42.3330 C   0  0  0  0  0  0  0  0  0  0  0  0
   47.5940   32.1320   42.6140 N   0  0  0  0  0  0  0  0  0  0  0  0
   47.4360   30.9560   41.9760 C   0  0  0  0  0  3  0  0  0  0  0  0
   46.7330   30.1170   42.7340 N   0  0  0  0  0  0  0  0  0  0  0  0
   46.4130   30.7090   43.8750 C   0  0  0  0  0  0  0  0  0  0  0  0
   45.7120   30.3100   44.9860 C   0  0  0  0  0  0  0  0  0  0  0  0
   45.2020   29.1470   45.0820 O   0  0  0  0  0  0  0  0  0  0  0  0
   45.5100   31.1000   46.0440 N   0  0  0  0  0  0  0  0  0  0  0  0
   46.0490   32.3420   45.9530 C   0  0  0  0  0  0  0  0  0  0  0  0
   45.9800   33.3830   46.9450 N   0  0  0  0  0  0  0  0  0  0  0  0
   46.7330   32.7670   44.8960 N   0  0  0  0  0  0  0  0  0  0  0  0
   46.9510   31.9770   43.8070 C   0  0  0  0  0  0  0  0  0  0  0  0
   44.9820   30.7880   46.8720 H   0  0  0  0  0  0  0  0  0  0  0  0
   46.4280   34.2930   46.7680 H   0  0  0  0  0  0  0  0  0  0  0  0
   45.4810   33.2170   47.8310 H   0  0  0  0  0  0  0  0  0  0  0  0
   46.1300   34.1380   41.1580 C   0  0  0  0  0  0  0  0  0  0  0  0
   45.2440   34.5090   41.9750 O   0  0  0  0  0  0  0  0  0  0  0  0
   44.1150   32.7690   38.3490 C   0  0  0  0  0  0  0  0  0  0  0  0
   45.1570   32.6020   37.4200 C   0  0  0  0  0  3  0  0  0  0  0  0
   46.4860   32.9290   37.7120 C   0  0  0  0  0  3  0  0  0  0  0  0
   46.7140   33.4230   38.9550 N   0  0  0  0  0  0  0  0  0  0  0  0
   45.7560   33.5930   39.8520 C   0  0  0  0  0  0  0  0  0  0  0  0
   44.4950   33.2720   39.5460 N   0  0  0  0  0  0  0  0  0  0  0  0
   42.7320   32.5160   38.2360 C   0  0  0  0  0  0  0  0  0  0  0  0
   42.3910   31.2570   37.7060 C   0  0  0  0  0  3  0  0  0  0  0  0
   41.0870   30.8210   37.5170 C   0  0  0  0  0  3  0  0  0  0  0  0
   40.0500   31.6830   37.8760 C   0  0  0  0  0  3  0  0  0  0  0  0
   40.3290   32.9290   38.4020 C   0  0  0  0  0  0  0  0  0  0  0  0
   39.3220   33.7840   38.7580 C   0  0  0  0  0  3  0  0  0  0  0  0
   39.5450   35.0220   39.2790 C   0  0  0  0  0  3  0  0  0  0  0  0
   40.8690   35.3480   39.4210 C   0  0  0  0  0  3  0  0  0  0  0  0
   41.8810   34.5040   39.0690 C   0  0  0  0  0  3  0  0  0  0  0  0
   41.6390   33.2730   38.5510 C   0  0  0  0  0  0  0  0  0  0  0  0
  1  6  1  0  0  0  0
  2  1  2  0  0  0  0
  2  3  1  0  0  0  0
  3  4  2  0  0  0  0
  4  5  1  0  0  0  0
  6  7  1  0  0  0  0
  6  5  2  0  0  0  0
  7 17  1  0  0  0  0
  8  7  1  0  0  0  0
  8  9  2  0  0  0  0
  9 10  1  0  0  0  0
 10 11  1  0  0  0  0
 11 12  2  0  0  0  0
 11 13  1  0  0  0  0
 13 18  1  0  0  0  0
 14 13  1  0  0  0  0
 14 15  1  0  0  0  0
 15 20  1  0  0  0  0
 16 14  2  0  0  0  0
 17 10  2  0  0  0  0
 17 16  1  0  0  0  0
 19 15  1  0  0  0  0
 21  1  1  0  0  0  0
 21 22  2  0  0  0  0
 23 28  1  0  0  0  0
 24 25  1  0  0  0  0
 24 23  2  0  0  0  0
 25 26  2  0  0  0  0
 26 27  1  0  0  0  0
 27 21  1  0  0  0  0
 28 27  2  0  0  0  0
 29 23  1  0  0  0  0
 29 38  1  0  0  0  0
 30 29  2  0  0  0  0
 31 30  1  0  0  0  0
 31 32  2  0  0  0  0
 32 33  1  0  0  0  0
 33 38  2  0  0  0  0
 33 34  1  0  0  0  0
 34 35  2  0  0  0  0
 35 36  1  0  0  0  0
 37 36  2  0  0  0  0
 38 37  1  0  0  0  0
M  END
>  <minimizedAffinity>
-7.69076157

$$$$

 OpenBabel03242510073D

 38 43  0  0  0  0  0  0  0  0999 V2000
   48.2970   32.1300   41.5770 C   0  0  0  0  0  0  0  0  0  0  0  0
   49.3810   31.3920   41.1470 C   0  0  0  0  0  3  0  0  0  0  0  0
   50.6940   31.8270   41.3870 C   0  0  0  0  0  3  0  0  0  0  0  0
   50.9480   33.0080   42.0620 C   0  0  0  0  0  3  0  0  0  0  0  0
   49.8740   33.7310   42.4820 C   0  0  0  0  0  3  0  0  0  0  0  0
   48.6010   33.2900   42.2380 C   0  0  0  0  0  0  0  0  0  0  0  0
   47.4970   34.0790   42.6960 N   0  0  0  0  0  0  0  0  0  0  0  0
   46.7830   35.1200   42.2250 C   0  0  0  0  0  3  0  0  0  0  0  0
   45.8400   35.4600   43.1010 N   0  0  0  0  0  0  0  0  0  0  0  0
   45.9070   34.6640   44.1590 C   0  0  0  0  0  0  0  0  0  0  0  0
   45.1910   34.5780   45.3280 C   0  0  0  0  0  0  0  0  0  0  0  0
   44.2250   35.3660   45.5880 O   0  0  0  0  0  0  0  0  0  0  0  0
   45.4460   33.6710   46.2740 N   0  0  0  0  0  0  0  0  0  0  0  0
   46.4740   32.8260   46.0070 C   0  0  0  0  0  0  0  0  0  0  0  0
   46.9550   31.7640   46.8520 N   0  0  0  0  0  0  0  0  0  0  0  0
   47.1920   32.8770   44.8900 N   0  0  0  0  0  0  0  0  0  0  0  0
   46.9470   33.7940   43.9110 C   0  0  0  0  0  0  0  0  0  0  0  0
   44.9020   33.6170   47.1470 H   0  0  0  0  0  0  0  0  0  0  0  0
   47.7470   31.1810   46.5460 H   0  0  0  0  0  0  0  0  0  0  0  0
   46.5060   31.5880   47.7620 H   0  0  0  0  0  0  0  0  0  0  0  0
   46.9630   31.6220   41.2940 C   0  0  0  0  0  0  0  0  0  0  0  0
   46.6240   30.6340   42.0010 O   0  0  0  0  0  0  0  0  0  0  0  0
   43.9840   33.1830   39.7100 C   0  0  0  0  0  0  0  0  0  0  0  0
   44.4300   33.1570   38.3760 C   0  0  0  0  0  3  0  0  0  0  0  0
   45.6770   32.6360   38.0100 C   0  0  0  0  0  3  0  0  0  0  0  0
   46.4380   32.1560   39.0250 N   0  0  0  0  0  0  0  0  0  0  0  0
   46.0480   32.1670   40.2900 C   0  0  0  0  0  0  0  0  0  0  0  0
   44.8520   32.6700   40.6110 N   0  0  0  0  0  0  0  0  0  0  0  0
   42.7860   33.6740   40.2690 C   0  0  0  0  0  0  0  0  0  0  0  0
   42.7610   35.0590   40.5220 C   0  0  0  0  0  3  0  0  0  0  0  0
   41.6750   35.7300   41.0670 C   0  0  0  0  0  3  0  0  0  0  0  0
   40.5370   34.9870   41.3830 C   0  0  0  0  0  3  0  0  0  0  0  0
   40.5080   33.6250   41.1560 C   0  0  0  0  0  0  0  0  0  0  0  0
   39.3990   32.8840   41.4610 C   0  0  0  0  0  3  0  0  0  0  0  0
   39.3220   31.5400   41.2550 C   0  0  0  0  0  3  0  0  0  0  0  0
   40.4510   30.9820   40.7140 C   0  0  0  0  0  3  0  0  0  0  0  0
   41.5620   31.7110   40.4060 C   0  0  0  0  0  3  0  0  0  0  0  0
   41.6210   33.0510   40.6170 C   0  0  0  0  0  0  0  0  0  0  0  0
  1  6  1  0  0  0  0
  2  3  1  0  0  0  0
  2  1  2  0  0  0  0
  3  4  2  0  0  0  0
  4  5  1  0  0  0  0
  6  5  2  0  0  0  0
  6  7  1  0  0  0  0
  7 17  1  0  0  0  0
  8  7  1  0  0  0  0
  8  9  2  0  0  0  0
  9 10  1  0  0  0  0
 10 11  1  0  0  0  0
 11 12  2  0  0  0  0
 11 13  1  0  0  0  0
 13 18  1  0  0  0  0
 14 13  1  0  0  0  0
 14 15  1  0  0  0  0
 15 20  1  0  0  0  0
 16 14  2  0  0  0  0
 17 10  2  0  0  0  0
 17 16  1  0  0  0  0
 19 15  1  0  0  0  0
 21  1  1  0  0  0  0
 21 22  2  0  0  0  0
 23 29  1  0  0  0  0
 23 28  1  0  0  0  0
 24 23  2  0  0  0  0
 25 24  1  0  0  0  0
 25 26  2  0  0  0  0
 26 27  1  0  0  0  0
 27 28  2  0  0  0  0
 27 21  1  0  0  0  0
 29 30  2  0  0  0  0
 29 38  1  0  0  0  0
 30 31  1  0  0  0  0
 31 32  2  0  0  0  0
 33 32  1  0  0  0  0
 33 34  1  0  0  0  0
 35 34  2  0  0  0  0
 36 35  1  0  0  0  0
 37 38  1  0  0  0  0
 37 36  2  0  0  0  0
 38 33  2  0  0  0  0
M  END
>  <minimizedAffinity>
-7.6353941

$$$$

 OpenBabel03242510073D

 38 43  0  0  0  0  0  0  0  0999 V2000
   47.4700   33.1080   42.9360 C   0  0  0  0  0  0  0  0  0  0  0  0
   48.7760   32.7000   42.7600 C   0  0  0  0  0  3  0  0  0  0  0  0
   49.7610   33.5980   42.3200 C   0  0  0  0  0  3  0  0  0  0  0  0
   49.4590   34.9210   42.0480 C   0  0  0  0  0  3  0  0  0  0  0  0
   48.1680   35.3150   42.2220 C   0  0  0  0  0  3  0  0  0  0  0  0
   47.2210   34.4240   42.6520 C   0  0  0  0  0  0  0  0  0  0  0  0
   45.8740   34.8780   42.8240 N   0  0  0  0  0  0  0  0  0  0  0  0
   45.1660   35.4770   43.8020 C   0  0  0  0  0  3  0  0  0  0  0  0
   43.9110   35.6710   43.4030 N   0  0  0  0  0  0  0  0  0  0  0  0
   43.7590   35.2110   42.1690 C   0  0  0  0  0  0  0  0  0  0  0  0
   42.6960   35.1570   41.3010 C   0  0  0  0  0  0  0  0  0  0  0  0
   41.5480   35.6100   41.6110 O   0  0  0  0  0  0  0  0  0  0  0  0
   42.7820   34.6320   40.0760 N   0  0  0  0  0  0  0  0  0  0  0  0
   44.0030   34.1460   39.7360 C   0  0  0  0  0  0  0  0  0  0  0  0
   44.3630   33.5320   38.4850 N   0  0  0  0  0  0  0  0  0  0  0  0
   45.0550   34.1780   40.5460 N   0  0  0  0  0  0  0  0  0  0  0  0
   44.9900   34.7100   41.8000 C   0  0  0  0  0  0  0  0  0  0  0  0
   41.9770   34.5980   39.4340 H   0  0  0  0  0  0  0  0  0  0  0  0
   45.3260   33.1970   38.3340 H   0  0  0  0  0  0  0  0  0  0  0  0
   43.6590   33.4270   37.7410 H   0  0  0  0  0  0  0  0  0  0  0  0
   46.4980   32.1260   43.3950 C   0  0  0  0  0  0  0  0  0  0  0  0
   45.8880   31.5280   42.4670 O   0  0  0  0  0  0  0  0  0  0  0  0
   45.6110   30.2610   46.4860 C   0  0  0  0  0  0  0  0  0  0  0  0
   45.7030   31.3290   47.3970 C   0  0  0  0  0  3  0  0  0  0  0  0
   46.0450   32.6270   47.0010 C   0  0  0  0  0  3  0  0  0  0  0  0
   46.2880   32.7980   45.6780 N   0  0  0  0  0  0  0  0  0  0  0  0
   46.2100   31.8140   44.7960 C   0  0  0  0  0  0  0  0  0  0  0  0
   45.8810   30.5830   45.2010 N   0  0  0  0  0  0  0  0  0  0  0  0
   45.3010   28.9000   46.6930 C   0  0  0  0  0  0  0  0  0  0  0  0
   46.2980   28.1470   47.3420 C   0  0  0  0  0  3  0  0  0  0  0  0
   46.1810   26.7950   47.6360 C   0  0  0  0  0  3  0  0  0  0  0  0
   45.0040   26.1430   47.2670 C   0  0  0  0  0  3  0  0  0  0  0  0
   43.9950   26.8350   46.6280 C   0  0  0  0  0  0  0  0  0  0  0  0
   42.8350   26.2090   46.2590 C   0  0  0  0  0  3  0  0  0  0  0  0
   41.8120   26.8470   45.6270 C   0  0  0  0  0  3  0  0  0  0  0  0
   42.0350   28.1780   45.3860 C   0  0  0  0  0  3  0  0  0  0  0  0
   43.1870   28.8130   45.7490 C   0  0  0  0  0  3  0  0  0  0  0  0
   44.1970   28.1600   46.3790 C   0  0  0  0  0  0  0  0  0  0  0  0
  1 21  1  0  0  0  0
  2  1  1  0  0  0  0
  3  2  2  0  0  0  0
  4  5  2  0  0  0  0
  4  3  1  0  0  0  0
  5  6  1  0  0  0  0
  6  7  1  0  0  0  0
  6  1  2  0  0  0  0
  7  8  1  0  0  0  0
  9  8  2  0  0  0  0
 10  9  1  0  0  0  0
 11 12  2  0  0  0  0
 11 10  1  0  0  0  0
 13 11  1  0  0  0  0
 14 13  1  0  0  0  0
 14 16  2  0  0  0  0
 15 14  1  0  0  0  0
 16 17  1  0  0  0  0
 17 10  2  0  0  0  0
 17  7  1  0  0  0  0
 18 13  1  0  0  0  0
 19 15  1  0  0  0  0
 20 15  1  0  0  0  0
 21 27  1  0  0  0  0
 22 21  2  0  0  0  0
 23 29  1  0  0  0  0
 23 24  1  0  0  0  0
 25 24  2  0  0  0  0
 26 25  1  0  0  0  0
 27 28  1  0  0  0  0
 27 26  2  0  0  0  0
 28 23  2  0  0  0  0
 29 30  1  0  0  0  0
 30 31  2  0  0  0  0
 32 31  1  0  0  0  0
 33 32  2  0  0  0  0
 34 33  1  0  0  0  0
 35 34  2  0  0  0  0
 36 35  1  0  0  0  0
 36 37  2  0  0  0  0
 37 38  1  0  0  0  0
 38 33  1  0  0  0  0
 38 29  2  0  0  0  0
M  END
>  <minimizedAffinity>
-7.49359989

$$$$
