
 OpenBabel03242510043D

 26 30  0  0  0  0  0  0  0  0999 V2000
   45.4350   33.6730   44.7240 C   0  0  0  0  0  0  0  0  0  0  0  0
   45.1460   34.8820   45.3730 C   0  0  0  0  0  3  0  0  0  0  0  0
   44.4920   35.9390   44.7490 C   0  0  0  0  0  3  0  0  0  0  0  0
   44.1430   35.7270   43.4580 N   0  0  0  0  0  0  0  0  0  0  0  0
   44.3980   34.5940   42.8100 C   0  0  0  0  0  0  0  0  0  0  0  0
   45.0310   33.6000   43.4450 N   0  0  0  0  0  0  0  0  0  0  0  0
   46.1230   32.5170   45.1890 C   0  0  0  0  0  0  0  0  0  0  0  0
   46.8510   31.8020   44.2150 C   0  0  0  0  0  3  0  0  0  0  0  0
   47.5850   30.6510   44.4700 C   0  0  0  0  0  3  0  0  0  0  0  0
   47.6070   30.1670   45.7670 C   0  0  0  0  0  3  0  0  0  0  0  0
   46.9150   30.8240   46.7530 C   0  0  0  0  0  0  0  0  0  0  0  0
   46.9310   30.3370   48.0460 C   0  0  0  0  0  3  0  0  0  0  0  0
   46.2480   30.9480   49.0820 C   0  0  0  0  0  3  0  0  0  0  0  0
   45.5420   32.0960   48.7230 C   0  0  0  0  0  3  0  0  0  0  0  0
   45.5480   32.5490   47.4370 C   0  0  0  0  0  3  0  0  0  0  0  0
   46.2220   31.9450   46.4200 C   0  0  0  0  0  0  0  0  0  0  0  0
   43.9690   34.4900   41.4170 C   0  0  0  0  0  0  0  0  0  0  0  0
   44.7570   33.9780   40.4060 C   0  0  0  0  0  3  0  0  0  0  0  0
   44.0250   34.0440   39.2580 N   0  0  0  0  0  0  0  0  0  0  0  0
   42.8210   34.5770   39.5370 C   0  0  0  0  0  0  0  0  0  0  0  0
   41.7270   34.8480   38.7090 C   0  0  0  0  0  3  0  0  0  0  0  0
   40.6330   35.4010   39.3140 C   0  0  0  0  0  3  0  0  0  0  0  0
   40.5030   35.7140   40.6500 C   0  0  0  0  0  3  0  0  0  0  0  0
   41.6060   35.4340   41.4540 C   0  0  0  0  0  3  0  0  0  0  0  0
   42.7380   34.8740   40.8830 C   0  0  0  0  0  0  0  0  0  0  0  0
   44.3420   33.7360   38.3280 H   0  0  0  0  0  0  0  0  0  0  0  0
  1  7  1  0  0  0  0
  1  2  1  0  0  0  0
  3  2  2  0  0  0  0
  4  3  1  0  0  0  0
  5  6  1  0  0  0  0
  5  4  2  0  0  0  0
  6  1  2  0  0  0  0
  7 16  1  0  0  0  0
  8  9  1  0  0  0  0
  8  7  2  0  0  0  0
  9 10  2  0  0  0  0
 10 11  1  0  0  0  0
 11 12  1  0  0  0  0
 12 13  2  0  0  0  0
 14 13  1  0  0  0  0
 15 14  2  0  0  0  0
 16 11  2  0  0  0  0
 16 15  1  0  0  0  0
 17  5  1  0  0  0  0
 18 17  2  0  0  0  0
 19 20  1  0  0  0  0
 19 18  1  0  0  0  0
 20 25  1  0  0  0  0
 21 22  1  0  0  0  0
 21 20  2  0  0  0  0
 22 23  2  0  0  0  0
 23 24  1  0  0  0  0
 25 17  1  0  0  0  0
 25 24  2  0  0  0  0
 26 19  1  0  0  0  0
M  END
>  <minimizedAffinity>
-7.61622763

$$$$

 OpenBabel03242510043D

 26 30  0  0  0  0  0  0  0  0999 V2000
   44.8720   34.0020   41.6120 C   0  0  0  0  0  0  0  0  0  0  0  0
   46.1130   34.5460   41.2560 C   0  0  0  0  0  3  0  0  0  0  0  0
   47.0900   34.8810   42.1880 C   0  0  0  0  0  3  0  0  0  0  0  0
   46.7650   34.6460   43.4810 N   0  0  0  0  0  0  0  0  0  0  0  0
   45.5990   34.1300   43.8580 C   0  0  0  0  0  0  0  0  0  0  0  0
   44.6840   33.8210   42.9310 N   0  0  0  0  0  0  0  0  0  0  0  0
   43.7550   33.6420   40.8070 C   0  0  0  0  0  0  0  0  0  0  0  0
   43.9080   32.4730   40.0320 C   0  0  0  0  0  3  0  0  0  0  0  0
   42.9350   31.9590   39.1840 C   0  0  0  0  0  3  0  0  0  0  0  0
   41.7310   32.6370   39.0890 C   0  0  0  0  0  3  0  0  0  0  0  0
   41.5310   33.7790   39.8210 C   0  0  0  0  0  0  0  0  0  0  0  0
   40.3320   34.4590   39.7200 C   0  0  0  0  0  3  0  0  0  0  0  0
   40.0710   35.6210   40.4240 C   0  0  0  0  0  3  0  0  0  0  0  0
   41.1100   36.0540   41.2480 C   0  0  0  0  0  3  0  0  0  0  0  0
   42.2810   35.3590   41.3230 C   0  0  0  0  0  3  0  0  0  0  0  0
   42.5330   34.2150   40.6280 C   0  0  0  0  0  0  0  0  0  0  0  0
   45.3700   33.9230   45.2870 C   0  0  0  0  0  0  0  0  0  0  0  0
   44.6090   34.7630   46.0730 C   0  0  0  0  0  3  0  0  0  0  0  0
   44.6270   34.2530   47.3370 N   0  0  0  0  0  0  0  0  0  0  0  0
   45.3730   33.1320   47.3440 C   0  0  0  0  0  0  0  0  0  0  0  0
   45.6920   32.2530   48.3840 C   0  0  0  0  0  3  0  0  0  0  0  0
   46.4850   31.1890   48.0560 C   0  0  0  0  0  3  0  0  0  0  0  0
   46.9960   30.9000   46.8090 C   0  0  0  0  0  3  0  0  0  0  0  0
   46.6630   31.7890   45.7890 C   0  0  0  0  0  3  0  0  0  0  0  0
   45.8620   32.8830   46.0770 C   0  0  0  0  0  0  0  0  0  0  0  0
   44.1490   34.6590   48.1530 H   0  0  0  0  0  0  0  0  0  0  0  0
  1  6  1  0  0  0  0
  2  1  2  0  0  0  0
  2  3  1  0  0  0  0
  3  4  2  0  0  0  0
  4  5  1  0  0  0  0
  5 17  1  0  0  0  0
  6  5  2  0  0  0  0
  7  1  1  0  0  0  0
  8  7  2  0  0  0  0
  9  8  1  0  0  0  0
 10  9  2  0  0  0  0
 10 11  1  0  0  0  0
 11 16  1  0  0  0  0
 12 11  2  0  0  0  0
 12 13  1  0  0  0  0
 13 14  2  0  0  0  0
 14 15  1  0  0  0  0
 16  7  1  0  0  0  0
 16 15  2  0  0  0  0
 17 18  2  0  0  0  0
 17 25  1  0  0  0  0
 18 19  1  0  0  0  0
 19 20  1  0  0  0  0
 19 26  1  0  0  0  0
 20 21  1  0  0  0  0
 22 21  2  0  0  0  0
 23 22  1  0  0  0  0
 24 25  1  0  0  0  0
 24 23  2  0  0  0  0
 25 20  2  0  0  0  0
M  END
>  <minimizedAffinity>
-7.27965021

$$$$

 OpenBabel03242510043D

 26 30  0  0  0  0  0  0  0  0999 V2000
   46.0040   33.6140   45.1420 C   0  0  0  0  0  0  0  0  0  0  0  0
   45.0160   34.5910   45.3240 C   0  0  0  0  0  3  0  0  0  0  0  0
   44.7870   35.6170   44.4130 C   0  0  0  0  0  3  0  0  0  0  0  0
   45.5860   35.6140   43.3210 N   0  0  0  0  0  0  0  0  0  0  0  0
   46.5330   34.7030   43.1110 C   0  0  0  0  0  0  0  0  0  0  0  0
   46.7240   33.7320   44.0120 N   0  0  0  0  0  0  0  0  0  0  0  0
   46.3990   32.5310   45.9770 C   0  0  0  0  0  0  0  0  0  0  0  0
   47.0250   32.8880   47.1900 C   0  0  0  0  0  3  0  0  0  0  0  0
   47.4810   31.9790   48.1360 C   0  0  0  0  0  3  0  0  0  0  0  0
   47.3120   30.6290   47.8760 C   0  0  0  0  0  3  0  0  0  0  0  0
   46.7100   30.2280   46.7110 C   0  0  0  0  0  0  0  0  0  0  0  0
   46.5480   28.8810   46.4490 C   0  0  0  0  0  3  0  0  0  0  0  0
   45.9570   28.4120   45.2890 C   0  0  0  0  0  3  0  0  0  0  0  0
   45.5340   29.4040   44.4040 C   0  0  0  0  0  3  0  0  0  0  0  0
   45.7090   30.7240   44.6950 C   0  0  0  0  0  3  0  0  0  0  0  0
   46.2910   31.1810   45.8380 C   0  0  0  0  0  0  0  0  0  0  0  0
   47.3300   34.8110   41.8910 C   0  0  0  0  0  0  0  0  0  0  0  0
   48.4910   35.5490   41.7930 C   0  0  0  0  0  3  0  0  0  0  0  0
   48.9460   35.4110   40.5160 N   0  0  0  0  0  0  0  0  0  0  0  0
   48.1010   34.6140   39.8360 C   0  0  0  0  0  0  0  0  0  0  0  0
   48.1290   34.1720   38.5080 C   0  0  0  0  0  3  0  0  0  0  0  0
   47.1040   33.3560   38.1210 C   0  0  0  0  0  3  0  0  0  0  0  0
   46.0540   32.9270   38.9040 C   0  0  0  0  0  3  0  0  0  0  0  0
   46.0490   33.3790   40.2220 C   0  0  0  0  0  3  0  0  0  0  0  0
   47.0680   34.2100   40.6580 C   0  0  0  0  0  0  0  0  0  0  0  0
   49.7970   35.8460   40.1330 H   0  0  0  0  0  0  0  0  0  0  0  0
  1  2  1  0  0  0  0
  1  7  1  0  0  0  0
  3  2  2  0  0  0  0
  4  3  1  0  0  0  0
  5  4  2  0  0  0  0
  5  6  1  0  0  0  0
  6  1  2  0  0  0  0
  7  8  1  0  0  0  0
  8  9  2  0  0  0  0
 10  9  1  0  0  0  0
 11 10  2  0  0  0  0
 12 11  1  0  0  0  0
 13 12  2  0  0  0  0
 14 15  2  0  0  0  0
 14 13  1  0  0  0  0
 15 16  1  0  0  0  0
 16  7  2  0  0  0  0
 16 11  1  0  0  0  0
 17  5  1  0  0  0  0
 18 17  2  0  0  0  0
 19 18  1  0  0  0  0
 20 19  1  0  0  0  0
 20 25  1  0  0  0  0
 21 20  2  0  0  0  0
 22 21  1  0  0  0  0
 22 23  2  0  0  0  0
 23 24  1  0  0  0  0
 24 25  2  0  0  0  0
 25 17  1  0  0  0  0
 26 19  1  0  0  0  0
M  END
>  <minimizedAffinity>
-7.12689495

$$$$

 OpenBabel03242510043D

 26 30  0  0  0  0  0  0  0  0999 V2000
   46.9650   33.6010   39.7850 C   0  0  0  0  0  0  0  0  0  0  0  0
   46.9490   33.3170   38.4120 C   0  0  0  0  0  3  0  0  0  0  0  0
   45.7830   33.0210   37.7130 C   0  0  0  0  0  3  0  0  0  0  0  0
   44.6460   33.0260   38.4480 N   0  0  0  0  0  0  0  0  0  0  0  0
   44.6210   33.2920   39.7510 C   0  0  0  0  0  0  0  0  0  0  0  0
   45.7640   33.5720   40.3890 N   0  0  0  0  0  0  0  0  0  0  0  0
   48.0530   33.8810   40.6580 C   0  0  0  0  0  0  0  0  0  0  0  0
   48.1920   35.2280   41.0530 C   0  0  0  0  0  3  0  0  0  0  0  0
   49.1880   35.7000   41.8990 C   0  0  0  0  0  3  0  0  0  0  0  0
   50.1110   34.7910   42.3880 C   0  0  0  0  0  3  0  0  0  0  0  0
   50.0220   33.4700   42.0340 C   0  0  0  0  0  0  0  0  0  0  0  0
   50.9470   32.5640   42.5170 C   0  0  0  0  0  3  0  0  0  0  0  0
   50.9170   31.2200   42.1900 C   0  0  0  0  0  3  0  0  0  0  0  0
   49.8790   30.8460   41.3370 C   0  0  0  0  0  3  0  0  0  0  0  0
   48.9830   31.7660   40.8790 C   0  0  0  0  0  3  0  0  0  0  0  0
   49.0160   33.0880   41.2030 C   0  0  0  0  0  0  0  0  0  0  0  0
   43.3280   33.2660   40.4310 C   0  0  0  0  0  0  0  0  0  0  0  0
   43.0070   32.3800   41.4390 C   0  0  0  0  0  3  0  0  0  0  0  0
   41.7280   32.6560   41.8210 N   0  0  0  0  0  0  0  0  0  0  0  0
   41.2630   33.6800   41.0810 C   0  0  0  0  0  0  0  0  0  0  0  0
   40.0230   34.3270   41.0920 C   0  0  0  0  0  3  0  0  0  0  0  0
   39.8650   35.3480   40.1990 C   0  0  0  0  0  3  0  0  0  0  0  0
   40.8010   35.8010   39.2950 C   0  0  0  0  0  3  0  0  0  0  0  0
   42.0290   35.1410   39.3030 C   0  0  0  0  0  3  0  0  0  0  0  0
   42.2330   34.0980   40.1920 C   0  0  0  0  0  0  0  0  0  0  0  0
   41.2030   32.1620   42.5570 H   0  0  0  0  0  0  0  0  0  0  0  0
  1  6  1  0  0  0  0
  1  7  1  0  0  0  0
  2  1  2  0  0  0  0
  3  2  1  0  0  0  0
  3  4  2  0  0  0  0
  4  5  1  0  0  0  0
  5  6  2  0  0  0  0
  5 17  1  0  0  0  0
  7  8  2  0  0  0  0
  7 16  1  0  0  0  0
  8  9  1  0  0  0  0
  9 10  2  0  0  0  0
 11 10  1  0  0  0  0
 11 12  1  0  0  0  0
 13 12  2  0  0  0  0
 14 13  1  0  0  0  0
 15 16  1  0  0  0  0
 15 14  2  0  0  0  0
 16 11  2  0  0  0  0
 17 18  2  0  0  0  0
 18 19  1  0  0  0  0
 19 26  1  0  0  0  0
 20 21  1  0  0  0  0
 20 19  1  0  0  0  0
 22 21  2  0  0  0  0
 23 24  2  0  0  0  0
 23 22  1  0  0  0  0
 24 25  1  0  0  0  0
 25 17  1  0  0  0  0
 25 20  2  0  0  0  0
M  END
>  <minimizedAffinity>
-7.07689857

$$$$

 OpenBabel03242510043D

 26 30  0  0  0  0  0  0  0  0999 V2000
   43.1270   32.4200   38.3290 C   0  0  0  0  0  0  0  0  0  0  0  0
   43.3600   31.1900   37.6990 C   0  0  0  0  0  3  0  0  0  0  0  0
   44.6370   30.6990   37.4440 C   0  0  0  0  0  3  0  0  0  0  0  0
   45.6560   31.4920   37.8480 N   0  0  0  0  0  0  0  0  0  0  0  0
   45.4750   32.6640   38.4500 C   0  0  0  0  0  0  0  0  0  0  0  0
   44.2310   33.1030   38.6770 N   0  0  0  0  0  0  0  0  0  0  0  0
   41.9060   33.0880   38.6300 C   0  0  0  0  0  0  0  0  0  0  0  0
   40.7900   32.7050   37.8560 C   0  0  0  0  0  3  0  0  0  0  0  0
   39.5160   33.2390   37.9980 C   0  0  0  0  0  3  0  0  0  0  0  0
   39.3220   34.2140   38.9620 C   0  0  0  0  0  3  0  0  0  0  0  0
   40.3740   34.6230   39.7410 C   0  0  0  0  0  0  0  0  0  0  0  0
   40.1820   35.6010   40.6980 C   0  0  0  0  0  3  0  0  0  0  0  0
   41.2030   36.0630   41.5090 C   0  0  0  0  0  3  0  0  0  0  0  0
   42.4440   35.4640   41.2890 C   0  0  0  0  0  3  0  0  0  0  0  0
   42.5980   34.5010   40.3360 C   0  0  0  0  0  3  0  0  0  0  0  0
   41.5900   34.0490   39.5400 C   0  0  0  0  0  0  0  0  0  0  0  0
   46.6600   33.4260   38.8390 C   0  0  0  0  0  0  0  0  0  0  0  0
   47.7300   33.6650   38.0000 C   0  0  0  0  0  3  0  0  0  0  0  0
   48.6350   34.4000   38.7070 N   0  0  0  0  0  0  0  0  0  0  0  0
   48.1510   34.6150   39.9450 C   0  0  0  0  0  0  0  0  0  0  0  0
   48.6950   35.3070   41.0320 C   0  0  0  0  0  3  0  0  0  0  0  0
   47.9370   35.3410   42.1680 C   0  0  0  0  0  3  0  0  0  0  0  0
   46.6970   34.7670   42.3460 C   0  0  0  0  0  3  0  0  0  0  0  0
   46.1760   34.0830   41.2490 C   0  0  0  0  0  3  0  0  0  0  0  0
   46.9110   34.0220   40.0760 C   0  0  0  0  0  0  0  0  0  0  0  0
   49.5410   34.7350   38.3520 H   0  0  0  0  0  0  0  0  0  0  0  0
  1  7  1  0  0  0  0
  1  6  1  0  0  0  0
  2  1  2  0  0  0  0
  3  2  1  0  0  0  0
  3  4  2  0  0  0  0
  4  5  1  0  0  0  0
  5  6  2  0  0  0  0
  5 17  1  0  0  0  0
  7 16  1  0  0  0  0
  8  9  1  0  0  0  0
  8  7  2  0  0  0  0
  9 10  2  0  0  0  0
 10 11  1  0  0  0  0
 11 12  1  0  0  0  0
 12 13  2  0  0  0  0
 14 13  1  0  0  0  0
 15 14  2  0  0  0  0
 16 11  2  0  0  0  0
 16 15  1  0  0  0  0
 17 25  1  0  0  0  0
 18 19  1  0  0  0  0
 18 17  2  0  0  0  0
 19 20  1  0  0  0  0
 20 25  2  0  0  0  0
 20 21  1  0  0  0  0
 21 22  2  0  0  0  0
 22 23  1  0  0  0  0
 24 23  2  0  0  0  0
 25 24  1  0  0  0  0
 26 19  1  0  0  0  0
M  END
>  <minimizedAffinity>
-7.06489086

$$$$

 OpenBabel03242510043D

 26 30  0  0  0  0  0  0  0  0999 V2000
   45.0440   34.3340   41.8620 C   0  0  0  0  0  0  0  0  0  0  0  0
   46.3940   34.5100   41.5260 C   0  0  0  0  0  3  0  0  0  0  0  0
   47.4200   34.4680   42.4650 C   0  0  0  0  0  3  0  0  0  0  0  0
   47.0320   34.2420   43.7420 N   0  0  0  0  0  0  0  0  0  0  0  0
   45.7620   34.0690   44.0990 C   0  0  0  0  0  0  0  0  0  0  0  0
   44.8030   34.1170   43.1660 N   0  0  0  0  0  0  0  0  0  0  0  0
   43.8760   34.3840   41.0500 C   0  0  0  0  0  0  0  0  0  0  0  0
   42.9530   35.4030   41.3640 C   0  0  0  0  0  3  0  0  0  0  0  0
   41.7570   35.6150   40.6900 C   0  0  0  0  0  3  0  0  0  0  0  0
   41.4450   34.7710   39.6380 C   0  0  0  0  0  3  0  0  0  0  0  0
   42.3080   33.7640   39.2910 C   0  0  0  0  0  0  0  0  0  0  0  0
   41.9930   32.9170   38.2450 C   0  0  0  0  0  3  0  0  0  0  0  0
   42.8160   31.8770   37.8520 C   0  0  0  0  0  3  0  0  0  0  0  0
   43.9920   31.7480   38.5910 C   0  0  0  0  0  3  0  0  0  0  0  0
   44.2720   32.6010   39.6170 C   0  0  0  0  0  3  0  0  0  0  0  0
   43.4590   33.6240   40.0000 C   0  0  0  0  0  0  0  0  0  0  0  0
   45.4730   33.8320   45.5120 C   0  0  0  0  0  0  0  0  0  0  0  0
   44.6490   34.6340   46.2730 C   0  0  0  0  0  3  0  0  0  0  0  0
   44.6230   34.1040   47.5280 N   0  0  0  0  0  0  0  0  0  0  0  0
   45.4040   33.0070   47.5540 C   0  0  0  0  0  0  0  0  0  0  0  0
   45.7020   32.1220   48.5960 C   0  0  0  0  0  3  0  0  0  0  0  0
   46.5430   31.0900   48.2900 C   0  0  0  0  0  3  0  0  0  0  0  0
   47.1220   30.8370   47.0650 C   0  0  0  0  0  3  0  0  0  0  0  0
   46.8090   31.7320   46.0440 C   0  0  0  0  0  3  0  0  0  0  0  0
   45.9600   32.7950   46.3090 C   0  0  0  0  0  0  0  0  0  0  0  0
   44.0940   34.4820   48.3270 H   0  0  0  0  0  0  0  0  0  0  0  0
  1  6  1  0  0  0  0
  2  1  2  0  0  0  0
  2  3  1  0  0  0  0
  3  4  2  0  0  0  0
  4  5  1  0  0  0  0
  5 17  1  0  0  0  0
  6  5  2  0  0  0  0
  7  8  1  0  0  0  0
  7  1  1  0  0  0  0
  9  8  2  0  0  0  0
 10  9  1  0  0  0  0
 11 10  2  0  0  0  0
 11 16  1  0  0  0  0
 12 11  1  0  0  0  0
 13 12  2  0  0  0  0
 13 14  1  0  0  0  0
 14 15  2  0  0  0  0
 15 16  1  0  0  0  0
 16  7  2  0  0  0  0
 17 18  2  0  0  0  0
 17 25  1  0  0  0  0
 18 19  1  0  0  0  0
 19 20  1  0  0  0  0
 19 26  1  0  0  0  0
 20 21  1  0  0  0  0
 22 21  2  0  0  0  0
 23 22  1  0  0  0  0
 24 25  1  0  0  0  0
 24 23  2  0  0  0  0
 25 20  2  0  0  0  0
M  END
>  <minimizedAffinity>
-6.99481058

$$$$

 OpenBabel03242510043D

 26 30  0  0  0  0  0  0  0  0999 V2000
   47.4230   33.9810   42.5520 C   0  0  0  0  0  0  0  0  0  0  0  0
   46.5800   34.8630   41.8620 C   0  0  0  0  0  3  0  0  0  0  0  0
   45.4250   35.4020   42.4220 C   0  0  0  0  0  3  0  0  0  0  0  0
   45.1620   35.0190   43.6930 N   0  0  0  0  0  0  0  0  0  0  0  0
   45.9390   34.1860   44.3810 C   0  0  0  0  0  0  0  0  0  0  0  0
   47.0410   33.6880   43.8070 N   0  0  0  0  0  0  0  0  0  0  0  0
   48.6060   33.3120   42.1280 C   0  0  0  0  0  0  0  0  0  0  0  0
   49.8210   33.8600   42.5910 C   0  0  0  0  0  3  0  0  0  0  0  0
   51.0770   33.3510   42.2880 C   0  0  0  0  0  3  0  0  0  0  0  0
   51.1490   32.2320   41.4770 C   0  0  0  0  0  3  0  0  0  0  0  0
   49.9970   31.6600   40.9990 C   0  0  0  0  0  0  0  0  0  0  0  0
   50.0680   30.5470   40.1830 C   0  0  0  0  0  3  0  0  0  0  0  0
   48.9450   29.9300   39.6620 C   0  0  0  0  0  3  0  0  0  0  0  0
   47.7320   30.5160   40.0260 C   0  0  0  0  0  3  0  0  0  0  0  0
   47.6980   31.6140   40.8330 C   0  0  0  0  0  3  0  0  0  0  0  0
   48.8060   32.2180   41.3430 C   0  0  0  0  0  0  0  0  0  0  0  0
   45.5450   33.8510   45.7480 C   0  0  0  0  0  0  0  0  0  0  0  0
   44.6180   34.5660   46.4780 C   0  0  0  0  0  3  0  0  0  0  0  0
   44.5150   33.9610   47.6950 N   0  0  0  0  0  0  0  0  0  0  0  0
   45.3470   32.9030   47.7270 C   0  0  0  0  0  0  0  0  0  0  0  0
   45.6020   31.9720   48.7400 C   0  0  0  0  0  3  0  0  0  0  0  0
   46.5200   31.0010   48.4510 C   0  0  0  0  0  3  0  0  0  0  0  0
   47.2120   30.8500   47.2690 C   0  0  0  0  0  3  0  0  0  0  0  0
   46.9400   31.7890   46.2760 C   0  0  0  0  0  3  0  0  0  0  0  0
   46.0160   32.7920   46.5250 C   0  0  0  0  0  0  0  0  0  0  0  0
   43.9010   34.2640   48.4640 H   0  0  0  0  0  0  0  0  0  0  0  0
  1  6  1  0  0  0  0
  2  3  1  0  0  0  0
  2  1  2  0  0  0  0
  3  4  2  0  0  0  0
  4  5  1  0  0  0  0
  5 17  1  0  0  0  0
  6  5  2  0  0  0  0
  7  1  1  0  0  0  0
  7  8  1  0  0  0  0
  9  8  2  0  0  0  0
 10  9  1  0  0  0  0
 11 16  1  0  0  0  0
 11 10  2  0  0  0  0
 12 11  1  0  0  0  0
 13 14  1  0  0  0  0
 13 12  2  0  0  0  0
 14 15  2  0  0  0  0
 15 16  1  0  0  0  0
 16  7  2  0  0  0  0
 17 18  2  0  0  0  0
 17 25  1  0  0  0  0
 18 19  1  0  0  0  0
 19 20  1  0  0  0  0
 19 26  1  0  0  0  0
 20 21  1  0  0  0  0
 22 21  2  0  0  0  0
 23 22  1  0  0  0  0
 24 25  1  0  0  0  0
 24 23  2  0  0  0  0
 25 20  2  0  0  0  0
M  END
>  <minimizedAffinity>
-6.93653488

$$$$

 OpenBabel03242510043D

 26 30  0  0  0  0  0  0  0  0999 V2000
   46.1510   34.5900   43.4510 C   0  0  0  0  0  0  0  0  0  0  0  0
   45.1800   35.4630   43.9630 C   0  0  0  0  0  3  0  0  0  0  0  0
   44.6410   35.3330   45.2390 C   0  0  0  0  0  3  0  0  0  0  0  0
   45.1180   34.2980   45.9690 N   0  0  0  0  0  0  0  0  0  0  0  0
   46.0400   33.4500   45.5190 C   0  0  0  0  0  0  0  0  0  0  0  0
   46.5330   33.6080   44.2850 N   0  0  0  0  0  0  0  0  0  0  0  0
   46.7750   34.5500   42.1720 C   0  0  0  0  0  0  0  0  0  0  0  0
   47.9660   35.2950   42.0470 C   0  0  0  0  0  3  0  0  0  0  0  0
   48.7200   35.3820   40.8830 C   0  0  0  0  0  3  0  0  0  0  0  0
   48.2760   34.6920   39.7670 C   0  0  0  0  0  3  0  0  0  0  0  0
   47.1230   33.9530   39.8350 C   0  0  0  0  0  0  0  0  0  0  0  0
   46.6750   33.2720   38.7200 C   0  0  0  0  0  3  0  0  0  0  0  0
   45.5160   32.5160   38.7200 C   0  0  0  0  0  3  0  0  0  0  0  0
   44.8320   32.4930   39.9360 C   0  0  0  0  0  3  0  0  0  0  0  0
   45.3020   33.1770   41.0180 C   0  0  0  0  0  3  0  0  0  0  0  0
   46.4430   33.9190   41.0120 C   0  0  0  0  0  0  0  0  0  0  0  0
   46.4730   32.3730   46.4060 C   0  0  0  0  0  0  0  0  0  0  0  0
   47.1630   32.5770   47.5840 C   0  0  0  0  0  3  0  0  0  0  0  0
   47.3920   31.3500   48.1310 N   0  0  0  0  0  0  0  0  0  0  0  0
   46.8630   30.4090   47.3260 C   0  0  0  0  0  0  0  0  0  0  0  0
   46.8330   29.0150   47.4460 C   0  0  0  0  0  3  0  0  0  0  0  0
   46.2070   28.3350   46.4400 C   0  0  0  0  0  3  0  0  0  0  0  0
   45.6060   28.8820   45.3280 C   0  0  0  0  0  3  0  0  0  0  0  0
   45.6480   30.2720   45.2310 C   0  0  0  0  0  3  0  0  0  0  0  0
   46.2730   31.0030   46.2280 C   0  0  0  0  0  0  0  0  0  0  0  0
   47.8880   31.1720   49.0150 H   0  0  0  0  0  0  0  0  0  0  0  0
  1  2  2  0  0  0  0
  1  6  1  0  0  0  0
  2  3  1  0  0  0  0
  3  4  2  0  0  0  0
  5  4  1  0  0  0  0
  5 17  1  0  0  0  0
  6  5  2  0  0  0  0
  7  1  1  0  0  0  0
  8  7  1  0  0  0  0
  9  8  2  0  0  0  0
 10 11  2  0  0  0  0
 10  9  1  0  0  0  0
 11 16  1  0  0  0  0
 12 11  1  0  0  0  0
 13 12  2  0  0  0  0
 13 14  1  0  0  0  0
 14 15  2  0  0  0  0
 16 15  1  0  0  0  0
 16  7  2  0  0  0  0
 17 18  2  0  0  0  0
 18 19  1  0  0  0  0
 19 26  1  0  0  0  0
 20 21  1  0  0  0  0
 20 19  1  0  0  0  0
 22 21  2  0  0  0  0
 23 22  1  0  0  0  0
 24 23  2  0  0  0  0
 24 25  1  0  0  0  0
 25 17  1  0  0  0  0
 25 20  2  0  0  0  0
M  END
>  <minimizedAffinity>
-6.86340284

$$$$

 OpenBabel03242510043D

 26 30  0  0  0  0  0  0  0  0999 V2000
   43.6440   34.0910   40.7000 C   0  0  0  0  0  0  0  0  0  0  0  0
   44.7790   33.8510   39.9130 C   0  0  0  0  0  3  0  0  0  0  0  0
   46.0430   33.6320   40.4520 C   0  0  0  0  0  3  0  0  0  0  0  0
   46.1120   33.6640   41.8030 N   0  0  0  0  0  0  0  0  0  0  0  0
   45.0580   33.8870   42.5830 C   0  0  0  0  0  0  0  0  0  0  0  0
   43.8590   34.0940   42.0260 N   0  0  0  0  0  0  0  0  0  0  0  0
   42.3010   34.3710   40.3220 C   0  0  0  0  0  0  0  0  0  0  0  0
   41.7530   35.5630   40.8410 C   0  0  0  0  0  3  0  0  0  0  0  0
   40.4610   36.0090   40.5890 C   0  0  0  0  0  3  0  0  0  0  0  0
   39.6530   35.2350   39.7740 C   0  0  0  0  0  3  0  0  0  0  0  0
   40.1370   34.0660   39.2440 C   0  0  0  0  0  0  0  0  0  0  0  0
   39.3270   33.2890   38.4370 C   0  0  0  0  0  3  0  0  0  0  0  0
   39.7520   32.0960   37.8800 C   0  0  0  0  0  3  0  0  0  0  0  0
   41.0630   31.7370   38.1920 C   0  0  0  0  0  3  0  0  0  0  0  0
   41.8350   32.5270   38.9920 C   0  0  0  0  0  3  0  0  0  0  0  0
   41.4120   33.7000   39.5390 C   0  0  0  0  0  0  0  0  0  0  0  0
   45.2650   33.8950   44.0300 C   0  0  0  0  0  0  0  0  0  0  0  0
   44.9100   34.9450   44.8520 C   0  0  0  0  0  3  0  0  0  0  0  0
   45.2550   34.5930   46.1220 N   0  0  0  0  0  0  0  0  0  0  0  0
   45.8070   33.3650   46.0990 C   0  0  0  0  0  0  0  0  0  0  0  0
   46.3160   32.5730   47.1340 C   0  0  0  0  0  3  0  0  0  0  0  0
   46.8150   31.3530   46.7710 C   0  0  0  0  0  3  0  0  0  0  0  0
   46.8640   30.8310   45.4970 C   0  0  0  0  0  3  0  0  0  0  0  0
   46.3500   31.6390   44.4850 C   0  0  0  0  0  3  0  0  0  0  0  0
   45.8350   32.8840   44.8060 C   0  0  0  0  0  0  0  0  0  0  0  0
   45.1170   35.1720   46.9620 H   0  0  0  0  0  0  0  0  0  0  0  0
  1  6  1  0  0  0  0
  2  3  1  0  0  0  0
  2  1  2  0  0  0  0
  3  4  2  0  0  0  0
  4  5  1  0  0  0  0
  5 17  1  0  0  0  0
  6  5  2  0  0  0  0
  7  1  1  0  0  0  0
  7  8  1  0  0  0  0
  9  8  2  0  0  0  0
 10  9  1  0  0  0  0
 11 16  1  0  0  0  0
 11 10  2  0  0  0  0
 12 11  1  0  0  0  0
 13 14  1  0  0  0  0
 13 12  2  0  0  0  0
 14 15  2  0  0  0  0
 15 16  1  0  0  0  0
 16  7  2  0  0  0  0
 17 25  1  0  0  0  0
 17 18  2  0  0  0  0
 18 19  1  0  0  0  0
 19 26  1  0  0  0  0
 20 19  1  0  0  0  0
 20 21  1  0  0  0  0
 22 21  2  0  0  0  0
 23 22  1  0  0  0  0
 24 25  1  0  0  0  0
 24 23  2  0  0  0  0
 25 20  2  0  0  0  0
M  END
>  <minimizedAffinity>
-6.83949852

$$$$
