./init_pose/1_0.pdbqt
 OpenBabel03262520053D

  6  6  0  0  0  0  0  0  0  0999 V2000
   37.2980   30.1820   51.4170 C   0  0  0  0  0  0  0  0  0  0  0  0
   38.0700   30.6810   50.3460 C   0  0  0  0  0  0  0  0  0  0  0  0
   37.6750   30.3430   49.0430 C   0  0  0  0  0  0  0  0  0  0  0  0
   36.5740   29.5510   48.8870 N   0  0  0  0  0  0  0  0  0  0  0  0
   35.8580   29.0930   49.9390 C   0  0  0  0  0  0  0  0  0  0  0  0
   36.2190   29.4110   51.1960 N   0  0  0  0  0  0  0  0  0  0  0  0
  2  1  2  0  0  0  0
  3  2  1  0  0  0  0
  4  3  2  0  0  0  0
  4  5  1  0  0  0  0
  5  6  2  0  0  0  0
  6  1  1  0  0  0  0
M  END
>  <MODEL>
1

>  <REMARK>
 minimizedAffinity -2.81124425REMARK  Name = 7
  0 active torsions:
  status: ('A' for Active; 'I' for Inactive)
                            x       y       z     vdW  Elec       q    Type
                         _______ _______ _______ _____ _____    ______ ____

>  <TORSDO>
F 0

$$$$
