./init_pose/1_0.pdbqt
     RDKit          3D

 10 10  0  0  0  0  0  0  0  0999 V2000
   37.2980   30.1820   51.4170 C   0  0  0  0  0  0  0  0  0  0  0  0
   38.0700   30.6810   50.3460 C   0  0  0  0  0  0  0  0  0  0  0  0
   37.6750   30.3430   49.0430 C   0  0  0  0  0  0  0  0  0  0  0  0
   36.5740   29.5510   48.8870 N   0  0  0  0  0  0  0  0  0  0  0  0
   35.8580   29.0930   49.9390 C   0  0  0  0  0  0  0  0  0  0  0  0
   36.2190   29.4110   51.1960 N   0  0  0  0  0  0  0  0  0  0  0  0
   37.5840   30.4281   52.4502 H   0  0  0  0  0  0  0  0  0  0  0  0
   38.9516   31.3135   50.5269 H   0  0  0  0  0  0  0  0  0  0  0  0
   38.2374   30.7064   48.1703 H   0  0  0  0  0  0  0  0  0  0  0  0
   34.9767   28.4578   49.7665 H   0  0  0  0  0  0  0  0  0  0  0  0
  2  1  2  0
  3  2  1  0
  4  3  2  0
  4  5  1  0
  5  6  2  0
  6  1  1  0
  1  7  1  0
  2  8  1  0
  3  9  1  0
  5 10  1  0
M  END
>  <MODEL>  (1) 
1

>  <REMARK>  (1) 
 minimizedAffinity -2.81124425REMARK  Name = 7
  0 active torsions:
  status: ('A' for Active; 'I' for Inactive)
                            x       y       z     vdW  Elec       q    Type
                         _______ _______ _______ _____ _____    ______ ____

>  <TORSDO>  (1) 
F 0

$$$$
