./init_pose/1_1.pdbqt
 OpenBabel03262520053D

  6  6  0  0  0  0  0  0  0  0999 V2000
   37.4300   30.1650   48.9560 C   0  0  0  0  0  0  0  0  0  0  0  0
   37.9900   30.5440   50.1950 C   0  0  0  0  0  0  0  0  0  0  0  0
   37.3180   30.1550   51.3630 C   0  0  0  0  0  0  0  0  0  0  0  0
   36.1630   29.4370   51.2340 N   0  0  0  0  0  0  0  0  0  0  0  0
   35.6580   29.0910   50.0280 C   0  0  0  0  0  0  0  0  0  0  0  0
   36.2920   29.4520   48.8970 N   0  0  0  0  0  0  0  0  0  0  0  0
  1  2  1  0  0  0  0
  2  3  2  0  0  0  0
  4  3  1  0  0  0  0
  5  4  2  0  0  0  0
  6  1  2  0  0  0  0
  6  5  1  0  0  0  0
M  END
>  <MODEL>
2

>  <REMARK>
 minimizedAffinity -2.77796936REMARK  Name = 7
  0 active torsions:
  status: ('A' for Active; 'I' for Inactive)
                            x       y       z     vdW  Elec       q    Type
                         _______ _______ _______ _____ _____    ______ ____

>  <TORSDO>
F 0

$$$$
