./init_pose/1_2.pdbqt
     RDKit          3D

 10 10  0  0  0  0  0  0  0  0999 V2000
   37.3510   30.2830   51.3170 C   0  0  0  0  0  0  0  0  0  0  0  0
   36.3110   29.4110   50.9300 C   0  0  0  0  0  0  0  0  0  0  0  0
   36.1210   29.1870   49.5580 C   0  0  0  0  0  0  0  0  0  0  0  0
   36.9480   29.8270   48.6800 N   0  0  0  0  0  0  0  0  0  0  0  0
   37.9360   30.6550   49.0880 C   0  0  0  0  0  0  0  0  0  0  0  0
   38.1350   30.8780   50.4010 N   0  0  0  0  0  0  0  0  0  0  0  0
   37.5230   30.4791   52.3856 H   0  0  0  0  0  0  0  0  0  0  0  0
   35.6704   28.9230   51.6793 H   0  0  0  0  0  0  0  0  0  0  0  0
   35.3278   28.5144   49.1996 H   0  0  0  0  0  0  0  0  0  0  0  0
   38.5796   31.1482   48.3447 H   0  0  0  0  0  0  0  0  0  0  0  0
  2  1  2  0
  3  2  1  0
  4  5  1  0
  4  3  2  0
  5  6  2  0
  6  1  1  0
  1  7  1  0
  2  8  1  0
  3  9  1  0
  5 10  1  0
M  END
>  <MODEL>  (1) 
3

>  <REMARK>  (1) 
 minimizedAffinity -2.75909901REMARK  Name = 7
  0 active torsions:
  status: ('A' for Active; 'I' for Inactive)
                            x       y       z     vdW  Elec       q    Type
                         _______ _______ _______ _____ _____    ______ ____

>  <TORSDO>  (1) 
F 0

$$$$
