MODEL 5
REMARK minimizedAffinity -2.71193266REMARK  Name = 7
REMARK  0 active torsions:
REMARK  status: ('A' for Active; 'I' for Inactive)
REMARK                            x       y       z     vdW  Elec       q    Type
REMARK                         _______ _______ _______ _____ _____    ______ ____
ROOT
ATOM      1  C   UNL     1      36.670  29.677  48.813  0.00  0.00    +0.000 A 
ATOM      2  C   UNL     1      37.749  30.578  48.934  0.00  0.00    +0.000 A 
ATOM      3  C   UNL     1      38.174  30.920  50.227  0.00  0.00    +0.000 A 
ATOM      4  N   UNL     1      37.519  30.365  51.289  0.00  0.00    +0.000 NA
ATOM      5  C   UNL     1      36.489  29.502  51.133  0.00  0.00    +0.000 A 
ATOM      6  N   UNL     1      36.071  29.160  49.900  0.00  0.00    +0.000 NA
ENDROOT
TORSDOF 0
ENDMDL
