./init_pose/1_5.pdbqt
 OpenBabel03262520053D

  6  6  0  0  0  0  0  0  0  0999 V2000
   27.4170   28.9480   50.0100 C   0  0  0  0  0  0  0  0  0  0  0  0
   26.8930   28.0280   50.9430 C   0  0  0  0  0  0  0  0  0  0  0  0
   27.7370   27.0020   51.3950 C   0  0  0  0  0  0  0  0  0  0  0  0
   29.0100   26.9520   50.9040 N   0  0  0  0  0  0  0  0  0  0  0  0
   29.4780   27.8530   50.0120 C   0  0  0  0  0  0  0  0  0  0  0  0
   28.6840   28.8460   49.5710 N   0  0  0  0  0  0  0  0  0  0  0  0
  1  2  1  0  0  0  0
  2  3  2  0  0  0  0
  4  3  1  0  0  0  0
  5  4  2  0  0  0  0
  6  1  2  0  0  0  0
  6  5  1  0  0  0  0
M  END
>  <MODEL>
6

>  <REMARK>
 minimizedAffinity -2.70532775REMARK  Name = 7
  0 active torsions:
  status: ('A' for Active; 'I' for Inactive)
                            x       y       z     vdW  Elec       q    Type
                         _______ _______ _______ _____ _____    ______ ____

>  <TORSDO>
F 0

$$$$
