MODEL 7
REMARK minimizedAffinity -2.69716382REMARK  Name = 7
REMARK  0 active torsions:
REMARK  status: ('A' for Active; 'I' for Inactive)
REMARK                            x       y       z     vdW  Elec       q    Type
REMARK                         _______ _______ _______ _____ _____    ______ ____
ROOT
ATOM      1  C   UNL     1      27.750  27.022  51.362  0.00  0.00    +0.000 A 
ATOM      2  C   UNL     1      26.872  28.042  50.937  0.00  0.00    +0.000 A 
ATOM      3  C   UNL     1      27.361  28.985  50.020  0.00  0.00    +0.000 A 
ATOM      4  N   UNL     1      28.653  28.863  49.597  0.00  0.00    +0.000 NA
ATOM      5  C   UNL     1      29.465  27.870  50.026  0.00  0.00    +0.000 A 
ATOM      6  N   UNL     1      29.011  26.954  50.902  0.00  0.00    +0.000 NA
ENDROOT
TORSDOF 0
ENDMDL
