./init_pose/1_6.pdbqt
     RDKit          3D

 10 10  0  0  0  0  0  0  0  0999 V2000
   27.7500   27.0220   51.3620 C   0  0  0  0  0  0  0  0  0  0  0  0
   26.8720   28.0420   50.9370 C   0  0  0  0  0  0  0  0  0  0  0  0
   27.3610   28.9850   50.0200 C   0  0  0  0  0  0  0  0  0  0  0  0
   28.6530   28.8630   49.5970 N   0  0  0  0  0  0  0  0  0  0  0  0
   29.4650   27.8700   50.0260 C   0  0  0  0  0  0  0  0  0  0  0  0
   29.0110   26.9540   50.9020 N   0  0  0  0  0  0  0  0  0  0  0  0
   27.3961   26.2696   52.0822 H   0  0  0  0  0  0  0  0  0  0  0  0
   25.8393   28.0960   51.3119 H   0  0  0  0  0  0  0  0  0  0  0  0
   26.7206   29.8002   49.6521 H   0  0  0  0  0  0  0  0  0  0  0  0
   30.4999   27.8106   49.6579 H   0  0  0  0  0  0  0  0  0  0  0  0
  2  1  2  0
  3  2  1  0
  4  3  2  0
  4  5  1  0
  5  6  2  0
  6  1  1  0
  1  7  1  0
  2  8  1  0
  3  9  1  0
  5 10  1  0
M  END
>  <MODEL>  (1) 
7

>  <REMARK>  (1) 
 minimizedAffinity -2.69716382REMARK  Name = 7
  0 active torsions:
  status: ('A' for Active; 'I' for Inactive)
                            x       y       z     vdW  Elec       q    Type
                         _______ _______ _______ _____ _____    ______ ____

>  <TORSDO>  (1) 
F 0

$$$$
