MODEL 8
REMARK minimizedAffinity -2.65339541REMARK  Name = 7
REMARK  0 active torsions:
REMARK  status: ('A' for Active; 'I' for Inactive)
REMARK                            x       y       z     vdW  Elec       q    Type
REMARK                         _______ _______ _______ _____ _____    ______ ____
ROOT
ATOM      1  C   UNL     1      27.586  27.077  51.236  0.00  0.00    +0.000 A 
ATOM      2  C   UNL     1      28.940  26.989  50.847  0.00  0.00    +0.000 A 
ATOM      3  C   UNL     1      29.431  27.963  49.965  0.00  0.00    +0.000 A 
ATOM      4  N   UNL     1      28.573  28.934  49.534  0.00  0.00    +0.000 NA
ATOM      5  C   UNL     1      27.281  28.987  49.931  0.00  0.00    +0.000 A 
ATOM      6  N   UNL     1      26.795  28.063  50.780  0.00  0.00    +0.000 NA
ENDROOT
TORSDOF 0
ENDMDL
