./init_pose/1_8.pdbqt
 OpenBabel03262520053D

  6  6  0  0  0  0  0  0  0  0999 V2000
   25.2590   31.0380   48.8690 C   0  0  0  0  0  0  0  0  0  0  0  0
   24.6320   29.8080   49.1640 C   0  0  0  0  0  0  0  0  0  0  0  0
   25.4490   28.7320   49.5450 C   0  0  0  0  0  0  0  0  0  0  0  0
   26.7980   28.9370   49.6040 N   0  0  0  0  0  0  0  0  0  0  0  0
   27.3620   30.1310   49.3150 C   0  0  0  0  0  0  0  0  0  0  0  0
   26.5930   31.1750   48.9520 N   0  0  0  0  0  0  0  0  0  0  0  0
  1  6  2  0  0  0  0
  1  2  1  0  0  0  0
  2  3  2  0  0  0  0
  3  4  1  0  0  0  0
  5  4  2  0  0  0  0
  6  5  1  0  0  0  0
M  END
>  <MODEL>
9

>  <REMARK>
 minimizedAffinity -2.63811445REMARK  Name = 7
  0 active torsions:
  status: ('A' for Active; 'I' for Inactive)
                            x       y       z     vdW  Elec       q    Type
                         _______ _______ _______ _____ _____    ______ ____

>  <TORSDO>
F 0

$$$$
