
 OpenBabel03242508233D

 15 16  0  0  0  0  0  0  0  0999 V2000
   38.8020   28.5460   43.1700 C   0  0  0  0  0  0  0  0  0  0  0  0
   38.2010   27.2730   43.2620 C   0  0  0  0  0  0  0  0  0  0  0  0
   36.9310   27.1110   42.6800 C   0  0  0  0  0  0  0  0  0  0  0  0
   36.3720   28.1890   42.0710 N   0  0  0  0  0  0  0  0  0  0  0  0
   36.9790   29.3750   42.0100 C   0  0  0  0  0  0  0  0  0  0  0  0
   38.1970   29.5670   42.5560 N   0  0  0  0  0  0  0  0  0  0  0  0
   39.7630   28.6740   43.6080 H   0  0  0  0  0  0  0  0  0  0  0  0
   38.6720   26.4280   43.7540 H   0  0  0  0  0  0  0  0  0  0  0  0
   36.4700   26.1370   42.7490 H   0  0  0  0  0  0  0  0  0  0  0  0
   36.1720   30.2800   41.3310 O   0  0  0  0  0  0  0  0  0  0  0  0
   36.6650   31.0520   40.3630 C   0  0  0  0  0  0  0  0  0  0  0  0
   37.1780   32.3060   40.2440 C   0  0  0  0  0  0  0  0  0  0  0  0
   37.6130   32.8280   39.0810 C   0  0  0  0  0  0  0  0  0  0  0  0
   37.4820   31.8990   37.9220 C   0  0  0  0  0  0  0  0  0  0  0  0
   36.7530   30.4040   38.6550 S   0  0  0  0  0  0  0  0  0  0  0  0
  1  2  1  0  0  0  0
  1  7  1  0  0  0  0
  2  8  1  0  0  0  0
  3  9  1  0  0  0  0
  3  2  2  0  0  0  0
  4  3  1  0  0  0  0
  5  4  2  0  0  0  0
  5  6  1  0  0  0  0
  6  1  2  0  0  0  0
 10  5  1  0  0  0  0
 11 10  1  0  0  0  0
 12 11  2  0  0  0  0
 13 12  1  0  0  0  0
 14 15  1  0  0  0  0
 14 13  2  0  0  0  0
 15 11  1  0  0  0  0
M  END
>  <minimizedAffinity>
-3.82669759

>  <minimizedRMSD>
1.26041675

$$$$
