
 OpenBabel03242508513D

 29 32  0  0  0  0  0  0  0  0999 V2000
   38.9980   28.1030   41.1480 C   0  0  0  0  0  0  0  0  0  0  0  0
   39.9390   29.0000   40.6380 C   0  0  0  0  0  0  0  0  0  0  0  0
   39.2760   30.0090   40.0890 N   0  0  0  0  0  0  0  0  0  0  0  0
   37.9320   29.8290   40.2100 C   0  0  0  0  0  0  0  0  0  0  0  0
   36.8830   30.6340   39.7800 C   0  0  0  0  0  0  0  0  0  0  0  0
   35.5950   30.1920   40.0450 C   0  0  0  0  0  0  0  0  0  0  0  0
   35.3840   29.0040   40.7060 C   0  0  0  0  0  0  0  0  0  0  0  0
   36.4320   28.2110   41.1280 C   0  0  0  0  0  0  0  0  0  0  0  0
   37.7340   28.6240   40.8790 C   0  0  0  0  0  0  0  0  0  0  0  0
   40.9920   28.8630   40.6970 H   0  0  0  0  0  0  0  0  0  0  0  0
   37.0160   31.5630   39.2640 H   0  0  0  0  0  0  0  0  0  0  0  0
   34.6970   30.7410   39.7550 H   0  0  0  0  0  0  0  0  0  0  0  0
   34.3920   28.6200   40.9350 H   0  0  0  0  0  0  0  0  0  0  0  0
   36.2820   27.2600   41.6570 H   0  0  0  0  0  0  0  0  0  0  0  0
   39.2480   24.5060   41.7860 C   0  0  0  0  0  0  0  0  0  0  0  0
   39.7510   24.4640   43.1240 C   0  0  0  0  0  0  0  0  0  0  0  0
   39.9950   25.6890   43.7810 C   0  0  0  0  0  0  0  0  0  0  0  0
   39.7350   26.8190   43.0980 N   0  0  0  0  0  0  0  0  0  0  0  0
   39.2630   26.8410   41.8420 C   0  0  0  0  0  0  0  0  0  0  0  0
   39.0210   25.6910   41.1900 N   0  0  0  0  0  0  0  0  0  0  0  0
   39.0690   23.5550   41.3020 H   0  0  0  0  0  0  0  0  0  0  0  0
   39.9480   23.5290   43.6410 H   0  0  0  0  0  0  0  0  0  0  0  0
   40.3690   25.7170   44.7740 H   0  0  0  0  0  0  0  0  0  0  0  0
   39.8670   31.1450   39.4510 C   0  0  0  0  0  0  0  0  0  0  0  0
   40.3820   32.2390   40.2130 C   0  0  0  0  0  0  0  0  0  0  0  0
   41.0020   33.3790   38.8950 S   0  0  0  0  0  0  0  0  0  0  0  0
   40.4470   32.1610   37.5510 C   0  0  0  0  0  0  0  0  0  0  0  0
   40.5050   32.1880   36.3860 H   0  0  0  0  0  0  0  0  0  0  0  0
   39.9860   31.2820   38.1290 N   0  0  0  0  0  0  0  0  0  0  0  0
  1 19  1  0  0  0  0
  2 10  1  0  0  0  0
  2  1  2  0  0  0  0
  3  4  1  0  0  0  0
  3  2  1  0  0  0  0
  4  9  1  0  0  0  0
  5  6  1  0  0  0  0
  5  4  2  0  0  0  0
  6  7  2  0  0  0  0
  7 13  1  0  0  0  0
  7  8  1  0  0  0  0
  8 14  1  0  0  0  0
  9  8  2  0  0  0  0
  9  1  1  0  0  0  0
 11  5  1  0  0  0  0
 12  6  1  0  0  0  0
 15 16  1  0  0  0  0
 16 22  1  0  0  0  0
 16 17  2  0  0  0  0
 17 23  1  0  0  0  0
 18 17  1  0  0  0  0
 19 18  2  0  0  0  0
 20 15  2  0  0  0  0
 20 19  1  0  0  0  0
 21 15  1  0  0  0  0
 24  3  1  0  0  0  0
 24 25  2  0  0  0  0
 26 25  1  0  0  0  0
 27 29  2  0  0  0  0
 27 26  1  0  0  0  0
 28 27  1  0  0  0  0
 29 24  1  0  0  0  0
M  END
>  <minimizedAffinity>
-4.82229042

>  <minimizedRMSD>
4.76198006

$$$$
