
     RDKit          3D

 16 16  0  0  0  0  0  0  0  0999 V2000
   37.9715   28.8803   43.3712 C   0  0  0  0  0  0  0  0  0  0  0  0
   38.0753   27.4682   43.3058 C   0  0  0  0  0  0  0  0  0  0  0  0
   37.4321   26.8211   42.2582 C   0  0  0  0  0  0  0  0  0  0  0  0
   36.7308   27.5768   41.3417 N   0  0  0  0  0  0  0  0  0  0  0  0
   36.6651   28.9131   41.4515 C   0  0  0  0  0  0  0  0  0  0  0  0
   37.2746   29.5497   42.4480 N   0  0  0  0  0  0  0  0  0  0  0  0
   37.5213   25.3298   42.1590 C   0  0  0  0  0  0  0  0  0  0  0  0
   37.6563   25.0588   40.8051 F   0  0  0  0  0  0  0  0  0  0  0  0
   38.6362   24.8440   42.7902 F   0  0  0  0  0  0  0  0  0  0  0  0
   36.3828   24.7131   42.6424 F   0  0  0  0  0  0  0  0  0  0  0  0
   38.4447   29.4303   44.1535 H   0  0  0  0  0  0  0  0  0  0  0  0
   38.6459   26.9332   44.0638 H   0  0  0  0  0  0  0  0  0  0  0  0
   35.8771   29.6550   40.4053 C   0  0  0  0  0  0  0  0  0  0  0  0
   34.8833   29.8320   40.8393 H   0  0  0  0  0  0  0  0  0  0  0  0
   35.7518   29.0754   39.4810 H   0  0  0  0  0  0  0  0  0  0  0  0
   36.4269   30.5711   40.1546 H   0  0  0  0  0  0  0  0  0  0  0  0
  2  1  2  0
  3  2  1  0
  4  5  1  0
  4  3  2  0
  5  6  2  0
  6  1  1  0
  7  3  1  0
  7 10  1  0
  7  9  1  0
  8  7  1  0
  1 11  1  0
  2 12  1  0
 13 14  1  0
 13 15  1  0
 13 16  1  0
  5 13  1  0
M  ISO  3  11  14  12  14  14   8
M  END
>  <DihAtoms>  (1) 
3,4,12,13

>  <DihDeg>  (1) 
-157.656439746166

$$$$
