
 OpenBabel03242509203D

 31 33  0  0  0  0  0  0  0  0999 V2000
   38.7420   28.2410   42.7040 C   0  0  0  0  0  0  0  0  0  0  0  0
   37.6370   27.4350   42.7950 C   0  0  0  0  0  0  0  0  0  0  0  0
   36.5870   28.1170   42.2240 C   0  0  0  0  0  0  0  0  0  0  0  0
   37.1110   29.3070   41.8130 N   0  0  0  0  0  0  0  0  0  0  0  0
   38.3700   29.3660   42.0980 N   0  0  0  0  0  0  0  0  0  0  0  0
   37.6380   26.4420   43.2480 H   0  0  0  0  0  0  0  0  0  0  0  0
   35.6090   27.6880   42.1750 H   0  0  0  0  0  0  0  0  0  0  0  0
   41.6090   26.5090   44.3790 C   0  0  0  0  0  0  0  0  0  0  0  0
   40.3120   26.7650   43.9270 C   0  0  0  0  0  0  0  0  0  0  0  0
   40.0630   27.9180   43.1920 C   0  0  0  0  0  0  0  0  0  0  0  0
   41.0920   28.7710   42.9320 N   0  0  0  0  0  0  0  0  0  0  0  0
   42.3400   28.4780   43.3940 C   0  0  0  0  0  0  0  0  0  0  0  0
   42.5960   27.3710   44.1030 N   0  0  0  0  0  0  0  0  0  0  0  0
   41.7790   25.6070   44.9480 H   0  0  0  0  0  0  0  0  0  0  0  0
   39.4910   26.0820   44.1370 H   0  0  0  0  0  0  0  0  0  0  0  0
   43.0700   29.2400   43.1160 H   0  0  0  0  0  0  0  0  0  0  0  0
   36.2050   30.2350   41.1760 C   0  0  0  0  0  0  0  0  0  0  0  0
   35.5220   30.5850   41.9950 H   0  0  0  0  0  0  0  0  0  0  0  0
   36.7860   31.1240   40.8550 H   0  0  0  0  0  0  0  0  0  0  0  0
   35.3670   29.6650   40.1090 C   0  0  0  0  0  0  0  0  0  0  0  0
   34.3370   30.0860   40.2160 H   0  0  0  0  0  0  0  0  0  0  0  0
   35.2360   28.5750   40.3370 H   0  0  0  0  0  0  0  0  0  0  0  0
   35.8420   29.7620   38.7700 N   0  0  0  0  0  0  0  0  0  0  0  0
   36.9160   30.3330   38.2070 C   0  0  0  0  0  0  0  0  0  0  0  0
   37.1950   30.2980   36.8690 C   0  0  0  0  0  0  0  0  0  0  0  0
   36.3500   29.6450   35.9970 C   0  0  0  0  0  0  0  0  0  0  0  0
   36.5670   29.5880   34.7720 O   0  0  0  0  0  0  0  0  0  0  0  0
   35.2680   29.0680   36.5510 N   0  0  0  0  0  0  0  0  0  0  0  0
   35.0180   29.1200   37.8860 C   0  0  0  0  0  0  0  0  0  0  0  0
   33.9420   28.5100   38.2140 O   0  0  0  0  0  0  0  0  0  0  0  0
   34.6360   28.5760   35.8820 H   0  0  0  0  0  0  0  0  0  0  0  0
  1  2  1  0  0  0  0
  1 10  1  0  0  0  0
  2  6  1  0  0  0  0
  3  2  2  0  0  0  0
  4  5  1  0  0  0  0
  4  3  1  0  0  0  0
  5  1  2  0  0  0  0
  7  3  1  0  0  0  0
  8 14  1  0  0  0  0
  9 15  1  0  0  0  0
  9  8  2  0  0  0  0
 10  9  1  0  0  0  0
 11 10  2  0  0  0  0
 11 12  1  0  0  0  0
 12 13  2  0  0  0  0
 13  8  1  0  0  0  0
 16 12  1  0  0  0  0
 17  4  1  0  0  0  0
 17 18  1  0  0  0  0
 19 17  1  0  0  0  0
 20 21  1  0  0  0  0
 20 22  1  0  0  0  0
 20 17  1  0  0  0  0
 23 20  1  0  0  0  0
 24 23  1  0  0  0  0
 25 24  2  0  0  0  0
 26 28  1  0  0  0  0
 26 25  1  0  0  0  0
 27 26  2  0  0  0  0
 28 29  1  0  0  0  0
 29 30  2  0  0  0  0
 29 23  1  0  0  0  0
 31 28  1  0  0  0  0
M  END
>  <minimizedAffinity>
-4.72604036

>  <minimizedRMSD>
1.55486894

$$$$
