
 OpenBabel03242508323D

 37 40  0  0  0  0  0  0  0  0999 V2000
   38.7630   28.5140   43.3210 C   0  0  0  0  0  0  0  0  0  0  0  0
   38.3910   27.1800   43.0120 C   0  0  0  0  0  0  0  0  0  0  0  0
   37.3190   27.0170   42.1330 C   0  0  0  0  0  0  0  0  0  0  0  0
   36.7010   28.1140   41.6290 N   0  0  0  0  0  0  0  0  0  0  0  0
   37.0920   29.3520   41.9550 C   0  0  0  0  0  0  0  0  0  0  0  0
   38.1260   29.5540   42.8030 N   0  0  0  0  0  0  0  0  0  0  0  0
   39.5800   28.7430   43.9920 H   0  0  0  0  0  0  0  0  0  0  0  0
   38.9970   26.4610   43.5050 H   0  0  0  0  0  0  0  0  0  0  0  0
   36.9750   25.6340   41.8450 C   0  0  0  0  0  0  0  0  0  0  0  0
   35.9840   25.3780   42.2540 H   0  0  0  0  0  0  0  0  0  0  0  0
   36.8530   25.5570   40.7330 H   0  0  0  0  0  0  0  0  0  0  0  0
   38.0380   24.6370   42.2620 C   0  0  0  0  0  0  0  0  0  0  0  0
   37.6050   23.8630   42.9260 H   0  0  0  0  0  0  0  0  0  0  0  0
   38.9430   25.1190   42.6320 H   0  0  0  0  0  0  0  0  0  0  0  0
   38.4180   23.9350   41.0290 N   0  0  0  0  0  0  0  0  0  0  0  0
   37.6960   22.8720   40.6120 C   0  0  0  0  0  0  0  0  0  0  0  0
   37.9390   22.1250   39.4790 C   0  0  0  0  0  0  0  0  0  0  0  0
   39.0300   22.5210   38.7170 C   0  0  0  0  0  0  0  0  0  0  0  0
   39.3240   21.8860   37.6560 O   0  0  0  0  0  0  0  0  0  0  0  0
   39.7410   23.5780   39.1420 N   0  0  0  0  0  0  0  0  0  0  0  0
   39.4730   24.2820   40.2520 C   0  0  0  0  0  0  0  0  0  0  0  0
   40.1640   25.2640   40.6130 O   0  0  0  0  0  0  0  0  0  0  0  0
   40.5580   23.8680   38.5650 H   0  0  0  0  0  0  0  0  0  0  0  0
   36.3220   30.2910   41.3280 O   0  0  0  0  0  0  0  0  0  0  0  0
   36.9100   31.2210   40.4750 C   0  0  0  0  0  0  0  0  0  0  0  0
   36.7580   31.4130   39.1320 N   0  0  0  0  0  0  0  0  0  0  0  0
   37.5200   32.4170   38.7620 O   0  0  0  0  0  0  0  0  0  0  0  0
   38.1430   32.8500   39.8470 C   0  0  0  0  0  0  0  0  0  0  0  0
   37.7860   32.1370   40.9020 N   0  0  0  0  0  0  0  0  0  0  0  0
   39.0810   33.9600   39.8350 C   0  0  0  0  0  0  0  0  0  0  0  0
   38.8230   35.2720   40.2360 C   0  0  0  0  0  0  0  0  0  0  0  0
   39.9460   36.0280   40.0790 C   0  0  0  0  0  0  0  0  0  0  0  0
   40.8950   35.1470   39.5750 C   0  0  0  0  0  0  0  0  0  0  0  0
   40.3370   33.9760   39.4560 O   0  0  0  0  0  0  0  0  0  0  0  0
   37.8800   35.6640   40.6190 H   0  0  0  0  0  0  0  0  0  0  0  0
   40.1580   37.0740   40.2730 H   0  0  0  0  0  0  0  0  0  0  0  0
   41.9190   35.4120   39.3280 H   0  0  0  0  0  0  0  0  0  0  0  0
  1  7  1  0  0  0  0
  2  1  1  0  0  0  0
  2  8  1  0  0  0  0
  3  2  2  0  0  0  0
  4  5  2  0  0  0  0
  4  3  1  0  0  0  0
  5  6  1  0  0  0  0
  6  1  2  0  0  0  0
  9  3  1  0  0  0  0
  9 10  1  0  0  0  0
  9 12  1  0  0  0  0
 11  9  1  0  0  0  0
 12 14  1  0  0  0  0
 12 13  1  0  0  0  0
 15 12  1  0  0  0  0
 16 15  1  0  0  0  0
 17 16  2  0  0  0  0
 18 20  1  0  0  0  0
 18 17  1  0  0  0  0
 19 18  2  0  0  0  0
 20 21  1  0  0  0  0
 21 22  2  0  0  0  0
 21 15  1  0  0  0  0
 23 20  1  0  0  0  0
 24  5  1  0  0  0  0
 25 29  1  0  0  0  0
 25 24  1  0  0  0  0
 26 25  2  0  0  0  0
 27 26  1  0  0  0  0
 27 28  1  0  0  0  0
 28 29  2  0  0  0  0
 30 28  1  0  0  0  0
 30 31  2  0  0  0  0
 31 35  1  0  0  0  0
 32 31  1  0  0  0  0
 32 36  1  0  0  0  0
 33 32  2  0  0  0  0
 34 33  1  0  0  0  0
 34 30  1  0  0  0  0
 37 33  1  0  0  0  0
M  END
>  <minimizedAffinity>
-5.90693998

>  <minimizedRMSD>
1.57395303

$$$$
