
 OpenBabel03242504453D

 16 17  0  0  0  0  0  0  0  0999 V2000
   37.8920   29.8870   41.9110 C   0  0  0  0  0  0  0  0  0  0  0  0
   37.6770   28.5100   42.0530 C   0  0  0  0  0  0  0  0  0  0  0  0
   36.5050   27.9650   41.5210 C   0  0  0  0  0  0  0  0  0  0  0  0
   35.6220   28.8030   40.8840 N   0  0  0  0  0  0  0  0  0  0  0  0
   35.8670   30.1320   40.7670 C   0  0  0  0  0  0  0  0  0  0  0  0
   37.0100   30.6670   41.2860 N   0  0  0  0  0  0  0  0  0  0  0  0
   38.8290   30.2370   42.3530 H   0  0  0  0  0  0  0  0  0  0  0  0
   36.3050   26.9060   41.6120 H   0  0  0  0  0  0  0  0  0  0  0  0
   35.1630   30.7900   40.2620 H   0  0  0  0  0  0  0  0  0  0  0  0
   38.5810   27.5790   42.7190 C   0  0  0  0  0  0  0  0  0  0  0  0
   38.4420   26.2520   42.9190 N   0  0  0  0  0  0  0  0  0  0  0  0
   39.5170   25.8270   43.5690 O   0  0  0  0  0  0  0  0  0  0  0  0
   40.3350   26.8140   43.7960 C   0  0  0  0  0  0  0  0  0  0  0  0
   39.7700   27.9280   43.2710 N   0  0  0  0  0  0  0  0  0  0  0  0
   41.6390   26.7110   44.5000 C   0  0  0  0  0  0  0  0  0  0  0  0
   41.5650   27.0720   45.5490 H   0  0  0  0  0  0  0  0  0  0  0  0
  1  2  1  0  0  0  0
  1  7  1  0  0  0  0
  2 10  1  0  0  0  0
  3  8  1  0  0  0  0
  3  2  2  0  0  0  0
  4  3  1  0  0  0  0
  5  4  2  0  0  0  0
  5  6  1  0  0  0  0
  6  1  2  0  0  0  0
  9  5  1  0  0  0  0
 10 11  2  0  0  0  0
 10 14  1  0  0  0  0
 11 12  1  0  0  0  0
 12 13  1  0  0  0  0
 13 15  1  0  0  0  0
 14 13  2  0  0  0  0
 15 16  1  0  0  0  0
M  END
>  <minimizedAffinity>
-3.64436603

>  <minimizedRMSD>
0.254270762

$$$$
