
 OpenBabel03242509313D

 15 15  0  0  0  0  0  0  0  0999 V2000
   38.0580   28.7040   43.4090 C   0  0  0  0  0  0  0  0  0  0  0  0
   38.0860   27.2970   43.2120 C   0  0  0  0  0  0  0  0  0  0  0  0
   37.3520   26.7830   42.1260 C   0  0  0  0  0  0  0  0  0  0  0  0
   36.6580   27.6600   41.3240 N   0  0  0  0  0  0  0  0  0  0  0  0
   36.6750   28.9810   41.5670 C   0  0  0  0  0  0  0  0  0  0  0  0
   37.3570   29.4980   42.5840 N   0  0  0  0  0  0  0  0  0  0  0  0
   38.6500   29.0130   44.2680 H   0  0  0  0  0  0  0  0  0  0  0  0
   38.6350   26.6410   43.8550 H   0  0  0  0  0  0  0  0  0  0  0  0
   37.3650   25.3200   41.9010 C   0  0  0  0  0  0  0  0  0  0  0  0
   37.0630   25.1440   40.5640 F   0  0  0  0  0  0  0  0  0  0  0  0
   38.5740   24.7460   42.1560 F   0  0  0  0  0  0  0  0  0  0  0  0
   36.3770   24.6730   42.6530 F   0  0  0  0  0  0  0  0  0  0  0  0
   35.8990   29.9010   40.6600 C   0  0  0  0  0  2  0  0  0  0  0  0
   34.8300   29.1620   39.9240 C   0  0  0  0  0  2  0  0  0  0  0  0
   34.6030   28.2030   40.4450 H   0  0  0  0  0  0  0  0  0  0  0  0
  1  7  1  0  0  0  0
  2  1  1  0  0  0  0
  2  8  1  0  0  0  0
  3  2  2  0  0  0  0
  4  5  2  0  0  0  0
  4  3  1  0  0  0  0
  5  6  1  0  0  0  0
  6  1  2  0  0  0  0
  9  3  1  0  0  0  0
  9 11  1  0  0  0  0
  9 12  1  0  0  0  0
 10  9  1  0  0  0  0
 13  5  1  0  0  0  0
 14 15  1  0  0  0  0
 14 13  1  0  0  0  0
M  END
>  <minimizedAffinity>
-3.954813

>  <minimizedRMSD>
0.344369352

$$$$
