
 OpenBabel03242505423D

 17 18  0  0  0  0  0  0  0  0999 V2000
   40.2840   27.9140   43.0180 C   0  0  0  0  0  0  0  0  0  0  0  0
   39.4380   27.0920   43.7770 C   0  0  0  0  0  0  0  0  0  0  0  0
   38.0740   27.3670   43.7760 C   0  0  0  0  0  0  0  0  0  0  0  0
   37.6490   28.4360   43.0240 N   0  0  0  0  0  0  0  0  0  0  0  0
   38.4980   29.2010   42.3080 C   0  0  0  0  0  0  0  0  0  0  0  0
   39.8230   28.9500   42.2970 N   0  0  0  0  0  0  0  0  0  0  0  0
   41.3130   27.6420   43.0680 H   0  0  0  0  0  0  0  0  0  0  0  0
   39.7580   26.2570   44.3660 H   0  0  0  0  0  0  0  0  0  0  0  0
   37.3040   26.8260   44.3090 H   0  0  0  0  0  0  0  0  0  0  0  0
   37.8590   30.2940   41.5710 C   0  0  0  0  0  0  0  0  0  0  0  0
   36.5180   30.3450   41.4150 N   0  0  0  0  0  0  0  0  0  0  0  0
   36.1770   31.3980   40.7300 O   0  0  0  0  0  0  0  0  0  0  0  0
   37.2780   32.0700   40.4150 C   0  0  0  0  0  0  0  0  0  0  0  0
   38.3570   31.3990   40.9320 N   0  0  0  0  0  0  0  0  0  0  0  0
   37.5450   33.3220   39.6630 C   0  0  0  0  0  0  0  0  0  0  0  0
   38.5930   34.1430   40.4190 C   0  0  0  0  0  0  0  0  0  0  0  0
   38.3590   35.2270   40.2420 H   0  0  0  0  0  0  0  0  0  0  0  0
  1  7  1  0  0  0  0
  1  2  1  0  0  0  0
  2  8  1  0  0  0  0
  3  2  2  0  0  0  0
  3  9  1  0  0  0  0
  4  3  1  0  0  0  0
  5  4  2  0  0  0  0
  6  5  1  0  0  0  0
  6  1  2  0  0  0  0
 10  5  1  0  0  0  0
 11 10  2  0  0  0  0
 12 11  1  0  0  0  0
 13 12  1  0  0  0  0
 13 14  2  0  0  0  0
 14 10  1  0  0  0  0
 15 13  1  0  0  0  0
 15 16  1  0  0  0  0
 17 16  1  0  0  0  0
M  END
>  <minimizedAffinity>
-3.99460936

>  <minimizedRMSD>
0.988367915

$$$$
