
 OpenBabel03242506383D

 36 38  0  0  1  0  0  0  0  0999 V2000
   37.2990   31.0490   40.7010 C   0  0  0  0  0  0  0  0  0  0  0  0
   36.2780   30.9430   41.4290 O   0  0  0  0  0  0  0  0  0  0  0  0
   37.9140   29.9590   40.0080 N   0  0  0  0  0  0  0  0  0  0  0  0
   38.1720   28.6370   40.5610 C   0  0  0  0  0  0  0  0  0  0  0  0
   39.6570   28.3990   40.2390 C   0  0  0  0  0  0  0  0  0  0  0  0
   39.7800   28.1970   38.8210 N   0  0  0  0  0  0  0  0  0  0  0  0
   39.0480   29.0850   37.9990 C   0  0  0  0  0  0  0  0  0  0  0  0
   38.3040   30.1980   38.6540 C   0  0  1  0  0  0  0  0  0  0  0  0
   37.5960   27.8510   40.0420 H   0  0  0  0  0  0  0  0  0  0  0  0
   38.0390   28.6320   41.6670 H   0  0  0  0  0  0  0  0  0  0  0  0
   40.0300   27.4770   40.7320 H   0  0  0  0  0  0  0  0  0  0  0  0
   40.2190   29.2960   40.5630 H   0  0  0  0  0  0  0  0  0  0  0  0
   39.7100   27.2010   38.5210 H   0  0  0  0  0  0  0  0  0  0  0  0
   39.7130   29.5050   37.2080 H   0  0  0  0  0  0  0  0  0  0  0  0
   38.3010   28.4860   37.4350 H   0  0  0  0  0  0  0  0  0  0  0  0
   39.0120   31.0560   38.6860 H   0  0  0  0  0  0  0  0  0  0  0  0
   40.1000   33.3850   40.5330 C   0  0  0  0  0  0  0  0  0  0  0  0
   39.5350   34.5600   40.1130 C   0  0  0  0  0  0  0  0  0  0  0  0
   38.1760   34.5760   39.8790 C   0  0  0  0  0  0  0  0  0  0  0  0
   37.4170   33.4840   40.0510 N   0  0  0  0  0  0  0  0  0  0  0  0
   38.0000   32.3240   40.4700 C   0  0  0  0  0  0  0  0  0  0  0  0
   39.3330   32.3100   40.6990 N   0  0  0  0  0  0  0  0  0  0  0  0
   40.0940   35.4710   39.9570 H   0  0  0  0  0  0  0  0  0  0  0  0
   37.6770   35.4830   39.5440 H   0  0  0  0  0  0  0  0  0  0  0  0
   43.6970   34.1310   40.4330 C   0  0  0  0  0  0  0  0  0  0  0  0
   44.2190   33.1370   41.3100 C   0  0  0  0  0  0  0  0  0  0  0  0
   43.3400   32.2540   41.9010 C   0  0  0  0  0  0  0  0  0  0  0  0
   42.0030   32.3640   41.6250 N   0  0  0  0  0  0  0  0  0  0  0  0
   41.5210   33.3050   40.7970 C   0  0  0  0  0  0  0  0  0  0  0  0
   42.3720   34.1740   40.2140 N   0  0  0  0  0  0  0  0  0  0  0  0
   44.3530   34.8260   39.9630 H   0  0  0  0  0  0  0  0  0  0  0  0
   45.2750   33.0770   41.5070 H   0  0  0  0  0  0  0  0  0  0  0  0
   43.6840   31.4720   42.5830 H   0  0  0  0  0  0  0  0  0  0  0  0
   37.1750   30.6620   37.7560 C   0  0  0  0  0  0  0  0  0  0  0  0
   37.7830   31.7540   36.8800 C   0  0  0  0  0  0  0  0  0  0  0  0
   38.4850   32.3520   37.5320 H   0  0  0  0  0  0  0  0  0  0  0  0
  1  2  2  0  0  0  0
  3  4  1  0  0  0  0
  3  1  1  0  0  0  0
  4 10  1  0  0  0  0
  5  4  1  0  0  0  0
  5 12  1  0  0  0  0
  5 11  1  0  0  0  0
  6  5  1  0  0  0  0
  7  8  1  0  0  0  0
  7  6  1  0  0  0  0
  8 16  1  1  0  0  0
  8  3  1  0  0  0  0
  9  4  1  0  0  0  0
 13  6  1  0  0  0  0
 14  7  1  0  0  0  0
 15  7  1  0  0  0  0
 17 22  1  0  0  0  0
 17 29  1  0  0  0  0
 18 17  2  0  0  0  0
 19 20  2  0  0  0  0
 19 18  1  0  0  0  0
 20 21  1  0  0  0  0
 21 22  2  0  0  0  0
 21  1  1  0  0  0  0
 23 18  1  0  0  0  0
 24 19  1  0  0  0  0
 25 26  1  0  0  0  0
 26 32  1  0  0  0  0
 26 27  2  0  0  0  0
 27 33  1  0  0  0  0
 28 27  1  0  0  0  0
 29 28  2  0  0  0  0
 30 25  2  0  0  0  0
 30 29  1  0  0  0  0
 31 25  1  0  0  0  0
 34  8  1  0  0  0  0
 35 36  1  0  0  0  0
 35 34  1  0  0  0  0
M  END
>  <minimizedAffinity>
-4.58560181

>  <minimizedRMSD>
4.98805523

$$$$
