
 OpenBabel03242509313D

 15 15  0  0  0  0  0  0  0  0999 V2000
   38.0360   28.8400   43.4000 C   0  0  0  0  0  0  0  0  0  0  0  0
   38.1420   27.4260   43.3110 C   0  0  0  0  0  0  0  0  0  0  0  0
   37.4390   26.7910   42.2700 C   0  0  0  0  0  0  0  0  0  0  0  0
   36.6980   27.5640   41.4050 N   0  0  0  0  0  0  0  0  0  0  0  0
   36.6400   28.8980   41.5480 C   0  0  0  0  0  0  0  0  0  0  0  0
   37.2910   29.5290   42.5200 N   0  0  0  0  0  0  0  0  0  0  0  0
   38.6080   29.2470   44.2310 H   0  0  0  0  0  0  0  0  0  0  0  0
   38.7270   26.8530   43.9990 H   0  0  0  0  0  0  0  0  0  0  0  0
   37.5350   25.3180   42.1560 C   0  0  0  0  0  0  0  0  0  0  0  0
   37.6340   25.0520   40.8040 F   0  0  0  0  0  0  0  0  0  0  0  0
   38.6250   24.7990   42.7860 F   0  0  0  0  0  0  0  0  0  0  0  0
   36.3790   24.6880   42.6330 F   0  0  0  0  0  0  0  0  0  0  0  0
   35.8140   29.7020   40.5760 C   0  0  0  0  0  2  0  0  0  0  0  0
   36.4200   31.0450   40.3300 C   0  0  0  0  0  2  0  0  0  0  0  0
   37.4960   31.0360   40.6210 H   0  0  0  0  0  0  0  0  0  0  0  0
  1  7  1  0  0  0  0
  2  1  1  0  0  0  0
  2  8  1  0  0  0  0
  3  2  2  0  0  0  0
  4  5  2  0  0  0  0
  4  3  1  0  0  0  0
  5  6  1  0  0  0  0
  6  1  2  0  0  0  0
  9  3  1  0  0  0  0
  9 12  1  0  0  0  0
  9 11  1  0  0  0  0
 10  9  1  0  0  0  0
 13  5  1  0  0  0  0
 14 13  1  0  0  0  0
 14 15  1  0  0  0  0
M  END
>  <minimizedAffinity>
-3.93697453

>  <minimizedRMSD>
0.231676832

$$$$
