
 OpenBabel03242509313D

 15 15  0  0  0  0  0  0  0  0999 V2000
   38.0640   28.8090   43.4270 C   0  0  0  0  0  0  0  0  0  0  0  0
   38.1570   27.3950   43.3230 C   0  0  0  0  0  0  0  0  0  0  0  0
   37.4460   26.7770   42.2780 C   0  0  0  0  0  0  0  0  0  0  0  0
   36.7090   27.5650   41.4230 N   0  0  0  0  0  0  0  0  0  0  0  0
   36.6640   28.8980   41.5790 C   0  0  0  0  0  0  0  0  0  0  0  0
   37.3230   29.5130   42.5550 N   0  0  0  0  0  0  0  0  0  0  0  0
   38.6430   29.2030   44.2590 H   0  0  0  0  0  0  0  0  0  0  0  0
   38.7390   26.8110   44.0040 H   0  0  0  0  0  0  0  0  0  0  0  0
   37.5270   25.3040   42.1500 C   0  0  0  0  0  0  0  0  0  0  0  0
   37.6140   25.0500   40.7950 F   0  0  0  0  0  0  0  0  0  0  0  0
   38.6180   24.7690   42.7670 F   0  0  0  0  0  0  0  0  0  0  0  0
   36.3710   24.6790   42.6310 F   0  0  0  0  0  0  0  0  0  0  0  0
   35.8430   29.7180   40.6170 C   0  0  0  0  0  2  0  0  0  0  0  0
   36.3960   31.0990   40.4720 C   0  0  0  0  0  2  0  0  0  0  0  0
   37.4580   31.1200   40.8090 H   0  0  0  0  0  0  0  0  0  0  0  0
  1  7  1  0  0  0  0
  2  1  1  0  0  0  0
  2  8  1  0  0  0  0
  3  2  2  0  0  0  0
  4  5  2  0  0  0  0
  4  3  1  0  0  0  0
  5  6  1  0  0  0  0
  6  1  2  0  0  0  0
  9  3  1  0  0  0  0
  9 12  1  0  0  0  0
  9 11  1  0  0  0  0
 10  9  1  0  0  0  0
 13  5  1  0  0  0  0
 14 13  1  0  0  0  0
 14 15  1  0  0  0  0
M  END
>  <minimizedAffinity>
-3.94612217

>  <minimizedRMSD>
0.113307543

$$$$
