REMARK  Name = 
REMARK  3 active torsions:
REMARK  status: ('A' for Active; 'I' for Inactive)
REMARK    1  A    between atoms: C_3  and  C_7
REMARK    2  A    between atoms: C_5  and  C_13
REMARK    3  A    between atoms: C_13  and  C_14
REMARK                            x       y       z     vdW  Elec       q    Type
REMARK                         _______ _______ _______ _____ _____    ______ ____
ROOT
ATOM      1  C   UNL     1      37.978  28.883  43.369  0.00  0.00    +0.000 A 
ATOM      2  C   UNL     1      38.092  27.468  43.304  0.00  0.00    +0.000 A 
ATOM      3  C   UNL     1      37.433  26.816  42.245  0.00  0.00    +0.000 A 
ATOM      4  N   UNL     1      36.724  27.574  41.341  0.00  0.00    +0.000 NA
ATOM      5  C   UNL     1      36.657  28.910  41.462  0.00  0.00    +0.000 A 
ATOM      6  N   UNL     1      37.267  29.556  42.450  0.00  0.00    +0.000 NA
ATOM      7  H   UNL     1      38.516  29.303  44.216  0.00  0.00    +0.000 HD
ATOM      8  H   UNL     1      38.651  26.907  44.023  0.00  0.00    +0.000 HD
ENDROOT
BRANCH   3   9
ATOM      9  C   UNL     1      37.537  25.342  42.156  0.00  0.00    +0.000 C 
ATOM     10  F   UNL     1      37.655  25.055  40.810  0.00  0.00    +0.000 F 
ATOM     11  F   UNL     1      38.622  24.838  42.808  0.00  0.00    +0.000 F 
ATOM     12  F   UNL     1      36.379  24.713  42.629  0.00  0.00    +0.000 F 
ENDBRANCH   3   9
BRANCH   5  13
ATOM     13  C   UNL     1      35.868  29.697  40.447  0.00  0.00    +0.000 C 
BRANCH  13  14
ATOM     14  C   UNL     1      34.732  28.894  39.902  0.00  0.00    +0.000 C 
ATOM     15  H   UNL     1      34.498  28.050  40.591  0.00  0.00    +0.000 HD
ENDBRANCH  13  14
ENDBRANCH   5  13
TORSDOF 3
