
 OpenBabel03242508513D

 29 32  0  0  0  0  0  0  0  0999 V2000
   39.1170   31.4180   41.1900 C   0  0  0  0  0  0  0  0  0  0  0  0
   39.9020   30.5220   41.9370 C   0  0  0  0  0  0  0  0  0  0  0  0
   39.1650   29.4280   42.1380 N   0  0  0  0  0  0  0  0  0  0  0  0
   37.9380   29.5490   41.5700 C   0  0  0  0  0  0  0  0  0  0  0  0
   36.8930   28.6460   41.5560 C   0  0  0  0  0  0  0  0  0  0  0  0
   35.7370   29.0310   40.8930 C   0  0  0  0  0  0  0  0  0  0  0  0
   35.6640   30.2620   40.2870 C   0  0  0  0  0  0  0  0  0  0  0  0
   36.7100   31.1680   40.3010 C   0  0  0  0  0  0  0  0  0  0  0  0
   37.8750   30.8000   40.9590 C   0  0  0  0  0  0  0  0  0  0  0  0
   40.9080   30.7700   42.2400 H   0  0  0  0  0  0  0  0  0  0  0  0
   36.9510   27.6940   42.0240 H   0  0  0  0  0  0  0  0  0  0  0  0
   34.8690   28.3890   40.8300 H   0  0  0  0  0  0  0  0  0  0  0  0
   34.7650   30.5720   39.7670 H   0  0  0  0  0  0  0  0  0  0  0  0
   36.6680   32.1500   39.8240 H   0  0  0  0  0  0  0  0  0  0  0  0
   38.9940   35.0280   40.6400 C   0  0  0  0  0  0  0  0  0  0  0  0
   40.1770   35.2680   39.8680 C   0  0  0  0  0  0  0  0  0  0  0  0
   40.9930   34.1590   39.5560 C   0  0  0  0  0  0  0  0  0  0  0  0
   40.6030   32.9520   40.0050 N   0  0  0  0  0  0  0  0  0  0  0  0
   39.4940   32.7470   40.7270 C   0  0  0  0  0  0  0  0  0  0  0  0
   38.6920   33.7840   41.0420 N   0  0  0  0  0  0  0  0  0  0  0  0
   38.3800   35.8880   40.8710 H   0  0  0  0  0  0  0  0  0  0  0  0
   40.4640   36.2510   39.5200 H   0  0  0  0  0  0  0  0  0  0  0  0
   41.8920   34.2470   38.9850 H   0  0  0  0  0  0  0  0  0  0  0  0
   39.7410   28.3410   42.8870 C   0  0  0  0  0  0  0  0  0  0  0  0
   41.0090   27.9120   43.1980 C   0  0  0  0  0  0  0  0  0  0  0  0
   40.8890   26.7840   43.9640 C   0  0  0  0  0  0  0  0  0  0  0  0
   39.5460   26.5520   44.1030 C   0  0  0  0  0  0  0  0  0  0  0  0
   39.1070   25.7320   44.6560 H   0  0  0  0  0  0  0  0  0  0  0  0
   38.9050   27.4860   43.4570 O   0  0  0  0  0  0  0  0  0  0  0  0
  1  2  2  0  0  0  0
  2  3  1  0  0  0  0
  2 10  1  0  0  0  0
  3 24  1  0  0  0  0
  4  3  1  0  0  0  0
  5  4  1  0  0  0  0
  5 11  1  0  0  0  0
  6  5  2  0  0  0  0
  7  8  2  0  0  0  0
  7  6  1  0  0  0  0
  8  9  1  0  0  0  0
  9  1  1  0  0  0  0
  9  4  2  0  0  0  0
 12  6  1  0  0  0  0
 13  7  1  0  0  0  0
 14  8  1  0  0  0  0
 15 21  1  0  0  0  0
 15 20  1  0  0  0  0
 16 15  2  0  0  0  0
 17 16  1  0  0  0  0
 17 18  2  0  0  0  0
 18 19  1  0  0  0  0
 19 20  2  0  0  0  0
 19  1  1  0  0  0  0
 22 16  1  0  0  0  0
 23 17  1  0  0  0  0
 24 25  2  0  0  0  0
 24 29  1  0  0  0  0
 25 26  1  0  0  0  0
 26 27  2  0  0  0  0
 27 28  1  0  0  0  0
 29 27  1  0  0  0  0
M  END
>  <minimizedAffinity>
-5.80912685

>  <minimizedRMSD>
6.09726524

$$$$
