REMARK  Name = 
REMARK  2 active torsions:
REMARK  status: ('A' for Active; 'I' for Inactive)
REMARK    1  A    between atoms: C_3  and  C_7
REMARK    2  A    between atoms: C_5  and  C_13
REMARK                            x       y       z     vdW  Elec       q    Type
REMARK                         _______ _______ _______ _____ _____    ______ ____
ROOT
ATOM      1  C   UNL     1      37.964  28.882  43.369  0.00  0.00    +0.000 A 
ATOM      2  C   UNL     1      38.084  27.469  43.316  0.00  0.00    +0.000 A 
ATOM      3  C   UNL     1      37.437  26.814  42.253  0.00  0.00    +0.000 A 
ATOM      4  N   UNL     1      36.743  27.584  41.352  0.00  0.00    +0.000 NA
ATOM      5  C   UNL     1      36.654  28.916  41.437  0.00  0.00    +0.000 A 
ATOM      6  N   UNL     1      37.272  29.548  42.454  0.00  0.00    +0.000 NA
ATOM      7  H   UNL     1      38.481  29.348  44.208  0.00  0.00    +0.000 HD
ATOM      8  H   UNL     1      38.642  26.920  44.050  0.00  0.00    +0.000 HD
ENDROOT
BRANCH   3   9
ATOM      9  C   UNL     1      37.534  25.331  42.154  0.00  0.00    +0.000 C 
ATOM     10  F   UNL     1      37.648  25.054  40.812  0.00  0.00    +0.000 F 
ATOM     11  F   UNL     1      38.630  24.840  42.786  0.00  0.00    +0.000 F 
ATOM     12  F   UNL     1      36.380  24.718  42.641  0.00  0.00    +0.000 F 
ENDBRANCH   3   9
BRANCH   5  13
ATOM     13  C   UNL     1      35.870  29.628  40.395  0.00  0.00    +0.000 C 
ATOM     14  F   UNL     1      35.925  28.922  39.204  0.00  0.00    +0.000 F 
ATOM     15  F   UNL     1      34.552  29.795  40.769  0.00  0.00    +0.000 F 
ATOM     16  F   UNL     1      36.432  30.871  40.204  0.00  0.00    +0.000 F 
ENDBRANCH   5  13
TORSDOF 2
