
 OpenBabel03242504543D

 31 33  0  0  0  0  0  0  0  0999 V2000
   40.1970   28.5690   42.6420 C   0  0  0  0  0  0  0  0  0  0  0  0
   39.8310   27.6620   43.5410 N   0  0  0  0  0  0  0  0  0  0  0  0
   40.8800   27.2100   44.1680 O   0  0  0  0  0  0  0  0  0  0  0  0
   41.9680   27.8020   43.7090 C   0  0  0  0  0  0  0  0  0  0  0  0
   41.5480   28.6440   42.7630 N   0  0  0  0  0  0  0  0  0  0  0  0
   43.3340   27.6770   44.0400 N   0  0  0  0  0  0  0  0  0  0  0  0
   44.1940   28.0540   43.0600 C   0  0  0  0  0  0  0  0  0  0  0  0
   45.5520   27.9770   43.2660 C   0  0  0  0  0  0  0  0  0  0  0  0
   45.9340   27.4960   44.5240 C   0  0  0  0  0  0  0  0  0  0  0  0
   47.1700   27.4000   44.7780 O   0  0  0  0  0  0  0  0  0  0  0  0
   45.0600   27.1310   45.4740 N   0  0  0  0  0  0  0  0  0  0  0  0
   43.7520   27.2280   45.2150 C   0  0  0  0  0  0  0  0  0  0  0  0
   42.9080   26.8950   46.0830 O   0  0  0  0  0  0  0  0  0  0  0  0
   43.9100   28.4260   42.0850 H   0  0  0  0  0  0  0  0  0  0  0  0
   46.2970   28.2590   42.5320 H   0  0  0  0  0  0  0  0  0  0  0  0
   45.3920   26.7780   46.4000 H   0  0  0  0  0  0  0  0  0  0  0  0
   39.1130   30.7200   41.8150 C   0  0  0  0  0  0  0  0  0  0  0  0
   39.4190   29.3620   41.6970 C   0  0  0  0  0  0  0  0  0  0  0  0
   38.9490   28.6690   40.5840 C   0  0  0  0  0  0  0  0  0  0  0  0
   38.2060   29.3820   39.6690 N   0  0  0  0  0  0  0  0  0  0  0  0
   37.9390   30.6870   39.8280 C   0  0  0  0  0  0  0  0  0  0  0  0
   38.3910   31.3520   40.8970 N   0  0  0  0  0  0  0  0  0  0  0  0
   39.5280   31.1550   42.7150 H   0  0  0  0  0  0  0  0  0  0  0  0
   37.1330   31.3480   38.7830 C   0  0  0  0  0  0  0  0  0  0  0  0
   36.6450   32.5430   39.2360 F   0  0  0  0  0  0  0  0  0  0  0  0
   37.8960   31.5600   37.6460 F   0  0  0  0  0  0  0  0  0  0  0  0
   36.0370   30.5420   38.4600 F   0  0  0  0  0  0  0  0  0  0  0  0
   39.1410   27.2360   40.2560 C   0  0  0  0  0  0  0  0  0  0  0  0
   38.4520   26.4180   41.1190 F   0  0  0  0  0  0  0  0  0  0  0  0
   40.4750   26.8730   40.3040 F   0  0  0  0  0  0  0  0  0  0  0  0
   38.7150   26.9280   38.9900 F   0  0  0  0  0  0  0  0  0  0  0  0
  1  5  1  0  0  0  0
  1  2  2  0  0  0  0
  2  3  1  0  0  0  0
  4  6  1  0  0  0  0
  4  3  1  0  0  0  0
  5  4  2  0  0  0  0
  6 12  1  0  0  0  0
  7  8  2  0  0  0  0
  7  6  1  0  0  0  0
  8  9  1  0  0  0  0
  9 10  2  0  0  0  0
  9 11  1  0  0  0  0
 11 16  1  0  0  0  0
 12 11  1  0  0  0  0
 12 13  2  0  0  0  0
 14  7  1  0  0  0  0
 15  8  1  0  0  0  0
 17 23  1  0  0  0  0
 18 17  1  0  0  0  0
 18  1  1  0  0  0  0
 19 18  2  0  0  0  0
 20 21  2  0  0  0  0
 20 19  1  0  0  0  0
 21 22  1  0  0  0  0
 22 17  2  0  0  0  0
 24 25  1  0  0  0  0
 24 21  1  0  0  0  0
 26 24  1  0  0  0  0
 27 24  1  0  0  0  0
 28 30  1  0  0  0  0
 28 19  1  0  0  0  0
 28 29  1  0  0  0  0
 31 28  1  0  0  0  0
M  END
>  <minimizedAffinity>
-4.77329588

>  <minimizedRMSD>
0.767846346

$$$$
