
 OpenBabel03242509303D

 16 16  0  0  0  0  0  0  0  0999 V2000
   38.0100   28.8640   43.3700 C   0  0  0  0  0  0  0  0  0  0  0  0
   38.1320   27.4510   43.3040 C   0  0  0  0  0  0  0  0  0  0  0  0
   37.4400   26.8000   42.2670 C   0  0  0  0  0  0  0  0  0  0  0  0
   36.7040   27.5720   41.4030 N   0  0  0  0  0  0  0  0  0  0  0  0
   36.6140   28.9030   41.4990 C   0  0  0  0  0  0  0  0  0  0  0  0
   37.2750   29.5320   42.4910 N   0  0  0  0  0  0  0  0  0  0  0  0
   38.5620   29.3270   44.1880 H   0  0  0  0  0  0  0  0  0  0  0  0
   38.7240   26.9010   44.0090 H   0  0  0  0  0  0  0  0  0  0  0  0
   37.5380   25.3180   42.1560 C   0  0  0  0  0  0  0  0  0  0  0  0
   37.6570   25.0530   40.8120 F   0  0  0  0  0  0  0  0  0  0  0  0
   38.6310   24.8210   42.7880 F   0  0  0  0  0  0  0  0  0  0  0  0
   36.3810   24.7010   42.6320 F   0  0  0  0  0  0  0  0  0  0  0  0
   35.7820   29.6180   40.4970 C   0  0  0  0  0  0  0  0  0  0  0  0
   34.4960   29.1020   40.5030 F   0  0  0  0  0  0  0  0  0  0  0  0
   35.7340   30.9750   40.7440 F   0  0  0  0  0  0  0  0  0  0  0  0
   36.3370   29.4190   39.2510 F   0  0  0  0  0  0  0  0  0  0  0  0
  1  7  1  0  0  0  0
  2  1  1  0  0  0  0
  2  8  1  0  0  0  0
  3  2  2  0  0  0  0
  4  5  2  0  0  0  0
  4  3  1  0  0  0  0
  5  6  1  0  0  0  0
  6  1  2  0  0  0  0
  9  3  1  0  0  0  0
  9 12  1  0  0  0  0
  9 11  1  0  0  0  0
 10  9  1  0  0  0  0
 13 14  1  0  0  0  0
 13 15  1  0  0  0  0
 13  5  1  0  0  0  0
 16 13  1  0  0  0  0
M  END
>  <minimizedAffinity>
-4.4610405

>  <minimizedRMSD>
0.356438488

$$$$
