
 OpenBabel03242509263D

 43 46  0  0  0  0  0  0  0  0999 V2000
   36.1380   30.0870   41.0880 C   0  0  0  0  0  0  0  0  0  0  0  0
   35.5490   30.6150   41.8840 H   0  0  0  0  0  0  0  0  0  0  0  0
   36.7640   30.8750   40.6180 H   0  0  0  0  0  0  0  0  0  0  0  0
   38.5540   28.1080   42.6930 C   0  0  0  0  0  0  0  0  0  0  0  0
   37.4470   27.2960   42.7940 C   0  0  0  0  0  0  0  0  0  0  0  0
   36.3980   27.9840   42.1780 C   0  0  0  0  0  0  0  0  0  0  0  0
   36.9500   29.1350   41.7640 N   0  0  0  0  0  0  0  0  0  0  0  0
   38.2130   29.2510   42.0440 N   0  0  0  0  0  0  0  0  0  0  0  0
   37.4790   26.3170   43.2790 H   0  0  0  0  0  0  0  0  0  0  0  0
   35.4200   27.5710   42.1170 H   0  0  0  0  0  0  0  0  0  0  0  0
   41.4390   26.3790   44.2940 C   0  0  0  0  0  0  0  0  0  0  0  0
   40.1340   26.5970   43.8370 C   0  0  0  0  0  0  0  0  0  0  0  0
   39.8810   27.8180   43.1910 C   0  0  0  0  0  0  0  0  0  0  0  0
   40.8830   28.7250   43.0360 N   0  0  0  0  0  0  0  0  0  0  0  0
   42.1350   28.4440   43.5090 C   0  0  0  0  0  0  0  0  0  0  0  0
   42.4020   27.2870   44.1270 N   0  0  0  0  0  0  0  0  0  0  0  0
   41.7040   25.4500   44.8050 H   0  0  0  0  0  0  0  0  0  0  0  0
   39.3690   25.8520   43.9810 H   0  0  0  0  0  0  0  0  0  0  0  0
   43.2110   29.4520   43.3250 C   0  0  0  0  0  0  0  0  0  0  0  0
   43.3290   30.1640   44.4830 F   0  0  0  0  0  0  0  0  0  0  0  0
   44.3930   28.8580   42.9400 F   0  0  0  0  0  0  0  0  0  0  0  0
   42.8320   30.3480   42.3200 F   0  0  0  0  0  0  0  0  0  0  0  0
   35.2390   29.5380   40.0250 C   0  0  0  0  0  0  0  0  0  0  0  0
   34.7480   28.6460   40.3850 H   0  0  0  0  0  0  0  0  0  0  0  0
   34.5510   30.4390   39.8960 H   0  0  0  0  0  0  0  0  0  0  0  0
   35.8600   29.4420   38.6810 C   0  0  0  0  0  0  0  0  0  0  0  0
   37.1780   29.5830   38.3580 C   0  0  0  0  0  0  0  0  0  0  0  0
   37.7000   29.5620   37.1000 C   0  0  0  0  0  0  0  0  0  0  0  0
   36.8610   29.3870   36.0260 C   0  0  0  0  0  0  0  0  0  0  0  0
   35.5240   29.2380   36.2840 C   0  0  0  0  0  0  0  0  0  0  0  0
   34.7340   29.0730   35.1690 C   0  0  0  0  0  0  0  0  0  0  0  0
   33.3750   28.9150   35.3080 C   0  0  0  0  0  0  0  0  0  0  0  0
   32.8300   28.9230   36.5880 C   0  0  0  0  0  0  0  0  0  0  0  0
   33.6620   29.0910   37.6500 C   0  0  0  0  0  0  0  0  0  0  0  0
   35.0050   29.2580   37.5790 C   0  0  0  0  0  0  0  0  0  0  0  0
   37.8300   29.7220   39.2350 H   0  0  0  0  0  0  0  0  0  0  0  0
   38.7710   29.6880   37.0270 H   0  0  0  0  0  0  0  0  0  0  0  0
   37.2760   29.3720   35.0270 H   0  0  0  0  0  0  0  0  0  0  0  0
   35.1170   29.0580   34.1660 H   0  0  0  0  0  0  0  0  0  0  0  0
   32.7180   28.7850   34.4580 H   0  0  0  0  0  0  0  0  0  0  0  0
   31.7610   28.7950   36.6890 H   0  0  0  0  0  0  0  0  0  0  0  0
   33.0540   29.0730   38.8890 O   0  0  0  0  0  0  0  0  0  0  0  0
   32.0890   29.2150   39.0760 H   0  0  0  0  0  0  0  0  0  0  0  0
  1  7  1  0  0  0  0
  1  2  1  0  0  0  0
  3  1  1  0  0  0  0
  4  5  1  0  0  0  0
  4 13  1  0  0  0  0
  5  9  1  0  0  0  0
  6  5  2  0  0  0  0
  7  8  1  0  0  0  0
  7  6  1  0  0  0  0
  8  4  2  0  0  0  0
 10  6  1  0  0  0  0
 11 17  1  0  0  0  0
 12 18  1  0  0  0  0
 12 11  2  0  0  0  0
 13 12  1  0  0  0  0
 14 13  2  0  0  0  0
 14 15  1  0  0  0  0
 15 16  2  0  0  0  0
 16 11  1  0  0  0  0
 19 15  1  0  0  0  0
 19 20  1  0  0  0  0
 21 19  1  0  0  0  0
 22 19  1  0  0  0  0
 23 24  1  0  0  0  0
 23  1  1  0  0  0  0
 25 23  1  0  0  0  0
 26 23  1  0  0  0  0
 27 26  1  0  0  0  0
 27 36  1  0  0  0  0
 28 27  2  0  0  0  0
 29 30  2  0  0  0  0
 29 28  1  0  0  0  0
 30 35  1  0  0  0  0
 31 32  2  0  0  0  0
 31 30  1  0  0  0  0
 32 33  1  0  0  0  0
 33 41  1  0  0  0  0
 33 34  2  0  0  0  0
 34 42  1  0  0  0  0
 35 34  1  0  0  0  0
 35 26  2  0  0  0  0
 37 28  1  0  0  0  0
 38 29  1  0  0  0  0
 39 31  1  0  0  0  0
 40 32  1  0  0  0  0
 42 43  1  0  0  0  0
M  END
>  <minimizedAffinity>
-5.88747978

>  <minimizedRMSD>
0.187309161

$$$$
