
 OpenBabel03242509313D

 16 16  0  0  0  0  0  0  0  0999 V2000
   38.0680   28.6910   43.4170 C   0  0  0  0  0  0  0  0  0  0  0  0
   38.1060   27.2840   43.2430 C   0  0  0  0  0  0  0  0  0  0  0  0
   37.3850   26.7560   42.1570 C   0  0  0  0  0  0  0  0  0  0  0  0
   36.7040   27.6350   41.3510 N   0  0  0  0  0  0  0  0  0  0  0  0
   36.6940   28.9570   41.5480 C   0  0  0  0  0  0  0  0  0  0  0  0
   37.3820   29.4680   42.5880 N   0  0  0  0  0  0  0  0  0  0  0  0
   38.6400   29.0570   44.2690 H   0  0  0  0  0  0  0  0  0  0  0  0
   38.6580   26.6460   43.9070 H   0  0  0  0  0  0  0  0  0  0  0  0
   37.3950   25.2830   41.9330 C   0  0  0  0  0  0  0  0  0  0  0  0
   37.1580   25.1090   40.5900 F   0  0  0  0  0  0  0  0  0  0  0  0
   38.5940   24.7210   42.2320 F   0  0  0  0  0  0  0  0  0  0  0  0
   36.3760   24.6590   42.6510 F   0  0  0  0  0  0  0  0  0  0  0  0
   35.9140   29.7950   40.6010 C   0  0  0  0  0  0  0  0  0  0  0  0
   35.8360   31.0930   41.0780 F   0  0  0  0  0  0  0  0  0  0  0  0
   36.4770   29.8010   39.3410 F   0  0  0  0  0  0  0  0  0  0  0  0
   34.6410   29.2750   40.5100 F   0  0  0  0  0  0  0  0  0  0  0  0
  1  7  1  0  0  0  0
  2  1  1  0  0  0  0
  2  8  1  0  0  0  0
  3  2  2  0  0  0  0
  4  5  2  0  0  0  0
  4  3  1  0  0  0  0
  5  6  1  0  0  0  0
  6  1  2  0  0  0  0
  9  3  1  0  0  0  0
  9 11  1  0  0  0  0
  9 12  1  0  0  0  0
 10  9  1  0  0  0  0
 13 14  1  0  0  0  0
 13  5  1  0  0  0  0
 15 13  1  0  0  0  0
 16 13  1  0  0  0  0
M  END
>  <minimizedAffinity>
-4.43765974

>  <minimizedRMSD>
0.475206345

$$$$
