
 OpenBabel03242508443D

 30 32  0  0  1  0  0  0  0  0999 V2000
   37.9360   27.3640   42.7510 C   0  0  2  0  0  0  0  0  0  0  0  0
   38.9960   27.6480   43.7180 C   0  0  0  0  0  0  0  0  0  0  0  0
   39.7740   26.3510   43.8580 C   0  0  0  0  0  0  0  0  0  0  0  0
   39.2850   25.4550   42.7690 C   0  0  0  0  0  0  0  0  0  0  0  0
   38.5530   26.3680   41.7850 C   0  0  1  0  0  0  0  0  0  0  0  0
   37.1190   26.7660   43.2530 H   0  0  0  0  0  0  0  0  0  0  0  0
   38.5740   27.8720   44.7310 H   0  0  0  0  0  0  0  0  0  0  0  0
   39.7300   28.4110   43.4670 H   0  0  0  0  0  0  0  0  0  0  0  0
   40.8670   26.4800   43.7030 H   0  0  0  0  0  0  0  0  0  0  0  0
   39.6690   25.9080   44.8690 H   0  0  0  0  0  0  0  0  0  0  0  0
   38.5740   24.7520   43.2500 H   0  0  0  0  0  0  0  0  0  0  0  0
   40.0800   24.8750   42.2640 H   0  0  0  0  0  0  0  0  0  0  0  0
   39.2120   26.8310   41.0600 H   0  0  0  0  0  0  0  0  0  0  0  0
   37.9920   29.7700   41.9330 C   0  0  0  0  0  0  0  0  0  0  0  0
   37.3550   28.5040   42.0650 C   0  0  0  0  0  0  0  0  0  0  0  0
   36.0980   28.3280   41.4980 C   0  0  0  0  0  0  0  0  0  0  0  0
   35.5310   29.3930   40.8340 N   0  0  0  0  0  0  0  0  0  0  0  0
   36.1670   30.6050   40.7220 C   0  0  0  0  0  0  0  0  0  0  0  0
   37.4020   30.7720   41.2810 N   0  0  0  0  0  0  0  0  0  0  0  0
   38.9690   29.8930   42.3780 H   0  0  0  0  0  0  0  0  0  0  0  0
   35.5400   27.4040   41.5480 H   0  0  0  0  0  0  0  0  0  0  0  0
   35.6060   31.3480   40.1760 H   0  0  0  0  0  0  0  0  0  0  0  0
   37.5670   25.4260   41.1840 C   0  0  0  0  0  0  0  0  0  0  0  0
   36.8570   24.5490   41.9290 N   0  0  0  0  0  0  0  0  0  0  0  0
   36.0920   23.8760   41.0960 O   0  0  0  0  0  0  0  0  0  0  0  0
   36.3140   24.3160   39.8730 C   0  0  0  0  0  0  0  0  0  0  0  0
   37.2260   25.2830   39.8790 N   0  0  0  0  0  0  0  0  0  0  0  0
   35.5760   23.7210   38.7390 C   0  0  0  0  0  0  0  0  0  0  0  0
   35.0350   24.7720   37.7920 C   0  0  0  0  0  0  0  0  0  0  0  0
   34.4170   22.8470   39.1790 C   0  0  0  0  0  0  0  0  0  0  0  0
  1  6  1  1  0  0  0
  1  2  1  0  0  0  0
  2  3  1  0  0  0  0
  2  7  1  0  0  0  0
  3 10  1  0  0  0  0
  4 11  1  0  0  0  0
  4  3  1  0  0  0  0
  5 13  1  6  0  0  0
  5  1  1  0  0  0  0
  5  4  1  0  0  0  0
  8  2  1  0  0  0  0
  9  3  1  0  0  0  0
 12  4  1  0  0  0  0
 14 15  1  0  0  0  0
 14 20  1  0  0  0  0
 15  1  1  0  0  0  0
 16 21  1  0  0  0  0
 16 15  2  0  0  0  0
 17 16  1  0  0  0  0
 18 17  2  0  0  0  0
 18 19  1  0  0  0  0
 19 14  2  0  0  0  0
 22 18  1  0  0  0  0
 23  5  1  0  0  0  0
 23 24  2  0  0  0  0
 25 24  1  0  0  0  0
 26 27  2  0  0  0  0
 26 25  1  0  0  0  0
 27 23  1  0  0  0  0
 28 30  1  0  0  0  0
 28 26  1  0  0  0  0
 29 28  1  0  0  0  0
M  END
>  <minimizedAffinity>
-4.92482424

>  <minimizedRMSD>
0.720479608

$$$$
