
 OpenBabel03242507533D

 21 22  0  0  0  0  0  0  0  0999 V2000
   37.1800   30.2400   40.3800 C   0  0  0  0  0  0  0  0  0  0  0  0
   37.2060   31.6120   40.5600 C   0  0  0  0  0  0  0  0  0  0  0  0
   37.2000   32.4330   39.4510 C   0  0  0  0  0  0  0  0  0  0  0  0
   37.1670   31.8200   38.1970 C   0  0  0  0  0  0  0  0  0  0  0  0
   37.1410   30.4580   38.0310 C   0  0  0  0  0  0  0  0  0  0  0  0
   37.1490   29.7010   39.1440 N   0  0  0  0  0  0  0  0  0  0  0  0
   37.2320   32.0810   41.5350 H   0  0  0  0  0  0  0  0  0  0  0  0
   37.2200   33.5210   39.5130 H   0  0  0  0  0  0  0  0  0  0  0  0
   37.1600   32.4070   37.2790 H   0  0  0  0  0  0  0  0  0  0  0  0
   38.0450   28.8720   43.6700 C   0  0  0  0  0  0  0  0  0  0  0  0
   37.2010   27.7530   43.7860 C   0  0  0  0  0  0  0  0  0  0  0  0
   36.3250   27.4730   42.7110 C   0  0  0  0  0  0  0  0  0  0  0  0
   36.3610   28.3060   41.6420 N   0  0  0  0  0  0  0  0  0  0  0  0
   37.1860   29.3740   41.5640 C   0  0  0  0  0  0  0  0  0  0  0  0
   38.0110   29.6370   42.5760 N   0  0  0  0  0  0  0  0  0  0  0  0
   38.6920   29.0350   44.5240 H   0  0  0  0  0  0  0  0  0  0  0  0
   37.1300   27.0610   44.6060 H   0  0  0  0  0  0  0  0  0  0  0  0
   35.6410   26.6180   42.7350 H   0  0  0  0  0  0  0  0  0  0  0  0
   37.1050   29.8360   36.6740 C   0  0  0  0  0  0  0  0  0  0  0  0
   35.7420   29.3020   36.3100 C   0  0  0  0  0  0  0  0  0  0  0  0
   38.0760   28.6740   36.6620 C   0  0  0  0  0  0  0  0  0  0  0  0
  1  2  1  0  0  0  0
  1 14  1  0  0  0  0
  2  7  1  0  0  0  0
  3  8  1  0  0  0  0
  3  2  2  0  0  0  0
  4  3  1  0  0  0  0
  5  4  2  0  0  0  0
  5  6  1  0  0  0  0
  6  1  2  0  0  0  0
  9  4  1  0  0  0  0
 10 11  1  0  0  0  0
 10 16  1  0  0  0  0
 11 17  1  0  0  0  0
 12 18  1  0  0  0  0
 12 11  2  0  0  0  0
 13 12  1  0  0  0  0
 14 13  2  0  0  0  0
 14 15  1  0  0  0  0
 15 10  2  0  0  0  0
 19  5  1  0  0  0  0
 20 19  1  0  0  0  0
 21 19  1  0  0  0  0
M  END
>  <minimizedAffinity>
-4.28141308

>  <minimizedRMSD>
0.727192461

$$$$
