
 OpenBabel03242509313D

 15 15  0  0  0  0  0  0  0  0999 V2000
   37.8880   28.7670   43.5330 C   0  0  0  0  0  0  0  0  0  0  0  0
   37.9620   27.3420   43.4460 C   0  0  0  0  0  0  0  0  0  0  0  0
   37.4840   26.7490   42.2800 C   0  0  0  0  0  0  0  0  0  0  0  0
   36.9700   27.5510   41.2720 N   0  0  0  0  0  0  0  0  0  0  0  0
   36.9310   28.8860   41.4190 C   0  0  0  0  0  0  0  0  0  0  0  0
   37.3850   29.4780   42.5350 N   0  0  0  0  0  0  0  0  0  0  0  0
   38.2640   29.2030   44.4460 H   0  0  0  0  0  0  0  0  0  0  0  0
   38.3680   26.7100   44.2410 H   0  0  0  0  0  0  0  0  0  0  0  0
   37.5430   25.2620   42.1510 C   0  0  0  0  0  0  0  0  0  0  0  0
   37.6450   25.0020   40.7960 F   0  0  0  0  0  0  0  0  0  0  0  0
   38.6290   24.7260   42.7640 F   0  0  0  0  0  0  0  0  0  0  0  0
   36.3700   24.6690   42.6330 F   0  0  0  0  0  0  0  0  0  0  0  0
   36.3660   29.6860   40.3010 C   0  0  0  0  0  3  0  0  0  0  0  0
   36.3490   31.1660   40.5960 C   0  0  0  0  0  1  0  0  0  0  0  0
   34.9140   29.2570   40.1400 C   0  0  0  0  0  1  0  0  0  0  0  0
  1  7  1  0  0  0  0
  2  1  1  0  0  0  0
  2  8  1  0  0  0  0
  3  2  2  0  0  0  0
  4  5  2  0  0  0  0
  4  3  1  0  0  0  0
  5  6  1  0  0  0  0
  6  1  2  0  0  0  0
  9  3  1  0  0  0  0
  9 12  1  0  0  0  0
  9 11  1  0  0  0  0
 10  9  1  0  0  0  0
 13 14  1  0  0  0  0
 13  5  1  0  0  0  0
 15 13  1  0  0  0  0
M  END
>  <minimizedAffinity>
-4.24251461

>  <minimizedRMSD>
0.30712983

$$$$
