
 OpenBabel03242509313D

 15 15  0  0  0  0  0  0  0  0999 V2000
   37.8830   28.7660   43.5340 C   0  0  0  0  0  0  0  0  0  0  0  0
   37.9570   27.3410   43.4470 C   0  0  0  0  0  0  0  0  0  0  0  0
   37.4830   26.7480   42.2800 C   0  0  0  0  0  0  0  0  0  0  0  0
   36.9690   27.5490   41.2710 N   0  0  0  0  0  0  0  0  0  0  0  0
   36.9290   28.8840   41.4180 C   0  0  0  0  0  0  0  0  0  0  0  0
   37.3810   29.4770   42.5340 N   0  0  0  0  0  0  0  0  0  0  0  0
   38.2560   29.2030   44.4470 H   0  0  0  0  0  0  0  0  0  0  0  0
   38.3630   26.7100   44.2420 H   0  0  0  0  0  0  0  0  0  0  0  0
   37.5430   25.2610   42.1510 C   0  0  0  0  0  0  0  0  0  0  0  0
   37.6450   25.0010   40.7960 F   0  0  0  0  0  0  0  0  0  0  0  0
   38.6290   24.7260   42.7640 F   0  0  0  0  0  0  0  0  0  0  0  0
   36.3700   24.6670   42.6330 F   0  0  0  0  0  0  0  0  0  0  0  0
   36.3650   29.6840   40.2980 C   0  0  0  0  0  3  0  0  0  0  0  0
   36.3500   31.1650   40.5920 C   0  0  0  0  0  1  0  0  0  0  0  0
   34.9120   29.2570   40.1380 C   0  0  0  0  0  1  0  0  0  0  0  0
  1  7  1  0  0  0  0
  2  1  1  0  0  0  0
  2  8  1  0  0  0  0
  3  2  2  0  0  0  0
  4  5  2  0  0  0  0
  4  3  1  0  0  0  0
  5  6  1  0  0  0  0
  6  1  2  0  0  0  0
  9  3  1  0  0  0  0
  9 12  1  0  0  0  0
  9 11  1  0  0  0  0
 10  9  1  0  0  0  0
 13 14  1  0  0  0  0
 13  5  1  0  0  0  0
 15 13  1  0  0  0  0
M  END
>  <minimizedAffinity>
-4.24288797

>  <minimizedRMSD>
0.32206288

$$$$
