
 OpenBabel03242509303D

 15 15  0  0  0  0  0  0  0  0999 V2000
   37.9900   28.7590   43.3160 C   0  0  0  0  0  0  0  0  0  0  0  0
   37.9690   27.3480   43.0880 C   0  0  0  0  0  0  0  0  0  0  0  0
   37.2270   26.8880   42.0030 C   0  0  0  0  0  0  0  0  0  0  0  0
   36.5530   27.8010   41.2050 N   0  0  0  0  0  0  0  0  0  0  0  0
   36.6170   29.1160   41.4760 C   0  0  0  0  0  0  0  0  0  0  0  0
   37.3250   29.5810   42.5160 N   0  0  0  0  0  0  0  0  0  0  0  0
   38.5710   29.0910   44.1620 H   0  0  0  0  0  0  0  0  0  0  0  0
   38.5010   26.6290   43.7170 H   0  0  0  0  0  0  0  0  0  0  0  0
   37.1800   25.4200   41.7320 C   0  0  0  0  0  0  0  0  0  0  0  0
   36.5640   25.2810   40.5000 F   0  0  0  0  0  0  0  0  0  0  0  0
   38.4140   24.8630   41.6490 F   0  0  0  0  0  0  0  0  0  0  0  0
   36.4090   24.7560   42.6940 F   0  0  0  0  0  0  0  0  0  0  0  0
   35.8700   30.0400   40.5810 C   0  0  0  0  0  3  0  0  0  0  0  0
   35.7180   29.4950   39.1810 C   0  0  0  0  0  1  0  0  0  0  0  0
   36.7010   31.3100   40.4660 C   0  0  0  0  0  1  0  0  0  0  0  0
  1  7  1  0  0  0  0
  2  1  1  0  0  0  0
  2  8  1  0  0  0  0
  3  2  2  0  0  0  0
  4  5  2  0  0  0  0
  4  3  1  0  0  0  0
  5  6  1  0  0  0  0
  6  1  2  0  0  0  0
  9  3  1  0  0  0  0
  9 12  1  0  0  0  0
 10  9  1  0  0  0  0
 11  9  1  0  0  0  0
 13  5  1  0  0  0  0
 14 13  1  0  0  0  0
 15 13  1  0  0  0  0
M  END
>  <minimizedAffinity>
-4.21237993

>  <minimizedRMSD>
0.83529377

$$$$
