
 OpenBabel03242507233D

 22 23  0  0  0  0  0  0  0  0999 V2000
   36.6280   27.0500   42.9320 C   0  0  0  0  0  0  0  0  0  0  0  0
   36.9490   26.8290   43.9920 H   0  0  0  0  0  0  0  0  0  0  0  0
   35.5510   27.1790   42.9780 H   0  0  0  0  0  0  0  0  0  0  0  0
   39.3250   29.7010   42.6620 C   0  0  0  0  0  0  0  0  0  0  0  0
   38.6600   28.5090   43.0360 C   0  0  0  0  0  0  0  0  0  0  0  0
   37.3850   28.2800   42.5770 C   0  0  0  0  0  0  0  0  0  0  0  0
   36.8320   29.2390   41.7730 N   0  0  0  0  0  0  0  0  0  0  0  0
   37.4840   30.3710   41.4270 C   0  0  0  0  0  0  0  0  0  0  0  0
   38.7120   30.5870   41.8710 N   0  0  0  0  0  0  0  0  0  0  0  0
   40.3240   29.8770   43.0240 H   0  0  0  0  0  0  0  0  0  0  0  0
   39.1520   27.7790   43.6810 H   0  0  0  0  0  0  0  0  0  0  0  0
   36.9890   31.0930   40.7850 H   0  0  0  0  0  0  0  0  0  0  0  0
   37.1130   25.9190   42.1380 C   0  0  0  0  0  0  0  0  0  0  0  0
   37.4450   24.6350   42.3820 C   0  0  0  0  0  0  0  0  0  0  0  0
   37.8770   23.7860   41.4340 C   0  0  0  0  0  0  0  0  0  0  0  0
   37.9400   24.4230   40.1240 C   0  0  0  0  0  0  0  0  0  0  0  0
   37.4040   26.0730   40.3880 S   0  0  0  0  0  0  0  0  0  0  0  0
   37.3310   24.3430   43.4220 H   0  0  0  0  0  0  0  0  0  0  0  0
   38.1540   22.7530   41.5720 H   0  0  0  0  0  0  0  0  0  0  0  0
   38.3600   23.8470   38.8200 C   0  0  0  0  0  0  0  0  0  0  0  0
   39.8200   24.0070   38.5500 C   0  0  0  0  0  0  0  0  0  0  0  0
   38.0430   22.3500   38.7700 C   0  0  0  0  0  0  0  0  0  0  0  0
  1  3  1  0  0  0  0
  1  2  1  0  0  0  0
  4 10  1  0  0  0  0
  4  5  1  0  0  0  0
  5 11  1  0  0  0  0
  6  1  1  0  0  0  0
  6  5  2  0  0  0  0
  7  6  1  0  0  0  0
  8  7  2  0  0  0  0
  8  9  1  0  0  0  0
  9  4  2  0  0  0  0
 12  8  1  0  0  0  0
 13 14  2  0  0  0  0
 13  1  1  0  0  0  0
 14 18  1  0  0  0  0
 15 19  1  0  0  0  0
 15 14  1  0  0  0  0
 16 17  1  0  0  0  0
 16 15  2  0  0  0  0
 17 13  1  0  0  0  0
 20 16  1  0  0  0  0
 21 20  1  0  0  0  0
 22 20  1  0  0  0  0
M  END
>  <minimizedAffinity>
-3.72773981

>  <minimizedRMSD>
0.405901104

$$$$
