
 OpenBabel03242509123D

 38 42  0  0  1  0  0  0  0  0999 V2000
   35.9520   30.5470   40.9220 C   0  0  0  0  0  0  0  0  0  0  0  0
   36.6740   29.5020   41.5260 C   0  0  0  0  0  0  0  0  0  0  0  0
   38.0510   29.5640   41.5470 C   0  0  0  0  0  0  0  0  0  0  0  0
   38.6040   30.6600   40.9710 N   0  0  0  0  0  0  0  0  0  0  0  0
   37.9170   31.6610   40.3970 C   0  0  0  0  0  0  0  0  0  0  0  0
   36.5800   31.5910   40.3780 N   0  0  0  0  0  0  0  0  0  0  0  0
   34.8780   30.6010   40.8480 H   0  0  0  0  0  0  0  0  0  0  0  0
   35.9850   28.7800   41.9250 H   0  0  0  0  0  0  0  0  0  0  0  0
   38.7890   28.4880   42.1410 C   0  0  0  0  0  0  0  0  0  0  0  0
   39.9750   28.5710   42.8590 C   0  0  0  0  0  0  0  0  0  0  0  0
   40.3390   27.3210   43.2470 N   0  0  0  0  0  0  0  0  0  0  0  0
   39.4460   26.4200   42.8180 C   0  0  0  0  0  0  0  0  0  0  0  0
   39.3410   25.0590   42.9340 C   0  0  0  0  0  0  0  0  0  0  0  0
   38.2610   24.3490   42.3650 C   0  0  0  0  0  0  0  0  0  0  0  0
   37.3170   25.0950   41.6840 C   0  0  0  0  0  0  0  0  0  0  0  0
   37.4340   26.4520   41.5750 C   0  0  0  0  0  0  0  0  0  0  0  0
   38.4800   27.1450   42.1280 C   0  0  0  0  0  0  0  0  0  0  0  0
   40.5120   29.4850   43.0680 H   0  0  0  0  0  0  0  0  0  0  0  0
   41.1970   27.0640   43.8090 H   0  0  0  0  0  0  0  0  0  0  0  0
   40.1000   24.4870   43.4770 H   0  0  0  0  0  0  0  0  0  0  0  0
   38.2520   23.2760   42.5030 H   0  0  0  0  0  0  0  0  0  0  0  0
   36.5320   24.4620   41.2860 H   0  0  0  0  0  0  0  0  0  0  0  0
   36.6220   26.8460   40.9960 H   0  0  0  0  0  0  0  0  0  0  0  0
   38.6360   32.8510   39.8230 C   0  0  1  0  0  0  0  0  0  0  0  0
   38.8360   34.0530   40.7660 C   0  0  0  0  0  0  0  0  0  0  0  0
   39.9710   33.1910   40.3710 C   0  0  2  0  0  0  0  0  0  0  0  0
   38.2760   33.1160   38.8120 H   0  0  0  0  0  0  0  0  0  0  0  0
   38.6360   35.0190   40.3150 H   0  0  0  0  0  0  0  0  0  0  0  0
   38.4180   33.9340   41.8070 H   0  0  0  0  0  0  0  0  0  0  0  0
   40.3500   32.4320   41.1190 H   0  0  0  0  0  0  0  0  0  0  0  0
   41.0490   33.6930   39.4990 C   0  0  0  0  0  0  0  0  0  0  0  0
   41.2260   34.9410   39.0480 N   0  0  0  0  0  0  0  0  0  0  0  0
   42.2960   34.9790   38.2930 O   0  0  0  0  0  0  0  0  0  0  0  0
   42.8430   33.7930   38.2230 C   0  0  0  0  0  0  0  0  0  0  0  0
   42.0560   32.9830   38.9840 N   0  0  0  0  0  0  0  0  0  0  0  0
   44.0310   33.2470   37.5380 C   0  0  0  0  0  0  0  0  0  0  0  0
   43.9200   31.7650   37.3360 C   0  0  0  0  0  0  0  0  0  0  0  0
   45.3020   33.5140   38.3370 C   0  0  0  0  0  0  0  0  0  0  0  0
  1  2  1  0  0  0  0
  2  3  2  0  0  0  0
  2  8  1  0  0  0  0
  3  9  1  0  0  0  0
  4  3  1  0  0  0  0
  5  4  2  0  0  0  0
  6  5  1  0  0  0  0
  6  1  2  0  0  0  0
  7  1  1  0  0  0  0
  9 10  2  0  0  0  0
 10 18  1  0  0  0  0
 10 11  1  0  0  0  0
 11 19  1  0  0  0  0
 12 13  1  0  0  0  0
 12 11  1  0  0  0  0
 13 20  1  0  0  0  0
 14 21  1  0  0  0  0
 14 13  2  0  0  0  0
 15 14  1  0  0  0  0
 16 15  2  0  0  0  0
 16 17  1  0  0  0  0
 17  9  1  0  0  0  0
 17 12  2  0  0  0  0
 22 15  1  0  0  0  0
 23 16  1  0  0  0  0
 24 27  1  6  0  0  0
 24 26  1  0  0  0  0
 24  5  1  0  0  0  0
 24 25  1  0  0  0  0
 25 29  1  0  0  0  0
 26 25  1  0  0  0  0
 26 30  1  1  0  0  0
 28 25  1  0  0  0  0
 31 26  1  0  0  0  0
 32 31  2  0  0  0  0
 33 32  1  0  0  0  0
 34 33  1  0  0  0  0
 34 35  2  0  0  0  0
 35 31  1  0  0  0  0
 36 34  1  0  0  0  0
 36 38  1  0  0  0  0
 37 36  1  0  0  0  0
M  END
>  <minimizedAffinity>
-6.05071545

>  <minimizedRMSD>
0.695464849

$$$$
