
 OpenBabel03242508093D

 43 46  0  0  1  0  0  0  0  0999 V2000
   38.8910   35.5840   40.0770 C   0  0  0  0  0  0  0  0  0  0  0  0
   40.2050   36.0080   40.3070 C   0  0  0  0  0  0  0  0  0  0  0  0
   41.1220   35.0090   40.6570 C   0  0  0  0  0  0  0  0  0  0  0  0
   40.6430   33.7710   40.7330 N   0  0  0  0  0  0  0  0  0  0  0  0
   39.4210   33.3340   40.5250 C   0  0  0  0  0  0  0  0  0  0  0  0
   38.5670   34.3050   40.1940 N   0  0  0  0  0  0  0  0  0  0  0  0
   38.1960   36.3760   39.8080 H   0  0  0  0  0  0  0  0  0  0  0  0
   40.5240   37.0250   40.2290 H   0  0  0  0  0  0  0  0  0  0  0  0
   38.7890   32.0260   40.5770 C   0  0  0  0  0  0  0  0  0  0  0  0
   38.7110   31.2890   41.6960 N   0  0  0  0  0  0  0  0  0  0  0  0
   38.1390   30.0860   41.7830 C   0  0  0  0  0  0  0  0  0  0  0  0
   37.5950   29.5310   40.7340 N   0  0  0  0  0  0  0  0  0  0  0  0
   37.6020   30.1640   39.5440 C   0  0  0  0  0  0  0  0  0  0  0  0
   37.0250   29.5710   38.4390 C   0  0  0  0  0  0  0  0  0  0  0  0
   37.0280   30.2090   37.2290 C   0  0  0  0  0  0  0  0  0  0  0  0
   37.6350   31.4810   37.1330 C   0  0  0  0  0  0  0  0  0  0  0  0
   38.1880   32.0010   38.2820 C   0  0  0  0  0  0  0  0  0  0  0  0
   38.2060   31.4060   39.5000 C   0  0  0  0  0  0  0  0  0  0  0  0
   38.1980   29.6870   42.7880 H   0  0  0  0  0  0  0  0  0  0  0  0
   36.5580   28.5960   38.5000 H   0  0  0  0  0  0  0  0  0  0  0  0
   36.5910   29.7900   36.3310 H   0  0  0  0  0  0  0  0  0  0  0  0
   37.6590   32.0180   36.1940 H   0  0  0  0  0  0  0  0  0  0  0  0
   38.6450   32.9830   38.1740 H   0  0  0  0  0  0  0  0  0  0  0  0
   42.4050   35.2410   40.9090 O   0  0  0  0  0  0  0  0  0  0  0  0
   42.9640   35.4260   42.2010 C   0  0  2  0  0  0  0  0  0  0  0  0
   42.5660   34.6450   42.8650 H   0  0  0  0  0  0  0  0  0  0  0  0
   42.4730   36.8010   42.7150 C   0  0  0  0  0  0  0  0  0  0  0  0
   42.7900   36.9040   43.7680 H   0  0  0  0  0  0  0  0  0  0  0  0
   42.8980   37.5880   42.0930 H   0  0  0  0  0  0  0  0  0  0  0  0
   41.3650   36.8120   42.6560 H   0  0  0  0  0  0  0  0  0  0  0  0
   44.4680   35.4320   42.1100 C   0  0  0  0  0  0  0  0  0  0  0  0
   44.8390   36.4800   41.9190 H   0  0  0  0  0  0  0  0  0  0  0  0
   44.8170   34.8590   41.2020 H   0  0  0  0  0  0  0  0  0  0  0  0
   45.1390   34.8740   43.2410 N   0  0  0  0  0  0  0  0  0  0  0  0
   44.7070   35.2650   44.4780 C   0  0  0  0  0  0  0  0  0  0  0  0
   45.2320   34.8450   45.6730 C   0  0  0  0  0  0  0  0  0  0  0  0
   44.6920   35.3270   46.9670 C   0  0  0  0  0  0  0  0  0  0  0  0
   46.2760   33.9600   45.6630 C   0  0  0  0  0  0  0  0  0  0  0  0
   46.8000   33.5370   46.7090 O   0  0  0  0  0  0  0  0  0  0  0  0
   46.6960   33.5790   44.4440 N   0  0  0  0  0  0  0  0  0  0  0  0
   46.1650   34.0060   43.2900 C   0  0  0  0  0  0  0  0  0  0  0  0
   46.5910   33.6200   42.1730 O   0  0  0  0  0  0  0  0  0  0  0  0
   47.4980   32.8970   44.3750 H   0  0  0  0  0  0  0  0  0  0  0  0
  1  6  2  0  0  0  0
  1  2  1  0  0  0  0
  2  3  2  0  0  0  0
  3  4  1  0  0  0  0
  3 24  1  0  0  0  0
  5  9  1  0  0  0  0
  5  4  2  0  0  0  0
  6  5  1  0  0  0  0
  7  1  1  0  0  0  0
  8  2  1  0  0  0  0
  9 10  1  0  0  0  0
 10 11  2  0  0  0  0
 11 19  1  0  0  0  0
 12 11  1  0  0  0  0
 13 12  2  0  0  0  0
 14 20  1  0  0  0  0
 14 13  1  0  0  0  0
 15 14  2  0  0  0  0
 16 15  1  0  0  0  0
 16 17  2  0  0  0  0
 17 18  1  0  0  0  0
 18 13  1  0  0  0  0
 18  9  2  0  0  0  0
 21 15  1  0  0  0  0
 22 16  1  0  0  0  0
 23 17  1  0  0  0  0
 24 25  1  0  0  0  0
 25 27  1  0  0  0  0
 25 26  1  1  0  0  0
 27 28  1  0  0  0  0
 29 27  1  0  0  0  0
 30 27  1  0  0  0  0
 31 25  1  0  0  0  0
 31 34  1  0  0  0  0
 32 31  1  0  0  0  0
 33 31  1  0  0  0  0
 34 41  1  0  0  0  0
 34 35  1  0  0  0  0
 35 36  2  0  0  0  0
 36 37  1  0  0  0  0
 38 36  1  0  0  0  0
 38 39  2  0  0  0  0
 40 38  1  0  0  0  0
 41 40  1  0  0  0  0
 42 41  2  0  0  0  0
 43 40  1  0  0  0  0
M  END
>  <minimizedAffinity>
-6.94390535

>  <minimizedRMSD>
1.7761122

$$$$
