
 OpenBabel03242503143D

 24 25  0  0  1  0  0  0  0  0999 V2000
   38.3980   29.1930   43.1320 C   0  0  0  0  0  0  0  0  0  0  0  0
   37.6600   28.1370   43.7070 C   0  0  0  0  0  0  0  0  0  0  0  0
   36.5260   27.6710   43.0070 C   0  0  0  0  0  0  0  0  0  0  0  0
   36.2060   28.2680   41.8090 N   0  0  0  0  0  0  0  0  0  0  0  0
   36.9350   29.2620   41.3080 C   0  0  0  0  0  0  0  0  0  0  0  0
   38.0120   29.7060   41.9710 N   0  0  0  0  0  0  0  0  0  0  0  0
   36.5690   29.8500   40.0810 N   0  0  0  0  0  0  0  0  0  0  0  0
   35.8620   29.0840   39.0470 C   0  0  0  0  0  0  0  0  0  0  0  0
   36.3150   29.7450   37.7790 C   0  0  0  0  0  0  0  0  0  0  0  0
   37.0890   30.9620   38.1620 C   0  0  0  0  0  0  0  0  0  0  0  0
   36.7750   31.1830   39.6360 C   0  0  2  0  0  0  0  0  0  0  0  0
   39.2380   29.4850   43.7220 H   0  0  0  0  0  0  0  0  0  0  0  0
   37.8300   27.6190   44.6180 H   0  0  0  0  0  0  0  0  0  0  0  0
   35.9130   26.8710   43.3810 H   0  0  0  0  0  0  0  0  0  0  0  0
   36.1710   28.0360   39.0770 H   0  0  0  0  0  0  0  0  0  0  0  0
   34.7540   29.1820   39.1470 H   0  0  0  0  0  0  0  0  0  0  0  0
   35.4500   29.9770   37.1310 H   0  0  0  0  0  0  0  0  0  0  0  0
   36.9320   29.0250   37.1770 H   0  0  0  0  0  0  0  0  0  0  0  0
   36.8140   31.8520   37.5590 H   0  0  0  0  0  0  0  0  0  0  0  0
   38.1640   30.7710   37.9920 H   0  0  0  0  0  0  0  0  0  0  0  0
   35.8450   31.7620   39.6820 H   0  0  0  0  0  0  0  0  0  0  0  0
   37.8870   31.9730   40.2370 C   0  0  0  0  0  0  0  0  0  0  0  0
   39.2410   31.7220   39.6350 C   0  0  0  0  0  0  0  0  0  0  0  0
   37.5360   33.4260   39.9850 C   0  0  0  0  0  0  0  0  0  0  0  0
  1  2  1  0  0  0  0
  1 12  1  0  0  0  0
  2 13  1  0  0  0  0
  3 14  1  0  0  0  0
  3  2  2  0  0  0  0
  4  3  1  0  0  0  0
  5  4  2  0  0  0  0
  5  6  1  0  0  0  0
  6  1  2  0  0  0  0
  7  5  1  0  0  0  0
  8 15  1  0  0  0  0
  8 16  1  0  0  0  0
  8  7  1  0  0  0  0
  9 10  1  0  0  0  0
  9  8  1  0  0  0  0
 10 11  1  0  0  0  0
 11 21  1  1  0  0  0
 11  7  1  0  0  0  0
 11 22  1  0  0  0  0
 17  9  1  0  0  0  0
 18  9  1  0  0  0  0
 19 10  1  0  0  0  0
 20 10  1  0  0  0  0
 23 22  1  0  0  0  0
 24 22  1  0  0  0  0
M  END
>  <minimizedAffinity>
-4.38711834

>  <minimizedRMSD>
0.682713389

$$$$
