
 OpenBabel03242509133D

 19 20  0  0  1  0  0  0  0  0999 V2000
   36.2570   28.1720   41.1890 C   0  0  1  0  0  0  0  0  0  0  0  0
   36.9010   26.8850   41.3200 C   0  0  0  0  0  0  0  0  0  0  0  0
   36.5020   27.5840   42.5720 C   0  0  1  0  0  0  0  0  0  0  0  0
   35.1840   28.2560   40.8690 H   0  0  0  0  0  0  0  0  0  0  0  0
   36.2910   26.0080   40.9580 H   0  0  0  0  0  0  0  0  0  0  0  0
   37.9700   26.6980   41.1090 H   0  0  0  0  0  0  0  0  0  0  0  0
   35.5440   27.1310   43.0060 H   0  0  0  0  0  0  0  0  0  0  0  0
   37.0110   29.4250   40.8350 C   0  0  0  0  0  0  0  0  0  0  0  0
   36.3230   30.6480   40.9650 C   0  0  0  0  0  0  0  0  0  0  0  0
   37.0340   31.8010   40.6310 C   0  0  0  0  0  0  0  0  0  0  0  0
   38.3240   31.6600   40.2100 N   0  0  0  0  0  0  0  0  0  0  0  0
   38.9410   30.4730   40.1010 C   0  0  0  0  0  0  0  0  0  0  0  0
   38.2620   29.3690   40.4190 N   0  0  0  0  0  0  0  0  0  0  0  0
   35.2910   30.7150   41.3050 H   0  0  0  0  0  0  0  0  0  0  0  0
   36.5700   32.7860   40.7050 H   0  0  0  0  0  0  0  0  0  0  0  0
   39.9640   30.5220   39.7530 H   0  0  0  0  0  0  0  0  0  0  0  0
   37.4070   28.1210   43.5830 C   0  0  0  0  0  0  0  0  0  0  0  0
   36.6700   28.1040   44.9530 C   0  0  0  0  0  0  0  0  0  0  0  0
   38.6980   27.4490   43.8570 C   0  0  0  0  0  0  0  0  0  0  0  0
  1  4  1  6  0  0  0
  1  2  1  0  0  0  0
  1  3  1  0  0  0  0
  2  3  1  0  0  0  0
  3  7  1  1  0  0  0
  3 17  1  0  0  0  0
  5  2  1  0  0  0  0
  6  2  1  0  0  0  0
  8  9  1  0  0  0  0
  8  1  1  0  0  0  0
  9 14  1  0  0  0  0
 10 15  1  0  0  0  0
 10  9  2  0  0  0  0
 11 10  1  0  0  0  0
 12 11  2  0  0  0  0
 12 13  1  0  0  0  0
 13  8  2  0  0  0  0
 16 12  1  0  0  0  0
 17 19  1  0  0  0  0
 17 18  1  0  0  0  0
M  END
>  <minimizedAffinity>
-4.18484735

>  <minimizedRMSD>
2.51909828

$$$$
