
 OpenBabel03242509313D

 15 15  0  0  0  0  0  0  0  0999 V2000
   38.1900   28.6400   43.3950 C   0  0  0  0  0  0  0  0  0  0  0  0
   38.3100   27.2220   43.2660 C   0  0  0  0  0  0  0  0  0  0  0  0
   37.5310   26.6010   42.2930 C   0  0  0  0  0  0  0  0  0  0  0  0
   36.6880   27.3710   41.5050 N   0  0  0  0  0  0  0  0  0  0  0  0
   36.6250   28.7020   41.6780 C   0  0  0  0  0  0  0  0  0  0  0  0
   37.3670   29.3210   42.6110 N   0  0  0  0  0  0  0  0  0  0  0  0
   38.8030   29.0980   44.1550 H   0  0  0  0  0  0  0  0  0  0  0  0
   38.9750   26.6150   43.8870 H   0  0  0  0  0  0  0  0  0  0  0  0
   37.6280   25.1200   42.1280 C   0  0  0  0  0  0  0  0  0  0  0  0
   37.8780   24.9040   40.7840 F   0  0  0  0  0  0  0  0  0  0  0  0
   38.6500   24.5790   42.8380 F   0  0  0  0  0  0  0  0  0  0  0  0
   36.4190   24.4960   42.4630 F   0  0  0  0  0  0  0  0  0  0  0  0
   35.7010   29.4680   40.8010 C   0  0  0  0  0  3  0  0  0  0  0  0
   35.6590   28.9320   39.3900 C   0  0  0  0  0  1  0  0  0  0  0  0
   36.2480   30.8860   40.7120 C   0  0  0  0  0  1  0  0  0  0  0  0
  1  7  1  0  0  0  0
  2  1  1  0  0  0  0
  2  8  1  0  0  0  0
  3  2  2  0  0  0  0
  4  5  2  0  0  0  0
  4  3  1  0  0  0  0
  5  6  1  0  0  0  0
  6  1  2  0  0  0  0
  9  3  1  0  0  0  0
  9 12  1  0  0  0  0
  9 11  1  0  0  0  0
 10  9  1  0  0  0  0
 13  5  1  0  0  0  0
 14 13  1  0  0  0  0
 15 13  1  0  0  0  0
M  END
>  <minimizedAffinity>
-4.24777937

>  <minimizedRMSD>
0.964334726

$$$$
