REMARK  Name = 
REMARK  4 active torsions:
REMARK  status: ('A' for Active; 'I' for Inactive)
REMARK    1  A    between atoms: C_3  and  C_7
REMARK    2  A    between atoms: C_5  and  C_13
REMARK    3  A    between atoms: C_13  and  C_14
REMARK    4  A    between atoms: C_13  and  C_15
REMARK                            x       y       z     vdW  Elec       q    Type
REMARK                         _______ _______ _______ _____ _____    ______ ____
ROOT
ATOM      1  C   UNL     1      37.972  28.891  43.369  0.00  0.00    +0.000 A 
ATOM      2  C   UNL     1      38.088  27.468  43.306  0.00  0.00    +0.000 A 
ATOM      3  C   UNL     1      37.439  26.821  42.257  0.00  0.00    +0.000 A 
ATOM      4  N   UNL     1      36.723  27.571  41.336  0.00  0.00    +0.000 NA
ATOM      5  C   UNL     1      36.656  28.908  41.454  0.00  0.00    +0.000 A 
ATOM      6  N   UNL     1      37.273  29.552  42.457  0.00  0.00    +0.000 NA
ATOM      7  H   UNL     1      38.483  29.370  44.190  0.00  0.00    +0.000 HD
ATOM      8  H   UNL     1      38.653  26.877  44.032  0.00  0.00    +0.000 HD
ENDROOT
BRANCH   3   9
ATOM      9  C   UNL     1      37.536  25.334  42.157  0.00  0.00    +0.000 C 
ATOM     10  F   UNL     1      37.661  25.052  40.808  0.00  0.00    +0.000 F 
ATOM     11  F   UNL     1      38.626  24.836  42.793  0.00  0.00    +0.000 F 
ATOM     12  F   UNL     1      36.371  24.721  42.635  0.00  0.00    +0.000 F 
ENDBRANCH   3   9
BRANCH   5  13
ATOM     13  C   UNL     1      35.871  29.651  40.433  0.00  0.00    +0.000 C 
ATOM     14  C   UNL     1      34.550  28.992  40.121  0.00  0.00    +0.000 C 
ATOM     15  C   UNL     1      36.686  29.627  39.147  0.00  0.00    +0.000 C 
ENDBRANCH   5  13
TORSDOF 2
