
 OpenBabel03242507283D

 29 31  0  0  0  0  0  0  0  0999 V2000
   38.0760   27.3150   42.9900 C   0  0  0  0  0  0  0  0  0  0  0  0
   39.0570   26.4940   43.3920 C   0  0  0  0  0  0  0  0  0  0  0  0
   39.3360   25.3350   42.7640 C   0  0  0  0  0  0  0  0  0  0  0  0
   38.4670   25.1010   41.6340 C   0  0  0  0  0  0  0  0  0  0  0  0
   37.3940   26.4680   41.5720 S   0  0  0  0  0  0  0  0  0  0  0  0
   39.5990   26.8470   44.2640 H   0  0  0  0  0  0  0  0  0  0  0  0
   40.1100   24.6340   43.0390 H   0  0  0  0  0  0  0  0  0  0  0  0
   38.4990   23.9500   40.7450 C   0  0  0  0  0  0  0  0  0  0  0  0
   39.3180   23.8060   39.6840 C   0  0  0  0  0  0  0  0  0  0  0  0
   38.9700   22.5580   39.1660 C   0  0  0  0  0  0  0  0  0  0  0  0
   37.9740   22.0040   39.9190 N   0  0  0  0  0  0  0  0  0  0  0  0
   37.6960   22.8760   40.8880 N   0  0  0  0  0  0  0  0  0  0  0  0
   40.0670   24.4900   39.3170 H   0  0  0  0  0  0  0  0  0  0  0  0
   39.4450   22.1090   38.2800 H   0  0  0  0  0  0  0  0  0  0  0  0
   37.5410   21.0690   39.7300 H   0  0  0  0  0  0  0  0  0  0  0  0
   37.5270   28.6070   43.4360 C   0  0  0  0  0  0  0  0  0  0  0  0
   36.4240   28.5850   43.4210 H   0  0  0  0  0  0  0  0  0  0  0  0
   37.9090   28.7530   44.4830 H   0  0  0  0  0  0  0  0  0  0  0  0
   39.7960   31.2440   41.9070 C   0  0  0  0  0  0  0  0  0  0  0  0
   39.3330   30.1970   42.7400 C   0  0  0  0  0  0  0  0  0  0  0  0
   38.0550   29.7030   42.5860 C   0  0  0  0  0  0  0  0  0  0  0  0
   37.2710   30.2600   41.6120 N   0  0  0  0  0  0  0  0  0  0  0  0
   37.7400   31.2700   40.8200 C   0  0  0  0  0  0  0  0  0  0  0  0
   38.9600   31.7360   40.9720 N   0  0  0  0  0  0  0  0  0  0  0  0
   40.8020   31.5670   42.0950 H   0  0  0  0  0  0  0  0  0  0  0  0
   39.9060   29.7340   43.5090 H   0  0  0  0  0  0  0  0  0  0  0  0
   36.8720   31.8690   39.7590 C   0  0  0  0  0  0  0  0  0  0  0  0
   37.3070   33.2830   39.4310 C   0  0  0  0  0  0  0  0  0  0  0  0
   37.0210   31.0620   38.4640 C   0  0  0  0  0  0  0  0  0  0  0  0
  1  2  2  0  0  0  0
  1 16  1  0  0  0  0
  2  6  1  0  0  0  0
  3  7  1  0  0  0  0
  3  2  1  0  0  0  0
  4  3  2  0  0  0  0
  5  4  1  0  0  0  0
  5  1  1  0  0  0  0
  8 12  2  0  0  0  0
  8  4  1  0  0  0  0
  9  8  1  0  0  0  0
 10  9  2  0  0  0  0
 10 11  1  0  0  0  0
 11 12  1  0  0  0  0
 13  9  1  0  0  0  0
 14 10  1  0  0  0  0
 15 11  1  0  0  0  0
 16 18  1  0  0  0  0
 17 16  1  0  0  0  0
 19 25  1  0  0  0  0
 19 20  1  0  0  0  0
 20 26  1  0  0  0  0
 21 20  2  0  0  0  0
 21 16  1  0  0  0  0
 22 21  1  0  0  0  0
 23 24  1  0  0  0  0
 23 22  2  0  0  0  0
 24 19  2  0  0  0  0
 27 23  1  0  0  0  0
 28 27  1  0  0  0  0
 29 27  1  0  0  0  0
M  END
>  <minimizedAffinity>
-5.09028673

>  <minimizedRMSD>
1.87743998

$$$$
