
 OpenBabel03242508393D

 25 26  0  0  1  0  0  0  0  0999 V2000
   38.7070   27.0650   43.1320 C   0  0  2  0  0  0  0  0  0  0  0  0
   40.0580   27.3640   43.5510 C   0  0  0  0  0  0  0  0  0  0  0  0
   40.6130   25.9880   43.9200 C   0  0  0  0  0  0  0  0  0  0  0  0
   39.6740   24.9720   43.3110 C   0  0  0  0  0  0  0  0  0  0  0  0
   38.7590   25.7800   42.3930 C   0  0  2  0  0  0  0  0  0  0  0  0
   38.0930   26.8260   44.0660 H   0  0  0  0  0  0  0  0  0  0  0  0
   40.0300   27.9380   44.5230 H   0  0  0  0  0  0  0  0  0  0  0  0
   40.7090   27.9410   42.9020 H   0  0  0  0  0  0  0  0  0  0  0  0
   41.6520   25.9140   43.5600 H   0  0  0  0  0  0  0  0  0  0  0  0
   40.5780   25.8040   45.0180 H   0  0  0  0  0  0  0  0  0  0  0  0
   39.1330   24.3580   44.0330 H   0  0  0  0  0  0  0  0  0  0  0  0
   40.3130   24.2920   42.7110 H   0  0  0  0  0  0  0  0  0  0  0  0
   37.7630   25.2990   42.4790 H   0  0  0  0  0  0  0  0  0  0  0  0
   38.4290   29.4120   42.1820 C   0  0  0  0  0  0  0  0  0  0  0  0
   37.9450   28.0900   42.4530 C   0  0  0  0  0  0  0  0  0  0  0  0
   36.6290   27.7360   42.0390 C   0  0  0  0  0  0  0  0  0  0  0  0
   35.9160   28.6950   41.4070 N   0  0  0  0  0  0  0  0  0  0  0  0
   36.3950   29.9380   41.1630 C   0  0  0  0  0  0  0  0  0  0  0  0
   37.6550   30.2770   41.5580 N   0  0  0  0  0  0  0  0  0  0  0  0
   39.4360   29.5210   42.5540 H   0  0  0  0  0  0  0  0  0  0  0  0
   36.2590   26.7530   42.2370 H   0  0  0  0  0  0  0  0  0  0  0  0
   35.7850   30.6700   40.6530 H   0  0  0  0  0  0  0  0  0  0  0  0
   39.2410   25.7280   41.0230 C   0  0  0  0  0  0  0  0  0  0  0  0
   39.7970   26.9260   40.3800 C   0  0  0  0  0  0  0  0  0  0  0  0
   38.1510   25.2060   40.1000 C   0  0  0  0  0  0  0  0  0  0  0  0
  1  2  1  0  0  0  0
  1  6  1  1  0  0  0
  2  3  1  0  0  0  0
  2  7  1  0  0  0  0
  3 10  1  0  0  0  0
  4  3  1  0  0  0  0
  4 11  1  0  0  0  0
  5 13  1  1  0  0  0
  5  1  1  0  0  0  0
  5  4  1  0  0  0  0
  8  2  1  0  0  0  0
  9  3  1  0  0  0  0
 12  4  1  0  0  0  0
 14 15  1  0  0  0  0
 14 20  1  0  0  0  0
 15  1  1  0  0  0  0
 16 21  1  0  0  0  0
 16 15  2  0  0  0  0
 17 16  1  0  0  0  0
 18 17  2  0  0  0  0
 18 19  1  0  0  0  0
 19 14  2  0  0  0  0
 22 18  1  0  0  0  0
 23  5  1  0  0  0  0
 24 23  1  0  0  0  0
 25 23  1  0  0  0  0
M  END
>  <minimizedAffinity>
-3.95665002

>  <minimizedRMSD>
0.223814115

$$$$
