
 OpenBabel03242509223D

 41 44  0  0  0  0  0  0  0  0999 V2000
   35.7090   29.8170   40.2030 C   0  0  0  0  0  0  0  0  0  0  0  0
   34.7390   30.2790   40.2740 H   0  0  0  0  0  0  0  0  0  0  0  0
   35.9840   28.8050   40.1270 H   0  0  0  0  0  0  0  0  0  0  0  0
   36.5720   30.4770   39.2030 C   0  0  0  0  0  0  0  0  0  0  0  0
   37.5320   31.4450   39.4450 C   0  0  0  0  0  0  0  0  0  0  0  0
   38.2970   32.0770   38.4970 C   0  0  0  0  0  0  0  0  0  0  0  0
   38.1150   31.7360   37.1790 C   0  0  0  0  0  0  0  0  0  0  0  0
   37.1790   30.7860   36.8880 C   0  0  0  0  0  0  0  0  0  0  0  0
   37.0060   30.5430   35.5610 C   0  0  0  0  0  0  0  0  0  0  0  0
   36.0650   29.6690   35.1220 C   0  0  0  0  0  0  0  0  0  0  0  0
   35.3070   29.0380   36.0720 C   0  0  0  0  0  0  0  0  0  0  0  0
   35.4760   29.2720   37.4620 C   0  0  0  0  0  0  0  0  0  0  0  0
   36.4300   30.1690   37.8600 C   0  0  0  0  0  0  0  0  0  0  0  0
   37.7090   31.7380   40.4720 H   0  0  0  0  0  0  0  0  0  0  0  0
   39.0250   32.8260   38.7870 H   0  0  0  0  0  0  0  0  0  0  0  0
   38.7090   32.2280   36.4480 H   0  0  0  0  0  0  0  0  0  0  0  0
   37.5920   31.0200   34.8150 H   0  0  0  0  0  0  0  0  0  0  0  0
   35.9280   29.4820   34.0560 H   0  0  0  0  0  0  0  0  0  0  0  0
   34.5590   28.3470   35.6470 H   0  0  0  0  0  0  0  0  0  0  0  0
   34.5810   28.5160   38.2530 C   0  0  0  0  0  0  0  0  0  0  0  0
   33.1680   28.8950   37.7160 C   0  0  0  0  0  0  0  0  0  0  0  0
   34.7260   27.0640   37.7200 C   0  0  0  0  0  0  0  0  0  0  0  0
   36.1290   30.0600   41.6270 C   0  0  0  0  0  0  0  0  0  0  0  0
   35.2800   29.9770   42.3820 H   0  0  0  0  0  0  0  0  0  0  0  0
   36.4220   31.1260   41.7260 H   0  0  0  0  0  0  0  0  0  0  0  0
   38.7900   28.0820   42.8560 C   0  0  0  0  0  0  0  0  0  0  0  0
   37.7550   27.1960   42.8920 C   0  0  0  0  0  0  0  0  0  0  0  0
   36.6310   27.8740   42.4250 C   0  0  0  0  0  0  0  0  0  0  0  0
   37.0910   29.1270   42.1430 N   0  0  0  0  0  0  0  0  0  0  0  0
   38.3360   29.2690   42.3860 N   0  0  0  0  0  0  0  0  0  0  0  0
   37.8290   26.1620   43.2270 H   0  0  0  0  0  0  0  0  0  0  0  0
   35.6890   27.3650   42.3660 H   0  0  0  0  0  0  0  0  0  0  0  0
   41.8080   26.5080   44.3890 C   0  0  0  0  0  0  0  0  0  0  0  0
   40.4690   26.6910   44.0130 C   0  0  0  0  0  0  0  0  0  0  0  0
   40.1580   27.8300   43.2620 C   0  0  0  0  0  0  0  0  0  0  0  0
   41.1360   28.7220   42.9170 N   0  0  0  0  0  0  0  0  0  0  0  0
   42.4250   28.4710   43.3250 C   0  0  0  0  0  0  0  0  0  0  0  0
   42.7500   27.3950   44.0400 N   0  0  0  0  0  0  0  0  0  0  0  0
   41.9890   25.6090   44.9700 H   0  0  0  0  0  0  0  0  0  0  0  0
   39.6680   26.0300   44.2530 H   0  0  0  0  0  0  0  0  0  0  0  0
   43.2230   29.1560   43.0690 H   0  0  0  0  0  0  0  0  0  0  0  0
  1  2  1  0  0  0  0
  1 23  1  0  0  0  0
  3  1  1  0  0  0  0
  4  5  1  0  0  0  0
  4  1  1  0  0  0  0
  5 14  1  0  0  0  0
  6 15  1  0  0  0  0
  6  5  2  0  0  0  0
  7  6  1  0  0  0  0
  8  7  2  0  0  0  0
  8 13  1  0  0  0  0
  9  8  1  0  0  0  0
 10  9  2  0  0  0  0
 10 11  1  0  0  0  0
 11 12  2  0  0  0  0
 12 13  1  0  0  0  0
 12 20  1  0  0  0  0
 13  4  2  0  0  0  0
 16  7  1  0  0  0  0
 17  9  1  0  0  0  0
 18 10  1  0  0  0  0
 19 11  1  0  0  0  0
 21 20  1  0  0  0  0
 22 20  1  0  0  0  0
 23 25  1  0  0  0  0
 23 29  1  0  0  0  0
 23 24  1  0  0  0  0
 26 27  1  0  0  0  0
 26 35  1  0  0  0  0
 27 31  1  0  0  0  0
 28 27  2  0  0  0  0
 29 30  1  0  0  0  0
 29 28  1  0  0  0  0
 30 26  2  0  0  0  0
 32 28  1  0  0  0  0
 33 39  1  0  0  0  0
 34 40  1  0  0  0  0
 34 33  2  0  0  0  0
 35 34  1  0  0  0  0
 36 35  2  0  0  0  0
 36 37  1  0  0  0  0
 37 38  2  0  0  0  0
 38 33  1  0  0  0  0
 41 37  1  0  0  0  0
M  END
>  <minimizedAffinity>
-5.69647217

>  <minimizedRMSD>
1.51230061

$$$$
