
 OpenBabel03242507413D

 30 32  0  0  0  0  0  0  0  0999 V2000
   38.1730   27.9780   43.5430 C   0  0  0  0  0  0  0  0  0  0  0  0
   37.7810   26.6410   43.2950 C   0  0  0  0  0  0  0  0  0  0  0  0
   37.3470   26.3380   42.0010 C   0  0  0  0  0  0  0  0  0  0  0  0
   37.3240   27.3100   41.0750 N   0  0  0  0  0  0  0  0  0  0  0  0
   37.7010   28.5820   41.3300 C   0  0  0  0  0  0  0  0  0  0  0  0
   38.1270   28.9170   42.5670 N   0  0  0  0  0  0  0  0  0  0  0  0
   36.9320   25.0520   41.6220 N   0  0  0  0  0  0  0  0  0  0  0  0
   37.6820   29.6180   40.3640 N   0  0  0  0  0  0  0  0  0  0  0  0
   37.1990   29.2890   39.1510 C   0  0  0  0  0  0  0  0  0  0  0  0
   37.0970   30.1500   38.0780 C   0  0  0  0  0  0  0  0  0  0  0  0
   37.5330   31.4500   38.3000 C   0  0  0  0  0  0  0  0  0  0  0  0
   37.4790   32.3040   37.3870 O   0  0  0  0  0  0  0  0  0  0  0  0
   38.0090   31.7580   39.5140 N   0  0  0  0  0  0  0  0  0  0  0  0
   38.0980   30.8920   40.5470 C   0  0  0  0  0  0  0  0  0  0  0  0
   38.5380   31.1650   41.6800 O   0  0  0  0  0  0  0  0  0  0  0  0
   38.5140   28.2580   44.5260 H   0  0  0  0  0  0  0  0  0  0  0  0
   37.8070   25.8890   44.0390 H   0  0  0  0  0  0  0  0  0  0  0  0
   37.5150   24.5300   40.9190 H   0  0  0  0  0  0  0  0  0  0  0  0
   36.0490   24.8540   42.1600 H   0  0  0  0  0  0  0  0  0  0  0  0
   36.8470   28.2660   38.9440 H   0  0  0  0  0  0  0  0  0  0  0  0
   38.4760   33.0660   39.8250 C   0  0  0  0  0  0  0  0  0  0  0  0
   39.8010   33.2980   39.4480 C   0  0  0  0  0  0  0  0  0  0  0  0
   40.1070   34.5740   39.8030 N   0  0  0  0  0  0  0  0  0  0  0  0
   39.0070   35.1010   40.3760 C   0  0  0  0  0  0  0  0  0  0  0  0
   38.0150   34.1960   40.3940 N   0  0  0  0  0  0  0  0  0  0  0  0
   37.0380   34.1730   40.7260 H   0  0  0  0  0  0  0  0  0  0  0  0
   36.5520   29.7050   36.7680 C   0  0  0  0  0  0  0  0  0  0  0  0
   37.3390   29.3860   36.0550 H   0  0  0  0  0  0  0  0  0  0  0  0
   35.8650   30.4380   36.3130 H   0  0  0  0  0  0  0  0  0  0  0  0
   35.9640   28.7630   36.9730 H   0  0  0  0  0  0  0  0  0  0  0  0
  1 16  1  0  0  0  0
  2  1  1  0  0  0  0
  2 17  1  0  0  0  0
  3  2  2  0  0  0  0
  4  5  2  0  0  0  0
  4  3  1  0  0  0  0
  5  6  1  0  0  0  0
  6  1  2  0  0  0  0
  7  3  1  0  0  0  0
  7 19  1  0  0  0  0
  8 14  1  0  0  0  0
  8  5  1  0  0  0  0
  9  8  1  0  0  0  0
 10 11  1  0  0  0  0
 10  9  2  0  0  0  0
 11 13  1  0  0  0  0
 12 11  2  0  0  0  0
 13 21  1  0  0  0  0
 13 14  1  0  0  0  0
 14 15  2  0  0  0  0
 18  7  1  0  0  0  0
 20  9  1  0  0  0  0
 21 25  1  0  0  0  0
 22 23  1  0  0  0  0
 22 21  2  0  0  0  0
 23 24  2  0  0  0  0
 24 25  1  0  0  0  0
 25 26  1  0  0  0  0
 27 30  1  0  0  0  0
 27 10  1  0  0  0  0
 28 27  1  0  0  0  0
 29 27  1  0  0  0  0
M  END
>  <minimizedAffinity>
-5.73399019

>  <minimizedRMSD>
1.14513505

$$$$
