
 OpenBabel03242508293D

 26 28  0  0  0  0  0  0  0  0999 V2000
   36.8350   31.2010   40.3570 C   0  0  0  0  0  0  0  0  0  0  0  0
   36.8080   31.3600   38.9950 N   0  0  0  0  0  0  0  0  0  0  0  0
   37.6080   32.3400   38.6790 O   0  0  0  0  0  0  0  0  0  0  0  0
   38.1360   32.8010   39.7890 C   0  0  0  0  0  0  0  0  0  0  0  0
   37.6780   32.1180   40.8460 N   0  0  0  0  0  0  0  0  0  0  0  0
   39.0880   33.9060   39.8410 C   0  0  0  0  0  0  0  0  0  0  0  0
   38.8390   35.1740   40.3450 C   0  0  0  0  0  0  0  0  0  0  0  0
   39.9970   35.9250   40.2110 C   0  0  0  0  0  0  0  0  0  0  0  0
   40.9180   35.0740   39.6250 C   0  0  0  0  0  0  0  0  0  0  0  0
   40.3230   33.9440   39.4470 O   0  0  0  0  0  0  0  0  0  0  0  0
   37.8920   35.5170   40.7700 H   0  0  0  0  0  0  0  0  0  0  0  0
   40.1470   36.9670   40.5060 H   0  0  0  0  0  0  0  0  0  0  0  0
   41.9330   35.3650   39.3870 H   0  0  0  0  0  0  0  0  0  0  0  0
   36.1600   30.2990   41.1720 O   0  0  0  0  0  0  0  0  0  0  0  0
   38.1370   28.2590   43.4310 C   0  0  0  0  0  0  0  0  0  0  0  0
   38.0850   27.0380   42.7340 C   0  0  0  0  0  0  0  0  0  0  0  0
   37.3550   27.0120   41.5110 C   0  0  0  0  0  0  0  0  0  0  0  0
   36.7610   28.1640   41.1030 N   0  0  0  0  0  0  0  0  0  0  0  0
   36.8420   29.2910   41.8000 C   0  0  0  0  0  0  0  0  0  0  0  0
   37.5180   29.3440   42.9480 N   0  0  0  0  0  0  0  0  0  0  0  0
   38.6820   28.3210   44.3650 H   0  0  0  0  0  0  0  0  0  0  0  0
   38.5790   26.1430   43.1050 H   0  0  0  0  0  0  0  0  0  0  0  0
   37.3070   25.7180   40.7850 C   0  0  0  0  0  0  0  0  0  0  0  0
   38.7120   25.3480   40.3560 C   0  0  0  0  0  0  0  0  0  0  0  0
   36.8270   24.6280   41.7160 C   0  0  0  0  0  0  0  0  0  0  0  0
   36.4600   25.7940   39.5320 C   0  0  0  0  0  0  0  0  0  0  0  0
  1  5  1  0  0  0  0
  1 14  1  0  0  0  0
  2  1  2  0  0  0  0
  3  2  1  0  0  0  0
  3  4  1  0  0  0  0
  4  6  1  0  0  0  0
  4  5  2  0  0  0  0
  6  7  2  0  0  0  0
  7 11  1  0  0  0  0
  8  7  1  0  0  0  0
  8 12  1  0  0  0  0
  9  8  2  0  0  0  0
 10  9  1  0  0  0  0
 10  6  1  0  0  0  0
 13  9  1  0  0  0  0
 14 19  1  0  0  0  0
 15 21  1  0  0  0  0
 16 22  1  0  0  0  0
 16 15  2  0  0  0  0
 17 16  1  0  0  0  0
 18 17  2  0  0  0  0
 18 19  1  0  0  0  0
 19 20  2  0  0  0  0
 20 15  1  0  0  0  0
 23 17  1  0  0  0  0
 23 25  1  0  0  0  0
 24 23  1  0  0  0  0
 26 23  1  0  0  0  0
M  END
>  <minimizedAffinity>
-5.76383924

>  <minimizedRMSD>
0.834302187

$$$$
