
 OpenBabel03242506453D

 28 30  0  0  0  0  0  0  0  0999 V2000
   44.6690   26.6650   44.3790 C   0  0  0  0  0  0  0  0  0  0  0  0
   43.5050   26.6500   43.5880 C   0  0  0  0  0  0  0  0  0  0  0  0
   42.2950   27.0550   44.1720 C   0  0  0  0  0  0  0  0  0  0  0  0
   42.3110   27.4450   45.4860 N   0  0  0  0  0  0  0  0  0  0  0  0
   43.4540   27.4400   46.2000 C   0  0  0  0  0  0  0  0  0  0  0  0
   44.6130   27.0580   45.6590 N   0  0  0  0  0  0  0  0  0  0  0  0
   45.6200   26.3740   44.0120 H   0  0  0  0  0  0  0  0  0  0  0  0
   43.3910   27.8790   47.6320 C   0  0  0  0  0  0  0  0  0  0  0  0
   43.3380   29.2560   47.7200 F   0  0  0  0  0  0  0  0  0  0  0  0
   42.1880   27.4470   48.2140 F   0  0  0  0  0  0  0  0  0  0  0  0
   44.4910   27.4740   48.3560 F   0  0  0  0  0  0  0  0  0  0  0  0
   43.6330   26.2040   42.1750 C   0  0  0  0  0  0  0  0  0  0  0  0
   43.6620   27.4070   41.2290 C   0  0  0  0  0  0  0  0  0  0  0  0
   44.9700   25.5030   41.9480 C   0  0  0  0  0  0  0  0  0  0  0  0
   42.5150   25.3460   41.6910 C   0  0  0  0  0  0  0  0  0  0  0  0
   41.1860   27.0320   43.3870 O   0  0  0  0  0  0  0  0  0  0  0  0
   37.1220   29.0590   43.3170 N   0  0  0  0  0  0  0  0  0  0  0  0
   37.0380   27.7780   43.7310 C   0  0  0  0  0  0  0  0  0  0  0  0
   38.2930   27.2740   43.7140 N   0  0  0  0  0  0  0  0  0  0  0  0
   39.1780   28.2030   43.2990 C   0  0  0  0  0  0  0  0  0  0  0  0
   40.5450   28.2320   43.0990 C   0  0  0  0  0  0  0  0  0  0  0  0
   41.1260   29.3800   42.6570 N   0  0  0  0  0  0  0  0  0  0  0  0
   40.3570   30.4620   42.4250 C   0  0  0  0  0  0  0  0  0  0  0  0
   39.0100   30.4720   42.6100 N   0  0  0  0  0  0  0  0  0  0  0  0
   38.3970   29.3430   43.0500 C   0  0  0  0  0  0  0  0  0  0  0  0
   36.2740   29.6950   43.2370 H   0  0  0  0  0  0  0  0  0  0  0  0
   36.1370   27.2760   44.0140 H   0  0  0  0  0  0  0  0  0  0  0  0
   40.9410   31.2960   42.0820 H   0  0  0  0  0  0  0  0  0  0  0  0
  1  6  1  0  0  0  0
  2  3  1  0  0  0  0
  2  1  2  0  0  0  0
  3  4  2  0  0  0  0
  4  5  1  0  0  0  0
  5  8  1  0  0  0  0
  6  5  2  0  0  0  0
  7  1  1  0  0  0  0
  8  9  1  0  0  0  0
  8 10  1  0  0  0  0
  8 11  1  0  0  0  0
 12  2  1  0  0  0  0
 13 12  1  0  0  0  0
 14 12  1  0  0  0  0
 15 12  1  0  0  0  0
 16  3  1  0  0  0  0
 17 18  1  0  0  0  0
 18 27  1  0  0  0  0
 19 18  2  0  0  0  0
 20 19  1  0  0  0  0
 21 20  1  0  0  0  0
 21 16  1  0  0  0  0
 22 21  2  0  0  0  0
 23 24  2  0  0  0  0
 23 22  1  0  0  0  0
 24 25  1  0  0  0  0
 25 20  2  0  0  0  0
 25 17  1  0  0  0  0
 26 17  1  0  0  0  0
 28 23  1  0  0  0  0
M  END
>  <minimizedAffinity>
-5.24879074

>  <minimizedRMSD>
0.57704407

$$$$
