
 OpenBabel03242509083D

 34 37  0  0  1  0  0  0  0  0999 V2000
   35.9940   30.6600   40.8940 C   0  0  0  0  0  0  0  0  0  0  0  0
   36.6920   29.6080   41.5070 C   0  0  0  0  0  0  0  0  0  0  0  0
   38.0830   29.6390   41.5110 C   0  0  0  0  0  0  0  0  0  0  0  0
   38.6740   30.7000   40.9160 N   0  0  0  0  0  0  0  0  0  0  0  0
   37.9930   31.7040   40.3310 C   0  0  0  0  0  0  0  0  0  0  0  0
   36.6410   31.6790   40.3230 N   0  0  0  0  0  0  0  0  0  0  0  0
   34.9080   30.6040   40.9080 H   0  0  0  0  0  0  0  0  0  0  0  0
   36.2110   28.7490   41.9900 H   0  0  0  0  0  0  0  0  0  0  0  0
   38.8170   28.5530   42.1340 C   0  0  0  0  0  0  0  0  0  0  0  0
   39.9820   28.6210   42.8680 C   0  0  0  0  0  0  0  0  0  0  0  0
   40.3240   27.3690   43.2620 N   0  0  0  0  0  0  0  0  0  0  0  0
   39.4250   26.4770   42.8130 C   0  0  0  0  0  0  0  0  0  0  0  0
   39.2910   25.1030   42.9190 C   0  0  0  0  0  0  0  0  0  0  0  0
   38.2320   24.4170   42.3390 C   0  0  0  0  0  0  0  0  0  0  0  0
   37.3140   25.1760   41.6450 C   0  0  0  0  0  0  0  0  0  0  0  0
   37.4330   26.5390   41.5320 C   0  0  0  0  0  0  0  0  0  0  0  0
   38.4830   27.2150   42.1080 C   0  0  0  0  0  0  0  0  0  0  0  0
   40.5020   29.5590   43.0690 H   0  0  0  0  0  0  0  0  0  0  0  0
   41.1790   27.1260   43.8410 H   0  0  0  0  0  0  0  0  0  0  0  0
   40.0340   24.5360   43.4740 H   0  0  0  0  0  0  0  0  0  0  0  0
   38.1040   23.3540   42.4050 H   0  0  0  0  0  0  0  0  0  0  0  0
   36.4430   24.7210   41.1530 H   0  0  0  0  0  0  0  0  0  0  0  0
   36.7190   27.1200   40.9940 H   0  0  0  0  0  0  0  0  0  0  0  0
   38.7290   32.8500   39.6990 C   0  0  1  0  0  0  0  0  0  0  0  0
   38.3840   34.2510   40.1950 C   0  0  0  0  0  0  0  0  0  0  0  0
   39.6900   33.6180   40.5440 C   0  0  2  0  0  0  0  0  0  0  0  0
   38.9910   32.7200   38.6510 H   0  0  0  0  0  0  0  0  0  0  0  0
   38.4060   35.0040   39.3820 H   0  0  0  0  0  0  0  0  0  0  0  0
   37.5510   34.2760   40.8990 H   0  0  0  0  0  0  0  0  0  0  0  0
   39.7670   33.3090   41.6240 H   0  0  0  0  0  0  0  0  0  0  0  0
   40.9460   34.1860   39.9840 C   0  0  0  0  0  0  0  0  0  0  0  0
   40.7150   35.6770   39.7790 C   0  0  0  0  0  0  0  0  0  0  0  0
   42.1760   33.9600   40.8200 C   0  0  0  0  0  0  0  0  0  0  0  0
   41.2130   33.5500   38.6360 C   0  0  0  0  0  0  0  0  0  0  0  0
  1  7  1  0  0  0  0
  1  2  1  0  0  0  0
  2  3  2  0  0  0  0
  2  8  1  0  0  0  0
  3  9  1  0  0  0  0
  4  3  1  0  0  0  0
  5  4  2  0  0  0  0
  6  5  1  0  0  0  0
  6  1  2  0  0  0  0
  9 10  2  0  0  0  0
 10 18  1  0  0  0  0
 10 11  1  0  0  0  0
 11 19  1  0  0  0  0
 12 13  1  0  0  0  0
 12 11  1  0  0  0  0
 13 20  1  0  0  0  0
 14 21  1  0  0  0  0
 14 13  2  0  0  0  0
 15 14  1  0  0  0  0
 16 15  2  0  0  0  0
 16 17  1  0  0  0  0
 17  9  1  0  0  0  0
 17 12  2  0  0  0  0
 22 15  1  0  0  0  0
 23 16  1  0  0  0  0
 24 27  1  6  0  0  0
 24 25  1  0  0  0  0
 24  5  1  0  0  0  0
 24 26  1  0  0  0  0
 25 26  1  0  0  0  0
 25 29  1  0  0  0  0
 26 30  1  1  0  0  0
 28 25  1  0  0  0  0
 31 26  1  0  0  0  0
 31 33  1  0  0  0  0
 32 31  1  0  0  0  0
 34 31  1  0  0  0  0
M  END
>  <minimizedAffinity>
-5.84712744

>  <minimizedRMSD>
1.10984969

$$$$
