
     RDKit          3D

 25 25  0  0  0  0  0  0  0  0999 V2000
   37.9707   28.8824   43.3771 C   0  0  0  0  0  0  0  0  0  0  0  0
   38.0767   27.4676   43.3095 C   0  0  0  0  0  0  0  0  0  0  0  0
   37.4334   26.8215   42.2549 C   0  0  0  0  0  0  0  0  0  0  0  0
   36.7321   27.5732   41.3362 N   0  0  0  0  0  0  0  0  0  0  0  0
   36.6610   28.9119   41.4434 C   0  0  0  0  0  0  0  0  0  0  0  0
   37.2760   29.5520   42.4552 N   0  0  0  0  0  0  0  0  0  0  0  0
   37.5233   25.3422   42.1535 C   0  0  0  0  0  0  0  0  0  0  0  0
   37.6508   25.0536   40.8037 F   0  0  0  0  0  0  0  0  0  0  0  0
   38.6312   24.8372   42.7923 F   0  0  0  0  0  0  0  0  0  0  0  0
   36.3908   24.7135   42.6473 F   0  0  0  0  0  0  0  0  0  0  0  0
   38.4694   29.3855   44.1950 H   0  0  0  0  0  0  0  0  0  0  0  0
   38.6438   26.9016   44.0590 H   0  0  0  0  0  0  0  0  0  0  0  0
   35.8740   29.6004   40.3879 C   0  0  0  0  0  0  0  0  0  0  0  0
   35.9144   28.8578   39.0777 C   0  0  0  0  0  0  0  0  0  0  0  0
   36.5229   30.9767   40.2049 C   0  0  0  0  0  0  0  0  0  0  0  0
   34.4517   29.7906   40.8930 C   0  0  0  0  0  0  0  0  0  0  0  0
   34.8738   28.4896   38.8568 H   0  0  0  0  0  0  0  0  0  0  0  0
   36.6172   28.0125   39.0536 H   0  0  0  0  0  0  0  0  0  0  0  0
   36.1551   29.5319   38.2280 H   0  0  0  0  0  0  0  0  0  0  0  0
   37.6358   30.8415   40.3249 H   0  0  0  0  0  0  0  0  0  0  0  0
   36.1272   31.6776   40.9790 H   0  0  0  0  0  0  0  0  0  0  0  0
   36.3183   31.3148   39.1683 H   0  0  0  0  0  0  0  0  0  0  0  0
   34.4957   30.5369   41.7157 H   0  0  0  0  0  0  0  0  0  0  0  0
   33.7782   30.1338   40.0835 H   0  0  0  0  0  0  0  0  0  0  0  0
   34.1342   28.8234   41.3311 H   0  0  0  0  0  0  0  0  0  0  0  0
  2  1  2  0
  3  2  1  0
  4  5  1  0
  4  3  2  0
  5  6  2  0
  6  1  1  0
  7  3  1  0
  7 10  1  0
  7  9  1  0
  8  7  1  0
  1 11  1  0
  2 12  1  0
 13 14  1  0
 13 15  1  0
 13 16  1  0
 14 17  1  0
 14 18  1  0
 14 19  1  0
 15 20  1  0
 15 21  1  0
 15 22  1  0
 16 23  1  0
 16 24  1  0
 16 25  1  0
  5 13  1  0
M  ISO  2  11  14  12  14
M  END
>  <DihAtoms>  (1) 
3,4,12,13

>  <DihDeg>  (1) 
179.996913313716

$$$$
