
     RDKit          3D

 25 25  0  0  0  0  0  0  0  0999 V2000
   37.9707   28.8824   43.3771 C   0  0  0  0  0  0  0  0  0  0  0  0
   38.0767   27.4676   43.3095 C   0  0  0  0  0  0  0  0  0  0  0  0
   37.4334   26.8215   42.2549 C   0  0  0  0  0  0  0  0  0  0  0  0
   36.7321   27.5732   41.3362 N   0  0  0  0  0  0  0  0  0  0  0  0
   36.6610   28.9119   41.4434 C   0  0  0  0  0  0  0  0  0  0  0  0
   37.2760   29.5520   42.4552 N   0  0  0  0  0  0  0  0  0  0  0  0
   37.5233   25.3422   42.1535 C   0  0  0  0  0  0  0  0  0  0  0  0
   37.6508   25.0536   40.8037 F   0  0  0  0  0  0  0  0  0  0  0  0
   38.6312   24.8372   42.7923 F   0  0  0  0  0  0  0  0  0  0  0  0
   36.3908   24.7135   42.6473 F   0  0  0  0  0  0  0  0  0  0  0  0
   38.4694   29.3855   44.1950 H   0  0  0  0  0  0  0  0  0  0  0  0
   38.6438   26.9016   44.0590 H   0  0  0  0  0  0  0  0  0  0  0  0
   35.8740   29.6004   40.3879 C   0  0  0  0  0  0  0  0  0  0  0  0
   34.7130   30.3709   40.9605 C   0  0  0  0  0  0  0  0  0  0  0  0
   35.3393   28.4962   39.4694 C   0  0  0  0  0  0  0  0  0  0  0  0
   36.8133   30.4921   39.5897 C   0  0  0  0  0  0  0  0  0  0  0  0
   34.9008   31.4658   40.7780 H   0  0  0  0  0  0  0  0  0  0  0  0
   34.5367   30.2011   42.0326 H   0  0  0  0  0  0  0  0  0  0  0  0
   33.7677   30.1585   40.4168 H   0  0  0  0  0  0  0  0  0  0  0  0
   35.0842   27.6121   40.1209 H   0  0  0  0  0  0  0  0  0  0  0  0
   36.1257   28.2214   38.7256 H   0  0  0  0  0  0  0  0  0  0  0  0
   34.4066   28.8676   38.9974 H   0  0  0  0  0  0  0  0  0  0  0  0
   37.4897   29.8216   39.0166 H   0  0  0  0  0  0  0  0  0  0  0  0
   36.2526   31.1630   38.9099 H   0  0  0  0  0  0  0  0  0  0  0  0
   37.4306   31.0472   40.3238 H   0  0  0  0  0  0  0  0  0  0  0  0
  2  1  2  0
  3  2  1  0
  4  5  1  0
  4  3  2  0
  5  6  2  0
  6  1  1  0
  7  3  1  0
  7 10  1  0
  7  9  1  0
  8  7  1  0
  1 11  1  0
  2 12  1  0
 13 14  1  0
 13 15  1  0
 13 16  1  0
 14 17  1  0
 14 18  1  0
 14 19  1  0
 15 20  1  0
 15 21  1  0
 15 22  1  0
 16 23  1  0
 16 24  1  0
 16 25  1  0
  5 13  1  0
M  ISO  2  11  14  12  14
M  END
>  <DihAtoms>  (1) 
3,4,12,13

>  <DihDeg>  (1) 
179.996913313716

$$$$
