
     RDKit          3D

 25 25  0  0  0  0  0  0  0  0999 V2000
   37.9707   28.8824   43.3771 C   0  0  0  0  0  0  0  0  0  0  0  0
   38.0767   27.4676   43.3095 C   0  0  0  0  0  0  0  0  0  0  0  0
   37.4334   26.8215   42.2549 C   0  0  0  0  0  0  0  0  0  0  0  0
   36.7321   27.5732   41.3362 N   0  0  0  0  0  0  0  0  0  0  0  0
   36.6610   28.9119   41.4434 C   0  0  0  0  0  0  0  0  0  0  0  0
   37.2760   29.5520   42.4552 N   0  0  0  0  0  0  0  0  0  0  0  0
   37.5233   25.3422   42.1535 C   0  0  0  0  0  0  0  0  0  0  0  0
   37.6508   25.0536   40.8037 F   0  0  0  0  0  0  0  0  0  0  0  0
   38.6312   24.8372   42.7923 F   0  0  0  0  0  0  0  0  0  0  0  0
   36.3908   24.7135   42.6473 F   0  0  0  0  0  0  0  0  0  0  0  0
   38.4694   29.3855   44.1950 H   0  0  0  0  0  0  0  0  0  0  0  0
   38.6438   26.9016   44.0590 H   0  0  0  0  0  0  0  0  0  0  0  0
   35.8740   29.6004   40.3879 C   0  0  0  0  0  0  0  0  0  0  0  0
   36.5826   30.8204   39.8597 C   0  0  0  0  0  0  0  0  0  0  0  0
   34.5608   30.0305   41.0507 C   0  0  0  0  0  0  0  0  0  0  0  0
   35.5636   28.5983   39.2862 C   0  0  0  0  0  0  0  0  0  0  0  0
   36.8452   30.6283   38.7820 H   0  0  0  0  0  0  0  0  0  0  0  0
   37.4896   31.0981   40.4159 H   0  0  0  0  0  0  0  0  0  0  0  0
   35.9123   31.7058   39.8270 H   0  0  0  0  0  0  0  0  0  0  0  0
   34.8035   30.3376   42.1080 H   0  0  0  0  0  0  0  0  0  0  0  0
   33.8460   29.1724   41.0457 H   0  0  0  0  0  0  0  0  0  0  0  0
   34.1779   30.9172   40.5048 H   0  0  0  0  0  0  0  0  0  0  0  0
   34.8465   27.8617   39.7090 H   0  0  0  0  0  0  0  0  0  0  0  0
   35.1375   29.0979   38.3943 H   0  0  0  0  0  0  0  0  0  0  0  0
   36.5076   28.0617   39.0645 H   0  0  0  0  0  0  0  0  0  0  0  0
  2  1  2  0
  3  2  1  0
  4  5  1  0
  4  3  2  0
  5  6  2  0
  6  1  1  0
  7  3  1  0
  7 10  1  0
  7  9  1  0
  8  7  1  0
  1 11  1  0
  2 12  1  0
 13 14  1  0
 13 15  1  0
 13 16  1  0
 14 17  1  0
 14 18  1  0
 14 19  1  0
 15 20  1  0
 15 21  1  0
 15 22  1  0
 16 23  1  0
 16 24  1  0
 16 25  1  0
  5 13  1  0
M  ISO  2  11  14  12  14
M  END
>  <DihAtoms>  (1) 
3,4,12,13

>  <DihDeg>  (1) 
179.996913313716

$$$$
