
 OpenBabel03242509313D

 16 16  0  0  0  0  0  0  0  0999 V2000
   37.8020   28.5810   43.5220 C   0  0  0  0  0  0  0  0  0  0  0  0
   38.4000   27.3000   43.6480 C   0  0  0  0  0  0  0  0  0  0  0  0
   38.3090   26.4350   42.5590 C   0  0  0  0  0  0  0  0  0  0  0  0
   37.6520   26.8550   41.4220 N   0  0  0  0  0  0  0  0  0  0  0  0
   37.1010   28.0800   41.3500 C   0  0  0  0  0  0  0  0  0  0  0  0
   37.1790   28.9280   42.3930 N   0  0  0  0  0  0  0  0  0  0  0  0
   37.8700   29.2540   44.3660 H   0  0  0  0  0  0  0  0  0  0  0  0
   38.9150   26.9990   44.5690 H   0  0  0  0  0  0  0  0  0  0  0  0
   38.9230   25.0850   42.6570 C   0  0  0  0  0  0  0  0  0  0  0  0
   39.7440   24.9530   41.5480 F   0  0  0  0  0  0  0  0  0  0  0  0
   39.7120   24.9460   43.7740 F   0  0  0  0  0  0  0  0  0  0  0  0
   37.9750   24.0750   42.6430 F   0  0  0  0  0  0  0  0  0  0  0  0
   36.4240   28.4060   40.0700 C   0  0  0  0  0  0  0  0  0  0  0  0
   36.2440   27.1890   39.2000 C   0  0  0  0  0  1  0  0  0  0  0  0
   37.3350   29.4070   39.3510 C   0  0  0  0  0  1  0  0  0  0  0  0
   35.0990   29.0840   40.3830 C   0  0  0  0  0  1  0  0  0  0  0  0
  1  2  1  0  0  0  0
  1  7  1  0  0  0  0
  2  8  1  0  0  0  0
  3  9  1  0  0  0  0
  3  2  2  0  0  0  0
  4  3  1  0  0  0  0
  5  4  2  0  0  0  0
  5  6  1  0  0  0  0
  6  1  2  0  0  0  0
  9 11  1  0  0  0  0
 10  9  1  0  0  0  0
 12  9  1  0  0  0  0
 13 16  1  0  0  0  0
 13  5  1  0  0  0  0
 14 13  1  0  0  0  0
 15 13  1  0  0  0  0
M  END
>  <minimizedAffinity>
-4.12346458

>  <minimizedRMSD>
1.66652274

$$$$
