REMARK  Name = 
REMARK  5 active torsions:
REMARK  status: ('A' for Active; 'I' for Inactive)
REMARK    1  A    between atoms: C_3  and  C_7
REMARK    2  A    between atoms: C_5  and  C_13
REMARK    3  A    between atoms: C_13  and  C_14
REMARK    4  A    between atoms: C_13  and  C_15
REMARK    5  A    between atoms: C_13  and  C_16
REMARK                            x       y       z     vdW  Elec       q    Type
REMARK                         _______ _______ _______ _____ _____    ______ ____
ROOT
ATOM      1  C   UNL     1      37.971  28.882  43.377  0.00  0.00    +0.000 A 
ATOM      2  C   UNL     1      38.077  27.468  43.309  0.00  0.00    +0.000 A 
ATOM      3  C   UNL     1      37.433  26.822  42.255  0.00  0.00    +0.000 A 
ATOM      4  N   UNL     1      36.732  27.573  41.336  0.00  0.00    +0.000 NA
ATOM      5  C   UNL     1      36.661  28.912  41.443  0.00  0.00    +0.000 A 
ATOM      6  N   UNL     1      37.276  29.552  42.455  0.00  0.00    +0.000 NA
ATOM      7  H   UNL     1      38.469  29.386  44.195  0.00  0.00    +0.000 HD
ATOM      8  H   UNL     1      38.644  26.902  44.059  0.00  0.00    +0.000 HD
ENDROOT
BRANCH   3   9
ATOM      9  C   UNL     1      37.523  25.342  42.154  0.00  0.00    +0.000 C 
ATOM     10  F   UNL     1      37.651  25.054  40.804  0.00  0.00    +0.000 F 
ATOM     11  F   UNL     1      38.631  24.837  42.792  0.00  0.00    +0.000 F 
ATOM     12  F   UNL     1      36.391  24.713  42.647  0.00  0.00    +0.000 F 
ENDBRANCH   3   9
BRANCH   5  13
ATOM     13  C   UNL     1      35.874  29.600  40.388  0.00  0.00    +0.000 C 
ATOM     14  C   UNL     1      36.759  30.300  39.389  0.00  0.00    +0.000 C 
ATOM     15  C   UNL     1      35.013  30.641  41.112  0.00  0.00    +0.000 C 
ATOM     16  C   UNL     1      34.960  28.581  39.725  0.00  0.00    +0.000 C 
ENDBRANCH   5  13
TORSDOF 2
