
 OpenBabel03242507563D

 25 27  0  0  0  0  0  0  0  0999 V2000
   37.4370   30.0380   39.6250 C   0  0  0  0  0  0  0  0  0  0  0  0
   38.1820   31.1710   39.4060 C   0  0  0  0  0  0  0  0  0  0  0  0
   38.1700   31.7270   38.1330 C   0  0  0  0  0  0  0  0  0  0  0  0
   37.4180   31.1190   37.1560 C   0  0  0  0  0  0  0  0  0  0  0  0
   36.6730   29.9840   37.3820 C   0  0  0  0  0  0  0  0  0  0  0  0
   36.6960   29.4630   38.6150 N   0  0  0  0  0  0  0  0  0  0  0  0
   38.7620   31.6250   40.1840 H   0  0  0  0  0  0  0  0  0  0  0  0
   38.7640   32.6190   37.9740 H   0  0  0  0  0  0  0  0  0  0  0  0
   37.3950   31.5370   36.1550 H   0  0  0  0  0  0  0  0  0  0  0  0
   38.2940   29.3630   43.1180 C   0  0  0  0  0  0  0  0  0  0  0  0
   37.4430   28.3010   43.4610 C   0  0  0  0  0  0  0  0  0  0  0  0
   36.5680   27.8150   42.4780 C   0  0  0  0  0  0  0  0  0  0  0  0
   36.5960   28.4020   41.2520 N   0  0  0  0  0  0  0  0  0  0  0  0
   37.4110   29.4110   40.9440 C   0  0  0  0  0  0  0  0  0  0  0  0
   38.2440   29.8670   41.8940 N   0  0  0  0  0  0  0  0  0  0  0  0
   38.9820   29.7620   43.8520 H   0  0  0  0  0  0  0  0  0  0  0  0
   37.4550   27.8650   44.4490 H   0  0  0  0  0  0  0  0  0  0  0  0
   35.8920   26.9920   42.7050 H   0  0  0  0  0  0  0  0  0  0  0  0
   35.7120   29.2360   36.0770 S   0  0  0  0  0  0  0  0  0  0  0  0
   36.1620   30.0280   34.5220 C   0  0  0  0  0  0  0  0  0  0  0  0
   36.5500   29.1980   33.5190 N   0  0  0  0  0  0  0  0  0  0  0  0
   36.8270   29.9580   32.5010 O   0  0  0  0  0  0  0  0  0  0  0  0
   36.6470   31.2240   32.7690 C   0  0  0  0  0  0  0  0  0  0  0  0
   36.7860   32.0960   32.1430 H   0  0  0  0  0  0  0  0  0  0  0  0
   36.2190   31.2910   34.0620 N   0  0  0  0  0  0  0  0  0  0  0  0
  1 14  1  0  0  0  0
  2  1  1  0  0  0  0
  2  7  1  0  0  0  0
  3  2  2  0  0  0  0
  4  5  2  0  0  0  0
  4  3  1  0  0  0  0
  5  6  1  0  0  0  0
  6  1  2  0  0  0  0
  8  3  1  0  0  0  0
  9  4  1  0  0  0  0
 10 11  1  0  0  0  0
 10 16  1  0  0  0  0
 11 17  1  0  0  0  0
 12 18  1  0  0  0  0
 12 11  2  0  0  0  0
 13 12  1  0  0  0  0
 14 13  2  0  0  0  0
 14 15  1  0  0  0  0
 15 10  2  0  0  0  0
 19  5  1  0  0  0  0
 20 19  1  0  0  0  0
 21 20  2  0  0  0  0
 22 23  1  0  0  0  0
 22 21  1  0  0  0  0
 23 25  2  0  0  0  0
 24 23  1  0  0  0  0
 25 20  1  0  0  0  0
M  END
>  <minimizedAffinity>
-4.5801959

>  <minimizedRMSD>
1.34728789

$$$$
