
 OpenBabel03242509263D

 51 56  0  0  0  0  0  0  0  0999 V2000
   38.7790   28.0930   42.6750 C   0  0  0  0  0  0  0  0  0  0  0  0
   37.6560   27.3630   42.9570 C   0  0  0  0  0  0  0  0  0  0  0  0
   36.5770   28.0670   42.4180 C   0  0  0  0  0  0  0  0  0  0  0  0
   37.1310   29.1520   41.8620 N   0  0  0  0  0  0  0  0  0  0  0  0
   38.4200   29.2010   41.9930 N   0  0  0  0  0  0  0  0  0  0  0  0
   37.6040   26.4110   43.4980 H   0  0  0  0  0  0  0  0  0  0  0  0
   35.5550   27.7190   42.4920 H   0  0  0  0  0  0  0  0  0  0  0  0
   41.7210   26.5450   44.3560 C   0  0  0  0  0  0  0  0  0  0  0  0
   40.3840   26.8170   44.0500 C   0  0  0  0  0  0  0  0  0  0  0  0
   40.1430   27.7680   43.0350 C   0  0  0  0  0  0  0  0  0  0  0  0
   41.1820   28.3730   42.4050 N   0  0  0  0  0  0  0  0  0  0  0  0
   42.4700   28.0510   42.7630 C   0  0  0  0  0  0  0  0  0  0  0  0
   42.7230   27.1550   43.7210 N   0  0  0  0  0  0  0  0  0  0  0  0
   41.9790   25.8210   45.1300 H   0  0  0  0  0  0  0  0  0  0  0  0
   39.5790   26.3160   44.5720 H   0  0  0  0  0  0  0  0  0  0  0  0
   43.4200   28.7960   41.9830 N   0  0  0  0  0  0  0  0  0  0  0  0
   44.4270   28.3830   41.1750 C   0  0  0  0  0  3  0  0  0  0  0  0
   45.0450   29.4540   40.6600 N   0  0  0  0  0  0  0  0  0  0  0  0
   44.4560   30.5740   41.1210 C   0  0  0  0  0  0  0  0  0  0  0  0
   44.6340   31.9440   40.9560 C   0  0  0  0  0  0  0  0  0  0  0  0
   43.8570   32.8440   41.5720 N   0  0  0  0  0  0  0  0  0  0  0  0
   42.8660   32.4020   42.3800 C   0  0  0  0  0  3  0  0  0  0  0  0
   42.6500   31.0790   42.5740 N   0  0  0  0  0  0  0  0  0  0  0  0
   43.4290   30.1550   41.9570 C   0  0  0  0  0  0  0  0  0  0  0  0
   45.6760   32.3940   40.1070 N   0  0  0  0  0  0  0  0  0  0  0  0
   46.5110   32.5560   40.7120 H   0  0  0  0  0  0  0  0  0  0  0  0
   45.1550   32.3760   39.1890 H   0  0  0  0  0  0  0  0  0  0  0  0
   36.2980   30.1070   41.2140 C   0  0  0  0  0  0  0  0  0  0  0  0
   35.8120   30.7020   42.0240 H   0  0  0  0  0  0  0  0  0  0  0  0
   36.9130   30.8370   40.6460 H   0  0  0  0  0  0  0  0  0  0  0  0
   35.2980   29.5460   40.2540 C   0  0  0  0  0  0  0  0  0  0  0  0
   34.6270   30.4650   40.1490 H   0  0  0  0  0  0  0  0  0  0  0  0
   34.8130   28.6880   40.6950 H   0  0  0  0  0  0  0  0  0  0  0  0
   35.7950   29.3750   38.8690 C   0  0  0  0  0  0  0  0  0  0  0  0
   37.0930   29.4030   38.4400 C   0  0  0  0  0  0  0  0  0  0  0  0
   37.5060   29.3130   37.1400 C   0  0  0  0  0  0  0  0  0  0  0  0
   36.5740   29.1850   36.1470 C   0  0  0  0  0  0  0  0  0  0  0  0
   35.2430   29.1480   36.5080 C   0  0  0  0  0  0  0  0  0  0  0  0
   34.3440   29.0260   35.4720 C   0  0  0  0  0  0  0  0  0  0  0  0
   33.0090   28.9850   35.7260 C   0  0  0  0  0  0  0  0  0  0  0  0
   32.5660   29.0630   37.0290 C   0  0  0  0  0  0  0  0  0  0  0  0
   33.5020   29.1820   38.0220 C   0  0  0  0  0  0  0  0  0  0  0  0
   34.8440   29.2370   37.8410 C   0  0  0  0  0  0  0  0  0  0  0  0
   37.8330   29.5060   39.2330 H   0  0  0  0  0  0  0  0  0  0  0  0
   38.5650   29.3500   36.9530 H   0  0  0  0  0  0  0  0  0  0  0  0
   36.8840   29.1140   35.1120 H   0  0  0  0  0  0  0  0  0  0  0  0
   34.6830   28.9610   34.4330 H   0  0  0  0  0  0  0  0  0  0  0  0
   32.3140   28.8920   34.8940 H   0  0  0  0  0  0  0  0  0  0  0  0
   31.5050   29.0300   37.2350 H   0  0  0  0  0  0  0  0  0  0  0  0
   33.0000   29.2370   39.3120 O   0  0  0  0  0  0  0  0  0  0  0  0
   32.3630   29.9740   39.6220 H   0  0  0  0  0  0  0  0  0  0  0  0
  1  2  1  0  0  0  0
  1 10  1  0  0  0  0
  2  6  1  0  0  0  0
  3  7  1  0  0  0  0
  3  2  2  0  0  0  0
  4  5  1  0  0  0  0
  4  3  1  0  0  0  0
  5  1  2  0  0  0  0
  8 14  1  0  0  0  0
  9  8  1  0  0  0  0
  9 15  1  0  0  0  0
 10  9  2  0  0  0  0
 11 12  2  0  0  0  0
 11 10  1  0  0  0  0
 12 13  1  0  0  0  0
 13  8  2  0  0  0  0
 16 12  1  0  0  0  0
 17 16  1  0  0  0  0
 18 19  1  0  0  0  0
 18 17  2  0  0  0  0
 19 24  1  0  0  0  0
 20 19  2  0  0  0  0
 20 21  1  0  0  0  0
 21 22  2  0  0  0  0
 22 23  1  0  0  0  0
 24 16  1  0  0  0  0
 24 23  2  0  0  0  0
 25 26  1  0  0  0  0
 25 20  1  0  0  0  0
 27 25  1  0  0  0  0
 28  4  1  0  0  0  0
 28 29  1  0  0  0  0
 30 28  1  0  0  0  0
 31 33  1  0  0  0  0
 31 28  1  0  0  0  0
 32 31  1  0  0  0  0
 34 31  1  0  0  0  0
 35 34  1  0  0  0  0
 35 44  1  0  0  0  0
 36 35  2  0  0  0  0
 37 38  2  0  0  0  0
 37 36  1  0  0  0  0
 38 43  1  0  0  0  0
 39 40  2  0  0  0  0
 39 38  1  0  0  0  0
 40 41  1  0  0  0  0
 41 49  1  0  0  0  0
 41 42  2  0  0  0  0
 42 50  1  0  0  0  0
 43 42  1  0  0  0  0
 43 34  2  0  0  0  0
 45 36  1  0  0  0  0
 46 37  1  0  0  0  0
 47 39  1  0  0  0  0
 48 40  1  0  0  0  0
 50 51  1  0  0  0  0
M  END
>  <minimizedAffinity>
-6.34862185

>  <minimizedRMSD>
1.11647177

$$$$
