
 OpenBabel03242509263D

 51 56  0  0  0  0  0  0  0  0999 V2000
   38.6350   28.1380   42.7040 C   0  0  0  0  0  0  0  0  0  0  0  0
   37.5560   27.3010   42.8030 C   0  0  0  0  0  0  0  0  0  0  0  0
   36.4840   27.9610   42.1980 C   0  0  0  0  0  0  0  0  0  0  0  0
   36.9970   29.1280   41.7890 N   0  0  0  0  0  0  0  0  0  0  0  0
   38.2550   29.2670   42.0680 N   0  0  0  0  0  0  0  0  0  0  0  0
   37.5300   26.3070   43.2640 H   0  0  0  0  0  0  0  0  0  0  0  0
   35.4940   27.5290   42.1320 H   0  0  0  0  0  0  0  0  0  0  0  0
   41.5900   26.4690   44.2400 C   0  0  0  0  0  0  0  0  0  0  0  0
   40.2800   26.6480   43.7870 C   0  0  0  0  0  0  0  0  0  0  0  0
   39.9760   27.8920   43.1900 C   0  0  0  0  0  0  0  0  0  0  0  0
   40.9340   28.8470   43.0760 N   0  0  0  0  0  0  0  0  0  0  0  0
   42.2010   28.5940   43.5470 C   0  0  0  0  0  0  0  0  0  0  0  0
   42.5120   27.4250   44.1160 N   0  0  0  0  0  0  0  0  0  0  0  0
   41.8940   25.5330   44.7110 H   0  0  0  0  0  0  0  0  0  0  0  0
   39.5400   25.8660   43.8930 H   0  0  0  0  0  0  0  0  0  0  0  0
   43.0630   29.7250   43.3330 N   0  0  0  0  0  0  0  0  0  0  0  0
   42.9590   31.0120   43.7410 C   0  0  0  0  0  3  0  0  0  0  0  0
   44.0180   31.7020   43.2920 N   0  0  0  0  0  0  0  0  0  0  0  0
   44.8190   30.8800   42.5900 C   0  0  0  0  0  0  0  0  0  0  0  0
   46.0230   30.9980   41.9000 C   0  0  0  0  0  0  0  0  0  0  0  0
   46.5940   29.9590   41.2780 N   0  0  0  0  0  0  0  0  0  0  0  0
   45.9780   28.7550   41.3250 C   0  0  0  0  0  3  0  0  0  0  0  0
   44.8060   28.5860   41.9820 N   0  0  0  0  0  0  0  0  0  0  0  0
   44.2140   29.6290   42.6180 C   0  0  0  0  0  0  0  0  0  0  0  0
   46.6590   32.2650   41.8590 N   0  0  0  0  0  0  0  0  0  0  0  0
   46.3370   32.7360   40.9860 H   0  0  0  0  0  0  0  0  0  0  0  0
   47.2080   32.1980   42.7580 H   0  0  0  0  0  0  0  0  0  0  0  0
   36.1580   30.0640   41.1240 C   0  0  0  0  0  0  0  0  0  0  0  0
   35.5770   30.5880   41.9190 H   0  0  0  0  0  0  0  0  0  0  0  0
   36.7680   30.8570   40.6400 H   0  0  0  0  0  0  0  0  0  0  0  0
   35.2700   29.4960   40.0630 C   0  0  0  0  0  0  0  0  0  0  0  0
   34.5600   30.3840   39.9400 H   0  0  0  0  0  0  0  0  0  0  0  0
   34.7980   28.5970   40.4280 H   0  0  0  0  0  0  0  0  0  0  0  0
   35.8840   29.4120   38.7180 C   0  0  0  0  0  0  0  0  0  0  0  0
   37.2060   29.5440   38.3960 C   0  0  0  0  0  0  0  0  0  0  0  0
   37.7250   29.5300   37.1310 C   0  0  0  0  0  0  0  0  0  0  0  0
   36.8850   29.3760   36.0630 C   0  0  0  0  0  0  0  0  0  0  0  0
   35.5360   29.2360   36.3140 C   0  0  0  0  0  0  0  0  0  0  0  0
   34.7320   29.0920   35.2060 C   0  0  0  0  0  0  0  0  0  0  0  0
   33.3870   28.9510   35.3500 C   0  0  0  0  0  0  0  0  0  0  0  0
   32.8400   28.9500   36.6150 C   0  0  0  0  0  0  0  0  0  0  0  0
   33.6840   29.0950   37.6830 C   0  0  0  0  0  0  0  0  0  0  0  0
   35.0280   29.2480   37.6130 C   0  0  0  0  0  0  0  0  0  0  0  0
   37.8730   29.6670   39.2490 H   0  0  0  0  0  0  0  0  0  0  0  0
   38.7910   29.6460   37.0320 H   0  0  0  0  0  0  0  0  0  0  0  0
   37.2790   29.3660   35.0540 H   0  0  0  0  0  0  0  0  0  0  0  0
   35.1540   29.0890   34.1950 H   0  0  0  0  0  0  0  0  0  0  0  0
   32.7680   28.8420   34.4620 H   0  0  0  0  0  0  0  0  0  0  0  0
   31.7700   28.8370   36.7340 H   0  0  0  0  0  0  0  0  0  0  0  0
   33.0800   29.0670   38.9300 O   0  0  0  0  0  0  0  0  0  0  0  0
   32.3700   29.7470   39.2100 H   0  0  0  0  0  0  0  0  0  0  0  0
  1  2  1  0  0  0  0
  1 10  1  0  0  0  0
  2  6  1  0  0  0  0
  3  2  2  0  0  0  0
  4  5  1  0  0  0  0
  4  3  1  0  0  0  0
  5  1  2  0  0  0  0
  7  3  1  0  0  0  0
  8 14  1  0  0  0  0
  9 15  1  0  0  0  0
  9  8  2  0  0  0  0
 10  9  1  0  0  0  0
 11 10  2  0  0  0  0
 11 12  1  0  0  0  0
 12 13  2  0  0  0  0
 13  8  1  0  0  0  0
 16 12  1  0  0  0  0
 16 17  1  0  0  0  0
 18 17  2  0  0  0  0
 19 24  1  0  0  0  0
 19 18  1  0  0  0  0
 20 19  2  0  0  0  0
 21 22  2  0  0  0  0
 21 20  1  0  0  0  0
 22 23  1  0  0  0  0
 23 24  2  0  0  0  0
 24 16  1  0  0  0  0
 25 20  1  0  0  0  0
 25 27  1  0  0  0  0
 26 25  1  0  0  0  0
 28  4  1  0  0  0  0
 28 29  1  0  0  0  0
 30 28  1  0  0  0  0
 31 33  1  0  0  0  0
 31 28  1  0  0  0  0
 32 31  1  0  0  0  0
 34 31  1  0  0  0  0
 35 34  1  0  0  0  0
 35 44  1  0  0  0  0
 36 35  2  0  0  0  0
 37 38  2  0  0  0  0
 37 36  1  0  0  0  0
 38 43  1  0  0  0  0
 39 40  2  0  0  0  0
 39 38  1  0  0  0  0
 40 41  1  0  0  0  0
 41 49  1  0  0  0  0
 41 42  2  0  0  0  0
 42 50  1  0  0  0  0
 43 42  1  0  0  0  0
 43 34  2  0  0  0  0
 45 36  1  0  0  0  0
 46 37  1  0  0  0  0
 47 39  1  0  0  0  0
 48 40  1  0  0  0  0
 50 51  1  0  0  0  0
M  END
>  <minimizedAffinity>
-6.41286564

>  <minimizedRMSD>
0.411797345

$$$$
