
 OpenBabel03242509263D

 51 56  0  0  0  0  0  0  0  0999 V2000
   38.7530   28.0690   42.6570 C   0  0  0  0  0  0  0  0  0  0  0  0
   37.6300   27.3350   42.9280 C   0  0  0  0  0  0  0  0  0  0  0  0
   36.5520   28.0430   42.3930 C   0  0  0  0  0  0  0  0  0  0  0  0
   37.1070   29.1340   41.8500 N   0  0  0  0  0  0  0  0  0  0  0  0
   38.3960   29.1830   41.9840 N   0  0  0  0  0  0  0  0  0  0  0  0
   37.5770   26.3780   43.4600 H   0  0  0  0  0  0  0  0  0  0  0  0
   35.5310   27.6950   42.4610 H   0  0  0  0  0  0  0  0  0  0  0  0
   41.6920   26.5180   44.3430 C   0  0  0  0  0  0  0  0  0  0  0  0
   40.3560   26.7930   44.0370 C   0  0  0  0  0  0  0  0  0  0  0  0
   40.1170   27.7410   43.0170 C   0  0  0  0  0  0  0  0  0  0  0  0
   41.1570   28.3380   42.3830 N   0  0  0  0  0  0  0  0  0  0  0  0
   42.4450   28.0150   42.7420 C   0  0  0  0  0  0  0  0  0  0  0  0
   42.6960   27.1220   43.7040 N   0  0  0  0  0  0  0  0  0  0  0  0
   41.9490   25.7980   45.1200 H   0  0  0  0  0  0  0  0  0  0  0  0
   39.5490   26.2980   44.5620 H   0  0  0  0  0  0  0  0  0  0  0  0
   43.3970   28.7530   41.9570 N   0  0  0  0  0  0  0  0  0  0  0  0
   44.2210   28.3580   40.9550 C   0  0  0  0  0  3  0  0  0  0  0  0
   44.9300   29.4120   40.5300 N   0  0  0  0  0  0  0  0  0  0  0  0
   44.5830   30.5000   41.2420 C   0  0  0  0  0  0  0  0  0  0  0  0
   44.9500   31.8430   41.2700 C   0  0  0  0  0  0  0  0  0  0  0  0
   44.4050   32.7140   42.1260 N   0  0  0  0  0  0  0  0  0  0  0  0
   43.4630   32.2720   42.9910 C   0  0  0  0  0  3  0  0  0  0  0  0
   43.0690   30.9770   43.0060 N   0  0  0  0  0  0  0  0  0  0  0  0
   43.6120   30.0800   42.1440 C   0  0  0  0  0  0  0  0  0  0  0  0
   45.9390   32.2920   40.3580 N   0  0  0  0  0  0  0  0  0  0  0  0
   46.8560   32.2330   40.8520 H   0  0  0  0  0  0  0  0  0  0  0  0
   45.3130   32.5060   39.5350 H   0  0  0  0  0  0  0  0  0  0  0  0
   36.2760   30.0950   41.2090 C   0  0  0  0  0  0  0  0  0  0  0  0
   35.7920   30.6860   42.0230 H   0  0  0  0  0  0  0  0  0  0  0  0
   36.8920   30.8280   40.6460 H   0  0  0  0  0  0  0  0  0  0  0  0
   35.2740   29.5420   40.2460 C   0  0  0  0  0  0  0  0  0  0  0  0
   34.6090   30.4660   40.1420 H   0  0  0  0  0  0  0  0  0  0  0  0
   34.7820   28.6880   40.6850 H   0  0  0  0  0  0  0  0  0  0  0  0
   35.7720   29.3700   38.8610 C   0  0  0  0  0  0  0  0  0  0  0  0
   37.0700   29.3950   38.4340 C   0  0  0  0  0  0  0  0  0  0  0  0
   37.4850   29.3030   37.1350 C   0  0  0  0  0  0  0  0  0  0  0  0
   36.5540   29.1780   36.1410 C   0  0  0  0  0  0  0  0  0  0  0  0
   35.2230   29.1450   36.5000 C   0  0  0  0  0  0  0  0  0  0  0  0
   34.3250   29.0250   35.4630 C   0  0  0  0  0  0  0  0  0  0  0  0
   32.9890   28.9890   35.7150 C   0  0  0  0  0  0  0  0  0  0  0  0
   32.5450   29.0680   37.0180 C   0  0  0  0  0  0  0  0  0  0  0  0
   33.4800   29.1840   38.0120 C   0  0  0  0  0  0  0  0  0  0  0  0
   34.8210   29.2350   37.8320 C   0  0  0  0  0  0  0  0  0  0  0  0
   37.8100   29.4960   39.2290 H   0  0  0  0  0  0  0  0  0  0  0  0
   38.5450   29.3370   36.9500 H   0  0  0  0  0  0  0  0  0  0  0  0
   36.8650   29.1060   35.1060 H   0  0  0  0  0  0  0  0  0  0  0  0
   34.6640   28.9590   34.4240 H   0  0  0  0  0  0  0  0  0  0  0  0
   32.2950   28.8970   34.8820 H   0  0  0  0  0  0  0  0  0  0  0  0
   31.4830   29.0370   37.2220 H   0  0  0  0  0  0  0  0  0  0  0  0
   32.9760   29.2400   39.3010 O   0  0  0  0  0  0  0  0  0  0  0  0
   32.3400   29.9790   39.6100 H   0  0  0  0  0  0  0  0  0  0  0  0
  1  2  1  0  0  0  0
  1 10  1  0  0  0  0
  2  6  1  0  0  0  0
  3  7  1  0  0  0  0
  3  2  2  0  0  0  0
  4  5  1  0  0  0  0
  4  3  1  0  0  0  0
  5  1  2  0  0  0  0
  8 14  1  0  0  0  0
  9  8  1  0  0  0  0
  9 15  1  0  0  0  0
 10  9  2  0  0  0  0
 11 12  2  0  0  0  0
 11 10  1  0  0  0  0
 12 13  1  0  0  0  0
 13  8  2  0  0  0  0
 16 24  1  0  0  0  0
 16 12  1  0  0  0  0
 17 16  1  0  0  0  0
 18 17  2  0  0  0  0
 18 19  1  0  0  0  0
 19 20  2  0  0  0  0
 19 24  1  0  0  0  0
 20 21  1  0  0  0  0
 21 22  2  0  0  0  0
 22 23  1  0  0  0  0
 24 23  2  0  0  0  0
 25 26  1  0  0  0  0
 25 20  1  0  0  0  0
 27 25  1  0  0  0  0
 28  4  1  0  0  0  0
 28 29  1  0  0  0  0
 30 28  1  0  0  0  0
 31 33  1  0  0  0  0
 31 28  1  0  0  0  0
 32 31  1  0  0  0  0
 34 31  1  0  0  0  0
 35 34  1  0  0  0  0
 35 44  1  0  0  0  0
 36 35  2  0  0  0  0
 37 38  2  0  0  0  0
 37 36  1  0  0  0  0
 38 43  1  0  0  0  0
 39 40  2  0  0  0  0
 39 38  1  0  0  0  0
 40 41  1  0  0  0  0
 41 49  1  0  0  0  0
 41 42  2  0  0  0  0
 42 50  1  0  0  0  0
 43 42  1  0  0  0  0
 43 34  2  0  0  0  0
 45 36  1  0  0  0  0
 46 37  1  0  0  0  0
 47 39  1  0  0  0  0
 48 40  1  0  0  0  0
 50 51  1  0  0  0  0
M  END
>  <minimizedAffinity>
-6.29274368

>  <minimizedRMSD>
1.14996207

$$$$
