
     RDKit          3D

 53 58  0  0  0  0  0  0  0  0999 V2000
   35.2848   29.4955   40.0753 C   0  0  0  0  0  0  0  0  0  0  0  0
   35.8910   29.4236   38.7247 C   0  0  0  0  0  0  0  0  0  0  0  0
   37.2076   29.5835   38.3939 C   0  0  0  0  0  0  0  0  0  0  0  0
   37.7176   29.5825   37.1264 C   0  0  0  0  0  0  0  0  0  0  0  0
   36.8744   29.4106   36.0626 C   0  0  0  0  0  0  0  0  0  0  0  0
   35.5297   29.2419   36.3235 C   0  0  0  0  0  0  0  0  0  0  0  0
   34.7208   29.0822   35.2212 C   0  0  0  0  0  0  0  0  0  0  0  0
   33.3799   28.9129   35.3748 C   0  0  0  0  0  0  0  0  0  0  0  0
   32.8422   28.9000   36.6440 C   0  0  0  0  0  0  0  0  0  0  0  0
   33.6909   29.0625   37.7061 C   0  0  0  0  0  0  0  0  0  0  0  0
   35.0309   29.2429   37.6256 C   0  0  0  0  0  0  0  0  0  0  0  0
   33.0958   29.0211   38.9572 O   0  0  0  0  0  0  0  0  0  0  0  0
   36.1712   30.0753   41.1312 C   0  0  0  0  0  0  0  0  0  0  0  0
   38.6514   28.1579   42.7172 C   0  0  0  0  0  0  0  0  0  0  0  0
   37.5609   27.3440   42.8684 C   0  0  0  0  0  0  0  0  0  0  0  0
   36.4862   28.0024   42.2675 C   0  0  0  0  0  0  0  0  0  0  0  0
   37.0090   29.1456   41.8084 N   0  0  0  0  0  0  0  0  0  0  0  0
   38.2758   29.2720   42.0531 N   0  0  0  0  0  0  0  0  0  0  0  0
   41.5836   26.5510   44.3594 C   0  0  0  0  0  0  0  0  0  0  0  0
   40.2648   26.7419   43.9371 C   0  0  0  0  0  0  0  0  0  0  0  0
   39.9987   27.9053   43.1796 C   0  0  0  0  0  0  0  0  0  0  0  0
   40.9994   28.7756   42.8933 N   0  0  0  0  0  0  0  0  0  0  0  0
   42.2719   28.5181   43.3447 C   0  0  0  0  0  0  0  0  0  0  0  0
   42.5485   27.4246   44.0629 N   0  0  0  0  0  0  0  0  0  0  0  0
   34.5599   30.3709   39.9587 H   0  0  0  0  0  0  0  0  0  0  0  0
   34.8301   28.5865   40.4414 H   0  0  0  0  0  0  0  0  0  0  0  0
   37.8776   29.7211   39.2429 H   0  0  0  0  0  0  0  0  0  0  0  0
   38.7802   29.7196   37.0186 H   0  0  0  0  0  0  0  0  0  0  0  0
   37.2612   29.4088   35.0521 H   0  0  0  0  0  0  0  0  0  0  0  0
   35.1357   29.0880   34.2079 H   0  0  0  0  0  0  0  0  0  0  0  0
   32.7570   28.7908   34.4909 H   0  0  0  0  0  0  0  0  0  0  0  0
   31.7761   28.7635   36.7704 H   0  0  0  0  0  0  0  0  0  0  0  0
   32.3736   29.6865   39.2433 H   0  0  0  0  0  0  0  0  0  0  0  0
   35.5881   30.6067   41.9199 H   0  0  0  0  0  0  0  0  0  0  0  0
   36.7805   30.8627   40.6399 H   0  0  0  0  0  0  0  0  0  0  0  0
   37.5285   26.3663   43.3625 H   0  0  0  0  0  0  0  0  0  0  0  0
   35.4883   27.5863   42.2370 H   0  0  0  0  0  0  0  0  0  0  0  0
   41.8599   25.6751   44.9474 H   0  0  0  0  0  0  0  0  0  0  0  0
   39.4906   26.0270   44.1834 H   0  0  0  0  0  0  0  0  0  0  0  0
   43.1815   29.5546   42.9379 N   0  0  0  0  0  0  0  0  0  0  0  0
   43.0457   30.9027   42.9230 C   0  0  0  0  0  0  0  0  0  0  0  0
   44.1747   31.4528   42.4550 N   0  0  0  0  0  0  0  0  0  0  0  0
   45.0560   30.4791   42.1604 C   0  0  0  0  0  0  0  0  0  0  0  0
   46.3529   30.4156   41.6577 C   0  0  0  0  0  0  0  0  0  0  0  0
   47.0147   31.6281   41.3387 N   0  0  0  0  0  0  0  0  0  0  0  0
   46.9886   29.2532   41.4683 N   0  0  0  0  0  0  0  0  0  0  0  0
   46.3457   28.1031   41.7768 C   0  0  0  0  0  0  0  0  0  0  0  0
   45.0842   28.1086   42.2686 N   0  0  0  0  0  0  0  0  0  0  0  0
   44.4254   29.2792   42.4666 C   0  0  0  0  0  0  0  0  0  0  0  0
   42.1338   31.3823   43.2546 H   0  0  0  0  0  0  0  0  0  0  0  0
   46.8409   31.8105   40.3260 H   0  0  0  0  0  0  0  0  0  0  0  0
   47.4192   31.8461   42.2893 H   0  0  0  0  0  0  0  0  0  0  0  0
   46.7035   27.0765   41.6889 H   0  0  0  0  0  0  0  0  0  0  0  0
  1 13  1  0
  2  1  1  0
  3  2  2  0
  4  3  1  0
  5  6  1  0
  5  4  2  0
  6 11  2  0
  7  8  2  0
  7  6  1  0
  8  9  1  0
  9 10  2  0
 10 12  1  0
 11 10  1  0
 11  2  1  0
 13 17  1  0
 14 15  1  0
 14 21  1  0
 16 15  2  0
 17 18  1  0
 17 16  1  0
 18 14  2  0
 20 19  2  0
 21 20  1  0
 22 21  2  0
 22 23  1  0
 23 24  2  0
 24 19  1  0
  1 25  1  0
  1 26  1  0
  3 27  1  0
  4 28  1  0
  5 29  1  0
  7 30  1  0
  8 31  1  0
  9 32  1  0
 12 33  1  0
 13 34  1  0
 13 35  1  0
 15 36  1  0
 16 37  1  0
 19 38  1  0
 20 39  1  0
 40 41  1  0
 41 42  2  0
 42 43  1  0
 43 44  2  0
 44 45  1  0
 44 46  1  0
 46 47  2  0
 47 48  1  0
 48 49  2  0
 49 40  1  0
 49 43  1  0
 41 50  1  0
 45 51  1  0
 45 52  1  0
 47 53  1  0
 23 40  1  0
M  ISO  8  25   8  26   8  27  14  28  14  29  14  30  14  31  14  32  14
M  ISO  7  33   3  34   8  35   8  36  14  37  14  38  14  39  14
M  END
>  <DihAtoms>  (1) 
21,22,39,40

>  <DihDeg>  (1) 
-122.34301463321924

$$$$
