
 OpenBabel03242509263D

 51 56  0  0  0  0  0  0  0  0999 V2000
   38.4800   28.0880   42.6900 C   0  0  0  0  0  0  0  0  0  0  0  0
   37.4070   27.2650   42.9040 C   0  0  0  0  0  0  0  0  0  0  0  0
   36.3110   27.8710   42.2860 C   0  0  0  0  0  0  0  0  0  0  0  0
   36.8060   28.9970   41.7570 N   0  0  0  0  0  0  0  0  0  0  0  0
   38.0740   29.1580   41.9730 N   0  0  0  0  0  0  0  0  0  0  0  0
   37.4010   26.3150   43.4510 H   0  0  0  0  0  0  0  0  0  0  0  0
   35.3200   27.4370   42.2960 H   0  0  0  0  0  0  0  0  0  0  0  0
   41.4900   26.5660   44.2720 C   0  0  0  0  0  0  0  0  0  0  0  0
   40.1630   26.7090   43.8580 C   0  0  0  0  0  0  0  0  0  0  0  0
   39.8390   27.8840   43.1430 C   0  0  0  0  0  0  0  0  0  0  0  0
   40.7960   28.8120   42.8880 N   0  0  0  0  0  0  0  0  0  0  0  0
   42.0810   28.5990   43.3300 C   0  0  0  0  0  0  0  0  0  0  0  0
   42.4100   27.4960   44.0080 N   0  0  0  0  0  0  0  0  0  0  0  0
   41.8090   25.6840   44.8280 H   0  0  0  0  0  0  0  0  0  0  0  0
   39.4240   25.9490   44.0780 H   0  0  0  0  0  0  0  0  0  0  0  0
   42.9380   29.6930   42.9600 N   0  0  0  0  0  0  0  0  0  0  0  0
   44.1560   30.0650   43.4240 C   0  0  0  0  0  3  0  0  0  0  0  0
   44.5610   31.1600   42.7650 N   0  0  0  0  0  0  0  0  0  0  0  0
   43.6220   31.5130   41.8680 C   0  0  0  0  0  0  0  0  0  0  0  0
   43.4650   32.5230   40.9230 C   0  0  0  0  0  0  0  0  0  0  0  0
   42.3760   32.6150   40.1510 N   0  0  0  0  0  0  0  0  0  0  0  0
   41.3950   31.6920   40.2990 C   0  0  0  0  0  3  0  0  0  0  0  0
   41.4980   30.6910   41.2040 N   0  0  0  0  0  0  0  0  0  0  0  0
   42.5960   30.5840   41.9940 C   0  0  0  0  0  0  0  0  0  0  0  0
   44.5000   33.4810   40.7790 N   0  0  0  0  0  0  0  0  0  0  0  0
   44.2520   34.2880   41.3930 H   0  0  0  0  0  0  0  0  0  0  0  0
   45.1060   32.9620   40.0880 H   0  0  0  0  0  0  0  0  0  0  0  0
   35.9410   29.8740   41.0450 C   0  0  0  0  0  0  0  0  0  0  0  0
   35.2980   30.3720   41.8090 H   0  0  0  0  0  0  0  0  0  0  0  0
   36.5210   30.6950   40.5740 H   0  0  0  0  0  0  0  0  0  0  0  0
   35.1310   29.2400   39.9590 C   0  0  0  0  0  0  0  0  0  0  0  0
   34.3530   30.0660   39.8200 H   0  0  0  0  0  0  0  0  0  0  0  0
   34.7260   28.3020   40.3080 H   0  0  0  0  0  0  0  0  0  0  0  0
   35.7850   29.2150   38.6300 C   0  0  0  0  0  0  0  0  0  0  0  0
   37.1230   29.2900   38.3590 C   0  0  0  0  0  0  0  0  0  0  0  0
   37.6840   29.3360   37.1130 C   0  0  0  0  0  0  0  0  0  0  0  0
   36.8740   29.3100   36.0110 C   0  0  0  0  0  0  0  0  0  0  0  0
   35.5110   29.2330   36.2110 C   0  0  0  0  0  0  0  0  0  0  0  0
   34.7390   29.2180   35.0710 C   0  0  0  0  0  0  0  0  0  0  0  0
   33.3830   29.1480   35.1640 C   0  0  0  0  0  0  0  0  0  0  0  0
   32.7940   29.0890   36.4080 C   0  0  0  0  0  0  0  0  0  0  0  0
   33.6080   29.1060   37.5090 C   0  0  0  0  0  0  0  0  0  0  0  0
   34.9600   29.1830   37.4910 C   0  0  0  0  0  0  0  0  0  0  0  0
   37.7660   29.3120   39.2390 H   0  0  0  0  0  0  0  0  0  0  0  0
   38.7570   29.3950   37.0550 H   0  0  0  0  0  0  0  0  0  0  0  0
   37.3010   29.3480   35.0170 H   0  0  0  0  0  0  0  0  0  0  0  0
   35.1950   29.2610   34.0760 H   0  0  0  0  0  0  0  0  0  0  0  0
   32.7900   29.1400   34.2510 H   0  0  0  0  0  0  0  0  0  0  0  0
   31.7160   29.0320   36.4860 H   0  0  0  0  0  0  0  0  0  0  0  0
   32.9600   29.0260   38.7320 O   0  0  0  0  0  0  0  0  0  0  0  0
   32.2810   29.7260   39.0400 H   0  0  0  0  0  0  0  0  0  0  0  0
  1  2  1  0  0  0  0
  1 10  1  0  0  0  0
  2  6  1  0  0  0  0
  3  7  1  0  0  0  0
  3  2  2  0  0  0  0
  4  5  1  0  0  0  0
  4  3  1  0  0  0  0
  5  1  2  0  0  0  0
  8 14  1  0  0  0  0
  9 15  1  0  0  0  0
  9  8  2  0  0  0  0
 10  9  1  0  0  0  0
 11 10  2  0  0  0  0
 11 12  1  0  0  0  0
 12 13  2  0  0  0  0
 13  8  1  0  0  0  0
 16 12  1  0  0  0  0
 16 17  1  0  0  0  0
 18 17  2  0  0  0  0
 19 24  1  0  0  0  0
 19 18  1  0  0  0  0
 20 19  2  0  0  0  0
 21 22  2  0  0  0  0
 21 20  1  0  0  0  0
 22 23  1  0  0  0  0
 23 24  2  0  0  0  0
 24 16  1  0  0  0  0
 25 20  1  0  0  0  0
 25 26  1  0  0  0  0
 27 25  1  0  0  0  0
 28  4  1  0  0  0  0
 28 29  1  0  0  0  0
 30 28  1  0  0  0  0
 31 33  1  0  0  0  0
 31 28  1  0  0  0  0
 32 31  1  0  0  0  0
 34 31  1  0  0  0  0
 35 34  1  0  0  0  0
 35 44  1  0  0  0  0
 36 35  2  0  0  0  0
 37 38  2  0  0  0  0
 37 36  1  0  0  0  0
 38 43  1  0  0  0  0
 39 40  2  0  0  0  0
 39 38  1  0  0  0  0
 40 41  1  0  0  0  0
 41 49  1  0  0  0  0
 41 42  2  0  0  0  0
 42 50  1  0  0  0  0
 43 42  1  0  0  0  0
 43 34  2  0  0  0  0
 45 36  1  0  0  0  0
 46 37  1  0  0  0  0
 47 39  1  0  0  0  0
 48 40  1  0  0  0  0
 50 51  1  0  0  0  0
M  END
>  <minimizedAffinity>
-6.6332283

>  <minimizedRMSD>
0.288499296

$$$$
