
 OpenBabel03242509253D

 51 56  0  0  0  0  0  0  0  0999 V2000
   38.4490   28.0760   42.6770 C   0  0  0  0  0  0  0  0  0  0  0  0
   37.3730   27.2500   42.8650 C   0  0  0  0  0  0  0  0  0  0  0  0
   36.2850   27.8650   42.2420 C   0  0  0  0  0  0  0  0  0  0  0  0
   36.7870   28.9980   41.7350 N   0  0  0  0  0  0  0  0  0  0  0  0
   38.0520   29.1550   41.9700 N   0  0  0  0  0  0  0  0  0  0  0  0
   37.3600   26.2920   43.3980 H   0  0  0  0  0  0  0  0  0  0  0  0
   35.2940   27.4310   42.2340 H   0  0  0  0  0  0  0  0  0  0  0  0
   41.4340   26.5410   44.2930 C   0  0  0  0  0  0  0  0  0  0  0  0
   40.1110   26.6900   43.8650 C   0  0  0  0  0  0  0  0  0  0  0  0
   39.8020   27.8650   43.1440 C   0  0  0  0  0  0  0  0  0  0  0  0
   40.7670   28.7860   42.8950 N   0  0  0  0  0  0  0  0  0  0  0  0
   42.0460   28.5670   43.3500 C   0  0  0  0  0  0  0  0  0  0  0  0
   42.3620   27.4640   44.0350 N   0  0  0  0  0  0  0  0  0  0  0  0
   41.7420   25.6580   44.8550 H   0  0  0  0  0  0  0  0  0  0  0  0
   39.3670   25.9350   44.0810 H   0  0  0  0  0  0  0  0  0  0  0  0
   42.9130   29.6550   42.9860 N   0  0  0  0  0  0  0  0  0  0  0  0
   43.6110   30.5310   43.7480 C   0  0  0  0  0  3  0  0  0  0  0  0
   44.2830   31.3700   42.9490 N   0  0  0  0  0  0  0  0  0  0  0  0
   44.0370   31.0560   41.6640 C   0  0  0  0  0  0  0  0  0  0  0  0
   44.4260   31.5400   40.4170 C   0  0  0  0  0  0  0  0  0  0  0  0
   43.9960   30.9950   39.2740 N   0  0  0  0  0  0  0  0  0  0  0  0
   43.1520   29.9390   39.3350 C   0  0  0  0  0  3  0  0  0  0  0  0
   42.7420   29.4290   40.5200 N   0  0  0  0  0  0  0  0  0  0  0  0
   43.1690   29.9700   41.6890 C   0  0  0  0  0  0  0  0  0  0  0  0
   45.3100   32.6470   40.3690 N   0  0  0  0  0  0  0  0  0  0  0  0
   44.7180   33.5040   40.2980 H   0  0  0  0  0  0  0  0  0  0  0  0
   46.2260   32.1260   40.4260 H   0  0  0  0  0  0  0  0  0  0  0  0
   35.9300   29.8840   41.0250 C   0  0  0  0  0  0  0  0  0  0  0  0
   35.2940   30.3890   41.7900 H   0  0  0  0  0  0  0  0  0  0  0  0
   36.5190   30.7000   40.5540 H   0  0  0  0  0  0  0  0  0  0  0  0
   35.1130   29.2610   39.9390 C   0  0  0  0  0  0  0  0  0  0  0  0
   34.3450   30.0960   39.8010 H   0  0  0  0  0  0  0  0  0  0  0  0
   34.6970   28.3270   40.2880 H   0  0  0  0  0  0  0  0  0  0  0  0
   35.7660   29.2290   38.6100 C   0  0  0  0  0  0  0  0  0  0  0  0
   37.1030   29.3060   38.3370 C   0  0  0  0  0  0  0  0  0  0  0  0
   37.6620   29.3450   37.0900 C   0  0  0  0  0  0  0  0  0  0  0  0
   36.8510   29.3080   35.9890 C   0  0  0  0  0  0  0  0  0  0  0  0
   35.4890   29.2290   36.1910 C   0  0  0  0  0  0  0  0  0  0  0  0
   34.7150   29.2030   35.0520 C   0  0  0  0  0  0  0  0  0  0  0  0
   33.3600   29.1300   35.1470 C   0  0  0  0  0  0  0  0  0  0  0  0
   32.7720   29.0780   36.3920 C   0  0  0  0  0  0  0  0  0  0  0  0
   33.5870   29.1050   37.4920 C   0  0  0  0  0  0  0  0  0  0  0  0
   34.9390   29.1860   37.4710 C   0  0  0  0  0  0  0  0  0  0  0  0
   37.7470   29.3360   39.2160 H   0  0  0  0  0  0  0  0  0  0  0  0
   38.7350   29.4060   37.0300 H   0  0  0  0  0  0  0  0  0  0  0  0
   37.2770   29.3410   34.9940 H   0  0  0  0  0  0  0  0  0  0  0  0
   35.1700   29.2410   34.0560 H   0  0  0  0  0  0  0  0  0  0  0  0
   32.7660   29.1140   34.2350 H   0  0  0  0  0  0  0  0  0  0  0  0
   31.6950   29.0180   36.4710 H   0  0  0  0  0  0  0  0  0  0  0  0
   32.9410   29.0310   38.7160 O   0  0  0  0  0  0  0  0  0  0  0  0
   32.2610   29.7310   39.0200 H   0  0  0  0  0  0  0  0  0  0  0  0
  1  2  1  0  0  0  0
  1 10  1  0  0  0  0
  2  6  1  0  0  0  0
  3  2  2  0  0  0  0
  4  5  1  0  0  0  0
  4  3  1  0  0  0  0
  5  1  2  0  0  0  0
  7  3  1  0  0  0  0
  8 14  1  0  0  0  0
  9 15  1  0  0  0  0
  9  8  2  0  0  0  0
 10  9  1  0  0  0  0
 11 10  2  0  0  0  0
 11 12  1  0  0  0  0
 12 13  2  0  0  0  0
 13  8  1  0  0  0  0
 16 12  1  0  0  0  0
 16 17  1  0  0  0  0
 18 17  2  0  0  0  0
 19 24  1  0  0  0  0
 19 18  1  0  0  0  0
 20 19  2  0  0  0  0
 21 22  2  0  0  0  0
 21 20  1  0  0  0  0
 22 23  1  0  0  0  0
 23 24  2  0  0  0  0
 24 16  1  0  0  0  0
 25 20  1  0  0  0  0
 25 27  1  0  0  0  0
 26 25  1  0  0  0  0
 28  4  1  0  0  0  0
 28 29  1  0  0  0  0
 30 28  1  0  0  0  0
 31 33  1  0  0  0  0
 31 28  1  0  0  0  0
 32 31  1  0  0  0  0
 34 31  1  0  0  0  0
 35 34  1  0  0  0  0
 35 44  1  0  0  0  0
 36 35  2  0  0  0  0
 37 38  2  0  0  0  0
 37 36  1  0  0  0  0
 38 43  1  0  0  0  0
 39 40  2  0  0  0  0
 39 38  1  0  0  0  0
 40 41  1  0  0  0  0
 41 49  1  0  0  0  0
 41 42  2  0  0  0  0
 42 50  1  0  0  0  0
 43 42  1  0  0  0  0
 43 34  2  0  0  0  0
 45 36  1  0  0  0  0
 46 37  1  0  0  0  0
 47 39  1  0  0  0  0
 48 40  1  0  0  0  0
 50 51  1  0  0  0  0
M  END
>  <minimizedAffinity>
-6.5000639

>  <minimizedRMSD>
0.287913948

$$$$
