
 OpenBabel03242508193D

 34 38  0  0  0  0  0  0  0  0999 V2000
   38.0970   27.8070   43.6610 C   0  0  0  0  0  0  0  0  0  0  0  0
   38.4740   26.7990   42.7670 C   0  0  0  0  0  0  0  0  0  0  0  0
   38.6860   27.1610   41.4330 C   0  0  0  0  0  0  0  0  0  0  0  0
   38.5120   28.4610   41.1000 N   0  0  0  0  0  0  0  0  0  0  0  0
   38.1470   29.4200   41.9790 C   0  0  0  0  0  0  0  0  0  0  0  0
   37.9380   29.0830   43.2810 N   0  0  0  0  0  0  0  0  0  0  0  0
   38.0360   30.6920   41.3730 N   0  0  0  0  0  0  0  0  0  0  0  0
   36.8340   31.1340   40.8860 C   0  0  0  0  0  0  0  0  0  0  0  0
   36.9760   32.3670   40.3580 N   0  0  0  0  0  0  0  0  0  0  0  0
   38.2670   32.7180   40.5060 C   0  0  0  0  0  0  0  0  0  0  0  0
   39.0120   33.8410   40.1720 C   0  0  0  0  0  0  0  0  0  0  0  0
   40.3370   33.8610   40.4790 N   0  0  0  0  0  0  0  0  0  0  0  0
   40.9250   32.8270   41.0900 C   0  0  0  0  0  0  0  0  0  0  0  0
   40.2230   31.7120   41.4300 N   0  0  0  0  0  0  0  0  0  0  0  0
   38.8990   31.6700   41.1340 C   0  0  0  0  0  0  0  0  0  0  0  0
   38.2770   34.8650   39.5310 N   0  0  0  0  0  0  0  0  0  0  0  0
   37.9150   27.6040   44.7110 H   0  0  0  0  0  0  0  0  0  0  0  0
   38.5930   25.7770   43.1130 H   0  0  0  0  0  0  0  0  0  0  0  0
   38.9780   26.4160   40.7070 H   0  0  0  0  0  0  0  0  0  0  0  0
   35.8430   30.6840   40.8550 H   0  0  0  0  0  0  0  0  0  0  0  0
   38.2300   34.7200   38.5160 H   0  0  0  0  0  0  0  0  0  0  0  0
   37.8260   35.6870   40.0170 H   0  0  0  0  0  0  0  0  0  0  0  0
   42.3150   32.9750   41.3540 N   0  0  0  0  0  0  0  0  0  0  0  0
   43.1420   31.9070   41.1540 C   0  0  0  0  0  0  0  0  0  0  0  0
   44.4110   32.2110   41.4480 N   0  0  0  0  0  0  0  0  0  0  0  0
   44.4270   33.4980   41.8480 C   0  0  0  0  0  0  0  0  0  0  0  0
   45.3670   34.4310   42.2850 C   0  0  0  0  0  0  0  0  0  0  0  0
   44.9800   35.6770   42.6090 N   0  0  0  0  0  0  0  0  0  0  0  0
   43.6820   36.0740   42.5270 C   0  0  0  0  0  0  0  0  0  0  0  0
   42.7290   35.1940   42.1050 N   0  0  0  0  0  0  0  0  0  0  0  0
   43.1310   33.9390   41.7810 C   0  0  0  0  0  0  0  0  0  0  0  0
   46.7160   33.9770   42.3570 N   0  0  0  0  0  0  0  0  0  0  0  0
   47.2980   33.6510   43.1610 H   0  0  0  0  0  0  0  0  0  0  0  0
   47.2250   33.9670   41.4230 H   0  0  0  0  0  0  0  0  0  0  0  0
  1 17  1  0  0  0  0
  2 18  1  0  0  0  0
  2  1  2  0  0  0  0
  3  2  1  0  0  0  0
  4  3  2  0  0  0  0
  4  5  1  0  0  0  0
  5  6  2  0  0  0  0
  6  1  1  0  0  0  0
  7  5  1  0  0  0  0
  8  7  1  0  0  0  0
  9 10  1  0  0  0  0
  9  8  2  0  0  0  0
 10 15  1  0  0  0  0
 11 12  1  0  0  0  0
 11 10  2  0  0  0  0
 12 13  2  0  0  0  0
 13 23  1  0  0  0  0
 13 14  1  0  0  0  0
 15  7  1  0  0  0  0
 15 14  2  0  0  0  0
 16 22  1  0  0  0  0
 16 11  1  0  0  0  0
 19  3  1  0  0  0  0
 20  8  1  0  0  0  0
 21 16  1  0  0  0  0
 23 31  1  0  0  0  0
 24 23  1  0  0  0  0
 24 25  2  0  0  0  0
 25 26  1  0  0  0  0
 26 27  1  0  0  0  0
 27 32  1  0  0  0  0
 27 28  2  0  0  0  0
 29 28  1  0  0  0  0
 30 29  2  0  0  0  0
 31 26  2  0  0  0  0
 31 30  1  0  0  0  0
 32 33  1  0  0  0  0
 34 32  1  0  0  0  0
M  END
>  <minimizedAffinity>
-7.41712618

>  <minimizedRMSD>
1.90253127

$$$$
