
 OpenBabel03242509263D

 51 56  0  0  0  0  0  0  0  0999 V2000
   38.6900   28.0990   42.6550 C   0  0  0  0  0  0  0  0  0  0  0  0
   37.5870   27.3060   42.8260 C   0  0  0  0  0  0  0  0  0  0  0  0
   36.5120   27.9930   42.2570 C   0  0  0  0  0  0  0  0  0  0  0  0
   37.0480   29.1300   41.7960 N   0  0  0  0  0  0  0  0  0  0  0  0
   38.3230   29.2260   42.0100 N   0  0  0  0  0  0  0  0  0  0  0  0
   37.5460   26.3250   43.3110 H   0  0  0  0  0  0  0  0  0  0  0  0
   35.5050   27.5980   42.2480 H   0  0  0  0  0  0  0  0  0  0  0  0
   41.5970   26.5500   44.3950 C   0  0  0  0  0  0  0  0  0  0  0  0
   40.2710   26.7790   44.0180 C   0  0  0  0  0  0  0  0  0  0  0  0
   40.0430   27.8130   43.0820 C   0  0  0  0  0  0  0  0  0  0  0  0
   41.0850   28.5310   42.5920 N   0  0  0  0  0  0  0  0  0  0  0  0
   42.3620   28.2450   43.0130 C   0  0  0  0  0  0  0  0  0  0  0  0
   42.6030   27.2720   43.8970 N   0  0  0  0  0  0  0  0  0  0  0  0
   41.8450   25.7670   45.1130 H   0  0  0  0  0  0  0  0  0  0  0  0
   39.4630   26.1870   44.4280 H   0  0  0  0  0  0  0  0  0  0  0  0
   43.3180   29.1130   42.3800 N   0  0  0  0  0  0  0  0  0  0  0  0
   44.6270   28.9280   42.0820 C   0  0  0  0  0  3  0  0  0  0  0  0
   45.1020   30.0330   41.4890 N   0  0  0  0  0  0  0  0  0  0  0  0
   44.1180   30.9460   41.3920 C   0  0  0  0  0  0  0  0  0  0  0  0
   43.9920   32.2390   40.8920 C   0  0  0  0  0  0  0  0  0  0  0  0
   42.8370   32.9130   40.9430 N   0  0  0  0  0  0  0  0  0  0  0  0
   41.7590   32.3160   41.4980 C   0  0  0  0  0  3  0  0  0  0  0  0
   41.8270   31.0600   42.0000 N   0  0  0  0  0  0  0  0  0  0  0  0
   42.9910   30.3610   41.9560 C   0  0  0  0  0  0  0  0  0  0  0  0
   45.1300   32.8540   40.3120 N   0  0  0  0  0  0  0  0  0  0  0  0
   45.5970   33.4020   41.0680 H   0  0  0  0  0  0  0  0  0  0  0  0
   45.0270   32.4880   39.3270 H   0  0  0  0  0  0  0  0  0  0  0  0
   36.2130   30.0820   41.1480 C   0  0  0  0  0  0  0  0  0  0  0  0
   35.6470   30.6060   41.9550 H   0  0  0  0  0  0  0  0  0  0  0  0
   36.8270   30.8720   40.6650 H   0  0  0  0  0  0  0  0  0  0  0  0
   35.3060   29.5350   40.0920 C   0  0  0  0  0  0  0  0  0  0  0  0
   34.6110   30.4350   39.9800 H   0  0  0  0  0  0  0  0  0  0  0  0
   34.8220   28.6410   40.4570 H   0  0  0  0  0  0  0  0  0  0  0  0
   35.9070   29.4480   38.7410 C   0  0  0  0  0  0  0  0  0  0  0  0
   37.2240   29.5940   38.4040 C   0  0  0  0  0  0  0  0  0  0  0  0
   37.7300   29.5780   37.1350 C   0  0  0  0  0  0  0  0  0  0  0  0
   36.8810   29.4040   36.0760 C   0  0  0  0  0  0  0  0  0  0  0  0
   35.5370   29.2480   36.3430 C   0  0  0  0  0  0  0  0  0  0  0  0
   34.7230   29.0850   35.2440 C   0  0  0  0  0  0  0  0  0  0  0  0
   33.3810   28.9280   35.4040 C   0  0  0  0  0  0  0  0  0  0  0  0
   32.8470   28.9300   36.6750 C   0  0  0  0  0  0  0  0  0  0  0  0
   33.7010   29.0940   37.7330 C   0  0  0  0  0  0  0  0  0  0  0  0
   35.0420   29.2640   37.6470 C   0  0  0  0  0  0  0  0  0  0  0  0
   37.8980   29.7330   39.2500 H   0  0  0  0  0  0  0  0  0  0  0  0
   38.7930   29.7060   37.0230 H   0  0  0  0  0  0  0  0  0  0  0  0
   37.2650   29.3910   35.0640 H   0  0  0  0  0  0  0  0  0  0  0  0
   35.1340   29.0790   34.2300 H   0  0  0  0  0  0  0  0  0  0  0  0
   32.7540   28.8040   34.5230 H   0  0  0  0  0  0  0  0  0  0  0  0
   31.7810   28.8040   36.8050 H   0  0  0  0  0  0  0  0  0  0  0  0
   33.1100   29.0690   38.9860 O   0  0  0  0  0  0  0  0  0  0  0  0
   32.3940   29.7420   39.2690 H   0  0  0  0  0  0  0  0  0  0  0  0
  1  2  1  0  0  0  0
  1 10  1  0  0  0  0
  2  6  1  0  0  0  0
  3  2  2  0  0  0  0
  4  5  1  0  0  0  0
  4  3  1  0  0  0  0
  5  1  2  0  0  0  0
  7  3  1  0  0  0  0
  8 14  1  0  0  0  0
  9  8  1  0  0  0  0
  9 15  1  0  0  0  0
 10  9  2  0  0  0  0
 11 12  2  0  0  0  0
 11 10  1  0  0  0  0
 12 13  1  0  0  0  0
 13  8  2  0  0  0  0
 16 12  1  0  0  0  0
 17 16  1  0  0  0  0
 18 17  2  0  0  0  0
 19 18  1  0  0  0  0
 19 24  1  0  0  0  0
 20 21  1  0  0  0  0
 20 19  2  0  0  0  0
 21 22  2  0  0  0  0
 22 23  1  0  0  0  0
 24 23  2  0  0  0  0
 24 16  1  0  0  0  0
 25 20  1  0  0  0  0
 25 26  1  0  0  0  0
 27 25  1  0  0  0  0
 28  4  1  0  0  0  0
 28 29  1  0  0  0  0
 30 28  1  0  0  0  0
 31 33  1  0  0  0  0
 31 28  1  0  0  0  0
 32 31  1  0  0  0  0
 34 31  1  0  0  0  0
 35 34  1  0  0  0  0
 35 44  1  0  0  0  0
 36 35  2  0  0  0  0
 37 38  2  0  0  0  0
 37 36  1  0  0  0  0
 38 43  1  0  0  0  0
 39 40  2  0  0  0  0
 39 38  1  0  0  0  0
 40 41  1  0  0  0  0
 41 49  1  0  0  0  0
 41 42  2  0  0  0  0
 42 50  1  0  0  0  0
 43 42  1  0  0  0  0
 43 34  2  0  0  0  0
 45 36  1  0  0  0  0
 46 37  1  0  0  0  0
 47 39  1  0  0  0  0
 48 40  1  0  0  0  0
 50 51  1  0  0  0  0
M  END
>  <minimizedAffinity>
-6.55680609

>  <minimizedRMSD>
0.643914402

$$$$
