
     RDKit          3D

 26 28  0  0  0  0  0  0  0  0999 V2000
   37.9688   28.8846   43.3820 C   0  0  0  0  0  0  0  0  0  0  0  0
   38.0801   27.4731   43.3135 C   0  0  0  0  0  0  0  0  0  0  0  0
   37.4350   26.8215   42.2464 C   0  0  0  0  0  0  0  0  0  0  0  0
   36.7390   27.5718   41.3361 N   0  0  0  0  0  0  0  0  0  0  0  0
   36.6643   28.9125   41.4474 C   0  0  0  0  0  0  0  0  0  0  0  0
   37.2688   29.5474   42.4513 N   0  0  0  0  0  0  0  0  0  0  0  0
   37.5295   25.3428   42.1418 C   0  0  0  0  0  0  0  0  0  0  0  0
   37.6424   25.0542   40.8057 F   0  0  0  0  0  0  0  0  0  0  0  0
   38.6285   24.8349   42.7960 F   0  0  0  0  0  0  0  0  0  0  0  0
   36.3895   24.7122   42.6528 F   0  0  0  0  0  0  0  0  0  0  0  0
   38.4696   29.3629   44.2058 H   0  0  0  0  0  0  0  0  0  0  0  0
   38.6499   26.9285   44.0703 H   0  0  0  0  0  0  0  0  0  0  0  0
   35.9561   29.7260   40.5295 N   0  0  0  0  0  0  0  0  0  0  0  0
   35.5708   31.0232   40.5992 C   0  0  0  0  0  0  0  0  0  0  0  0
   34.9107   31.3848   39.4795 N   0  0  0  0  0  0  0  0  0  0  0  0
   34.8665   30.3093   38.6721 C   0  0  0  0  0  0  0  0  0  0  0  0
   34.3261   30.0919   37.4136 C   0  0  0  0  0  0  0  0  0  0  0  0
   33.6723   31.2047   36.8073 N   0  0  0  0  0  0  0  0  0  0  0  0
   34.4019   28.9043   36.7790 N   0  0  0  0  0  0  0  0  0  0  0  0
   35.0422   27.9208   37.4438 C   0  0  0  0  0  0  0  0  0  0  0  0
   35.5914   28.0703   38.6753 N   0  0  0  0  0  0  0  0  0  0  0  0
   35.5224   29.2652   39.3287 C   0  0  0  0  0  0  0  0  0  0  0  0
   35.8121   31.6071   41.4852 H   0  0  0  0  0  0  0  0  0  0  0  0
   34.2335   31.4121   35.9300 H   0  0  0  0  0  0  0  0  0  0  0  0
   32.8330   31.7101   37.1388 H   0  0  0  0  0  0  0  0  0  0  0  0
   35.1069   26.9602   36.9375 H   0  0  0  0  0  0  0  0  0  0  0  0
  2  1  2  0
  3  2  1  0
  4  5  1  0
  4  3  2  0
  5  6  2  0
  6  1  1  0
  7  3  1  0
  7 10  1  0
  7  9  1  0
  8  7  1  0
  1 11  1  0
  2 12  1  0
 13 14  1  0
 14 15  2  0
 15 16  1  0
 16 17  2  0
 17 18  1  0
 17 19  1  0
 19 20  2  0
 20 21  1  0
 21 22  2  0
 22 13  1  0
 22 16  1  0
 14 23  1  0
 18 24  1  0
 18 25  1  0
 20 26  1  0
  5 13  1  0
M  ISO  2  11  14  12  14
M  END
>  <DihAtoms>  (1) 
3,4,12,13

>  <DihDeg>  (1) 
76.52883442273158

$$$$
