
 OpenBabel03242509303D

 24 26  0  0  0  0  0  0  0  0999 V2000
   37.7420   28.7740   43.4900 C   0  0  0  0  0  0  0  0  0  0  0  0
   38.1890   27.4350   43.6260 C   0  0  0  0  0  0  0  0  0  0  0  0
   38.3260   26.6740   42.4510 C   0  0  0  0  0  0  0  0  0  0  0  0
   38.0260   27.2530   41.2470 N   0  0  0  0  0  0  0  0  0  0  0  0
   37.6050   28.5310   41.1730 C   0  0  0  0  0  0  0  0  0  0  0  0
   37.4690   29.2680   42.2750 N   0  0  0  0  0  0  0  0  0  0  0  0
   37.6440   29.3380   44.4010 H   0  0  0  0  0  0  0  0  0  0  0  0
   38.4130   27.0270   44.6150 H   0  0  0  0  0  0  0  0  0  0  0  0
   37.2840   29.1690   39.9500 N   0  0  0  0  0  0  0  0  0  0  0  0
   36.6340   30.3290   39.6930 C   0  0  0  0  0  3  0  0  0  0  0  0
   36.5550   30.5480   38.3640 N   0  0  0  0  0  0  0  0  0  0  0  0
   37.1640   29.5150   37.7500 C   0  0  0  0  0  0  0  0  0  0  0  0
   37.3850   29.2050   36.4170 C   0  0  0  0  0  0  0  0  0  0  0  0
   38.0330   28.0900   36.0220 N   0  0  0  0  0  0  0  0  0  0  0  0
   38.4610   27.2770   37.0090 C   0  0  0  0  0  3  0  0  0  0  0  0
   38.2750   27.5240   38.3300 N   0  0  0  0  0  0  0  0  0  0  0  0
   37.6220   28.6480   38.7440 C   0  0  0  0  0  0  0  0  0  0  0  0
   38.7910   25.2660   42.5550 C   0  0  0  0  0  0  0  0  0  0  0  0
   39.5440   25.0230   41.4340 F   0  0  0  0  0  0  0  0  0  0  0  0
   39.5740   25.0480   43.6660 F   0  0  0  0  0  0  0  0  0  0  0  0
   37.7200   24.3660   42.5920 F   0  0  0  0  0  0  0  0  0  0  0  0
   36.8870   30.1390   35.4600 N   0  0  0  0  0  0  0  0  0  0  0  0
   37.7460   30.5010   34.9520 H   0  0  0  0  0  0  0  0  0  0  0  0
   35.9050   30.4130   35.2880 H   0  0  0  0  0  0  0  0  0  0  0  0
  1  2  1  0  0  0  0
  1  7  1  0  0  0  0
  2  8  1  0  0  0  0
  3 18  1  0  0  0  0
  3  2  2  0  0  0  0
  4  3  1  0  0  0  0
  5  4  2  0  0  0  0
  5  6  1  0  0  0  0
  6  1  2  0  0  0  0
  9  5  1  0  0  0  0
 10  9  1  0  0  0  0
 11 10  2  0  0  0  0
 12 11  1  0  0  0  0
 12 17  1  0  0  0  0
 13 12  2  0  0  0  0
 14 13  1  0  0  0  0
 14 15  2  0  0  0  0
 15 16  1  0  0  0  0
 16 17  2  0  0  0  0
 17  9  1  0  0  0  0
 18 21  1  0  0  0  0
 18 20  1  0  0  0  0
 19 18  1  0  0  0  0
 22 13  1  0  0  0  0
 23 22  1  0  0  0  0
 24 22  1  0  0  0  0
M  END
>  <minimizedAffinity>
-5.06113529

>  <minimizedRMSD>
2.16305161

$$$$
