
 OpenBabel03242508393D

 31 33  0  0  1  0  0  0  0  0999 V2000
   38.4970   28.2620   43.0290 C   0  0  2  0  0  0  0  0  0  0  0  0
   39.8990   28.6340   42.9840 C   0  0  0  0  0  0  0  0  0  0  0  0
   40.6400   27.4240   43.5680 C   0  0  0  0  0  0  0  0  0  0  0  0
   39.5610   26.4070   43.9020 C   0  0  0  0  0  0  0  0  0  0  0  0
   38.4440   26.7870   42.9260 C   0  0  2  0  0  0  0  0  0  0  0  0
   38.0950   28.4890   44.0690 H   0  0  0  0  0  0  0  0  0  0  0  0
   40.3430   28.9990   42.0500 H   0  0  0  0  0  0  0  0  0  0  0  0
   40.0830   29.4720   43.7210 H   0  0  0  0  0  0  0  0  0  0  0  0
   41.3570   27.0580   42.8100 H   0  0  0  0  0  0  0  0  0  0  0  0
   41.1910   27.6660   44.4750 H   0  0  0  0  0  0  0  0  0  0  0  0
   39.2370   26.4620   44.9580 H   0  0  0  0  0  0  0  0  0  0  0  0
   39.9610   25.4190   43.6410 H   0  0  0  0  0  0  0  0  0  0  0  0
   37.4990   26.4480   43.4370 H   0  0  0  0  0  0  0  0  0  0  0  0
   36.3100   28.3990   41.7570 C   0  0  0  0  0  0  0  0  0  0  0  0
   37.5730   28.9280   42.1290 C   0  0  0  0  0  0  0  0  0  0  0  0
   37.9490   30.1810   41.5960 C   0  0  0  0  0  0  0  0  0  0  0  0
   37.0920   30.8010   40.7690 N   0  0  0  0  0  0  0  0  0  0  0  0
   35.8780   30.2760   40.4190 C   0  0  0  0  0  0  0  0  0  0  0  0
   35.5100   29.0600   40.9350 N   0  0  0  0  0  0  0  0  0  0  0  0
   36.0830   27.4390   42.1980 H   0  0  0  0  0  0  0  0  0  0  0  0
   38.8980   30.6370   41.8430 H   0  0  0  0  0  0  0  0  0  0  0  0
   35.2190   30.8100   39.7480 H   0  0  0  0  0  0  0  0  0  0  0  0
   38.5330   26.1390   41.6920 N   0  0  0  0  0  0  0  0  0  0  0  0
   39.3490   26.3490   40.6630 C   0  0  0  0  0  0  0  0  0  0  0  0
   39.3530   25.6440   39.4770 C   0  0  0  0  0  0  0  0  0  0  0  0
   38.4280   24.6200   39.3310 C   0  0  0  0  0  0  0  0  0  0  0  0
   38.3600   23.9270   38.2860 O   0  0  0  0  0  0  0  0  0  0  0  0
   37.6040   24.4140   40.3780 N   0  0  0  0  0  0  0  0  0  0  0  0
   37.6380   25.1190   41.4990 C   0  0  0  0  0  0  0  0  0  0  0  0
   36.7890   24.7900   42.3890 O   0  0  0  0  0  0  0  0  0  0  0  0
   36.9140   23.6300   40.2360 H   0  0  0  0  0  0  0  0  0  0  0  0
  1  6  1  1  0  0  0
  2  1  1  0  0  0  0
  2  3  1  0  0  0  0
  2  8  1  0  0  0  0
  3  4  1  0  0  0  0
  3 10  1  0  0  0  0
  4 11  1  0  0  0  0
  5  1  1  0  0  0  0
  5 13  1  1  0  0  0
  5  4  1  0  0  0  0
  7  2  1  0  0  0  0
  9  3  1  0  0  0  0
 12  4  1  0  0  0  0
 14 15  1  0  0  0  0
 14 20  1  0  0  0  0
 15  1  1  0  0  0  0
 16 21  1  0  0  0  0
 16 15  2  0  0  0  0
 17 16  1  0  0  0  0
 18 17  2  0  0  0  0
 18 19  1  0  0  0  0
 19 14  2  0  0  0  0
 22 18  1  0  0  0  0
 23  5  1  0  0  0  0
 24 23  1  0  0  0  0
 25 24  2  0  0  0  0
 26 25  1  0  0  0  0
 26 28  1  0  0  0  0
 27 26  2  0  0  0  0
 28 29  1  0  0  0  0
 29 23  1  0  0  0  0
 29 30  2  0  0  0  0
 31 28  1  0  0  0  0
M  END
>  <minimizedAffinity>
-4.84579563

>  <minimizedRMSD>
2.23784828

$$$$
