
 OpenBabel03242508503D

 40 43  0  0  1  0  0  0  0  0999 V2000
   39.0250   29.1000   39.6590 C   0  0  2  0  0  0  0  0  0  0  0  0
   40.4060   29.4890   39.6140 C   0  0  0  0  0  0  0  0  0  0  0  0
   40.6060   30.1370   38.2270 C   0  0  0  0  0  0  0  0  0  0  0  0
   39.2090   30.5250   37.7680 C   0  0  0  0  0  0  0  0  0  0  0  0
   38.3040   30.3060   38.9270 C   0  0  1  0  0  0  0  0  0  0  0  0
   38.8100   28.2700   39.0070 H   0  0  0  0  0  0  0  0  0  0  0  0
   40.5810   30.3420   40.3360 H   0  0  0  0  0  0  0  0  0  0  0  0
   41.1730   28.7510   39.8330 H   0  0  0  0  0  0  0  0  0  0  0  0
   41.1270   29.4720   37.5320 H   0  0  0  0  0  0  0  0  0  0  0  0
   41.2080   31.0670   38.2960 H   0  0  0  0  0  0  0  0  0  0  0  0
   38.9920   29.8910   36.9110 H   0  0  0  0  0  0  0  0  0  0  0  0
   39.1820   31.6080   37.4730 H   0  0  0  0  0  0  0  0  0  0  0  0
   38.1850   31.1100   39.6370 H   0  0  0  0  0  0  0  0  0  0  0  0
   37.4530   27.8600   41.2210 C   0  0  0  0  0  0  0  0  0  0  0  0
   38.4340   28.8940   40.9750 C   0  0  0  0  0  0  0  0  0  0  0  0
   38.8230   29.7200   41.9910 C   0  0  0  0  0  0  0  0  0  0  0  0
   38.2360   29.5050   43.2210 N   0  0  0  0  0  0  0  0  0  0  0  0
   37.3000   28.5160   43.4510 C   0  0  0  0  0  0  0  0  0  0  0  0
   36.9050   27.6800   42.4240 N   0  0  0  0  0  0  0  0  0  0  0  0
   36.7510   28.3860   44.7660 N   0  0  0  0  0  0  0  0  0  0  0  0
   37.1780   27.2300   40.3770 H   0  0  0  0  0  0  0  0  0  0  0  0
   36.6750   29.1980   45.3890 H   0  0  0  0  0  0  0  0  0  0  0  0
   36.4370   27.4240   45.0440 H   0  0  0  0  0  0  0  0  0  0  0  0
   39.7540   30.8140   41.9720 C   0  0  0  0  0  0  0  0  0  0  0  0
   39.9630   31.2040   40.9540 H   0  0  0  0  0  0  0  0  0  0  0  0
   39.3450   31.7570   42.4730 H   0  0  0  0  0  0  0  0  0  0  0  0
   41.0240   30.5840   42.6380 N   0  0  0  0  0  0  0  0  0  0  0  0
   42.0280   31.2940   43.1780 C   0  0  0  0  0  0  0  0  0  0  0  0
   42.9790   30.4900   43.6830 N   0  0  0  0  0  0  0  0  0  0  0  0
   42.5770   29.2330   43.4620 C   0  0  0  0  0  0  0  0  0  0  0  0
   41.3950   29.3080   42.8310 N   0  0  0  0  0  0  0  0  0  0  0  0
   37.0250   29.8900   38.2800 C   0  0  0  0  0  0  0  0  0  0  0  0
   36.9500   29.6580   36.9300 N   0  0  0  0  0  0  0  0  0  0  0  0
   35.7130   29.3060   36.6700 O   0  0  0  0  0  0  0  0  0  0  0  0
   35.0350   29.3110   37.7900 C   0  0  0  0  0  0  0  0  0  0  0  0
   35.8240   29.6690   38.8120 N   0  0  0  0  0  0  0  0  0  0  0  0
   33.5780   28.9480   37.8130 C   0  0  0  0  0  0  0  0  0  0  0  0
   33.4360   27.6150   37.5180 F   0  0  0  0  0  0  0  0  0  0  0  0
   33.0440   29.1930   39.0720 F   0  0  0  0  0  0  0  0  0  0  0  0
   32.8830   29.6830   36.8660 F   0  0  0  0  0  0  0  0  0  0  0  0
  1  6  1  6  0  0  0
  1 15  1  0  0  0  0
  2  1  1  0  0  0  0
  2  8  1  0  0  0  0
  2  7  1  0  0  0  0
  3 10  1  0  0  0  0
  3  2  1  0  0  0  0
  4  3  1  0  0  0  0
  4  5  1  0  0  0  0
  5 13  1  1  0  0  0
  5  1  1  0  0  0  0
  9  3  1  0  0  0  0
 11  4  1  0  0  0  0
 12  4  1  0  0  0  0
 14 19  1  0  0  0  0
 15 14  2  0  0  0  0
 15 16  1  0  0  0  0
 16 17  2  0  0  0  0
 17 18  1  0  0  0  0
 18 20  1  0  0  0  0
 19 18  2  0  0  0  0
 20 23  1  0  0  0  0
 20 22  1  0  0  0  0
 21 14  1  0  0  0  0
 24 16  1  0  0  0  0
 24 26  1  0  0  0  0
 24 27  1  0  0  0  0
 25 24  1  0  0  0  0
 27 31  1  0  0  0  0
 27 28  1  0  0  0  0
 28 29  2  0  0  0  0
 30 29  1  0  0  0  0
 31 30  2  0  0  0  0
 32 36  1  0  0  0  0
 32  5  1  0  0  0  0
 33 32  2  0  0  0  0
 34 33  1  0  0  0  0
 34 35  1  0  0  0  0
 35 37  1  0  0  0  0
 35 36  2  0  0  0  0
 37 39  1  0  0  0  0
 38 37  1  0  0  0  0
 40 37  1  0  0  0  0
M  END
>  <minimizedAffinity>
-5.37199879

>  <minimizedRMSD>
5.61249781

$$$$
