
     RDKit          3D

 23 24  0  0  0  0  0  0  0  0999 V2000
   37.9709   28.8838   43.3741 C   0  0  0  0  0  0  0  0  0  0  0  0
   38.0827   27.4729   43.3077 C   0  0  0  0  0  0  0  0  0  0  0  0
   37.4359   26.8138   42.2495 C   0  0  0  0  0  0  0  0  0  0  0  0
   36.7308   27.5769   41.3380 N   0  0  0  0  0  0  0  0  0  0  0  0
   36.6601   28.9161   41.4529 C   0  0  0  0  0  0  0  0  0  0  0  0
   37.2708   29.5446   42.4532 N   0  0  0  0  0  0  0  0  0  0  0  0
   37.5301   25.3406   42.1472 C   0  0  0  0  0  0  0  0  0  0  0  0
   37.6538   25.0512   40.8070 F   0  0  0  0  0  0  0  0  0  0  0  0
   38.6328   24.8376   42.7983 F   0  0  0  0  0  0  0  0  0  0  0  0
   36.3782   24.7176   42.6452 F   0  0  0  0  0  0  0  0  0  0  0  0
   38.4469   29.4435   44.1651 H   0  0  0  0  0  0  0  0  0  0  0  0
   38.6551   26.9523   44.0639 H   0  0  0  0  0  0  0  0  0  0  0  0
   35.9082   29.6259   40.4639 N   0  0  0  0  0  0  0  0  0  0  0  0
   36.0156   30.8871   40.0427 C   0  0  0  0  0  0  0  0  0  0  0  0
   35.1600   31.3426   39.0627 C   0  0  0  0  0  0  0  0  0  0  0  0
   34.1988   30.5347   38.5064 C   0  0  0  0  0  0  0  0  0  0  0  0
   33.4341   30.9914   37.6100 O   0  0  0  0  0  0  0  0  0  0  0  0
   34.1226   29.2583   38.9628 N   0  0  0  0  0  0  0  0  0  0  0  0
   34.9662   28.8066   39.9302 C   0  0  0  0  0  0  0  0  0  0  0  0
   34.7414   27.5957   40.2219 O   0  0  0  0  0  0  0  0  0  0  0  0
   36.8042   31.4259   40.5503 H   0  0  0  0  0  0  0  0  0  0  0  0
   35.3009   32.3786   38.7653 H   0  0  0  0  0  0  0  0  0  0  0  0
   33.3780   28.6827   38.5111 H   0  0  0  0  0  0  0  0  0  0  0  0
  2  1  2  0
  3  2  1  0
  4  5  1  0
  4  3  2  0
  5  6  2  0
  6  1  1  0
  7  3  1  0
  7 10  1  0
  7  9  1  0
  8  7  1  0
  1 11  1  0
  2 12  1  0
 13 14  1  0
 14 15  2  0
 15 16  1  0
 16 17  2  0
 16 18  1  0
 18 19  1  0
 19 20  2  0
 19 13  1  0
 14 21  1  0
 15 22  1  0
 18 23  1  0
  5 13  1  0
M  ISO  2  11  14  12  14
M  END
>  <DihAtoms>  (1) 
3,4,12,13

>  <DihDeg>  (1) 
85.55675486008005

$$$$
