
 OpenBabel03242509033D

 38 41  0  0  1  0  0  0  0  0999 V2000
   37.8500   30.0630   39.2560 N   0  0  1  0  0  0  0  0  0  0  0  0
   37.7690   29.5780   37.8490 C   0  0  0  0  0  0  0  0  0  0  0  0
   39.0400   28.9080   37.4350 C   0  0  0  0  0  0  0  0  0  0  0  0
   40.1510   29.6240   37.8660 O   0  0  0  0  0  0  0  0  0  0  0  0
   39.7640   30.9330   38.0340 C   0  0  0  0  0  0  0  0  0  0  0  0
   38.8200   31.0910   39.2530 C   0  0  2  0  0  0  0  0  0  0  0  0
   37.4560   30.4200   37.1980 H   0  0  0  0  0  0  0  0  0  0  0  0
   36.9500   28.8080   37.8640 H   0  0  0  0  0  0  0  0  0  0  0  0
   39.0450   27.8430   37.7390 H   0  0  0  0  0  0  0  0  0  0  0  0
   39.0560   28.8930   36.3230 H   0  0  0  0  0  0  0  0  0  0  0  0
   39.2720   31.3500   37.1300 H   0  0  0  0  0  0  0  0  0  0  0  0
   40.6580   31.5710   38.1920 H   0  0  0  0  0  0  0  0  0  0  0  0
   38.2800   32.0600   39.1220 H   0  0  0  0  0  0  0  0  0  0  0  0
   39.7260   31.1950   40.3470 N   0  0  0  0  0  0  0  0  0  0  0  0
   40.1520   30.0630   40.9890 C   0  0  0  0  0  0  0  0  0  0  0  0
   41.0090   30.0330   42.0690 C   0  0  0  0  0  0  0  0  0  0  0  0
   41.4870   31.2330   42.5530 C   0  0  0  0  0  0  0  0  0  0  0  0
   42.2650   31.2690   43.5270 O   0  0  0  0  0  0  0  0  0  0  0  0
   41.0780   32.3450   41.9330 N   0  0  0  0  0  0  0  0  0  0  0  0
   40.2420   32.3010   40.8860 C   0  0  0  0  0  0  0  0  0  0  0  0
   39.9450   33.3990   40.4050 O   0  0  0  0  0  0  0  0  0  0  0  0
   41.4530   33.2390   42.3180 H   0  0  0  0  0  0  0  0  0  0  0  0
   35.8470   29.6060   40.8360 C   0  0  1  0  0  0  0  0  0  0  0  0
   36.1890   31.0410   40.9630 C   0  0  0  0  0  0  0  0  0  0  0  0
   36.5460   30.3860   39.7010 C   0  0  1  0  0  0  0  0  0  0  0  0
   34.8650   29.1930   40.6150 H   0  0  0  0  0  0  0  0  0  0  0  0
   37.0000   31.3370   41.6900 H   0  0  0  0  0  0  0  0  0  0  0  0
   35.3390   31.7460   41.0400 H   0  0  0  0  0  0  0  0  0  0  0  0
   35.8070   30.6260   38.8810 H   0  0  0  0  0  0  0  0  0  0  0  0
   38.0350   28.2610   43.4680 C   0  0  0  0  0  0  0  0  0  0  0  0
   38.2130   26.9180   43.0780 C   0  0  0  0  0  0  0  0  0  0  0  0
   37.5750   26.5060   41.8940 C   0  0  0  0  0  0  0  0  0  0  0  0
   36.8200   27.4180   41.1870 N   0  0  0  0  0  0  0  0  0  0  0  0
   36.6970   28.6750   41.6190 C   0  0  0  0  0  0  0  0  0  0  0  0
   37.2920   29.1150   42.7500 N   0  0  0  0  0  0  0  0  0  0  0  0
   38.4800   28.6870   44.3610 H   0  0  0  0  0  0  0  0  0  0  0  0
   38.8150   26.2860   43.6870 H   0  0  0  0  0  0  0  0  0  0  0  0
   37.6890   25.5010   41.5720 H   0  0  0  0  0  0  0  0  0  0  0  0
  1  2  1  6  0  0  0
  1 25  1  0  0  0  0
  2  8  1  0  0  0  0
  3  9  1  0  0  0  0
  3  2  1  0  0  0  0
  3  4  1  0  0  0  0
  4  5  1  0  0  0  0
  5 12  1  0  0  0  0
  5  6  1  0  0  0  0
  6 13  1  6  0  0  0
  6  1  1  0  0  0  0
  6 14  1  0  0  0  0
  7  2  1  0  0  0  0
 10  3  1  0  0  0  0
 11  5  1  0  0  0  0
 14 20  1  0  0  0  0
 14 15  1  0  0  0  0
 15 16  2  0  0  0  0
 16 17  1  0  0  0  0
 17 18  2  0  0  0  0
 19 22  1  0  0  0  0
 19 17  1  0  0  0  0
 20 19  1  0  0  0  0
 21 20  2  0  0  0  0
 23 26  1  6  0  0  0
 23 24  1  0  0  0  0
 23 34  1  0  0  0  0
 24 28  1  0  0  0  0
 24 27  1  0  0  0  0
 25 29  1  6  0  0  0
 25 23  1  0  0  0  0
 25 24  1  0  0  0  0
 30 36  1  0  0  0  0
 31 30  1  0  0  0  0
 31 37  1  0  0  0  0
 32 31  2  0  0  0  0
 33 34  2  0  0  0  0
 33 32  1  0  0  0  0
 34 35  1  0  0  0  0
 35 30  2  0  0  0  0
 38 32  1  0  0  0  0
M  END
>  <minimizedAffinity>
-5.35707331

>  <minimizedRMSD>
1.61309421

$$$$
