
 OpenBabel03242508303D

 31 34  0  0  0  0  0  0  0  0999 V2000
   38.1230   28.4590   43.5680 C   0  0  0  0  0  0  0  0  0  0  0  0
   38.1500   27.1210   43.0910 C   0  0  0  0  0  0  0  0  0  0  0  0
   37.4630   26.8280   41.8900 C   0  0  0  0  0  0  0  0  0  0  0  0
   36.8240   27.8520   41.2760 N   0  0  0  0  0  0  0  0  0  0  0  0
   36.8260   29.1030   41.7640 C   0  0  0  0  0  0  0  0  0  0  0  0
   37.4640   29.4000   42.8910 N   0  0  0  0  0  0  0  0  0  0  0  0
   38.6450   28.7140   44.4950 H   0  0  0  0  0  0  0  0  0  0  0  0
   38.6760   26.3780   43.6360 H   0  0  0  0  0  0  0  0  0  0  0  0
   37.4700   25.4920   41.3800 N   0  0  0  0  0  0  0  0  0  0  0  0
   36.6980   25.1440   40.3650 C   0  0  0  0  0  0  0  0  0  0  0  0
   36.7850   23.8260   39.9540 C   0  0  0  0  0  0  0  0  0  0  0  0
   37.6340   22.9230   40.5750 C   0  0  0  0  0  0  0  0  0  0  0  0
   37.7650   21.7130   40.2560 O   0  0  0  0  0  0  0  0  0  0  0  0
   38.4010   23.3560   41.6190 N   0  0  0  0  0  0  0  0  0  0  0  0
   38.3060   24.6400   42.0070 C   0  0  0  0  0  0  0  0  0  0  0  0
   39.0430   25.0010   42.9880 O   0  0  0  0  0  0  0  0  0  0  0  0
   39.0520   22.6920   42.1050 H   0  0  0  0  0  0  0  0  0  0  0  0
   36.1040   29.9510   40.9510 O   0  0  0  0  0  0  0  0  0  0  0  0
   36.7460   30.9050   40.1900 C   0  0  0  0  0  0  0  0  0  0  0  0
   36.7270   31.1340   38.8520 N   0  0  0  0  0  0  0  0  0  0  0  0
   37.4990   32.1610   38.5810 O   0  0  0  0  0  0  0  0  0  0  0  0
   38.0030   32.5820   39.7230 C   0  0  0  0  0  0  0  0  0  0  0  0
   37.5570   31.8300   40.7210 N   0  0  0  0  0  0  0  0  0  0  0  0
   38.9110   33.7100   39.8290 C   0  0  0  0  0  0  0  0  0  0  0  0
   38.5700   34.9880   40.3010 C   0  0  0  0  0  0  0  0  0  0  0  0
   39.7030   35.7830   40.2490 C   0  0  0  0  0  0  0  0  0  0  0  0
   40.6870   34.9520   39.7470 C   0  0  0  0  0  0  0  0  0  0  0  0
   40.1640   33.7850   39.5290 O   0  0  0  0  0  0  0  0  0  0  0  0
   37.5630   35.2740   40.6470 H   0  0  0  0  0  0  0  0  0  0  0  0
   39.6650   36.8160   40.5710 H   0  0  0  0  0  0  0  0  0  0  0  0
   41.6940   35.3110   39.5950 H   0  0  0  0  0  0  0  0  0  0  0  0
  1  7  1  0  0  0  0
  2  1  1  0  0  0  0
  2  8  1  0  0  0  0
  3  2  2  0  0  0  0
  4  5  2  0  0  0  0
  4  3  1  0  0  0  0
  5  6  1  0  0  0  0
  6  1  2  0  0  0  0
  9  3  1  0  0  0  0
  9 15  1  0  0  0  0
 10  9  1  0  0  0  0
 11 10  2  0  0  0  0
 11 12  1  0  0  0  0
 12 14  1  0  0  0  0
 13 12  2  0  0  0  0
 14 15  1  0  0  0  0
 14 17  1  0  0  0  0
 15 16  2  0  0  0  0
 18  5  1  0  0  0  0
 19 23  1  0  0  0  0
 19 18  1  0  0  0  0
 20 19  2  0  0  0  0
 21 20  1  0  0  0  0
 21 22  1  0  0  0  0
 22 24  1  0  0  0  0
 22 23  2  0  0  0  0
 24 25  2  0  0  0  0
 25 29  1  0  0  0  0
 26 25  1  0  0  0  0
 26 30  1  0  0  0  0
 27 26  2  0  0  0  0
 28 27  1  0  0  0  0
 28 24  1  0  0  0  0
 31 27  1  0  0  0  0
M  END
>  <minimizedAffinity>
-6.77552605

>  <minimizedRMSD>
1.27784729

$$$$
