REMARK  Name = 
REMARK  1 active torsions:
REMARK  status: ('A' for Active; 'I' for Inactive)
REMARK    1  A    between atoms: C_3  and  C_7
REMARK                            x       y       z     vdW  Elec       q    Type
REMARK                         _______ _______ _______ _____ _____    ______ ____
ROOT
ATOM      1  C   UNL     1      37.971  28.884  43.374  0.00  0.00    +0.000 A 
ATOM      2  C   UNL     1      38.083  27.473  43.308  0.00  0.00    +0.000 A 
ATOM      3  C   UNL     1      37.436  26.814  42.249  0.00  0.00    +0.000 A 
ATOM      4  N   UNL     1      36.731  27.577  41.338  0.00  0.00    +0.000 NA
ATOM      5  C   UNL     1      36.660  28.916  41.453  0.00  0.00    +0.000 A 
ATOM      6  N   UNL     1      37.271  29.545  42.453  0.00  0.00    +0.000 NA
ATOM      7  H   UNL     1      38.447  29.444  44.165  0.00  0.00    +0.000 HD
ATOM      8  H   UNL     1      38.655  26.952  44.064  0.00  0.00    +0.000 HD
ATOM      9  N   UNL     1      35.908  29.626  40.464  0.00  0.00    +0.000 N 
ATOM     10  C   UNL     1      35.825  30.935  40.222  0.00  0.00    +0.000 A 
ATOM     11  C   UNL     1      35.019  31.378  39.196  0.00  0.00    +0.000 A 
ATOM     12  C   UNL     1      34.297  30.510  38.414  0.00  0.00    +0.000 A 
ATOM     13  O   UNL     1      33.570  30.957  37.482  0.00  0.00    +0.000 OA
ATOM     14  N   UNL     1      34.410  29.186  38.693  0.00  0.00    +0.000 N 
ATOM     15  C   UNL     1      35.205  28.746  39.705  0.00  0.00    +0.000 A 
ATOM     16  O   UNL     1      35.179  27.485  39.809  0.00  0.00    +0.000 OA
ATOM     17  H   UNL     1      33.844  28.565  38.072  0.00  0.00    +0.000 HD
ENDROOT
BRANCH   3  18
ATOM     18  C   UNL     1      37.530  25.341  42.147  0.00  0.00    +0.000 C 
ATOM     19  F   UNL     1      37.654  25.051  40.807  0.00  0.00    +0.000 F 
ATOM     20  F   UNL     1      38.633  24.838  42.798  0.00  0.00    +0.000 F 
ATOM     21  F   UNL     1      36.378  24.718  42.645  0.00  0.00    +0.000 F 
ENDBRANCH   3  18
TORSDOF 1
