
 OpenBabel03242508593D

 25 27  0  0  1  0  0  0  0  0999 V2000
   36.4070   31.0920   40.7900 C   0  0  1  0  0  0  0  0  0  0  0  0
   37.3530   32.1850   40.4030 C   0  0  0  0  0  0  0  0  0  0  0  0
   36.7640   31.3830   39.3200 C   0  0  1  0  0  0  0  0  0  0  0  0
   35.3570   31.2500   41.0710 H   0  0  0  0  0  0  0  0  0  0  0  0
   36.9840   33.2340   40.4950 H   0  0  0  0  0  0  0  0  0  0  0  0
   38.4190   32.1090   40.6470 H   0  0  0  0  0  0  0  0  0  0  0  0
   35.9230   31.8150   38.7560 H   0  0  0  0  0  0  0  0  0  0  0  0
   38.9300   28.8740   42.3190 C   0  0  0  0  0  0  0  0  0  0  0  0
   38.1880   27.6840   42.5410 C   0  0  0  0  0  0  0  0  0  0  0  0
   36.8270   27.6780   42.1420 C   0  0  0  0  0  0  0  0  0  0  0  0
   36.3030   28.7950   41.5750 N   0  0  0  0  0  0  0  0  0  0  0  0
   37.0560   29.9070   41.3870 C   0  0  0  0  0  0  0  0  0  0  0  0
   38.3400   29.9510   41.7490 N   0  0  0  0  0  0  0  0  0  0  0  0
   39.9730   28.9690   42.5920 H   0  0  0  0  0  0  0  0  0  0  0  0
   38.6940   26.8500   42.9980 H   0  0  0  0  0  0  0  0  0  0  0  0
   36.2740   26.7630   42.3160 H   0  0  0  0  0  0  0  0  0  0  0  0
   37.4230   30.3080   38.6540 N   0  0  0  0  0  0  0  0  0  0  0  0
   37.0500   29.0300   38.4860 C   0  0  0  0  0  0  0  0  0  0  0  0
   37.8320   28.1250   37.8020 C   0  0  0  0  0  0  0  0  0  0  0  0
   39.0370   28.5030   37.2620 C   0  0  0  0  0  0  0  0  0  0  0  0
   39.7840   27.6990   36.6260 O   0  0  0  0  0  0  0  0  0  0  0  0
   39.3930   29.7960   37.4430 N   0  0  0  0  0  0  0  0  0  0  0  0
   38.6210   30.6790   38.1150 C   0  0  0  0  0  0  0  0  0  0  0  0
   39.1180   31.8520   38.1860 O   0  0  0  0  0  0  0  0  0  0  0  0
   40.3170   30.0680   37.0230 H   0  0  0  0  0  0  0  0  0  0  0  0
  1  4  1  1  0  0  0
  1 12  1  0  0  0  0
  2  5  1  0  0  0  0
  2  6  1  0  0  0  0
  2  1  1  0  0  0  0
  3  7  1  6  0  0  0
  3  2  1  0  0  0  0
  3  1  1  0  0  0  0
  8  9  1  0  0  0  0
  8 14  1  0  0  0  0
  9 15  1  0  0  0  0
 10 16  1  0  0  0  0
 10  9  2  0  0  0  0
 11 10  1  0  0  0  0
 12 11  2  0  0  0  0
 12 13  1  0  0  0  0
 13  8  2  0  0  0  0
 17  3  1  0  0  0  0
 18 17  1  0  0  0  0
 19 18  2  0  0  0  0
 20 22  1  0  0  0  0
 20 19  1  0  0  0  0
 21 20  2  0  0  0  0
 22 23  1  0  0  0  0
 23 24  2  0  0  0  0
 23 17  1  0  0  0  0
 25 22  1  0  0  0  0
M  END
>  <minimizedAffinity>
-4.17279291

>  <minimizedRMSD>
0.85685128

$$$$
