
 OpenBabel03242509313D

 21 22  0  0  0  0  0  0  0  0999 V2000
   37.7620   28.5940   43.6580 C   0  0  0  0  0  0  0  0  0  0  0  0
   38.2780   27.2790   43.7620 C   0  0  0  0  0  0  0  0  0  0  0  0
   38.3940   26.5260   42.5810 C   0  0  0  0  0  0  0  0  0  0  0  0
   38.0010   27.1110   41.3930 N   0  0  0  0  0  0  0  0  0  0  0  0
   37.5180   28.3660   41.3570 C   0  0  0  0  0  0  0  0  0  0  0  0
   37.4060   29.0830   42.4710 N   0  0  0  0  0  0  0  0  0  0  0  0
   37.6500   29.2190   44.5320 H   0  0  0  0  0  0  0  0  0  0  0  0
   38.5620   26.8970   44.7340 H   0  0  0  0  0  0  0  0  0  0  0  0
   37.1340   28.8910   40.0820 N   0  0  0  0  0  0  0  0  0  0  0  0
   36.8120   30.1350   39.7250 C   0  0  0  0  0  3  0  0  0  0  0  0
   36.4740   30.3910   38.4140 C   0  0  0  0  0  3  0  0  0  0  0  0
   36.4580   29.4020   37.4620 C   0  0  0  0  0  0  0  0  0  0  0  0
   36.1430   29.6790   36.2700 O   0  0  0  0  0  0  0  0  0  0  0  0
   36.7940   28.1500   37.8660 N   0  0  0  0  0  0  0  0  0  0  0  0
   37.1280   27.8940   39.1600 C   0  0  0  0  0  0  0  0  0  0  0  0
   37.4080   26.6730   39.3400 O   0  0  0  0  0  0  0  0  0  0  0  0
   36.7690   27.4310   37.1080 H   0  0  0  0  0  0  0  0  0  0  0  0
   38.9280   25.1480   42.6500 C   0  0  0  0  0  0  0  0  0  0  0  0
   39.7250   24.9840   41.5390 F   0  0  0  0  0  0  0  0  0  0  0  0
   39.7030   24.9390   43.7680 F   0  0  0  0  0  0  0  0  0  0  0  0
   37.8990   24.1970   42.6190 F   0  0  0  0  0  0  0  0  0  0  0  0
  1  2  1  0  0  0  0
  1  7  1  0  0  0  0
  2  8  1  0  0  0  0
  3 18  1  0  0  0  0
  3  2  2  0  0  0  0
  4  3  1  0  0  0  0
  5  4  2  0  0  0  0
  5  6  1  0  0  0  0
  6  1  2  0  0  0  0
  9  5  1  0  0  0  0
 10  9  1  0  0  0  0
 11 10  2  0  0  0  0
 12 14  1  0  0  0  0
 12 11  1  0  0  0  0
 13 12  2  0  0  0  0
 14 15  1  0  0  0  0
 15 16  2  0  0  0  0
 15  9  1  0  0  0  0
 17 14  1  0  0  0  0
 18 20  1  0  0  0  0
 19 18  1  0  0  0  0
 21 18  1  0  0  0  0
M  END
>  <minimizedAffinity>
-4.66179848

>  <minimizedRMSD>
1.80672848

$$$$
