
 OpenBabel03242509263D

 48 52  0  0  0  0  0  0  0  0999 V2000
   36.1390   30.0600   41.1000 C   0  0  0  0  0  0  0  0  0  0  0  0
   35.5320   30.5590   41.9050 H   0  0  0  0  0  0  0  0  0  0  0  0
   36.7370   30.8830   40.6470 H   0  0  0  0  0  0  0  0  0  0  0  0
   38.6010   28.1240   42.6980 C   0  0  0  0  0  0  0  0  0  0  0  0
   37.5210   27.2910   42.7820 C   0  0  0  0  0  0  0  0  0  0  0  0
   36.4560   27.9560   42.1690 C   0  0  0  0  0  0  0  0  0  0  0  0
   36.9800   29.1270   41.7700 N   0  0  0  0  0  0  0  0  0  0  0  0
   38.2300   29.2660   42.0580 N   0  0  0  0  0  0  0  0  0  0  0  0
   37.5280   26.3080   43.2450 H   0  0  0  0  0  0  0  0  0  0  0  0
   35.4660   27.5350   42.0870 H   0  0  0  0  0  0  0  0  0  0  0  0
   41.5590   26.4080   44.1750 C   0  0  0  0  0  0  0  0  0  0  0  0
   40.2570   26.6070   43.7040 C   0  0  0  0  0  0  0  0  0  0  0  0
   39.9370   27.8740   43.1930 C   0  0  0  0  0  0  0  0  0  0  0  0
   40.8730   28.8390   43.1730 N   0  0  0  0  0  0  0  0  0  0  0  0
   42.1390   28.5880   43.6490 C   0  0  0  0  0  0  0  0  0  0  0  0
   42.4640   27.3950   44.1380 N   0  0  0  0  0  0  0  0  0  0  0  0
   41.8790   25.4510   44.5850 H   0  0  0  0  0  0  0  0  0  0  0  0
   39.5400   25.8060   43.7410 H   0  0  0  0  0  0  0  0  0  0  0  0
   42.9820   29.7510   43.5350 N   0  0  0  0  0  0  0  0  0  0  0  0
   43.6480   30.2780   44.5810 C   0  0  0  0  0  3  0  0  0  0  0  0
   44.4390   31.3970   44.3950 C   0  0  0  0  0  3  0  0  0  0  0  0
   44.5060   31.9280   43.1180 C   0  0  0  0  0  0  0  0  0  0  0  0
   45.2020   32.9410   42.8690 O   0  0  0  0  0  0  0  0  0  0  0  0
   43.8110   31.3470   42.1140 N   0  0  0  0  0  0  0  0  0  0  0  0
   43.0370   30.2520   42.2940 C   0  0  0  0  0  0  0  0  0  0  0  0
   42.4430   29.8050   41.2890 O   0  0  0  0  0  0  0  0  0  0  0  0
   43.8830   31.7750   41.1510 H   0  0  0  0  0  0  0  0  0  0  0  0
   35.2510   29.4930   40.0390 C   0  0  0  0  0  0  0  0  0  0  0  0
   34.5420   30.3790   39.9090 H   0  0  0  0  0  0  0  0  0  0  0  0
   34.7770   28.5930   40.4050 H   0  0  0  0  0  0  0  0  0  0  0  0
   35.8740   29.4020   38.6970 C   0  0  0  0  0  0  0  0  0  0  0  0
   37.1920   29.5260   38.3750 C   0  0  0  0  0  0  0  0  0  0  0  0
   37.7210   29.5160   37.1220 C   0  0  0  0  0  0  0  0  0  0  0  0
   36.8710   29.3680   36.0360 C   0  0  0  0  0  0  0  0  0  0  0  0
   35.5130   29.2340   36.2930 C   0  0  0  0  0  0  0  0  0  0  0  0
   34.7370   29.0930   35.1730 C   0  0  0  0  0  0  0  0  0  0  0  0
   33.3810   28.9480   35.3170 C   0  0  0  0  0  0  0  0  0  0  0  0
   32.8350   28.9470   36.5880 C   0  0  0  0  0  0  0  0  0  0  0  0
   33.6740   29.0930   37.6530 C   0  0  0  0  0  0  0  0  0  0  0  0
   35.0220   29.2480   37.5880 C   0  0  0  0  0  0  0  0  0  0  0  0
   37.8690   29.6440   39.2230 H   0  0  0  0  0  0  0  0  0  0  0  0
   38.7910   29.6230   37.0070 H   0  0  0  0  0  0  0  0  0  0  0  0
   37.3080   29.3640   35.0600 H   0  0  0  0  0  0  0  0  0  0  0  0
   35.1320   29.0860   34.1670 H   0  0  0  0  0  0  0  0  0  0  0  0
   32.7510   28.8370   34.4440 H   0  0  0  0  0  0  0  0  0  0  0  0
   31.7730   28.8310   36.6880 H   0  0  0  0  0  0  0  0  0  0  0  0
   33.0610   29.0670   38.8980 O   0  0  0  0  0  0  0  0  0  0  0  0
   32.5450   28.2370   39.1490 H   0  0  0  0  0  0  0  0  0  0  0  0
  1  7  1  0  0  0  0
  1  2  1  0  0  0  0
  3  1  1  0  0  0  0
  4  5  1  0  0  0  0
  4 13  1  0  0  0  0
  5  9  1  0  0  0  0
  6  5  2  0  0  0  0
  7  8  1  0  0  0  0
  7  6  1  0  0  0  0
  8  4  2  0  0  0  0
 10  6  1  0  0  0  0
 11 17  1  0  0  0  0
 12 18  1  0  0  0  0
 12 11  2  0  0  0  0
 13 12  1  0  0  0  0
 14 13  2  0  0  0  0
 14 15  1  0  0  0  0
 15 16  2  0  0  0  0
 16 11  1  0  0  0  0
 19 15  1  0  0  0  0
 19 20  1  0  0  0  0
 21 20  2  0  0  0  0
 22 21  1  0  0  0  0
 23 22  2  0  0  0  0
 24 25  1  0  0  0  0
 24 22  1  0  0  0  0
 25 19  1  0  0  0  0
 26 25  2  0  0  0  0
 27 24  1  0  0  0  0
 28 30  1  0  0  0  0
 28  1  1  0  0  0  0
 29 28  1  0  0  0  0
 31 28  1  0  0  0  0
 32 31  1  0  0  0  0
 32 41  1  0  0  0  0
 33 32  2  0  0  0  0
 34 35  2  0  0  0  0
 34 33  1  0  0  0  0
 35 40  1  0  0  0  0
 36 37  2  0  0  0  0
 36 35  1  0  0  0  0
 37 38  1  0  0  0  0
 38 46  1  0  0  0  0
 38 39  2  0  0  0  0
 39 47  1  0  0  0  0
 40 39  1  0  0  0  0
 40 31  2  0  0  0  0
 42 33  1  0  0  0  0
 43 34  1  0  0  0  0
 44 36  1  0  0  0  0
 45 37  1  0  0  0  0
 47 48  1  0  0  0  0
M  END
>  <minimizedAffinity>
-6.42305517

>  <minimizedRMSD>
0.585748613

$$$$
