
 OpenBabel03242509263D

 48 52  0  0  0  0  0  0  0  0999 V2000
   36.1410   30.0850   41.0910 C   0  0  0  0  0  0  0  0  0  0  0  0
   35.5380   30.5950   41.8910 H   0  0  0  0  0  0  0  0  0  0  0  0
   36.7470   30.8990   40.6330 H   0  0  0  0  0  0  0  0  0  0  0  0
   38.5840   28.1290   42.6920 C   0  0  0  0  0  0  0  0  0  0  0  0
   37.4870   27.3230   42.8120 C   0  0  0  0  0  0  0  0  0  0  0  0
   36.4270   27.9980   42.2020 C   0  0  0  0  0  0  0  0  0  0  0  0
   36.9710   29.1480   41.7680 N   0  0  0  0  0  0  0  0  0  0  0  0
   38.2290   29.2650   42.0330 N   0  0  0  0  0  0  0  0  0  0  0  0
   37.4790   26.3500   43.2960 H   0  0  0  0  0  0  0  0  0  0  0  0
   35.4260   27.5990   42.1440 H   0  0  0  0  0  0  0  0  0  0  0  0
   41.4890   26.4390   44.3010 C   0  0  0  0  0  0  0  0  0  0  0  0
   40.1820   26.6600   43.8520 C   0  0  0  0  0  0  0  0  0  0  0  0
   39.9220   27.8590   43.1710 C   0  0  0  0  0  0  0  0  0  0  0  0
   40.9170   28.7410   42.9750 N   0  0  0  0  0  0  0  0  0  0  0  0
   42.1840   28.4730   43.4380 C   0  0  0  0  0  0  0  0  0  0  0  0
   42.4520   27.3440   44.0860 N   0  0  0  0  0  0  0  0  0  0  0  0
   41.7640   25.5320   44.8360 H   0  0  0  0  0  0  0  0  0  0  0  0
   39.4170   25.9260   44.0310 H   0  0  0  0  0  0  0  0  0  0  0  0
   43.0950   29.5450   43.1240 N   0  0  0  0  0  0  0  0  0  0  0  0
   44.0450   29.9710   43.9770 C   0  0  0  0  0  3  0  0  0  0  0  0
   44.8840   31.0060   43.6060 C   0  0  0  0  0  3  0  0  0  0  0  0
   44.7000   31.5610   42.3510 C   0  0  0  0  0  0  0  0  0  0  0  0
   45.4190   32.5010   41.9410 O   0  0  0  0  0  0  0  0  0  0  0  0
   43.7250   31.0820   41.5430 N   0  0  0  0  0  0  0  0  0  0  0  0
   42.9030   30.0690   41.9060 C   0  0  0  0  0  0  0  0  0  0  0  0
   42.0410   29.7130   41.0750 O   0  0  0  0  0  0  0  0  0  0  0  0
   43.6090   31.5260   40.5920 H   0  0  0  0  0  0  0  0  0  0  0  0
   35.2480   29.5210   40.0310 C   0  0  0  0  0  0  0  0  0  0  0  0
   34.5440   30.4110   39.9010 H   0  0  0  0  0  0  0  0  0  0  0  0
   34.7700   28.6240   40.4000 H   0  0  0  0  0  0  0  0  0  0  0  0
   35.8700   29.4240   38.6890 C   0  0  0  0  0  0  0  0  0  0  0  0
   37.1870   29.5550   38.3640 C   0  0  0  0  0  0  0  0  0  0  0  0
   37.7130   29.5380   37.1100 C   0  0  0  0  0  0  0  0  0  0  0  0
   36.8630   29.3760   36.0270 C   0  0  0  0  0  0  0  0  0  0  0  0
   35.5060   29.2360   36.2870 C   0  0  0  0  0  0  0  0  0  0  0  0
   34.7290   29.0810   35.1700 C   0  0  0  0  0  0  0  0  0  0  0  0
   33.3740   28.9280   35.3170 C   0  0  0  0  0  0  0  0  0  0  0  0
   32.8300   28.9330   36.5890 C   0  0  0  0  0  0  0  0  0  0  0  0
   33.6700   29.0930   37.6510 C   0  0  0  0  0  0  0  0  0  0  0  0
   35.0170   29.2560   37.5830 C   0  0  0  0  0  0  0  0  0  0  0  0
   37.8640   29.6830   39.2100 H   0  0  0  0  0  0  0  0  0  0  0  0
   38.7820   29.6520   36.9930 H   0  0  0  0  0  0  0  0  0  0  0  0
   37.2980   29.3690   35.0500 H   0  0  0  0  0  0  0  0  0  0  0  0
   35.1230   29.0700   34.1630 H   0  0  0  0  0  0  0  0  0  0  0  0
   32.7430   28.8060   34.4460 H   0  0  0  0  0  0  0  0  0  0  0  0
   31.7690   28.8110   36.6920 H   0  0  0  0  0  0  0  0  0  0  0  0
   33.0600   29.0710   38.8970 O   0  0  0  0  0  0  0  0  0  0  0  0
   32.5500   28.2400   39.1560 H   0  0  0  0  0  0  0  0  0  0  0  0
  1  7  1  0  0  0  0
  1  2  1  0  0  0  0
  3  1  1  0  0  0  0
  4  5  1  0  0  0  0
  4 13  1  0  0  0  0
  5  9  1  0  0  0  0
  6  5  2  0  0  0  0
  7  8  1  0  0  0  0
  7  6  1  0  0  0  0
  8  4  2  0  0  0  0
 10  6  1  0  0  0  0
 11 17  1  0  0  0  0
 12 18  1  0  0  0  0
 12 11  2  0  0  0  0
 13 12  1  0  0  0  0
 14 13  2  0  0  0  0
 14 15  1  0  0  0  0
 15 16  2  0  0  0  0
 16 11  1  0  0  0  0
 19 15  1  0  0  0  0
 19 20  1  0  0  0  0
 21 20  2  0  0  0  0
 22 21  1  0  0  0  0
 23 22  2  0  0  0  0
 24 25  1  0  0  0  0
 24 22  1  0  0  0  0
 25 19  1  0  0  0  0
 26 25  2  0  0  0  0
 27 24  1  0  0  0  0
 28 30  1  0  0  0  0
 28  1  1  0  0  0  0
 29 28  1  0  0  0  0
 31 28  1  0  0  0  0
 32 31  1  0  0  0  0
 32 41  1  0  0  0  0
 33 32  2  0  0  0  0
 34 35  2  0  0  0  0
 34 33  1  0  0  0  0
 35 40  1  0  0  0  0
 36 37  2  0  0  0  0
 36 35  1  0  0  0  0
 37 38  1  0  0  0  0
 38 46  1  0  0  0  0
 38 39  2  0  0  0  0
 39 47  1  0  0  0  0
 40 39  1  0  0  0  0
 40 31  2  0  0  0  0
 42 33  1  0  0  0  0
 43 34  1  0  0  0  0
 44 36  1  0  0  0  0
 45 37  1  0  0  0  0
 47 48  1  0  0  0  0
M  END
>  <minimizedAffinity>
-6.31033087

>  <minimizedRMSD>
0.206874877

$$$$
