
     RDKit          3D

 50 54  0  0  0  0  0  0  0  0999 V2000
   35.2824   29.4956   40.0762 C   0  0  0  0  0  0  0  0  0  0  0  0
   35.8938   29.4264   38.7277 C   0  0  0  0  0  0  0  0  0  0  0  0
   37.2054   29.5903   38.3931 C   0  0  0  0  0  0  0  0  0  0  0  0
   37.7205   29.5970   37.1340 C   0  0  0  0  0  0  0  0  0  0  0  0
   36.8650   29.4250   36.0571 C   0  0  0  0  0  0  0  0  0  0  0  0
   35.5138   29.2504   36.3273 C   0  0  0  0  0  0  0  0  0  0  0  0
   34.7320   29.0867   35.2150 C   0  0  0  0  0  0  0  0  0  0  0  0
   33.3815   28.9013   35.3718 C   0  0  0  0  0  0  0  0  0  0  0  0
   32.8489   28.8821   36.6494 C   0  0  0  0  0  0  0  0  0  0  0  0
   33.6936   29.0524   37.7053 C   0  0  0  0  0  0  0  0  0  0  0  0
   35.0356   29.2475   37.6271 C   0  0  0  0  0  0  0  0  0  0  0  0
   33.0950   29.0051   38.9556 O   0  0  0  0  0  0  0  0  0  0  0  0
   36.1676   30.0769   41.1319 C   0  0  0  0  0  0  0  0  0  0  0  0
   38.6508   28.1590   42.7187 C   0  0  0  0  0  0  0  0  0  0  0  0
   37.5613   27.3480   42.8689 C   0  0  0  0  0  0  0  0  0  0  0  0
   36.4871   28.0084   42.2672 C   0  0  0  0  0  0  0  0  0  0  0  0
   37.0164   29.1546   41.8080 N   0  0  0  0  0  0  0  0  0  0  0  0
   38.2769   29.2829   42.0500 N   0  0  0  0  0  0  0  0  0  0  0  0
   41.5762   26.5530   44.3748 C   0  0  0  0  0  0  0  0  0  0  0  0
   40.2596   26.7598   43.9484 C   0  0  0  0  0  0  0  0  0  0  0  0
   39.9978   27.9051   43.1794 C   0  0  0  0  0  0  0  0  0  0  0  0
   41.0009   28.7505   42.8829 N   0  0  0  0  0  0  0  0  0  0  0  0
   42.2774   28.4966   43.3294 C   0  0  0  0  0  0  0  0  0  0  0  0
   42.5474   27.4186   44.0585 N   0  0  0  0  0  0  0  0  0  0  0  0
   34.5531   30.3666   39.9582 H   0  0  0  0  0  0  0  0  0  0  0  0
   34.8322   28.5839   40.4419 H   0  0  0  0  0  0  0  0  0  0  0  0
   37.8861   29.7273   39.2339 H   0  0  0  0  0  0  0  0  0  0  0  0
   38.7859   29.7366   37.0087 H   0  0  0  0  0  0  0  0  0  0  0  0
   37.2924   29.4361   35.0759 H   0  0  0  0  0  0  0  0  0  0  0  0
   35.1166   29.0942   34.2052 H   0  0  0  0  0  0  0  0  0  0  0  0
   32.7466   28.7724   34.5051 H   0  0  0  0  0  0  0  0  0  0  0  0
   31.7923   28.7339   36.7593 H   0  0  0  0  0  0  0  0  0  0  0  0
   32.6073   28.1598   39.2110 H   0  0  0  0  0  0  0  0  0  0  0  0
   35.5585   30.5775   41.9330 H   0  0  0  0  0  0  0  0  0  0  0  0
   36.7596   30.9003   40.6707 H   0  0  0  0  0  0  0  0  0  0  0  0
   37.5677   26.3822   43.3666 H   0  0  0  0  0  0  0  0  0  0  0  0
   35.4883   27.6012   42.2321 H   0  0  0  0  0  0  0  0  0  0  0  0
   41.8532   25.6867   44.9744 H   0  0  0  0  0  0  0  0  0  0  0  0
   39.4888   26.0573   44.2090 H   0  0  0  0  0  0  0  0  0  0  0  0
   43.1947   29.5225   42.9016 N   0  0  0  0  0  0  0  0  0  0  0  0
   44.5226   29.4518   43.1158 C   0  0  0  0  0  0  0  0  0  0  0  0
   45.3423   30.4754   42.6763 C   0  0  0  0  0  0  0  0  0  0  0  0
   44.7432   31.5405   42.0263 C   0  0  0  0  0  0  0  0  0  0  0  0
   45.4177   32.5059   41.5987 O   0  0  0  0  0  0  0  0  0  0  0  0
   43.4022   31.5460   41.8452 N   0  0  0  0  0  0  0  0  0  0  0  0
   42.5996   30.5448   42.2750 C   0  0  0  0  0  0  0  0  0  0  0  0
   41.3760   30.6633   42.0491 O   0  0  0  0  0  0  0  0  0  0  0  0
   44.9219   28.5896   43.6305 H   0  0  0  0  0  0  0  0  0  0  0  0
   46.4151   30.4553   42.8294 H   0  0  0  0  0  0  0  0  0  0  0  0
   42.9744   32.3729   41.3456 H   0  0  0  0  0  0  0  0  0  0  0  0
  1 13  1  0
  2  1  1  0
  3  2  2  0
  4  3  1  0
  5  6  1  0
  5  4  2  0
  6 11  2  0
  7  8  2  0
  7  6  1  0
  8  9  1  0
  9 10  2  0
 10 12  1  0
 11 10  1  0
 11  2  1  0
 13 17  1  0
 14 15  1  0
 14 21  1  0
 16 15  2  0
 17 18  1  0
 17 16  1  0
 18 14  2  0
 20 19  2  0
 21 20  1  0
 22 21  2  0
 22 23  1  0
 23 24  2  0
 24 19  1  0
  1 25  1  0
  1 26  1  0
  3 27  1  0
  4 28  1  0
  5 29  1  0
  7 30  1  0
  8 31  1  0
  9 32  1  0
 12 33  1  0
 13 34  1  0
 13 35  1  0
 15 36  1  0
 16 37  1  0
 19 38  1  0
 20 39  1  0
 40 41  1  0
 41 42  2  0
 42 43  1  0
 43 44  2  0
 43 45  1  0
 45 46  1  0
 46 47  2  0
 46 40  1  0
 41 48  1  0
 42 49  1  0
 45 50  1  0
 23 40  1  0
M  ISO  8  25   8  26   8  27  14  28  14  29  14  30  14  31  14  32  14
M  ISO  7  33   3  34   8  35   8  36  14  37  14  38  14  39  14
M  END
>  <DihAtoms>  (1) 
21,22,39,40

>  <DihDeg>  (1) 
-99.47324157444048

$$$$
