REMARK  Name = 
REMARK  5 active torsions:
REMARK  status: ('A' for Active; 'I' for Inactive)
REMARK    1  A    between atoms: C_1  and  C_2
REMARK    2  A    between atoms: C_1  and  C_13
REMARK    3  A    between atoms: C_10  and  O_12
REMARK    4  A    between atoms: C_13  and  N_17
REMARK    5  A    between atoms: C_14  and  C_21
REMARK                            x       y       z     vdW  Elec       q    Type
REMARK                         _______ _______ _______ _____ _____    ______ ____
ROOT
ATOM      1  C   UNL     1      36.168  30.077  41.132  0.00  0.00    +0.000 C 
ATOM      2  H   UNL     1      35.559  30.578  41.933  0.00  0.00    +0.000 HD
ATOM      3  H   UNL     1      36.760  30.900  40.671  0.00  0.00    +0.000 HD
ENDROOT
BRANCH   1   7
ATOM      4  C   UNL     1      38.651  28.159  42.719  0.00  0.00    +0.000 A 
ATOM      5  C   UNL     1      37.561  27.348  42.869  0.00  0.00    +0.000 A 
ATOM      6  C   UNL     1      36.487  28.008  42.267  0.00  0.00    +0.000 A 
ATOM      7  N   UNL     1      37.016  29.155  41.808  0.00  0.00    +0.000 N 
ATOM      8  N   UNL     1      38.277  29.283  42.050  0.00  0.00    +0.000 NA
ATOM      9  H   UNL     1      37.568  26.382  43.367  0.00  0.00    +0.000 HD
ATOM     10  H   UNL     1      35.488  27.601  42.232  0.00  0.00    +0.000 HD
BRANCH   4  13
ATOM     11  C   UNL     1      41.576  26.553  44.375  0.00  0.00    +0.000 A 
ATOM     12  C   UNL     1      40.260  26.760  43.948  0.00  0.00    +0.000 A 
ATOM     13  C   UNL     1      39.998  27.905  43.179  0.00  0.00    +0.000 A 
ATOM     14  N   UNL     1      41.001  28.750  42.883  0.00  0.00    +0.000 NA
ATOM     15  C   UNL     1      42.277  28.497  43.329  0.00  0.00    +0.000 A 
ATOM     16  N   UNL     1      42.547  27.419  44.059  0.00  0.00    +0.000 NA
ATOM     17  H   UNL     1      41.853  25.687  44.974  0.00  0.00    +0.000 HD
ATOM     18  H   UNL     1      39.489  26.057  44.209  0.00  0.00    +0.000 HD
ATOM     19  N   UNL     1      43.195  29.523  42.902  0.00  0.00    +0.000 N 
ATOM     20  C   UNL     1      44.523  29.452  43.116  0.00  0.00    +0.000 A 
ATOM     21  C   UNL     1      45.342  30.475  42.676  0.00  0.00    +0.000 A 
ATOM     22  C   UNL     1      44.743  31.541  42.026  0.00  0.00    +0.000 A 
ATOM     23  O   UNL     1      45.418  32.506  41.599  0.00  0.00    +0.000 OA
ATOM     24  N   UNL     1      43.402  31.546  41.845  0.00  0.00    +0.000 N 
ATOM     25  C   UNL     1      42.600  30.545  42.275  0.00  0.00    +0.000 A 
ATOM     26  O   UNL     1      41.376  30.663  42.049  0.00  0.00    +0.000 OA
ATOM     27  H   UNL     1      42.974  32.373  41.346  0.00  0.00    +0.000 HD
ENDBRANCH   4  13
ENDBRANCH   1   7
BRANCH   1  28
ATOM     28  C   UNL     1      35.282  29.496  40.076  0.00  0.00    +0.000 C 
ATOM     29  H   UNL     1      34.553  30.367  39.958  0.00  0.00    +0.000 HD
ATOM     30  H   UNL     1      34.832  28.584  40.442  0.00  0.00    +0.000 HD
BRANCH  28  31
ATOM     31  C   UNL     1      35.894  29.426  38.728  0.00  0.00    +0.000 A 
ATOM     32  C   UNL     1      37.205  29.590  38.393  0.00  0.00    +0.000 A 
ATOM     33  C   UNL     1      37.721  29.597  37.134  0.00  0.00    +0.000 A 
ATOM     34  C   UNL     1      36.865  29.425  36.057  0.00  0.00    +0.000 A 
ATOM     35  C   UNL     1      35.514  29.250  36.327  0.00  0.00    +0.000 A 
ATOM     36  C   UNL     1      34.732  29.087  35.215  0.00  0.00    +0.000 A 
ATOM     37  C   UNL     1      33.382  28.901  35.372  0.00  0.00    +0.000 A 
ATOM     38  C   UNL     1      32.849  28.882  36.649  0.00  0.00    +0.000 A 
ATOM     39  C   UNL     1      33.694  29.052  37.705  0.00  0.00    +0.000 A 
ATOM     40  C   UNL     1      35.036  29.247  37.627  0.00  0.00    +0.000 A 
ATOM     41  H   UNL     1      37.886  29.727  39.234  0.00  0.00    +0.000 HD
ATOM     42  H   UNL     1      38.786  29.737  37.009  0.00  0.00    +0.000 HD
ATOM     43  H   UNL     1      37.292  29.436  35.076  0.00  0.00    +0.000 HD
ATOM     44  H   UNL     1      35.117  29.094  34.205  0.00  0.00    +0.000 HD
ATOM     45  H   UNL     1      32.747  28.772  34.505  0.00  0.00    +0.000 HD
ATOM     46  H   UNL     1      31.792  28.734  36.759  0.00  0.00    +0.000 HD
BRANCH  39  47
ATOM     47  O   UNL     1      33.095  29.005  38.956  0.00  0.00    +0.000 OA
ATOM     48  H   UNL     1      32.607  28.160  39.211  0.00  0.00    +0.000 HD
ENDBRANCH  39  47
ENDBRANCH  28  31
ENDBRANCH   1  28
TORSDOF 5
