
 OpenBabel03242508183D

 31 34  0  0  0  0  0  0  0  0999 V2000
   39.2160   27.5440   43.5660 C   0  0  0  0  0  0  0  0  0  0  0  0
   39.7310   26.6480   42.6280 C   0  0  0  0  0  0  0  0  0  0  0  0
   39.6490   26.9880   41.2830 C   0  0  0  0  0  0  0  0  0  0  0  0
   39.0680   28.1780   40.9470 N   0  0  0  0  0  0  0  0  0  0  0  0
   38.5780   29.0260   41.8850 C   0  0  0  0  0  0  0  0  0  0  0  0
   38.6550   28.7020   43.1970 N   0  0  0  0  0  0  0  0  0  0  0  0
   38.0240   30.1970   41.2940 N   0  0  0  0  0  0  0  0  0  0  0  0
   36.7090   30.2740   40.9770 C   0  0  0  0  0  0  0  0  0  0  0  0
   36.4270   31.4710   40.4360 N   0  0  0  0  0  0  0  0  0  0  0  0
   37.5720   32.1760   40.4030 C   0  0  0  0  0  0  0  0  0  0  0  0
   37.9240   33.4480   39.9690 C   0  0  0  0  0  0  0  0  0  0  0  0
   39.2110   33.8440   40.0910 N   0  0  0  0  0  0  0  0  0  0  0  0
   40.1510   33.0420   40.6170 C   0  0  0  0  0  0  0  0  0  0  0  0
   39.8290   31.7880   41.0500 N   0  0  0  0  0  0  0  0  0  0  0  0
   38.5540   31.3660   40.9420 C   0  0  0  0  0  0  0  0  0  0  0  0
   36.8690   34.2110   39.4330 N   0  0  0  0  0  0  0  0  0  0  0  0
   39.2460   27.3470   44.6310 H   0  0  0  0  0  0  0  0  0  0  0  0
   40.1810   25.7150   42.9540 H   0  0  0  0  0  0  0  0  0  0  0  0
   40.0400   26.3080   40.5530 H   0  0  0  0  0  0  0  0  0  0  0  0
   35.9510   29.5030   41.1210 H   0  0  0  0  0  0  0  0  0  0  0  0
   36.1020   34.6560   40.0170 H   0  0  0  0  0  0  0  0  0  0  0  0
   36.7400   34.4120   38.4160 H   0  0  0  0  0  0  0  0  0  0  0  0
   41.5030   33.4650   40.7420 N   0  0  0  0  0  0  0  0  0  0  0  0
   42.3640   32.4280   40.9150 C   0  0  0  0  0  0  0  0  0  0  0  0
   43.7320   32.6240   41.0580 C   0  0  0  0  0  0  0  0  0  0  0  0
   44.1720   33.9320   41.0150 C   0  0  0  0  0  0  0  0  0  0  0  0
   45.3990   34.1600   41.1410 O   0  0  0  0  0  0  0  0  0  0  0  0
   43.2820   34.9260   40.8430 N   0  0  0  0  0  0  0  0  0  0  0  0
   41.9710   34.7260   40.7070 C   0  0  0  0  0  0  0  0  0  0  0  0
   41.0940   35.6060   40.5440 O   0  0  0  0  0  0  0  0  0  0  0  0
   43.5980   35.9320   40.8080 H   0  0  0  0  0  0  0  0  0  0  0  0
  1 17  1  0  0  0  0
  2 18  1  0  0  0  0
  2  1  2  0  0  0  0
  3  2  1  0  0  0  0
  4  3  2  0  0  0  0
  4  5  1  0  0  0  0
  5  6  2  0  0  0  0
  6  1  1  0  0  0  0
  7  5  1  0  0  0  0
  8 20  1  0  0  0  0
  8  7  1  0  0  0  0
  9  8  2  0  0  0  0
 10  9  1  0  0  0  0
 10 15  1  0  0  0  0
 11 12  1  0  0  0  0
 11 10  2  0  0  0  0
 12 13  2  0  0  0  0
 13 23  1  0  0  0  0
 13 14  1  0  0  0  0
 15 14  2  0  0  0  0
 15  7  1  0  0  0  0
 16 11  1  0  0  0  0
 16 21  1  0  0  0  0
 19  3  1  0  0  0  0
 22 16  1  0  0  0  0
 23 24  1  0  0  0  0
 24 25  2  0  0  0  0
 26 25  1  0  0  0  0
 26 27  2  0  0  0  0
 28 26  1  0  0  0  0
 29 23  1  0  0  0  0
 29 28  1  0  0  0  0
 30 29  2  0  0  0  0
 31 28  1  0  0  0  0
M  END
>  <minimizedAffinity>
-6.9183712

>  <minimizedRMSD>
1.4900589

$$$$
