
 OpenBabel03242507183D

 46 50  0  0  0  0  0  0  0  0999 V2000
   35.4050   28.9830   39.9100 C   0  0  0  0  0  0  0  0  0  0  0  0
   36.5890   28.4650   40.4330 C   0  0  0  0  0  0  0  0  0  0  0  0
   37.5860   28.0880   39.5010 C   0  0  0  0  0  0  0  0  0  0  0  0
   37.3650   28.2390   38.1720 N   0  0  0  0  0  0  0  0  0  0  0  0
   36.1820   28.7530   37.7160 C   0  0  0  0  0  0  0  0  0  0  0  0
   35.1920   29.1300   38.5850 N   0  0  0  0  0  0  0  0  0  0  0  0
   34.6500   29.2680   40.6280 H   0  0  0  0  0  0  0  0  0  0  0  0
   38.5390   27.6760   39.8350 H   0  0  0  0  0  0  0  0  0  0  0  0
   36.8220   28.3090   41.7950 N   0  0  0  0  0  0  0  0  0  0  0  0
   36.2660   27.3990   42.6060 C   0  0  0  0  0  0  0  0  0  0  0  0
   36.7970   27.6320   43.8460 C   0  0  0  0  0  0  0  0  0  0  0  0
   37.6680   28.6760   43.7840 N   0  0  0  0  0  0  0  0  0  0  0  0
   37.6710   29.0820   42.5090 C   0  0  0  0  0  0  0  0  0  0  0  0
   38.5290   30.1820   42.2180 N   0  0  0  0  0  0  0  0  0  0  0  0
   39.7440   30.3380   42.8240 C   0  0  0  0  0  0  0  0  0  0  0  0
   40.3680   31.4710   42.3700 N   0  0  0  0  0  0  0  0  0  0  0  0
   39.5470   32.0370   41.4730 C   0  0  0  0  0  0  0  0  0  0  0  0
   39.6570   33.1790   40.7090 C   0  0  0  0  0  0  0  0  0  0  0  0
   38.6100   33.4380   39.9000 N   0  0  0  0  0  0  0  0  0  0  0  0
   37.5260   32.6610   39.8210 C   0  0  0  0  0  0  0  0  0  0  0  0
   37.4010   31.5360   40.5650 N   0  0  0  0  0  0  0  0  0  0  0  0
   38.4290   31.2480   41.3830 C   0  0  0  0  0  0  0  0  0  0  0  0
   40.8050   34.0230   40.7750 N   0  0  0  0  0  0  0  0  0  0  0  0
   35.5510   26.6300   42.3800 H   0  0  0  0  0  0  0  0  0  0  0  0
   36.5440   27.0520   44.7380 H   0  0  0  0  0  0  0  0  0  0  0  0
   40.2500   29.7480   43.5530 H   0  0  0  0  0  0  0  0  0  0  0  0
   36.7160   32.9220   39.1510 H   0  0  0  0  0  0  0  0  0  0  0  0
   41.6900   33.6530   40.3380 H   0  0  0  0  0  0  0  0  0  0  0  0
   40.6670   34.9400   41.2540 H   0  0  0  0  0  0  0  0  0  0  0  0
   35.8310   28.9620   36.2970 C   0  0  0  0  0  0  0  0  0  0  0  0
   34.3530   29.0530   36.0470 C   0  0  0  0  0  0  0  0  0  0  0  0
   34.0610   28.6190   35.0710 H   0  0  0  0  0  0  0  0  0  0  0  0
   33.7630   28.6650   36.9090 H   0  0  0  0  0  0  0  0  0  0  0  0
   34.1140   30.1460   36.0040 H   0  0  0  0  0  0  0  0  0  0  0  0
   36.3520   27.7840   35.4950 C   0  0  0  0  0  0  0  0  0  0  0  0
   35.6430   26.9340   35.7250 H   0  0  0  0  0  0  0  0  0  0  0  0
   36.2970   27.9200   34.4110 H   0  0  0  0  0  0  0  0  0  0  0  0
   37.3330   27.4100   35.8700 H   0  0  0  0  0  0  0  0  0  0  0  0
   36.5270   30.2130   35.7720 C   0  0  0  0  0  0  0  0  0  0  0  0
   37.5680   30.1580   36.1910 H   0  0  0  0  0  0  0  0  0  0  0  0
   36.0600   31.0730   36.2630 H   0  0  0  0  0  0  0  0  0  0  0  0
   36.5260   30.2910   34.3390 N   0  0  0  0  0  0  0  0  0  0  0  0
   36.6290   29.3290   33.4050 C   0  0  0  0  0  0  0  0  0  0  0  0
   36.5760   29.8920   32.1700 N   0  0  0  0  0  0  0  0  0  0  0  0
   36.4370   31.2370   32.3610 C   0  0  0  0  0  0  0  0  0  0  0  0
   36.4080   31.4550   33.6860 N   0  0  0  0  0  0  0  0  0  0  0  0
  1  2  1  0  0  0  0
  1  7  1  0  0  0  0
  2  9  1  0  0  0  0
  3  8  1  0  0  0  0
  3  2  2  0  0  0  0
  4  3  1  0  0  0  0
  5  4  2  0  0  0  0
  5  6  1  0  0  0  0
  6  1  2  0  0  0  0
  9 13  1  0  0  0  0
  9 10  1  0  0  0  0
 10 11  2  0  0  0  0
 11 25  1  0  0  0  0
 12 11  1  0  0  0  0
 13 12  2  0  0  0  0
 14 13  1  0  0  0  0
 14 15  1  0  0  0  0
 15 26  1  0  0  0  0
 16 15  2  0  0  0  0
 17 16  1  0  0  0  0
 18 23  1  0  0  0  0
 18 17  2  0  0  0  0
 19 18  1  0  0  0  0
 20 19  2  0  0  0  0
 20 21  1  0  0  0  0
 21 22  2  0  0  0  0
 22 17  1  0  0  0  0
 22 14  1  0  0  0  0
 23 29  1  0  0  0  0
 24 10  1  0  0  0  0
 27 20  1  0  0  0  0
 28 23  1  0  0  0  0
 30  5  1  0  0  0  0
 31 30  1  0  0  0  0
 31 33  1  0  0  0  0
 32 31  1  0  0  0  0
 34 31  1  0  0  0  0
 35 36  1  0  0  0  0
 35 38  1  0  0  0  0
 35 30  1  0  0  0  0
 37 35  1  0  0  0  0
 39 40  1  0  0  0  0
 39 41  1  0  0  0  0
 39 30  1  0  0  0  0
 42 39  1  0  0  0  0
 43 42  1  0  0  0  0
 44 45  1  0  0  0  0
 44 43  2  0  0  0  0
 45 46  2  0  0  0  0
 46 42  1  0  0  0  0
M  END
>  <minimizedAffinity>
-6.16087675

>  <minimizedRMSD>
1.05681217

$$$$
