
 OpenBabel03242509313D

 21 22  0  0  0  0  0  0  0  0999 V2000
   37.8010   28.6560   43.6110 C   0  0  0  0  0  0  0  0  0  0  0  0
   38.2630   27.3220   43.7240 C   0  0  0  0  0  0  0  0  0  0  0  0
   38.4050   26.5760   42.5420 C   0  0  0  0  0  0  0  0  0  0  0  0
   38.0880   27.1850   41.3430 N   0  0  0  0  0  0  0  0  0  0  0  0
   37.6530   28.4580   41.2980 C   0  0  0  0  0  0  0  0  0  0  0  0
   37.5170   29.1680   42.4140 N   0  0  0  0  0  0  0  0  0  0  0  0
   37.6720   29.2770   44.4850 H   0  0  0  0  0  0  0  0  0  0  0  0
   38.4880   26.9220   44.7040 H   0  0  0  0  0  0  0  0  0  0  0  0
   37.3480   29.0080   40.0130 N   0  0  0  0  0  0  0  0  0  0  0  0
   36.6020   30.0630   39.6830 C   0  0  0  0  0  3  0  0  0  0  0  0
   36.4590   30.3950   38.3530 C   0  0  0  0  0  3  0  0  0  0  0  0
   37.0640   29.6710   37.3560 C   0  0  0  0  0  0  0  0  0  0  0  0
   36.9080   30.0100   36.1490 O   0  0  0  0  0  0  0  0  0  0  0  0
   37.8150   28.6050   37.7330 N   0  0  0  0  0  0  0  0  0  0  0  0
   37.9570   28.2750   39.0450 C   0  0  0  0  0  0  0  0  0  0  0  0
   38.6910   27.2550   39.1970 O   0  0  0  0  0  0  0  0  0  0  0  0
   38.2550   28.0850   36.9410 H   0  0  0  0  0  0  0  0  0  0  0  0
   38.8850   25.1780   42.6210 C   0  0  0  0  0  0  0  0  0  0  0  0
   39.6730   24.9750   41.5110 F   0  0  0  0  0  0  0  0  0  0  0  0
   39.6520   24.9470   43.7390 F   0  0  0  0  0  0  0  0  0  0  0  0
   37.8190   24.2690   42.5970 F   0  0  0  0  0  0  0  0  0  0  0  0
  1  2  1  0  0  0  0
  1  7  1  0  0  0  0
  2  8  1  0  0  0  0
  3 18  1  0  0  0  0
  3  2  2  0  0  0  0
  4  3  1  0  0  0  0
  5  4  2  0  0  0  0
  5  6  1  0  0  0  0
  6  1  2  0  0  0  0
  9  5  1  0  0  0  0
 10  9  1  0  0  0  0
 11 10  2  0  0  0  0
 12 14  1  0  0  0  0
 12 11  1  0  0  0  0
 13 12  2  0  0  0  0
 14 15  1  0  0  0  0
 15 16  2  0  0  0  0
 15  9  1  0  0  0  0
 17 14  1  0  0  0  0
 18 20  1  0  0  0  0
 19 18  1  0  0  0  0
 21 18  1  0  0  0  0
M  END
>  <minimizedAffinity>
-4.61392498

>  <minimizedRMSD>
1.9108243

$$$$
