
 OpenBabel03242509313D

 21 22  0  0  0  0  0  0  0  0999 V2000
   37.6630   28.5270   43.6590 C   0  0  0  0  0  0  0  0  0  0  0  0
   38.4390   27.3460   43.7660 C   0  0  0  0  0  0  0  0  0  0  0  0
   38.3800   26.4250   42.7070 C   0  0  0  0  0  0  0  0  0  0  0  0
   37.5710   26.7230   41.6270 N   0  0  0  0  0  0  0  0  0  0  0  0
   36.8560   27.8620   41.5810 C   0  0  0  0  0  0  0  0  0  0  0  0
   36.9090   28.7380   42.5810 N   0  0  0  0  0  0  0  0  0  0  0  0
   37.6690   29.2700   44.4420 H   0  0  0  0  0  0  0  0  0  0  0  0
   39.0460   27.1910   44.6480 H   0  0  0  0  0  0  0  0  0  0  0  0
   36.0450   28.0890   40.4240 N   0  0  0  0  0  0  0  0  0  0  0  0
   35.1880   29.0740   40.1530 C   0  0  0  0  0  3  0  0  0  0  0  0
   34.5180   29.0690   38.9490 C   0  0  0  0  0  3  0  0  0  0  0  0
   34.7070   28.0770   38.0180 C   0  0  0  0  0  0  0  0  0  0  0  0
   34.0720   28.1090   36.9270 O   0  0  0  0  0  0  0  0  0  0  0  0
   35.5870   27.0920   38.3320 N   0  0  0  0  0  0  0  0  0  0  0  0
   36.2500   27.0960   39.5210 C   0  0  0  0  0  0  0  0  0  0  0  0
   37.0230   26.1000   39.6310 O   0  0  0  0  0  0  0  0  0  0  0  0
   35.6970   26.3610   37.5960 H   0  0  0  0  0  0  0  0  0  0  0  0
   39.1770   25.1810   42.7830 C   0  0  0  0  0  0  0  0  0  0  0  0
   40.0330   25.2010   41.7050 F   0  0  0  0  0  0  0  0  0  0  0  0
   39.9330   25.1100   43.9300 F   0  0  0  0  0  0  0  0  0  0  0  0
   38.3610   24.0440   42.6990 F   0  0  0  0  0  0  0  0  0  0  0  0
  1  2  1  0  0  0  0
  1  7  1  0  0  0  0
  2  8  1  0  0  0  0
  3 18  1  0  0  0  0
  3  2  2  0  0  0  0
  4  3  1  0  0  0  0
  5  4  2  0  0  0  0
  5  6  1  0  0  0  0
  6  1  2  0  0  0  0
  9  5  1  0  0  0  0
 10  9  1  0  0  0  0
 11 10  2  0  0  0  0
 12 14  1  0  0  0  0
 12 11  1  0  0  0  0
 13 12  2  0  0  0  0
 14 15  1  0  0  0  0
 15 16  2  0  0  0  0
 15  9  1  0  0  0  0
 17 14  1  0  0  0  0
 18 20  1  0  0  0  0
 19 18  1  0  0  0  0
 21 18  1  0  0  0  0
M  END
>  <minimizedAffinity>
-4.86307812

>  <minimizedRMSD>
1.84184015

$$$$
