
 OpenBabel03242509303D

 22 23  0  0  0  0  0  0  0  0999 V2000
   38.1710   28.4820   43.4630 C   0  0  0  0  0  0  0  0  0  0  0  0
   38.7120   27.1810   43.5760 C   0  0  0  0  0  0  0  0  0  0  0  0
   38.3790   26.2680   42.5690 C   0  0  0  0  0  0  0  0  0  0  0  0
   37.5600   26.6800   41.5460 N   0  0  0  0  0  0  0  0  0  0  0  0
   37.0750   27.9250   41.4860 C   0  0  0  0  0  0  0  0  0  0  0  0
   37.3770   28.8150   42.4330 N   0  0  0  0  0  0  0  0  0  0  0  0
   38.4030   29.2240   44.2210 H   0  0  0  0  0  0  0  0  0  0  0  0
   39.3490   26.9190   44.4040 H   0  0  0  0  0  0  0  0  0  0  0  0
   36.2500   28.1310   40.3410 N   0  0  0  0  0  0  0  0  0  0  0  0
   35.2020   28.9550   40.5820 C   0  0  0  0  0  3  0  0  0  0  0  0
   34.3080   29.2520   39.5650 C   0  0  0  0  0  3  0  0  0  0  0  0
   34.5700   28.6620   38.3430 C   0  0  0  0  0  0  0  0  0  0  0  0
   33.6700   28.9410   37.2570 N   0  0  0  0  0  0  0  0  0  0  0  0
   35.6250   27.8460   38.1420 N   0  0  0  0  0  0  0  0  0  0  0  0
   36.4770   27.5780   39.1560 C   0  0  0  0  0  0  0  0  0  0  0  0
   37.4790   26.8330   39.0530 O   0  0  0  0  0  0  0  0  0  0  0  0
   33.4530   28.1430   36.6480 H   0  0  0  0  0  0  0  0  0  0  0  0
   33.2050   29.8140   36.9900 H   0  0  0  0  0  0  0  0  0  0  0  0
   38.9240   24.8770   42.6400 C   0  0  0  0  0  0  0  0  0  0  0  0
   39.7230   24.7210   41.5290 F   0  0  0  0  0  0  0  0  0  0  0  0
   39.6940   24.6820   43.7580 F   0  0  0  0  0  0  0  0  0  0  0  0
   37.9060   23.9230   42.6150 F   0  0  0  0  0  0  0  0  0  0  0  0
  1  2  1  0  0  0  0
  1  7  1  0  0  0  0
  2  8  1  0  0  0  0
  3 19  1  0  0  0  0
  3  2  2  0  0  0  0
  4  3  1  0  0  0  0
  5  4  2  0  0  0  0
  5  6  1  0  0  0  0
  6  1  2  0  0  0  0
  9 10  1  0  0  0  0
  9  5  1  0  0  0  0
 11 10  2  0  0  0  0
 12 11  1  0  0  0  0
 13 12  1  0  0  0  0
 14 12  2  0  0  0  0
 14 15  1  0  0  0  0
 15  9  1  0  0  0  0
 16 15  2  0  0  0  0
 17 13  1  0  0  0  0
 18 13  1  0  0  0  0
 19 21  1  0  0  0  0
 20 19  1  0  0  0  0
 22 19  1  0  0  0  0
M  END
>  <minimizedAffinity>
-4.98553848

>  <minimizedRMSD>
1.58515179

$$$$
