
 OpenBabel03242507563D

 29 32  0  0  0  0  0  0  0  0999 V2000
   37.1690   26.8220   41.5780 C   0  0  0  0  0  0  0  0  0  0  0  0
   37.7530   26.6520   42.8290 C   0  0  0  0  0  0  0  0  0  0  0  0
   37.9490   27.8020   43.5910 C   0  0  0  0  0  0  0  0  0  0  0  0
   37.5530   29.0300   43.0620 C   0  0  0  0  0  0  0  0  0  0  0  0
   36.9850   29.1560   41.8380 C   0  0  0  0  0  0  0  0  0  0  0  0
   36.8020   28.0460   41.1130 N   0  0  0  0  0  0  0  0  0  0  0  0
   38.0260   25.6520   43.1480 H   0  0  0  0  0  0  0  0  0  0  0  0
   38.3990   27.6340   44.5420 H   0  0  0  0  0  0  0  0  0  0  0  0
   37.7210   29.8980   43.6850 H   0  0  0  0  0  0  0  0  0  0  0  0
   37.1010   23.3310   40.4610 C   0  0  0  0  0  0  0  0  0  0  0  0
   36.5290   23.4090   39.1830 C   0  0  0  0  0  0  0  0  0  0  0  0
   36.1680   24.6700   38.7110 C   0  0  0  0  0  0  0  0  0  0  0  0
   36.3990   25.7340   39.5260 N   0  0  0  0  0  0  0  0  0  0  0  0
   36.9410   25.6420   40.7350 C   0  0  0  0  0  0  0  0  0  0  0  0
   37.2840   24.4370   41.1810 N   0  0  0  0  0  0  0  0  0  0  0  0
   37.4210   22.3950   40.9280 H   0  0  0  0  0  0  0  0  0  0  0  0
   36.3960   22.5050   38.6310 H   0  0  0  0  0  0  0  0  0  0  0  0
   35.7260   24.7620   37.7310 H   0  0  0  0  0  0  0  0  0  0  0  0
   36.5050   30.7600   41.2280 S   0  0  0  0  0  0  0  0  0  0  0  0
   39.6470   32.4850   36.4330 H   0  0  0  0  0  0  0  0  0  0  0  0
   38.9110   32.0810   37.0800 N   0  0  0  0  0  0  0  0  0  0  0  0
   37.7450   31.4430   36.8460 C   0  0  0  0  0  0  0  0  0  0  0  0
   37.1900   31.1390   38.0440 N   0  0  0  0  0  0  0  0  0  0  0  0
   38.0220   31.5930   39.0000 C   0  0  0  0  0  0  0  0  0  0  0  0
   37.8790   31.5130   40.3710 C   0  0  0  0  0  0  0  0  0  0  0  0
   38.8710   32.0550   41.1380 N   0  0  0  0  0  0  0  0  0  0  0  0
   39.9440   32.6420   40.5530 C   0  0  0  0  0  0  0  0  0  0  0  0
   40.0720   32.7130   39.2170 N   0  0  0  0  0  0  0  0  0  0  0  0
   39.1190   32.1920   38.4180 C   0  0  0  0  0  0  0  0  0  0  0  0
  1  2  1  0  0  0  0
  2  7  1  0  0  0  0
  2  3  2  0  0  0  0
  3  8  1  0  0  0  0
  4  3  1  0  0  0  0
  4  9  1  0  0  0  0
  5  4  2  0  0  0  0
  6  1  2  0  0  0  0
  6  5  1  0  0  0  0
 10 16  1  0  0  0  0
 10 15  1  0  0  0  0
 11 10  2  0  0  0  0
 12 11  1  0  0  0  0
 12 13  2  0  0  0  0
 13 14  1  0  0  0  0
 14 15  2  0  0  0  0
 14  1  1  0  0  0  0
 17 11  1  0  0  0  0
 18 12  1  0  0  0  0
 19  5  1  0  0  0  0
 20 21  1  0  0  0  0
 21 29  1  0  0  0  0
 22 21  1  0  0  0  0
 22 23  2  0  0  0  0
 23 24  1  0  0  0  0
 24 25  1  0  0  0  0
 25 26  2  0  0  0  0
 25 19  1  0  0  0  0
 27 26  1  0  0  0  0
 28 27  2  0  0  0  0
 29 24  2  0  0  0  0
 29 28  1  0  0  0  0
M  END
>  <minimizedAffinity>
-5.57278442

>  <minimizedRMSD>
5.29635763

$$$$
