
 OpenBabel03242509313D

 22 23  0  0  0  0  0  0  0  0999 V2000
   37.3890   27.9720   43.7910 C   0  0  0  0  0  0  0  0  0  0  0  0
   37.4590   26.8520   42.9300 C   0  0  0  0  0  0  0  0  0  0  0  0
   37.7000   27.1100   41.5760 C   0  0  0  0  0  0  0  0  0  0  0  0
   37.8520   28.4130   41.1660 N   0  0  0  0  0  0  0  0  0  0  0  0
   37.7780   29.4370   42.0230 C   0  0  0  0  0  0  0  0  0  0  0  0
   37.5490   29.2190   43.3200 N   0  0  0  0  0  0  0  0  0  0  0  0
   37.2040   27.8200   44.8500 H   0  0  0  0  0  0  0  0  0  0  0  0
   37.3300   25.8550   43.3130 H   0  0  0  0  0  0  0  0  0  0  0  0
   37.9660   30.6970   41.3810 N   0  0  0  0  0  0  0  0  0  0  0  0
   39.2440   31.1450   41.4550 C   0  0  0  0  0  3  0  0  0  0  0  0
   39.5840   32.3570   40.8770 C   0  0  0  0  0  3  0  0  0  0  0  0
   38.5560   33.0330   40.2480 C   0  0  0  0  0  0  0  0  0  0  0  0
   38.8620   34.2960   39.6340 N   0  0  0  0  0  0  0  0  0  0  0  0
   37.2960   32.5540   40.1950 N   0  0  0  0  0  0  0  0  0  0  0  0
   36.9980   31.3670   40.7700 C   0  0  0  0  0  0  0  0  0  0  0  0
   35.8570   30.8520   40.7670 O   0  0  0  0  0  0  0  0  0  0  0  0
   38.1470   35.0270   39.7450 H   0  0  0  0  0  0  0  0  0  0  0  0
   39.6840   34.5900   39.0970 H   0  0  0  0  0  0  0  0  0  0  0  0
   37.7830   25.9620   40.6210 C   0  0  0  0  0  0  0  0  0  0  0  0
   38.2460   26.4840   39.4340 F   0  0  0  0  0  0  0  0  0  0  0  0
   38.6660   25.0020   41.0450 F   0  0  0  0  0  0  0  0  0  0  0  0
   36.5350   25.3740   40.4140 F   0  0  0  0  0  0  0  0  0  0  0  0
  1  7  1  0  0  0  0
  2  8  1  0  0  0  0
  2  1  2  0  0  0  0
  3  2  1  0  0  0  0
  4  3  2  0  0  0  0
  4  5  1  0  0  0  0
  5  6  2  0  0  0  0
  6  1  1  0  0  0  0
  9 10  1  0  0  0  0
  9  5  1  0  0  0  0
 11 10  2  0  0  0  0
 12 11  1  0  0  0  0
 13 17  1  0  0  0  0
 13 12  1  0  0  0  0
 14 12  2  0  0  0  0
 14 15  1  0  0  0  0
 15  9  1  0  0  0  0
 16 15  2  0  0  0  0
 18 13  1  0  0  0  0
 19 21  1  0  0  0  0
 19  3  1  0  0  0  0
 20 19  1  0  0  0  0
 22 19  1  0  0  0  0
M  END
>  <minimizedAffinity>
-5.25137281

>  <minimizedRMSD>
3.01257181

$$$$
