
     RDKit          3D

 24 25  0  0  0  0  0  0  0  0999 V2000
   37.9682   28.8768   43.3716 C   0  0  0  0  0  0  0  0  0  0  0  0
   38.0840   27.4688   43.3146 C   0  0  0  0  0  0  0  0  0  0  0  0
   37.4370   26.8243   42.2550 C   0  0  0  0  0  0  0  0  0  0  0  0
   36.7383   27.5814   41.3459 N   0  0  0  0  0  0  0  0  0  0  0  0
   36.6602   28.9126   41.4460 C   0  0  0  0  0  0  0  0  0  0  0  0
   37.2677   29.5515   42.4465 N   0  0  0  0  0  0  0  0  0  0  0  0
   37.5272   25.3355   42.1471 C   0  0  0  0  0  0  0  0  0  0  0  0
   37.6497   25.0552   40.8039 F   0  0  0  0  0  0  0  0  0  0  0  0
   38.6293   24.8373   42.7953 F   0  0  0  0  0  0  0  0  0  0  0  0
   36.3844   24.7115   42.6471 F   0  0  0  0  0  0  0  0  0  0  0  0
   38.4541   29.4202   44.1769 H   0  0  0  0  0  0  0  0  0  0  0  0
   38.6471   26.9320   44.0592 H   0  0  0  0  0  0  0  0  0  0  0  0
   35.8865   29.4905   40.3972 N   0  0  0  0  0  0  0  0  0  0  0  0
   35.7778   28.6864   39.3116 C   0  0  0  0  0  0  0  0  0  0  0  0
   35.0544   29.1106   38.2079 C   0  0  0  0  0  0  0  0  0  0  0  0
   34.4828   30.3644   38.3093 C   0  0  0  0  0  0  0  0  0  0  0  0
   33.7228   30.8461   37.1880 N   0  0  0  0  0  0  0  0  0  0  0  0
   34.6134   31.1360   39.4073 N   0  0  0  0  0  0  0  0  0  0  0  0
   35.3261   30.6915   40.4665 C   0  0  0  0  0  0  0  0  0  0  0  0
   35.4957   31.3437   41.5219 O   0  0  0  0  0  0  0  0  0  0  0  0
   36.2220   27.7008   39.2209 H   0  0  0  0  0  0  0  0  0  0  0  0
   34.9255   28.5330   37.3190 H   0  0  0  0  0  0  0  0  0  0  0  0
   33.8430   31.8428   36.9682 H   0  0  0  0  0  0  0  0  0  0  0  0
   33.0742   30.3534   36.5655 H   0  0  0  0  0  0  0  0  0  0  0  0
  2  1  2  0
  3  2  1  0
  4  5  1  0
  4  3  2  0
  5  6  2  0
  6  1  1  0
  7  3  1  0
  7 10  1  0
  7  9  1  0
  8  7  1  0
  1 11  1  0
  2 12  1  0
 13 14  1  0
 14 15  2  0
 15 16  1  0
 16 17  1  0
 16 18  2  0
 18 19  1  0
 19 20  2  0
 19 13  1  0
 14 21  1  0
 15 22  1  0
 17 23  1  0
 17 24  1  0
  5 13  1  0
M  ISO  2  11  14  12  14
M  END
>  <DihAtoms>  (1) 
3,4,12,13

>  <DihDeg>  (1) 
144.1355201195125

$$$$
