
 OpenBabel03242506503D

 42 46  0  0  0  0  0  0  0  0999 V2000
   41.1040   26.9490   43.4350 O   0  0  0  0  0  0  0  0  0  0  0  0
   37.1330   29.0980   43.2990 N   0  0  0  0  0  0  0  0  0  0  0  0
   36.9990   27.8320   43.7400 C   0  0  0  0  0  0  0  0  0  0  0  0
   38.2350   27.2750   43.7460 N   0  0  0  0  0  0  0  0  0  0  0  0
   39.1530   28.1840   43.3080 C   0  0  0  0  0  0  0  0  0  0  0  0
   40.5210   28.1480   43.1200 C   0  0  0  0  0  0  0  0  0  0  0  0
   41.1460   29.2660   42.6570 N   0  0  0  0  0  0  0  0  0  0  0  0
   40.4080   30.3660   42.3980 C   0  0  0  0  0  0  0  0  0  0  0  0
   39.0780   30.4430   42.5660 N   0  0  0  0  0  0  0  0  0  0  0  0
   38.4210   29.3360   43.0320 C   0  0  0  0  0  0  0  0  0  0  0  0
   36.4040   29.8430   43.1570 H   0  0  0  0  0  0  0  0  0  0  0  0
   36.0440   27.4500   44.0080 H   0  0  0  0  0  0  0  0  0  0  0  0
   41.0380   31.5460   41.9130 N   0  0  0  0  0  0  0  0  0  0  0  0
   40.3580   32.2460   40.9680 C   0  0  0  0  0  0  0  0  0  0  0  0
   40.8920   33.4210   40.4270 C   0  0  0  0  0  0  0  0  0  0  0  0
   42.1260   33.8180   40.8980 C   0  0  0  0  0  0  0  0  0  0  0  0
   42.7030   35.0080   40.3720 N   0  0  0  0  0  0  0  0  0  0  0  0
   42.7800   33.0890   41.8480 N   0  0  0  0  0  0  0  0  0  0  0  0
   42.2580   31.9640   42.3590 C   0  0  0  0  0  0  0  0  0  0  0  0
   42.8190   31.2580   43.2340 O   0  0  0  0  0  0  0  0  0  0  0  0
   42.6540   35.0560   39.3120 H   0  0  0  0  0  0  0  0  0  0  0  0
   43.1730   35.8800   40.7090 H   0  0  0  0  0  0  0  0  0  0  0  0
   44.5820   26.4290   44.4160 C   0  0  0  0  0  0  0  0  0  0  0  0
   43.4150   26.4470   43.6310 C   0  0  0  0  0  0  0  0  0  0  0  0
   42.2390   26.9320   44.1990 C   0  0  0  0  0  0  0  0  0  0  0  0
   42.2860   27.3660   45.4990 N   0  0  0  0  0  0  0  0  0  0  0  0
   43.4220   27.3330   46.2170 C   0  0  0  0  0  0  0  0  0  0  0  0
   44.5690   26.8670   45.6820 N   0  0  0  0  0  0  0  0  0  0  0  0
   45.4750   26.0460   43.9390 H   0  0  0  0  0  0  0  0  0  0  0  0
   43.3750   25.9820   42.2500 C   0  0  0  0  0  0  0  0  0  0  0  0
   44.4040   26.1420   41.3520 C   0  0  0  0  0  0  0  0  0  0  0  0
   44.4010   25.7160   40.0440 C   0  0  0  0  0  0  0  0  0  0  0  0
   43.2650   25.0790   39.6100 N   0  0  0  0  0  0  0  0  0  0  0  0
   42.2500   24.9160   40.4820 C   0  0  0  0  0  0  0  0  0  0  0  0
   42.2960   25.3500   41.7570 N   0  0  0  0  0  0  0  0  0  0  0  0
   45.3050   26.6470   41.6920 H   0  0  0  0  0  0  0  0  0  0  0  0
   45.2480   25.8760   39.3890 H   0  0  0  0  0  0  0  0  0  0  0  0
   41.3180   24.4200   40.2120 H   0  0  0  0  0  0  0  0  0  0  0  0
   43.3910   27.8240   47.6270 C   0  0  0  0  0  0  0  0  0  0  0  0
   43.3500   29.2110   47.6610 F   0  0  0  0  0  0  0  0  0  0  0  0
   42.2150   27.4210   48.2600 F   0  0  0  0  0  0  0  0  0  0  0  0
   44.5160   27.4360   48.3480 F   0  0  0  0  0  0  0  0  0  0  0  0
  1 25  1  0  0  0  0
  2  3  1  0  0  0  0
  3  4  2  0  0  0  0
  3 12  1  0  0  0  0
  5  4  1  0  0  0  0
  6  5  1  0  0  0  0
  6  1  1  0  0  0  0
  7  6  2  0  0  0  0
  8  9  2  0  0  0  0
  8  7  1  0  0  0  0
  9 10  1  0  0  0  0
 10  2  1  0  0  0  0
 10  5  2  0  0  0  0
 11  2  1  0  0  0  0
 13 19  1  0  0  0  0
 13  8  1  0  0  0  0
 14 13  1  0  0  0  0
 15 16  1  0  0  0  0
 15 14  2  0  0  0  0
 16 18  2  0  0  0  0
 17 22  1  0  0  0  0
 17 16  1  0  0  0  0
 18 19  1  0  0  0  0
 19 20  2  0  0  0  0
 21 17  1  0  0  0  0
 23 28  1  0  0  0  0
 24 25  1  0  0  0  0
 24 23  2  0  0  0  0
 25 26  2  0  0  0  0
 26 27  1  0  0  0  0
 27 39  1  0  0  0  0
 28 27  2  0  0  0  0
 29 23  1  0  0  0  0
 30 24  1  0  0  0  0
 31 36  1  0  0  0  0
 31 30  2  0  0  0  0
 32 31  1  0  0  0  0
 33 32  2  0  0  0  0
 33 34  1  0  0  0  0
 34 35  2  0  0  0  0
 35 30  1  0  0  0  0
 37 32  1  0  0  0  0
 38 34  1  0  0  0  0
 39 40  1  0  0  0  0
 39 41  1  0  0  0  0
 39 42  1  0  0  0  0
M  END
>  <minimizedAffinity>
-7.08693409

>  <minimizedRMSD>
0.0575045347

$$$$
