
 OpenBabel03242509303D

 22 23  0  0  0  0  0  0  0  0999 V2000
   37.8670   28.6840   43.5100 C   0  0  0  0  0  0  0  0  0  0  0  0
   38.3730   27.3740   43.6690 C   0  0  0  0  0  0  0  0  0  0  0  0
   38.4040   26.5650   42.5280 C   0  0  0  0  0  0  0  0  0  0  0  0
   37.9490   27.0800   41.3380 N   0  0  0  0  0  0  0  0  0  0  0  0
   37.4790   28.3300   41.2420 C   0  0  0  0  0  0  0  0  0  0  0  0
   37.4400   29.1210   42.3150 N   0  0  0  0  0  0  0  0  0  0  0  0
   37.8240   29.3470   44.3690 H   0  0  0  0  0  0  0  0  0  0  0  0
   38.7150   27.0280   44.6300 H   0  0  0  0  0  0  0  0  0  0  0  0
   37.0630   28.6520   39.9170 N   0  0  0  0  0  0  0  0  0  0  0  0
   35.9510   27.9800   39.5310 C   0  0  0  0  0  3  0  0  0  0  0  0
   35.4240   28.1880   38.2660 C   0  0  0  0  0  3  0  0  0  0  0  0
   36.1010   29.0950   37.4740 C   0  0  0  0  0  0  0  0  0  0  0  0
   35.5890   29.3410   36.1530 N   0  0  0  0  0  0  0  0  0  0  0  0
   37.2060   29.7430   37.8940 N   0  0  0  0  0  0  0  0  0  0  0  0
   37.6940   29.5180   39.1340 C   0  0  0  0  0  0  0  0  0  0  0  0
   38.7120   30.0770   39.6000 O   0  0  0  0  0  0  0  0  0  0  0  0
   36.2990   29.4460   35.4170 H   0  0  0  0  0  0  0  0  0  0  0  0
   34.6230   29.4310   35.8210 H   0  0  0  0  0  0  0  0  0  0  0  0
   38.9290   25.1690   42.6400 C   0  0  0  0  0  0  0  0  0  0  0  0
   39.7460   24.9780   41.5470 F   0  0  0  0  0  0  0  0  0  0  0  0
   39.6780   24.9900   43.7750 F   0  0  0  0  0  0  0  0  0  0  0  0
   37.9010   24.2280   42.6190 F   0  0  0  0  0  0  0  0  0  0  0  0
  1  2  1  0  0  0  0
  1  7  1  0  0  0  0
  2  8  1  0  0  0  0
  3 19  1  0  0  0  0
  3  2  2  0  0  0  0
  4  3  1  0  0  0  0
  5  4  2  0  0  0  0
  5  6  1  0  0  0  0
  6  1  2  0  0  0  0
  9  5  1  0  0  0  0
 10  9  1  0  0  0  0
 11 10  2  0  0  0  0
 12 14  2  0  0  0  0
 12 11  1  0  0  0  0
 13 12  1  0  0  0  0
 14 15  1  0  0  0  0
 15 16  2  0  0  0  0
 15  9  1  0  0  0  0
 17 13  1  0  0  0  0
 18 13  1  0  0  0  0
 19 21  1  0  0  0  0
 20 19  1  0  0  0  0
 22 19  1  0  0  0  0
M  END
>  <minimizedAffinity>
-4.64125776

>  <minimizedRMSD>
1.72227669

$$$$
