
 OpenBabel03242509313D

 22 23  0  0  0  0  0  0  0  0999 V2000
   38.4900   25.3420   42.4040 C   0  0  0  0  0  0  0  0  0  0  0  0
   38.7350   24.0940   41.7850 C   0  0  0  0  0  0  0  0  0  0  0  0
   38.1570   23.8880   40.5270 C   0  0  0  0  0  0  0  0  0  0  0  0
   37.3990   24.8910   39.9740 N   0  0  0  0  0  0  0  0  0  0  0  0
   37.1980   26.0550   40.6030 C   0  0  0  0  0  0  0  0  0  0  0  0
   37.7380   26.2770   41.8030 N   0  0  0  0  0  0  0  0  0  0  0  0
   38.9180   25.5460   43.3810 H   0  0  0  0  0  0  0  0  0  0  0  0
   39.3390   23.3470   42.2710 H   0  0  0  0  0  0  0  0  0  0  0  0
   36.3820   26.9470   39.8460 N   0  0  0  0  0  0  0  0  0  0  0  0
   36.0930   26.4790   38.6070 C   0  0  0  0  0  3  0  0  0  0  0  0
   35.3060   27.2350   37.7510 C   0  0  0  0  0  3  0  0  0  0  0  0
   34.8680   28.4460   38.2500 C   0  0  0  0  0  0  0  0  0  0  0  0
   34.0500   29.2650   37.3960 N   0  0  0  0  0  0  0  0  0  0  0  0
   35.1790   28.8780   39.4880 N   0  0  0  0  0  0  0  0  0  0  0  0
   35.9470   28.1150   40.2980 C   0  0  0  0  0  0  0  0  0  0  0  0
   36.2810   28.4420   41.4600 O   0  0  0  0  0  0  0  0  0  0  0  0
   34.2410   30.2730   37.4350 H   0  0  0  0  0  0  0  0  0  0  0  0
   33.3000   29.0040   36.7480 H   0  0  0  0  0  0  0  0  0  0  0  0
   38.3840   22.5860   39.8280 C   0  0  0  0  0  0  0  0  0  0  0  0
   39.5840   22.7120   39.1630 F   0  0  0  0  0  0  0  0  0  0  0  0
   38.4870   21.5390   40.7090 F   0  0  0  0  0  0  0  0  0  0  0  0
   37.3720   22.3110   38.9100 F   0  0  0  0  0  0  0  0  0  0  0  0
  1  7  1  0  0  0  0
  2  8  1  0  0  0  0
  2  1  2  0  0  0  0
  3  2  1  0  0  0  0
  4  3  2  0  0  0  0
  4  5  1  0  0  0  0
  5  6  2  0  0  0  0
  6  1  1  0  0  0  0
  9 15  1  0  0  0  0
  9  5  1  0  0  0  0
 10  9  1  0  0  0  0
 11 12  1  0  0  0  0
 11 10  2  0  0  0  0
 12 14  2  0  0  0  0
 13 17  1  0  0  0  0
 13 12  1  0  0  0  0
 14 15  1  0  0  0  0
 15 16  2  0  0  0  0
 18 13  1  0  0  0  0
 19  3  1  0  0  0  0
 19 21  1  0  0  0  0
 20 19  1  0  0  0  0
 22 19  1  0  0  0  0
M  END
>  <minimizedAffinity>
-3.80079746

>  <minimizedRMSD>
3.13410687

$$$$
