
 OpenBabel03242509303D

 22 23  0  0  0  0  0  0  0  0999 V2000
   37.8630   28.6970   43.5560 C   0  0  0  0  0  0  0  0  0  0  0  0
   38.3760   27.3860   43.6910 C   0  0  0  0  0  0  0  0  0  0  0  0
   38.3740   26.5850   42.5440 C   0  0  0  0  0  0  0  0  0  0  0  0
   37.8820   27.1080   41.3720 N   0  0  0  0  0  0  0  0  0  0  0  0
   37.4070   28.3570   41.2990 C   0  0  0  0  0  0  0  0  0  0  0  0
   37.3990   29.1400   42.3780 N   0  0  0  0  0  0  0  0  0  0  0  0
   37.8460   29.3540   44.4210 H   0  0  0  0  0  0  0  0  0  0  0  0
   38.7480   27.0350   44.6390 H   0  0  0  0  0  0  0  0  0  0  0  0
   36.9500   28.6870   39.9890 N   0  0  0  0  0  0  0  0  0  0  0  0
   36.0420   27.8050   39.5050 C   0  0  0  0  0  3  0  0  0  0  0  0
   35.5030   27.9920   38.2410 C   0  0  0  0  0  3  0  0  0  0  0  0
   35.9560   29.1020   37.5540 C   0  0  0  0  0  0  0  0  0  0  0  0
   35.4240   29.3370   36.2380 N   0  0  0  0  0  0  0  0  0  0  0  0
   36.8620   29.9570   38.0690 N   0  0  0  0  0  0  0  0  0  0  0  0
   37.3660   29.7450   39.3060 C   0  0  0  0  0  0  0  0  0  0  0  0
   38.2100   30.4880   39.8560 O   0  0  0  0  0  0  0  0  0  0  0  0
   36.1010   29.6730   35.5430 H   0  0  0  0  0  0  0  0  0  0  0  0
   34.4720   29.2210   35.8770 H   0  0  0  0  0  0  0  0  0  0  0  0
   38.9050   25.1900   42.6300 C   0  0  0  0  0  0  0  0  0  0  0  0
   39.7120   25.0180   41.5270 F   0  0  0  0  0  0  0  0  0  0  0  0
   39.6650   24.9970   43.7560 F   0  0  0  0  0  0  0  0  0  0  0  0
   37.8790   24.2450   42.6060 F   0  0  0  0  0  0  0  0  0  0  0  0
  1  2  1  0  0  0  0
  1  7  1  0  0  0  0
  2  8  1  0  0  0  0
  3 19  1  0  0  0  0
  3  2  2  0  0  0  0
  4  3  1  0  0  0  0
  5  4  2  0  0  0  0
  5  6  1  0  0  0  0
  6  1  2  0  0  0  0
  9  5  1  0  0  0  0
 10  9  1  0  0  0  0
 11 10  2  0  0  0  0
 12 14  2  0  0  0  0
 12 11  1  0  0  0  0
 13 12  1  0  0  0  0
 14 15  1  0  0  0  0
 15 16  2  0  0  0  0
 15  9  1  0  0  0  0
 17 13  1  0  0  0  0
 18 13  1  0  0  0  0
 19 21  1  0  0  0  0
 20 19  1  0  0  0  0
 22 19  1  0  0  0  0
M  END
>  <minimizedAffinity>
-4.66854954

>  <minimizedRMSD>
1.60703862

$$$$
