
 OpenBabel03242509303D

 22 23  0  0  0  0  0  0  0  0999 V2000
   38.0760   28.6920   43.4860 C   0  0  0  0  0  0  0  0  0  0  0  0
   38.6190   27.3920   43.6120 C   0  0  0  0  0  0  0  0  0  0  0  0
   38.3580   26.4950   42.5700 C   0  0  0  0  0  0  0  0  0  0  0  0
   37.6020   26.9190   41.5040 N   0  0  0  0  0  0  0  0  0  0  0  0
   37.1110   28.1620   41.4350 C   0  0  0  0  0  0  0  0  0  0  0  0
   37.3460   29.0370   42.4140 N   0  0  0  0  0  0  0  0  0  0  0  0
   38.2530   29.4220   44.2700 H   0  0  0  0  0  0  0  0  0  0  0  0
   39.2040   27.1210   44.4730 H   0  0  0  0  0  0  0  0  0  0  0  0
   36.3580   28.3820   40.2430 N   0  0  0  0  0  0  0  0  0  0  0  0
   35.1340   28.9110   40.4790 C   0  0  0  0  0  3  0  0  0  0  0  0
   34.2830   29.1830   39.4190 C   0  0  0  0  0  3  0  0  0  0  0  0
   34.7740   28.8790   38.1620 C   0  0  0  0  0  0  0  0  0  0  0  0
   33.9260   29.1430   37.0320 N   0  0  0  0  0  0  0  0  0  0  0  0
   35.9990   28.3510   37.9680 N   0  0  0  0  0  0  0  0  0  0  0  0
   36.8030   28.0990   39.0250 C   0  0  0  0  0  0  0  0  0  0  0  0
   37.9530   27.6110   38.9320 O   0  0  0  0  0  0  0  0  0  0  0  0
   33.9460   28.4340   36.2890 H   0  0  0  0  0  0  0  0  0  0  0  0
   33.2990   29.9320   36.8430 H   0  0  0  0  0  0  0  0  0  0  0  0
   38.9080   25.1070   42.6520 C   0  0  0  0  0  0  0  0  0  0  0  0
   39.7140   24.9490   41.5460 F   0  0  0  0  0  0  0  0  0  0  0  0
   39.6750   24.9220   43.7750 F   0  0  0  0  0  0  0  0  0  0  0  0
   37.8960   24.1490   42.6280 F   0  0  0  0  0  0  0  0  0  0  0  0
  1  2  1  0  0  0  0
  1  7  1  0  0  0  0
  2  8  1  0  0  0  0
  3 19  1  0  0  0  0
  3  2  2  0  0  0  0
  4  3  1  0  0  0  0
  5  4  2  0  0  0  0
  5  6  1  0  0  0  0
  6  1  2  0  0  0  0
  9 10  1  0  0  0  0
  9  5  1  0  0  0  0
 11 10  2  0  0  0  0
 12 11  1  0  0  0  0
 13 12  1  0  0  0  0
 14 12  2  0  0  0  0
 14 15  1  0  0  0  0
 15  9  1  0  0  0  0
 16 15  2  0  0  0  0
 17 13  1  0  0  0  0
 18 13  1  0  0  0  0
 19 21  1  0  0  0  0
 20 19  1  0  0  0  0
 22 19  1  0  0  0  0
M  END
>  <minimizedAffinity>
-4.84260607

>  <minimizedRMSD>
1.45157433

$$$$
