
     RDKit          3D

 51 55  0  0  0  0  0  0  0  0999 V2000
   35.2834   29.4939   40.0766 C   0  0  0  0  0  0  0  0  0  0  0  0
   35.8937   29.4232   38.7238 C   0  0  0  0  0  0  0  0  0  0  0  0
   37.2080   29.5810   38.3958 C   0  0  0  0  0  0  0  0  0  0  0  0
   37.7197   29.5828   37.1325 C   0  0  0  0  0  0  0  0  0  0  0  0
   36.8682   29.4143   36.0591 C   0  0  0  0  0  0  0  0  0  0  0  0
   35.5152   29.2465   36.3246 C   0  0  0  0  0  0  0  0  0  0  0  0
   34.7300   29.0866   35.2159 C   0  0  0  0  0  0  0  0  0  0  0  0
   33.3804   28.9104   35.3739 C   0  0  0  0  0  0  0  0  0  0  0  0
   32.8453   28.8951   36.6444 C   0  0  0  0  0  0  0  0  0  0  0  0
   33.6912   29.0608   37.7054 C   0  0  0  0  0  0  0  0  0  0  0  0
   35.0326   29.2471   37.6250 C   0  0  0  0  0  0  0  0  0  0  0  0
   33.0951   29.0172   38.9578 O   0  0  0  0  0  0  0  0  0  0  0  0
   36.1717   30.0735   41.1318 C   0  0  0  0  0  0  0  0  0  0  0  0
   38.6516   28.1609   42.7177 C   0  0  0  0  0  0  0  0  0  0  0  0
   37.5622   27.3463   42.8664 C   0  0  0  0  0  0  0  0  0  0  0  0
   36.4862   28.0012   42.2659 C   0  0  0  0  0  0  0  0  0  0  0  0
   37.0096   29.1488   41.8072 N   0  0  0  0  0  0  0  0  0  0  0  0
   38.2736   29.2725   42.0551 N   0  0  0  0  0  0  0  0  0  0  0  0
   41.5813   26.5550   44.3643 C   0  0  0  0  0  0  0  0  0  0  0  0
   40.2624   26.7516   43.9419 C   0  0  0  0  0  0  0  0  0  0  0  0
   39.9967   27.9025   43.1832 C   0  0  0  0  0  0  0  0  0  0  0  0
   41.0051   28.7669   42.8912 N   0  0  0  0  0  0  0  0  0  0  0  0
   42.2738   28.5131   43.3369 C   0  0  0  0  0  0  0  0  0  0  0  0
   42.5502   27.4219   44.0618 N   0  0  0  0  0  0  0  0  0  0  0  0
   34.8320   28.5816   40.4388 H   0  0  0  0  0  0  0  0  0  0  0  0
   34.5564   30.3670   39.9651 H   0  0  0  0  0  0  0  0  0  0  0  0
   37.8862   29.7151   39.2322 H   0  0  0  0  0  0  0  0  0  0  0  0
   38.7852   29.7171   37.0065 H   0  0  0  0  0  0  0  0  0  0  0  0
   37.2734   29.4180   35.0616 H   0  0  0  0  0  0  0  0  0  0  0  0
   35.1285   29.0924   34.2016 H   0  0  0  0  0  0  0  0  0  0  0  0
   32.7187   28.7821   34.5262 H   0  0  0  0  0  0  0  0  0  0  0  0
   31.7809   28.7539   36.7683 H   0  0  0  0  0  0  0  0  0  0  0  0
   32.1978   28.6054   39.1557 H   0  0  0  0  0  0  0  0  0  0  0  0
   36.7888   30.8585   40.6267 H   0  0  0  0  0  0  0  0  0  0  0  0
   35.6035   30.6243   41.9128 H   0  0  0  0  0  0  0  0  0  0  0  0
   37.5526   26.3724   43.3629 H   0  0  0  0  0  0  0  0  0  0  0  0
   35.5034   27.5645   42.2474 H   0  0  0  0  0  0  0  0  0  0  0  0
   41.6759   25.6423   44.9392 H   0  0  0  0  0  0  0  0  0  0  0  0
   39.4334   26.1095   44.1404 H   0  0  0  0  0  0  0  0  0  0  0  0
   43.3457   29.4026   43.0444 N   0  0  0  0  0  0  0  0  0  0  0  0
   43.5333   29.7830   41.7550 C   0  0  0  0  0  0  0  0  0  0  0  0
   44.5632   30.6451   41.4327 C   0  0  0  0  0  0  0  0  0  0  0  0
   45.3789   31.0952   42.4587 C   0  0  0  0  0  0  0  0  0  0  0  0
   46.4285   31.9825   42.0815 N   0  0  0  0  0  0  0  0  0  0  0  0
   45.1667   30.7002   43.7226 N   0  0  0  0  0  0  0  0  0  0  0  0
   44.1453   29.8525   44.0023 C   0  0  0  0  0  0  0  0  0  0  0  0
   43.9929   29.5183   45.1877 O   0  0  0  0  0  0  0  0  0  0  0  0
   42.8958   29.4303   40.9589 H   0  0  0  0  0  0  0  0  0  0  0  0
   44.7359   30.9663   40.4056 H   0  0  0  0  0  0  0  0  0  0  0  0
   46.5163   32.9736   41.7117 H   0  0  0  0  0  0  0  0  0  0  0  0
   47.2943   31.3942   42.2574 H   0  0  0  0  0  0  0  0  0  0  0  0
  1 13  1  0
  2  1  1  0
  3  2  2  0
  4  3  1  0
  5  6  1  0
  5  4  2  0
  6 11  2  0
  7  8  2  0
  7  6  1  0
  8  9  1  0
  9 10  2  0
 10 12  1  0
 11 10  1  0
 11  2  1  0
 13 17  1  0
 14 15  1  0
 14 21  1  0
 16 15  2  0
 17 18  1  0
 17 16  1  0
 18 14  2  0
 20 19  2  0
 21 20  1  0
 22 21  2  0
 22 23  1  0
 23 24  2  0
 24 19  1  0
  1 25  1  0
  1 26  1  0
  3 27  1  0
  4 28  1  0
  5 29  1  0
  7 30  1  0
  8 31  1  0
  9 32  1  0
 12 33  1  0
 13 34  1  0
 13 35  1  0
 15 36  1  0
 16 37  1  0
 19 38  1  0
 20 39  1  0
 40 41  1  0
 41 42  2  0
 42 43  1  0
 43 44  1  0
 43 45  2  0
 45 46  1  0
 46 47  2  0
 46 40  1  0
 41 48  1  0
 42 49  1  0
 44 50  1  0
 44 51  1  0
 23 40  1  0
M  ISO  8  25   8  26   8  27  14  28  14  29  14  30  14  31  14  32  14
M  ISO  7  33   3  34   8  35   8  36  14  37  14  38  14  39  14
M  END
>  <DihAtoms>  (1) 
21,22,39,40

>  <DihDeg>  (1) 
-125.70578599334301

$$$$
