
 OpenBabel03242509263D

 49 53  0  0  0  0  0  0  0  0999 V2000
   38.5660   28.1210   42.6890 C   0  0  0  0  0  0  0  0  0  0  0  0
   37.4680   27.3080   42.7690 C   0  0  0  0  0  0  0  0  0  0  0  0
   36.4180   27.9880   42.1530 C   0  0  0  0  0  0  0  0  0  0  0  0
   36.9630   29.1480   41.7530 N   0  0  0  0  0  0  0  0  0  0  0  0
   38.2180   29.2570   42.0510 N   0  0  0  0  0  0  0  0  0  0  0  0
   37.4370   26.3170   43.2320 H   0  0  0  0  0  0  0  0  0  0  0  0
   35.4350   27.5570   42.0820 H   0  0  0  0  0  0  0  0  0  0  0  0
   41.4500   26.3990   44.2980 C   0  0  0  0  0  0  0  0  0  0  0  0
   40.1500   26.6150   43.8300 C   0  0  0  0  0  0  0  0  0  0  0  0
   39.8920   27.8400   43.1950 C   0  0  0  0  0  0  0  0  0  0  0  0
   40.8890   28.7550   43.0600 N   0  0  0  0  0  0  0  0  0  0  0  0
   42.1400   28.4780   43.5430 C   0  0  0  0  0  0  0  0  0  0  0  0
   42.4090   27.3170   44.1520 N   0  0  0  0  0  0  0  0  0  0  0  0
   41.5410   25.4280   44.7680 H   0  0  0  0  0  0  0  0  0  0  0  0
   39.3300   25.9360   43.9060 H   0  0  0  0  0  0  0  0  0  0  0  0
   43.2000   29.4200   43.4140 N   0  0  0  0  0  0  0  0  0  0  0  0
   43.2540   30.1780   42.2900 C   0  0  0  0  0  3  0  0  0  0  0  0
   44.2690   31.1020   42.1300 C   0  0  0  0  0  3  0  0  0  0  0  0
   45.2070   31.2190   43.1430 C   0  0  0  0  0  0  0  0  0  0  0  0
   46.2360   32.1830   42.9360 N   0  0  0  0  0  0  0  0  0  0  0  0
   45.1250   30.4530   44.2420 N   0  0  0  0  0  0  0  0  0  0  0  0
   44.1150   29.5560   44.3640 C   0  0  0  0  0  0  0  0  0  0  0  0
   44.0850   28.8740   45.4010 O   0  0  0  0  0  0  0  0  0  0  0  0
   46.3130   33.2400   42.8790 H   0  0  0  0  0  0  0  0  0  0  0  0
   47.0970   31.5730   42.8220 H   0  0  0  0  0  0  0  0  0  0  0  0
   36.1550   30.0990   41.0790 C   0  0  0  0  0  0  0  0  0  0  0  0
   36.7960   30.8670   40.5780 H   0  0  0  0  0  0  0  0  0  0  0  0
   35.6010   30.6640   41.8600 H   0  0  0  0  0  0  0  0  0  0  0  0
   35.2520   29.5500   40.0200 C   0  0  0  0  0  0  0  0  0  0  0  0
   34.7620   28.6590   40.3830 H   0  0  0  0  0  0  0  0  0  0  0  0
   34.5610   30.4510   39.8980 H   0  0  0  0  0  0  0  0  0  0  0  0
   35.8690   29.4480   38.6720 C   0  0  0  0  0  0  0  0  0  0  0  0
   37.1870   29.5850   38.3490 C   0  0  0  0  0  0  0  0  0  0  0  0
   37.7060   29.5590   37.0890 C   0  0  0  0  0  0  0  0  0  0  0  0
   36.8580   29.3800   36.0130 C   0  0  0  0  0  0  0  0  0  0  0  0
   35.5020   29.2340   36.2740 C   0  0  0  0  0  0  0  0  0  0  0  0
   34.7210   29.0630   35.1640 C   0  0  0  0  0  0  0  0  0  0  0  0
   33.3690   28.9040   35.3170 C   0  0  0  0  0  0  0  0  0  0  0  0
   32.8260   28.9180   36.5840 C   0  0  0  0  0  0  0  0  0  0  0  0
   33.6680   29.0930   37.6470 C   0  0  0  0  0  0  0  0  0  0  0  0
   35.0130   29.2630   37.5710 C   0  0  0  0  0  0  0  0  0  0  0  0
   37.8620   29.7260   39.1860 H   0  0  0  0  0  0  0  0  0  0  0  0
   38.7730   29.6780   36.9670 H   0  0  0  0  0  0  0  0  0  0  0  0
   37.2690   29.3620   35.0190 H   0  0  0  0  0  0  0  0  0  0  0  0
   35.1260   29.0450   34.1520 H   0  0  0  0  0  0  0  0  0  0  0  0
   32.7110   28.7690   34.4670 H   0  0  0  0  0  0  0  0  0  0  0  0
   31.7600   28.7920   36.7040 H   0  0  0  0  0  0  0  0  0  0  0  0
   33.0650   29.0790   38.8970 O   0  0  0  0  0  0  0  0  0  0  0  0
   32.1620   28.6810   39.0970 H   0  0  0  0  0  0  0  0  0  0  0  0
  1  2  1  0  0  0  0
  1 10  1  0  0  0  0
  2  6  1  0  0  0  0
  3  2  2  0  0  0  0
  4  5  1  0  0  0  0
  4  3  1  0  0  0  0
  5  1  2  0  0  0  0
  7  3  1  0  0  0  0
  8 14  1  0  0  0  0
  9 15  1  0  0  0  0
  9  8  2  0  0  0  0
 10  9  1  0  0  0  0
 11 10  2  0  0  0  0
 11 12  1  0  0  0  0
 12 13  2  0  0  0  0
 13  8  1  0  0  0  0
 16 12  1  0  0  0  0
 16 22  1  0  0  0  0
 17 16  1  0  0  0  0
 18 17  2  0  0  0  0
 18 19  1  0  0  0  0
 19 21  2  0  0  0  0
 20 19  1  0  0  0  0
 21 22  1  0  0  0  0
 22 23  2  0  0  0  0
 24 20  1  0  0  0  0
 25 20  1  0  0  0  0
 26  4  1  0  0  0  0
 26 28  1  0  0  0  0
 27 26  1  0  0  0  0
 29 30  1  0  0  0  0
 29 26  1  0  0  0  0
 31 29  1  0  0  0  0
 32 29  1  0  0  0  0
 33 32  1  0  0  0  0
 33 42  1  0  0  0  0
 34 33  2  0  0  0  0
 35 36  2  0  0  0  0
 35 34  1  0  0  0  0
 36 41  1  0  0  0  0
 37 38  2  0  0  0  0
 37 36  1  0  0  0  0
 38 39  1  0  0  0  0
 39 47  1  0  0  0  0
 39 40  2  0  0  0  0
 40 48  1  0  0  0  0
 41 40  1  0  0  0  0
 41 32  2  0  0  0  0
 43 34  1  0  0  0  0
 44 35  1  0  0  0  0
 45 37  1  0  0  0  0
 46 38  1  0  0  0  0
 48 49  1  0  0  0  0
M  END
>  <minimizedAffinity>
-6.41141987

>  <minimizedRMSD>
0.32310617

$$$$
