
 OpenBabel03242509303D

 17 18  0  0  0  0  0  0  0  0999 V2000
   38.2710   28.5230   43.4600 C   0  0  0  0  0  0  0  0  0  0  0  0
   38.7060   27.1620   43.5350 C   0  0  0  0  0  0  0  0  0  0  0  0
   38.2840   26.3090   42.5200 C   0  0  0  0  0  0  0  0  0  0  0  0
   37.4800   26.8120   41.5070 N   0  0  0  0  0  0  0  0  0  0  0  0
   37.1020   28.1060   41.4910 C   0  0  0  0  0  0  0  0  0  0  0  0
   37.4930   28.9420   42.4500 N   0  0  0  0  0  0  0  0  0  0  0  0
   38.5670   29.2350   44.2230 H   0  0  0  0  0  0  0  0  0  0  0  0
   39.3260   26.8560   44.3530 H   0  0  0  0  0  0  0  0  0  0  0  0
   36.2870   28.3610   40.3510 N   0  0  0  0  0  0  0  0  0  0  0  0
   36.4610   28.0810   39.0470 C   0  0  0  0  0  3  0  0  0  0  0  0
   35.3150   28.5780   38.4160 C   0  0  0  0  0  3  0  0  0  0  0  0
   34.5110   29.1290   39.3710 N   0  0  0  0  0  0  0  0  0  0  0  0
   35.1350   28.9830   40.5690 C   0  0  0  0  0  3  0  0  0  0  0  0
   38.7110   24.8800   42.5540 C   0  0  0  0  0  0  0  0  0  0  0  0
   39.4290   24.6750   41.3830 F   0  0  0  0  0  0  0  0  0  0  0  0
   39.5460   24.6180   43.6020 F   0  0  0  0  0  0  0  0  0  0  0  0
   37.6210   24.0150   42.5710 F   0  0  0  0  0  0  0  0  0  0  0  0
  1  2  1  0  0  0  0
  1  7  1  0  0  0  0
  2  8  1  0  0  0  0
  3 14  1  0  0  0  0
  3  2  2  0  0  0  0
  4  3  1  0  0  0  0
  5  4  2  0  0  0  0
  5  6  1  0  0  0  0
  6  1  2  0  0  0  0
  9 13  1  0  0  0  0
  9  5  1  0  0  0  0
 10  9  1  0  0  0  0
 11 10  2  0  0  0  0
 11 12  1  0  0  0  0
 12 13  2  0  0  0  0
 14 17  1  0  0  0  0
 14 16  1  0  0  0  0
 15 14  1  0  0  0  0
M  END
>  <minimizedAffinity>
-4.29185915

>  <minimizedRMSD>
1.23647487

$$$$
