
 OpenBabel03242505473D

 34 37  0  0  0  0  0  0  0  0999 V2000
   39.8140   34.0250   40.2530 C   0  0  0  0  0  0  0  0  0  0  0  0
   40.4260   32.8590   40.5920 C   0  0  0  0  0  0  0  0  0  0  0  0
   39.6960   31.6910   40.7720 C   0  0  0  0  0  0  0  0  0  0  0  0
   38.3410   31.6770   40.6150 C   0  0  0  0  0  0  0  0  0  0  0  0
   37.7040   32.8340   40.2760 C   0  0  0  0  0  0  0  0  0  0  0  0
   38.4450   34.0070   40.0960 C   0  0  0  0  0  0  0  0  0  0  0  0
   41.5020   32.8710   40.7160 H   0  0  0  0  0  0  0  0  0  0  0  0
   40.3050   30.8160   41.0440 H   0  0  0  0  0  0  0  0  0  0  0  0
   36.6320   32.8850   40.1370 H   0  0  0  0  0  0  0  0  0  0  0  0
   37.9550   34.9260   39.8290 H   0  0  0  0  0  0  0  0  0  0  0  0
   37.0490   28.3480   41.0430 C   0  0  0  0  0  0  0  0  0  0  0  0
   35.9820   29.1570   41.2360 N   0  0  0  0  0  0  0  0  0  0  0  0
   36.3240   30.4000   41.1050 O   0  0  0  0  0  0  0  0  0  0  0  0
   37.6360   30.4440   40.8210 C   0  0  0  0  0  0  0  0  0  0  0  0
   38.0990   29.1780   40.7800 N   0  0  0  0  0  0  0  0  0  0  0  0
   36.9910   24.8400   42.2320 C   0  0  0  0  0  0  0  0  0  0  0  0
   36.6820   24.1760   41.0460 C   0  0  0  0  0  0  0  0  0  0  0  0
   36.5020   24.9250   39.8820 C   0  0  0  0  0  0  0  0  0  0  0  0
   36.6410   26.2870   39.9740 N   0  0  0  0  0  0  0  0  0  0  0  0
   36.9400   26.8920   41.1330 C   0  0  0  0  0  0  0  0  0  0  0  0
   37.1150   26.1670   42.2610 N   0  0  0  0  0  0  0  0  0  0  0  0
   37.1250   24.2310   43.1180 H   0  0  0  0  0  0  0  0  0  0  0  0
   36.5650   23.1100   40.9330 H   0  0  0  0  0  0  0  0  0  0  0  0
   36.2600   24.4860   38.9210 H   0  0  0  0  0  0  0  0  0  0  0  0
   40.7440   35.4910   39.9890 S   0  0  0  0  0  0  0  0  0  0  0  0
   41.5020   35.3020   38.7120 O   0  0  0  0  0  0  0  0  0  0  0  0
   39.7740   36.6520   39.7930 O   0  0  0  0  0  0  0  0  0  0  0  0
   41.7430   35.8390   41.3760 C   0  0  0  0  0  0  0  0  0  0  0  0
   41.7450   36.9360   42.2330 C   0  0  0  0  0  0  0  0  0  0  0  0
   42.7060   36.8020   43.2030 C   0  0  0  0  0  0  0  0  0  0  0  0
   42.9690   37.4600   44.0100 H   0  0  0  0  0  0  0  0  0  0  0  0
   43.2790   35.6170   42.9210 N   0  0  0  0  0  0  0  0  0  0  0  0
   42.7190   35.0610   41.8620 N   0  0  0  0  0  0  0  0  0  0  0  0
   44.0580   35.1230   43.4070 H   0  0  0  0  0  0  0  0  0  0  0  0
  1  2  1  0  0  0  0
  2  7  1  0  0  0  0
  2  3  2  0  0  0  0
  3  8  1  0  0  0  0
  4  3  1  0  0  0  0
  4 14  1  0  0  0  0
  5  4  2  0  0  0  0
  6  1  2  0  0  0  0
  6  5  1  0  0  0  0
  9  5  1  0  0  0  0
 10  6  1  0  0  0  0
 11 20  1  0  0  0  0
 11 12  2  0  0  0  0
 13 12  1  0  0  0  0
 14 13  1  0  0  0  0
 15 14  2  0  0  0  0
 15 11  1  0  0  0  0
 16 21  1  0  0  0  0
 16 22  1  0  0  0  0
 17 16  2  0  0  0  0
 18 19  2  0  0  0  0
 18 17  1  0  0  0  0
 19 20  1  0  0  0  0
 20 21  2  0  0  0  0
 23 17  1  0  0  0  0
 24 18  1  0  0  0  0
 25  1  1  0  0  0  0
 25 28  1  0  0  0  0
 26 25  2  0  0  0  0
 27 25  2  0  0  0  0
 28 33  2  0  0  0  0
 28 29  1  0  0  0  0
 29 30  2  0  0  0  0
 30 31  1  0  0  0  0
 32 30  1  0  0  0  0
 32 34  1  0  0  0  0
 33 32  1  0  0  0  0
M  END
>  <minimizedAffinity>
-6.87594366

>  <minimizedRMSD>
1.07394898

$$$$
