
 OpenBabel03242509303D

 17 18  0  0  0  0  0  0  0  0999 V2000
   38.2470   28.4840   43.4960 C   0  0  0  0  0  0  0  0  0  0  0  0
   38.7090   27.1310   43.5390 C   0  0  0  0  0  0  0  0  0  0  0  0
   38.2560   26.2780   42.5370 C   0  0  0  0  0  0  0  0  0  0  0  0
   37.3970   26.7730   41.5670 N   0  0  0  0  0  0  0  0  0  0  0  0
   36.9960   28.0610   41.5790 C   0  0  0  0  0  0  0  0  0  0  0  0
   37.4150   28.8960   42.5270 N   0  0  0  0  0  0  0  0  0  0  0  0
   38.5650   29.1960   44.2510 H   0  0  0  0  0  0  0  0  0  0  0  0
   39.3720   26.8300   44.3250 H   0  0  0  0  0  0  0  0  0  0  0  0
   36.1240   28.3090   40.4800 N   0  0  0  0  0  0  0  0  0  0  0  0
   35.0450   29.1020   40.3570 C   0  0  0  0  0  3  0  0  0  0  0  0
   34.6120   28.9190   39.0390 C   0  0  0  0  0  3  0  0  0  0  0  0
   35.4510   28.0270   38.4370 N   0  0  0  0  0  0  0  0  0  0  0  0
   36.3860   27.6590   39.3530 C   0  0  0  0  0  3  0  0  0  0  0  0
   38.7100   24.8560   42.5400 C   0  0  0  0  0  0  0  0  0  0  0  0
   39.4340   24.6920   41.3660 F   0  0  0  0  0  0  0  0  0  0  0  0
   39.5480   24.5860   43.5830 F   0  0  0  0  0  0  0  0  0  0  0  0
   37.6360   23.9710   42.5340 F   0  0  0  0  0  0  0  0  0  0  0  0
  1  2  1  0  0  0  0
  1  7  1  0  0  0  0
  2  8  1  0  0  0  0
  3 14  1  0  0  0  0
  3  2  2  0  0  0  0
  4  5  2  0  0  0  0
  4  3  1  0  0  0  0
  5  6  1  0  0  0  0
  6  1  2  0  0  0  0
  9  5  1  0  0  0  0
 10  9  1  0  0  0  0
 11 10  2  0  0  0  0
 12 11  1  0  0  0  0
 12 13  2  0  0  0  0
 13  9  1  0  0  0  0
 14 16  1  0  0  0  0
 15 14  1  0  0  0  0
 17 14  1  0  0  0  0
M  END
>  <minimizedAffinity>
-4.35967064

>  <minimizedRMSD>
1.23888779

$$$$
