
 OpenBabel03242507013D

 15 16  0  0  0  0  0  0  0  0999 V2000
   39.9440   26.7220   43.8870 C   0  0  0  0  0  0  0  0  0  0  0  0
   39.7680   25.3820   43.5100 C   0  0  0  0  0  0  0  0  0  0  0  0
   38.7610   25.0820   42.5820 C   0  0  0  0  0  0  0  0  0  0  0  0
   38.0020   26.1110   42.0900 N   0  0  0  0  0  0  0  0  0  0  0  0
   38.2040   27.3790   42.4770 C   0  0  0  0  0  0  0  0  0  0  0  0
   39.1540   27.6840   43.3590 N   0  0  0  0  0  0  0  0  0  0  0  0
   40.7040   27.0300   44.6030 H   0  0  0  0  0  0  0  0  0  0  0  0
   40.4210   24.6710   43.9620 H   0  0  0  0  0  0  0  0  0  0  0  0
   37.3810   28.4110   41.9320 N   0  0  0  0  0  0  0  0  0  0  0  0
   37.6600   29.7310   41.9330 C   0  0  0  0  0  0  0  0  0  0  0  0
   36.6380   30.3940   41.3240 C   0  0  0  0  0  0  0  0  0  0  0  0
   35.7400   29.4650   40.9530 N   0  0  0  0  0  0  0  0  0  0  0  0
   36.1900   28.2690   41.3210 C   0  0  0  0  0  0  0  0  0  0  0  0
   38.6250   23.7650   42.2430 O   0  0  0  0  0  0  0  0  0  0  0  0
   37.6970   23.3370   42.2310 H   0  0  0  0  0  0  0  0  0  0  0  0
  1  7  1  0  0  0  0
  2  1  1  0  0  0  0
  2  8  1  0  0  0  0
  3  2  2  0  0  0  0
  4  5  2  0  0  0  0
  4  3  1  0  0  0  0
  5  6  1  0  0  0  0
  6  1  2  0  0  0  0
  9 10  1  0  0  0  0
  9  5  1  0  0  0  0
 11 10  2  0  0  0  0
 12 13  2  0  0  0  0
 12 11  1  0  0  0  0
 13  9  1  0  0  0  0
 14  3  1  0  0  0  0
 15 14  1  0  0  0  0
M  END
>  <minimizedAffinity>
-4.0483408

>  <minimizedRMSD>
2.73832655

$$$$
