
 OpenBabel03242509303D

 17 18  0  0  0  0  0  0  0  0999 V2000
   37.7560   28.7920   43.4320 C   0  0  0  0  0  0  0  0  0  0  0  0
   38.0570   27.3940   43.4720 C   0  0  0  0  0  0  0  0  0  0  0  0
   37.8030   26.6610   42.3170 C   0  0  0  0  0  0  0  0  0  0  0  0
   37.2810   27.3100   41.2070 N   0  0  0  0  0  0  0  0  0  0  0  0
   37.0180   28.6330   41.2290 C   0  0  0  0  0  0  0  0  0  0  0  0
   37.2520   29.3550   42.3220 N   0  0  0  0  0  0  0  0  0  0  0  0
   37.9320   29.4150   44.3020 H   0  0  0  0  0  0  0  0  0  0  0  0
   38.4580   26.9710   44.3710 H   0  0  0  0  0  0  0  0  0  0  0  0
   36.4940   29.0450   39.9710 N   0  0  0  0  0  0  0  0  0  0  0  0
   35.3150   28.7990   39.3700 C   0  0  0  0  0  3  0  0  0  0  0  0
   35.3870   29.4770   38.1480 C   0  0  0  0  0  3  0  0  0  0  0  0
   36.6020   30.0950   38.0750 N   0  0  0  0  0  0  0  0  0  0  0  0
   37.2760   29.8130   39.2220 C   0  0  0  0  0  3  0  0  0  0  0  0
   38.1010   25.1980   42.3090 C   0  0  0  0  0  0  0  0  0  0  0  0
   38.5800   24.9200   41.0370 F   0  0  0  0  0  0  0  0  0  0  0  0
   39.0800   24.8690   43.2010 F   0  0  0  0  0  0  0  0  0  0  0  0
   36.9580   24.4380   42.5370 F   0  0  0  0  0  0  0  0  0  0  0  0
  1  2  1  0  0  0  0
  1  7  1  0  0  0  0
  2  8  1  0  0  0  0
  3  2  2  0  0  0  0
  4  5  2  0  0  0  0
  4  3  1  0  0  0  0
  5  6  1  0  0  0  0
  6  1  2  0  0  0  0
  9  5  1  0  0  0  0
 10  9  1  0  0  0  0
 11 10  2  0  0  0  0
 12 11  1  0  0  0  0
 12 13  2  0  0  0  0
 13  9  1  0  0  0  0
 14  3  1  0  0  0  0
 14 17  1  0  0  0  0
 14 16  1  0  0  0  0
 15 14  1  0  0  0  0
M  END
>  <minimizedAffinity>
-4.13743067

>  <minimizedRMSD>
0.797561646

$$$$
