REMARK  Name = 
REMARK  1 active torsions:
REMARK  status: ('A' for Active; 'I' for Inactive)
REMARK    1  A    between atoms: C_3  and  C_7
REMARK                            x       y       z     vdW  Elec       q    Type
REMARK                         _______ _______ _______ _____ _____    ______ ____
ROOT
ATOM      1  C   UNL     1      37.976  28.886  43.367  0.00  0.00    +0.000 A 
ATOM      2  C   UNL     1      38.090  27.461  43.310  0.00  0.00    +0.000 A 
ATOM      3  C   UNL     1      37.438  26.818  42.262  0.00  0.00    +0.000 A 
ATOM      4  N   UNL     1      36.725  27.576  41.345  0.00  0.00    +0.000 NA
ATOM      5  C   UNL     1      36.654  28.919  41.451  0.00  0.00    +0.000 A 
ATOM      6  N   UNL     1      37.269  29.557  42.444  0.00  0.00    +0.000 NA
ATOM      7  H   UNL     1      38.462  29.443  44.161  0.00  0.00    +0.000 HD
ATOM      8  H   UNL     1      38.660  26.952  44.060  0.00  0.00    +0.000 HD
ATOM      9  N   UNL     1      35.867  29.450  40.389  0.00  0.00    +0.000 N 
ATOM     10  C   UNL     1      35.444  30.700  40.129  0.00  0.00    +0.000 A 
ATOM     11  C   UNL     1      34.708  30.591  38.943  0.00  0.00    +0.000 A 
ATOM     12  N   UNL     1      34.727  29.284  38.550  0.00  0.00    +0.000 NA
ATOM     13  C   UNL     1      35.455  28.589  39.466  0.00  0.00    +0.000 A 
ENDROOT
BRANCH   3  14
ATOM     14  C   UNL     1      37.527  25.332  42.160  0.00  0.00    +0.000 C 
ATOM     15  F   UNL     1      37.663  25.057  40.806  0.00  0.00    +0.000 F 
ATOM     16  F   UNL     1      38.630  24.838  42.795  0.00  0.00    +0.000 F 
ATOM     17  F   UNL     1      36.374  24.712  42.632  0.00  0.00    +0.000 F 
ENDBRANCH   3  14
TORSDOF 1
