
 OpenBabel03242508353D

 34 37  0  0  0  0  0  0  0  0999 V2000
   36.2800   30.5060   41.3880 O   0  0  0  0  0  0  0  0  0  0  0  0
   38.1140   28.1120   43.4270 C   0  0  0  0  0  0  0  0  0  0  0  0
   37.8770   26.9520   42.6280 C   0  0  0  0  0  0  0  0  0  0  0  0
   37.1210   27.0890   41.4790 C   0  0  0  0  0  0  0  0  0  0  0  0
   36.6510   28.3210   41.1830 N   0  0  0  0  0  0  0  0  0  0  0  0
   36.8680   29.3960   41.9190 C   0  0  0  0  0  0  0  0  0  0  0  0
   37.6040   29.3080   43.0550 N   0  0  0  0  0  0  0  0  0  0  0  0
   38.6680   28.1890   44.3360 H   0  0  0  0  0  0  0  0  0  0  0  0
   38.3910   26.1510   43.1390 H   0  0  0  0  0  0  0  0  0  0  0  0
   36.9590   25.8420   40.7710 C   0  0  0  0  0  0  0  0  0  0  0  0
   35.9810   25.9020   40.2050 H   0  0  0  0  0  0  0  0  0  0  0  0
   37.7180   25.7590   39.9370 H   0  0  0  0  0  0  0  0  0  0  0  0
   36.9590   24.6160   41.5820 C   0  0  0  0  0  0  0  0  0  0  0  0
   37.3500   24.6460   42.5950 H   0  0  0  0  0  0  0  0  0  0  0  0
   35.8980   24.2280   41.6980 H   0  0  0  0  0  0  0  0  0  0  0  0
   37.8330   23.2460   40.7440 S   0  0  0  0  0  0  0  0  0  0  0  0
   36.9540   22.6570   39.7870 H   0  0  0  0  0  0  0  0  0  0  0  0
   37.0260   31.3370   40.5410 C   0  0  0  0  0  0  0  0  0  0  0  0
   36.8180   31.6630   39.2160 N   0  0  0  0  0  0  0  0  0  0  0  0
   37.7800   32.4780   38.8380 O   0  0  0  0  0  0  0  0  0  0  0  0
   38.5670   32.6640   39.8740 C   0  0  0  0  0  0  0  0  0  0  0  0
   38.1320   31.9790   40.9290 N   0  0  0  0  0  0  0  0  0  0  0  0
   39.7490   33.5110   39.8440 C   0  0  0  0  0  0  0  0  0  0  0  0
   39.7960   34.8890   39.9920 C   0  0  0  0  0  0  0  0  0  0  0  0
   41.1060   35.3160   39.9030 C   0  0  0  0  0  0  0  0  0  0  0  0
   41.8320   34.1560   39.6980 C   0  0  0  0  0  0  0  0  0  0  0  0
   41.0080   33.1610   39.6740 O   0  0  0  0  0  0  0  0  0  0  0  0
   38.9240   35.5110   40.1530 H   0  0  0  0  0  0  0  0  0  0  0  0
   41.4350   36.3310   39.9810 H   0  0  0  0  0  0  0  0  0  0  0  0
   43.2420   34.1490   39.5500 N   0  0  0  0  0  0  0  0  0  0  0  0
   44.1050   34.1950   40.5790 C   0  0  0  0  0  0  0  0  0  0  0  0
   45.3960   34.1710   40.0750 C   0  0  0  0  0  0  0  0  0  0  0  0
   45.2620   34.1100   38.7330 N   0  0  0  0  0  0  0  0  0  0  0  0
   43.9630   34.0960   38.3920 C   0  0  0  0  0  0  0  0  0  0  0  0
  1  6  1  0  0  0  0
  2  8  1  0  0  0  0
  3  9  1  0  0  0  0
  3  2  2  0  0  0  0
  4  3  1  0  0  0  0
  5  4  2  0  0  0  0
  5  6  1  0  0  0  0
  6  7  2  0  0  0  0
  7  2  1  0  0  0  0
 10  4  1  0  0  0  0
 10 13  1  0  0  0  0
 11 10  1  0  0  0  0
 12 10  1  0  0  0  0
 13 15  1  0  0  0  0
 13 14  1  0  0  0  0
 16 13  1  0  0  0  0
 17 16  1  0  0  0  0
 18 22  1  0  0  0  0
 18  1  1  0  0  0  0
 19 18  2  0  0  0  0
 20 19  1  0  0  0  0
 20 21  1  0  0  0  0
 21 22  2  0  0  0  0
 23 21  1  0  0  0  0
 23 24  2  0  0  0  0
 24 28  1  0  0  0  0
 25 29  1  0  0  0  0
 25 24  1  0  0  0  0
 26 25  2  0  0  0  0
 27 26  1  0  0  0  0
 27 23  1  0  0  0  0
 30 26  1  0  0  0  0
 30 31  1  0  0  0  0
 32 31  2  0  0  0  0
 33 32  1  0  0  0  0
 34 33  2  0  0  0  0
 34 30  1  0  0  0  0
M  END
>  <minimizedAffinity>
-5.56199026

>  <minimizedRMSD>
1.01911831

$$$$
