
 OpenBabel03242509303D

 17 18  0  0  0  0  0  0  0  0999 V2000
   37.5670   28.5660   43.6820 C   0  0  0  0  0  0  0  0  0  0  0  0
   37.4720   27.1750   43.3610 C   0  0  0  0  0  0  0  0  0  0  0  0
   37.2620   26.8480   42.0250 C   0  0  0  0  0  0  0  0  0  0  0  0
   37.1570   27.8680   41.0900 N   0  0  0  0  0  0  0  0  0  0  0  0
   37.2560   29.1640   41.4530 C   0  0  0  0  0  0  0  0  0  0  0  0
   37.4570   29.5010   42.7250 N   0  0  0  0  0  0  0  0  0  0  0  0
   37.7300   28.8820   44.7060 H   0  0  0  0  0  0  0  0  0  0  0  0
   37.5630   26.4510   44.1450 H   0  0  0  0  0  0  0  0  0  0  0  0
   37.1150   30.0010   40.3100 N   0  0  0  0  0  0  0  0  0  0  0  0
   37.3080   31.3210   40.1390 C   0  0  0  0  0  3  0  0  0  0  0  0
   37.0070   31.5590   38.7930 C   0  0  0  0  0  3  0  0  0  0  0  0
   36.6490   30.3710   38.2230 N   0  0  0  0  0  0  0  0  0  0  0  0
   36.7210   29.4140   39.1870 C   0  0  0  0  0  3  0  0  0  0  0  0
   37.1550   25.4100   41.6410 C   0  0  0  0  0  0  0  0  0  0  0  0
   36.4830   25.3960   40.4260 F   0  0  0  0  0  0  0  0  0  0  0  0
   38.3790   24.8390   41.4430 F   0  0  0  0  0  0  0  0  0  0  0  0
   36.4200   24.6810   42.5710 F   0  0  0  0  0  0  0  0  0  0  0  0
  1  7  1  0  0  0  0
  2  1  1  0  0  0  0
  2  8  1  0  0  0  0
  3  2  2  0  0  0  0
  4  5  2  0  0  0  0
  4  3  1  0  0  0  0
  5  6  1  0  0  0  0
  6  1  2  0  0  0  0
  9  5  1  0  0  0  0
 10  9  1  0  0  0  0
 11 10  2  0  0  0  0
 12 11  1  0  0  0  0
 12 13  2  0  0  0  0
 13  9  1  0  0  0  0
 14  3  1  0  0  0  0
 14 17  1  0  0  0  0
 15 14  1  0  0  0  0
 16 14  1  0  0  0  0
M  END
>  <minimizedAffinity>
-4.41037703

>  <minimizedRMSD>
1.31143534

$$$$
