
 OpenBabel03242507593D

 39 42  0  0  1  0  0  0  0  0999 V2000
   34.1610   25.8550   36.6760 N   0  0  0  0  0  0  0  0  0  0  0  0
   34.0240   27.1820   37.2360 C   0  0  0  0  0  0  0  0  0  0  0  0
   34.9110   28.1900   36.5590 C   0  0  0  0  0  0  0  0  0  0  0  0
   36.1560   27.5690   35.9860 C   0  0  2  0  0  0  0  0  0  0  0  0
   36.5700   26.3240   36.7480 C   0  0  0  0  0  0  0  0  0  0  0  0
   35.4960   25.3040   36.8210 C   0  0  1  0  0  0  0  0  0  0  0  0
   33.4300   25.2400   37.0380 H   0  0  0  0  0  0  0  0  0  0  0  0
   34.1380   27.2420   38.3200 H   0  0  0  0  0  0  0  0  0  0  0  0
   32.9590   27.4720   37.0360 H   0  0  0  0  0  0  0  0  0  0  0  0
   35.1380   29.0390   37.2460 H   0  0  0  0  0  0  0  0  0  0  0  0
   34.3590   28.6320   35.7040 H   0  0  0  0  0  0  0  0  0  0  0  0
   36.0560   27.3320   34.9090 H   0  0  0  0  0  0  0  0  0  0  0  0
   36.9970   26.6570   37.7020 H   0  0  0  0  0  0  0  0  0  0  0  0
   37.4280   25.8870   36.1760 H   0  0  0  0  0  0  0  0  0  0  0  0
   35.6300   24.5260   36.0360 H   0  0  0  0  0  0  0  0  0  0  0  0
   35.5310   24.6100   38.0940 N   0  0  0  0  0  0  0  0  0  0  0  0
   36.3280   24.8240   39.1560 C   0  0  0  0  0  0  0  0  0  0  0  0
   36.0660   23.9590   40.1950 C   0  0  0  0  0  0  0  0  0  0  0  0
   35.0590   23.1860   39.7300 N   0  0  0  0  0  0  0  0  0  0  0  0
   34.7360   23.5710   38.4790 C   0  0  0  0  0  0  0  0  0  0  0  0
   37.5170   28.7500   36.1690 S   0  0  0  0  0  0  0  0  0  0  0  0
   37.2600   29.7310   40.0660 C   0  0  0  0  0  0  0  0  0  0  0  0
   37.1380   31.0950   40.0710 C   0  0  0  0  0  0  0  0  0  0  0  0
   37.1300   31.7650   38.8600 C   0  0  0  0  0  0  0  0  0  0  0  0
   37.2480   31.0220   37.6950 C   0  0  0  0  0  0  0  0  0  0  0  0
   37.3710   29.6450   37.6980 C   0  0  0  0  0  0  0  0  0  0  0  0
   37.3730   29.0290   38.8940 N   0  0  0  0  0  0  0  0  0  0  0  0
   37.0500   31.6050   41.0300 H   0  0  0  0  0  0  0  0  0  0  0  0
   37.0350   32.8420   38.8450 H   0  0  0  0  0  0  0  0  0  0  0  0
   37.2420   31.5540   36.7440 H   0  0  0  0  0  0  0  0  0  0  0  0
   37.7200   28.9750   43.6150 C   0  0  0  0  0  0  0  0  0  0  0  0
   37.3300   27.6120   43.7050 C   0  0  0  0  0  0  0  0  0  0  0  0
   36.9140   26.9830   42.5260 C   0  0  0  0  0  0  0  0  0  0  0  0
   36.9080   27.6990   41.3910 N   0  0  0  0  0  0  0  0  0  0  0  0
   37.2730   28.9710   41.3180 C   0  0  0  0  0  0  0  0  0  0  0  0
   37.6740   29.5880   42.4350 N   0  0  0  0  0  0  0  0  0  0  0  0
   38.0370   29.4430   44.5340 H   0  0  0  0  0  0  0  0  0  0  0  0
   37.3650   27.1080   44.6640 H   0  0  0  0  0  0  0  0  0  0  0  0
   36.6200   25.9470   42.6090 H   0  0  0  0  0  0  0  0  0  0  0  0
  1  6  1  0  0  0  0
  1  7  1  0  0  0  0
  1  2  1  0  0  0  0
  2  8  1  0  0  0  0
  3  2  1  0  0  0  0
  3 10  1  0  0  0  0
  4 12  1  6  0  0  0
  4 21  1  0  0  0  0
  4  3  1  0  0  0  0
  4  5  1  0  0  0  0
  5  6  1  0  0  0  0
  5 13  1  0  0  0  0
  6 15  1  6  0  0  0
  6 16  1  0  0  0  0
  9  2  1  0  0  0  0
 11  3  1  0  0  0  0
 14  5  1  0  0  0  0
 16 20  1  0  0  0  0
 16 17  1  0  0  0  0
 17 18  2  0  0  0  0
 19 18  1  0  0  0  0
 20 19  2  0  0  0  0
 21 26  1  0  0  0  0
 22 23  1  0  0  0  0
 22 35  1  0  0  0  0
 23 28  1  0  0  0  0
 24 23  2  0  0  0  0
 25 26  2  0  0  0  0
 25 24  1  0  0  0  0
 26 27  1  0  0  0  0
 27 22  2  0  0  0  0
 29 24  1  0  0  0  0
 30 25  1  0  0  0  0
 31 32  1  0  0  0  0
 31 37  1  0  0  0  0
 32 38  1  0  0  0  0
 33 39  1  0  0  0  0
 33 32  2  0  0  0  0
 34 33  1  0  0  0  0
 35 34  2  0  0  0  0
 35 36  1  0  0  0  0
 36 31  2  0  0  0  0
M  END
>  <minimizedAffinity>
-4.64236069

>  <minimizedRMSD>
1.17267561

$$$$
