
 OpenBabel03242506153D

 25 28  0  0  0  0  0  0  0  0999 V2000
   36.8750   29.7910   41.6930 C   0  0  0  0  0  0  0  0  0  0  0  0
   38.2170   29.5490   41.2580 C   0  0  0  0  0  0  0  0  0  0  0  0
   38.7850   30.3500   40.3080 C   0  0  0  0  0  0  0  0  0  0  0  0
   38.0010   31.3730   39.8060 N   0  0  0  0  0  0  0  0  0  0  0  0
   36.7230   31.5870   40.2330 C   0  0  0  0  0  0  0  0  0  0  0  0
   36.1560   30.8010   41.1750 N   0  0  0  0  0  0  0  0  0  0  0  0
   36.4470   29.1450   42.4480 H   0  0  0  0  0  0  0  0  0  0  0  0
   36.1880   32.4210   39.7760 H   0  0  0  0  0  0  0  0  0  0  0  0
   40.1410   30.2550   39.8020 C   0  0  0  0  0  0  0  0  0  0  0  0
   41.1170   29.4030   39.5930 N   0  0  0  0  0  0  0  0  0  0  0  0
   42.1570   29.9600   39.0900 O   0  0  0  0  0  0  0  0  0  0  0  0
   41.9660   31.2250   38.9210 C   0  0  0  0  0  0  0  0  0  0  0  0
   40.7330   31.3840   39.3590 N   0  0  0  0  0  0  0  0  0  0  0  0
   42.8080   32.2400   38.4050 N   0  0  0  0  0  0  0  0  0  0  0  0
   44.1530   32.2630   38.4320 C   0  0  0  0  0  0  0  0  0  0  0  0
   44.5680   33.4300   37.8230 C   0  0  0  0  0  0  0  0  0  0  0  0
   43.4780   34.1130   37.4290 N   0  0  0  0  0  0  0  0  0  0  0  0
   42.4270   33.3650   37.7960 C   0  0  0  0  0  0  0  0  0  0  0  0
   38.8740   28.4050   41.8560 C   0  0  0  0  0  0  0  0  0  0  0  0
   38.6500   27.1050   41.2910 C   0  0  0  0  0  0  0  0  0  0  0  0
   39.6500   25.9670   42.3400 S   0  0  0  0  0  0  0  0  0  0  0  0
   40.2100   27.4990   43.3870 C   0  0  0  0  0  0  0  0  0  0  0  0
   39.6870   28.3540   42.8950 N   0  0  0  0  0  0  0  0  0  0  0  0
   38.0310   26.8530   40.4410 H   0  0  0  0  0  0  0  0  0  0  0  0
   40.8940   27.4480   44.2590 H   0  0  0  0  0  0  0  0  0  0  0  0
  1  7  1  0  0  0  0
  2  1  1  0  0  0  0
  2 19  1  0  0  0  0
  3  2  2  0  0  0  0
  4  5  2  0  0  0  0
  4  3  1  0  0  0  0
  5  6  1  0  0  0  0
  6  1  2  0  0  0  0
  8  5  1  0  0  0  0
  9  3  1  0  0  0  0
 10  9  2  0  0  0  0
 11 10  1  0  0  0  0
 12 11  1  0  0  0  0
 12 13  2  0  0  0  0
 13  9  1  0  0  0  0
 14 15  1  0  0  0  0
 14 12  1  0  0  0  0
 16 15  2  0  0  0  0
 17 18  2  0  0  0  0
 17 16  1  0  0  0  0
 18 14  1  0  0  0  0
 19 23  1  0  0  0  0
 20 19  2  0  0  0  0
 20 21  1  0  0  0  0
 21 22  1  0  0  0  0
 22 25  1  0  0  0  0
 23 22  2  0  0  0  0
 24 20  1  0  0  0  0
M  END
>  <minimizedAffinity>
-4.2381444

>  <minimizedRMSD>
1.86488569

$$$$
