
 OpenBabel03242509303D

 17 18  0  0  0  0  0  0  0  0999 V2000
   37.5880   28.8170   43.5500 C   0  0  0  0  0  0  0  0  0  0  0  0
   37.6540   27.3880   43.5160 C   0  0  0  0  0  0  0  0  0  0  0  0
   37.5150   26.7800   42.2720 C   0  0  0  0  0  0  0  0  0  0  0  0
   37.3230   27.5740   41.1510 N   0  0  0  0  0  0  0  0  0  0  0  0
   37.2690   28.9180   41.2460 C   0  0  0  0  0  0  0  0  0  0  0  0
   37.4000   29.5230   42.4240 N   0  0  0  0  0  0  0  0  0  0  0  0
   37.6890   29.3480   44.4910 H   0  0  0  0  0  0  0  0  0  0  0  0
   37.8050   26.8500   44.4300 H   0  0  0  0  0  0  0  0  0  0  0  0
   37.0660   29.4890   39.9570 N   0  0  0  0  0  0  0  0  0  0  0  0
   37.8760   30.2100   39.1610 C   0  0  0  0  0  3  0  0  0  0  0  0
   37.1100   30.4840   38.0220 C   0  0  0  0  0  3  0  0  0  0  0  0
   35.8810   29.9140   38.1900 N   0  0  0  0  0  0  0  0  0  0  0  0
   35.8750   29.2990   39.4030 C   0  0  0  0  0  3  0  0  0  0  0  0
   37.5770   25.2910   42.1860 C   0  0  0  0  0  0  0  0  0  0  0  0
   37.7430   25.0010   40.8380 F   0  0  0  0  0  0  0  0  0  0  0  0
   38.6520   24.7810   42.8540 F   0  0  0  0  0  0  0  0  0  0  0  0
   36.3990   24.6990   42.6320 F   0  0  0  0  0  0  0  0  0  0  0  0
  1  7  1  0  0  0  0
  2  1  1  0  0  0  0
  2  8  1  0  0  0  0
  3  2  2  0  0  0  0
  4  5  2  0  0  0  0
  4  3  1  0  0  0  0
  5  6  1  0  0  0  0
  6  1  2  0  0  0  0
  9  5  1  0  0  0  0
 10  9  1  0  0  0  0
 11 12  1  0  0  0  0
 11 10  2  0  0  0  0
 12 13  2  0  0  0  0
 13  9  1  0  0  0  0
 14  3  1  0  0  0  0
 14 17  1  0  0  0  0
 14 16  1  0  0  0  0
 15 14  1  0  0  0  0
M  END
>  <minimizedAffinity>
-4.29688931

>  <minimizedRMSD>
1.10490942

$$$$
