
 OpenBabel03242509253D

 49 53  0  0  0  0  0  0  0  0999 V2000
   38.6460   28.1470   42.6980 C   0  0  0  0  0  0  0  0  0  0  0  0
   37.5720   27.2890   42.7790 C   0  0  0  0  0  0  0  0  0  0  0  0
   36.5000   27.9480   42.1720 C   0  0  0  0  0  0  0  0  0  0  0  0
   37.0040   29.1260   41.7820 N   0  0  0  0  0  0  0  0  0  0  0  0
   38.2550   29.2740   42.0750 N   0  0  0  0  0  0  0  0  0  0  0  0
   37.5760   26.3030   43.2280 H   0  0  0  0  0  0  0  0  0  0  0  0
   35.5220   27.4910   42.0980 H   0  0  0  0  0  0  0  0  0  0  0  0
   41.5970   26.4800   44.2400 C   0  0  0  0  0  0  0  0  0  0  0  0
   40.2900   26.6440   43.7950 C   0  0  0  0  0  0  0  0  0  0  0  0
   39.9810   27.8950   43.1940 C   0  0  0  0  0  0  0  0  0  0  0  0
   40.9400   28.8590   43.0790 N   0  0  0  0  0  0  0  0  0  0  0  0
   42.2080   28.6070   43.5490 C   0  0  0  0  0  0  0  0  0  0  0  0
   42.5240   27.4340   44.1190 N   0  0  0  0  0  0  0  0  0  0  0  0
   41.8900   25.5410   44.7080 H   0  0  0  0  0  0  0  0  0  0  0  0
   39.5500   25.8720   43.8960 H   0  0  0  0  0  0  0  0  0  0  0  0
   43.1710   29.6440   43.4050 N   0  0  0  0  0  0  0  0  0  0  0  0
   43.5460   30.1740   44.6050 C   0  0  0  0  0  3  0  0  0  0  0  0
   44.4640   31.1830   44.6700 C   0  0  0  0  0  0  0  0  0  0  0  0
   44.8860   31.7750   45.9800 C   0  0  0  0  0  1  0  0  0  0  0  0
   45.0050   31.6550   43.4940 C   0  0  0  0  0  0  0  0  0  0  0  0
   45.8650   32.5920   43.4710 O   0  0  0  0  0  0  0  0  0  0  0  0
   44.6210   31.1200   42.3280 N   0  0  0  0  0  0  0  0  0  0  0  0
   43.7160   30.1260   42.2680 C   0  0  0  0  0  0  0  0  0  0  0  0
   43.2790   29.5450   41.2410 O   0  0  0  0  0  0  0  0  0  0  0  0
   44.9970   31.4370   41.4010 H   0  0  0  0  0  0  0  0  0  0  0  0
   36.1570   30.0590   41.1190 C   0  0  0  0  0  0  0  0  0  0  0  0
   35.5530   30.5590   41.9230 H   0  0  0  0  0  0  0  0  0  0  0  0
   36.7620   30.8690   40.6550 H   0  0  0  0  0  0  0  0  0  0  0  0
   35.2700   29.4850   40.0590 C   0  0  0  0  0  0  0  0  0  0  0  0
   34.5550   30.3670   39.9310 H   0  0  0  0  0  0  0  0  0  0  0  0
   34.8000   28.5830   40.4260 H   0  0  0  0  0  0  0  0  0  0  0  0
   35.8860   29.3980   38.7150 C   0  0  0  0  0  0  0  0  0  0  0  0
   37.2090   29.5260   38.3940 C   0  0  0  0  0  0  0  0  0  0  0  0
   37.7320   29.5170   37.1340 C   0  0  0  0  0  0  0  0  0  0  0  0
   36.8890   29.3720   36.0570 C   0  0  0  0  0  0  0  0  0  0  0  0
   35.5360   29.2360   36.3060 C   0  0  0  0  0  0  0  0  0  0  0  0
   34.7400   29.1000   35.1980 C   0  0  0  0  0  0  0  0  0  0  0  0
   33.3920   28.9630   35.3440 C   0  0  0  0  0  0  0  0  0  0  0  0
   32.8440   28.9590   36.6050 C   0  0  0  0  0  0  0  0  0  0  0  0
   33.6870   29.0960   37.6760 C   0  0  0  0  0  0  0  0  0  0  0  0
   35.0330   29.2450   37.6080 C   0  0  0  0  0  0  0  0  0  0  0  0
   37.8780   29.6420   39.2470 H   0  0  0  0  0  0  0  0  0  0  0  0
   38.8020   29.6270   37.0330 H   0  0  0  0  0  0  0  0  0  0  0  0
   37.3080   29.3670   35.0600 H   0  0  0  0  0  0  0  0  0  0  0  0
   35.1410   29.0980   34.1880 H   0  0  0  0  0  0  0  0  0  0  0  0
   32.7210   28.8560   34.4920 H   0  0  0  0  0  0  0  0  0  0  0  0
   31.7750   28.8480   36.7210 H   0  0  0  0  0  0  0  0  0  0  0  0
   33.0780   29.0640   38.9230 O   0  0  0  0  0  0  0  0  0  0  0  0
   32.3620   29.7160   39.2100 H   0  0  0  0  0  0  0  0  0  0  0  0
  1  2  1  0  0  0  0
  1 10  1  0  0  0  0
  2  6  1  0  0  0  0
  3  2  2  0  0  0  0
  4  5  1  0  0  0  0
  4  3  1  0  0  0  0
  5  1  2  0  0  0  0
  7  3  1  0  0  0  0
  8 14  1  0  0  0  0
  9 15  1  0  0  0  0
  9  8  2  0  0  0  0
 10  9  1  0  0  0  0
 11 10  2  0  0  0  0
 11 12  1  0  0  0  0
 12 13  2  0  0  0  0
 13  8  1  0  0  0  0
 16 12  1  0  0  0  0
 16 17  1  0  0  0  0
 17 18  2  0  0  0  0
 18 19  1  0  0  0  0
 20 18  1  0  0  0  0
 21 20  2  0  0  0  0
 22 20  1  0  0  0  0
 23 22  1  0  0  0  0
 23 16  1  0  0  0  0
 24 23  2  0  0  0  0
 25 22  1  0  0  0  0
 26  4  1  0  0  0  0
 26 27  1  0  0  0  0
 28 26  1  0  0  0  0
 29 31  1  0  0  0  0
 29 26  1  0  0  0  0
 30 29  1  0  0  0  0
 32 29  1  0  0  0  0
 33 32  1  0  0  0  0
 33 42  1  0  0  0  0
 34 33  2  0  0  0  0
 35 36  2  0  0  0  0
 35 34  1  0  0  0  0
 36 41  1  0  0  0  0
 37 38  2  0  0  0  0
 37 36  1  0  0  0  0
 38 39  1  0  0  0  0
 39 47  1  0  0  0  0
 39 40  2  0  0  0  0
 40 48  1  0  0  0  0
 41 40  1  0  0  0  0
 41 32  2  0  0  0  0
 43 34  1  0  0  0  0
 44 35  1  0  0  0  0
 45 37  1  0  0  0  0
 46 38  1  0  0  0  0
 48 49  1  0  0  0  0
M  END
>  <minimizedAffinity>
-6.72252035

>  <minimizedRMSD>
0.378197879

$$$$
