REMARK  Name = 
REMARK  6 active torsions:
REMARK  status: ('A' for Active; 'I' for Inactive)
REMARK    1  A    between atoms: C_1  and  C_2
REMARK    2  A    between atoms: C_1  and  C_13
REMARK    3  A    between atoms: C_10  and  O_12
REMARK    4  A    between atoms: C_13  and  N_17
REMARK    5  A    between atoms: C_14  and  C_21
REMARK    6  A    between atoms: C_42  and  C_43
REMARK                            x       y       z     vdW  Elec       q    Type
REMARK                         _______ _______ _______ _____ _____    ______ ____
ROOT
ATOM      1  C   UNL     1      38.652  28.173  42.721  0.00  0.00    +0.000 A 
ATOM      2  C   UNL     1      37.557  27.353  42.877  0.00  0.00    +0.000 A 
ATOM      3  C   UNL     1      36.485  28.014  42.273  0.00  0.00    +0.000 A 
ATOM      4  N   UNL     1      37.009  29.157  41.810  0.00  0.00    +0.000 N 
ATOM      5  N   UNL     1      38.273  29.281  42.056  0.00  0.00    +0.000 NA
ATOM      6  H   UNL     1      37.548  26.390  43.373  0.00  0.00    +0.000 HD
ATOM      7  H   UNL     1      35.493  27.584  42.252  0.00  0.00    +0.000 HD
ENDROOT
BRANCH   1  10
ATOM      8  C   UNL     1      41.582  26.539  44.336  0.00  0.00    +0.000 A 
ATOM      9  C   UNL     1      40.265  26.724  43.931  0.00  0.00    +0.000 A 
ATOM     10  C   UNL     1      39.995  27.905  43.187  0.00  0.00    +0.000 A 
ATOM     11  N   UNL     1      40.998  28.786  42.905  0.00  0.00    +0.000 NA
ATOM     12  C   UNL     1      42.273  28.519  43.348  0.00  0.00    +0.000 A 
ATOM     13  N   UNL     1      42.553  27.411  44.052  0.00  0.00    +0.000 NA
ATOM     14  H   UNL     1      41.846  25.651  44.909  0.00  0.00    +0.000 HD
ATOM     15  H   UNL     1      39.489  26.018  44.164  0.00  0.00    +0.000 HD
ATOM     16  N   UNL     1      43.283  29.468  43.028  0.00  0.00    +0.000 N 
ATOM     17  C   UNL     1      43.748  30.123  44.132  0.00  0.00    +0.000 A 
ATOM     18  C   UNL     1      44.722  31.074  44.025  0.00  0.00    +0.000 A 
ATOM     19  C   UNL     1      45.243  31.801  45.227  0.00  0.00    +0.000 C 
ATOM     20  C   UNL     1      45.227  31.358  42.775  0.00  0.00    +0.000 A 
ATOM     21  O   UNL     1      46.135  32.230  42.592  0.00  0.00    +0.000 OA
ATOM     22  N   UNL     1      44.755  30.703  41.706  0.00  0.00    +0.000 N 
ATOM     23  C   UNL     1      43.795  29.767  41.816  0.00  0.00    +0.000 A 
ATOM     24  O   UNL     1      43.274  29.088  40.893  0.00  0.00    +0.000 OA
ATOM     25  H   UNL     1      45.100  30.876  40.730  0.00  0.00    +0.000 HD
ENDBRANCH   1  10
BRANCH   4  26
ATOM     26  C   UNL     1      36.168  30.082  41.129  0.00  0.00    +0.000 C 
ATOM     27  H   UNL     1      35.563  30.596  41.923  0.00  0.00    +0.000 HD
ATOM     28  H   UNL     1      36.778  30.883  40.655  0.00  0.00    +0.000 HD
BRANCH  26  29
ATOM     29  C   UNL     1      35.284  29.494  40.075  0.00  0.00    +0.000 C 
ATOM     30  H   UNL     1      34.552  30.364  39.954  0.00  0.00    +0.000 HD
ATOM     31  H   UNL     1      34.832  28.584  40.444  0.00  0.00    +0.000 HD
BRANCH  29  32
ATOM     32  C   UNL     1      35.891  29.420  38.726  0.00  0.00    +0.000 A 
ATOM     33  C   UNL     1      37.207  29.583  38.394  0.00  0.00    +0.000 A 
ATOM     34  C   UNL     1      37.720  29.585  37.130  0.00  0.00    +0.000 A 
ATOM     35  C   UNL     1      36.873  29.414  36.060  0.00  0.00    +0.000 A 
ATOM     36  C   UNL     1      35.526  29.242  36.321  0.00  0.00    +0.000 A 
ATOM     37  C   UNL     1      34.726  29.082  35.219  0.00  0.00    +0.000 A 
ATOM     38  C   UNL     1      33.383  28.909  35.376  0.00  0.00    +0.000 A 
ATOM     39  C   UNL     1      32.845  28.893  36.642  0.00  0.00    +0.000 A 
ATOM     40  C   UNL     1      33.693  29.056  37.706  0.00  0.00    +0.000 A 
ATOM     41  C   UNL     1      35.034  29.241  37.626  0.00  0.00    +0.000 A 
ATOM     42  H   UNL     1      37.880  29.720  39.242  0.00  0.00    +0.000 HD
ATOM     43  H   UNL     1      38.786  29.724  37.020  0.00  0.00    +0.000 HD
ATOM     44  H   UNL     1      37.284  29.418  35.060  0.00  0.00    +0.000 HD
ATOM     45  H   UNL     1      35.118  29.088  34.206  0.00  0.00    +0.000 HD
ATOM     46  H   UNL     1      32.708  28.781  34.530  0.00  0.00    +0.000 HD
ATOM     47  H   UNL     1      31.781  28.753  36.767  0.00  0.00    +0.000 HD
BRANCH  40  48
ATOM     48  O   UNL     1      33.095  29.011  38.958  0.00  0.00    +0.000 OA
ATOM     49  H   UNL     1      32.364  29.644  39.249  0.00  0.00    +0.000 HD
ENDBRANCH  40  48
ENDBRANCH  29  32
ENDBRANCH  26  29
ENDBRANCH   4  26
TORSDOF 5
