
     RDKit          3D

 26 27  0  0  0  0  0  0  0  0999 V2000
   37.9682   28.8851   43.3767 C   0  0  0  0  0  0  0  0  0  0  0  0
   38.0785   27.4683   43.3158 C   0  0  0  0  0  0  0  0  0  0  0  0
   37.4374   26.8241   42.2616 C   0  0  0  0  0  0  0  0  0  0  0  0
   36.7315   27.5729   41.3320 N   0  0  0  0  0  0  0  0  0  0  0  0
   36.6645   28.9164   41.4456 C   0  0  0  0  0  0  0  0  0  0  0  0
   37.2726   29.5467   42.4486 N   0  0  0  0  0  0  0  0  0  0  0  0
   37.5272   25.3333   42.1585 C   0  0  0  0  0  0  0  0  0  0  0  0
   37.6421   25.0551   40.8077 F   0  0  0  0  0  0  0  0  0  0  0  0
   38.6399   24.8388   42.7875 F   0  0  0  0  0  0  0  0  0  0  0  0
   36.3841   24.7143   42.6390 F   0  0  0  0  0  0  0  0  0  0  0  0
   38.4589   29.4007   44.1872 H   0  0  0  0  0  0  0  0  0  0  0  0
   38.6397   26.9273   44.0634 H   0  0  0  0  0  0  0  0  0  0  0  0
   35.9177   29.6015   40.4453 N   0  0  0  0  0  0  0  0  0  0  0  0
   35.0821   28.8909   39.6661 C   0  0  0  0  0  0  0  0  0  0  0  0
   34.2905   29.4215   38.6509 C   0  0  0  0  0  0  0  0  0  0  0  0
   33.4041   28.5053   37.8616 C   0  0  0  0  0  0  0  0  0  0  0  0
   34.3796   30.7785   38.4391 C   0  0  0  0  0  0  0  0  0  0  0  0
   33.6862   31.2769   37.5420 O   0  0  0  0  0  0  0  0  0  0  0  0
   35.2216   31.4829   39.2269 N   0  0  0  0  0  0  0  0  0  0  0  0
   35.9779   30.9231   40.2091 C   0  0  0  0  0  0  0  0  0  0  0  0
   36.7529   31.6049   40.9266 O   0  0  0  0  0  0  0  0  0  0  0  0
   35.0076   27.8071   39.8315 H   0  0  0  0  0  0  0  0  0  0  0  0
   34.0070   28.1075   37.0471 H   0  0  0  0  0  0  0  0  0  0  0  0
   32.5080   29.0478   37.5606 H   0  0  0  0  0  0  0  0  0  0  0  0
   33.1350   27.6271   38.5128 H   0  0  0  0  0  0  0  0  0  0  0  0
   35.2754   32.5174   39.0496 H   0  0  0  0  0  0  0  0  0  0  0  0
  2  1  2  0
  3  2  1  0
  4  5  1  0
  4  3  2  0
  5  6  2  0
  6  1  1  0
  7  3  1  0
  7 10  1  0
  7  9  1  0
  8  7  1  0
  1 11  1  0
  2 12  1  0
 13 14  1  0
 14 15  2  0
 15 16  1  0
 15 17  1  0
 17 18  2  0
 17 19  1  0
 19 20  1  0
 20 21  2  0
 20 13  1  0
 14 22  1  0
 16 23  1  0
 16 24  1  0
 16 25  1  0
 19 26  1  0
  5 13  1  0
M  ISO  2  11  14  12  14
M  END
>  <DihAtoms>  (1) 
3,4,12,13

>  <DihDeg>  (1) 
-149.3105242598518

$$$$
