
     RDKit          3D

 26 27  0  0  0  0  0  0  0  0999 V2000
   37.9682   28.8851   43.3767 C   0  0  0  0  0  0  0  0  0  0  0  0
   38.0785   27.4683   43.3158 C   0  0  0  0  0  0  0  0  0  0  0  0
   37.4374   26.8241   42.2616 C   0  0  0  0  0  0  0  0  0  0  0  0
   36.7315   27.5729   41.3320 N   0  0  0  0  0  0  0  0  0  0  0  0
   36.6645   28.9164   41.4456 C   0  0  0  0  0  0  0  0  0  0  0  0
   37.2726   29.5467   42.4486 N   0  0  0  0  0  0  0  0  0  0  0  0
   37.5272   25.3333   42.1585 C   0  0  0  0  0  0  0  0  0  0  0  0
   37.6421   25.0551   40.8077 F   0  0  0  0  0  0  0  0  0  0  0  0
   38.6399   24.8388   42.7875 F   0  0  0  0  0  0  0  0  0  0  0  0
   36.3841   24.7143   42.6390 F   0  0  0  0  0  0  0  0  0  0  0  0
   38.4589   29.4007   44.1872 H   0  0  0  0  0  0  0  0  0  0  0  0
   38.6397   26.9273   44.0634 H   0  0  0  0  0  0  0  0  0  0  0  0
   35.9177   29.6015   40.4453 N   0  0  0  0  0  0  0  0  0  0  0  0
   36.4484   30.7057   39.8890 C   0  0  0  0  0  0  0  0  0  0  0  0
   35.8378   31.4765   38.9032 C   0  0  0  0  0  0  0  0  0  0  0  0
   36.5510   32.6850   38.3749 C   0  0  0  0  0  0  0  0  0  0  0  0
   34.5961   31.0659   38.4742 C   0  0  0  0  0  0  0  0  0  0  0  0
   34.0301   31.7335   37.5980 O   0  0  0  0  0  0  0  0  0  0  0  0
   34.0721   29.9559   39.0393 N   0  0  0  0  0  0  0  0  0  0  0  0
   34.7045   29.2315   40.0013 C   0  0  0  0  0  0  0  0  0  0  0  0
   34.1912   28.2023   40.5086 O   0  0  0  0  0  0  0  0  0  0  0  0
   37.4396   31.0373   40.2283 H   0  0  0  0  0  0  0  0  0  0  0  0
   36.3012   33.5128   39.0363 H   0  0  0  0  0  0  0  0  0  0  0  0
   36.2865   32.8254   37.3269 H   0  0  0  0  0  0  0  0  0  0  0  0
   37.6588   32.5169   38.4844 H   0  0  0  0  0  0  0  0  0  0  0  0
   33.1234   29.6588   38.6984 H   0  0  0  0  0  0  0  0  0  0  0  0
  2  1  2  0
  3  2  1  0
  4  5  1  0
  4  3  2  0
  5  6  2  0
  6  1  1  0
  7  3  1  0
  7 10  1  0
  7  9  1  0
  8  7  1  0
  1 11  1  0
  2 12  1  0
 13 14  1  0
 14 15  2  0
 15 16  1  0
 15 17  1  0
 17 18  2  0
 17 19  1  0
 19 20  1  0
 20 21  2  0
 20 13  1  0
 14 22  1  0
 16 23  1  0
 16 24  1  0
 16 25  1  0
 19 26  1  0
  5 13  1  0
M  ISO  2  11  14  12  14
M  END
>  <DihAtoms>  (1) 
3,4,12,13

>  <DihDeg>  (1) 
-149.3105242598518

$$$$
