
 OpenBabel03242509313D

 22 23  0  0  0  0  0  0  0  0999 V2000
   37.5870   28.6830   43.7170 C   0  0  0  0  0  0  0  0  0  0  0  0
   38.0720   27.3480   43.7970 C   0  0  0  0  0  0  0  0  0  0  0  0
   38.3320   26.6920   42.5970 C   0  0  0  0  0  0  0  0  0  0  0  0
   38.1120   27.3510   41.3970 N   0  0  0  0  0  0  0  0  0  0  0  0
   37.6490   28.6190   41.3890 C   0  0  0  0  0  0  0  0  0  0  0  0
   37.3970   29.2600   42.5290 N   0  0  0  0  0  0  0  0  0  0  0  0
   37.3800   29.2070   44.6370 H   0  0  0  0  0  0  0  0  0  0  0  0
   38.2290   26.8760   44.7550 H   0  0  0  0  0  0  0  0  0  0  0  0
   37.4540   29.2160   40.1100 N   0  0  0  0  0  0  0  0  0  0  0  0
   38.0000   28.6220   39.0330 C   0  0  0  0  0  3  0  0  0  0  0  0
   37.8930   29.0860   37.7250 C   0  0  0  0  0  0  0  0  0  0  0  0
   38.5560   28.3180   36.6200 C   0  0  0  0  0  1  0  0  0  0  0  0
   37.1710   30.2420   37.5330 C   0  0  0  0  0  0  0  0  0  0  0  0
   37.0610   30.6780   36.3800 O   0  0  0  0  0  0  0  0  0  0  0  0
   36.6280   30.8310   38.6220 N   0  0  0  0  0  0  0  0  0  0  0  0
   36.7570   30.3420   39.8840 C   0  0  0  0  0  0  0  0  0  0  0  0
   36.2390   30.9120   40.8780 O   0  0  0  0  0  0  0  0  0  0  0  0
   36.0810   31.7130   38.4550 H   0  0  0  0  0  0  0  0  0  0  0  0
   38.8450   25.2860   42.6340 C   0  0  0  0  0  0  0  0  0  0  0  0
   39.6100   25.1330   41.4920 F   0  0  0  0  0  0  0  0  0  0  0  0
   39.6530   25.0600   43.7180 F   0  0  0  0  0  0  0  0  0  0  0  0
   37.8130   24.3610   42.5990 F   0  0  0  0  0  0  0  0  0  0  0  0
  1  2  1  0  0  0  0
  1  7  1  0  0  0  0
  2  8  1  0  0  0  0
  3 19  1  0  0  0  0
  3  2  2  0  0  0  0
  4  3  1  0  0  0  0
  5  4  2  0  0  0  0
  5  6  1  0  0  0  0
  6  1  2  0  0  0  0
  9  5  1  0  0  0  0
 10  9  1  0  0  0  0
 11 10  2  0  0  0  0
 12 11  1  0  0  0  0
 13 11  1  0  0  0  0
 13 15  1  0  0  0  0
 14 13  2  0  0  0  0
 15 16  1  0  0  0  0
 16  9  1  0  0  0  0
 16 17  2  0  0  0  0
 18 15  1  0  0  0  0
 19 21  1  0  0  0  0
 20 19  1  0  0  0  0
 22 19  1  0  0  0  0
M  END
>  <minimizedAffinity>
-5.08691263

>  <minimizedRMSD>
2.02344942

$$$$
