
 OpenBabel03242508353D

 39 42  0  0  0  0  0  0  0  0999 V2000
   36.7530   31.1410   40.4390 C   0  0  0  0  0  0  0  0  0  0  0  0
   36.6490   31.3700   39.0970 N   0  0  0  0  0  0  0  0  0  0  0  0
   37.5350   32.2820   38.7560 O   0  0  0  0  0  0  0  0  0  0  0  0
   38.1760   32.6190   39.8380 C   0  0  0  0  0  0  0  0  0  0  0  0
   37.7220   31.9370   40.8940 N   0  0  0  0  0  0  0  0  0  0  0  0
   39.2450   33.6090   39.8780 C   0  0  0  0  0  0  0  0  0  0  0  0
   39.1590   34.9490   40.1580 C   0  0  0  0  0  0  0  0  0  0  0  0
   40.3800   35.5510   40.0990 C   0  0  0  0  0  0  0  0  0  0  0  0
   41.2320   34.4990   39.7670 C   0  0  0  0  0  0  0  0  0  0  0  0
   40.5330   33.4350   39.6570 O   0  0  0  0  0  0  0  0  0  0  0  0
   38.2420   35.5040   40.4020 H   0  0  0  0  0  0  0  0  0  0  0  0
   40.7410   36.5420   40.2450 H   0  0  0  0  0  0  0  0  0  0  0  0
   42.6390   34.4320   39.5490 N   0  0  0  0  0  0  0  0  0  0  0  0
   43.4910   34.3510   40.6050 C   0  0  0  0  0  0  0  0  0  0  0  0
   44.8640   34.2810   40.4770 C   0  0  0  0  0  0  0  0  0  0  0  0
   45.6750   34.1970   41.7130 C   0  0  0  0  0  0  0  0  0  0  0  0
   45.3640   34.2990   39.1920 C   0  0  0  0  0  0  0  0  0  0  0  0
   46.5980   34.2370   39.0510 O   0  0  0  0  0  0  0  0  0  0  0  0
   44.4940   34.3790   38.1690 N   0  0  0  0  0  0  0  0  0  0  0  0
   43.1500   34.4460   38.3030 C   0  0  0  0  0  0  0  0  0  0  0  0
   42.4100   34.5200   37.2870 O   0  0  0  0  0  0  0  0  0  0  0  0
   44.9240   34.3890   37.2150 H   0  0  0  0  0  0  0  0  0  0  0  0
   36.0340   30.2650   41.2710 O   0  0  0  0  0  0  0  0  0  0  0  0
   37.9630   27.9940   43.3640 C   0  0  0  0  0  0  0  0  0  0  0  0
   37.7910   26.8170   42.5800 C   0  0  0  0  0  0  0  0  0  0  0  0
   37.0410   26.9010   41.4240 C   0  0  0  0  0  0  0  0  0  0  0  0
   36.5150   28.1020   41.1050 N   0  0  0  0  0  0  0  0  0  0  0  0
   36.6720   29.1950   41.8270 C   0  0  0  0  0  0  0  0  0  0  0  0
   37.4010   29.1570   42.9710 N   0  0  0  0  0  0  0  0  0  0  0  0
   38.5050   28.1150   44.2790 H   0  0  0  0  0  0  0  0  0  0  0  0
   38.3400   26.0490   43.1080 H   0  0  0  0  0  0  0  0  0  0  0  0
   36.9410   25.6370   40.7340 C   0  0  0  0  0  0  0  0  0  0  0  0
   37.6890   25.5270   39.8960 H   0  0  0  0  0  0  0  0  0  0  0  0
   35.9530   25.6370   40.1840 H   0  0  0  0  0  0  0  0  0  0  0  0
   37.0230   24.4230   41.5570 C   0  0  0  0  0  0  0  0  0  0  0  0
   37.4670   24.4740   42.5460 H   0  0  0  0  0  0  0  0  0  0  0  0
   35.9810   24.0050   41.7370 H   0  0  0  0  0  0  0  0  0  0  0  0
   37.8960   23.0730   40.6880 S   0  0  0  0  0  0  0  0  0  0  0  0
   37.4210   21.8280   41.0980 H   0  0  0  0  0  0  0  0  0  0  0  0
  1  5  1  0  0  0  0
  1 23  1  0  0  0  0
  2  1  2  0  0  0  0
  3  2  1  0  0  0  0
  3  4  1  0  0  0  0
  4  6  1  0  0  0  0
  4  5  2  0  0  0  0
  6  7  2  0  0  0  0
  7 11  1  0  0  0  0
  8  7  1  0  0  0  0
  8 12  1  0  0  0  0
  9  8  2  0  0  0  0
 10  9  1  0  0  0  0
 10  6  1  0  0  0  0
 13  9  1  0  0  0  0
 13 14  1  0  0  0  0
 15 14  2  0  0  0  0
 15 16  1  0  0  0  0
 17 15  1  0  0  0  0
 18 17  2  0  0  0  0
 19 20  1  0  0  0  0
 19 17  1  0  0  0  0
 20 13  1  0  0  0  0
 21 20  2  0  0  0  0
 22 19  1  0  0  0  0
 23 28  1  0  0  0  0
 24 30  1  0  0  0  0
 25 31  1  0  0  0  0
 25 24  2  0  0  0  0
 26 25  1  0  0  0  0
 27 26  2  0  0  0  0
 27 28  1  0  0  0  0
 28 29  2  0  0  0  0
 29 24  1  0  0  0  0
 32 26  1  0  0  0  0
 32 35  1  0  0  0  0
 33 32  1  0  0  0  0
 34 32  1  0  0  0  0
 35 37  1  0  0  0  0
 35 36  1  0  0  0  0
 38 39  1  0  0  0  0
 38 35  1  0  0  0  0
M  END
>  <minimizedAffinity>
-6.61584616

>  <minimizedRMSD>
0.759546876

$$$$
