
 OpenBabel03242507193D

 48 52  0  0  0  0  0  0  0  0999 V2000
   35.1520   29.1130   40.5700 C   0  0  0  0  0  0  0  0  0  0  0  0
   36.1730   28.2440   41.0020 C   0  0  0  0  0  0  0  0  0  0  0  0
   36.7280   27.3580   40.0380 C   0  0  0  0  0  0  0  0  0  0  0  0
   36.2570   27.3900   38.7690 N   0  0  0  0  0  0  0  0  0  0  0  0
   35.2510   28.2680   38.4030 C   0  0  0  0  0  0  0  0  0  0  0  0
   34.6940   29.1280   39.2900 N   0  0  0  0  0  0  0  0  0  0  0  0
   34.7250   29.7880   41.2900 H   0  0  0  0  0  0  0  0  0  0  0  0
   37.5000   26.7000   40.3620 H   0  0  0  0  0  0  0  0  0  0  0  0
   36.6430   28.2290   42.3170 N   0  0  0  0  0  0  0  0  0  0  0  0
   36.2370   27.4000   43.2920 C   0  0  0  0  0  0  0  0  0  0  0  0
   36.9780   27.7660   44.3910 C   0  0  0  0  0  0  0  0  0  0  0  0
   37.8130   28.7980   44.0760 N   0  0  0  0  0  0  0  0  0  0  0  0
   37.5860   29.0650   42.7920 C   0  0  0  0  0  0  0  0  0  0  0  0
   38.3610   30.1260   42.2410 N   0  0  0  0  0  0  0  0  0  0  0  0
   39.6750   30.3390   42.6020 C   0  0  0  0  0  0  0  0  0  0  0  0
   40.1890   31.4190   41.9260 N   0  0  0  0  0  0  0  0  0  0  0  0
   39.2170   31.8930   41.1440 C   0  0  0  0  0  0  0  0  0  0  0  0
   39.1710   32.9400   40.2680 C   0  0  0  0  0  0  0  0  0  0  0  0
   37.9850   33.1320   39.6280 N   0  0  0  0  0  0  0  0  0  0  0  0
   36.9030   32.3560   39.8230 C   0  0  0  0  0  0  0  0  0  0  0  0
   36.9400   31.3130   40.6930 N   0  0  0  0  0  0  0  0  0  0  0  0
   38.0940   31.1020   41.3340 C   0  0  0  0  0  0  0  0  0  0  0  0
   40.2740   33.7860   40.0220 N   0  0  0  0  0  0  0  0  0  0  0  0
   35.4920   26.6190   43.2200 H   0  0  0  0  0  0  0  0  0  0  0  0
   36.8770   27.2690   45.3620 H   0  0  0  0  0  0  0  0  0  0  0  0
   40.2960   29.8010   43.2940 H   0  0  0  0  0  0  0  0  0  0  0  0
   36.0060   32.5920   39.2640 H   0  0  0  0  0  0  0  0  0  0  0  0
   40.1430   34.6230   39.4300 H   0  0  0  0  0  0  0  0  0  0  0  0
   41.1920   33.5490   40.4420 H   0  0  0  0  0  0  0  0  0  0  0  0
   34.7200   28.3260   37.0360 C   0  0  0  0  0  0  0  0  0  0  0  0
   33.3510   28.9920   36.9930 C   0  0  0  0  0  0  0  0  0  0  0  0
   32.8430   28.6820   37.9190 H   0  0  0  0  0  0  0  0  0  0  0  0
   32.7850   28.5660   36.1300 H   0  0  0  0  0  0  0  0  0  0  0  0
   33.4760   30.0700   36.8660 H   0  0  0  0  0  0  0  0  0  0  0  0
   34.5360   26.9300   36.4820 C   0  0  0  0  0  0  0  0  0  0  0  0
   34.4850   26.8930   35.3830 H   0  0  0  0  0  0  0  0  0  0  0  0
   35.3760   26.2590   36.8240 H   0  0  0  0  0  0  0  0  0  0  0  0
   33.6150   26.5140   36.9440 H   0  0  0  0  0  0  0  0  0  0  0  0
   35.6430   29.0820   36.1020 C   0  0  0  0  0  0  0  0  0  0  0  0
   35.1980   30.0960   35.9250 H   0  0  0  0  0  0  0  0  0  0  0  0
   35.5540   28.5640   35.1110 H   0  0  0  0  0  0  0  0  0  0  0  0
   37.0380   29.1310   36.5170 C   0  0  0  0  0  0  0  0  0  0  0  0
   37.6280   30.1280   37.2700 C   0  0  0  0  0  0  0  0  0  0  0  0
   38.9530   30.1390   37.6340 C   0  0  0  0  0  0  0  0  0  0  0  0
   39.6960   29.0900   37.2070 N   0  0  0  0  0  0  0  0  0  0  0  0
   39.1230   28.1200   36.4730 C   0  0  0  0  0  0  0  0  0  0  0  0
   39.7520   27.3000   36.1520 H   0  0  0  0  0  0  0  0  0  0  0  0
   37.8440   28.1040   36.1200 N   0  0  0  0  0  0  0  0  0  0  0  0
  1  2  1  0  0  0  0
  1  7  1  0  0  0  0
  2  9  1  0  0  0  0
  3  8  1  0  0  0  0
  3  2  2  0  0  0  0
  4  3  1  0  0  0  0
  5  4  2  0  0  0  0
  5  6  1  0  0  0  0
  6  1  2  0  0  0  0
  9 13  1  0  0  0  0
  9 10  1  0  0  0  0
 10 11  2  0  0  0  0
 11 25  1  0  0  0  0
 12 11  1  0  0  0  0
 13 12  2  0  0  0  0
 14 15  1  0  0  0  0
 14 13  1  0  0  0  0
 15 26  1  0  0  0  0
 16 15  2  0  0  0  0
 17 22  1  0  0  0  0
 17 16  1  0  0  0  0
 18 17  2  0  0  0  0
 19 20  2  0  0  0  0
 19 18  1  0  0  0  0
 20 21  1  0  0  0  0
 21 22  2  0  0  0  0
 22 14  1  0  0  0  0
 23 18  1  0  0  0  0
 23 29  1  0  0  0  0
 24 10  1  0  0  0  0
 27 20  1  0  0  0  0
 28 23  1  0  0  0  0
 30  5  1  0  0  0  0
 31 30  1  0  0  0  0
 31 32  1  0  0  0  0
 33 31  1  0  0  0  0
 34 31  1  0  0  0  0
 35 37  1  0  0  0  0
 35 38  1  0  0  0  0
 35 30  1  0  0  0  0
 36 35  1  0  0  0  0
 39 42  1  0  0  0  0
 39 30  1  0  0  0  0
 40 39  1  0  0  0  0
 41 39  1  0  0  0  0
 42 43  1  0  0  0  0
 43 44  2  0  0  0  0
 45 44  1  0  0  0  0
 46 45  2  0  0  0  0
 47 46  1  0  0  0  0
 48 46  1  0  0  0  0
 48 42  2  0  0  0  0
M  END
>  <minimizedAffinity>
-6.37606716

>  <minimizedRMSD>
0.812106252

$$$$
