
 OpenBabel03242506063D

 44 47  0  0  1  0  0  0  0  0999 V2000
   36.9920   27.9710   41.6250 N   0  0  0  0  0  0  0  0  0  0  0  0
   36.8920   27.0730   42.7530 C   0  0  0  0  0  0  0  0  0  0  0  0
   37.5080   27.8520   43.9130 C   0  0  0  0  0  0  0  0  0  0  0  0
   38.0760   29.1160   43.3120 C   0  0  0  0  0  0  0  0  0  0  0  0
   38.2190   28.6850   41.8640 C   0  0  2  0  0  0  0  0  0  0  0  0
   37.4990   26.1570   42.5560 H   0  0  0  0  0  0  0  0  0  0  0  0
   35.8300   26.8470   42.9160 H   0  0  0  0  0  0  0  0  0  0  0  0
   38.2170   27.2670   44.4980 H   0  0  0  0  0  0  0  0  0  0  0  0
   36.6410   28.1790   44.5520 H   0  0  0  0  0  0  0  0  0  0  0  0
   39.0900   29.2490   43.7490 H   0  0  0  0  0  0  0  0  0  0  0  0
   37.4400   29.9910   43.4410 H   0  0  0  0  0  0  0  0  0  0  0  0
   39.0090   27.9130   41.9180 H   0  0  0  0  0  0  0  0  0  0  0  0
   35.0720   29.0600   40.4960 C   0  0  0  0  0  0  0  0  0  0  0  0
   36.1210   28.1320   40.5420 C   0  0  0  0  0  0  0  0  0  0  0  0
   36.3030   27.3030   39.4120 C   0  0  0  0  0  0  0  0  0  0  0  0
   35.4570   27.4570   38.3590 N   0  0  0  0  0  0  0  0  0  0  0  0
   34.4630   28.3640   38.3620 C   0  0  0  0  0  0  0  0  0  0  0  0
   34.2800   29.1590   39.4330 N   0  0  0  0  0  0  0  0  0  0  0  0
   34.9270   29.6990   41.3580 H   0  0  0  0  0  0  0  0  0  0  0  0
   37.1010   26.5730   39.4070 H   0  0  0  0  0  0  0  0  0  0  0  0
   33.7110   28.3430   37.1560 N   0  0  0  0  0  0  0  0  0  0  0  0
   33.1560   29.3860   36.5130 C   0  0  0  0  0  0  0  0  0  0  0  0
   32.4520   29.1790   35.3400 C   0  0  0  0  0  0  0  0  0  0  0  0
   31.8650   30.3580   34.6800 C   0  0  0  0  0  0  0  0  0  0  0  0
   32.3010   27.9200   34.8030 C   0  0  0  0  0  0  0  0  0  0  0  0
   31.6660   27.7170   33.7430 O   0  0  0  0  0  0  0  0  0  0  0  0
   32.8700   26.9180   35.4770 N   0  0  0  0  0  0  0  0  0  0  0  0
   33.5600   27.0970   36.6210 C   0  0  0  0  0  0  0  0  0  0  0  0
   34.0370   26.0400   37.1360 O   0  0  0  0  0  0  0  0  0  0  0  0
   32.7510   25.9560   35.0600 H   0  0  0  0  0  0  0  0  0  0  0  0
   38.5170   29.7320   40.9610 N   0  0  0  0  0  0  0  0  0  0  0  0
   38.0710   30.9900   40.9470 C   0  0  0  0  0  0  0  0  0  0  0  0
   38.4670   31.8970   39.9810 C   0  0  0  0  0  0  0  0  0  0  0  0
   39.3450   31.5370   38.9830 C   0  0  0  0  0  0  0  0  0  0  0  0
   39.6980   32.3590   38.1150 O   0  0  0  0  0  0  0  0  0  0  0  0
   39.7810   30.2560   39.0220 N   0  0  0  0  0  0  0  0  0  0  0  0
   39.3850   29.3860   39.9720 C   0  0  0  0  0  0  0  0  0  0  0  0
   39.8950   28.2070   39.8620 O   0  0  0  0  0  0  0  0  0  0  0  0
   37.3820   31.2380   41.7460 H   0  0  0  0  0  0  0  0  0  0  0  0
   40.4480   29.9760   38.2690 H   0  0  0  0  0  0  0  0  0  0  0  0
   37.9270   33.2800   40.0320 C   0  0  0  0  0  0  0  0  0  0  0  0
   38.2850   33.8130   40.9570 H   0  0  0  0  0  0  0  0  0  0  0  0
   36.8250   33.2320   40.0810 H   0  0  0  0  0  0  0  0  0  0  0  0
   38.2260   33.8490   39.1350 H   0  0  0  0  0  0  0  0  0  0  0  0
  1  5  1  0  0  0  0
  1  2  1  0  0  0  0
  2  7  1  0  0  0  0
  2  3  1  0  0  0  0
  3  8  1  0  0  0  0
  3  9  1  0  0  0  0
  4 11  1  0  0  0  0
  4 10  1  0  0  0  0
  4  3  1  0  0  0  0
  5 12  1  6  0  0  0
  5  4  1  0  0  0  0
  6  2  1  0  0  0  0
 13 14  1  0  0  0  0
 13 19  1  0  0  0  0
 14  1  1  0  0  0  0
 15 14  2  0  0  0  0
 16 17  2  0  0  0  0
 16 15  1  0  0  0  0
 17 18  1  0  0  0  0
 18 13  2  0  0  0  0
 20 15  1  0  0  0  0
 21 17  1  0  0  0  0
 22 21  1  0  0  0  0
 23 22  2  0  0  0  0
 24 23  1  0  0  0  0
 25 23  1  0  0  0  0
 25 27  1  0  0  0  0
 26 25  2  0  0  0  0
 27 28  1  0  0  0  0
 28 29  2  0  0  0  0
 28 21  1  0  0  0  0
 30 27  1  0  0  0  0
 31  5  1  0  0  0  0
 32 31  1  0  0  0  0
 32 39  1  0  0  0  0
 33 41  1  0  0  0  0
 33 32  2  0  0  0  0
 34 36  1  0  0  0  0
 34 33  1  0  0  0  0
 35 34  2  0  0  0  0
 36 37  1  0  0  0  0
 37 31  1  0  0  0  0
 38 37  2  0  0  0  0
 40 36  1  0  0  0  0
 41 43  1  0  0  0  0
 41 42  1  0  0  0  0
 44 41  1  0  0  0  0
M  END
>  <minimizedAffinity>
-6.24816561

>  <minimizedRMSD>
0.300728142

$$$$
