
 OpenBabel03242504413D

 41 43  0  0  1  0  0  0  0  0999 V2000
   37.5030   30.6650   39.4480 C   0  0  1  0  0  0  0  0  0  0  0  0
   38.2910   30.1610   40.0470 H   0  0  0  0  0  0  0  0  0  0  0  0
   36.7860   29.4590   35.9540 C   0  0  0  0  0  0  0  0  0  0  0  0
   37.0600   30.3550   37.0190 C   0  0  0  0  0  0  0  0  0  0  0  0
   37.2220   29.8020   38.2890 C   0  0  0  0  0  0  0  0  0  0  0  0
   37.1040   28.4480   38.3990 N   0  0  0  0  0  0  0  0  0  0  0  0
   36.8500   27.6170   37.4060 C   0  0  0  0  0  0  0  0  0  0  0  0
   36.6880   28.1290   36.1590 N   0  0  0  0  0  0  0  0  0  0  0  0
   36.6780   29.9790   35.0100 H   0  0  0  0  0  0  0  0  0  0  0  0
   37.1420   31.4180   36.8760 H   0  0  0  0  0  0  0  0  0  0  0  0
   36.7650   26.5480   37.5400 H   0  0  0  0  0  0  0  0  0  0  0  0
   37.9870   32.0130   38.9080 C   0  0  0  0  0  0  0  0  0  0  0  0
   37.6610   32.1810   37.8700 H   0  0  0  0  0  0  0  0  0  0  0  0
   37.4650   32.8030   39.4940 H   0  0  0  0  0  0  0  0  0  0  0  0
   39.4270   32.1930   39.1760 C   0  0  2  0  0  0  0  0  0  0  0  0
   39.9590   31.3490   40.2980 C   0  0  0  0  0  0  0  0  0  0  0  0
   41.0560   32.1870   40.9500 C   0  0  0  0  0  0  0  0  0  0  0  0
   41.0820   33.5210   40.2050 C   0  0  0  0  0  0  0  0  0  0  0  0
   39.7040   33.5820   39.6260 C   0  0  2  0  0  0  0  0  0  0  0  0
   39.9880   32.0290   38.2510 H   0  0  0  0  0  0  0  0  0  0  0  0
   40.3620   30.3920   39.9000 H   0  0  0  0  0  0  0  0  0  0  0  0
   39.1770   31.0980   41.0260 H   0  0  0  0  0  0  0  0  0  0  0  0
   42.0340   31.6870   40.6910 H   0  0  0  0  0  0  0  0  0  0  0  0
   40.9460   32.2940   42.0280 H   0  0  0  0  0  0  0  0  0  0  0  0
   41.9000   33.5950   39.4780 H   0  0  0  0  0  0  0  0  0  0  0  0
   41.1810   34.3220   40.9930 H   0  0  0  0  0  0  0  0  0  0  0  0
   39.6730   34.2740   38.7720 H   0  0  0  0  0  0  0  0  0  0  0  0
   38.7850   34.0440   40.7350 C   0  0  0  0  0  0  0  0  0  0  0  0
   38.7190   34.6960   41.7710 O   0  0  0  0  0  0  0  0  0  0  0  0
   37.8630   34.1650   41.3120 H   0  0  0  0  0  0  0  0  0  0  0  0
   36.3160   30.8460   40.3640 C   0  0  0  0  0  0  0  0  0  0  0  0
   35.4660   30.2510   39.9200 H   0  0  0  0  0  0  0  0  0  0  0  0
   36.0060   31.9190   40.2340 H   0  0  0  0  0  0  0  0  0  0  0  0
   36.5330   30.4790   41.6570 O   0  0  0  0  0  0  0  0  0  0  0  0
   37.2600   29.4740   42.1740 C   0  0  0  0  0  0  0  0  0  0  0  0
   36.5520   28.2760   42.0020 C   0  0  0  0  0  0  0  0  0  0  0  0
   37.0330   27.0390   42.4310 C   0  0  0  0  0  0  0  0  0  0  0  0
   36.5560   26.0920   42.3370 H   0  0  0  0  0  0  0  0  0  0  0  0
   38.2320   27.0060   43.0350 N   0  0  0  0  0  0  0  0  0  0  0  0
   38.9320   28.1300   43.2140 C   0  0  0  0  0  0  0  0  0  0  0  0
   38.4380   29.3000   42.7900 N   0  0  0  0  0  0  0  0  0  0  0  0
  1  2  1  1  0  0  0
  1 31  1  0  0  0  0
  3  8  2  0  0  0  0
  3  4  1  0  0  0  0
  4  5  2  0  0  0  0
  5  6  1  0  0  0  0
  5  1  1  0  0  0  0
  7 11  1  0  0  0  0
  7  6  2  0  0  0  0
  8  7  1  0  0  0  0
  9  3  1  0  0  0  0
 10  4  1  0  0  0  0
 12 15  1  0  0  0  0
 12  1  1  0  0  0  0
 12 14  1  0  0  0  0
 13 12  1  0  0  0  0
 15 20  1  6  0  0  0
 15 19  1  0  0  0  0
 15 16  1  0  0  0  0
 16 17  1  0  0  0  0
 16 22  1  0  0  0  0
 17 24  1  0  0  0  0
 18 17  1  0  0  0  0
 18 26  1  0  0  0  0
 19 27  1  6  0  0  0
 19 18  1  0  0  0  0
 19 28  1  0  0  0  0
 21 16  1  0  0  0  0
 23 17  1  0  0  0  0
 25 18  1  0  0  0  0
 28 30  1  0  0  0  0
 28 29  2  0  0  0  0
 31 34  1  0  0  0  0
 32 31  1  0  0  0  0
 33 31  1  0  0  0  0
 34 35  1  0  0  0  0
 35 41  1  0  0  0  0
 36 35  2  0  0  0  0
 36 37  1  0  0  0  0
 37 39  2  0  0  0  0
 38 37  1  0  0  0  0
 39 40  1  0  0  0  0
 41 40  2  0  0  0  0
M  END
>  <minimizedAffinity>
-4.99218559

>  <minimizedRMSD>
6.44501352

$$$$
