
 OpenBabel03242509253D

 49 53  0  0  0  0  0  0  0  0999 V2000
   38.6650   28.1750   42.6990 C   0  0  0  0  0  0  0  0  0  0  0  0
   37.5840   27.3260   42.7800 C   0  0  0  0  0  0  0  0  0  0  0  0
   36.5180   27.9930   42.1730 C   0  0  0  0  0  0  0  0  0  0  0  0
   37.0310   29.1670   41.7820 N   0  0  0  0  0  0  0  0  0  0  0  0
   38.2830   29.3060   42.0750 N   0  0  0  0  0  0  0  0  0  0  0  0
   37.5800   26.3400   43.2290 H   0  0  0  0  0  0  0  0  0  0  0  0
   35.5370   27.5440   42.0980 H   0  0  0  0  0  0  0  0  0  0  0  0
   41.5620   26.5580   44.3900 C   0  0  0  0  0  0  0  0  0  0  0  0
   40.2530   26.7370   43.9550 C   0  0  0  0  0  0  0  0  0  0  0  0
   39.9980   27.9130   43.1970 C   0  0  0  0  0  0  0  0  0  0  0  0
   41.0050   28.7940   42.9310 N   0  0  0  0  0  0  0  0  0  0  0  0
   42.2710   28.5320   43.4040 C   0  0  0  0  0  0  0  0  0  0  0  0
   42.5370   27.4300   44.1210 N   0  0  0  0  0  0  0  0  0  0  0  0
   41.8140   25.6740   44.9740 H   0  0  0  0  0  0  0  0  0  0  0  0
   39.4740   26.0310   44.1750 H   0  0  0  0  0  0  0  0  0  0  0  0
   43.2860   29.4810   43.1000 N   0  0  0  0  0  0  0  0  0  0  0  0
   42.7750   30.7130   42.8090 C   0  0  0  0  0  3  0  0  0  0  0  0
   43.5970   31.7570   42.4910 C   0  0  0  0  0  0  0  0  0  0  0  0
   43.0510   33.1150   42.1700 C   0  0  0  0  0  1  0  0  0  0  0  0
   44.9570   31.5380   42.4720 C   0  0  0  0  0  0  0  0  0  0  0  0
   45.7880   32.4580   42.1860 O   0  0  0  0  0  0  0  0  0  0  0  0
   45.4350   30.3200   42.7600 N   0  0  0  0  0  0  0  0  0  0  0  0
   44.6210   29.2950   43.0720 C   0  0  0  0  0  0  0  0  0  0  0  0
   44.9490   28.1150   43.3610 O   0  0  0  0  0  0  0  0  0  0  0  0
   46.4600   30.0940   42.7620 H   0  0  0  0  0  0  0  0  0  0  0  0
   36.1920   30.1060   41.1180 C   0  0  0  0  0  0  0  0  0  0  0  0
   35.5990   30.6180   41.9220 H   0  0  0  0  0  0  0  0  0  0  0  0
   36.8050   30.9060   40.6460 H   0  0  0  0  0  0  0  0  0  0  0  0
   35.2930   29.5360   40.0660 C   0  0  0  0  0  0  0  0  0  0  0  0
   34.5840   30.4250   39.9400 H   0  0  0  0  0  0  0  0  0  0  0  0
   34.8170   28.6410   40.4400 H   0  0  0  0  0  0  0  0  0  0  0  0
   35.8980   29.4390   38.7180 C   0  0  0  0  0  0  0  0  0  0  0  0
   37.2160   29.5810   38.3840 C   0  0  0  0  0  0  0  0  0  0  0  0
   37.7290   29.5620   37.1200 C   0  0  0  0  0  0  0  0  0  0  0  0
   36.8790   29.3900   36.0520 C   0  0  0  0  0  0  0  0  0  0  0  0
   35.5300   29.2400   36.3150 C   0  0  0  0  0  0  0  0  0  0  0  0
   34.7270   29.0790   35.2150 C   0  0  0  0  0  0  0  0  0  0  0  0
   33.3820   28.9260   35.3750 C   0  0  0  0  0  0  0  0  0  0  0  0
   32.8440   28.9310   36.6410 C   0  0  0  0  0  0  0  0  0  0  0  0
   33.6950   29.0940   37.7030 C   0  0  0  0  0  0  0  0  0  0  0  0
   35.0380   29.2600   37.6200 C   0  0  0  0  0  0  0  0  0  0  0  0
   37.8910   29.7180   39.2300 H   0  0  0  0  0  0  0  0  0  0  0  0
   38.7960   29.6850   37.0080 H   0  0  0  0  0  0  0  0  0  0  0  0
   37.2890   29.3780   35.0520 H   0  0  0  0  0  0  0  0  0  0  0  0
   35.1190   29.0680   34.2020 H   0  0  0  0  0  0  0  0  0  0  0  0
   32.7050   28.7980   34.5300 H   0  0  0  0  0  0  0  0  0  0  0  0
   31.7790   28.8070   36.7680 H   0  0  0  0  0  0  0  0  0  0  0  0
   33.0970   29.0710   38.9550 O   0  0  0  0  0  0  0  0  0  0  0  0
   32.3750   29.7170   39.2400 H   0  0  0  0  0  0  0  0  0  0  0  0
  1  2  1  0  0  0  0
  1 10  1  0  0  0  0
  2  6  1  0  0  0  0
  3  2  2  0  0  0  0
  4  5  1  0  0  0  0
  4  3  1  0  0  0  0
  5  1  2  0  0  0  0
  7  3  1  0  0  0  0
  8 14  1  0  0  0  0
  9 15  1  0  0  0  0
  9  8  2  0  0  0  0
 10  9  1  0  0  0  0
 11 10  2  0  0  0  0
 11 12  1  0  0  0  0
 12 13  2  0  0  0  0
 13  8  1  0  0  0  0
 16 12  1  0  0  0  0
 17 16  1  0  0  0  0
 18 17  2  0  0  0  0
 19 18  1  0  0  0  0
 20 18  1  0  0  0  0
 20 22  1  0  0  0  0
 21 20  2  0  0  0  0
 22 25  1  0  0  0  0
 22 23  1  0  0  0  0
 23 16  1  0  0  0  0
 23 24  2  0  0  0  0
 26  4  1  0  0  0  0
 26 27  1  0  0  0  0
 28 26  1  0  0  0  0
 29 31  1  0  0  0  0
 29 26  1  0  0  0  0
 30 29  1  0  0  0  0
 32 29  1  0  0  0  0
 33 32  1  0  0  0  0
 33 42  1  0  0  0  0
 34 33  2  0  0  0  0
 35 36  2  0  0  0  0
 35 34  1  0  0  0  0
 36 41  1  0  0  0  0
 37 38  2  0  0  0  0
 37 36  1  0  0  0  0
 38 39  1  0  0  0  0
 39 47  1  0  0  0  0
 39 40  2  0  0  0  0
 40 48  1  0  0  0  0
 41 40  1  0  0  0  0
 41 32  2  0  0  0  0
 43 34  1  0  0  0  0
 44 35  1  0  0  0  0
 45 37  1  0  0  0  0
 46 38  1  0  0  0  0
 48 49  1  0  0  0  0
M  END
>  <minimizedAffinity>
-6.53738642

>  <minimizedRMSD>
0.0617757663

$$$$
