
 OpenBabel03242509233D

 48 52  0  0  0  0  0  0  0  0999 V2000
   38.3640   29.7940   37.5480 C   0  0  0  0  0  0  0  0  0  0  0  0
   39.6250   30.3600   37.6670 C   0  0  0  0  0  0  0  0  0  0  0  0
   40.8200   29.7640   37.3980 C   0  0  0  0  0  0  0  0  0  0  0  0
   40.8290   28.4590   36.9590 C   0  0  0  0  0  0  0  0  0  0  0  0
   39.6060   27.8200   36.8160 C   0  0  0  0  0  0  0  0  0  0  0  0
   39.7100   26.5280   36.3790 C   0  0  0  0  0  0  0  0  0  0  0  0
   38.5530   25.8090   36.2080 C   0  0  0  0  0  0  0  0  0  0  0  0
   37.3310   26.4070   36.4810 C   0  0  0  0  0  0  0  0  0  0  0  0
   37.3130   27.7180   36.9180 C   0  0  0  0  0  0  0  0  0  0  0  0
   38.4300   28.4720   37.1020 C   0  0  0  0  0  0  0  0  0  0  0  0
   39.6480   31.3820   38.0150 H   0  0  0  0  0  0  0  0  0  0  0  0
   41.7470   30.3220   37.5320 H   0  0  0  0  0  0  0  0  0  0  0  0
   41.7670   28.0090   36.7530 H   0  0  0  0  0  0  0  0  0  0  0  0
   40.6650   26.0490   36.1620 H   0  0  0  0  0  0  0  0  0  0  0  0
   38.6650   24.7700   35.8560 H   0  0  0  0  0  0  0  0  0  0  0  0
   36.5140   25.7210   36.3010 H   0  0  0  0  0  0  0  0  0  0  0  0
   35.9510   28.0510   37.1340 N   0  0  0  0  0  0  0  0  0  0  0  0
   35.2180   28.6280   36.1110 C   0  0  0  0  0  0  0  0  0  0  0  0
   33.9250   29.0990   36.1170 C   0  0  0  0  0  0  0  0  0  0  0  0
   33.3380   29.6770   34.9080 C   0  0  0  0  0  0  0  0  0  0  0  0
   33.2760   28.9730   37.3220 C   0  0  0  0  0  0  0  0  0  0  0  0
   32.0990   29.3720   37.4260 O   0  0  0  0  0  0  0  0  0  0  0  0
   33.9150   28.4250   38.3650 N   0  0  0  0  0  0  0  0  0  0  0  0
   35.1780   27.9880   38.2840 C   0  0  0  0  0  0  0  0  0  0  0  0
   35.8340   27.4600   39.2480 O   0  0  0  0  0  0  0  0  0  0  0  0
   33.4800   28.3010   39.3050 H   0  0  0  0  0  0  0  0  0  0  0  0
   37.0610   30.4220   37.7940 C   0  0  0  0  0  0  0  0  0  0  0  0
   37.0170   31.2900   37.1460 H   0  0  0  0  0  0  0  0  0  0  0  0
   36.2320   29.7490   37.9150 H   0  0  0  0  0  0  0  0  0  0  0  0
   36.9780   31.1250   39.1370 C   0  0  0  0  0  0  0  0  0  0  0  0
   37.5910   32.0350   39.0680 H   0  0  0  0  0  0  0  0  0  0  0  0
   35.9330   31.5290   39.3200 H   0  0  0  0  0  0  0  0  0  0  0  0
   37.9700   28.8230   41.6340 C   0  0  0  0  0  0  0  0  0  0  0  0
   36.9260   29.4380   42.2500 C   0  0  0  0  0  0  0  0  0  0  0  0
   36.4350   30.3830   41.3500 C   0  0  0  0  0  0  0  0  0  0  0  0
   37.2240   30.2690   40.2470 N   0  0  0  0  0  0  0  0  0  0  0  0
   38.1070   29.3650   40.4220 N   0  0  0  0  0  0  0  0  0  0  0  0
   36.5900   29.1930   43.2490 H   0  0  0  0  0  0  0  0  0  0  0  0
   35.5830   30.9850   41.6710 H   0  0  0  0  0  0  0  0  0  0  0  0
   39.6780   26.5620   44.0470 C   0  0  0  0  0  0  0  0  0  0  0  0
   38.8530   27.5830   43.5840 C   0  0  0  0  0  0  0  0  0  0  0  0
   38.7970   27.7750   42.1870 C   0  0  0  0  0  0  0  0  0  0  0  0
   39.5280   26.9810   41.3370 N   0  0  0  0  0  0  0  0  0  0  0  0
   40.3140   26.0000   41.8910 C   0  0  0  0  0  0  0  0  0  0  0  0
   40.3870   25.7940   43.2250 N   0  0  0  0  0  0  0  0  0  0  0  0
   39.7500   26.3800   45.1110 H   0  0  0  0  0  0  0  0  0  0  0  0
   38.2680   28.2220   44.2350 H   0  0  0  0  0  0  0  0  0  0  0  0
   40.8880   25.3780   41.2040 H   0  0  0  0  0  0  0  0  0  0  0  0
  1  2  1  0  0  0  0
  1 27  1  0  0  0  0
  2 11  1  0  0  0  0
  3 12  1  0  0  0  0
  3  2  2  0  0  0  0
  4  3  1  0  0  0  0
  5  4  2  0  0  0  0
  5 10  1  0  0  0  0
  6  5  1  0  0  0  0
  7  6  2  0  0  0  0
  7  8  1  0  0  0  0
  8  9  2  0  0  0  0
  9 10  1  0  0  0  0
  9 17  1  0  0  0  0
 10  1  2  0  0  0  0
 13  4  1  0  0  0  0
 14  6  1  0  0  0  0
 15  7  1  0  0  0  0
 16  8  1  0  0  0  0
 17 24  1  0  0  0  0
 18 19  2  0  0  0  0
 18 17  1  0  0  0  0
 19 21  1  0  0  0  0
 20 19  1  0  0  0  0
 21 22  2  0  0  0  0
 21 23  1  0  0  0  0
 23 26  1  0  0  0  0
 24 23  1  0  0  0  0
 24 25  2  0  0  0  0
 27 29  1  0  0  0  0
 27 30  1  0  0  0  0
 28 27  1  0  0  0  0
 30 32  1  0  0  0  0
 30 36  1  0  0  0  0
 31 30  1  0  0  0  0
 33 42  1  0  0  0  0
 33 34  1  0  0  0  0
 34 38  1  0  0  0  0
 35 39  1  0  0  0  0
 35 34  2  0  0  0  0
 36 37  1  0  0  0  0
 36 35  1  0  0  0  0
 37 33  2  0  0  0  0
 40 46  1  0  0  0  0
 41 40  1  0  0  0  0
 41 47  1  0  0  0  0
 42 41  2  0  0  0  0
 43 44  2  0  0  0  0
 43 42  1  0  0  0  0
 44 45  1  0  0  0  0
 45 40  2  0  0  0  0
 48 44  1  0  0  0  0
M  END
>  <minimizedAffinity>
-5.52027702

>  <minimizedRMSD>
3.61047411

$$$$
