
 OpenBabel03242509253D

 49 53  0  0  0  0  0  0  0  0999 V2000
   38.5960   28.1400   42.6880 C   0  0  0  0  0  0  0  0  0  0  0  0
   37.4930   27.3260   42.8130 C   0  0  0  0  0  0  0  0  0  0  0  0
   36.4320   28.0100   42.2150 C   0  0  0  0  0  0  0  0  0  0  0  0
   36.9700   29.1590   41.7840 N   0  0  0  0  0  0  0  0  0  0  0  0
   38.2330   29.2660   42.0460 N   0  0  0  0  0  0  0  0  0  0  0  0
   37.4710   26.3510   43.2860 H   0  0  0  0  0  0  0  0  0  0  0  0
   35.4370   27.5890   42.1730 H   0  0  0  0  0  0  0  0  0  0  0  0
   41.4730   26.5050   44.3940 C   0  0  0  0  0  0  0  0  0  0  0  0
   40.1600   26.7160   43.9880 C   0  0  0  0  0  0  0  0  0  0  0  0
   39.9320   27.8500   43.1610 C   0  0  0  0  0  0  0  0  0  0  0  0
   40.9670   28.6630   42.8050 N   0  0  0  0  0  0  0  0  0  0  0  0
   42.2350   28.3760   43.2560 C   0  0  0  0  0  0  0  0  0  0  0  0
   42.4770   27.3120   44.0380 N   0  0  0  0  0  0  0  0  0  0  0  0
   41.7060   25.6520   45.0290 H   0  0  0  0  0  0  0  0  0  0  0  0
   39.3580   26.0630   44.2800 H   0  0  0  0  0  0  0  0  0  0  0  0
   43.2800   29.2540   42.8570 N   0  0  0  0  0  0  0  0  0  0  0  0
   42.8760   30.5580   42.8160 C   0  0  0  0  0  3  0  0  0  0  0  0
   43.7410   31.5500   42.4540 C   0  0  0  0  0  0  0  0  0  0  0  0
   43.3130   32.9840   42.4030 C   0  0  0  0  0  1  0  0  0  0  0  0
   45.0360   31.2050   42.1320 C   0  0  0  0  0  0  0  0  0  0  0  0
   45.9020   32.0700   41.7860 O   0  0  0  0  0  0  0  0  0  0  0  0
   45.4110   29.9190   42.1800 N   0  0  0  0  0  0  0  0  0  0  0  0
   44.5540   28.9450   42.5370 C   0  0  0  0  0  0  0  0  0  0  0  0
   44.7860   27.7110   42.6190 O   0  0  0  0  0  0  0  0  0  0  0  0
   46.3810   29.5970   41.9470 H   0  0  0  0  0  0  0  0  0  0  0  0
   36.1440   30.1070   41.1170 C   0  0  0  0  0  0  0  0  0  0  0  0
   35.5430   30.6150   41.9180 H   0  0  0  0  0  0  0  0  0  0  0  0
   36.7660   30.9080   40.6590 H   0  0  0  0  0  0  0  0  0  0  0  0
   35.2550   29.5490   40.0500 C   0  0  0  0  0  0  0  0  0  0  0  0
   34.5570   30.4440   39.9170 H   0  0  0  0  0  0  0  0  0  0  0  0
   34.7650   28.6560   40.4130 H   0  0  0  0  0  0  0  0  0  0  0  0
   35.8790   29.4510   38.7110 C   0  0  0  0  0  0  0  0  0  0  0  0
   37.2010   29.5980   38.3940 C   0  0  0  0  0  0  0  0  0  0  0  0
   37.7310   29.5780   37.1370 C   0  0  0  0  0  0  0  0  0  0  0  0
   36.8970   29.4000   36.0580 C   0  0  0  0  0  0  0  0  0  0  0  0
   35.5450   29.2430   36.3040 C   0  0  0  0  0  0  0  0  0  0  0  0
   34.7580   29.0740   35.1930 C   0  0  0  0  0  0  0  0  0  0  0  0
   33.4120   28.9150   35.3350 C   0  0  0  0  0  0  0  0  0  0  0  0
   32.8570   28.9210   36.5930 C   0  0  0  0  0  0  0  0  0  0  0  0
   33.6920   29.0920   37.6660 C   0  0  0  0  0  0  0  0  0  0  0  0
   35.0360   29.2640   37.6020 C   0  0  0  0  0  0  0  0  0  0  0  0
   37.8640   29.7410   39.2490 H   0  0  0  0  0  0  0  0  0  0  0  0
   38.8000   29.7060   37.0400 H   0  0  0  0  0  0  0  0  0  0  0  0
   37.3210   29.3860   35.0640 H   0  0  0  0  0  0  0  0  0  0  0  0
   35.1640   29.0630   34.1860 H   0  0  0  0  0  0  0  0  0  0  0  0
   32.7470   28.7810   34.4810 H   0  0  0  0  0  0  0  0  0  0  0  0
   31.7900   28.7920   36.7060 H   0  0  0  0  0  0  0  0  0  0  0  0
   33.0770   29.0690   38.9110 O   0  0  0  0  0  0  0  0  0  0  0  0
   32.3480   29.7120   39.1830 H   0  0  0  0  0  0  0  0  0  0  0  0
  1  2  1  0  0  0  0
  1 10  1  0  0  0  0
  2  6  1  0  0  0  0
  3  2  2  0  0  0  0
  4  5  1  0  0  0  0
  4  3  1  0  0  0  0
  5  1  2  0  0  0  0
  7  3  1  0  0  0  0
  8 14  1  0  0  0  0
  9 15  1  0  0  0  0
  9  8  2  0  0  0  0
 10  9  1  0  0  0  0
 11 10  2  0  0  0  0
 11 12  1  0  0  0  0
 12 13  2  0  0  0  0
 13  8  1  0  0  0  0
 16 12  1  0  0  0  0
 17 16  1  0  0  0  0
 18 17  2  0  0  0  0
 19 18  1  0  0  0  0
 20 22  1  0  0  0  0
 20 18  1  0  0  0  0
 21 20  2  0  0  0  0
 22 23  1  0  0  0  0
 23 24  2  0  0  0  0
 23 16  1  0  0  0  0
 25 22  1  0  0  0  0
 26  4  1  0  0  0  0
 26 27  1  0  0  0  0
 28 26  1  0  0  0  0
 29 31  1  0  0  0  0
 29 26  1  0  0  0  0
 30 29  1  0  0  0  0
 32 29  1  0  0  0  0
 33 32  1  0  0  0  0
 33 42  1  0  0  0  0
 34 33  2  0  0  0  0
 35 36  2  0  0  0  0
 35 34  1  0  0  0  0
 36 41  1  0  0  0  0
 37 38  2  0  0  0  0
 37 36  1  0  0  0  0
 38 39  1  0  0  0  0
 39 47  1  0  0  0  0
 39 40  2  0  0  0  0
 40 48  1  0  0  0  0
 41 40  1  0  0  0  0
 41 32  2  0  0  0  0
 43 34  1  0  0  0  0
 44 35  1  0  0  0  0
 45 37  1  0  0  0  0
 46 38  1  0  0  0  0
 48 49  1  0  0  0  0
M  END
>  <minimizedAffinity>
-6.48419237

>  <minimizedRMSD>
0.232894152

$$$$
