
 OpenBabel03242503573D

 21 22  0  0  0  0  0  0  0  0999 V2000
   38.1850   28.9070   43.3060 C   0  0  0  0  0  0  0  0  0  0  0  0
   38.3850   27.4990   43.2920 C   0  0  0  0  0  0  0  0  0  0  0  0
   37.6040   26.7590   42.3990 C   0  0  0  0  0  0  0  0  0  0  0  0
   36.7200   27.4100   41.6170 N   0  0  0  0  0  0  0  0  0  0  0  0
   36.5620   28.7450   41.6620 C   0  0  0  0  0  0  0  0  0  0  0  0
   37.2950   29.4770   42.5050 N   0  0  0  0  0  0  0  0  0  0  0  0
   37.6850   25.3450   42.2640 N   0  0  0  0  0  0  0  0  0  0  0  0
   38.8040   29.4570   44.0080 H   0  0  0  0  0  0  0  0  0  0  0  0
   39.0770   26.9710   43.9020 H   0  0  0  0  0  0  0  0  0  0  0  0
   38.5610   25.3230   41.6930 H   0  0  0  0  0  0  0  0  0  0  0  0
   37.0620   24.5660   42.6250 H   0  0  0  0  0  0  0  0  0  0  0  0
   35.5440   29.3130   40.7340 C   0  0  0  0  0  0  0  0  0  0  0  0
   35.0920   28.5170   40.1420 H   0  0  0  0  0  0  0  0  0  0  0  0
   34.7470   29.8710   41.2870 H   0  0  0  0  0  0  0  0  0  0  0  0
   36.2590   30.3170   39.8860 C   0  0  0  0  0  0  0  0  0  0  0  0
   36.6140   29.9150   38.6280 C   0  0  0  0  0  0  0  0  0  0  0  0
   37.2830   30.8270   37.8110 C   0  0  0  0  0  0  0  0  0  0  0  0
   37.5590   32.0670   38.2800 N   0  0  0  0  0  0  0  0  0  0  0  0
   37.2010   32.4410   39.5210 C   0  0  0  0  0  0  0  0  0  0  0  0
   37.4400   33.4400   39.8570 H   0  0  0  0  0  0  0  0  0  0  0  0
   36.5450   31.5690   40.3420 N   0  0  0  0  0  0  0  0  0  0  0  0
  1  8  1  0  0  0  0
  2  1  1  0  0  0  0
  2  9  1  0  0  0  0
  3  2  2  0  0  0  0
  4  5  2  0  0  0  0
  4  3  1  0  0  0  0
  5  6  1  0  0  0  0
  6  1  2  0  0  0  0
  7  3  1  0  0  0  0
  7 11  1  0  0  0  0
 10  7  1  0  0  0  0
 12 14  1  0  0  0  0
 12  5  1  0  0  0  0
 13 12  1  0  0  0  0
 15 21  1  0  0  0  0
 15 12  1  0  0  0  0
 16 15  2  0  0  0  0
 17 18  2  0  0  0  0
 17 16  1  0  0  0  0
 18 19  1  0  0  0  0
 19 20  1  0  0  0  0
 19 21  2  0  0  0  0
M  END
>  <minimizedAffinity>
-4.26969814

>  <minimizedRMSD>
1.32007122

$$$$
