
 OpenBabel03242509263D

 49 53  0  0  0  0  0  0  0  0999 V2000
   38.6290   28.1080   42.7460 C   0  0  0  0  0  0  0  0  0  0  0  0
   37.4790   27.3750   42.9380 C   0  0  0  0  0  0  0  0  0  0  0  0
   36.4470   28.1060   42.3460 C   0  0  0  0  0  0  0  0  0  0  0  0
   37.0450   29.2000   41.8540 N   0  0  0  0  0  0  0  0  0  0  0  0
   38.3190   29.2320   42.0720 N   0  0  0  0  0  0  0  0  0  0  0  0
   37.4090   26.4230   43.4490 H   0  0  0  0  0  0  0  0  0  0  0  0
   35.4250   27.7510   42.3520 H   0  0  0  0  0  0  0  0  0  0  0  0
   41.4640   26.2800   44.3220 C   0  0  0  0  0  0  0  0  0  0  0  0
   40.1560   26.5570   43.9410 C   0  0  0  0  0  0  0  0  0  0  0  0
   39.9580   27.7470   43.1890 C   0  0  0  0  0  0  0  0  0  0  0  0
   41.0170   28.5480   42.8760 N   0  0  0  0  0  0  0  0  0  0  0  0
   42.2780   28.1930   43.2970 C   0  0  0  0  0  0  0  0  0  0  0  0
   42.4900   27.0750   44.0080 N   0  0  0  0  0  0  0  0  0  0  0  0
   41.6730   25.3810   44.9010 H   0  0  0  0  0  0  0  0  0  0  0  0
   39.3350   25.9130   44.1980 H   0  0  0  0  0  0  0  0  0  0  0  0
   43.3480   29.0610   42.9450 N   0  0  0  0  0  0  0  0  0  0  0  0
   43.4540   30.1250   43.7950 C   0  0  0  0  0  3  0  0  0  0  0  0
   44.4240   31.0700   43.6190 C   0  0  0  0  0  0  0  0  0  0  0  0
   44.5540   32.2420   44.5430 C   0  0  0  0  0  1  0  0  0  0  0  0
   45.2970   30.9250   42.5620 C   0  0  0  0  0  0  0  0  0  0  0  0
   46.2260   31.7610   42.3300 O   0  0  0  0  0  0  0  0  0  0  0  0
   45.1730   29.8730   41.7410 N   0  0  0  0  0  0  0  0  0  0  0  0
   44.2140   28.9450   41.9180 C   0  0  0  0  0  0  0  0  0  0  0  0
   43.9990   27.9200   41.2200 O   0  0  0  0  0  0  0  0  0  0  0  0
   45.8060   29.7110   40.9200 H   0  0  0  0  0  0  0  0  0  0  0  0
   36.2600   30.1750   41.1760 C   0  0  0  0  0  0  0  0  0  0  0  0
   35.6900   30.7240   41.9720 H   0  0  0  0  0  0  0  0  0  0  0  0
   36.9170   30.9380   40.7020 H   0  0  0  0  0  0  0  0  0  0  0  0
   35.3400   29.6440   40.1230 C   0  0  0  0  0  0  0  0  0  0  0  0
   34.6660   30.5590   40.0010 H   0  0  0  0  0  0  0  0  0  0  0  0
   34.8300   28.7660   40.4940 H   0  0  0  0  0  0  0  0  0  0  0  0
   35.9400   29.5290   38.7740 C   0  0  0  0  0  0  0  0  0  0  0  0
   37.2520   29.6970   38.4280 C   0  0  0  0  0  0  0  0  0  0  0  0
   37.7580   29.6600   37.1620 C   0  0  0  0  0  0  0  0  0  0  0  0
   36.9070   29.4380   36.1040 C   0  0  0  0  0  0  0  0  0  0  0  0
   35.5640   29.2570   36.3800 C   0  0  0  0  0  0  0  0  0  0  0  0
   34.7610   29.0460   35.2890 C   0  0  0  0  0  0  0  0  0  0  0  0
   33.4210   28.8600   35.4600 C   0  0  0  0  0  0  0  0  0  0  0  0
   32.8900   28.8830   36.7290 C   0  0  0  0  0  0  0  0  0  0  0  0
   33.7420   29.0970   37.7820 C   0  0  0  0  0  0  0  0  0  0  0  0
   35.0800   29.2980   37.6870 C   0  0  0  0  0  0  0  0  0  0  0  0
   37.9280   29.8750   39.2670 H   0  0  0  0  0  0  0  0  0  0  0  0
   38.8210   29.8090   37.0400 H   0  0  0  0  0  0  0  0  0  0  0  0
   37.3130   29.4110   35.1020 H   0  0  0  0  0  0  0  0  0  0  0  0
   35.1470   29.0200   34.2740 H   0  0  0  0  0  0  0  0  0  0  0  0
   32.7430   28.6920   34.6240 H   0  0  0  0  0  0  0  0  0  0  0  0
   31.8290   28.7340   36.8660 H   0  0  0  0  0  0  0  0  0  0  0  0
   33.1520   29.0900   39.0380 O   0  0  0  0  0  0  0  0  0  0  0  0
   32.4130   29.7230   39.3100 H   0  0  0  0  0  0  0  0  0  0  0  0
  1  2  1  0  0  0  0
  1 10  1  0  0  0  0
  2  6  1  0  0  0  0
  3  7  1  0  0  0  0
  3  2  2  0  0  0  0
  4  5  1  0  0  0  0
  4  3  1  0  0  0  0
  5  1  2  0  0  0  0
  8 14  1  0  0  0  0
  9 15  1  0  0  0  0
  9  8  2  0  0  0  0
 10  9  1  0  0  0  0
 11 10  2  0  0  0  0
 11 12  1  0  0  0  0
 12 13  2  0  0  0  0
 13  8  1  0  0  0  0
 16 12  1  0  0  0  0
 16 17  1  0  0  0  0
 18 17  2  0  0  0  0
 18 19  1  0  0  0  0
 20 18  1  0  0  0  0
 21 20  2  0  0  0  0
 22 23  1  0  0  0  0
 22 20  1  0  0  0  0
 23 16  1  0  0  0  0
 24 23  2  0  0  0  0
 25 22  1  0  0  0  0
 26  4  1  0  0  0  0
 26 27  1  0  0  0  0
 28 26  1  0  0  0  0
 29 31  1  0  0  0  0
 29 26  1  0  0  0  0
 30 29  1  0  0  0  0
 32 29  1  0  0  0  0
 33 32  1  0  0  0  0
 33 42  1  0  0  0  0
 34 33  2  0  0  0  0
 35 36  2  0  0  0  0
 35 34  1  0  0  0  0
 36 41  1  0  0  0  0
 37 38  2  0  0  0  0
 37 36  1  0  0  0  0
 38 39  1  0  0  0  0
 39 47  1  0  0  0  0
 39 40  2  0  0  0  0
 40 48  1  0  0  0  0
 41 40  1  0  0  0  0
 41 32  2  0  0  0  0
 43 34  1  0  0  0  0
 44 35  1  0  0  0  0
 45 37  1  0  0  0  0
 46 38  1  0  0  0  0
 48 49  1  0  0  0  0
M  END
>  <minimizedAffinity>
-6.40555382

>  <minimizedRMSD>
0.316808969

$$$$
