
 OpenBabel03242509303D

 22 23  0  0  0  0  0  0  0  0999 V2000
   37.5100   28.5820   43.7580 C   0  0  0  0  0  0  0  0  0  0  0  0
   37.5260   27.1650   43.6310 C   0  0  0  0  0  0  0  0  0  0  0  0
   37.5760   26.6400   42.3430 C   0  0  0  0  0  0  0  0  0  0  0  0
   37.6060   27.5010   41.2560 N   0  0  0  0  0  0  0  0  0  0  0  0
   37.5880   28.8380   41.4430 C   0  0  0  0  0  0  0  0  0  0  0  0
   37.5410   29.3550   42.6700 N   0  0  0  0  0  0  0  0  0  0  0  0
   37.4720   29.0060   44.7490 H   0  0  0  0  0  0  0  0  0  0  0  0
   37.5020   26.5340   44.5080 H   0  0  0  0  0  0  0  0  0  0  0  0
   37.6230   29.6440   40.2690 N   0  0  0  0  0  0  0  0  0  0  0  0
   38.7830   29.7530   39.5960 C   0  0  0  0  0  3  0  0  0  0  0  0
   38.9670   30.5020   38.4370 C   0  0  0  0  0  0  0  0  0  0  0  0
   40.3210   30.5320   37.7960 C   0  0  0  0  0  1  0  0  0  0  0  0
   37.8690   31.1760   37.9520 C   0  0  0  0  0  0  0  0  0  0  0  0
   38.0060   31.8500   36.9220 O   0  0  0  0  0  0  0  0  0  0  0  0
   36.7090   31.0580   38.6340 N   0  0  0  0  0  0  0  0  0  0  0  0
   36.5730   30.3150   39.7650 C   0  0  0  0  0  0  0  0  0  0  0  0
   35.4790   30.2250   40.3780 O   0  0  0  0  0  0  0  0  0  0  0  0
   35.8820   31.5800   38.2480 H   0  0  0  0  0  0  0  0  0  0  0  0
   37.5960   25.1540   42.1630 C   0  0  0  0  0  0  0  0  0  0  0  0
   37.7690   24.9400   40.8080 F   0  0  0  0  0  0  0  0  0  0  0  0
   38.6460   24.5690   42.8220 F   0  0  0  0  0  0  0  0  0  0  0  0
   36.3980   24.5730   42.5510 F   0  0  0  0  0  0  0  0  0  0  0  0
  1  7  1  0  0  0  0
  2  1  1  0  0  0  0
  2  8  1  0  0  0  0
  3  2  2  0  0  0  0
  4  5  2  0  0  0  0
  4  3  1  0  0  0  0
  5  6  1  0  0  0  0
  6  1  2  0  0  0  0
  9  5  1  0  0  0  0
 10  9  1  0  0  0  0
 11 10  2  0  0  0  0
 12 11  1  0  0  0  0
 13 11  1  0  0  0  0
 13 15  1  0  0  0  0
 14 13  2  0  0  0  0
 15 16  1  0  0  0  0
 16  9  1  0  0  0  0
 16 17  2  0  0  0  0
 18 15  1  0  0  0  0
 19  3  1  0  0  0  0
 19 22  1  0  0  0  0
 19 21  1  0  0  0  0
 20 19  1  0  0  0  0
M  END
>  <minimizedAffinity>
-5.17006016

>  <minimizedRMSD>
2.04485631

$$$$
