REMARK  Name = 
REMARK  2 active torsions:
REMARK  status: ('A' for Active; 'I' for Inactive)
REMARK    1  A    between atoms: C_3  and  C_7
REMARK    2  A    between atoms: C_5  and  O_13
REMARK                            x       y       z     vdW  Elec       q    Type
REMARK                         _______ _______ _______ _____ _____    ______ ____
ROOT
ATOM      1  C   UNL     1      37.968  28.890  43.373  0.00  0.00    +0.000 A 
ATOM      2  C   UNL     1      38.089  27.475  43.311  0.00  0.00    +0.000 A 
ATOM      3  C   UNL     1      37.446  26.824  42.257  0.00  0.00    +0.000 A 
ATOM      4  N   UNL     1      36.730  27.574  41.334  0.00  0.00    +0.000 NA
ATOM      5  C   UNL     1      36.658  28.910  41.455  0.00  0.00    +0.000 A 
ATOM      6  N   UNL     1      37.266  29.544  42.454  0.00  0.00    +0.000 NA
ATOM      7  H   UNL     1      38.452  29.431  44.175  0.00  0.00    +0.000 HD
ATOM      8  H   UNL     1      38.655  26.927  44.048  0.00  0.00    +0.000 HD
ENDROOT
BRANCH   3   9
ATOM      9  C   UNL     1      37.540  25.333  42.146  0.00  0.00    +0.000 C 
ATOM     10  F   UNL     1      37.649  25.048  40.812  0.00  0.00    +0.000 F 
ATOM     11  F   UNL     1      38.619  24.831  42.793  0.00  0.00    +0.000 F 
ATOM     12  F   UNL     1      36.381  24.726  42.638  0.00  0.00    +0.000 F 
ENDBRANCH   3   9
BRANCH   5  13
ATOM     13  O   UNL     1      35.889  29.427  40.415  0.00  0.00    +0.000 OA
ATOM     14  H   UNL     1      35.858  30.414  40.168  0.00  0.00    +0.000 HD
ENDBRANCH   5  13
TORSDOF 2
