
 OpenBabel03242507203D

 14 14  0  0  0  0  0  0  0  0999 V2000
   37.9630   28.8980   43.3630 C   0  0  0  0  0  0  0  0  0  0  0  0
   38.1550   27.4770   43.3380 C   0  0  0  0  0  0  0  0  0  0  0  0
   37.5130   26.7540   42.3400 C   0  0  0  0  0  0  0  0  0  0  0  0
   36.7510   27.4340   41.4560 N   0  0  0  0  0  0  0  0  0  0  0  0
   36.5810   28.7680   41.4960 C   0  0  0  0  0  0  0  0  0  0  0  0
   37.1930   29.4810   42.4520 N   0  0  0  0  0  0  0  0  0  0  0  0
   38.4900   29.4070   44.1700 H   0  0  0  0  0  0  0  0  0  0  0  0
   38.7620   26.9190   44.0380 H   0  0  0  0  0  0  0  0  0  0  0  0
   35.9500   29.2480   40.7480 H   0  0  0  0  0  0  0  0  0  0  0  0
   37.6740   25.2710   42.2590 C   0  0  0  0  0  0  0  0  0  0  0  0
   37.9890   25.0270   41.2240 H   0  0  0  0  0  0  0  0  0  0  0  0
   38.4090   24.8680   42.9600 H   0  0  0  0  0  0  0  0  0  0  0  0
   36.3910   24.7470   42.5140 O   0  0  0  0  0  0  0  0  0  0  0  0
   36.5070   23.7540   42.4020 H   0  0  0  0  0  0  0  0  0  0  0  0
  1  7  1  0  0  0  0
  2  1  1  0  0  0  0
  2  8  1  0  0  0  0
  3  2  2  0  0  0  0
  4  5  2  0  0  0  0
  4  3  1  0  0  0  0
  5  6  1  0  0  0  0
  6  1  2  0  0  0  0
  9  5  1  0  0  0  0
 10  3  1  0  0  0  0
 10 13  1  0  0  0  0
 10 12  1  0  0  0  0
 11 10  1  0  0  0  0
 14 13  1  0  0  0  0
M  END
>  <minimizedAffinity>
-2.70601511

>  <minimizedRMSD>
0.383874208

$$$$
