
 OpenBabel03242507453D

 18 19  0  0  0  0  0  0  0  0999 V2000
   37.4740   28.0950   43.9150 C   0  0  0  0  0  0  0  0  0  0  0  0
   36.5150   27.4420   43.1310 C   0  0  0  0  0  0  0  0  0  0  0  0
   36.2760   27.9210   41.8160 C   0  0  0  0  0  0  0  0  0  0  0  0
   37.0030   28.9850   41.4180 N   0  0  0  0  0  0  0  0  0  0  0  0
   37.9170   29.5950   42.1850 C   0  0  0  0  0  0  0  0  0  0  0  0
   38.1600   29.1530   43.4440 N   0  0  0  0  0  0  0  0  0  0  0  0
   37.6210   27.6960   44.9050 H   0  0  0  0  0  0  0  0  0  0  0  0
   35.9580   26.5870   43.5050 H   0  0  0  0  0  0  0  0  0  0  0  0
   35.5460   27.4450   41.1840 H   0  0  0  0  0  0  0  0  0  0  0  0
   38.6650   30.7540   41.6630 C   0  0  0  0  0  0  0  0  0  0  0  0
   40.0340   30.8760   41.9430 C   0  0  0  0  0  0  0  0  0  0  0  0
   40.4510   32.0440   41.3300 C   0  0  0  0  0  0  0  0  0  0  0  0
   39.3740   32.5800   40.7190 N   0  0  0  0  0  0  0  0  0  0  0  0
   38.3010   31.8030   40.9210 N   0  0  0  0  0  0  0  0  0  0  0  0
   40.7020   30.2570   42.4980 H   0  0  0  0  0  0  0  0  0  0  0  0
   41.4450   32.4820   41.3170 H   0  0  0  0  0  0  0  0  0  0  0  0
   39.3210   33.7920   39.9570 C   0  0  0  0  0  0  0  0  0  0  0  0
   38.3340   33.9200   39.4280 H   0  0  0  0  0  0  0  0  0  0  0  0
  1  7  1  0  0  0  0
  2  8  1  0  0  0  0
  2  1  2  0  0  0  0
  3  2  1  0  0  0  0
  4  3  2  0  0  0  0
  4  5  1  0  0  0  0
  5  6  2  0  0  0  0
  6  1  1  0  0  0  0
  9  3  1  0  0  0  0
 10 11  1  0  0  0  0
 10  5  1  0  0  0  0
 11 15  1  0  0  0  0
 12 11  2  0  0  0  0
 13 14  1  0  0  0  0
 13 12  1  0  0  0  0
 14 10  2  0  0  0  0
 16 12  1  0  0  0  0
 17 13  1  0  0  0  0
 18 17  1  0  0  0  0
M  END
>  <minimizedAffinity>
-3.64237714

>  <minimizedRMSD>
2.01802635

$$$$
