
 OpenBabel03232522053D

 34 36  0  0  0  0  0  0  0  0999 V2000
   40.3970   30.5540   39.9190 C   0  0  0  0  0  0  0  0  0  0  0  0
   40.1070   31.7060   40.6480 C   0  0  0  0  0  0  0  0  0  0  0  0
   40.7440   32.7870   40.0270 C   0  0  0  0  0  0  0  0  0  0  0  0
   41.3780   32.2060   38.9610 C   0  0  0  0  0  0  0  0  0  0  0  0
   41.1550   30.9330   38.9340 O   0  0  0  0  0  0  0  0  0  0  0  0
   39.4910   31.7260   41.5360 H   0  0  0  0  0  0  0  0  0  0  0  0
   38.5010   27.5130   40.8960 C   0  0  0  0  0  0  0  0  0  0  0  0
   39.4430   26.4690   40.6070 C   0  0  0  0  0  0  0  0  0  0  0  0
   40.6580   26.9370   40.0940 C   0  0  0  0  0  0  0  0  0  0  0  0
   40.8960   28.2470   39.8990 N   0  0  0  0  0  0  0  0  0  0  0  0
   39.9450   29.1910   40.1990 C   0  0  0  0  0  0  0  0  0  0  0  0
   38.7900   28.8040   40.6830 N   0  0  0  0  0  0  0  0  0  0  0  0
   37.5160   27.2560   41.3030 H   0  0  0  0  0  0  0  0  0  0  0  0
   41.3820   26.1620   39.8690 H   0  0  0  0  0  0  0  0  0  0  0  0
   39.1080   25.1180   40.8430 N   0  0  0  0  0  0  0  0  0  0  0  0
   39.0400   24.5430   42.1280 C   0  0  0  0  0  0  0  0  0  0  0  0
   39.9520   24.9390   43.0020 N   0  0  0  0  0  0  0  0  0  0  0  0
   37.9870   23.5950   42.3370 N   0  0  0  0  0  0  0  0  0  0  0  0
   39.9720   24.5570   43.9530 H   0  0  0  0  0  0  0  0  0  0  0  0
   38.9070   24.5580   39.9620 H   0  0  0  0  0  0  0  0  0  0  0  0
   37.2790   23.9080   43.0410 H   0  0  0  0  0  0  0  0  0  0  0  0
   37.9690   22.6870   41.8150 H   0  0  0  0  0  0  0  0  0  0  0  0
   40.6590   34.1270   40.5410 C   0  0  0  0  0  0  0  0  0  0  0  0
   39.5750   34.7530   40.7990 O   0  0  0  0  0  0  0  0  0  0  0  0
   41.6380   35.1010   40.8990 N   0  0  0  0  0  0  0  0  0  0  0  0
   41.4030   36.5240   40.7930 C   0  0  0  0  0  0  0  0  0  0  0  0
   41.6650   36.9970   42.2120 C   0  0  0  0  0  0  0  0  0  0  0  0
   42.8390   36.1130   42.5850 C   0  0  0  0  0  0  0  0  0  0  0  0
   42.9910   35.1430   41.4190 C   0  0  0  0  0  0  0  0  0  0  0  0
   43.2270   34.1300   41.7850 H   0  0  0  0  0  0  0  0  0  0  0  0
   42.1980   32.9910   37.9980 C   0  0  0  0  0  0  0  0  0  0  0  0
   42.5450   32.1910   36.9180 F   0  0  0  0  0  0  0  0  0  0  0  0
   41.4750   34.0790   37.5640 F   0  0  0  0  0  0  0  0  0  0  0  0
   43.3900   33.3900   38.5740 F   0  0  0  0  0  0  0  0  0  0  0  0
  1 11  1  0  0  0  0
  1  2  2  0  0  0  0
  2  6  1  0  0  0  0
  3 23  1  0  0  0  0
  3  2  1  0  0  0  0
  4  3  2  0  0  0  0
  5  4  1  0  0  0  0
  5  1  1  0  0  0  0
  7 13  1  0  0  0  0
  8 15  1  0  0  0  0
  8  7  2  0  0  0  0
  9  8  1  0  0  0  0
 10  9  2  0  0  0  0
 10 11  1  0  0  0  0
 11 12  2  0  0  0  0
 12  7  1  0  0  0  0
 14  9  1  0  0  0  0
 15 16  1  0  0  0  0
 16 18  1  0  0  0  0
 16 17  2  0  0  0  0
 17 19  1  0  0  0  0
 18 21  1  0  0  0  0
 20 15  1  0  0  0  0
 22 18  1  0  0  0  0
 23 24  2  0  0  0  0
 23 25  1  0  0  0  0
 25 29  1  0  0  0  0
 26 25  1  0  0  0  0
 26 27  1  0  0  0  0
 27 28  1  0  0  0  0
 29 30  1  0  0  0  0
 29 28  1  0  0  0  0
 31 34  1  0  0  0  0
 31  4  1  0  0  0  0
 32 31  1  0  0  0  0
 33 31  1  0  0  0  0
M  END
>  <minimizedAffinity>
-5.02670479

>  <minimizedRMSD>
2.92682076

$$$$
