
 OpenBabel03242503043D

 22 21  0  0  0  0  0  0  0  0999 V2000
   37.8780   31.9480   40.1690 C   0  0  0  0  0  0  0  0  0  0  0  0
   38.8870   31.4760   39.3180 C   0  0  0  0  0  0  0  0  0  0  0  0
   40.0340   32.9530   39.2910 S   0  0  0  0  0  0  0  0  0  0  0  0
   38.8800   33.9130   40.4580 C   0  0  0  0  0  0  0  0  0  0  0  0
   38.0570   33.1600   40.6210 N   0  0  0  0  0  0  0  0  0  0  0  0
   39.0440   30.5750   38.8000 H   0  0  0  0  0  0  0  0  0  0  0  0
   36.5090   30.8040   40.4910 S   0  0  0  0  0  0  0  0  0  0  0  0
   36.3650   28.3020   41.7320 C   0  0  0  0  0  0  0  0  0  0  0  0
   37.0230   29.5390   41.6370 C   0  0  0  0  0  0  0  0  0  0  0  0
   38.1090   29.7400   42.4860 C   0  0  0  0  0  0  0  0  0  0  0  0
   38.4800   28.7620   43.3500 N   0  0  0  0  0  0  0  0  0  0  0  0
   37.8030   27.5760   43.4020 C   0  0  0  0  0  0  0  0  0  0  0  0
   36.7560   27.3410   42.6040 N   0  0  0  0  0  0  0  0  0  0  0  0
   35.5190   28.1150   41.0870 H   0  0  0  0  0  0  0  0  0  0  0  0
   38.6520   30.6630   42.4610 H   0  0  0  0  0  0  0  0  0  0  0  0
   38.2340   26.9120   44.1450 H   0  0  0  0  0  0  0  0  0  0  0  0
   39.0000   35.2500   41.0060 O   0  0  0  0  0  0  0  0  0  0  0  0
   40.0820   36.0400   40.6390 C   0  0  0  0  0  0  0  0  0  0  0  0
   40.6740   36.5490   41.8290 N   0  0  0  0  0  0  0  0  0  0  0  0
   40.7350   36.4720   39.6310 O   0  0  0  0  0  0  0  0  0  0  0  0
   40.5720   37.1350   42.7100 H   0  0  0  0  0 10  0  0  0  0  0  0
   41.2660   36.8240   42.6420 H   0  0  0  0  0  0  0  0  0  0  0  0
  1  7  1  0  0  0  0
  1  5  1  0  0  0  0
  2  1  2  0  0  0  0
  3  2  1  0  0  0  0
  3  4  1  0  0  0  0
  4  5  2  0  0  0  0
  4 17  1  0  0  0  0
  6  2  1  0  0  0  0
  7  9  1  0  0  0  0
  8 13  1  0  0  0  0
  9  8  2  0  0  0  0
  9 10  1  0  0  0  0
 10 11  2  0  0  0  0
 11 12  1  0  0  0  0
 12 16  1  0  0  0  0
 13 12  2  0  0  0  0
 14  8  1  0  0  0  0
 15 10  1  0  0  0  0
 18 17  1  0  0  0  0
 19 22  1  0  0  0  0
 20 18  2  0  0  0  0
M  END
>  <minimizedAffinity>
-4.71566916

>  <minimizedRMSD>
0.981977224

$$$$
