
 OpenBabel03242509173D

 40 44  0  0  1  0  0  0  0  0999 V2000
   37.3010   27.4610   41.4990 C   0  0  0  0  0  0  0  0  0  0  0  0
   37.1500   26.5570   42.5350 C   0  0  0  0  0  0  0  0  0  0  0  0
   36.9530   25.2230   42.3710 C   0  0  0  0  0  0  0  0  0  0  0  0
   36.9040   24.7430   41.0820 C   0  0  0  0  0  0  0  0  0  0  0  0
   37.0520   25.6080   40.0350 C   0  0  0  0  0  0  0  0  0  0  0  0
   37.2540   27.0020   40.2580 C   0  0  0  0  0  0  0  0  0  0  0  0
   37.1940   26.9660   43.5550 H   0  0  0  0  0  0  0  0  0  0  0  0
   36.8440   24.6060   43.2590 H   0  0  0  0  0  0  0  0  0  0  0  0
   36.7450   23.6700   41.0330 H   0  0  0  0  0  0  0  0  0  0  0  0
   36.9890   25.0470   39.0940 H   0  0  0  0  0  0  0  0  0  0  0  0
   37.3360   27.5570   38.9550 N   0  0  0  0  0  0  0  0  0  0  0  0
   38.4370   27.6380   38.1420 C   0  0  0  0  0  3  0  0  0  0  0  0
   38.0790   28.2150   36.9760 N   0  0  0  0  0  0  0  0  0  0  0  0
   36.7770   28.4770   37.0880 C   0  0  0  0  0  0  0  0  0  0  0  0
   35.8860   29.0650   36.1960 C   0  0  0  0  0  0  0  0  0  0  0  0
   36.2880   29.4530   35.0510 O   0  0  0  0  0  0  0  0  0  0  0  0
   34.5810   29.2380   36.5220 N   0  0  0  0  0  0  0  0  0  0  0  0
   34.0960   28.8480   37.7200 C   0  0  0  0  0  0  0  0  0  0  0  0
   32.7300   29.0250   38.0710 N   0  0  0  0  0  0  0  0  0  0  0  0
   34.9460   28.2680   38.6180 N   0  0  0  0  0  0  0  0  0  0  0  0
   36.2430   28.0830   38.3220 C   0  0  0  0  0  0  0  0  0  0  0  0
   33.9570   29.6880   35.8070 H   0  0  0  0  0  0  0  0  0  0  0  0
   32.2180   28.1000   38.0130 H   0  0  0  0  0  0  0  0  0  0  0  0
   32.1950   29.8550   38.3510 H   0  0  0  0  0  0  0  0  0  0  0  0
   38.8440   29.4950   41.6200 C   0  0  1  0  0  0  0  0  0  0  0  0
   38.0590   29.4260   42.8740 C   0  0  0  0  0  0  0  0  0  0  0  0
   37.3670   28.9110   41.6900 C   0  0  2  0  0  0  0  0  0  0  0  0
   39.6510   28.7880   41.5080 H   0  0  0  0  0  0  0  0  0  0  0  0
   37.7380   30.4300   43.2800 H   0  0  0  0  0  0  0  0  0  0  0  0
   38.4330   28.7650   43.6750 H   0  0  0  0  0  0  0  0  0  0  0  0
   36.7850   29.5340   40.9490 H   0  0  0  0  0  0  0  0  0  0  0  0
   38.9510   30.7960   40.8960 C   0  0  0  0  0  0  0  0  0  0  0  0
   39.1780   30.7300   39.5360 C   0  0  0  0  0  0  0  0  0  0  0  0
   39.2770   31.9220   38.8000 C   0  0  0  0  0  0  0  0  0  0  0  0
   39.1390   33.1060   39.4830 N   0  0  0  0  0  0  0  0  0  0  0  0
   38.9190   33.1280   40.8030 C   0  0  0  0  0  0  0  0  0  0  0  0
   38.8320   31.9600   41.4680 N   0  0  0  0  0  0  0  0  0  0  0  0
   39.3060   29.9330   38.8520 H   0  0  0  0  0  0  0  0  0  0  0  0
   39.4510   32.0420   37.7420 H   0  0  0  0  0  0  0  0  0  0  0  0
   38.8050   34.0480   41.3700 H   0  0  0  0  0  0  0  0  0  0  0  0
  1 27  1  0  0  0  0
  1  2  1  0  0  0  0
  2  7  1  0  0  0  0
  3  2  2  0  0  0  0
  3  8  1  0  0  0  0
  4  3  1  0  0  0  0
  5  6  1  0  0  0  0
  5  4  2  0  0  0  0
  6  1  2  0  0  0  0
  9  4  1  0  0  0  0
 10  5  1  0  0  0  0
 11  6  1  0  0  0  0
 12 11  1  0  0  0  0
 13 14  1  0  0  0  0
 13 12  2  0  0  0  0
 14 21  2  0  0  0  0
 15 17  1  0  0  0  0
 15 14  1  0  0  0  0
 16 15  2  0  0  0  0
 17 18  1  0  0  0  0
 18 19  1  0  0  0  0
 18 20  2  0  0  0  0
 19 24  1  0  0  0  0
 21 20  1  0  0  0  0
 21 11  1  0  0  0  0
 22 17  1  0  0  0  0
 23 19  1  0  0  0  0
 25 28  1  6  0  0  0
 25 27  1  0  0  0  0
 25 26  1  0  0  0  0
 26 29  1  0  0  0  0
 26 30  1  0  0  0  0
 27 31  1  6  0  0  0
 27 26  1  0  0  0  0
 32 37  1  0  0  0  0
 32 25  1  0  0  0  0
 33 32  2  0  0  0  0
 34 35  2  0  0  0  0
 34 33  1  0  0  0  0
 35 36  1  0  0  0  0
 36 40  1  0  0  0  0
 36 37  2  0  0  0  0
 38 33  1  0  0  0  0
 39 34  1  0  0  0  0
M  END
>  <minimizedAffinity>
-5.73780489

>  <minimizedRMSD>
1.72830915

$$$$
