
 OpenBabel03242506003D

 35 38  0  0  1  0  0  0  0  0999 V2000
   38.6230   27.6480   42.1910 N   0  0  0  0  0  0  0  0  0  0  0  0
   38.5390   26.4990   43.0330 C   0  0  0  0  0  0  0  0  0  0  0  0
   39.7670   26.6110   43.9320 C   0  0  0  0  0  0  0  0  0  0  0  0
   40.5760   27.7620   43.3860 C   0  0  0  0  0  0  0  0  0  0  0  0
   40.0380   27.8690   41.9880 C   0  0  2  0  0  0  0  0  0  0  0  0
   38.7230   25.5680   42.4270 H   0  0  0  0  0  0  0  0  0  0  0  0
   37.5960   26.4010   43.6040 H   0  0  0  0  0  0  0  0  0  0  0  0
   39.3960   26.9380   44.9410 H   0  0  0  0  0  0  0  0  0  0  0  0
   40.3320   25.6760   44.0150 H   0  0  0  0  0  0  0  0  0  0  0  0
   40.3920   28.7050   43.9560 H   0  0  0  0  0  0  0  0  0  0  0  0
   41.6340   27.4690   43.3250 H   0  0  0  0  0  0  0  0  0  0  0  0
   40.4610   27.0540   41.3610 H   0  0  0  0  0  0  0  0  0  0  0  0
   40.3840   29.1350   41.4360 N   0  0  0  0  0  0  0  0  0  0  0  0
   39.9120   29.6120   40.2450 C   0  0  0  0  0  0  0  0  0  0  0  0
   40.4140   30.8500   39.9720 N   0  0  0  0  0  0  0  0  0  0  0  0
   41.2320   31.1930   41.0030 C   0  0  0  0  0  0  0  0  0  0  0  0
   41.9920   32.2930   41.2740 C   0  0  0  0  0  0  0  0  0  0  0  0
   42.0490   33.2700   40.5050 O   0  0  0  0  0  0  0  0  0  0  0  0
   42.7260   32.3540   42.4170 N   0  0  0  0  0  0  0  0  0  0  0  0
   42.6770   31.3040   43.2640 C   0  0  0  0  0  0  0  0  0  0  0  0
   43.3960   31.2450   44.4890 N   0  0  0  0  0  0  0  0  0  0  0  0
   41.9140   30.2140   42.9800 N   0  0  0  0  0  0  0  0  0  0  0  0
   41.1840   30.1260   41.8670 C   0  0  0  0  0  0  0  0  0  0  0  0
   43.3370   33.1510   42.7110 H   0  0  0  0  0  0  0  0  0  0  0  0
   44.2780   30.7480   44.1950 H   0  0  0  0  0  0  0  0  0  0  0  0
   43.2880   31.5330   45.4850 H   0  0  0  0  0  0  0  0  0  0  0  0
   37.4110   29.8020   41.8640 C   0  0  0  0  0  0  0  0  0  0  0  0
   37.5850   28.4260   41.6530 C   0  0  0  0  0  0  0  0  0  0  0  0
   36.6360   27.7890   40.8330 C   0  0  0  0  0  0  0  0  0  0  0  0
   35.6230   28.5100   40.2950 N   0  0  0  0  0  0  0  0  0  0  0  0
   35.5010   29.8460   40.5320 C   0  0  0  0  0  0  0  0  0  0  0  0
   36.3990   30.4740   41.3150 N   0  0  0  0  0  0  0  0  0  0  0  0
   38.1400   30.2950   42.4950 H   0  0  0  0  0  0  0  0  0  0  0  0
   36.6740   26.7370   40.6060 H   0  0  0  0  0  0  0  0  0  0  0  0
   34.6440   30.2830   40.0350 H   0  0  0  0  0  0  0  0  0  0  0  0
  1  2  1  0  0  0  0
  2  7  1  0  0  0  0
  2  3  1  0  0  0  0
  3  9  1  0  0  0  0
  3  8  1  0  0  0  0
  4  3  1  0  0  0  0
  4 10  1  0  0  0  0
  5 12  1  6  0  0  0
  5  1  1  0  0  0  0
  5  4  1  0  0  0  0
  6  2  1  0  0  0  0
 11  4  1  0  0  0  0
 13 23  1  0  0  0  0
 13  5  1  0  0  0  0
 14 13  1  0  0  0  0
 15 14  2  0  0  0  0
 15 16  1  0  0  0  0
 16 17  1  0  0  0  0
 16 23  2  0  0  0  0
 17 19  1  0  0  0  0
 18 17  2  0  0  0  0
 19 24  1  0  0  0  0
 19 20  1  0  0  0  0
 20 21  1  0  0  0  0
 21 26  1  0  0  0  0
 22 20  2  0  0  0  0
 23 22  1  0  0  0  0
 25 21  1  0  0  0  0
 27 33  1  0  0  0  0
 28 27  1  0  0  0  0
 28  1  1  0  0  0  0
 29 28  2  0  0  0  0
 30 31  2  0  0  0  0
 30 29  1  0  0  0  0
 31 32  1  0  0  0  0
 32 27  2  0  0  0  0
 34 29  1  0  0  0  0
 35 31  1  0  0  0  0
M  END
>  <minimizedAffinity>
-5.11111546

>  <minimizedRMSD>
0.132415876

$$$$
