
 OpenBabel03242509263D

 53 58  0  0  0  0  0  0  0  0999 V2000
   38.6220   28.1210   42.6890 C   0  0  0  0  0  0  0  0  0  0  0  0
   37.5420   27.2780   42.7400 C   0  0  0  0  0  0  0  0  0  0  0  0
   36.4850   27.9550   42.1270 C   0  0  0  0  0  0  0  0  0  0  0  0
   37.0120   29.1460   41.7580 N   0  0  0  0  0  0  0  0  0  0  0  0
   38.2610   29.2730   42.0730 N   0  0  0  0  0  0  0  0  0  0  0  0
   37.5590   26.2810   43.1850 H   0  0  0  0  0  0  0  0  0  0  0  0
   35.5030   27.5320   42.0210 H   0  0  0  0  0  0  0  0  0  0  0  0
   41.5560   26.3800   44.1940 C   0  0  0  0  0  0  0  0  0  0  0  0
   40.2610   26.5860   43.7050 C   0  0  0  0  0  0  0  0  0  0  0  0
   39.9500   27.8630   43.2010 C   0  0  0  0  0  0  0  0  0  0  0  0
   40.8930   28.8480   43.1980 N   0  0  0  0  0  0  0  0  0  0  0  0
   42.1460   28.5650   43.6980 C   0  0  0  0  0  0  0  0  0  0  0  0
   42.4580   27.3660   44.1770 N   0  0  0  0  0  0  0  0  0  0  0  0
   41.8210   25.4240   44.5810 H   0  0  0  0  0  0  0  0  0  0  0  0
   39.5050   25.7990   43.7060 H   0  0  0  0  0  0  0  0  0  0  0  0
   43.0730   29.6450   43.6600 N   0  0  0  0  0  0  0  0  0  0  0  0
   42.8800   30.9890   43.6200 C   0  0  0  0  0  3  0  0  0  0  0  0
   44.0710   31.6200   43.5940 N   0  0  0  0  0  0  0  0  0  0  0  0
   45.0610   30.7120   43.6170 C   0  0  0  0  0  0  0  0  0  0  0  0
   46.4470   30.7440   43.6090 C   0  0  0  0  0  0  0  0  0  0  0  0
   47.0300   31.8540   43.5710 O   0  0  0  0  0  0  0  0  0  0  0  0
   47.1920   29.6020   43.6390 N   0  0  0  0  0  0  0  0  0  0  0  0
   46.5140   28.4530   43.6780 C   0  0  0  0  0  0  0  0  0  0  0  0
   47.1830   27.2060   43.7130 N   0  0  0  0  0  0  0  0  0  0  0  0
   45.1770   28.3760   43.6870 N   0  0  0  0  0  0  0  0  0  0  0  0
   44.4200   29.5080   43.6570 C   0  0  0  0  0  0  0  0  0  0  0  0
   48.2270   29.6000   43.6340 H   0  0  0  0  0  0  0  0  0  0  0  0
   46.8480   26.3270   44.1560 H   0  0  0  0  0  0  0  0  0  0  0  0
   48.0920   26.8590   43.3470 H   0  0  0  0  0  0  0  0  0  0  0  0
   36.1740   30.0800   41.1030 C   0  0  0  0  0  0  0  0  0  0  0  0
   36.7960   30.8770   40.6010 H   0  0  0  0  0  0  0  0  0  0  0  0
   35.6100   30.6210   41.8950 H   0  0  0  0  0  0  0  0  0  0  0  0
   35.2740   29.5270   40.0440 C   0  0  0  0  0  0  0  0  0  0  0  0
   34.7900   28.6320   40.4070 H   0  0  0  0  0  0  0  0  0  0  0  0
   34.5790   30.4250   39.9230 H   0  0  0  0  0  0  0  0  0  0  0  0
   35.8840   29.4320   38.6930 C   0  0  0  0  0  0  0  0  0  0  0  0
   37.2020   29.5670   38.3680 C   0  0  0  0  0  0  0  0  0  0  0  0
   37.7190   29.5470   37.1060 C   0  0  0  0  0  0  0  0  0  0  0  0
   36.8710   29.3780   36.0340 C   0  0  0  0  0  0  0  0  0  0  0  0
   35.5240   29.2340   36.2970 C   0  0  0  0  0  0  0  0  0  0  0  0
   34.7240   29.0750   35.1900 C   0  0  0  0  0  0  0  0  0  0  0  0
   33.3730   28.9260   35.3460 C   0  0  0  0  0  0  0  0  0  0  0  0
   32.8320   28.9340   36.6100 C   0  0  0  0  0  0  0  0  0  0  0  0
   33.6820   29.0950   37.6750 C   0  0  0  0  0  0  0  0  0  0  0  0
   35.0260   29.2560   37.6000 C   0  0  0  0  0  0  0  0  0  0  0  0
   37.8780   29.7020   39.2170 H   0  0  0  0  0  0  0  0  0  0  0  0
   38.7870   29.6650   36.9960 H   0  0  0  0  0  0  0  0  0  0  0  0
   37.2750   29.3630   35.0440 H   0  0  0  0  0  0  0  0  0  0  0  0
   35.0830   29.0580   34.1850 H   0  0  0  0  0  0  0  0  0  0  0  0
   32.7030   28.8000   34.4990 H   0  0  0  0  0  0  0  0  0  0  0  0
   31.7640   28.8140   36.7360 H   0  0  0  0  0  0  0  0  0  0  0  0
   33.0800   29.0760   38.9250 O   0  0  0  0  0  0  0  0  0  0  0  0
   32.2540   29.6310   39.1610 H   0  0  0  0  0  0  0  0  0  0  0  0
  1  2  1  0  0  0  0
  1 10  1  0  0  0  0
  2  6  1  0  0  0  0
  3  2  2  0  0  0  0
  4  5  1  0  0  0  0
  4  3  1  0  0  0  0
  5  1  2  0  0  0  0
  7  3  1  0  0  0  0
  8 14  1  0  0  0  0
  9 15  1  0  0  0  0
  9  8  2  0  0  0  0
 10  9  1  0  0  0  0
 11 10  2  0  0  0  0
 11 12  1  0  0  0  0
 12 13  2  0  0  0  0
 13  8  1  0  0  0  0
 16 12  1  0  0  0  0
 17 16  1  0  0  0  0
 18 19  1  0  0  0  0
 18 17  2  0  0  0  0
 19 26  2  0  0  0  0
 20 19  1  0  0  0  0
 20 22  1  0  0  0  0
 21 20  2  0  0  0  0
 22 23  1  0  0  0  0
 23 25  2  0  0  0  0
 23 24  1  0  0  0  0
 24 28  1  0  0  0  0
 26 16  1  0  0  0  0
 26 25  1  0  0  0  0
 27 22  1  0  0  0  0
 29 24  1  0  0  0  0
 30  4  1  0  0  0  0
 30 32  1  0  0  0  0
 31 30  1  0  0  0  0
 33 34  1  0  0  0  0
 33 30  1  0  0  0  0
 35 33  1  0  0  0  0
 36 33  1  0  0  0  0
 37 36  1  0  0  0  0
 37 46  1  0  0  0  0
 38 37  2  0  0  0  0
 39 40  2  0  0  0  0
 39 38  1  0  0  0  0
 40 45  1  0  0  0  0
 41 42  2  0  0  0  0
 41 40  1  0  0  0  0
 42 43  1  0  0  0  0
 43 51  1  0  0  0  0
 43 44  2  0  0  0  0
 44 52  1  0  0  0  0
 45 44  1  0  0  0  0
 45 36  2  0  0  0  0
 47 38  1  0  0  0  0
 48 39  1  0  0  0  0
 49 41  1  0  0  0  0
 50 42  1  0  0  0  0
 52 53  1  0  0  0  0
M  END
>  <minimizedAffinity>
-6.54243279

>  <minimizedRMSD>
0.626039922

$$$$
