
     RDKit          3D

 27 29  0  0  0  0  0  0  0  0999 V2000
   37.9686   28.8801   43.3685 C   0  0  0  0  0  0  0  0  0  0  0  0
   38.0896   27.4633   43.3138 C   0  0  0  0  0  0  0  0  0  0  0  0
   37.4401   26.8239   42.2564 C   0  0  0  0  0  0  0  0  0  0  0  0
   36.7333   27.5729   41.3423 N   0  0  0  0  0  0  0  0  0  0  0  0
   36.6595   28.9078   41.4529 C   0  0  0  0  0  0  0  0  0  0  0  0
   37.2660   29.5592   42.4492 N   0  0  0  0  0  0  0  0  0  0  0  0
   37.5322   25.3396   42.1484 C   0  0  0  0  0  0  0  0  0  0  0  0
   37.6498   25.0506   40.8046 F   0  0  0  0  0  0  0  0  0  0  0  0
   38.6304   24.8395   42.7985 F   0  0  0  0  0  0  0  0  0  0  0  0
   36.3763   24.7180   42.6384 F   0  0  0  0  0  0  0  0  0  0  0  0
   38.4467   29.4396   44.1614 H   0  0  0  0  0  0  0  0  0  0  0  0
   38.6565   26.9517   44.0615 H   0  0  0  0  0  0  0  0  0  0  0  0
   35.8765   29.4635   40.3953 N   0  0  0  0  0  0  0  0  0  0  0  0
   35.1624   30.6238   40.3476 C   0  0  0  0  0  0  0  0  0  0  0  0
   34.5930   30.6999   39.1187 N   0  0  0  0  0  0  0  0  0  0  0  0
   34.9427   29.6089   38.4083 C   0  0  0  0  0  0  0  0  0  0  0  0
   34.5834   29.2839   37.1095 C   0  0  0  0  0  0  0  0  0  0  0  0
   33.8371   30.0382   36.4166 O   0  0  0  0  0  0  0  0  0  0  0  0
   35.0522   28.1336   36.5955 N   0  0  0  0  0  0  0  0  0  0  0  0
   35.8367   27.3671   37.3608 C   0  0  0  0  0  0  0  0  0  0  0  0
   36.3889   26.1307   36.9218 N   0  0  0  0  0  0  0  0  0  0  0  0
   36.1766   27.6916   38.6137 N   0  0  0  0  0  0  0  0  0  0  0  0
   35.7476   28.8347   39.2107 C   0  0  0  0  0  0  0  0  0  0  0  0
   35.1154   31.3138   41.2054 H   0  0  0  0  0  0  0  0  0  0  0  0
   34.8163   27.8390   35.6290 H   0  0  0  0  0  0  0  0  0  0  0  0
   35.6599   25.4140   37.1325 H   0  0  0  0  0  0  0  0  0  0  0  0
   37.1998   25.6437   36.4858 H   0  0  0  0  0  0  0  0  0  0  0  0
  2  1  2  0
  3  2  1  0
  4  5  1  0
  4  3  2  0
  5  6  2  0
  6  1  1  0
  7  3  1  0
  7 10  1  0
  7  9  1  0
  8  7  1  0
  1 11  1  0
  2 12  1  0
 13 14  1  0
 14 15  2  0
 15 16  1  0
 16 17  1  0
 17 18  2  0
 17 19  1  0
 19 20  1  0
 20 21  1  0
 20 22  2  0
 22 23  1  0
 23 13  1  0
 23 16  2  0
 14 24  1  0
 19 25  1  0
 21 26  1  0
 21 27  1  0
  5 13  1  0
M  ISO  2  11  14  12  14
M  END
>  <DihAtoms>  (1) 
3,4,12,13

>  <DihDeg>  (1) 
49.180855720071584

$$$$
