
 OpenBabel03242509263D

 53 58  0  0  0  0  0  0  0  0999 V2000
   38.4490   28.1170   42.6160 C   0  0  0  0  0  0  0  0  0  0  0  0
   37.3650   27.2810   42.7060 C   0  0  0  0  0  0  0  0  0  0  0  0
   36.3110   27.9320   42.0600 C   0  0  0  0  0  0  0  0  0  0  0  0
   36.8420   29.1030   41.6360 N   0  0  0  0  0  0  0  0  0  0  0  0
   38.0920   29.2400   41.9450 N   0  0  0  0  0  0  0  0  0  0  0  0
   37.3780   26.3070   43.1970 H   0  0  0  0  0  0  0  0  0  0  0  0
   35.3280   27.5080   41.9740 H   0  0  0  0  0  0  0  0  0  0  0  0
   41.3420   26.4840   44.3080 C   0  0  0  0  0  0  0  0  0  0  0  0
   40.0460   26.6730   43.8130 C   0  0  0  0  0  0  0  0  0  0  0  0
   39.7760   27.8780   43.1400 C   0  0  0  0  0  0  0  0  0  0  0  0
   40.7550   28.8140   42.9860 N   0  0  0  0  0  0  0  0  0  0  0  0
   42.0070   28.5520   43.5030 C   0  0  0  0  0  0  0  0  0  0  0  0
   42.2800   27.4200   44.1410 N   0  0  0  0  0  0  0  0  0  0  0  0
   41.5780   25.5810   44.8210 H   0  0  0  0  0  0  0  0  0  0  0  0
   39.2610   25.9250   43.9350 H   0  0  0  0  0  0  0  0  0  0  0  0
   42.9730   29.5780   43.3010 N   0  0  0  0  0  0  0  0  0  0  0  0
   42.9450   30.9040   43.5930 C   0  0  0  0  0  3  0  0  0  0  0  0
   44.1040   31.4790   43.2120 N   0  0  0  0  0  0  0  0  0  0  0  0
   44.9080   30.5500   42.6690 C   0  0  0  0  0  0  0  0  0  0  0  0
   46.1790   30.5300   42.1150 C   0  0  0  0  0  0  0  0  0  0  0  0
   46.8360   31.5970   42.0570 O   0  0  0  0  0  0  0  0  0  0  0  0
   46.7350   29.3800   41.6340 N   0  0  0  0  0  0  0  0  0  0  0  0
   45.9880   28.2780   41.7240 C   0  0  0  0  0  0  0  0  0  0  0  0
   46.4630   27.0300   41.2560 N   0  0  0  0  0  0  0  0  0  0  0  0
   44.7560   28.2540   42.2510 N   0  0  0  0  0  0  0  0  0  0  0  0
   44.1900   29.3930   42.7360 C   0  0  0  0  0  0  0  0  0  0  0  0
   47.6810   29.3400   41.2160 H   0  0  0  0  0  0  0  0  0  0  0  0
   46.2170   26.0870   41.6250 H   0  0  0  0  0  0  0  0  0  0  0  0
   47.1130   26.7350   40.5020 H   0  0  0  0  0  0  0  0  0  0  0  0
   36.0090   30.0080   40.9370 C   0  0  0  0  0  0  0  0  0  0  0  0
   36.6320   30.8060   40.4380 H   0  0  0  0  0  0  0  0  0  0  0  0
   35.4100   30.5540   41.7010 H   0  0  0  0  0  0  0  0  0  0  0  0
   35.1510   29.4170   39.8630 C   0  0  0  0  0  0  0  0  0  0  0  0
   34.7150   28.4920   40.2110 H   0  0  0  0  0  0  0  0  0  0  0  0
   34.4080   30.2760   39.7450 H   0  0  0  0  0  0  0  0  0  0  0  0
   35.7790   29.3730   38.5170 C   0  0  0  0  0  0  0  0  0  0  0  0
   37.1020   29.5120   38.2160 C   0  0  0  0  0  0  0  0  0  0  0  0
   37.6360   29.5390   36.9610 C   0  0  0  0  0  0  0  0  0  0  0  0
   36.8010   29.4180   35.8720 C   0  0  0  0  0  0  0  0  0  0  0  0
   35.4500   29.2730   36.1110 C   0  0  0  0  0  0  0  0  0  0  0  0
   34.6640   29.1640   34.9880 C   0  0  0  0  0  0  0  0  0  0  0  0
   33.3100   29.0180   35.1200 C   0  0  0  0  0  0  0  0  0  0  0  0
   32.7530   28.9780   36.3760 C   0  0  0  0  0  0  0  0  0  0  0  0
   33.5880   29.0910   37.4580 C   0  0  0  0  0  0  0  0  0  0  0  0
   34.9350   29.2460   37.4070 C   0  0  0  0  0  0  0  0  0  0  0  0
   37.7680   29.6080   39.0780 H   0  0  0  0  0  0  0  0  0  0  0  0
   38.7060   29.6540   36.8690 H   0  0  0  0  0  0  0  0  0  0  0  0
   37.2180   29.4410   34.8870 H   0  0  0  0  0  0  0  0  0  0  0  0
   35.0360   29.1840   33.9870 H   0  0  0  0  0  0  0  0  0  0  0  0
   32.6500   28.9300   34.2600 H   0  0  0  0  0  0  0  0  0  0  0  0
   31.6820   28.8600   36.4830 H   0  0  0  0  0  0  0  0  0  0  0  0
   32.9700   29.0260   38.6980 O   0  0  0  0  0  0  0  0  0  0  0  0
   32.1450   29.5770   38.9450 H   0  0  0  0  0  0  0  0  0  0  0  0
  1  2  1  0  0  0  0
  1 10  1  0  0  0  0
  2  6  1  0  0  0  0
  3  2  2  0  0  0  0
  4  5  1  0  0  0  0
  4  3  1  0  0  0  0
  5  1  2  0  0  0  0
  7  3  1  0  0  0  0
  8 14  1  0  0  0  0
  9 15  1  0  0  0  0
  9  8  2  0  0  0  0
 10  9  1  0  0  0  0
 11 10  2  0  0  0  0
 11 12  1  0  0  0  0
 12 13  2  0  0  0  0
 13  8  1  0  0  0  0
 16 12  1  0  0  0  0
 16 17  1  0  0  0  0
 18 17  2  0  0  0  0
 19 26  2  0  0  0  0
 19 18  1  0  0  0  0
 20 19  1  0  0  0  0
 21 20  2  0  0  0  0
 22 23  1  0  0  0  0
 22 20  1  0  0  0  0
 23 25  2  0  0  0  0
 24 28  1  0  0  0  0
 24 23  1  0  0  0  0
 25 26  1  0  0  0  0
 26 16  1  0  0  0  0
 27 22  1  0  0  0  0
 29 24  1  0  0  0  0
 30  4  1  0  0  0  0
 30 32  1  0  0  0  0
 31 30  1  0  0  0  0
 33 34  1  0  0  0  0
 33 30  1  0  0  0  0
 35 33  1  0  0  0  0
 36 33  1  0  0  0  0
 37 36  1  0  0  0  0
 37 46  1  0  0  0  0
 38 37  2  0  0  0  0
 39 40  2  0  0  0  0
 39 38  1  0  0  0  0
 40 45  1  0  0  0  0
 41 42  2  0  0  0  0
 41 40  1  0  0  0  0
 42 43  1  0  0  0  0
 43 51  1  0  0  0  0
 43 44  2  0  0  0  0
 44 52  1  0  0  0  0
 45 44  1  0  0  0  0
 45 36  2  0  0  0  0
 47 38  1  0  0  0  0
 48 39  1  0  0  0  0
 49 41  1  0  0  0  0
 50 42  1  0  0  0  0
 52 53  1  0  0  0  0
M  END
>  <minimizedAffinity>
-6.41145706

>  <minimizedRMSD>
0.430653244

$$$$
