
     RDKit          3D

 54 59  0  0  0  0  0  0  0  0999 V2000
   35.2832   29.4902   40.0749 C   0  0  0  0  0  0  0  0  0  0  0  0
   35.8905   29.4258   38.7210 C   0  0  0  0  0  0  0  0  0  0  0  0
   37.2038   29.5949   38.3942 C   0  0  0  0  0  0  0  0  0  0  0  0
   37.7166   29.6019   37.1298 C   0  0  0  0  0  0  0  0  0  0  0  0
   36.8689   29.4272   36.0588 C   0  0  0  0  0  0  0  0  0  0  0  0
   35.5267   29.2493   36.3240 C   0  0  0  0  0  0  0  0  0  0  0  0
   34.7269   29.0857   35.2181 C   0  0  0  0  0  0  0  0  0  0  0  0
   33.3805   28.9037   35.3762 C   0  0  0  0  0  0  0  0  0  0  0  0
   32.8442   28.8836   36.6424 C   0  0  0  0  0  0  0  0  0  0  0  0
   33.6925   29.0514   37.7057 C   0  0  0  0  0  0  0  0  0  0  0  0
   35.0334   29.2439   37.6287 C   0  0  0  0  0  0  0  0  0  0  0  0
   33.0957   29.0025   38.9582 O   0  0  0  0  0  0  0  0  0  0  0  0
   36.1662   30.0719   41.1335 C   0  0  0  0  0  0  0  0  0  0  0  0
   38.6519   28.1601   42.7179 C   0  0  0  0  0  0  0  0  0  0  0  0
   37.5586   27.3474   42.8748 C   0  0  0  0  0  0  0  0  0  0  0  0
   36.4858   28.0081   42.2731 C   0  0  0  0  0  0  0  0  0  0  0  0
   37.0169   29.1616   41.8039 N   0  0  0  0  0  0  0  0  0  0  0  0
   38.2830   29.2804   42.0481 N   0  0  0  0  0  0  0  0  0  0  0  0
   41.5755   26.5487   44.3795 C   0  0  0  0  0  0  0  0  0  0  0  0
   40.2594   26.7569   43.9512 C   0  0  0  0  0  0  0  0  0  0  0  0
   39.9986   27.9041   43.1791 C   0  0  0  0  0  0  0  0  0  0  0  0
   41.0085   28.7682   42.8715 N   0  0  0  0  0  0  0  0  0  0  0  0
   42.2782   28.4916   43.3319 C   0  0  0  0  0  0  0  0  0  0  0  0
   42.5416   27.4140   44.0612 N   0  0  0  0  0  0  0  0  0  0  0  0
   34.8355   28.5751   40.4350 H   0  0  0  0  0  0  0  0  0  0  0  0
   34.5534   30.3606   39.9615 H   0  0  0  0  0  0  0  0  0  0  0  0
   37.8795   29.7347   39.2421 H   0  0  0  0  0  0  0  0  0  0  0  0
   38.7821   29.7462   37.0180 H   0  0  0  0  0  0  0  0  0  0  0  0
   37.2696   29.4343   35.0672 H   0  0  0  0  0  0  0  0  0  0  0  0
   35.0826   29.0893   34.2113 H   0  0  0  0  0  0  0  0  0  0  0  0
   32.7101   28.7727   34.5301 H   0  0  0  0  0  0  0  0  0  0  0  0
   31.7792   28.7379   36.7699 H   0  0  0  0  0  0  0  0  0  0  0  0
   32.2591   29.5359   39.2032 H   0  0  0  0  0  0  0  0  0  0  0  0
   36.7759   30.8751   40.6261 H   0  0  0  0  0  0  0  0  0  0  0  0
   35.5859   30.6113   41.9158 H   0  0  0  0  0  0  0  0  0  0  0  0
   37.5790   26.3802   43.3808 H   0  0  0  0  0  0  0  0  0  0  0  0
   35.4918   27.6020   42.2432 H   0  0  0  0  0  0  0  0  0  0  0  0
   41.8033   25.6889   44.9654 H   0  0  0  0  0  0  0  0  0  0  0  0
   39.4504   26.0667   44.1963 H   0  0  0  0  0  0  0  0  0  0  0  0
   43.2745   29.4412   42.9685 N   0  0  0  0  0  0  0  0  0  0  0  0
   43.8141   30.4816   43.6549 C   0  0  0  0  0  0  0  0  0  0  0  0
   44.7339   31.1040   42.8924 N   0  0  0  0  0  0  0  0  0  0  0  0
   44.8171   30.4911   41.6999 C   0  0  0  0  0  0  0  0  0  0  0  0
   45.5544   30.6616   40.5373 C   0  0  0  0  0  0  0  0  0  0  0  0
   46.3860   31.5982   40.4758 O   0  0  0  0  0  0  0  0  0  0  0  0
   45.3983   29.8378   39.4608 N   0  0  0  0  0  0  0  0  0  0  0  0
   44.4988   28.8607   39.5881 C   0  0  0  0  0  0  0  0  0  0  0  0
   44.2542   27.9471   38.5345 N   0  0  0  0  0  0  0  0  0  0  0  0
   43.7662   28.6601   40.6908 N   0  0  0  0  0  0  0  0  0  0  0  0
   43.9109   29.4740   41.7729 C   0  0  0  0  0  0  0  0  0  0  0  0
   43.5080   30.7322   44.6772 H   0  0  0  0  0  0  0  0  0  0  0  0
   45.9364   29.9451   38.5835 H   0  0  0  0  0  0  0  0  0  0  0  0
   43.9480   26.9558   38.6221 H   0  0  0  0  0  0  0  0  0  0  0  0
   44.3053   28.0014   37.4988 H   0  0  0  0  0  0  0  0  0  0  0  0
  1 13  1  0
  2  1  1  0
  3  2  2  0
  4  3  1  0
  5  6  1  0
  5  4  2  0
  6 11  2  0
  7  8  2  0
  7  6  1  0
  8  9  1  0
  9 10  2  0
 10 12  1  0
 11 10  1  0
 11  2  1  0
 13 17  1  0
 14 15  1  0
 14 21  1  0
 16 15  2  0
 17 18  1  0
 17 16  1  0
 18 14  2  0
 20 19  2  0
 21 20  1  0
 22 21  2  0
 22 23  1  0
 23 24  2  0
 24 19  1  0
  1 25  1  0
  1 26  1  0
  3 27  1  0
  4 28  1  0
  5 29  1  0
  7 30  1  0
  8 31  1  0
  9 32  1  0
 12 33  1  0
 13 34  1  0
 13 35  1  0
 15 36  1  0
 16 37  1  0
 19 38  1  0
 20 39  1  0
 40 41  1  0
 41 42  2  0
 42 43  1  0
 43 44  1  0
 44 45  2  0
 44 46  1  0
 46 47  1  0
 47 48  1  0
 47 49  2  0
 49 50  1  0
 50 40  1  0
 50 43  2  0
 41 51  1  0
 46 52  1  0
 48 53  1  0
 48 54  1  0
 23 40  1  0
M  ISO  8  25   8  26   8  27  14  28  14  29  14  30  14  31  14  32  14
M  ISO  7  33   3  34   8  35   8  36  14  37  14  38  14  39  14
M  END
>  <DihAtoms>  (1) 
21,22,39,40

>  <DihDeg>  (1) 
-141.52803268114909

$$$$
