
 OpenBabel03242509193D

 19 21  0  0  0  0  0  0  0  0999 V2000
   37.4190   28.1130   41.8530 C   0  0  0  0  0  0  0  0  0  0  0  0
   36.1650   27.9200   41.3630 C   0  0  0  0  0  0  0  0  0  0  0  0
   35.6830   29.1190   40.8780 C   0  0  0  0  0  0  0  0  0  0  0  0
   36.7000   29.9940   41.1080 N   0  0  0  0  0  0  0  0  0  0  0  0
   37.7050   29.4020   41.6740 N   0  0  0  0  0  0  0  0  0  0  0  0
   35.6190   26.9920   41.3470 H   0  0  0  0  0  0  0  0  0  0  0  0
   34.6960   29.2410   40.4300 H   0  0  0  0  0  0  0  0  0  0  0  0
   40.0520   26.5120   43.9530 C   0  0  0  0  0  0  0  0  0  0  0  0
   39.2330   27.5100   43.4020 C   0  0  0  0  0  0  0  0  0  0  0  0
   38.2810   27.1350   42.4480 C   0  0  0  0  0  0  0  0  0  0  0  0
   38.1930   25.8270   42.0990 N   0  0  0  0  0  0  0  0  0  0  0  0
   38.9980   24.8880   42.6480 C   0  0  0  0  0  0  0  0  0  0  0  0
   39.9260   25.2340   43.5750 N   0  0  0  0  0  0  0  0  0  0  0  0
   40.7790   26.8430   44.6910 H   0  0  0  0  0  0  0  0  0  0  0  0
   39.3160   28.5650   43.6950 H   0  0  0  0  0  0  0  0  0  0  0  0
   38.8520   23.8610   42.3030 H   0  0  0  0  0  0  0  0  0  0  0  0
   36.6120   31.3950   40.7450 C   0  0  0  0  0  0  0  0  0  0  0  0
   37.8250   32.1990   40.5240 C   0  0  0  0  0  0  0  0  0  0  0  0
   37.0230   31.7420   39.3260 C   0  0  0  0  0  0  0  0  0  0  0  0
  1 10  1  0  0  0  0
  2  1  1  0  0  0  0
  3  4  1  0  0  0  0
  3  2  2  0  0  0  0
  4  5  1  0  0  0  0
  5  1  2  0  0  0  0
  6  2  1  0  0  0  0
  7  3  1  0  0  0  0
  8 14  1  0  0  0  0
  9 15  1  0  0  0  0
  9  8  2  0  0  0  0
 10  9  1  0  0  0  0
 11 10  2  0  0  0  0
 11 12  1  0  0  0  0
 12 13  2  0  0  0  0
 13  8  1  0  0  0  0
 16 12  1  0  0  0  0
 17  4  1  0  0  0  0
 18 17  1  0  0  0  0
 19 18  1  0  0  0  0
 19 17  1  0  0  0  0
M  END
>  <minimizedAffinity>
-4.164361

>  <minimizedRMSD>
6.66704321

$$$$
