REMARK  Name = 
REMARK  3 active torsions:
REMARK  status: ('A' for Active; 'I' for Inactive)
REMARK    1  A    between atoms: C_1  and  C_12
REMARK    2  A    between atoms: C_14  and  C_16
REMARK    3  A    between atoms: C_18  and  N_31
REMARK                            x       y       z     vdW  Elec       q    Type
REMARK                         _______ _______ _______ _____ _____    ______ ____
ROOT
ATOM      1  C   UNL     1      36.196  30.768  41.077  0.00  0.00    +0.000 A 
ATOM      2  C   UNL     1      36.645  29.573  41.670  0.00  0.00    +0.000 A 
ATOM      3  C   UNL     1      38.009  29.296  41.655  0.00  0.00    +0.000 A 
ATOM      4  N   UNL     1      38.825  30.207  41.065  0.00  0.00    +0.000 NA
ATOM      5  C   UNL     1      38.378  31.349  40.500  0.00  0.00    +0.000 A 
ATOM      6  N   UNL     1      37.057  31.636  40.504  0.00  0.00    +0.000 NA
ATOM      7  H   UNL     1      35.125  30.937  41.114  0.00  0.00    +0.000 HD
ATOM      8  H   UNL     1      35.975  28.861  42.136  0.00  0.00    +0.000 HD
ENDROOT
BRANCH   3   9
ATOM      9  C   UNL     1      38.477  28.062  42.256  0.00  0.00    +0.000 A 
ATOM     10  C   UNL     1      39.405  27.902  43.260  0.00  0.00    +0.000 A 
ATOM     11  N   UNL     1      39.552  26.579  43.515  0.00  0.00    +0.000 N 
ATOM     12  C   UNL     1      38.755  25.862  42.716  0.00  0.00    +0.000 A 
ATOM     13  C   UNL     1      38.519  24.504  42.563  0.00  0.00    +0.000 A 
ATOM     14  C   UNL     1      37.600  24.027  41.617  0.00  0.00    +0.000 A 
ATOM     15  C   UNL     1      36.950  24.965  40.854  0.00  0.00    +0.000 A 
ATOM     16  C   UNL     1      37.176  26.306  40.997  0.00  0.00    +0.000 A 
ATOM     17  C   UNL     1      38.086  26.774  41.934  0.00  0.00    +0.000 A 
ATOM     18  H   UNL     1      39.927  28.696  43.760  0.00  0.00    +0.000 HD
ATOM     19  H   UNL     1      40.199  26.179  44.236  0.00  0.00    +0.000 HD
ATOM     20  H   UNL     1      39.074  23.827  43.205  0.00  0.00    +0.000 HD
ATOM     21  H   UNL     1      37.432  22.975  41.514  0.00  0.00    +0.000 HD
ATOM     22  H   UNL     1      36.230  24.608  40.113  0.00  0.00    +0.000 HD
ATOM     23  H   UNL     1      36.624  26.984  40.358  0.00  0.00    +0.000 HD
ENDBRANCH   3   9
BRANCH   5  24
ATOM     24  C   UNL     1      39.340  32.303  39.875  0.00  0.00    +0.000 C 
ATOM     25  C   UNL     1      39.645  33.598  40.624  0.00  0.00    +0.000 C 
ATOM     26  C   UNL     1      40.673  32.513  40.505  0.00  0.00    +0.000 C 
ATOM     27  H   UNL     1      39.267  32.413  38.757  0.00  0.00    +0.000 HD
ATOM     28  H   UNL     1      39.042  33.723  41.534  0.00  0.00    +0.000 HD
ATOM     29  H   UNL     1      39.701  34.494  39.977  0.00  0.00    +0.000 HD
ATOM     30  H   UNL     1      40.816  31.961  41.480  0.00  0.00    +0.000 HD
BRANCH  26  31
ATOM     31  N   UNL     1      41.848  32.782  39.706  0.00  0.00    +0.000 N 
ATOM     32  C   UNL     1      42.461  33.967  39.481  0.00  0.00    +0.000 A 
ATOM     33  N   UNL     1      43.523  33.709  38.665  0.00  0.00    +0.000 NA
ATOM     34  C   UNL     1      43.555  32.372  38.396  0.00  0.00    +0.000 A 
ATOM     35  C   UNL     1      44.474  31.674  37.603  0.00  0.00    +0.000 A 
ATOM     36  O   UNL     1      45.413  32.284  37.036  0.00  0.00    +0.000 OA
ATOM     37  N   UNL     1      44.232  30.353  37.534  0.00  0.00    +0.000 N 
ATOM     38  C   UNL     1      43.201  29.776  38.173  0.00  0.00    +0.000 A 
ATOM     39  N   UNL     1      42.962  28.376  38.089  0.00  0.00    +0.000 N 
ATOM     40  N   UNL     1      42.327  30.473  38.934  0.00  0.00    +0.000 NA
ATOM     41  C   UNL     1      42.488  31.796  39.061  0.00  0.00    +0.000 A 
ATOM     42  H   UNL     1      44.886  29.782  36.956  0.00  0.00    +0.000 HD
ATOM     43  H   UNL     1      42.465  28.354  37.164  0.00  0.00    +0.000 HD
ATOM     44  H   UNL     1      43.092  27.450  38.573  0.00  0.00    +0.000 HD
ENDBRANCH  26  31
ENDBRANCH   5  24
TORSDOF 3
