REMARK  Name = 
REMARK  5 active torsions:
REMARK  status: ('A' for Active; 'I' for Inactive)
REMARK    1  A    between atoms: C_1  and  C_2
REMARK    2  A    between atoms: C_1  and  C_13
REMARK    3  A    between atoms: C_10  and  O_12
REMARK    4  A    between atoms: C_13  and  N_17
REMARK    5  A    between atoms: C_14  and  C_21
REMARK                            x       y       z     vdW  Elec       q    Type
REMARK                         _______ _______ _______ _____ _____    ______ ____
ROOT
ATOM      1  C   UNL     1      38.652  28.160  42.718  0.00  0.00    +0.000 A 
ATOM      2  C   UNL     1      37.559  27.347  42.875  0.00  0.00    +0.000 A 
ATOM      3  C   UNL     1      36.486  28.008  42.273  0.00  0.00    +0.000 A 
ATOM      4  N   UNL     1      37.017  29.162  41.804  0.00  0.00    +0.000 N 
ATOM      5  N   UNL     1      38.283  29.280  42.048  0.00  0.00    +0.000 NA
ATOM      6  H   UNL     1      37.579  26.380  43.381  0.00  0.00    +0.000 HD
ATOM      7  H   UNL     1      35.492  27.602  42.243  0.00  0.00    +0.000 HD
ENDROOT
BRANCH   1  10
ATOM      8  C   UNL     1      41.575  26.549  44.380  0.00  0.00    +0.000 A 
ATOM      9  C   UNL     1      40.259  26.757  43.951  0.00  0.00    +0.000 A 
ATOM     10  C   UNL     1      39.999  27.904  43.179  0.00  0.00    +0.000 A 
ATOM     11  N   UNL     1      41.008  28.768  42.871  0.00  0.00    +0.000 NA
ATOM     12  C   UNL     1      42.278  28.492  43.332  0.00  0.00    +0.000 A 
ATOM     13  N   UNL     1      42.542  27.414  44.061  0.00  0.00    +0.000 NA
ATOM     14  H   UNL     1      41.803  25.689  44.965  0.00  0.00    +0.000 HD
ATOM     15  H   UNL     1      39.450  26.067  44.196  0.00  0.00    +0.000 HD
ATOM     16  N   UNL     1      43.275  29.441  42.968  0.00  0.00    +0.000 N 
ATOM     17  C   UNL     1      44.578  29.557  43.332  0.00  0.00    +0.000 A 
ATOM     18  N   UNL     1      45.129  30.626  42.726  0.00  0.00    +0.000 NA
ATOM     19  C   UNL     1      44.206  31.230  41.958  0.00  0.00    +0.000 A 
ATOM     20  C   UNL     1      44.171  32.337  41.122  0.00  0.00    +0.000 A 
ATOM     21  O   UNL     1      45.212  33.020  40.972  0.00  0.00    +0.000 OA
ATOM     22  N   UNL     1      43.035  32.700  40.459  0.00  0.00    +0.000 N 
ATOM     23  C   UNL     1      41.961  31.933  40.660  0.00  0.00    +0.000 A 
ATOM     24  N   UNL     1      40.728  32.216  40.024  0.00  0.00    +0.000 N 
ATOM     25  N   UNL     1      41.951  30.858  41.458  0.00  0.00    +0.000 NA
ATOM     26  C   UNL     1      43.078  30.483  42.125  0.00  0.00    +0.000 A 
ATOM     27  H   UNL     1      42.984  33.520  39.831  0.00  0.00    +0.000 HD
ATOM     28  H   UNL     1      39.995  31.532  39.744  0.00  0.00    +0.000 HD
ATOM     29  H   UNL     1      40.262  33.084  39.696  0.00  0.00    +0.000 HD
ENDBRANCH   1  10
BRANCH   4  30
ATOM     30  C   UNL     1      36.166  30.072  41.133  0.00  0.00    +0.000 C 
ATOM     31  H   UNL     1      36.776  30.875  40.626  0.00  0.00    +0.000 HD
ATOM     32  H   UNL     1      35.586  30.611  41.916  0.00  0.00    +0.000 HD
BRANCH  30  33
ATOM     33  C   UNL     1      35.283  29.490  40.075  0.00  0.00    +0.000 C 
ATOM     34  H   UNL     1      34.836  28.575  40.435  0.00  0.00    +0.000 HD
ATOM     35  H   UNL     1      34.553  30.361  39.962  0.00  0.00    +0.000 HD
BRANCH  33  36
ATOM     36  C   UNL     1      35.891  29.426  38.721  0.00  0.00    +0.000 A 
ATOM     37  C   UNL     1      37.204  29.595  38.394  0.00  0.00    +0.000 A 
ATOM     38  C   UNL     1      37.717  29.602  37.130  0.00  0.00    +0.000 A 
ATOM     39  C   UNL     1      36.869  29.427  36.059  0.00  0.00    +0.000 A 
ATOM     40  C   UNL     1      35.527  29.249  36.324  0.00  0.00    +0.000 A 
ATOM     41  C   UNL     1      34.727  29.086  35.218  0.00  0.00    +0.000 A 
ATOM     42  C   UNL     1      33.380  28.904  35.376  0.00  0.00    +0.000 A 
ATOM     43  C   UNL     1      32.844  28.884  36.642  0.00  0.00    +0.000 A 
ATOM     44  C   UNL     1      33.693  29.051  37.706  0.00  0.00    +0.000 A 
ATOM     45  C   UNL     1      35.033  29.244  37.629  0.00  0.00    +0.000 A 
ATOM     46  H   UNL     1      37.880  29.735  39.242  0.00  0.00    +0.000 HD
ATOM     47  H   UNL     1      38.782  29.746  37.018  0.00  0.00    +0.000 HD
ATOM     48  H   UNL     1      37.270  29.434  35.067  0.00  0.00    +0.000 HD
ATOM     49  H   UNL     1      35.083  29.089  34.211  0.00  0.00    +0.000 HD
ATOM     50  H   UNL     1      32.710  28.773  34.530  0.00  0.00    +0.000 HD
ATOM     51  H   UNL     1      31.779  28.738  36.770  0.00  0.00    +0.000 HD
BRANCH  44  52
ATOM     52  O   UNL     1      33.096  29.003  38.958  0.00  0.00    +0.000 OA
ATOM     53  H   UNL     1      32.259  29.536  39.203  0.00  0.00    +0.000 HD
ENDBRANCH  44  52
ENDBRANCH  33  36
ENDBRANCH  30  33
ENDBRANCH   4  30
TORSDOF 5
