
 OpenBabel03242507323D

 30 32  0  0  0  0  0  0  0  0999 V2000
   38.5230   29.4480   42.7020 C   0  0  0  0  0  0  0  0  0  0  0  0
   37.9910   29.2930   41.3820 C   0  0  0  0  0  0  0  0  0  0  0  0
   37.7290   27.9830   41.0420 C   0  0  0  0  0  0  0  0  0  0  0  0
   37.9630   26.9610   41.9000 N   0  0  0  0  0  0  0  0  0  0  0  0
   38.4680   27.1740   43.1360 C   0  0  0  0  0  0  0  0  0  0  0  0
   38.7390   28.4190   43.5150 N   0  0  0  0  0  0  0  0  0  0  0  0
   38.7610   30.4610   43.0550 H   0  0  0  0  0  0  0  0  0  0  0  0
   38.6570   26.3820   43.8210 H   0  0  0  0  0  0  0  0  0  0  0  0
   37.1980   27.7520   39.7430 N   0  0  0  0  0  0  0  0  0  0  0  0
   35.9820   27.2830   39.4060 C   0  0  0  0  0  0  0  0  0  0  0  0
   35.8530   27.2020   38.0700 N   0  0  0  0  0  0  0  0  0  0  0  0
   37.0110   27.6290   37.5460 C   0  0  0  0  0  0  0  0  0  0  0  0
   37.4820   27.7760   36.2600 C   0  0  0  0  0  0  0  0  0  0  0  0
   36.6980   27.4570   35.3160 O   0  0  0  0  0  0  0  0  0  0  0  0
   38.7140   28.2360   35.9720 N   0  0  0  0  0  0  0  0  0  0  0  0
   39.5250   28.5670   36.9940 C   0  0  0  0  0  0  0  0  0  0  0  0
   40.8280   29.0530   36.6930 N   0  0  0  0  0  0  0  0  0  0  0  0
   39.1220   28.4450   38.2900 N   0  0  0  0  0  0  0  0  0  0  0  0
   37.8800   27.9810   38.5840 C   0  0  0  0  0  0  0  0  0  0  0  0
   38.9900   28.3170   34.9600 H   0  0  0  0  0  0  0  0  0  0  0  0
   41.6670   29.0590   37.2830 H   0  0  0  0  0  0  0  0  0  0  0  0
   41.0280   29.4750   35.7580 H   0  0  0  0  0  0  0  0  0  0  0  0
   37.7830   30.4300   40.5610 N   0  0  0  0  0  0  0  0  0  0  0  0
   36.7680   31.3950   40.7920 C   0  0  0  0  0  0  0  0  0  0  0  0
   35.6100   30.9230   41.1970 N   0  0  0  0  0  0  0  0  0  0  0  0
   37.1440   32.7670   40.5520 N   0  0  0  0  0  0  0  0  0  0  0  0
   34.8050   31.5430   41.3600 H   0  0  0  0  0  0  0  0  0  0  0  0
   38.4570   30.5090   39.7420 H   0  0  0  0  0  0  0  0  0  0  0  0
   37.1530   33.2120   41.5190 H   0  0  0  0  0  0  0  0  0  0  0  0
   37.3580   33.2250   39.6510 H   0  0  0  0  0  0  0  0  0  0  0  0
  1  7  1  0  0  0  0
  1  6  1  0  0  0  0
  2  1  2  0  0  0  0
  3  2  1  0  0  0  0
  3  4  2  0  0  0  0
  4  5  1  0  0  0  0
  5  6  2  0  0  0  0
  5  8  1  0  0  0  0
  9  3  1  0  0  0  0
 10  9  1  0  0  0  0
 11 10  2  0  0  0  0
 12 11  1  0  0  0  0
 12 19  2  0  0  0  0
 13 12  1  0  0  0  0
 14 13  2  0  0  0  0
 15 13  1  0  0  0  0
 15 16  1  0  0  0  0
 16 18  2  0  0  0  0
 17 16  1  0  0  0  0
 17 21  1  0  0  0  0
 18 19  1  0  0  0  0
 19  9  1  0  0  0  0
 20 15  1  0  0  0  0
 22 17  1  0  0  0  0
 23 24  1  0  0  0  0
 23  2  1  0  0  0  0
 24 25  2  0  0  0  0
 25 27  1  0  0  0  0
 26 24  1  0  0  0  0
 26 29  1  0  0  0  0
 28 23  1  0  0  0  0
 30 26  1  0  0  0  0
M  END
>  <minimizedAffinity>
-5.56950426

>  <minimizedRMSD>
0.79569912

$$$$
