
     RDKit          3D

 45 50  0  0  0  0  0  0  0  0999 V2000
   38.4767   28.0616   42.2560 C   0  0  0  0  0  0  0  0  0  0  0  0
   39.4046   27.9018   43.2601 C   0  0  0  0  0  0  0  0  0  0  0  0
   39.5517   26.5788   43.5151 N   0  0  0  0  0  0  0  0  0  0  0  0
   38.7549   25.8622   42.7159 C   0  0  0  0  0  0  0  0  0  0  0  0
   38.5187   24.5038   42.5630 C   0  0  0  0  0  0  0  0  0  0  0  0
   37.6004   24.0271   41.6173 C   0  0  0  0  0  0  0  0  0  0  0  0
   36.9498   24.9647   40.8541 C   0  0  0  0  0  0  0  0  0  0  0  0
   37.1761   26.3059   40.9971 C   0  0  0  0  0  0  0  0  0  0  0  0
   38.0861   26.7737   41.9340 C   0  0  0  0  0  0  0  0  0  0  0  0
   36.1964   30.7684   41.0767 C   0  0  0  0  0  0  0  0  0  0  0  0
   36.6449   29.5726   41.6699 C   0  0  0  0  0  0  0  0  0  0  0  0
   38.0091   29.2962   41.6554 C   0  0  0  0  0  0  0  0  0  0  0  0
   38.8253   30.2073   41.0647 N   0  0  0  0  0  0  0  0  0  0  0  0
   38.3778   31.3490   40.5003 C   0  0  0  0  0  0  0  0  0  0  0  0
   37.0569   31.6360   40.5036 N   0  0  0  0  0  0  0  0  0  0  0  0
   39.3397   32.3035   39.8747 C   0  0  1  0  0  0  0  0  0  0  0  0
   39.6447   33.5982   40.6244 C   0  0  0  0  0  0  0  0  0  0  0  0
   40.6732   32.5131   40.5055 C   0  0  2  0  0  0  0  0  0  0  0  0
   39.9273   28.6961   43.7604 H   0  0  0  0  0  0  0  0  0  0  0  0
   40.1986   26.1793   44.2365 H   0  0  0  0  0  0  0  0  0  0  0  0
   39.0737   23.8270   43.2052 H   0  0  0  0  0  0  0  0  0  0  0  0
   37.4322   22.9746   41.5145 H   0  0  0  0  0  0  0  0  0  0  0  0
   36.2303   24.6078   40.1127 H   0  0  0  0  0  0  0  0  0  0  0  0
   36.6237   26.9844   40.3575 H   0  0  0  0  0  0  0  0  0  0  0  0
   35.1250   30.9372   41.1144 H   0  0  0  0  0  0  0  0  0  0  0  0
   35.9750   28.8608   42.1356 H   0  0  0  0  0  0  0  0  0  0  0  0
   39.2667   32.4133   38.7566 H   0  0  0  0  0  0  0  0  0  0  0  0
   39.0416   33.7232   41.5344 H   0  0  0  0  0  0  0  0  0  0  0  0
   39.7014   34.4937   39.9765 H   0  0  0  0  0  0  0  0  0  0  0  0
   40.8162   31.9606   41.4795 H   0  0  0  0  0  0  0  0  0  0  0  0
   41.8477   32.7816   39.7058 N   0  0  0  0  0  0  0  0  0  0  0  0
   42.4610   33.9666   39.4807 C   0  0  0  0  0  0  0  0  0  0  0  0
   43.5228   33.7087   38.6654 N   0  0  0  0  0  0  0  0  0  0  0  0
   43.5551   32.3719   38.3957 C   0  0  0  0  0  0  0  0  0  0  0  0
   44.4738   31.6741   37.6030 C   0  0  0  0  0  0  0  0  0  0  0  0
   45.4131   32.2841   37.0362 O   0  0  0  0  0  0  0  0  0  0  0  0
   44.2324   30.3527   37.5341 N   0  0  0  0  0  0  0  0  0  0  0  0
   43.2013   29.7759   38.1733 C   0  0  0  0  0  0  0  0  0  0  0  0
   42.9619   28.3763   38.0885 N   0  0  0  0  0  0  0  0  0  0  0  0
   42.3267   30.4734   38.9341 N   0  0  0  0  0  0  0  0  0  0  0  0
   42.4884   31.7963   39.0610 C   0  0  0  0  0  0  0  0  0  0  0  0
   42.1468   34.9340   39.8861 H   0  0  0  0  0  0  0  0  0  0  0  0
   44.8858   29.7816   36.9563 H   0  0  0  0  0  0  0  0  0  0  0  0
   42.4646   28.3543   37.1645 H   0  0  0  0  0  0  0  0  0  0  0  0
   43.0924   27.4504   38.5726 H   0  0  0  0  0  0  0  0  0  0  0  0
  1  2  2  0
  2  3  1  0
  4  3  1  0
  5  4  2  0
  6  5  1  0
  7  8  1  0
  7  6  2  0
  8  9  2  0
  9  1  1  0
  9  4  1  0
 10 11  2  0
 12 11  1  0
 12  1  1  0
 13 12  2  0
 14 15  2  0
 14 13  1  0
 15 10  1  0
 16 14  1  0
 16 18  1  0
 16 17  1  0
 18 17  1  0
  2 19  1  0
  3 20  1  0
  5 21  1  0
  6 22  1  0
  7 23  1  0
  8 24  1  0
 10 25  1  0
 11 26  1  0
 16 27  1  6
 17 28  1  0
 17 29  1  0
 18 30  1  1
 31 32  1  0
 32 33  2  0
 33 34  1  0
 34 35  1  0
 35 36  2  0
 35 37  1  0
 37 38  1  0
 38 39  1  0
 38 40  2  0
 40 41  1  0
 41 31  1  0
 41 34  2  0
 32 42  1  0
 37 43  1  0
 39 44  1  0
 39 45  1  0
 18 31  1  0
M  ISO  8  19  14  20   9  21  14  22  14  23  14  24  14  25  14  26  14
M  ISO  4  27  13  28  13  29  13  30  13
M  END
>  <DihAtoms>  (1) 
15,17,30,31

>  <DihDeg>  (1) 
71.66852885877775

$$$$
