
 OpenBabel03242507143D

 43 48  0  0  0  0  0  0  0  0999 V2000
   35.7340   28.2540   39.9410 C   0  0  0  0  0  0  0  0  0  0  0  0
   36.6390   27.5860   40.7670 C   0  0  0  0  0  0  0  0  0  0  0  0
   37.2190   26.4010   40.2420 C   0  0  0  0  0  0  0  0  0  0  0  0
   36.8690   25.9900   38.9920 N   0  0  0  0  0  0  0  0  0  0  0  0
   35.9760   26.6920   38.2370 C   0  0  0  0  0  0  0  0  0  0  0  0
   35.4020   27.8320   38.7130 N   0  0  0  0  0  0  0  0  0  0  0  0
   35.2990   29.1590   40.3580 H   0  0  0  0  0  0  0  0  0  0  0  0
   37.9150   25.8860   40.8740 H   0  0  0  0  0  0  0  0  0  0  0  0
   35.6440   26.2170   36.9340 N   0  0  0  0  0  0  0  0  0  0  0  0
   35.1080   24.9910   36.7790 C   0  0  0  0  0  0  0  0  0  0  0  0
   34.8640   24.7190   35.4860 N   0  0  0  0  0  0  0  0  0  0  0  0
   35.2560   25.8070   34.8020 C   0  0  0  0  0  0  0  0  0  0  0  0
   35.2830   26.1880   33.4610 C   0  0  0  0  0  0  0  0  0  0  0  0
   34.8570   25.3860   32.5920 O   0  0  0  0  0  0  0  0  0  0  0  0
   35.7720   27.4190   33.1420 N   0  0  0  0  0  0  0  0  0  0  0  0
   36.2360   28.2980   34.0490 C   0  0  0  0  0  0  0  0  0  0  0  0
   36.7140   29.5440   33.5620 N   0  0  0  0  0  0  0  0  0  0  0  0
   36.2300   27.9700   35.3750 N   0  0  0  0  0  0  0  0  0  0  0  0
   35.7410   26.7400   35.6970 C   0  0  0  0  0  0  0  0  0  0  0  0
   35.7480   27.6080   32.1020 H   0  0  0  0  0  0  0  0  0  0  0  0
   36.2240   30.4570   33.7140 H   0  0  0  0  0  0  0  0  0  0  0  0
   37.6140   29.3070   33.0560 H   0  0  0  0  0  0  0  0  0  0  0  0
   36.9910   28.0190   42.0500 N   0  0  0  0  0  0  0  0  0  0  0  0
   36.5580   27.4650   43.2000 C   0  0  0  0  0  0  0  0  0  0  0  0
   37.1690   28.2260   44.1810 C   0  0  0  0  0  0  0  0  0  0  0  0
   37.9420   29.2010   43.6210 N   0  0  0  0  0  0  0  0  0  0  0  0
   37.8080   29.0440   42.2990 C   0  0  0  0  0  0  0  0  0  0  0  0
   38.5420   29.9720   41.5090 N   0  0  0  0  0  0  0  0  0  0  0  0
   39.7770   30.4290   41.8660 C   0  0  0  0  0  0  0  0  0  0  0  0
   40.2580   31.3060   40.9380 N   0  0  0  0  0  0  0  0  0  0  0  0
   39.3280   31.4180   39.9730 C   0  0  0  0  0  0  0  0  0  0  0  0
   39.2790   32.1530   38.8110 C   0  0  0  0  0  0  0  0  0  0  0  0
   38.1550   32.0040   38.0760 N   0  0  0  0  0  0  0  0  0  0  0  0
   37.1440   31.2100   38.4240 C   0  0  0  0  0  0  0  0  0  0  0  0
   37.1800   30.4770   39.5750 N   0  0  0  0  0  0  0  0  0  0  0  0
   38.2780   30.6010   40.3240 C   0  0  0  0  0  0  0  0  0  0  0  0
   35.9070   26.6450   43.3770 H   0  0  0  0  0  0  0  0  0  0  0  0
   37.0270   28.0390   45.2550 H   0  0  0  0  0  0  0  0  0  0  0  0
   40.3860   30.1960   42.7430 H   0  0  0  0  0  0  0  0  0  0  0  0
   36.3140   31.2000   37.7320 H   0  0  0  0  0  0  0  0  0  0  0  0
   40.3370   33.0120   38.4010 N   0  0  0  0  0  0  0  0  0  0  0  0
   40.3770   34.0550   38.5470 H   0  0  0  0  0  0  0  0  0  0  0  0
   41.2350   32.8090   37.9060 H   0  0  0  0  0  0  0  0  0  0  0  0
  1  7  1  0  0  0  0
  1  2  1  0  0  0  0
  2 23  1  0  0  0  0
  3  2  2  0  0  0  0
  3  8  1  0  0  0  0
  4  3  1  0  0  0  0
  5  6  1  0  0  0  0
  5  4  2  0  0  0  0
  6  1  2  0  0  0  0
  9  5  1  0  0  0  0
 10  9  1  0  0  0  0
 11 10  2  0  0  0  0
 12 11  1  0  0  0  0
 12 19  2  0  0  0  0
 13 12  1  0  0  0  0
 14 13  2  0  0  0  0
 15 13  1  0  0  0  0
 15 16  1  0  0  0  0
 16 18  2  0  0  0  0
 17 21  1  0  0  0  0
 17 16  1  0  0  0  0
 18 19  1  0  0  0  0
 19  9  1  0  0  0  0
 20 15  1  0  0  0  0
 22 17  1  0  0  0  0
 23 27  1  0  0  0  0
 23 24  1  0  0  0  0
 24 37  1  0  0  0  0
 24 25  2  0  0  0  0
 25 38  1  0  0  0  0
 26 25  1  0  0  0  0
 27 26  2  0  0  0  0
 28 29  1  0  0  0  0
 28 27  1  0  0  0  0
 29 39  1  0  0  0  0
 30 29  2  0  0  0  0
 31 36  1  0  0  0  0
 31 30  1  0  0  0  0
 32 31  2  0  0  0  0
 33 34  2  0  0  0  0
 33 32  1  0  0  0  0
 34 35  1  0  0  0  0
 35 36  2  0  0  0  0
 36 28  1  0  0  0  0
 40 34  1  0  0  0  0
 41 42  1  0  0  0  0
 41 32  1  0  0  0  0
 43 41  1  0  0  0  0
M  END
>  <minimizedAffinity>
-6.75714016

>  <minimizedRMSD>
3.51154327

$$$$
