
 OpenBabel03242507093D

 30 33  0  0  0  0  0  0  0  0999 V2000
   38.0510   28.1600   41.7460 N   0  0  0  0  0  0  0  0  0  0  0  0
   38.1220   27.1390   42.6300 C   0  0  0  0  0  0  0  0  0  0  0  0
   39.2910   27.4130   43.3420 C   0  0  0  0  0  0  0  0  0  0  0  0
   39.8820   28.5590   42.8880 N   0  0  0  0  0  0  0  0  0  0  0  0
   39.0790   28.9860   41.8980 C   0  0  0  0  0  0  0  0  0  0  0  0
   37.4580   26.3000   42.7780 H   0  0  0  0  0  0  0  0  0  0  0  0
   39.6210   26.7470   44.1480 H   0  0  0  0  0  0  0  0  0  0  0  0
   39.5200   30.1790   41.2670 N   0  0  0  0  0  0  0  0  0  0  0  0
   39.1070   30.8400   40.1480 C   0  0  0  0  0  0  0  0  0  0  0  0
   39.8550   31.9350   39.9510 N   0  0  0  0  0  0  0  0  0  0  0  0
   40.7870   32.0530   40.9140 C   0  0  0  0  0  0  0  0  0  0  0  0
   41.8080   32.9130   41.2590 C   0  0  0  0  0  0  0  0  0  0  0  0
   41.9650   33.9070   40.4770 O   0  0  0  0  0  0  0  0  0  0  0  0
   42.5930   32.7360   42.3380 N   0  0  0  0  0  0  0  0  0  0  0  0
   42.3340   31.6630   43.0790 C   0  0  0  0  0  0  0  0  0  0  0  0
   43.1180   31.4030   44.2370 N   0  0  0  0  0  0  0  0  0  0  0  0
   41.3450   30.7780   42.7950 N   0  0  0  0  0  0  0  0  0  0  0  0
   40.5530   30.9640   41.6990 C   0  0  0  0  0  0  0  0  0  0  0  0
   43.3400   33.4230   42.5360 H   0  0  0  0  0  0  0  0  0  0  0  0
   43.1210   31.6160   45.2580 H   0  0  0  0  0  0  0  0  0  0  0  0
   43.9100   30.8130   43.8560 H   0  0  0  0  0  0  0  0  0  0  0  0
   35.8700   29.0670   41.0530 C   0  0  0  0  0  0  0  0  0  0  0  0
   37.0280   28.3090   40.8040 C   0  0  0  0  0  0  0  0  0  0  0  0
   37.1370   27.6810   39.5280 C   0  0  0  0  0  0  0  0  0  0  0  0
   36.1370   27.8400   38.6300 N   0  0  0  0  0  0  0  0  0  0  0  0
   35.0290   28.5940   38.9330 C   0  0  0  0  0  0  0  0  0  0  0  0
   34.8830   29.2140   40.1420 N   0  0  0  0  0  0  0  0  0  0  0  0
   35.7040   29.5670   41.9890 H   0  0  0  0  0  0  0  0  0  0  0  0
   37.9950   27.0820   39.2620 H   0  0  0  0  0  0  0  0  0  0  0  0
   34.2970   28.6400   38.1190 H   0  0  0  0  0  0  0  0  0  0  0  0
  1  5  1  0  0  0  0
  1  2  1  0  0  0  0
  2  6  1  0  0  0  0
  2  3  2  0  0  0  0
  3  7  1  0  0  0  0
  4  3  1  0  0  0  0
  5  4  2  0  0  0  0
  8 18  1  0  0  0  0
  8  5  1  0  0  0  0
  9  8  1  0  0  0  0
 10  9  2  0  0  0  0
 10 11  1  0  0  0  0
 11 12  1  0  0  0  0
 11 18  2  0  0  0  0
 12 14  1  0  0  0  0
 13 12  2  0  0  0  0
 14 19  1  0  0  0  0
 14 15  1  0  0  0  0
 15 16  1  0  0  0  0
 16 20  1  0  0  0  0
 17 15  2  0  0  0  0
 18 17  1  0  0  0  0
 21 16  1  0  0  0  0
 22 28  1  0  0  0  0
 23 22  1  0  0  0  0
 23  1  1  0  0  0  0
 24 23  2  0  0  0  0
 25 26  2  0  0  0  0
 25 24  1  0  0  0  0
 26 27  1  0  0  0  0
 27 22  2  0  0  0  0
 29 24  1  0  0  0  0
 30 26  1  0  0  0  0
M  END
>  <minimizedAffinity>
-5.24102449

>  <minimizedRMSD>
2.31631708

$$$$
