
 OpenBabel03242509313D

 26 28  0  0  0  0  0  0  0  0999 V2000
   37.6620   28.7570   43.4420 C   0  0  0  0  0  0  0  0  0  0  0  0
   38.0970   27.4040   43.5230 C   0  0  0  0  0  0  0  0  0  0  0  0
   37.9900   26.6470   42.3550 C   0  0  0  0  0  0  0  0  0  0  0  0
   37.4820   27.2270   41.2140 N   0  0  0  0  0  0  0  0  0  0  0  0
   37.0900   28.5100   41.2080 C   0  0  0  0  0  0  0  0  0  0  0  0
   37.1750   29.2700   42.3020 N   0  0  0  0  0  0  0  0  0  0  0  0
   37.7160   29.4020   44.3100 H   0  0  0  0  0  0  0  0  0  0  0  0
   38.4800   27.0260   44.4470 H   0  0  0  0  0  0  0  0  0  0  0  0
   36.6020   28.8850   39.9190 N   0  0  0  0  0  0  0  0  0  0  0  0
   35.3990   29.4150   39.5550 C   0  0  0  0  0  3  0  0  0  0  0  0
   35.4250   29.5950   38.2110 N   0  0  0  0  0  0  0  0  0  0  0  0
   36.6200   29.1870   37.7390 C   0  0  0  0  0  0  0  0  0  0  0  0
   37.0690   29.1940   36.4270 C   0  0  0  0  0  0  0  0  0  0  0  0
   36.3440   29.6160   35.4780 O   0  0  0  0  0  0  0  0  0  0  0  0
   38.3080   28.7350   36.1830 N   0  0  0  0  0  0  0  0  0  0  0  0
   39.0400   28.2990   37.2150 C   0  0  0  0  0  0  0  0  0  0  0  0
   40.3630   27.7930   37.0750 N   0  0  0  0  0  0  0  0  0  0  0  0
   38.5960   28.2970   38.4770 N   0  0  0  0  0  0  0  0  0  0  0  0
   37.3560   28.7420   38.8120 C   0  0  0  0  0  0  0  0  0  0  0  0
   38.6970   28.7170   35.2210 H   0  0  0  0  0  0  0  0  0  0  0  0
   40.2480   26.7770   36.8600 H   0  0  0  0  0  0  0  0  0  0  0  0
   41.3840   28.0020   37.0940 H   0  0  0  0  0  0  0  0  0  0  0  0
   38.4310   25.2230   42.3800 C   0  0  0  0  0  0  0  0  0  0  0  0
   39.0250   24.9750   41.1600 F   0  0  0  0  0  0  0  0  0  0  0  0
   39.3500   24.9820   43.3670 F   0  0  0  0  0  0  0  0  0  0  0  0
   37.3430   24.3520   42.5310 F   0  0  0  0  0  0  0  0  0  0  0  0
  1  2  1  0  0  0  0
  1  7  1  0  0  0  0
  2  8  1  0  0  0  0
  3 23  1  0  0  0  0
  3  2  2  0  0  0  0
  4  3  1  0  0  0  0
  5  4  2  0  0  0  0
  5  6  1  0  0  0  0
  6  1  2  0  0  0  0
  9  5  1  0  0  0  0
 10  9  1  0  0  0  0
 11 10  2  0  0  0  0
 12 11  1  0  0  0  0
 12 19  2  0  0  0  0
 13 12  1  0  0  0  0
 14 13  2  0  0  0  0
 15 13  1  0  0  0  0
 15 16  1  0  0  0  0
 16 18  2  0  0  0  0
 17 22  1  0  0  0  0
 17 16  1  0  0  0  0
 18 19  1  0  0  0  0
 19  9  1  0  0  0  0
 20 15  1  0  0  0  0
 21 17  1  0  0  0  0
 23 26  1  0  0  0  0
 23 25  1  0  0  0  0
 24 23  1  0  0  0  0
M  END
>  <minimizedAffinity>
-5.19357634

>  <minimizedRMSD>
1.42118967

$$$$
