
     RDKit          3D

 20 21  0  0  0  0  0  0  0  0999 V2000
   37.9626   28.8810   43.3595 C   0  0  0  0  0  0  0  0  0  0  0  0
   38.0884   27.4599   43.3157 C   0  0  0  0  0  0  0  0  0  0  0  0
   37.4388   26.8183   42.2573 C   0  0  0  0  0  0  0  0  0  0  0  0
   36.7386   27.5828   41.3509 N   0  0  0  0  0  0  0  0  0  0  0  0
   36.6563   28.9172   41.4447 C   0  0  0  0  0  0  0  0  0  0  0  0
   37.2708   29.5546   42.4507 N   0  0  0  0  0  0  0  0  0  0  0  0
   37.5353   25.3321   42.1601 C   0  0  0  0  0  0  0  0  0  0  0  0
   37.6430   25.0545   40.8058 F   0  0  0  0  0  0  0  0  0  0  0  0
   38.6301   24.8419   42.7965 F   0  0  0  0  0  0  0  0  0  0  0  0
   36.3820   24.7128   42.6320 F   0  0  0  0  0  0  0  0  0  0  0  0
   38.4373   29.4491   44.1489 H   0  0  0  0  0  0  0  0  0  0  0  0
   38.6597   26.9438   44.0727 H   0  0  0  0  0  0  0  0  0  0  0  0
   35.8687   29.4277   40.3687 N   0  0  0  0  0  0  0  0  0  0  0  0
   34.5571   29.3312   40.1827 N   0  0  0  0  0  0  0  0  0  0  0  0
   34.2063   29.9557   39.0298 C   0  0  0  0  0  0  0  0  0  0  0  0
   33.2271   30.0688   38.5769 H   0  0  0  0  0  0  0  0  0  0  0  0
   35.3493   30.4775   38.4493 C   0  0  0  0  0  0  0  0  0  0  0  0
   36.3754   30.1261   39.3189 C   0  0  0  0  0  0  0  0  0  0  0  0
   37.4413   30.3645   39.1987 H   0  0  0  0  0  0  0  0  0  0  0  0
   35.5124   31.0484   37.5242 H   0  0  0  0  0  0  0  0  0  0  0  0
  2  1  2  0
  3  2  1  0
  4  5  1  0
  4  3  2  0
  5  6  2  0
  6  1  1  0
  7  3  1  0
  7 10  1  0
  7  9  1  0
  8  7  1  0
  1 11  1  0
  2 12  1  0
 13 14  1  0
 14 15  2  0
 15 16  1  0
 15 17  1  0
 17 18  2  0
 18 19  1  0
 18 13  1  0
 17 20  1  0
  5 13  1  0
M  ISO  4  11  14  12  14  16  14  19  14
M  END
>  <DihAtoms>  (1) 
3,4,12,13

>  <DihDeg>  (1) 
-93.38037459415956

$$$$
