
 OpenBabel03242509303D

 19 20  0  0  0  0  0  0  0  0999 V2000
   37.5990   28.8260   43.5270 C   0  0  0  0  0  0  0  0  0  0  0  0
   37.6610   27.4010   43.5030 C   0  0  0  0  0  0  0  0  0  0  0  0
   37.4990   26.8000   42.2500 C   0  0  0  0  0  0  0  0  0  0  0  0
   37.2950   27.6060   41.1530 N   0  0  0  0  0  0  0  0  0  0  0  0
   37.2460   28.9430   41.2390 C   0  0  0  0  0  0  0  0  0  0  0  0
   37.3990   29.5410   42.4280 N   0  0  0  0  0  0  0  0  0  0  0  0
   37.7150   29.3640   44.4590 H   0  0  0  0  0  0  0  0  0  0  0  0
   37.8250   26.8510   44.4170 H   0  0  0  0  0  0  0  0  0  0  0  0
   37.0240   29.5010   39.9440 N   0  0  0  0  0  0  0  0  0  0  0  0
   36.0290   29.2590   39.0970 N   0  0  0  0  0  0  0  0  0  0  0  0
   36.1920   29.9980   37.9700 C   0  0  0  0  0  0  0  0  0  0  0  0
   35.5720   30.0480   37.0810 H   0  0  0  0  0  0  0  0  0  0  0  0
   37.3470   30.7490   38.1010 C   0  0  0  0  0  3  0  0  0  0  0  0
   37.8440   30.4100   39.3550 C   0  0  0  0  0  0  0  0  0  0  0  0
   38.7580   30.8040   39.8220 H   0  0  0  0  0  0  0  0  0  0  0  0
   37.5540   25.3110   42.1630 C   0  0  0  0  0  0  0  0  0  0  0  0
   37.6540   25.0220   40.8110 F   0  0  0  0  0  0  0  0  0  0  0  0
   38.6360   24.7960   42.8030 F   0  0  0  0  0  0  0  0  0  0  0  0
   36.3850   24.7270   42.6400 F   0  0  0  0  0  0  0  0  0  0  0  0
  1  7  1  0  0  0  0
  2  1  1  0  0  0  0
  2  8  1  0  0  0  0
  3  2  2  0  0  0  0
  4  5  2  0  0  0  0
  4  3  1  0  0  0  0
  5  6  1  0  0  0  0
  6  1  2  0  0  0  0
  9  5  1  0  0  0  0
 10  9  1  0  0  0  0
 11 13  1  0  0  0  0
 11 10  2  0  0  0  0
 12 11  1  0  0  0  0
 13 14  2  0  0  0  0
 14 15  1  0  0  0  0
 14  9  1  0  0  0  0
 16  3  1  0  0  0  0
 16 19  1  0  0  0  0
 16 18  1  0  0  0  0
 17 16  1  0  0  0  0
M  END
>  <minimizedAffinity>
-4.39103031

>  <minimizedRMSD>
1.06820953

$$$$
