
 OpenBabel03242507373D

 36 38  0  0  1  0  0  0  0  0999 V2000
   36.9830   27.5740   39.8180 C   0  0  2  0  0  0  0  0  0  0  0  0
   36.5670   26.1240   39.8560 C   0  0  0  0  0  0  0  0  0  0  0  0
   36.0460   25.9380   38.4460 C   0  0  0  0  0  0  0  0  0  0  0  0
   36.7870   26.9090   37.6080 C   0  0  0  0  0  0  0  0  0  0  0  0
   37.8210   27.5950   38.5680 C   0  0  1  0  0  0  0  0  0  0  0  0
   36.1930   28.2740   39.5570 H   0  0  0  0  0  0  0  0  0  0  0  0
   35.7740   25.9410   40.6090 H   0  0  0  0  0  0  0  0  0  0  0  0
   37.4460   25.4780   39.9910 H   0  0  0  0  0  0  0  0  0  0  0  0
   36.1740   24.8700   38.1130 H   0  0  0  0  0  0  0  0  0  0  0  0
   34.9450   26.1550   38.4180 H   0  0  0  0  0  0  0  0  0  0  0  0
   37.4170   26.3860   36.8390 H   0  0  0  0  0  0  0  0  0  0  0  0
   36.1160   27.6480   37.1590 H   0  0  0  0  0  0  0  0  0  0  0  0
   38.7470   27.0380   38.6080 H   0  0  0  0  0  0  0  0  0  0  0  0
   38.4460   29.3120   42.8000 C   0  0  0  0  0  0  0  0  0  0  0  0
   37.9100   29.2040   41.4560 C   0  0  0  0  0  0  0  0  0  0  0  0
   37.6360   27.9410   41.0460 C   0  0  0  0  0  0  0  0  0  0  0  0
   37.8850   26.8920   41.9180 N   0  0  0  0  0  0  0  0  0  0  0  0
   38.3750   27.0360   43.1360 C   0  0  0  0  0  0  0  0  0  0  0  0
   38.6590   28.2730   43.5800 N   0  0  0  0  0  0  0  0  0  0  0  0
   38.6790   30.3060   43.1680 H   0  0  0  0  0  0  0  0  0  0  0  0
   38.5490   26.1810   43.7740 H   0  0  0  0  0  0  0  0  0  0  0  0
   37.7930   30.3630   40.6990 N   0  0  0  0  0  0  0  0  0  0  0  0
   36.7310   31.3140   40.8250 C   0  0  0  0  0  0  0  0  0  0  0  0
   35.5700   30.8320   41.1300 N   0  0  0  0  0  0  0  0  0  0  0  0
   37.0920   32.7030   40.6110 N   0  0  0  0  0  0  0  0  0  0  0  0
   34.7510   31.4420   41.2760 H   0  0  0  0  0  0  0  0  0  0  0  0
   38.5100   30.6600   40.0030 H   0  0  0  0  0  0  0  0  0  0  0  0
   37.1970   33.4830   41.2650 H   0  0  0  0  0  0  0  0  0  0  0  0
   37.2680   32.9010   39.5860 H   0  0  0  0  0  0  0  0  0  0  0  0
   37.9000   28.9060   37.9950 N   0  0  0  0  0  0  0  0  0  0  0  0
   38.9470   29.7140   37.9620 N   0  0  0  0  0  0  0  0  0  0  0  0
   38.5990   30.8710   37.3690 C   0  0  0  0  0  0  0  0  0  0  0  0
   39.2760   31.6860   37.2230 H   0  0  0  0  0  0  0  0  0  0  0  0
   37.2460   30.7350   37.0250 C   0  0  0  0  0  0  0  0  0  0  0  0
   36.7930   29.4710   37.4280 C   0  0  0  0  0  0  0  0  0  0  0  0
   35.8040   29.0490   37.3130 H   0  0  0  0  0  0  0  0  0  0  0  0
  1  6  1  6  0  0  0
  1  2  1  0  0  0  0
  1 16  1  0  0  0  0
  2  8  1  0  0  0  0
  2  7  1  0  0  0  0
  3  2  1  0  0  0  0
  4  3  1  0  0  0  0
  4  5  1  0  0  0  0
  5 13  1  1  0  0  0
  5  1  1  0  0  0  0
  9  3  1  0  0  0  0
 10  3  1  0  0  0  0
 11  4  1  0  0  0  0
 12  4  1  0  0  0  0
 14 20  1  0  0  0  0
 14 19  1  0  0  0  0
 15 14  2  0  0  0  0
 16 15  1  0  0  0  0
 16 17  2  0  0  0  0
 17 18  1  0  0  0  0
 18 19  2  0  0  0  0
 18 21  1  0  0  0  0
 22 23  1  0  0  0  0
 22 15  1  0  0  0  0
 23 24  2  0  0  0  0
 24 26  1  0  0  0  0
 25 23  1  0  0  0  0
 25 28  1  0  0  0  0
 27 22  1  0  0  0  0
 29 25  1  0  0  0  0
 30  5  1  0  0  0  0
 31 30  1  0  0  0  0
 32 31  2  0  0  0  0
 33 32  1  0  0  0  0
 34 32  1  0  0  0  0
 34 35  2  0  0  0  0
 35 30  1  0  0  0  0
 36 35  1  0  0  0  0
M  END
>  <minimizedAffinity>
-5.23835039

>  <minimizedRMSD>
0.311144561

$$$$
