
 OpenBabel03242509303D

 19 20  0  0  0  0  0  0  0  0999 V2000
   37.7690   28.7800   43.4320 C   0  0  0  0  0  0  0  0  0  0  0  0
   38.0830   27.3890   43.4830 C   0  0  0  0  0  0  0  0  0  0  0  0
   37.8090   26.6550   42.3250 C   0  0  0  0  0  0  0  0  0  0  0  0
   37.2650   27.3100   41.2420 N   0  0  0  0  0  0  0  0  0  0  0  0
   36.9900   28.6210   41.2550 C   0  0  0  0  0  0  0  0  0  0  0  0
   37.2460   29.3460   42.3540 N   0  0  0  0  0  0  0  0  0  0  0  0
   37.9530   29.4150   44.2900 H   0  0  0  0  0  0  0  0  0  0  0  0
   38.5090   26.9630   44.3790 H   0  0  0  0  0  0  0  0  0  0  0  0
   36.4390   29.0100   39.9970 N   0  0  0  0  0  0  0  0  0  0  0  0
   35.2390   28.7340   39.4970 N   0  0  0  0  0  0  0  0  0  0  0  0
   35.1100   29.2950   38.2680 C   0  0  0  0  0  0  0  0  0  0  0  0
   34.2700   29.2700   37.5820 H   0  0  0  0  0  0  0  0  0  0  0  0
   36.2850   29.9610   37.9650 C   0  0  0  0  0  3  0  0  0  0  0  0
   37.0970   29.7600   39.0760 C   0  0  0  0  0  0  0  0  0  0  0  0
   38.1190   30.1400   39.2130 H   0  0  0  0  0  0  0  0  0  0  0  0
   38.1170   25.1950   42.3190 C   0  0  0  0  0  0  0  0  0  0  0  0
   38.5750   24.9180   41.0400 F   0  0  0  0  0  0  0  0  0  0  0  0
   39.0860   24.8670   43.2120 F   0  0  0  0  0  0  0  0  0  0  0  0
   36.9760   24.4300   42.5390 F   0  0  0  0  0  0  0  0  0  0  0  0
  1  2  1  0  0  0  0
  1  7  1  0  0  0  0
  2  8  1  0  0  0  0
  3  2  2  0  0  0  0
  4  5  2  0  0  0  0
  4  3  1  0  0  0  0
  5  6  1  0  0  0  0
  6  1  2  0  0  0  0
  9  5  1  0  0  0  0
 10  9  1  0  0  0  0
 11 10  2  0  0  0  0
 12 11  1  0  0  0  0
 13 11  1  0  0  0  0
 13 14  2  0  0  0  0
 14 15  1  0  0  0  0
 14  9  1  0  0  0  0
 16  3  1  0  0  0  0
 16 19  1  0  0  0  0
 16 18  1  0  0  0  0
 17 16  1  0  0  0  0
M  END
>  <minimizedAffinity>
-4.23820782

>  <minimizedRMSD>
0.770719945

$$$$
