
 OpenBabel03242509083D

 37 41  0  0  1  0  0  0  0  0999 V2000
   35.8860   30.4450   40.9110 C   0  0  0  0  0  0  0  0  0  0  0  0
   36.6010   29.4000   41.5180 C   0  0  0  0  0  0  0  0  0  0  0  0
   37.9930   29.4640   41.5330 C   0  0  0  0  0  0  0  0  0  0  0  0
   38.5670   30.5460   40.9550 N   0  0  0  0  0  0  0  0  0  0  0  0
   37.8690   31.5400   40.3770 C   0  0  0  0  0  0  0  0  0  0  0  0
   36.5160   31.4930   40.3520 N   0  0  0  0  0  0  0  0  0  0  0  0
   34.8040   30.3450   40.9260 H   0  0  0  0  0  0  0  0  0  0  0  0
   36.0720   28.5710   41.9580 H   0  0  0  0  0  0  0  0  0  0  0  0
   38.7380   28.3820   42.1480 C   0  0  0  0  0  0  0  0  0  0  0  0
   39.8960   28.4560   42.8900 C   0  0  0  0  0  0  0  0  0  0  0  0
   40.2620   27.2110   43.2750 N   0  0  0  0  0  0  0  0  0  0  0  0
   39.3780   26.3050   42.8120 C   0  0  0  0  0  0  0  0  0  0  0  0
   39.2680   24.9270   42.9070 C   0  0  0  0  0  0  0  0  0  0  0  0
   38.2190   24.2410   42.3090 C   0  0  0  0  0  0  0  0  0  0  0  0
   37.2950   24.9860   41.6210 C   0  0  0  0  0  0  0  0  0  0  0  0
   37.3940   26.3480   41.5210 C   0  0  0  0  0  0  0  0  0  0  0  0
   38.4290   27.0330   42.1100 C   0  0  0  0  0  0  0  0  0  0  0  0
   40.3810   29.4040   43.0900 H   0  0  0  0  0  0  0  0  0  0  0  0
   41.1000   26.9650   43.8490 H   0  0  0  0  0  0  0  0  0  0  0  0
   40.0590   24.4270   43.4790 H   0  0  0  0  0  0  0  0  0  0  0  0
   38.2120   23.1640   42.4330 H   0  0  0  0  0  0  0  0  0  0  0  0
   36.4710   24.4560   41.1500 H   0  0  0  0  0  0  0  0  0  0  0  0
   36.6620   26.9340   40.9770 H   0  0  0  0  0  0  0  0  0  0  0  0
   38.5850   32.7050   39.7680 C   0  0  1  0  0  0  0  0  0  0  0  0
   38.9050   33.8860   40.6770 C   0  0  0  0  0  0  0  0  0  0  0  0
   39.9940   32.9840   40.1750 C   0  0  2  0  0  0  0  0  0  0  0  0
   38.3170   32.9380   38.7170 H   0  0  0  0  0  0  0  0  0  0  0  0
   38.7560   34.8640   40.1810 H   0  0  0  0  0  0  0  0  0  0  0  0
   38.5330   33.7600   41.7060 H   0  0  0  0  0  0  0  0  0  0  0  0
   40.4500   32.3520   40.9790 H   0  0  0  0  0  0  0  0  0  0  0  0
   40.9240   33.5540   39.1980 N   0  0  0  0  0  0  0  0  0  0  0  0
   41.2660   32.8540   38.1250 N   0  0  0  0  0  0  0  0  0  0  0  0
   42.1300   33.6230   37.4060 C   0  0  0  0  0  0  0  0  0  0  0  0
   42.6450   33.4170   36.4550 H   0  0  0  0  0  0  0  0  0  0  0  0
   42.2990   34.8260   38.0920 C   0  0  0  0  0  0  0  0  0  0  0  0
   41.5160   34.7740   39.2490 C   0  0  0  0  0  0  0  0  0  0  0  0
   41.3300   35.4560   40.0690 H   0  0  0  0  0  0  0  0  0  0  0  0
  1  7  1  0  0  0  0
  1  2  1  0  0  0  0
  2  3  2  0  0  0  0
  2  8  1  0  0  0  0
  3  9  1  0  0  0  0
  4  3  1  0  0  0  0
  5  4  2  0  0  0  0
  6  5  1  0  0  0  0
  6  1  2  0  0  0  0
  9 10  2  0  0  0  0
 10 18  1  0  0  0  0
 10 11  1  0  0  0  0
 11 19  1  0  0  0  0
 12 13  1  0  0  0  0
 12 11  1  0  0  0  0
 13 20  1  0  0  0  0
 14 21  1  0  0  0  0
 14 13  2  0  0  0  0
 15 14  1  0  0  0  0
 16 15  2  0  0  0  0
 16 17  1  0  0  0  0
 17  9  1  0  0  0  0
 17 12  2  0  0  0  0
 22 15  1  0  0  0  0
 23 16  1  0  0  0  0
 24 27  1  6  0  0  0
 24 26  1  0  0  0  0
 24  5  1  0  0  0  0
 24 25  1  0  0  0  0
 25 29  1  0  0  0  0
 26 25  1  0  0  0  0
 26 30  1  1  0  0  0
 28 25  1  0  0  0  0
 31 36  1  0  0  0  0
 31 26  1  0  0  0  0
 32 31  1  0  0  0  0
 33 35  1  0  0  0  0
 33 32  2  0  0  0  0
 34 33  1  0  0  0  0
 35 36  2  0  0  0  0
 36 37  1  0  0  0  0
M  END
>  <minimizedAffinity>
-5.97409534

>  <minimizedRMSD>
1.05252719

$$$$
