
 OpenBabel03242509313D

 19 20  0  0  0  0  0  0  0  0999 V2000
   37.8290   28.5530   43.6450 C   0  0  0  0  0  0  0  0  0  0  0  0
   38.4430   27.2670   43.7350 C   0  0  0  0  0  0  0  0  0  0  0  0
   38.2910   26.4350   42.6220 C   0  0  0  0  0  0  0  0  0  0  0  0
   37.5760   26.9010   41.5420 N   0  0  0  0  0  0  0  0  0  0  0  0
   37.0200   28.1200   41.5160 C   0  0  0  0  0  0  0  0  0  0  0  0
   37.1530   28.9370   42.5710 N   0  0  0  0  0  0  0  0  0  0  0  0
   37.9030   29.2530   44.4670 H   0  0  0  0  0  0  0  0  0  0  0  0
   38.9860   26.9880   44.6260 H   0  0  0  0  0  0  0  0  0  0  0  0
   36.3490   28.3180   40.2720 N   0  0  0  0  0  0  0  0  0  0  0  0
   35.8580   29.4430   39.7640 N   0  0  0  0  0  0  0  0  0  0  0  0
   35.2950   29.1960   38.5530 C   0  0  0  0  0  0  0  0  0  0  0  0
   34.8060   29.8800   37.8680 H   0  0  0  0  0  0  0  0  0  0  0  0
   35.4310   27.8480   38.2740 C   0  0  0  0  0  3  0  0  0  0  0  0
   36.0980   27.3270   39.3760 C   0  0  0  0  0  0  0  0  0  0  0  0
   36.3910   26.2780   39.5260 H   0  0  0  0  0  0  0  0  0  0  0  0
   38.9110   25.0780   42.6590 C   0  0  0  0  0  0  0  0  0  0  0  0
   39.6900   24.9950   41.5150 F   0  0  0  0  0  0  0  0  0  0  0  0
   39.7080   24.9030   43.7450 F   0  0  0  0  0  0  0  0  0  0  0  0
   37.9500   24.0740   42.5950 F   0  0  0  0  0  0  0  0  0  0  0  0
  1  2  1  0  0  0  0
  1  7  1  0  0  0  0
  2  8  1  0  0  0  0
  3 16  1  0  0  0  0
  3  2  2  0  0  0  0
  4  3  1  0  0  0  0
  5  4  2  0  0  0  0
  5  6  1  0  0  0  0
  6  1  2  0  0  0  0
  9  5  1  0  0  0  0
 10  9  1  0  0  0  0
 11 10  2  0  0  0  0
 12 11  1  0  0  0  0
 13 11  1  0  0  0  0
 13 14  2  0  0  0  0
 14 15  1  0  0  0  0
 14  9  1  0  0  0  0
 16 18  1  0  0  0  0
 17 16  1  0  0  0  0
 19 16  1  0  0  0  0
M  END
>  <minimizedAffinity>
-4.1569519

>  <minimizedRMSD>
1.36421788

$$$$
