
 OpenBabel03242509323D

 19 20  0  0  0  0  0  0  0  0999 V2000
   37.7900   28.7830   43.4680 C   0  0  0  0  0  0  0  0  0  0  0  0
   38.0840   27.3870   43.5090 C   0  0  0  0  0  0  0  0  0  0  0  0
   37.8280   26.6710   42.3360 C   0  0  0  0  0  0  0  0  0  0  0  0
   37.3200   27.3460   41.2480 N   0  0  0  0  0  0  0  0  0  0  0  0
   37.0630   28.6600   41.2700 C   0  0  0  0  0  0  0  0  0  0  0  0
   37.3010   29.3690   42.3830 N   0  0  0  0  0  0  0  0  0  0  0  0
   37.9610   29.4050   44.3370 H   0  0  0  0  0  0  0  0  0  0  0  0
   38.4810   26.9440   44.4100 H   0  0  0  0  0  0  0  0  0  0  0  0
   36.5480   29.0720   40.0040 N   0  0  0  0  0  0  0  0  0  0  0  0
   37.1410   29.8020   39.0650 N   0  0  0  0  0  0  0  0  0  0  0  0
   36.3030   29.9670   38.0100 C   0  0  0  0  0  0  0  0  0  0  0  0
   36.4610   30.5030   37.0810 H   0  0  0  0  0  0  0  0  0  0  0  0
   35.1160   29.3100   38.2870 C   0  0  0  0  0  3  0  0  0  0  0  0
   35.3070   28.7590   39.5480 C   0  0  0  0  0  0  0  0  0  0  0  0
   34.5810   28.1580   40.1130 H   0  0  0  0  0  0  0  0  0  0  0  0
   38.1160   25.2070   42.3190 C   0  0  0  0  0  0  0  0  0  0  0  0
   38.5650   24.9320   41.0370 F   0  0  0  0  0  0  0  0  0  0  0  0
   39.0830   24.8600   43.2070 F   0  0  0  0  0  0  0  0  0  0  0  0
   36.9650   24.4560   42.5380 F   0  0  0  0  0  0  0  0  0  0  0  0
  1  2  1  0  0  0  0
  1  7  1  0  0  0  0
  2  8  1  0  0  0  0
  3  2  2  0  0  0  0
  4  5  2  0  0  0  0
  4  3  1  0  0  0  0
  5  6  1  0  0  0  0
  6  1  2  0  0  0  0
  9  5  1  0  0  0  0
 10  9  1  0  0  0  0
 11 13  1  0  0  0  0
 11 10  2  0  0  0  0
 12 11  1  0  0  0  0
 13 14  2  0  0  0  0
 14  9  1  0  0  0  0
 14 15  1  0  0  0  0
 16  3  1  0  0  0  0
 16 19  1  0  0  0  0
 16 18  1  0  0  0  0
 17 16  1  0  0  0  0
M  END
>  <minimizedAffinity>
-4.26634502

>  <minimizedRMSD>
0.812884629

$$$$
