
 OpenBabel03242509263D

 46 50  0  0  0  0  0  0  0  0999 V2000
   36.1270   30.0770   41.0840 C   0  0  0  0  0  0  0  0  0  0  0  0
   35.5140   30.5740   41.8920 H   0  0  0  0  0  0  0  0  0  0  0  0
   36.7350   30.8950   40.6410 H   0  0  0  0  0  0  0  0  0  0  0  0
   38.5850   28.1470   42.6850 C   0  0  0  0  0  0  0  0  0  0  0  0
   37.4970   27.3180   42.7890 C   0  0  0  0  0  0  0  0  0  0  0  0
   36.4330   27.9860   42.1750 C   0  0  0  0  0  0  0  0  0  0  0  0
   36.9640   29.1440   41.7590 N   0  0  0  0  0  0  0  0  0  0  0  0
   38.2200   29.2790   42.0360 N   0  0  0  0  0  0  0  0  0  0  0  0
   37.5190   26.3500   43.2650 H   0  0  0  0  0  0  0  0  0  0  0  0
   35.4500   27.5570   42.1150 H   0  0  0  0  0  0  0  0  0  0  0  0
   41.4920   26.4830   44.3230 C   0  0  0  0  0  0  0  0  0  0  0  0
   40.1860   26.6890   43.8610 C   0  0  0  0  0  0  0  0  0  0  0  0
   39.9200   27.8830   43.1800 C   0  0  0  0  0  0  0  0  0  0  0  0
   40.9130   28.7750   42.9950 N   0  0  0  0  0  0  0  0  0  0  0  0
   42.1700   28.5300   43.4640 C   0  0  0  0  0  0  0  0  0  0  0  0
   42.4460   27.3930   44.1190 N   0  0  0  0  0  0  0  0  0  0  0  0
   41.7710   25.5820   44.8590 H   0  0  0  0  0  0  0  0  0  0  0  0
   39.4270   25.9340   44.0410 H   0  0  0  0  0  0  0  0  0  0  0  0
   43.0770   29.6020   43.1630 N   0  0  0  0  0  0  0  0  0  0  0  0
   43.7990   30.2670   44.0530 N   0  0  0  0  0  0  0  0  0  0  0  0
   44.5400   31.2060   43.4350 C   0  0  0  0  0  0  0  0  0  0  0  0
   45.2260   31.8980   43.9180 H   0  0  0  0  0  0  0  0  0  0  0  0
   44.2790   31.1410   42.0810 C   0  0  0  0  0  3  0  0  0  0  0  0
   43.3570   30.1230   41.9540 C   0  0  0  0  0  0  0  0  0  0  0  0
   42.8990   29.7590   41.0440 H   0  0  0  0  0  0  0  0  0  0  0  0
   35.2380   29.5120   40.0250 C   0  0  0  0  0  0  0  0  0  0  0  0
   34.7630   28.6130   40.3920 H   0  0  0  0  0  0  0  0  0  0  0  0
   34.5270   30.3990   39.8990 H   0  0  0  0  0  0  0  0  0  0  0  0
   35.8560   29.4250   38.6840 C   0  0  0  0  0  0  0  0  0  0  0  0
   37.1750   29.5590   38.3600 C   0  0  0  0  0  0  0  0  0  0  0  0
   37.7000   29.5430   37.1020 C   0  0  0  0  0  0  0  0  0  0  0  0
   36.8520   29.3800   36.0210 C   0  0  0  0  0  0  0  0  0  0  0  0
   35.4990   29.2360   36.2810 C   0  0  0  0  0  0  0  0  0  0  0  0
   34.7180   29.0800   35.1660 C   0  0  0  0  0  0  0  0  0  0  0  0
   33.3640   28.9250   35.3090 C   0  0  0  0  0  0  0  0  0  0  0  0
   32.8190   28.9290   36.5780 C   0  0  0  0  0  0  0  0  0  0  0  0
   33.6580   29.0900   37.6410 C   0  0  0  0  0  0  0  0  0  0  0  0
   35.0060   29.2560   37.5810 C   0  0  0  0  0  0  0  0  0  0  0  0
   37.8530   29.6900   39.2050 H   0  0  0  0  0  0  0  0  0  0  0  0
   38.7690   29.6590   36.9860 H   0  0  0  0  0  0  0  0  0  0  0  0
   37.2930   29.3750   35.0520 H   0  0  0  0  0  0  0  0  0  0  0  0
   35.1180   29.0700   34.1590 H   0  0  0  0  0  0  0  0  0  0  0  0
   32.7410   28.8020   34.4330 H   0  0  0  0  0  0  0  0  0  0  0  0
   31.7540   28.8060   36.6860 H   0  0  0  0  0  0  0  0  0  0  0  0
   33.0470   29.0690   38.8880 O   0  0  0  0  0  0  0  0  0  0  0  0
   32.5880   28.2630   39.2610 H   0  0  0  0  0  0  0  0  0  0  0  0
  1  7  1  0  0  0  0
  1  2  1  0  0  0  0
  3  1  1  0  0  0  0
  4  5  1  0  0  0  0
  4 13  1  0  0  0  0
  5  9  1  0  0  0  0
  6  5  2  0  0  0  0
  7  8  1  0  0  0  0
  7  6  1  0  0  0  0
  8  4  2  0  0  0  0
 10  6  1  0  0  0  0
 11 17  1  0  0  0  0
 12 18  1  0  0  0  0
 12 11  2  0  0  0  0
 13 12  1  0  0  0  0
 14 13  2  0  0  0  0
 14 15  1  0  0  0  0
 15 16  2  0  0  0  0
 16 11  1  0  0  0  0
 19 15  1  0  0  0  0
 19 20  1  0  0  0  0
 21 22  1  0  0  0  0
 21 20  2  0  0  0  0
 23 21  1  0  0  0  0
 24 23  2  0  0  0  0
 24 19  1  0  0  0  0
 25 24  1  0  0  0  0
 26 27  1  0  0  0  0
 26  1  1  0  0  0  0
 28 26  1  0  0  0  0
 29 26  1  0  0  0  0
 30 29  1  0  0  0  0
 30 39  1  0  0  0  0
 31 30  2  0  0  0  0
 32 33  2  0  0  0  0
 32 31  1  0  0  0  0
 33 38  1  0  0  0  0
 34 35  2  0  0  0  0
 34 33  1  0  0  0  0
 35 36  1  0  0  0  0
 36 44  1  0  0  0  0
 36 37  2  0  0  0  0
 37 45  1  0  0  0  0
 38 37  1  0  0  0  0
 38 29  2  0  0  0  0
 40 31  1  0  0  0  0
 41 32  1  0  0  0  0
 42 34  1  0  0  0  0
 43 35  1  0  0  0  0
 45 46  1  0  0  0  0
M  END
>  <minimizedAffinity>
-6.12590265

>  <minimizedRMSD>
0.190900236

$$$$
