
 OpenBabel03242507293D

 31 34  0  0  0  0  0  0  0  0999 V2000
   37.0690   28.1220   43.1870 C   0  0  0  0  0  0  0  0  0  0  0  0
   37.2760   27.8520   44.2470 H   0  0  0  0  0  0  0  0  0  0  0  0
   36.0910   28.6140   43.0930 H   0  0  0  0  0  0  0  0  0  0  0  0
   40.4200   29.6150   42.2190 C   0  0  0  0  0  0  0  0  0  0  0  0
   39.4490   28.7310   42.7750 C   0  0  0  0  0  0  0  0  0  0  0  0
   38.1120   29.0130   42.6250 C   0  0  0  0  0  0  0  0  0  0  0  0
   37.7700   30.1450   41.9380 N   0  0  0  0  0  0  0  0  0  0  0  0
   38.7050   30.9760   41.4140 C   0  0  0  0  0  0  0  0  0  0  0  0
   39.9930   30.7090   41.5560 N   0  0  0  0  0  0  0  0  0  0  0  0
   41.4710   29.3820   42.3440 H   0  0  0  0  0  0  0  0  0  0  0  0
   39.7970   27.8560   43.3050 H   0  0  0  0  0  0  0  0  0  0  0  0
   38.2370   32.1270   40.7190 N   0  0  0  0  0  0  0  0  0  0  0  0
   37.2570   32.4570   39.8600 C   0  0  0  0  0  0  0  0  0  0  0  0
   37.3490   33.7640   39.5540 N   0  0  0  0  0  0  0  0  0  0  0  0
   38.4010   34.2570   40.2310 C   0  0  0  0  0  0  0  0  0  0  0  0
   38.9380   33.2250   40.9460 N   0  0  0  0  0  0  0  0  0  0  0  0
   37.0210   26.8590   42.4350 C   0  0  0  0  0  0  0  0  0  0  0  0
   37.0350   25.5550   42.7520 C   0  0  0  0  0  0  0  0  0  0  0  0
   36.9780   24.5840   41.8210 C   0  0  0  0  0  0  0  0  0  0  0  0
   36.9000   25.1130   40.4810 C   0  0  0  0  0  0  0  0  0  0  0  0
   36.9160   26.8450   40.6570 S   0  0  0  0  0  0  0  0  0  0  0  0
   37.0980   25.3490   43.8160 H   0  0  0  0  0  0  0  0  0  0  0  0
   36.9840   23.5320   41.9830 H   0  0  0  0  0  0  0  0  0  0  0  0
   36.8250   24.3450   39.2500 C   0  0  0  0  0  0  0  0  0  0  0  0
   37.7180   23.4180   38.8570 C   0  0  0  0  0  0  0  0  0  0  0  0
   37.2110   22.9740   37.6280 C   0  0  0  0  0  0  0  0  0  0  0  0
   36.0600   23.6330   37.3370 N   0  0  0  0  0  0  0  0  0  0  0  0
   35.8300   24.4800   38.3470 N   0  0  0  0  0  0  0  0  0  0  0  0
   38.6330   23.0520   39.3240 H   0  0  0  0  0  0  0  0  0  0  0  0
   37.6370   22.2110   36.9630 H   0  0  0  0  0  0  0  0  0  0  0  0
   35.4280   23.5560   36.5200 H   0  0  0  0  0  0  0  0  0  0  0  0
  1  2  1  0  0  0  0
  3  1  1  0  0  0  0
  4 10  1  0  0  0  0
  4  5  1  0  0  0  0
  5 11  1  0  0  0  0
  6  5  2  0  0  0  0
  6  1  1  0  0  0  0
  7  6  1  0  0  0  0
  8  9  1  0  0  0  0
  8  7  2  0  0  0  0
  9  4  2  0  0  0  0
 12 16  1  0  0  0  0
 12  8  1  0  0  0  0
 13 12  1  0  0  0  0
 14 13  2  0  0  0  0
 14 15  1  0  0  0  0
 15 16  2  0  0  0  0
 17 18  2  0  0  0  0
 17  1  1  0  0  0  0
 18 22  1  0  0  0  0
 19 23  1  0  0  0  0
 19 18  1  0  0  0  0
 20 21  1  0  0  0  0
 20 19  2  0  0  0  0
 21 17  1  0  0  0  0
 24 20  1  0  0  0  0
 25 24  1  0  0  0  0
 25 29  1  0  0  0  0
 26 25  2  0  0  0  0
 27 26  1  0  0  0  0
 27 28  1  0  0  0  0
 28 24  2  0  0  0  0
 30 26  1  0  0  0  0
 31 27  1  0  0  0  0
M  END
>  <minimizedAffinity>
-5.21843529

>  <minimizedRMSD>
1.43105173

$$$$
