
 OpenBabel03242508193D

 27 30  0  0  0  0  0  0  0  0999 V2000
   38.6990   27.3330   43.8170 C   0  0  0  0  0  0  0  0  0  0  0  0
   39.1640   26.3700   42.8940 C   0  0  0  0  0  0  0  0  0  0  0  0
   39.1270   26.6850   41.5330 C   0  0  0  0  0  0  0  0  0  0  0  0
   38.6410   27.9120   41.1840 N   0  0  0  0  0  0  0  0  0  0  0  0
   38.2000   28.8190   42.1060 C   0  0  0  0  0  0  0  0  0  0  0  0
   38.2290   28.5300   43.4140 N   0  0  0  0  0  0  0  0  0  0  0  0
   37.7470   30.0120   41.4720 N   0  0  0  0  0  0  0  0  0  0  0  0
   36.4430   30.1760   41.1220 C   0  0  0  0  0  0  0  0  0  0  0  0
   36.2690   31.3790   40.5430 N   0  0  0  0  0  0  0  0  0  0  0  0
   37.4670   31.9980   40.5160 C   0  0  0  0  0  0  0  0  0  0  0  0
   37.9210   33.2260   40.0570 C   0  0  0  0  0  0  0  0  0  0  0  0
   39.2440   33.5260   40.2010 N   0  0  0  0  0  0  0  0  0  0  0  0
   40.1020   32.6730   40.7670 C   0  0  0  0  0  0  0  0  0  0  0  0
   39.6790   31.4570   41.2270 N   0  0  0  0  0  0  0  0  0  0  0  0
   38.3670   31.1290   41.0990 C   0  0  0  0  0  0  0  0  0  0  0  0
   36.9270   34.0370   39.4820 N   0  0  0  0  0  0  0  0  0  0  0  0
   38.7250   27.0960   44.8670 H   0  0  0  0  0  0  0  0  0  0  0  0
   39.5430   25.4050   43.2200 H   0  0  0  0  0  0  0  0  0  0  0  0
   39.4660   25.9940   40.7900 H   0  0  0  0  0  0  0  0  0  0  0  0
   35.6380   29.4700   41.2720 H   0  0  0  0  0  0  0  0  0  0  0  0
   36.2280   33.6450   38.8160 H   0  0  0  0  0  0  0  0  0  0  0  0
   36.9200   35.0370   39.7470 H   0  0  0  0  0  0  0  0  0  0  0  0
   41.4750   33.0290   40.8960 N   0  0  0  0  0  0  0  0  0  0  0  0
   41.9070   34.2990   40.6720 C   0  0  0  0  0  0  0  0  0  0  0  0
   43.2480   34.4010   40.8530 N   0  0  0  0  0  0  0  0  0  0  0  0
   43.6400   33.1430   41.2020 C   0  0  0  0  0  0  0  0  0  0  0  0
   42.5490   32.3260   41.2210 N   0  0  0  0  0  0  0  0  0  0  0  0
  1 17  1  0  0  0  0
  2 18  1  0  0  0  0
  2  1  2  0  0  0  0
  3  2  1  0  0  0  0
  4  3  2  0  0  0  0
  4  5  1  0  0  0  0
  5  6  2  0  0  0  0
  6  1  1  0  0  0  0
  7  5  1  0  0  0  0
  8 20  1  0  0  0  0
  8  7  1  0  0  0  0
  9  8  2  0  0  0  0
 10  9  1  0  0  0  0
 10 15  1  0  0  0  0
 11 12  1  0  0  0  0
 11 10  2  0  0  0  0
 12 13  2  0  0  0  0
 13 23  1  0  0  0  0
 13 14  1  0  0  0  0
 15 14  2  0  0  0  0
 15  7  1  0  0  0  0
 16 22  1  0  0  0  0
 16 11  1  0  0  0  0
 19  3  1  0  0  0  0
 21 16  1  0  0  0  0
 23 27  1  0  0  0  0
 24 25  2  0  0  0  0
 24 23  1  0  0  0  0
 25 26  1  0  0  0  0
 26 27  2  0  0  0  0
M  END
>  <minimizedAffinity>
-6.20377731

>  <minimizedRMSD>
1.24470592

$$$$
