
 OpenBabel03242505583D

 43 47  0  0  0  0  0  0  0  0999 V2000
   39.3510   29.4930   39.6550 C   0  0  0  0  0  0  0  0  0  0  0  0
   38.1020   29.9250   39.3070 C   0  0  0  0  0  0  0  0  0  0  0  0
   38.0570   31.0620   38.4890 C   0  0  0  0  0  0  0  0  0  0  0  0
   39.2060   31.6330   38.1150 N   0  0  0  0  0  0  0  0  0  0  0  0
   40.3880   31.1940   38.4660 C   0  0  0  0  0  0  0  0  0  0  0  0
   40.4900   30.0810   39.2680 N   0  0  0  0  0  0  0  0  0  0  0  0
   41.4940   31.9400   37.9760 N   0  0  0  0  0  0  0  0  0  0  0  0
   42.5820   31.6510   37.3070 N   0  0  0  0  0  0  0  0  0  0  0  0
   43.3040   32.7700   37.1080 C   0  0  0  0  0  0  0  0  0  0  0  0
   42.6260   33.8010   37.6850 C   0  0  0  0  0  0  0  0  0  0  0  0
   41.4730   33.2690   38.2350 C   0  0  0  0  0  0  0  0  0  0  0  0
   39.6310   28.6570   40.2760 H   0  0  0  0  0  0  0  0  0  0  0  0
   37.0720   31.4110   38.2080 H   0  0  0  0  0  0  0  0  0  0  0  0
   44.2400   32.7130   36.5700 H   0  0  0  0  0  0  0  0  0  0  0  0
   43.0530   34.7790   37.6250 H   0  0  0  0  0  0  0  0  0  0  0  0
   36.9180   29.1860   39.8070 C   0  0  0  0  0  0  0  0  0  0  0  0
   36.1750   30.0260   40.0260 H   0  0  0  0  0  0  0  0  0  0  0  0
   36.4120   28.6730   38.9640 H   0  0  0  0  0  0  0  0  0  0  0  0
   37.0490   28.4730   41.0440 C   0  0  0  0  0  0  0  0  0  0  0  0
   37.2620   29.2110   42.2270 C   0  0  0  0  0  0  0  0  0  0  0  0
   37.3910   28.6060   43.4460 C   0  0  0  0  0  0  0  0  0  0  0  0
   37.3060   27.2200   43.5000 C   0  0  0  0  0  0  0  0  0  0  0  0
   37.1020   26.4940   42.3720 C   0  0  0  0  0  0  0  0  0  0  0  0
   37.0040   25.0970   42.4170 C   0  0  0  0  0  0  0  0  0  0  0  0
   36.7930   24.3770   41.3030 C   0  0  0  0  0  0  0  0  0  0  0  0
   36.6610   24.9840   40.0440 C   0  0  0  0  0  0  0  0  0  0  0  0
   36.7610   26.3920   40.0090 C   0  0  0  0  0  0  0  0  0  0  0  0
   36.9710   27.1090   41.1310 C   0  0  0  0  0  0  0  0  0  0  0  0
   37.3370   30.2790   42.3300 H   0  0  0  0  0  0  0  0  0  0  0  0
   37.5540   29.0900   44.3970 H   0  0  0  0  0  0  0  0  0  0  0  0
   37.3980   26.6670   44.4360 H   0  0  0  0  0  0  0  0  0  0  0  0
   37.1070   24.6300   43.3860 H   0  0  0  0  0  0  0  0  0  0  0  0
   36.7290   23.2940   41.4130 H   0  0  0  0  0  0  0  0  0  0  0  0
   36.4950   24.4000   39.1720 H   0  0  0  0  0  0  0  0  0  0  0  0
   36.6520   26.7860   39.0090 H   0  0  0  0  0  0  0  0  0  0  0  0
   40.5640   34.0860   38.9020 O   0  0  0  0  0  0  0  0  0  0  0  0
   40.6030   36.0410   42.7260 H   0  0  0  0  0  0  0  0  0  0  0  0
   40.9160   36.5120   41.8450 N   0  0  0  0  0  0  0  0  0  0  0  0
   39.8520   36.5360   40.8530 C   0  0  0  0  0  0  0  0  0  0  0  0
   39.3270   35.1470   40.6730 C   0  0  0  0  0  0  0  0  0  0  0  0
   40.3800   34.1360   40.2940 C   0  0  0  0  0  0  0  0  0  0  0  0
   41.6740   34.3410   41.0400 C   0  0  0  0  0  0  0  0  0  0  0  0
   42.0200   35.7970   41.2100 C   0  0  0  0  0  0  0  0  0  0  0  0
  1 12  1  0  0  0  0
  2  1  1  0  0  0  0
  2 16  1  0  0  0  0
  3  2  2  0  0  0  0
  4  5  2  0  0  0  0
  4  3  1  0  0  0  0
  5  6  1  0  0  0  0
  6  1  2  0  0  0  0
  7 11  1  0  0  0  0
  7  5  1  0  0  0  0
  8  7  1  0  0  0  0
  9  8  2  0  0  0  0
  9 10  1  0  0  0  0
 10 11  2  0  0  0  0
 11 36  1  0  0  0  0
 13  3  1  0  0  0  0
 14  9  1  0  0  0  0
 15 10  1  0  0  0  0
 16 17  1  0  0  0  0
 16 19  1  0  0  0  0
 18 16  1  0  0  0  0
 19 28  2  0  0  0  0
 19 20  1  0  0  0  0
 20 29  1  0  0  0  0
 20 21  2  0  0  0  0
 21 22  1  0  0  0  0
 21 30  1  0  0  0  0
 22 31  1  0  0  0  0
 23 24  1  0  0  0  0
 23 22  2  0  0  0  0
 24 32  1  0  0  0  0
 25 33  1  0  0  0  0
 25 24  2  0  0  0  0
 26 25  1  0  0  0  0
 27 26  2  0  0  0  0
 27 28  1  0  0  0  0
 28 23  1  0  0  0  0
 34 26  1  0  0  0  0
 35 27  1  0  0  0  0
 36 41  1  0  0  0  0
 38 37  1  0  0  0  0
 39 38  1  0  0  0  0
 40 39  1  0  0  0  0
 41 40  1  0  0  0  0
 41 42  1  0  0  0  0
 42 43  1  0  0  0  0
 43 38  1  0  0  0  0
M  END
>  <minimizedAffinity>
-7.06428242

>  <minimizedRMSD>
3.34761953

$$$$
