
 OpenBabel03242509313D

 17 18  0  0  0  0  0  0  0  0999 V2000
   40.3640   26.6800   43.8380 C   0  0  0  0  0  0  0  0  0  0  0  0
   39.4410   25.6680   43.4460 C   0  0  0  0  0  0  0  0  0  0  0  0
   38.4910   26.0250   42.4800 C   0  0  0  0  0  0  0  0  0  0  0  0
   38.4990   27.2980   41.9750 N   0  0  0  0  0  0  0  0  0  0  0  0
   39.3930   28.2200   42.3790 C   0  0  0  0  0  0  0  0  0  0  0  0
   40.3150   27.8980   43.3060 N   0  0  0  0  0  0  0  0  0  0  0  0
   41.0950   26.4240   44.5730 H   0  0  0  0  0  0  0  0  0  0  0  0
   39.4520   24.6680   43.8560 H   0  0  0  0  0  0  0  0  0  0  0  0
   39.3730   29.5350   41.8330 N   0  0  0  0  0  0  0  0  0  0  0  0
   39.5590   30.6860   42.5210 C   0  0  0  0  0  3  0  0  0  0  0  0
   39.4780   31.7690   41.6970 N   0  0  0  0  0  0  0  0  0  0  0  0
   39.2320   31.2570   40.4560 C   0  0  0  0  0  3  0  0  0  0  0  0
   39.1790   29.9330   40.5870 N   0  0  0  0  0  0  0  0  0  0  0  0
   37.5030   24.9970   42.0380 C   0  0  0  0  0  0  0  0  0  0  0  0
   37.1800   25.3210   40.7400 F   0  0  0  0  0  0  0  0  0  0  0  0
   38.0190   23.7380   42.0550 F   0  0  0  0  0  0  0  0  0  0  0  0
   36.3470   25.0300   42.8110 F   0  0  0  0  0  0  0  0  0  0  0  0
  1  7  1  0  0  0  0
  2  1  1  0  0  0  0
  2  8  1  0  0  0  0
  3  2  2  0  0  0  0
  4  5  2  0  0  0  0
  4  3  1  0  0  0  0
  5  6  1  0  0  0  0
  6  1  2  0  0  0  0
  9  5  1  0  0  0  0
  9 10  1  0  0  0  0
 11 10  2  0  0  0  0
 12 13  2  0  0  0  0
 12 11  1  0  0  0  0
 13  9  1  0  0  0  0
 14 16  1  0  0  0  0
 14  3  1  0  0  0  0
 14 17  1  0  0  0  0
 15 14  1  0  0  0  0
M  END
>  <minimizedAffinity>
-4.07676411

>  <minimizedRMSD>
3.12540722

$$$$
