
 OpenBabel03242509313D

 17 18  0  0  0  0  0  0  0  0999 V2000
   37.5720   28.7880   43.5720 C   0  0  0  0  0  0  0  0  0  0  0  0
   37.6150   27.3640   43.5210 C   0  0  0  0  0  0  0  0  0  0  0  0
   37.5060   26.7780   42.2530 C   0  0  0  0  0  0  0  0  0  0  0  0
   37.3680   27.5840   41.1550 N   0  0  0  0  0  0  0  0  0  0  0  0
   37.3320   28.9260   41.2550 C   0  0  0  0  0  0  0  0  0  0  0  0
   37.4360   29.5110   42.4640 N   0  0  0  0  0  0  0  0  0  0  0  0
   37.6530   29.2500   44.5310 H   0  0  0  0  0  0  0  0  0  0  0  0
   37.7260   26.7450   44.4000 H   0  0  0  0  0  0  0  0  0  0  0  0
   37.1870   29.7350   40.0930 N   0  0  0  0  0  0  0  0  0  0  0  0
   37.7440   30.9540   39.8960 C   0  0  0  0  0  3  0  0  0  0  0  0
   37.4050   31.4570   38.6740 N   0  0  0  0  0  0  0  0  0  0  0  0
   36.6090   30.5050   38.1050 C   0  0  0  0  0  3  0  0  0  0  0  0
   36.5090   29.5070   38.9810 N   0  0  0  0  0  0  0  0  0  0  0  0
   37.5470   25.2890   42.1510 C   0  0  0  0  0  0  0  0  0  0  0  0
   37.6530   25.0080   40.8080 F   0  0  0  0  0  0  0  0  0  0  0  0
   38.6200   24.7520   42.7920 F   0  0  0  0  0  0  0  0  0  0  0  0
   36.3810   24.7090   42.6410 F   0  0  0  0  0  0  0  0  0  0  0  0
  1  7  1  0  0  0  0
  2  1  1  0  0  0  0
  2  8  1  0  0  0  0
  3  2  2  0  0  0  0
  4  5  2  0  0  0  0
  4  3  1  0  0  0  0
  5  6  1  0  0  0  0
  6  1  2  0  0  0  0
  9  5  1  0  0  0  0
 10  9  1  0  0  0  0
 11 10  2  0  0  0  0
 12 11  1  0  0  0  0
 12 13  2  0  0  0  0
 13  9  1  0  0  0  0
 14  3  1  0  0  0  0
 14 17  1  0  0  0  0
 14 16  1  0  0  0  0
 15 14  1  0  0  0  0
M  END
>  <minimizedAffinity>
-4.29985428

>  <minimizedRMSD>
1.14838433

$$$$
