
 OpenBabel03242508553D

 35 38  0  0  0  0  0  0  0  0999 V2000
   39.0020   28.6560   41.3130 C   0  0  0  0  0  0  0  0  0  0  0  0
   39.7970   29.7090   40.8670 C   0  0  0  0  0  0  0  0  0  0  0  0
   39.0000   30.5870   40.2570 N   0  0  0  0  0  0  0  0  0  0  0  0
   37.7150   30.1690   40.2750 C   0  0  0  0  0  0  0  0  0  0  0  0
   36.5950   30.7780   39.7590 C   0  0  0  0  0  0  0  0  0  0  0  0
   35.3780   30.1110   39.9230 C   0  0  0  0  0  0  0  0  0  0  0  0
   35.3270   28.8920   40.5820 C   0  0  0  0  0  0  0  0  0  0  0  0
   36.4600   28.2980   41.0920 C   0  0  0  0  0  0  0  0  0  0  0  0
   37.6880   28.9460   40.9390 C   0  0  0  0  0  0  0  0  0  0  0  0
   40.8680   29.6980   41.0480 H   0  0  0  0  0  0  0  0  0  0  0  0
   36.6780   31.7270   39.2530 H   0  0  0  0  0  0  0  0  0  0  0  0
   34.5210   30.6230   39.5040 H   0  0  0  0  0  0  0  0  0  0  0  0
   34.3660   28.4210   40.6820 H   0  0  0  0  0  0  0  0  0  0  0  0
   36.4480   27.3590   41.6030 H   0  0  0  0  0  0  0  0  0  0  0  0
   40.0900   25.2240   41.9460 C   0  0  0  0  0  0  0  0  0  0  0  0
   40.2570   25.2050   43.3580 C   0  0  0  0  0  0  0  0  0  0  0  0
   39.9880   26.3840   44.0650 C   0  0  0  0  0  0  0  0  0  0  0  0
   39.5880   27.4720   43.3730 N   0  0  0  0  0  0  0  0  0  0  0  0
   39.4370   27.4650   42.0350 C   0  0  0  0  0  0  0  0  0  0  0  0
   39.6880   26.3470   41.3250 N   0  0  0  0  0  0  0  0  0  0  0  0
   40.3070   24.2940   41.4310 H   0  0  0  0  0  0  0  0  0  0  0  0
   40.5690   24.3710   43.9350 H   0  0  0  0  0  0  0  0  0  0  0  0
   40.0810   26.4850   45.1350 H   0  0  0  0  0  0  0  0  0  0  0  0
   39.5180   31.8000   39.6790 C   0  0  0  0  0  0  0  0  0  0  0  0
   38.6860   32.3990   39.2590 H   0  0  0  0  0  0  0  0  0  0  0  0
   40.2510   31.6160   38.8590 H   0  0  0  0  0  0  0  0  0  0  0  0
   40.2240   32.6740   40.6870 C   0  0  0  0  0  0  0  0  0  0  0  0
   41.3050   32.4010   40.6360 H   0  0  0  0  0  0  0  0  0  0  0  0
   39.8520   32.4020   41.6860 H   0  0  0  0  0  0  0  0  0  0  0  0
   40.0350   34.1240   40.3740 C   0  0  0  0  0  0  0  0  0  0  0  0
   38.8130   34.7870   40.3740 C   0  0  0  0  0  0  0  0  0  0  0  0
   39.1550   36.0640   40.0340 C   0  0  0  0  0  0  0  0  0  0  0  0
   40.5140   36.1740   39.8360 C   0  0  0  0  0  0  0  0  0  0  0  0
   41.2140   36.9550   39.5660 H   0  0  0  0  0  0  0  0  0  0  0  0
   40.9990   34.9650   40.0550 O   0  0  0  0  0  0  0  0  0  0  0  0
  1 19  1  0  0  0  0
  2 10  1  0  0  0  0
  2  1  2  0  0  0  0
  3  4  1  0  0  0  0
  3  2  1  0  0  0  0
  4  9  1  0  0  0  0
  5  6  1  0  0  0  0
  5  4  2  0  0  0  0
  6  7  2  0  0  0  0
  7 13  1  0  0  0  0
  7  8  1  0  0  0  0
  8 14  1  0  0  0  0
  9  8  2  0  0  0  0
  9  1  1  0  0  0  0
 11  5  1  0  0  0  0
 12  6  1  0  0  0  0
 15 16  1  0  0  0  0
 16 22  1  0  0  0  0
 16 17  2  0  0  0  0
 17 23  1  0  0  0  0
 18 17  1  0  0  0  0
 19 18  2  0  0  0  0
 20 15  2  0  0  0  0
 20 19  1  0  0  0  0
 21 15  1  0  0  0  0
 24  3  1  0  0  0  0
 24 27  1  0  0  0  0
 25 24  1  0  0  0  0
 26 24  1  0  0  0  0
 27 29  1  0  0  0  0
 28 27  1  0  0  0  0
 30 27  1  0  0  0  0
 31 30  2  0  0  0  0
 32 31  1  0  0  0  0
 33 32  2  0  0  0  0
 33 35  1  0  0  0  0
 34 33  1  0  0  0  0
 35 30  1  0  0  0  0
M  END
>  <minimizedAffinity>
-5.48372316

>  <minimizedRMSD>
5.69045687

$$$$
