
 OpenBabel03242509313D

 17 18  0  0  0  0  0  0  0  0999 V2000
   37.7050   28.5850   43.6030 C   0  0  0  0  0  0  0  0  0  0  0  0
   38.2630   27.2820   43.7540 C   0  0  0  0  0  0  0  0  0  0  0  0
   38.4250   26.5290   42.5840 C   0  0  0  0  0  0  0  0  0  0  0  0
   38.0480   27.0720   41.3840 N   0  0  0  0  0  0  0  0  0  0  0  0
   37.5250   28.3080   41.2940 C   0  0  0  0  0  0  0  0  0  0  0  0
   37.3610   29.0500   42.4060 N   0  0  0  0  0  0  0  0  0  0  0  0
   37.5760   29.1720   44.4860 H   0  0  0  0  0  0  0  0  0  0  0  0
   38.5550   26.8720   44.7110 H   0  0  0  0  0  0  0  0  0  0  0  0
   37.1430   28.8420   40.0300 N   0  0  0  0  0  0  0  0  0  0  0  0
   37.8290   28.7120   38.8700 C   0  0  0  0  0  3  0  0  0  0  0  0
   37.1870   29.3450   37.8470 N   0  0  0  0  0  0  0  0  0  0  0  0
   36.0630   29.8810   38.4070 C   0  0  0  0  0  3  0  0  0  0  0  0
   36.0820   29.5580   39.6980 N   0  0  0  0  0  0  0  0  0  0  0  0
   39.0050   25.1590   42.6930 C   0  0  0  0  0  0  0  0  0  0  0  0
   39.8260   25.0110   41.5980 F   0  0  0  0  0  0  0  0  0  0  0  0
   39.7520   24.9970   43.8190 F   0  0  0  0  0  0  0  0  0  0  0  0
   38.0200   24.1790   42.6510 F   0  0  0  0  0  0  0  0  0  0  0  0
  1  2  1  0  0  0  0
  1  7  1  0  0  0  0
  2  8  1  0  0  0  0
  3 14  1  0  0  0  0
  3  2  2  0  0  0  0
  4  3  1  0  0  0  0
  5  4  2  0  0  0  0
  5  6  1  0  0  0  0
  6  1  2  0  0  0  0
  9  5  1  0  0  0  0
 10  9  1  0  0  0  0
 11 12  1  0  0  0  0
 11 10  2  0  0  0  0
 12 13  2  0  0  0  0
 13  9  1  0  0  0  0
 14 16  1  0  0  0  0
 15 14  1  0  0  0  0
 17 14  1  0  0  0  0
M  END
>  <minimizedAffinity>
-4.03192329

>  <minimizedRMSD>
1.61609483

$$$$
