REMARK  Name = 
REMARK  5 active torsions:
REMARK  status: ('A' for Active; 'I' for Inactive)
REMARK    1  A    between atoms: C_1  and  C_8
REMARK    2  A    between atoms: N_4  and  C_12
REMARK    3  A    between atoms: C_12  and  C_13
REMARK    4  A    between atoms: C_13  and  C_14
REMARK    5  A    between atoms: C_22  and  N_39
REMARK                            x       y       z     vdW  Elec       q    Type
REMARK                         _______ _______ _______ _____ _____    ______ ____
ROOT
ATOM      1  C   UNL     1      35.869  29.663  38.817  0.00  0.00    +0.000 A 
ATOM      2  C   UNL     1      37.103  30.151  38.444  0.00  0.00    +0.000 A 
ATOM      3  C   UNL     1      37.583  30.281  37.169  0.00  0.00    +0.000 A 
ATOM      4  C   UNL     1      36.781  29.895  36.110  0.00  0.00    +0.000 A 
ATOM      5  C   UNL     1      35.534  29.398  36.408  0.00  0.00    +0.000 A 
ATOM      6  C   UNL     1      34.785  29.026  35.315  0.00  0.00    +0.000 A 
ATOM      7  C   UNL     1      33.540  28.518  35.490  0.00  0.00    +0.000 A 
ATOM      8  C   UNL     1      33.060  28.390  36.772  0.00  0.00    +0.000 A 
ATOM      9  C   UNL     1      33.842  28.775  37.841  0.00  0.00    +0.000 A 
ATOM     10  C   UNL     1      35.097  29.288  37.711  0.00  0.00    +0.000 A 
ATOM     11  H   UNL     1      37.753  30.456  39.252  0.00  0.00    +0.000 HD
ATOM     12  H   UNL     1      38.583  30.684  37.004  0.00  0.00    +0.000 HD
ATOM     13  H   UNL     1      37.189  30.012  35.133  0.00  0.00    +0.000 HD
ATOM     14  H   UNL     1      35.165  29.128  34.306  0.00  0.00    +0.000 HD
ATOM     15  H   UNL     1      32.969  28.231  34.602  0.00  0.00    +0.000 HD
ATOM     16  H   UNL     1      32.044  27.969  36.799  0.00  0.00    +0.000 HD
ENDROOT
BRANCH   9  17
ATOM     17  N   UNL     1      33.091  28.558  39.030  0.00  0.00    +0.000 N 
ATOM     18  C   UNL     1      32.919  27.696  40.062  0.00  0.00    +0.000 A 
ATOM     19  N   UNL     1      31.915  28.034  40.883  0.00  0.00    +0.000 NA
ATOM     20  C   UNL     1      31.348  29.166  40.436  0.00  0.00    +0.000 A 
ATOM     21  C   UNL     1      30.305  29.879  40.939  0.00  0.00    +0.000 A 
ATOM     22  H   UNL     1      29.811  29.538  41.835  0.00  0.00    +0.000 HD
ATOM     23  N   UNL     1      29.965  30.992  40.250  0.00  0.00    +0.000 NA
ATOM     24  C   UNL     1      30.628  31.354  39.139  0.00  0.00    +0.000 A 
ATOM     25  N   UNL     1      31.641  30.623  38.687  0.00  0.00    +0.000 NA
ATOM     26  C   UNL     1      32.077  29.480  39.296  0.00  0.00    +0.000 A 
ENDBRANCH   9  17
BRANCH   1  27
ATOM     27  C   UNL     1      35.315  29.519  40.167  0.00  0.00    +0.000 C 
ATOM     28  H   UNL     1      34.445  30.131  40.255  0.00  0.00    +0.000 HD
ATOM     29  H   UNL     1      35.336  28.478  40.529  0.00  0.00    +0.000 HD
BRANCH  27  30
ATOM     30  C   UNL     1      36.184  30.134  41.245  0.00  0.00    +0.000 C 
ATOM     31  H   UNL     1      36.727  31.017  40.883  0.00  0.00    +0.000 HD
ATOM     32  H   UNL     1      35.552  30.534  42.093  0.00  0.00    +0.000 HD
BRANCH  30  36
ATOM     33  C   UNL     1      38.717  28.165  42.743  0.00  0.00    +0.000 A 
ATOM     34  C   UNL     1      37.628  27.329  42.875  0.00  0.00    +0.000 A 
ATOM     35  C   UNL     1      36.562  28.017  42.307  0.00  0.00    +0.000 A 
ATOM     36  N   UNL     1      37.063  29.207  41.872  0.00  0.00    +0.000 N 
ATOM     37  N   UNL     1      38.312  29.279  42.131  0.00  0.00    +0.000 NA
ATOM     38  H   UNL     1      37.662  26.345  43.339  0.00  0.00    +0.000 HD
ATOM     39  H   UNL     1      35.598  27.526  42.310  0.00  0.00    +0.000 HD
BRANCH  33  42
ATOM     40  C   UNL     1      41.638  26.535  44.391  0.00  0.00    +0.000 A 
ATOM     41  C   UNL     1      40.326  26.745  43.965  0.00  0.00    +0.000 A 
ATOM     42  C   UNL     1      40.058  27.900  43.195  0.00  0.00    +0.000 A 
ATOM     43  N   UNL     1      41.062  28.755  42.896  0.00  0.00    +0.000 NA
ATOM     44  C   UNL     1      42.332  28.491  43.346  0.00  0.00    +0.000 A 
ATOM     45  N   UNL     1      42.611  27.411  44.072  0.00  0.00    +0.000 NA
ATOM     46  H   UNL     1      41.766  25.633  44.974  0.00  0.00    +0.000 HD
ATOM     47  H   UNL     1      39.513  26.097  44.179  0.00  0.00    +0.000 HD
ATOM     48  H   UNL     1      43.106  29.207  43.081  0.00  0.00    +0.000 HD
ENDBRANCH  33  42
ENDBRANCH  30  36
ENDBRANCH  27  30
ENDBRANCH   1  27
TORSDOF 5
