
 OpenBabel03242509323D

 22 24  0  0  0  0  0  0  0  0999 V2000
   37.6020   28.7970   43.5100 C   0  0  0  0  0  0  0  0  0  0  0  0
   37.7070   27.3790   43.4950 C   0  0  0  0  0  0  0  0  0  0  0  0
   37.4970   26.7430   42.2730 C   0  0  0  0  0  0  0  0  0  0  0  0
   37.2030   27.5230   41.1630 N   0  0  0  0  0  0  0  0  0  0  0  0
   37.1180   28.8620   41.2420 C   0  0  0  0  0  0  0  0  0  0  0  0
   37.3160   29.4860   42.4060 N   0  0  0  0  0  0  0  0  0  0  0  0
   37.7550   29.3480   44.4300 H   0  0  0  0  0  0  0  0  0  0  0  0
   37.9380   26.8590   44.4020 H   0  0  0  0  0  0  0  0  0  0  0  0
   36.8060   29.3890   39.9550 N   0  0  0  0  0  0  0  0  0  0  0  0
   35.7040   29.2180   39.2000 C   0  0  0  0  0  3  0  0  0  0  0  0
   35.8880   29.9240   38.0630 N   0  0  0  0  0  0  0  0  0  0  0  0
   37.0930   30.5250   38.1210 C   0  0  0  0  0  0  0  0  0  0  0  0
   37.7180   31.3540   37.1860 C   0  0  0  0  0  0  0  0  0  0  0  0
   37.2440   31.6090   36.2490 H   0  0  0  0  0  0  0  0  0  0  0  0
   38.9400   31.8190   37.5140 N   0  0  0  0  0  0  0  0  0  0  0  0
   39.5020   31.4730   38.7040 C   0  0  0  0  0  3  0  0  0  0  0  0
   38.9210   30.6780   39.6190 N   0  0  0  0  0  0  0  0  0  0  0  0
   37.7000   30.1920   39.3320 C   0  0  0  0  0  0  0  0  0  0  0  0
   37.5940   25.2560   42.2010 C   0  0  0  0  0  0  0  0  0  0  0  0
   37.7460   24.9500   40.8660 F   0  0  0  0  0  0  0  0  0  0  0  0
   38.6560   24.7720   42.8980 F   0  0  0  0  0  0  0  0  0  0  0  0
   36.4120   24.6550   42.6510 F   0  0  0  0  0  0  0  0  0  0  0  0
  1  7  1  0  0  0  0
  2  1  1  0  0  0  0
  2  8  1  0  0  0  0
  3  2  2  0  0  0  0
  4  5  2  0  0  0  0
  4  3  1  0  0  0  0
  5  6  1  0  0  0  0
  6  1  2  0  0  0  0
  9  5  1  0  0  0  0
 10  9  1  0  0  0  0
 11 12  1  0  0  0  0
 11 10  2  0  0  0  0
 12 18  1  0  0  0  0
 13 15  1  0  0  0  0
 13 12  2  0  0  0  0
 14 13  1  0  0  0  0
 15 16  2  0  0  0  0
 16 17  1  0  0  0  0
 18 17  2  0  0  0  0
 18  9  1  0  0  0  0
 19  3  1  0  0  0  0
 19 22  1  0  0  0  0
 19 21  1  0  0  0  0
 20 19  1  0  0  0  0
M  END
>  <minimizedAffinity>
-5.21847391

>  <minimizedRMSD>
1.17453742

$$$$
