
 OpenBabel03242509323D

 22 24  0  0  0  0  0  0  0  0999 V2000
   38.1400   28.5380   43.6620 C   0  0  0  0  0  0  0  0  0  0  0  0
   38.4890   27.1600   43.6210 C   0  0  0  0  0  0  0  0  0  0  0  0
   38.0680   26.4360   42.5080 C   0  0  0  0  0  0  0  0  0  0  0  0
   37.3440   27.0960   41.5240 N   0  0  0  0  0  0  0  0  0  0  0  0
   37.0460   28.4020   41.6210 C   0  0  0  0  0  0  0  0  0  0  0  0
   37.4420   29.1100   42.6820 N   0  0  0  0  0  0  0  0  0  0  0  0
   38.4390   29.1540   44.5020 H   0  0  0  0  0  0  0  0  0  0  0  0
   39.0500   26.7350   44.4270 H   0  0  0  0  0  0  0  0  0  0  0  0
   36.3020   28.8010   40.4730 N   0  0  0  0  0  0  0  0  0  0  0  0
   34.9690   28.8720   40.2930 C   0  0  0  0  0  3  0  0  0  0  0  0
   34.7590   29.3060   39.0320 N   0  0  0  0  0  0  0  0  0  0  0  0
   35.9560   29.5000   38.4420 C   0  0  0  0  0  0  0  0  0  0  0  0
   36.2480   29.9410   37.1480 C   0  0  0  0  0  0  0  0  0  0  0  0
   35.4640   30.1890   36.4440 H   0  0  0  0  0  0  0  0  0  0  0  0
   37.5510   30.0430   36.8250 N   0  0  0  0  0  0  0  0  0  0  0  0
   38.5060   29.7230   37.7390 C   0  0  0  0  0  3  0  0  0  0  0  0
   38.2510   29.2970   38.9880 N   0  0  0  0  0  0  0  0  0  0  0  0
   36.9620   29.1800   39.3530 C   0  0  0  0  0  0  0  0  0  0  0  0
   38.4060   24.9860   42.4130 C   0  0  0  0  0  0  0  0  0  0  0  0
   38.9530   24.8040   41.1620 F   0  0  0  0  0  0  0  0  0  0  0  0
   39.3050   24.6010   43.3580 F   0  0  0  0  0  0  0  0  0  0  0  0
   37.2530   24.1960   42.5000 F   0  0  0  0  0  0  0  0  0  0  0  0
  1  7  1  0  0  0  0
  2  1  1  0  0  0  0
  2  8  1  0  0  0  0
  3  2  2  0  0  0  0
  4  5  2  0  0  0  0
  4  3  1  0  0  0  0
  5  6  1  0  0  0  0
  6  1  2  0  0  0  0
  9  5  1  0  0  0  0
 10  9  1  0  0  0  0
 11 10  2  0  0  0  0
 12 11  1  0  0  0  0
 12 18  1  0  0  0  0
 13 12  2  0  0  0  0
 14 13  1  0  0  0  0
 15 13  1  0  0  0  0
 15 16  2  0  0  0  0
 16 17  1  0  0  0  0
 17 18  2  0  0  0  0
 18  9  1  0  0  0  0
 19 22  1  0  0  0  0
 19  3  1  0  0  0  0
 19 21  1  0  0  0  0
 20 19  1  0  0  0  0
M  END
>  <minimizedAffinity>
-4.77888155

>  <minimizedRMSD>
0.845629871

$$$$
