
     RDKit          3D

 24 26  0  0  0  0  0  0  0  0999 V2000
   37.9685   28.8817   43.3621 C   0  0  0  0  0  0  0  0  0  0  0  0
   38.0919   27.4663   43.3074 C   0  0  0  0  0  0  0  0  0  0  0  0
   37.4448   26.8161   42.2583 C   0  0  0  0  0  0  0  0  0  0  0  0
   36.7307   27.5807   41.3458 N   0  0  0  0  0  0  0  0  0  0  0  0
   36.6520   28.9176   41.4524 C   0  0  0  0  0  0  0  0  0  0  0  0
   37.2664   29.5561   42.4521 N   0  0  0  0  0  0  0  0  0  0  0  0
   37.5409   25.3311   42.1525 C   0  0  0  0  0  0  0  0  0  0  0  0
   37.6493   25.0516   40.8078 F   0  0  0  0  0  0  0  0  0  0  0  0
   38.6261   24.8348   42.8049 F   0  0  0  0  0  0  0  0  0  0  0  0
   36.3754   24.7190   42.6296 F   0  0  0  0  0  0  0  0  0  0  0  0
   38.4491   29.4434   44.1545 H   0  0  0  0  0  0  0  0  0  0  0  0
   38.6642   26.9593   44.0564 H   0  0  0  0  0  0  0  0  0  0  0  0
   35.8586   29.4284   40.3825 N   0  0  0  0  0  0  0  0  0  0  0  0
   34.5420   29.7068   40.3465 C   0  0  0  0  0  0  0  0  0  0  0  0
   34.2674   30.1681   39.1070 N   0  0  0  0  0  0  0  0  0  0  0  0
   35.4084   30.1722   38.3886 C   0  0  0  0  0  0  0  0  0  0  0  0
   35.6225   30.5624   37.0638 C   0  0  0  0  0  0  0  0  0  0  0  0
   34.8161   30.9287   36.4435 H   0  0  0  0  0  0  0  0  0  0  0  0
   36.8841   30.4581   36.6017 N   0  0  0  0  0  0  0  0  0  0  0  0
   37.8699   29.9926   37.4142 C   0  0  0  0  0  0  0  0  0  0  0  0
   37.6894   29.6116   38.6900 N   0  0  0  0  0  0  0  0  0  0  0  0
   36.4449   29.6989   39.1931 C   0  0  0  0  0  0  0  0  0  0  0  0
   33.8642   29.5692   41.1863 H   0  0  0  0  0  0  0  0  0  0  0  0
   38.8963   29.9015   37.0574 H   0  0  0  0  0  0  0  0  0  0  0  0
  2  1  2  0
  3  2  1  0
  4  5  1  0
  4  3  2  0
  5  6  2  0
  6  1  1  0
  7  3  1  0
  7 10  1  0
  7  9  1  0
  8  7  1  0
  1 11  1  0
  2 12  1  0
 13 14  1  0
 14 15  2  0
 15 16  1  0
 16 17  2  0
 17 18  1  0
 17 19  1  0
 19 20  2  0
 20 21  1  0
 21 22  2  0
 22 13  1  0
 22 16  1  0
 14 23  1  0
 20 24  1  0
  5 13  1  0
M  ISO  3  11  14  12  14  18  14
M  END
>  <DihAtoms>  (1) 
3,4,12,13

>  <DihDeg>  (1) 
-70.99136870002287

$$$$
