
 OpenBabel03242509263D

 49 54  0  0  0  0  0  0  0  0999 V2000
   38.8720   28.1790   42.8030 C   0  0  0  0  0  0  0  0  0  0  0  0
   37.7090   27.5060   43.0770 C   0  0  0  0  0  0  0  0  0  0  0  0
   36.6740   28.2650   42.5280 C   0  0  0  0  0  0  0  0  0  0  0  0
   37.2870   29.3170   41.9750 N   0  0  0  0  0  0  0  0  0  0  0  0
   38.5730   29.3020   42.1160 N   0  0  0  0  0  0  0  0  0  0  0  0
   37.6860   26.5700   43.6220 H   0  0  0  0  0  0  0  0  0  0  0  0
   35.6640   27.9200   42.6260 H   0  0  0  0  0  0  0  0  0  0  0  0
   41.7110   26.3120   44.3420 C   0  0  0  0  0  0  0  0  0  0  0  0
   40.3990   26.6630   43.9990 C   0  0  0  0  0  0  0  0  0  0  0  0
   40.2170   27.7810   43.1750 C   0  0  0  0  0  0  0  0  0  0  0  0
   41.2890   28.4760   42.7420 N   0  0  0  0  0  0  0  0  0  0  0  0
   42.5490   28.1040   43.0960 C   0  0  0  0  0  0  0  0  0  0  0  0
   42.7520   27.0310   43.8890 N   0  0  0  0  0  0  0  0  0  0  0  0
   41.9420   25.4660   44.9720 H   0  0  0  0  0  0  0  0  0  0  0  0
   39.5690   26.0630   44.3780 H   0  0  0  0  0  0  0  0  0  0  0  0
   43.5470   28.9590   42.5420 N   0  0  0  0  0  0  0  0  0  0  0  0
   44.2160   28.6390   41.4040 C   0  0  0  0  0  3  0  0  0  0  0  0
   45.1240   29.5880   41.0490 N   0  0  0  0  0  0  0  0  0  0  0  0
   45.0180   30.5460   42.0060 C   0  0  0  0  0  0  0  0  0  0  0  0
   45.6080   31.7640   42.2880 C   0  0  0  0  0  0  0  0  0  0  0  0
   46.3780   32.1170   41.5980 H   0  0  0  0  0  0  0  0  0  0  0  0
   45.2670   32.4950   43.3540 N   0  0  0  0  0  0  0  0  0  0  0  0
   44.3160   32.0750   44.2220 C   0  0  0  0  0  3  0  0  0  0  0  0
   43.6970   30.8830   43.9970 N   0  0  0  0  0  0  0  0  0  0  0  0
   44.0540   30.1520   42.9110 C   0  0  0  0  0  0  0  0  0  0  0  0
   36.5070   30.3110   41.3200 C   0  0  0  0  0  0  0  0  0  0  0  0
   37.1620   31.0420   40.8020 H   0  0  0  0  0  0  0  0  0  0  0  0
   36.0060   30.8960   42.1450 H   0  0  0  0  0  0  0  0  0  0  0  0
   35.5040   29.8010   40.3340 C   0  0  0  0  0  0  0  0  0  0  0  0
   34.8630   30.7440   40.2430 H   0  0  0  0  0  0  0  0  0  0  0  0
   34.9810   28.9510   40.7530 H   0  0  0  0  0  0  0  0  0  0  0  0
   36.0170   29.6450   38.9590 C   0  0  0  0  0  0  0  0  0  0  0  0
   37.3060   29.8060   38.5250 C   0  0  0  0  0  0  0  0  0  0  0  0
   37.7320   29.7150   37.2300 C   0  0  0  0  0  0  0  0  0  0  0  0
   36.8180   29.4390   36.2360 C   0  0  0  0  0  0  0  0  0  0  0  0
   35.4920   29.2630   36.6090 C   0  0  0  0  0  0  0  0  0  0  0  0
   34.6360   28.9920   35.5650 C   0  0  0  0  0  0  0  0  0  0  0  0
   33.3210   28.8020   35.8380 C   0  0  0  0  0  0  0  0  0  0  0  0
   32.8590   28.8800   37.1300 C   0  0  0  0  0  0  0  0  0  0  0  0
   33.7700   29.1530   38.1200 C   0  0  0  0  0  0  0  0  0  0  0  0
   35.0970   29.3610   37.9320 C   0  0  0  0  0  0  0  0  0  0  0  0
   38.0360   30.0240   39.2960 H   0  0  0  0  0  0  0  0  0  0  0  0
   38.7820   29.8640   37.0200 H   0  0  0  0  0  0  0  0  0  0  0  0
   37.1680   29.3710   35.2150 H   0  0  0  0  0  0  0  0  0  0  0  0
   34.9610   28.9220   34.5430 H   0  0  0  0  0  0  0  0  0  0  0  0
   32.6190   28.5860   35.0250 H   0  0  0  0  0  0  0  0  0  0  0  0
   31.8100   28.7260   37.3350 H   0  0  0  0  0  0  0  0  0  0  0  0
   33.2500   29.2060   39.4070 O   0  0  0  0  0  0  0  0  0  0  0  0
   32.7420   28.4840   39.8710 H   0  0  0  0  0  0  0  0  0  0  0  0
  1  2  1  0  0  0  0
  1 10  1  0  0  0  0
  2  6  1  0  0  0  0
  3  7  1  0  0  0  0
  3  2  2  0  0  0  0
  4  5  1  0  0  0  0
  4  3  1  0  0  0  0
  5  1  2  0  0  0  0
  8 14  1  0  0  0  0
  9  8  1  0  0  0  0
  9 15  1  0  0  0  0
 10  9  2  0  0  0  0
 11 12  2  0  0  0  0
 11 10  1  0  0  0  0
 12 13  1  0  0  0  0
 13  8  2  0  0  0  0
 16 25  1  0  0  0  0
 16 12  1  0  0  0  0
 17 16  1  0  0  0  0
 18 17  2  0  0  0  0
 18 19  1  0  0  0  0
 19 20  2  0  0  0  0
 19 25  1  0  0  0  0
 20 22  1  0  0  0  0
 21 20  1  0  0  0  0
 22 23  2  0  0  0  0
 24 23  1  0  0  0  0
 25 24  2  0  0  0  0
 26  4  1  0  0  0  0
 26 28  1  0  0  0  0
 27 26  1  0  0  0  0
 29 31  1  0  0  0  0
 29 26  1  0  0  0  0
 30 29  1  0  0  0  0
 32 29  1  0  0  0  0
 33 32  1  0  0  0  0
 33 42  1  0  0  0  0
 34 33  2  0  0  0  0
 35 36  2  0  0  0  0
 35 34  1  0  0  0  0
 36 41  1  0  0  0  0
 37 38  2  0  0  0  0
 37 36  1  0  0  0  0
 38 39  1  0  0  0  0
 39 47  1  0  0  0  0
 39 40  2  0  0  0  0
 40 48  1  0  0  0  0
 41 40  1  0  0  0  0
 41 32  2  0  0  0  0
 43 34  1  0  0  0  0
 44 35  1  0  0  0  0
 45 37  1  0  0  0  0
 46 38  1  0  0  0  0
 48 49  1  0  0  0  0
M  END
>  <minimizedAffinity>
-6.32381153

>  <minimizedRMSD>
0.640259027

$$$$
