
     RDKit          3D

 24 26  0  0  0  0  0  0  0  0999 V2000
   37.9685   28.8817   43.3621 C   0  0  0  0  0  0  0  0  0  0  0  0
   38.0919   27.4663   43.3074 C   0  0  0  0  0  0  0  0  0  0  0  0
   37.4448   26.8161   42.2583 C   0  0  0  0  0  0  0  0  0  0  0  0
   36.7307   27.5807   41.3458 N   0  0  0  0  0  0  0  0  0  0  0  0
   36.6520   28.9176   41.4524 C   0  0  0  0  0  0  0  0  0  0  0  0
   37.2664   29.5561   42.4521 N   0  0  0  0  0  0  0  0  0  0  0  0
   37.5409   25.3311   42.1525 C   0  0  0  0  0  0  0  0  0  0  0  0
   37.6493   25.0516   40.8078 F   0  0  0  0  0  0  0  0  0  0  0  0
   38.6261   24.8348   42.8049 F   0  0  0  0  0  0  0  0  0  0  0  0
   36.3754   24.7190   42.6296 F   0  0  0  0  0  0  0  0  0  0  0  0
   38.4491   29.4434   44.1545 H   0  0  0  0  0  0  0  0  0  0  0  0
   38.6642   26.9593   44.0564 H   0  0  0  0  0  0  0  0  0  0  0  0
   35.8586   29.4284   40.3825 N   0  0  0  0  0  0  0  0  0  0  0  0
   34.7523   30.1944   40.4233 C   0  0  0  0  0  0  0  0  0  0  0  0
   34.3726   30.4121   39.1454 N   0  0  0  0  0  0  0  0  0  0  0  0
   35.2407   29.7834   38.3273 C   0  0  0  0  0  0  0  0  0  0  0  0
   35.2597   29.7214   36.9313 C   0  0  0  0  0  0  0  0  0  0  0  0
   34.5098   30.2186   36.3316 H   0  0  0  0  0  0  0  0  0  0  0  0
   36.2597   29.0106   36.3736 N   0  0  0  0  0  0  0  0  0  0  0  0
   37.1830   28.4002   37.1633 C   0  0  0  0  0  0  0  0  0  0  0  0
   37.1862   28.4450   38.5062 N   0  0  0  0  0  0  0  0  0  0  0  0
   36.2055   29.1438   39.1057 C   0  0  0  0  0  0  0  0  0  0  0  0
   34.2866   30.5484   41.3406 H   0  0  0  0  0  0  0  0  0  0  0  0
   37.9989   27.8210   36.7297 H   0  0  0  0  0  0  0  0  0  0  0  0
  2  1  2  0
  3  2  1  0
  4  5  1  0
  4  3  2  0
  5  6  2  0
  6  1  1  0
  7  3  1  0
  7 10  1  0
  7  9  1  0
  8  7  1  0
  1 11  1  0
  2 12  1  0
 13 14  1  0
 14 15  2  0
 15 16  1  0
 16 17  2  0
 17 18  1  0
 17 19  1  0
 19 20  2  0
 20 21  1  0
 21 22  2  0
 22 13  1  0
 22 16  1  0
 14 23  1  0
 20 24  1  0
  5 13  1  0
M  ISO  3  11  14  12  14  18  14
M  END
>  <DihAtoms>  (1) 
3,4,12,13

>  <DihDeg>  (1) 
-70.99136870002287

$$$$
