
 OpenBabel03242506393D

 43 47  0  0  1  0  0  0  0  0999 V2000
   38.4730   30.5820   38.1700 C   0  0  0  0  0  0  0  0  0  0  0  0
   38.0980   31.1190   37.0900 O   0  0  0  0  0  0  0  0  0  0  0  0
   39.8370   30.4000   38.5210 N   0  0  0  0  0  0  0  0  0  0  0  0
   40.9010   29.9030   37.6610 C   0  0  0  0  0  0  0  0  0  0  0  0
   41.5430   28.7740   38.4870 C   0  0  0  0  0  0  0  0  0  0  0  0
   42.2650   29.3760   39.5720 N   0  0  0  0  0  0  0  0  0  0  0  0
   41.5900   30.4130   40.2700 C   0  0  0  0  0  0  0  0  0  0  0  0
   40.2090   30.7420   39.8660 C   0  0  1  0  0  0  0  0  0  0  0  0
   41.6690   30.6720   37.5080 H   0  0  0  0  0  0  0  0  0  0  0  0
   40.4980   29.4940   36.6960 H   0  0  0  0  0  0  0  0  0  0  0  0
   40.7960   28.0280   38.8090 H   0  0  0  0  0  0  0  0  0  0  0  0
   42.2680   28.2950   37.7850 H   0  0  0  0  0  0  0  0  0  0  0  0
   42.5880   28.5990   40.2160 H   0  0  0  0  0  0  0  0  0  0  0  0
   42.1990   31.3370   40.1750 H   0  0  0  0  0  0  0  0  0  0  0  0
   41.6200   30.1730   41.3590 H   0  0  0  0  0  0  0  0  0  0  0  0
   39.5330   30.1030   40.5090 H   0  0  0  0  0  0  0  0  0  0  0  0
   39.8800   32.1200   40.1790 N   0  0  0  0  0  0  0  0  0  0  0  0
   38.9340   32.5880   41.0320 C   0  0  0  0  0  0  0  0  0  0  0  0
   38.9040   33.9210   41.0770 N   0  0  0  0  0  0  0  0  0  0  0  0
   39.8530   34.3370   40.2350 C   0  0  0  0  0  0  0  0  0  0  0  0
   40.3580   35.5490   39.8000 C   0  0  0  0  0  0  0  0  0  0  0  0
   39.9190   36.4650   40.2060 H   0  0  0  0  0  0  0  0  0  0  0  0
   41.3700   35.6450   38.8970 N   0  0  0  0  0  0  0  0  0  0  0  0
   41.9110   34.5200   38.3980 C   0  0  0  0  0  0  0  0  0  0  0  0
   41.4680   33.3070   38.7760 N   0  0  0  0  0  0  0  0  0  0  0  0
   40.4660   33.2360   39.6710 C   0  0  0  0  0  0  0  0  0  0  0  0
   37.0610   28.2830   40.6130 C   0  0  0  0  0  0  0  0  0  0  0  0
   35.9630   28.9240   41.1040 C   0  0  0  0  0  0  0  0  0  0  0  0
   35.6880   30.1730   40.5960 C   0  0  0  0  0  0  0  0  0  0  0  0
   36.4510   30.7680   39.6520 N   0  0  0  0  0  0  0  0  0  0  0  0
   37.5400   30.0830   39.1920 C   0  0  0  0  0  0  0  0  0  0  0  0
   37.8230   28.8580   39.6820 N   0  0  0  0  0  0  0  0  0  0  0  0
   35.3430   28.4610   41.8600 H   0  0  0  0  0  0  0  0  0  0  0  0
   34.8150   30.7160   40.9680 H   0  0  0  0  0  0  0  0  0  0  0  0
   38.6880   25.6090   42.5490 C   0  0  0  0  0  0  0  0  0  0  0  0
   38.0860   24.4480   42.0110 C   0  0  0  0  0  0  0  0  0  0  0  0
   37.1560   24.6070   41.0180 C   0  0  0  0  0  0  0  0  0  0  0  0
   36.8390   25.8650   40.5810 N   0  0  0  0  0  0  0  0  0  0  0  0
   37.4180   26.9590   41.1000 C   0  0  0  0  0  0  0  0  0  0  0  0
   38.3380   26.8250   42.0780 N   0  0  0  0  0  0  0  0  0  0  0  0
   39.4310   25.5010   43.3380 H   0  0  0  0  0  0  0  0  0  0  0  0
   38.3900   23.5070   42.4090 H   0  0  0  0  0  0  0  0  0  0  0  0
   36.6820   23.7320   40.5920 H   0  0  0  0  0  0  0  0  0  0  0  0
  1  3  1  0  0  0  0
  1 31  1  0  0  0  0
  2  1  2  0  0  0  0
  3  8  1  0  0  0  0
  4  5  1  0  0  0  0
  4  3  1  0  0  0  0
  5 11  1  0  0  0  0
  5  6  1  0  0  0  0
  6 13  1  0  0  0  0
  6  7  1  0  0  0  0
  7 15  1  0  0  0  0
  8 17  1  0  0  0  0
  8  7  1  0  0  0  0
  8 16  1  1  0  0  0
  9  4  1  0  0  0  0
 10  4  1  0  0  0  0
 12  5  1  0  0  0  0
 14  7  1  0  0  0  0
 17 18  1  0  0  0  0
 18 19  2  0  0  0  0
 20 19  1  0  0  0  0
 21 22  1  0  0  0  0
 21 20  1  0  0  0  0
 23 21  2  0  0  0  0
 24 25  2  0  0  0  0
 24 23  1  0  0  0  0
 25 26  1  0  0  0  0
 26 17  1  0  0  0  0
 26 20  2  0  0  0  0
 27 39  1  0  0  0  0
 27 28  1  0  0  0  0
 28 33  1  0  0  0  0
 29 34  1  0  0  0  0
 29 28  2  0  0  0  0
 30 29  1  0  0  0  0
 31 30  2  0  0  0  0
 31 32  1  0  0  0  0
 32 27  2  0  0  0  0
 35 41  1  0  0  0  0
 36 42  1  0  0  0  0
 36 35  2  0  0  0  0
 37 36  1  0  0  0  0
 38 37  2  0  0  0  0
 38 39  1  0  0  0  0
 39 40  2  0  0  0  0
 40 35  1  0  0  0  0
 43 37  1  0  0  0  0
M  END
>  <minimizedAffinity>
-6.00185823

>  <minimizedRMSD>
3.75861764

$$$$
