
 OpenBabel03242509323D

 22 24  0  0  0  0  0  0  0  0999 V2000
   37.0780   27.4680   43.4190 C   0  0  0  0  0  0  0  0  0  0  0  0
   38.4320   27.1490   43.7180 C   0  0  0  0  0  0  0  0  0  0  0  0
   39.4140   27.9200   43.0970 C   0  0  0  0  0  0  0  0  0  0  0  0
   39.0130   28.9350   42.2390 N   0  0  0  0  0  0  0  0  0  0  0  0
   37.7160   29.1870   41.9980 C   0  0  0  0  0  0  0  0  0  0  0  0
   36.7630   28.4580   42.5850 N   0  0  0  0  0  0  0  0  0  0  0  0
   36.2710   26.9050   43.8710 H   0  0  0  0  0  0  0  0  0  0  0  0
   38.6470   26.3470   44.3930 H   0  0  0  0  0  0  0  0  0  0  0  0
   37.6110   30.2770   41.0850 N   0  0  0  0  0  0  0  0  0  0  0  0
   36.5640   31.0830   40.8260 C   0  0  0  0  0  3  0  0  0  0  0  0
   36.9640   31.9620   39.8810 N   0  0  0  0  0  0  0  0  0  0  0  0
   38.2470   31.6960   39.5640 C   0  0  0  0  0  0  0  0  0  0  0  0
   39.0840   32.3320   38.6430 C   0  0  0  0  0  0  0  0  0  0  0  0
   38.7430   33.1720   38.0530 H   0  0  0  0  0  0  0  0  0  0  0  0
   40.3360   31.8460   38.5320 N   0  0  0  0  0  0  0  0  0  0  0  0
   40.7260   30.7890   39.2930 C   0  0  0  0  0  3  0  0  0  0  0  0
   39.9410   30.1610   40.1830 N   0  0  0  0  0  0  0  0  0  0  0  0
   38.6820   30.6130   40.3280 C   0  0  0  0  0  0  0  0  0  0  0  0
   40.8500   27.6280   43.3740 C   0  0  0  0  0  0  0  0  0  0  0  0
   41.5000   28.8420   43.3270 F   0  0  0  0  0  0  0  0  0  0  0  0
   41.0370   27.0640   44.5970 F   0  0  0  0  0  0  0  0  0  0  0  0
   41.3950   26.8060   42.3800 F   0  0  0  0  0  0  0  0  0  0  0  0
  1  2  1  0  0  0  0
  1  7  1  0  0  0  0
  2  8  1  0  0  0  0
  3 19  1  0  0  0  0
  3  2  2  0  0  0  0
  4  3  1  0  0  0  0
  5  4  2  0  0  0  0
  5  6  1  0  0  0  0
  6  1  2  0  0  0  0
  9  5  1  0  0  0  0
 10  9  1  0  0  0  0
 11 10  2  0  0  0  0
 12 11  1  0  0  0  0
 12 18  1  0  0  0  0
 13 12  2  0  0  0  0
 14 13  1  0  0  0  0
 15 13  1  0  0  0  0
 15 16  2  0  0  0  0
 16 17  1  0  0  0  0
 17 18  2  0  0  0  0
 18  9  1  0  0  0  0
 19 21  1  0  0  0  0
 20 19  1  0  0  0  0
 22 19  1  0  0  0  0
M  END
>  <minimizedAffinity>
-4.85817146

>  <minimizedRMSD>
4.47935772

$$$$
