
     RDKit          3D

 51 56  0  0  0  0  0  0  0  0999 V2000
   35.2829   29.4973   40.0763 C   0  0  0  0  0  0  0  0  0  0  0  0
   35.8864   29.4371   38.7304 C   0  0  0  0  0  0  0  0  0  0  0  0
   37.2036   29.6054   38.3974 C   0  0  0  0  0  0  0  0  0  0  0  0
   37.7156   29.6061   37.1299 C   0  0  0  0  0  0  0  0  0  0  0  0
   36.8673   29.4252   36.0586 C   0  0  0  0  0  0  0  0  0  0  0  0
   35.5170   29.2469   36.3283 C   0  0  0  0  0  0  0  0  0  0  0  0
   34.7295   29.0730   35.2112 C   0  0  0  0  0  0  0  0  0  0  0  0
   33.3965   28.8892   35.3796 C   0  0  0  0  0  0  0  0  0  0  0  0
   32.8489   28.8758   36.6405 C   0  0  0  0  0  0  0  0  0  0  0  0
   33.6951   29.0552   37.7083 C   0  0  0  0  0  0  0  0  0  0  0  0
   35.0337   29.2496   37.6253 C   0  0  0  0  0  0  0  0  0  0  0  0
   33.0886   29.0186   38.9569 O   0  0  0  0  0  0  0  0  0  0  0  0
   36.1701   30.0771   41.1317 C   0  0  0  0  0  0  0  0  0  0  0  0
   38.6524   28.1607   42.7157 C   0  0  0  0  0  0  0  0  0  0  0  0
   37.5595   27.3481   42.8716 C   0  0  0  0  0  0  0  0  0  0  0  0
   36.4855   28.0093   42.2710 C   0  0  0  0  0  0  0  0  0  0  0  0
   37.0110   29.1492   41.8093 N   0  0  0  0  0  0  0  0  0  0  0  0
   38.2748   29.2743   42.0495 N   0  0  0  0  0  0  0  0  0  0  0  0
   41.5743   26.5429   44.3770 C   0  0  0  0  0  0  0  0  0  0  0  0
   40.2592   26.7580   43.9436 C   0  0  0  0  0  0  0  0  0  0  0  0
   40.0029   27.9025   43.1779 C   0  0  0  0  0  0  0  0  0  0  0  0
   41.0095   28.7501   42.8839 N   0  0  0  0  0  0  0  0  0  0  0  0
   42.2748   28.5081   43.3224 C   0  0  0  0  0  0  0  0  0  0  0  0
   42.5480   27.4133   44.0615 N   0  0  0  0  0  0  0  0  0  0  0  0
   34.5526   30.3709   39.9710 H   0  0  0  0  0  0  0  0  0  0  0  0
   34.8295   28.5853   40.4419 H   0  0  0  0  0  0  0  0  0  0  0  0
   37.8831   29.7494   39.2298 H   0  0  0  0  0  0  0  0  0  0  0  0
   38.7786   29.7495   37.0026 H   0  0  0  0  0  0  0  0  0  0  0  0
   37.2845   29.4294   35.0613 H   0  0  0  0  0  0  0  0  0  0  0  0
   35.1216   29.0759   34.2112 H   0  0  0  0  0  0  0  0  0  0  0  0
   32.7491   28.7504   34.5083 H   0  0  0  0  0  0  0  0  0  0  0  0
   31.7870   28.7276   36.7625 H   0  0  0  0  0  0  0  0  0  0  0  0
   32.5413   28.2731   39.3294 H   0  0  0  0  0  0  0  0  0  0  0  0
   36.7748   30.8862   40.6710 H   0  0  0  0  0  0  0  0  0  0  0  0
   35.5646   30.5833   41.9393 H   0  0  0  0  0  0  0  0  0  0  0  0
   37.6053   26.3914   43.3766 H   0  0  0  0  0  0  0  0  0  0  0  0
   35.5187   27.5475   42.2761 H   0  0  0  0  0  0  0  0  0  0  0  0
   41.8591   25.6879   44.9705 H   0  0  0  0  0  0  0  0  0  0  0  0
   39.4836   26.0364   44.2122 H   0  0  0  0  0  0  0  0  0  0  0  0
   43.1981   29.5150   42.9108 N   0  0  0  0  0  0  0  0  0  0  0  0
   44.5354   29.3875   43.1109 C   0  0  0  0  0  0  0  0  0  0  0  0
   45.2359   30.4577   42.6449 N   0  0  0  0  0  0  0  0  0  0  0  0
   44.2946   31.2917   42.1302 C   0  0  0  0  0  0  0  0  0  0  0  0
   44.2684   32.5256   41.5080 C   0  0  0  0  0  0  0  0  0  0  0  0
   45.2261   33.0274   41.3536 H   0  0  0  0  0  0  0  0  0  0  0  0
   43.1298   33.0997   41.1039 N   0  0  0  0  0  0  0  0  0  0  0  0
   41.9326   32.4947   41.2859 C   0  0  0  0  0  0  0  0  0  0  0  0
   41.8935   31.2769   41.8933 N   0  0  0  0  0  0  0  0  0  0  0  0
   43.0562   30.7059   42.2984 C   0  0  0  0  0  0  0  0  0  0  0  0
   45.0701   28.5689   43.5763 H   0  0  0  0  0  0  0  0  0  0  0  0
   41.0525   33.0085   40.9383 H   0  0  0  0  0  0  0  0  0  0  0  0
  1 13  1  0
  2  1  1  0
  3  2  2  0
  4  3  1  0
  5  6  1  0
  5  4  2  0
  6 11  2  0
  7  8  2  0
  7  6  1  0
  8  9  1  0
  9 10  2  0
 10 12  1  0
 11 10  1  0
 11  2  1  0
 13 17  1  0
 14 15  1  0
 14 21  1  0
 16 15  2  0
 17 18  1  0
 17 16  1  0
 18 14  2  0
 20 19  2  0
 21 20  1  0
 22 21  2  0
 22 23  1  0
 23 24  2  0
 24 19  1  0
  1 25  1  0
  1 26  1  0
  3 27  1  0
  4 28  1  0
  5 29  1  0
  7 30  1  0
  8 31  1  0
  9 32  1  0
 12 33  1  0
 13 34  1  0
 13 35  1  0
 15 36  1  0
 16 37  1  0
 19 38  1  0
 20 39  1  0
 40 41  1  0
 41 42  2  0
 42 43  1  0
 43 44  2  0
 44 45  1  0
 44 46  1  0
 46 47  2  0
 47 48  1  0
 48 49  2  0
 49 40  1  0
 49 43  1  0
 41 50  1  0
 47 51  1  0
 23 40  1  0
M  ISO  8  25   8  26   8  27  14  28  14  29  14  30  14  31  14  32  14
M  ISO  8  33   3  34   8  35   8  36  14  37  14  38  14  39  14  45  14
M  END
>  <DihAtoms>  (1) 
21,22,39,40

>  <DihDeg>  (1) 
-112.33828605580429

$$$$
