
 OpenBabel03242509273D

 49 54  0  0  0  0  0  0  0  0999 V2000
   38.6260   28.1640   42.6950 C   0  0  0  0  0  0  0  0  0  0  0  0
   37.5550   27.3200   42.8410 C   0  0  0  0  0  0  0  0  0  0  0  0
   36.4670   27.9580   42.2430 C   0  0  0  0  0  0  0  0  0  0  0  0
   36.9620   29.1150   41.7920 N   0  0  0  0  0  0  0  0  0  0  0  0
   38.2210   29.2730   42.0380 N   0  0  0  0  0  0  0  0  0  0  0  0
   37.6260   26.3610   43.3370 H   0  0  0  0  0  0  0  0  0  0  0  0
   35.5120   27.4690   42.2410 H   0  0  0  0  0  0  0  0  0  0  0  0
   41.5850   26.6160   44.3570 C   0  0  0  0  0  0  0  0  0  0  0  0
   40.2660   26.7990   43.9230 C   0  0  0  0  0  0  0  0  0  0  0  0
   39.9830   27.9380   43.1590 C   0  0  0  0  0  0  0  0  0  0  0  0
   40.9690   28.8120   42.8680 N   0  0  0  0  0  0  0  0  0  0  0  0
   42.2390   28.6000   43.3080 C   0  0  0  0  0  0  0  0  0  0  0  0
   42.5380   27.5100   44.0460 N   0  0  0  0  0  0  0  0  0  0  0  0
   41.8900   25.7670   44.9500 H   0  0  0  0  0  0  0  0  0  0  0  0
   39.5090   26.0570   44.1880 H   0  0  0  0  0  0  0  0  0  0  0  0
   43.1370   29.6310   42.9010 N   0  0  0  0  0  0  0  0  0  0  0  0
   44.4760   29.5360   43.1030 C   0  0  0  0  0  3  0  0  0  0  0  0
   45.1510   30.6250   42.6410 N   0  0  0  0  0  0  0  0  0  0  0  0
   44.1900   31.4360   42.1260 C   0  0  0  0  0  0  0  0  0  0  0  0
   44.1340   32.6710   41.5070 C   0  0  0  0  0  0  0  0  0  0  0  0
   45.0790   33.1960   41.3560 H   0  0  0  0  0  0  0  0  0  0  0  0
   42.9820   33.2170   41.1020 N   0  0  0  0  0  0  0  0  0  0  0  0
   41.8010   32.5820   41.2810 C   0  0  0  0  0  3  0  0  0  0  0  0
   41.7910   31.3620   41.8850 N   0  0  0  0  0  0  0  0  0  0  0  0
   42.9660   30.8190   42.2910 C   0  0  0  0  0  0  0  0  0  0  0  0
   36.0970   30.0260   41.1210 C   0  0  0  0  0  0  0  0  0  0  0  0
   36.6810   30.8590   40.6750 H   0  0  0  0  0  0  0  0  0  0  0  0
   35.4720   30.5040   41.9300 H   0  0  0  0  0  0  0  0  0  0  0  0
   35.2350   29.4340   40.0520 C   0  0  0  0  0  0  0  0  0  0  0  0
   34.4980   30.2990   39.9310 H   0  0  0  0  0  0  0  0  0  0  0  0
   34.7850   28.5180   40.4130 H   0  0  0  0  0  0  0  0  0  0  0  0
   35.8620   29.3750   38.7170 C   0  0  0  0  0  0  0  0  0  0  0  0
   37.1920   29.4990   38.4130 C   0  0  0  0  0  0  0  0  0  0  0  0
   37.7290   29.5040   37.1560 C   0  0  0  0  0  0  0  0  0  0  0  0
   36.8960   29.3750   36.0660 C   0  0  0  0  0  0  0  0  0  0  0  0
   35.5350   29.2440   36.3050 C   0  0  0  0  0  0  0  0  0  0  0  0
   34.7640   29.1210   35.1700 C   0  0  0  0  0  0  0  0  0  0  0  0
   33.4220   28.9850   35.3090 C   0  0  0  0  0  0  0  0  0  0  0  0
   32.8490   28.9700   36.5590 C   0  0  0  0  0  0  0  0  0  0  0  0
   33.6790   29.0960   37.6460 C   0  0  0  0  0  0  0  0  0  0  0  0
   35.0260   29.2410   37.5920 C   0  0  0  0  0  0  0  0  0  0  0  0
   37.8590   29.6010   39.2610 H   0  0  0  0  0  0  0  0  0  0  0  0
   38.7990   29.6090   37.0530 H   0  0  0  0  0  0  0  0  0  0  0  0
   37.3330   29.3810   35.0760 H   0  0  0  0  0  0  0  0  0  0  0  0
   35.1760   29.1270   34.1780 H   0  0  0  0  0  0  0  0  0  0  0  0
   32.7870   28.8870   34.4230 H   0  0  0  0  0  0  0  0  0  0  0  0
   31.7800   28.8600   36.6580 H   0  0  0  0  0  0  0  0  0  0  0  0
   33.0480   29.0610   38.8820 O   0  0  0  0  0  0  0  0  0  0  0  0
   32.4640   28.3290   39.2290 H   0  0  0  0  0  0  0  0  0  0  0  0
  1  2  1  0  0  0  0
  1 10  1  0  0  0  0
  2  6  1  0  0  0  0
  3  2  2  0  0  0  0
  4  5  1  0  0  0  0
  4  3  1  0  0  0  0
  5  1  2  0  0  0  0
  7  3  1  0  0  0  0
  8 14  1  0  0  0  0
  9 15  1  0  0  0  0
  9  8  2  0  0  0  0
 10  9  1  0  0  0  0
 11 10  2  0  0  0  0
 11 12  1  0  0  0  0
 12 13  2  0  0  0  0
 13  8  1  0  0  0  0
 16 17  1  0  0  0  0
 16 12  1  0  0  0  0
 18 17  2  0  0  0  0
 19 25  1  0  0  0  0
 19 18  1  0  0  0  0
 20 19  2  0  0  0  0
 21 20  1  0  0  0  0
 22 23  2  0  0  0  0
 22 20  1  0  0  0  0
 23 24  1  0  0  0  0
 24 25  2  0  0  0  0
 25 16  1  0  0  0  0
 26  4  1  0  0  0  0
 26 28  1  0  0  0  0
 27 26  1  0  0  0  0
 29 31  1  0  0  0  0
 29 26  1  0  0  0  0
 30 29  1  0  0  0  0
 32 29  1  0  0  0  0
 33 32  1  0  0  0  0
 33 42  1  0  0  0  0
 34 33  2  0  0  0  0
 35 36  2  0  0  0  0
 35 34  1  0  0  0  0
 36 41  1  0  0  0  0
 37 38  2  0  0  0  0
 37 36  1  0  0  0  0
 38 39  1  0  0  0  0
 39 47  1  0  0  0  0
 39 40  2  0  0  0  0
 40 48  1  0  0  0  0
 41 40  1  0  0  0  0
 41 32  2  0  0  0  0
 43 34  1  0  0  0  0
 44 35  1  0  0  0  0
 45 37  1  0  0  0  0
 46 38  1  0  0  0  0
 48 49  1  0  0  0  0
M  END
>  <minimizedAffinity>
-6.5871892

>  <minimizedRMSD>
0.109509066

$$$$
