
 OpenBabel03242509313D

 22 24  0  0  0  0  0  0  0  0999 V2000
   37.1900   28.7420   42.7930 C   0  0  0  0  0  0  0  0  0  0  0  0
   37.3560   27.3500   43.0380 C   0  0  0  0  0  0  0  0  0  0  0  0
   37.4600   26.5210   41.9230 C   0  0  0  0  0  0  0  0  0  0  0  0
   37.3970   27.0970   40.6620 N   0  0  0  0  0  0  0  0  0  0  0  0
   37.2400   28.4210   40.4960 C   0  0  0  0  0  0  0  0  0  0  0  0
   37.1380   29.2290   41.5540 N   0  0  0  0  0  0  0  0  0  0  0  0
   37.1040   29.4370   43.6190 H   0  0  0  0  0  0  0  0  0  0  0  0
   37.3930   26.9950   44.0470 H   0  0  0  0  0  0  0  0  0  0  0  0
   37.2100   28.7190   39.1020 N   0  0  0  0  0  0  0  0  0  0  0  0
   38.2280   28.9510   38.2510 C   0  0  0  0  0  3  0  0  0  0  0  0
   37.6860   29.1860   37.0370 N   0  0  0  0  0  0  0  0  0  0  0  0
   36.3440   29.0990   37.1430 C   0  0  0  0  0  0  0  0  0  0  0  0
   35.3620   29.2630   36.1610 C   0  0  0  0  0  0  0  0  0  0  0  0
   35.6200   29.4960   35.1370 H   0  0  0  0  0  0  0  0  0  0  0  0
   34.0830   29.1160   36.5580 N   0  0  0  0  0  0  0  0  0  0  0  0
   33.8030   28.8230   37.8550 C   0  0  0  0  0  3  0  0  0  0  0  0
   34.7270   28.6600   38.8170 N   0  0  0  0  0  0  0  0  0  0  0  0
   36.0180   28.7990   38.4650 C   0  0  0  0  0  0  0  0  0  0  0  0
   37.6340   25.0530   42.1230 C   0  0  0  0  0  0  0  0  0  0  0  0
   37.8870   24.5270   40.8750 F   0  0  0  0  0  0  0  0  0  0  0  0
   38.6710   24.7620   42.9530 F   0  0  0  0  0  0  0  0  0  0  0  0
   36.4560   24.4700   42.6080 F   0  0  0  0  0  0  0  0  0  0  0  0
  1  2  1  0  0  0  0
  1  7  1  0  0  0  0
  2  8  1  0  0  0  0
  3 19  1  0  0  0  0
  3  2  2  0  0  0  0
  4  3  1  0  0  0  0
  5  4  2  0  0  0  0
  5  6  1  0  0  0  0
  6  1  2  0  0  0  0
  9  5  1  0  0  0  0
 10  9  1  0  0  0  0
 11 12  1  0  0  0  0
 11 10  2  0  0  0  0
 12 18  1  0  0  0  0
 13 15  1  0  0  0  0
 13 12  2  0  0  0  0
 14 13  1  0  0  0  0
 15 16  2  0  0  0  0
 16 17  1  0  0  0  0
 18 17  2  0  0  0  0
 18  9  1  0  0  0  0
 19 22  1  0  0  0  0
 19 21  1  0  0  0  0
 20 19  1  0  0  0  0
M  END
>  <minimizedAffinity>
-4.57043648

>  <minimizedRMSD>
2.35541558

$$$$
