
 OpenBabel03242509263D

 49 54  0  0  0  0  0  0  0  0999 V2000
   38.4250   28.1570   42.5830 C   0  0  0  0  0  0  0  0  0  0  0  0
   37.3890   27.2600   42.6200 C   0  0  0  0  0  0  0  0  0  0  0  0
   36.3140   27.8710   41.9720 C   0  0  0  0  0  0  0  0  0  0  0  0
   36.7820   29.0690   41.6030 N   0  0  0  0  0  0  0  0  0  0  0  0
   38.0130   29.2720   41.9430 N   0  0  0  0  0  0  0  0  0  0  0  0
   37.4720   26.2840   43.0820 H   0  0  0  0  0  0  0  0  0  0  0  0
   35.3870   27.3410   41.8840 H   0  0  0  0  0  0  0  0  0  0  0  0
   41.3900   26.6020   44.2290 C   0  0  0  0  0  0  0  0  0  0  0  0
   40.0980   26.7420   43.7050 C   0  0  0  0  0  0  0  0  0  0  0  0
   39.7560   27.9730   43.1310 C   0  0  0  0  0  0  0  0  0  0  0  0
   40.6620   28.9720   43.0990 N   0  0  0  0  0  0  0  0  0  0  0  0
   41.9080   28.7990   43.6180 C   0  0  0  0  0  0  0  0  0  0  0  0
   42.2620   27.6230   44.1770 N   0  0  0  0  0  0  0  0  0  0  0  0
   41.7360   25.6890   44.6880 H   0  0  0  0  0  0  0  0  0  0  0  0
   39.4060   25.8980   43.7570 H   0  0  0  0  0  0  0  0  0  0  0  0
   42.7200   29.9650   43.4910 N   0  0  0  0  0  0  0  0  0  0  0  0
   42.6630   30.7620   42.3930 C   0  0  0  0  0  3  0  0  0  0  0  0
   43.5170   31.8200   42.4730 N   0  0  0  0  0  0  0  0  0  0  0  0
   44.1350   31.6770   43.6750 C   0  0  0  0  0  0  0  0  0  0  0  0
   45.0940   32.3540   44.4060 C   0  0  0  0  0  0  0  0  0  0  0  0
   45.5140   33.2590   43.9610 H   0  0  0  0  0  0  0  0  0  0  0  0
   45.5030   31.9370   45.6090 N   0  0  0  0  0  0  0  0  0  0  0  0
   44.9940   30.8180   46.1780 C   0  0  0  0  0  3  0  0  0  0  0  0
   44.0460   30.1080   45.5060 N   0  0  0  0  0  0  0  0  0  0  0  0
   43.6410   30.5430   44.2860 C   0  0  0  0  0  0  0  0  0  0  0  0
   35.9220   29.9670   40.9090 C   0  0  0  0  0  0  0  0  0  0  0  0
   36.5070   30.8020   40.4680 H   0  0  0  0  0  0  0  0  0  0  0  0
   35.2780   30.4440   41.7030 H   0  0  0  0  0  0  0  0  0  0  0  0
   35.0860   29.3590   39.8280 C   0  0  0  0  0  0  0  0  0  0  0  0
   34.3180   30.1990   39.7170 H   0  0  0  0  0  0  0  0  0  0  0  0
   34.6680   28.4230   40.1740 H   0  0  0  0  0  0  0  0  0  0  0  0
   35.7200   29.3430   38.4950 C   0  0  0  0  0  0  0  0  0  0  0  0
   37.0500   29.4790   38.2010 C   0  0  0  0  0  0  0  0  0  0  0  0
   37.5930   29.5230   36.9480 C   0  0  0  0  0  0  0  0  0  0  0  0
   36.7650   29.4250   35.8500 C   0  0  0  0  0  0  0  0  0  0  0  0
   35.4030   29.2830   36.0790 C   0  0  0  0  0  0  0  0  0  0  0  0
   34.6390   29.1920   34.9370 C   0  0  0  0  0  0  0  0  0  0  0  0
   33.2960   29.0480   35.0660 C   0  0  0  0  0  0  0  0  0  0  0  0
   32.7170   28.9940   36.3120 C   0  0  0  0  0  0  0  0  0  0  0  0
   33.5420   29.0900   37.4050 C   0  0  0  0  0  0  0  0  0  0  0  0
   34.8890   29.2410   37.3630 C   0  0  0  0  0  0  0  0  0  0  0  0
   37.7130   29.5580   39.0550 H   0  0  0  0  0  0  0  0  0  0  0  0
   38.6630   29.6350   36.8520 H   0  0  0  0  0  0  0  0  0  0  0  0
   37.2070   29.4630   34.8630 H   0  0  0  0  0  0  0  0  0  0  0  0
   35.0550   29.2300   33.9470 H   0  0  0  0  0  0  0  0  0  0  0  0
   32.6660   28.9750   34.1730 H   0  0  0  0  0  0  0  0  0  0  0  0
   31.6480   28.8790   36.4020 H   0  0  0  0  0  0  0  0  0  0  0  0
   32.9050   29.0150   38.6370 O   0  0  0  0  0  0  0  0  0  0  0  0
   32.3220   28.2720   38.9590 H   0  0  0  0  0  0  0  0  0  0  0  0
  1  2  1  0  0  0  0
  1 10  1  0  0  0  0
  2  6  1  0  0  0  0
  3  2  2  0  0  0  0
  4  5  1  0  0  0  0
  4  3  1  0  0  0  0
  5  1  2  0  0  0  0
  7  3  1  0  0  0  0
  8 14  1  0  0  0  0
  9 15  1  0  0  0  0
  9  8  2  0  0  0  0
 10  9  1  0  0  0  0
 11 10  2  0  0  0  0
 11 12  1  0  0  0  0
 12 13  2  0  0  0  0
 13  8  1  0  0  0  0
 16 12  1  0  0  0  0
 16 25  1  0  0  0  0
 17 18  2  0  0  0  0
 17 16  1  0  0  0  0
 18 19  1  0  0  0  0
 19 25  2  0  0  0  0
 19 20  1  0  0  0  0
 20 22  2  0  0  0  0
 21 20  1  0  0  0  0
 22 23  1  0  0  0  0
 24 23  2  0  0  0  0
 25 24  1  0  0  0  0
 26  4  1  0  0  0  0
 26 28  1  0  0  0  0
 27 26  1  0  0  0  0
 29 31  1  0  0  0  0
 29 26  1  0  0  0  0
 30 29  1  0  0  0  0
 32 29  1  0  0  0  0
 33 32  1  0  0  0  0
 33 42  1  0  0  0  0
 34 33  2  0  0  0  0
 35 36  2  0  0  0  0
 35 34  1  0  0  0  0
 36 41  1  0  0  0  0
 37 38  2  0  0  0  0
 37 36  1  0  0  0  0
 38 39  1  0  0  0  0
 39 47  1  0  0  0  0
 39 40  2  0  0  0  0
 40 48  1  0  0  0  0
 41 40  1  0  0  0  0
 41 32  2  0  0  0  0
 43 34  1  0  0  0  0
 44 35  1  0  0  0  0
 45 37  1  0  0  0  0
 46 38  1  0  0  0  0
 48 49  1  0  0  0  0
M  END
>  <minimizedAffinity>
-6.77729988

>  <minimizedRMSD>
0.732119381

$$$$
