
 OpenBabel03242508103D

 45 49  0  0  1  0  0  0  0  0999 V2000
   39.5050   35.6860   39.9640 C   0  0  0  0  0  0  0  0  0  0  0  0
   40.7730   36.1280   40.3310 C   0  0  0  0  0  0  0  0  0  0  0  0
   41.6180   35.1650   40.9040 C   0  0  0  0  0  0  0  0  0  0  0  0
   41.1150   33.9420   41.0300 N   0  0  0  0  0  0  0  0  0  0  0  0
   39.9240   33.4940   40.6920 C   0  0  0  0  0  0  0  0  0  0  0  0
   39.1430   34.4220   40.1540 N   0  0  0  0  0  0  0  0  0  0  0  0
   38.8740   36.4590   39.5220 H   0  0  0  0  0  0  0  0  0  0  0  0
   41.1310   37.1350   40.2060 H   0  0  0  0  0  0  0  0  0  0  0  0
   39.2730   32.1950   40.7810 C   0  0  0  0  0  0  0  0  0  0  0  0
   39.2830   31.4250   41.8730 N   0  0  0  0  0  0  0  0  0  0  0  0
   38.7020   30.2410   41.9850 C   0  0  0  0  0  0  0  0  0  0  0  0
   38.0380   29.7110   40.9720 N   0  0  0  0  0  0  0  0  0  0  0  0
   37.9520   30.3820   39.8130 C   0  0  0  0  0  0  0  0  0  0  0  0
   37.2600   29.8370   38.7470 C   0  0  0  0  0  0  0  0  0  0  0  0
   37.1590   30.4950   37.5650 C   0  0  0  0  0  0  0  0  0  0  0  0
   37.7720   31.7490   37.4430 C   0  0  0  0  0  0  0  0  0  0  0  0
   38.4480   32.2390   38.5440 C   0  0  0  0  0  0  0  0  0  0  0  0
   38.5720   31.6070   39.7480 C   0  0  0  0  0  0  0  0  0  0  0  0
   38.7360   29.6500   42.8940 H   0  0  0  0  0  0  0  0  0  0  0  0
   36.7850   28.8740   38.8330 H   0  0  0  0  0  0  0  0  0  0  0  0
   36.6420   30.1350   36.7060 H   0  0  0  0  0  0  0  0  0  0  0  0
   37.7300   32.3220   36.5370 H   0  0  0  0  0  0  0  0  0  0  0  0
   38.9190   33.2210   38.4200 H   0  0  0  0  0  0  0  0  0  0  0  0
   42.8630   35.4140   41.3140 O   0  0  0  0  0  0  0  0  0  0  0  0
   43.2340   35.6890   42.6540 C   0  0  2  0  0  0  0  0  0  0  0  0
   42.7840   34.9380   43.3030 H   0  0  0  0  0  0  0  0  0  0  0  0
   42.5100   36.9940   43.0730 C   0  0  0  0  0  0  0  0  0  0  0  0
   42.8530   37.1740   44.1140 H   0  0  0  0  0  0  0  0  0  0  0  0
   41.4300   36.7450   43.0200 H   0  0  0  0  0  0  0  0  0  0  0  0
   42.7940   37.7740   42.3590 H   0  0  0  0  0  0  0  0  0  0  0  0
   44.7190   35.8810   42.7540 C   0  0  0  0  0  0  0  0  0  0  0  0
   44.9130   36.9730   42.7630 H   0  0  0  0  0  0  0  0  0  0  0  0
   45.2130   35.4040   41.9110 H   0  0  0  0  0  0  0  0  0  0  0  0
   45.1490   35.3370   44.0910 C   0  0  0  0  0  0  0  0  0  0  0  0
   44.6030   35.7130   45.2680 N   0  0  0  0  0  0  0  0  0  0  0  0
   45.0270   35.1650   46.4220 C   0  0  0  0  0  0  0  0  0  0  0  0
   46.0000   34.2300   46.4540 N   0  0  0  0  0  0  0  0  0  0  0  0
   46.5690   33.8300   45.3040 C   0  0  0  0  0  0  0  0  0  0  0  0
   47.5760   32.8760   45.3160 C   0  0  0  0  0  0  0  0  0  0  0  0
   48.1990   32.4340   44.1530 C   0  0  0  0  0  0  0  0  0  0  0  0
   48.9770   31.6980   44.1530 H   0  0  0  0  0  0  0  0  0  0  0  0
   47.7820   32.9830   42.9420 C   0  0  0  0  0  0  0  0  0  0  0  0
   48.2560   32.6510   42.0360 H   0  0  0  0  0  0  0  0  0  0  0  0
   46.7810   33.9270   42.9750 C   0  0  0  0  0  0  0  0  0  0  0  0
   46.1580   34.3710   44.1030 C   0  0  0  0  0  0  0  0  0  0  0  0
  1  6  2  0  0  0  0
  1  2  1  0  0  0  0
  2  3  2  0  0  0  0
  3  4  1  0  0  0  0
  3 24  1  0  0  0  0
  5  9  1  0  0  0  0
  5  4  2  0  0  0  0
  6  5  1  0  0  0  0
  7  1  1  0  0  0  0
  8  2  1  0  0  0  0
  9 10  1  0  0  0  0
 10 11  2  0  0  0  0
 11 19  1  0  0  0  0
 12 11  1  0  0  0  0
 13 12  2  0  0  0  0
 14 20  1  0  0  0  0
 14 13  1  0  0  0  0
 15 14  2  0  0  0  0
 16 15  1  0  0  0  0
 16 17  2  0  0  0  0
 17 18  1  0  0  0  0
 18 13  1  0  0  0  0
 18  9  2  0  0  0  0
 21 15  1  0  0  0  0
 22 16  1  0  0  0  0
 23 17  1  0  0  0  0
 24 25  1  0  0  0  0
 25 31  1  0  0  0  0
 25 27  1  0  0  0  0
 25 26  1  1  0  0  0
 27 28  1  0  0  0  0
 29 27  1  0  0  0  0
 30 27  1  0  0  0  0
 31 32  1  0  0  0  0
 31 34  1  0  0  0  0
 33 31  1  0  0  0  0
 34 45  2  0  0  0  0
 34 35  1  0  0  0  0
 35 36  2  0  0  0  0
 36 37  1  0  0  0  0
 38 39  1  0  0  0  0
 38 37  2  0  0  0  0
 40 41  1  0  0  0  0
 40 39  2  0  0  0  0
 42 44  2  0  0  0  0
 42 40  1  0  0  0  0
 43 42  1  0  0  0  0
 44 45  1  0  0  0  0
 45 38  1  0  0  0  0
M  END
>  <minimizedAffinity>
-7.22084808

>  <minimizedRMSD>
2.47860312

$$$$
