
 OpenBabel03242509093D

 40 45  0  0  1  0  0  0  0  0999 V2000
   36.4410   30.9040   40.9740 C   0  0  0  0  0  0  0  0  0  0  0  0
   36.6280   29.6240   41.5370 C   0  0  0  0  0  0  0  0  0  0  0  0
   37.4030   28.6780   40.8330 C   0  0  0  0  0  0  0  0  0  0  0  0
   37.9160   29.0850   39.6490 N   0  0  0  0  0  0  0  0  0  0  0  0
   37.7280   30.3150   39.1220 C   0  0  0  0  0  0  0  0  0  0  0  0
   36.9870   31.2300   39.7870 N   0  0  0  0  0  0  0  0  0  0  0  0
   35.8300   31.5670   41.5840 H   0  0  0  0  0  0  0  0  0  0  0  0
   36.1980   29.3350   42.4920 H   0  0  0  0  0  0  0  0  0  0  0  0
   37.5800   27.3730   41.4060 C   0  0  0  0  0  0  0  0  0  0  0  0
   38.1870   27.0540   42.5990 C   0  0  0  0  0  0  0  0  0  0  0  0
   38.1380   25.7010   42.7600 N   0  0  0  0  0  0  0  0  0  0  0  0
   37.5240   25.1260   41.7220 C   0  0  0  0  0  0  0  0  0  0  0  0
   37.2130   23.8190   41.3830 C   0  0  0  0  0  0  0  0  0  0  0  0
   36.5460   23.5040   40.1960 C   0  0  0  0  0  0  0  0  0  0  0  0
   36.2110   24.5630   39.3750 C   0  0  0  0  0  0  0  0  0  0  0  0
   36.5100   25.8510   39.6930 C   0  0  0  0  0  0  0  0  0  0  0  0
   37.1720   26.1630   40.8710 C   0  0  0  0  0  0  0  0  0  0  0  0
   38.6440   27.7050   43.3280 H   0  0  0  0  0  0  0  0  0  0  0  0
   38.5230   25.1720   43.5750 H   0  0  0  0  0  0  0  0  0  0  0  0
   37.4820   23.0130   42.0360 H   0  0  0  0  0  0  0  0  0  0  0  0
   36.2880   22.4950   39.9040 H   0  0  0  0  0  0  0  0  0  0  0  0
   35.6990   24.3630   38.4550 H   0  0  0  0  0  0  0  0  0  0  0  0
   36.2290   26.6440   39.0210 H   0  0  0  0  0  0  0  0  0  0  0  0
   38.3390   30.6740   37.8080 C   0  0  1  0  0  0  0  0  0  0  0  0
   38.5960   32.1490   37.5300 C   0  0  0  0  0  0  0  0  0  0  0  0
   39.7320   31.2020   37.7900 C   0  0  1  0  0  0  0  0  0  0  0  0
   37.9160   30.0810   36.9670 H   0  0  0  0  0  0  0  0  0  0  0  0
   38.2660   32.8560   38.3190 H   0  0  0  0  0  0  0  0  0  0  0  0
   38.4490   32.4900   36.4860 H   0  0  0  0  0  0  0  0  0  0  0  0
   40.3310   30.8900   36.9090 H   0  0  0  0  0  0  0  0  0  0  0  0
   40.4370   31.4650   39.0230 N   0  0  0  0  0  0  0  0  0  0  0  0
   40.7670   30.6560   40.0450 C   0  0  0  0  0  0  0  0  0  0  0  0
   41.4270   31.3480   40.9910 N   0  0  0  0  0  0  0  0  0  0  0  0
   41.5090   32.6150   40.5440 C   0  0  0  0  0  0  0  0  0  0  0  0
   42.1100   33.6650   41.2050 C   0  0  0  0  0  0  0  0  0  0  0  0
   42.5860   33.5600   42.1750 H   0  0  0  0  0  0  0  0  0  0  0  0
   42.0800   34.8690   40.5710 N   0  0  0  0  0  0  0  0  0  0  0  0
   41.4720   34.9580   39.3530 C   0  0  0  0  0  0  0  0  0  0  0  0
   40.8900   33.9200   38.7250 N   0  0  0  0  0  0  0  0  0  0  0  0
   40.8970   32.7180   39.3120 C   0  0  0  0  0  0  0  0  0  0  0  0
  1  2  1  0  0  0  0
  1  7  1  0  0  0  0
  2  8  1  0  0  0  0
  3  9  1  0  0  0  0
  3  2  2  0  0  0  0
  4  3  1  0  0  0  0
  5  4  2  0  0  0  0
  5  6  1  0  0  0  0
  6  1  2  0  0  0  0
  9 10  2  0  0  0  0
 10 11  1  0  0  0  0
 10 18  1  0  0  0  0
 11 19  1  0  0  0  0
 12 11  1  0  0  0  0
 13 12  1  0  0  0  0
 13 20  1  0  0  0  0
 14 13  2  0  0  0  0
 15 16  2  0  0  0  0
 15 14  1  0  0  0  0
 16 17  1  0  0  0  0
 17  9  1  0  0  0  0
 17 12  2  0  0  0  0
 21 14  1  0  0  0  0
 22 15  1  0  0  0  0
 23 16  1  0  0  0  0
 24 27  1  6  0  0  0
 24  5  1  0  0  0  0
 25 26  1  0  0  0  0
 25 24  1  0  0  0  0
 25 28  1  0  0  0  0
 26 30  1  6  0  0  0
 26 24  1  0  0  0  0
 26 31  1  0  0  0  0
 29 25  1  0  0  0  0
 31 40  1  0  0  0  0
 31 32  1  0  0  0  0
 32 33  2  0  0  0  0
 34 33  1  0  0  0  0
 34 35  1  0  0  0  0
 35 36  1  0  0  0  0
 37 35  2  0  0  0  0
 38 37  1  0  0  0  0
 39 40  1  0  0  0  0
 39 38  2  0  0  0  0
 40 34  2  0  0  0  0
M  END
>  <minimizedAffinity>
-5.74379015

>  <minimizedRMSD>
2.67547083

$$$$
