
 OpenBabel03242507193D

 47 51  0  0  0  0  0  0  0  0999 V2000
   35.4060   28.5520   40.0330 C   0  0  0  0  0  0  0  0  0  0  0  0
   36.6130   28.1520   40.5930 C   0  0  0  0  0  0  0  0  0  0  0  0
   37.5720   27.6520   39.6940 C   0  0  0  0  0  0  0  0  0  0  0  0
   37.2990   27.5810   38.3650 N   0  0  0  0  0  0  0  0  0  0  0  0
   36.0860   27.9930   37.8710 C   0  0  0  0  0  0  0  0  0  0  0  0
   35.1320   28.4820   38.7110 N   0  0  0  0  0  0  0  0  0  0  0  0
   34.6580   28.9390   40.7140 H   0  0  0  0  0  0  0  0  0  0  0  0
   38.5420   27.3180   40.0530 H   0  0  0  0  0  0  0  0  0  0  0  0
   36.9010   28.2200   41.9510 N   0  0  0  0  0  0  0  0  0  0  0  0
   36.4560   27.3770   42.9010 C   0  0  0  0  0  0  0  0  0  0  0  0
   37.0030   27.8490   44.0720 C   0  0  0  0  0  0  0  0  0  0  0  0
   37.7630   28.9520   43.8220 N   0  0  0  0  0  0  0  0  0  0  0  0
   37.6900   29.1700   42.5110 C   0  0  0  0  0  0  0  0  0  0  0  0
   38.4160   30.2850   42.0250 N   0  0  0  0  0  0  0  0  0  0  0  0
   39.6370   30.6470   42.5510 C   0  0  0  0  0  0  0  0  0  0  0  0
   40.1270   31.7530   41.9100 N   0  0  0  0  0  0  0  0  0  0  0  0
   39.2340   32.1040   40.9780 C   0  0  0  0  0  0  0  0  0  0  0  0
   39.2050   33.1180   40.0600 C   0  0  0  0  0  0  0  0  0  0  0  0
   38.1100   33.1600   39.2610 N   0  0  0  0  0  0  0  0  0  0  0  0
   37.1070   32.2860   39.3400 C   0  0  0  0  0  0  0  0  0  0  0  0
   37.1170   31.2760   40.2430 N   0  0  0  0  0  0  0  0  0  0  0  0
   38.1910   31.2100   41.0470 C   0  0  0  0  0  0  0  0  0  0  0  0
   40.2610   34.0740   39.9440 N   0  0  0  0  0  0  0  0  0  0  0  0
   35.8060   26.5210   42.7530 H   0  0  0  0  0  0  0  0  0  0  0  0
   36.8200   27.3660   45.0260 H   0  0  0  0  0  0  0  0  0  0  0  0
   40.2180   30.1980   43.3540 H   0  0  0  0  0  0  0  0  0  0  0  0
   36.2710   32.4040   38.6550 H   0  0  0  0  0  0  0  0  0  0  0  0
   41.1240   33.9120   40.4740 H   0  0  0  0  0  0  0  0  0  0  0  0
   40.0960   34.8890   39.3250 H   0  0  0  0  0  0  0  0  0  0  0  0
   35.6920   27.9570   36.4570 C   0  0  0  0  0  0  0  0  0  0  0  0
   34.6440   28.9730   36.1090 C   0  0  0  0  0  0  0  0  0  0  0  0
   34.4860   28.9620   35.0280 H   0  0  0  0  0  0  0  0  0  0  0  0
   35.0780   29.9730   36.3660 H   0  0  0  0  0  0  0  0  0  0  0  0
   33.7440   28.8340   36.7100 H   0  0  0  0  0  0  0  0  0  0  0  0
   35.1410   26.5810   36.1300 C   0  0  0  0  0  0  0  0  0  0  0  0
   34.1240   26.5090   36.6170 H   0  0  0  0  0  0  0  0  0  0  0  0
   35.7560   25.7650   36.5760 H   0  0  0  0  0  0  0  0  0  0  0  0
   34.9560   26.4250   35.0580 H   0  0  0  0  0  0  0  0  0  0  0  0
   36.9190   28.1670   35.5650 C   0  0  0  0  0  0  0  0  0  0  0  0
   37.8020   28.3140   36.2450 H   0  0  0  0  0  0  0  0  0  0  0  0
   37.1540   27.2300   35.0190 H   0  0  0  0  0  0  0  0  0  0  0  0
   36.7570   29.3230   34.6530 C   0  0  0  0  0  0  0  0  0  0  0  0
   36.5510   30.6530   34.9560 C   0  0  0  0  0  0  0  0  0  0  0  0
   36.4590   31.3720   33.8230 N   0  0  0  0  0  0  0  0  0  0  0  0
   36.6030   30.5130   32.7850 C   0  0  0  0  0  0  0  0  0  0  0  0
   36.7820   29.2790   33.3040 N   0  0  0  0  0  0  0  0  0  0  0  0
   36.9230   28.4080   32.7150 H   0  0  0  0  0  0  0  0  0  0  0  0
  1  2  1  0  0  0  0
  1  7  1  0  0  0  0
  2  9  1  0  0  0  0
  3  8  1  0  0  0  0
  3  2  2  0  0  0  0
  4  3  1  0  0  0  0
  5  4  2  0  0  0  0
  5  6  1  0  0  0  0
  6  1  2  0  0  0  0
  9 13  1  0  0  0  0
  9 10  1  0  0  0  0
 10 11  2  0  0  0  0
 11 25  1  0  0  0  0
 12 11  1  0  0  0  0
 13 12  2  0  0  0  0
 14 13  1  0  0  0  0
 14 15  1  0  0  0  0
 15 26  1  0  0  0  0
 16 15  2  0  0  0  0
 17 22  1  0  0  0  0
 17 16  1  0  0  0  0
 18 17  2  0  0  0  0
 19 20  2  0  0  0  0
 19 18  1  0  0  0  0
 20 21  1  0  0  0  0
 21 22  2  0  0  0  0
 22 14  1  0  0  0  0
 23 18  1  0  0  0  0
 23 28  1  0  0  0  0
 24 10  1  0  0  0  0
 27 20  1  0  0  0  0
 29 23  1  0  0  0  0
 30  5  1  0  0  0  0
 31 33  1  0  0  0  0
 31 30  1  0  0  0  0
 31 34  1  0  0  0  0
 32 31  1  0  0  0  0
 35 30  1  0  0  0  0
 35 37  1  0  0  0  0
 35 36  1  0  0  0  0
 38 35  1  0  0  0  0
 39 40  1  0  0  0  0
 39 30  1  0  0  0  0
 41 39  1  0  0  0  0
 42 43  2  0  0  0  0
 42 39  1  0  0  0  0
 44 43  1  0  0  0  0
 45 46  1  0  0  0  0
 45 44  2  0  0  0  0
 46 42  1  0  0  0  0
 47 46  1  0  0  0  0
M  END
>  <minimizedAffinity>
-6.21518326

>  <minimizedRMSD>
1.09072161

$$$$
