
 OpenBabel03242502313D

 32 34  0  0  0  0  0  0  0  0999 V2000
   36.8270   28.1290   41.2060 N   0  0  0  0  0  0  0  0  0  0  0  0
   36.5210   27.5060   40.0540 C   0  0  0  0  0  0  0  0  0  0  0  0
   36.7440   28.2260   38.9080 C   0  0  0  0  0  0  0  0  0  0  0  0
   37.2530   29.5170   38.8760 C   0  0  0  0  0  0  0  0  0  0  0  0
   37.4400   30.1310   37.8090 O   0  0  0  0  0  0  0  0  0  0  0  0
   37.5270   30.0470   40.0890 N   0  0  0  0  0  0  0  0  0  0  0  0
   37.3210   29.3750   41.2350 C   0  0  0  0  0  0  0  0  0  0  0  0
   37.6090   29.9580   42.3370 O   0  0  0  0  0  0  0  0  0  0  0  0
   36.1270   26.5140   40.0300 H   0  0  0  0  0  0  0  0  0  0  0  0
   36.5170   27.7770   37.9470 H   0  0  0  0  0  0  0  0  0  0  0  0
   39.3180   33.9010   40.1490 C   0  0  0  0  0  0  0  0  0  0  0  0
   37.9480   33.7580   40.0560 C   0  0  0  0  0  0  0  0  0  0  0  0
   37.3030   32.5370   40.0320 C   0  0  0  0  0  0  0  0  0  0  0  0
   38.0530   31.3780   40.1030 C   0  0  0  0  0  0  0  0  0  0  0  0
   39.4330   31.4520   40.1980 C   0  0  0  0  0  0  0  0  0  0  0  0
   40.0300   32.6970   40.2180 C   0  0  0  0  0  0  0  0  0  0  0  0
   40.6860   35.5940   41.4170 H   0  0  0  0  0  0  0  0  0  0  0  0
   40.1220   35.4320   40.1790 S   0  0  0  0  0  0  0  0  0  0  0  0
   41.2230   35.5130   39.1780 O   0  0  0  0  0  0  0  0  0  0  0  0
   39.2030   36.5920   39.9180 O   0  0  0  0  0  0  0  0  0  0  0  0
   36.6360   27.4750   42.4900 C   0  0  0  0  0  0  0  0  0  0  0  0
   35.7190   26.8940   42.4020 H   0  0  0  0  0  0  0  0  0  0  0  0
   36.4980   28.1890   43.2990 H   0  0  0  0  0  0  0  0  0  0  0  0
   39.8580   26.1400   43.7710 C   0  0  0  0  0  0  0  0  0  0  0  0
   39.8640   24.8360   43.2750 C   0  0  0  0  0  0  0  0  0  0  0  0
   38.7740   24.4300   42.5140 C   0  0  0  0  0  0  0  0  0  0  0  0
   37.7720   25.3000   42.2900 N   0  0  0  0  0  0  0  0  0  0  0  0
   37.7940   26.5730   42.7890 C   0  0  0  0  0  0  0  0  0  0  0  0
   38.8360   26.9470   43.5100 N   0  0  0  0  0  0  0  0  0  0  0  0
   40.7050   26.4880   44.3730 H   0  0  0  0  0  0  0  0  0  0  0  0
   40.7030   24.1850   43.4930 H   0  0  0  0  0  0  0  0  0  0  0  0
   38.7660   23.4230   42.1260 H   0  0  0  0  0  0  0  0  0  0  0  0
  1  7  1  0  0  0  0
  1 21  1  0  0  0  0
  2  1  1  0  0  0  0
  3  2  2  0  0  0  0
  4  3  1  0  0  0  0
  4  6  1  0  0  0  0
  5  4  2  0  0  0  0
  6 14  1  0  0  0  0
  6  7  1  0  0  0  0
  7  8  2  0  0  0  0
  9  2  1  0  0  0  0
 10  3  1  0  0  0  0
 11 18  1  0  0  0  0
 11 16  1  0  0  0  0
 12 11  2  0  0  0  0
 13 12  1  0  0  0  0
 13 14  2  0  0  0  0
 14 15  1  0  0  0  0
 15 16  2  0  0  0  0
 18 17  1  0  0  0  0
 19 18  2  0  0  0  0
 20 18  2  0  0  0  0
 21 28  1  0  0  0  0
 21 23  1  0  0  0  0
 22 21  1  0  0  0  0
 24 30  1  0  0  0  0
 25 31  1  0  0  0  0
 25 24  2  0  0  0  0
 26 25  1  0  0  0  0
 27 26  2  0  0  0  0
 27 28  1  0  0  0  0
 28 29  2  0  0  0  0
 29 24  1  0  0  0  0
 32 26  1  0  0  0  0
M  END
>  <minimizedAffinity>
-6.01623154

>  <minimizedRMSD>
2.09060478

$$$$
