
 OpenBabel03242509123D

 37 41  0  0  1  0  0  0  0  0999 V2000
   36.1750   30.7850   41.1190 C   0  0  0  0  0  0  0  0  0  0  0  0
   36.8920   29.7160   41.6930 C   0  0  0  0  0  0  0  0  0  0  0  0
   38.2700   29.7180   41.6230 C   0  0  0  0  0  0  0  0  0  0  0  0
   38.8360   30.7810   40.9920 N   0  0  0  0  0  0  0  0  0  0  0  0
   38.1460   31.8020   40.4470 C   0  0  0  0  0  0  0  0  0  0  0  0
   36.8080   31.7950   40.5140 N   0  0  0  0  0  0  0  0  0  0  0  0
   35.1000   30.8770   41.1180 H   0  0  0  0  0  0  0  0  0  0  0  0
   36.2030   29.0290   42.1470 H   0  0  0  0  0  0  0  0  0  0  0  0
   38.9990   28.6240   42.1920 C   0  0  0  0  0  0  0  0  0  0  0  0
   40.2110   28.6750   42.8710 C   0  0  0  0  0  0  0  0  0  0  0  0
   40.5590   27.4250   43.2550 N   0  0  0  0  0  0  0  0  0  0  0  0
   39.6180   26.5360   42.8550 C   0  0  0  0  0  0  0  0  0  0  0  0
   39.4860   25.1750   42.9870 C   0  0  0  0  0  0  0  0  0  0  0  0
   38.3680   24.5070   42.4570 C   0  0  0  0  0  0  0  0  0  0  0  0
   37.4220   25.2780   41.8030 C   0  0  0  0  0  0  0  0  0  0  0  0
   37.5780   26.6320   41.6840 C   0  0  0  0  0  0  0  0  0  0  0  0
   38.6630   27.2860   42.2010 C   0  0  0  0  0  0  0  0  0  0  0  0
   40.7570   29.6040   43.0410 H   0  0  0  0  0  0  0  0  0  0  0  0
   41.4420   27.2060   43.7870 H   0  0  0  0  0  0  0  0  0  0  0  0
   40.2800   24.6490   43.5170 H   0  0  0  0  0  0  0  0  0  0  0  0
   38.3490   23.4360   42.6090 H   0  0  0  0  0  0  0  0  0  0  0  0
   36.6110   24.6580   41.4380 H   0  0  0  0  0  0  0  0  0  0  0  0
   36.7630   27.0340   41.1350 H   0  0  0  0  0  0  0  0  0  0  0  0
   38.8840   32.9460   39.8030 C   0  0  1  0  0  0  0  0  0  0  0  0
   39.0610   34.2130   40.6620 C   0  0  0  0  0  0  0  0  0  0  0  0
   40.2060   33.3290   40.3560 C   0  0  2  0  0  0  0  0  0  0  0  0
   38.5440   33.2240   38.7820 H   0  0  0  0  0  0  0  0  0  0  0  0
   38.5700   34.1330   41.6650 H   0  0  0  0  0  0  0  0  0  0  0  0
   39.0630   35.1930   40.1750 H   0  0  0  0  0  0  0  0  0  0  0  0
   40.5720   32.6140   41.1430 H   0  0  0  0  0  0  0  0  0  0  0  0
   41.2980   33.7700   39.4670 C   0  0  0  0  0  0  0  0  0  0  0  0
   41.4240   34.9460   38.8430 N   0  0  0  0  0  0  0  0  0  0  0  0
   42.5200   34.9570   38.1330 O   0  0  0  0  0  0  0  0  0  0  0  0
   43.1480   33.8000   38.2640 C   0  0  0  0  0  0  0  0  0  0  0  0
   42.3690   33.0610   39.1060 N   0  0  0  0  0  0  0  0  0  0  0  0
   44.6740   33.1840   37.5670 S   0  0  0  0  0  0  0  0  0  0  0  0
   44.7210   33.3930   36.1770 H   0  0  0  0  0  0  0  0  0  0  0  0
  1  2  1  0  0  0  0
  2  8  1  0  0  0  0
  3  2  2  0  0  0  0
  3  9  1  0  0  0  0
  4  3  1  0  0  0  0
  5  6  1  0  0  0  0
  5  4  2  0  0  0  0
  6  1  2  0  0  0  0
  7  1  1  0  0  0  0
  9 17  1  0  0  0  0
  9 10  2  0  0  0  0
 10 18  1  0  0  0  0
 10 11  1  0  0  0  0
 11 19  1  0  0  0  0
 12 13  1  0  0  0  0
 12 11  1  0  0  0  0
 13 20  1  0  0  0  0
 14 21  1  0  0  0  0
 14 13  2  0  0  0  0
 15 14  1  0  0  0  0
 16 15  2  0  0  0  0
 16 17  1  0  0  0  0
 17 12  2  0  0  0  0
 22 15  1  0  0  0  0
 23 16  1  0  0  0  0
 24 27  1  6  0  0  0
 24 26  1  0  0  0  0
 24  5  1  0  0  0  0
 24 25  1  0  0  0  0
 25 28  1  0  0  0  0
 26 25  1  0  0  0  0
 26 30  1  1  0  0  0
 29 25  1  0  0  0  0
 31 26  1  0  0  0  0
 32 31  2  0  0  0  0
 33 34  1  0  0  0  0
 33 32  1  0  0  0  0
 34 35  2  0  0  0  0
 35 31  1  0  0  0  0
 36 34  1  0  0  0  0
 37 36  1  0  0  0  0
M  END
>  <minimizedAffinity>
-5.9839282

>  <minimizedRMSD>
0.645381391

$$$$
