
 OpenBabel03242509193D

 26 28  0  0  0  0  0  0  0  0999 V2000
   41.8310   26.1880   43.9810 C   0  0  0  0  0  0  0  0  0  0  0  0
   42.2050   27.0610   44.9550 C   0  0  0  0  0  0  0  0  0  0  0  0
   43.5770   26.9630   45.1220 C   0  0  0  0  0  0  0  0  0  0  0  0
   43.9470   26.0190   44.2200 N   0  0  0  0  0  0  0  0  0  0  0  0
   42.9460   25.5570   43.5470 N   0  0  0  0  0  0  0  0  0  0  0  0
   41.5810   27.7260   45.5220 H   0  0  0  0  0  0  0  0  0  0  0  0
   44.1810   27.5280   45.8240 H   0  0  0  0  0  0  0  0  0  0  0  0
   38.2850   26.6870   42.9670 C   0  0  0  0  0  0  0  0  0  0  0  0
   39.5660   26.9780   43.4650 C   0  0  0  0  0  0  0  0  0  0  0  0
   40.5030   25.9580   43.4840 C   0  0  0  0  0  0  0  0  0  0  0  0
   40.1460   24.7170   43.0220 N   0  0  0  0  0  0  0  0  0  0  0  0
   38.9010   24.4880   42.5520 C   0  0  0  0  0  0  0  0  0  0  0  0
   37.9710   25.4570   42.5210 N   0  0  0  0  0  0  0  0  0  0  0  0
   37.5000   27.4230   42.9180 H   0  0  0  0  0  0  0  0  0  0  0  0
   39.7900   27.9730   43.8170 H   0  0  0  0  0  0  0  0  0  0  0  0
   38.7700   23.4630   42.2220 H   0  0  0  0  0  0  0  0  0  0  0  0
   47.9880   24.7690   43.8050 C   0  0  0  0  0  0  0  0  0  0  0  0
   47.4960   25.2010   45.0330 C   0  0  0  0  0  0  0  0  0  0  0  0
   46.1930   25.5910   45.1110 C   0  0  0  0  0  0  0  0  0  0  0  0
   45.3020   25.5910   44.0420 C   0  0  0  0  0  0  0  0  0  0  0  0
   45.8350   25.1550   42.8500 C   0  0  0  0  0  0  0  0  0  0  0  0
   47.1470   24.7530   42.7300 C   0  0  0  0  0  0  0  0  0  0  0  0
   50.4800   25.3440   44.2370 H   0  0  0  0  0  0  0  0  0  0  0  0
   49.6810   24.2890   43.8170 S   0  0  0  0  0  0  0  0  0  0  0  0
   50.1090   23.7890   42.4760 O   0  0  0  0  0  0  0  0  0  0  0  0
   49.8940   23.1930   44.8280 O   0  0  0  0  0  0  0  0  0  0  0  0
  1  2  1  0  0  0  0
  2  3  2  0  0  0  0
  2  6  1  0  0  0  0
  3  7  1  0  0  0  0
  4  3  1  0  0  0  0
  5  1  2  0  0  0  0
  5  4  1  0  0  0  0
  8  9  1  0  0  0  0
  9 10  2  0  0  0  0
  9 15  1  0  0  0  0
 10  1  1  0  0  0  0
 11 10  1  0  0  0  0
 12 11  2  0  0  0  0
 13 12  1  0  0  0  0
 13  8  2  0  0  0  0
 14  8  1  0  0  0  0
 16 12  1  0  0  0  0
 17 24  1  0  0  0  0
 17 18  1  0  0  0  0
 18 19  2  0  0  0  0
 20  4  1  0  0  0  0
 20 19  1  0  0  0  0
 21 20  2  0  0  0  0
 22 21  1  0  0  0  0
 22 17  2  0  0  0  0
 24 23  1  0  0  0  0
 24 26  2  0  0  0  0
 25 24  2  0  0  0  0
M  END
>  <minimizedAffinity>
-3.65585518

>  <minimizedRMSD>
3.24624133

$$$$
