
 OpenBabel03242508523D

 33 36  0  0  0  0  0  0  0  0999 V2000
   38.7310   28.9180   41.4670 C   0  0  0  0  0  0  0  0  0  0  0  0
   39.7030   29.9110   41.6510 C   0  0  0  0  0  0  0  0  0  0  0  0
   40.6270   29.4080   42.4610 N   0  0  0  0  0  0  0  0  0  0  0  0
   40.3370   28.1500   42.8290 C   0  0  0  0  0  0  0  0  0  0  0  0
   41.0490   27.3020   43.6560 C   0  0  0  0  0  0  0  0  0  0  0  0
   40.4990   26.0270   43.8670 C   0  0  0  0  0  0  0  0  0  0  0  0
   39.3030   25.6610   43.2640 C   0  0  0  0  0  0  0  0  0  0  0  0
   38.6070   26.5310   42.4380 C   0  0  0  0  0  0  0  0  0  0  0  0
   39.1270   27.7950   42.2140 C   0  0  0  0  0  0  0  0  0  0  0  0
   39.5680   30.8600   41.1470 H   0  0  0  0  0  0  0  0  0  0  0  0
   41.9750   27.6200   44.1060 H   0  0  0  0  0  0  0  0  0  0  0  0
   41.0740   25.3950   44.5100 H   0  0  0  0  0  0  0  0  0  0  0  0
   38.9070   24.6660   43.4480 H   0  0  0  0  0  0  0  0  0  0  0  0
   37.6710   26.2660   41.9580 H   0  0  0  0  0  0  0  0  0  0  0  0
   35.1930   29.0830   40.5570 C   0  0  0  0  0  0  0  0  0  0  0  0
   35.2250   29.1060   39.1380 C   0  0  0  0  0  0  0  0  0  0  0  0
   36.4930   29.0630   38.5200 C   0  0  0  0  0  0  0  0  0  0  0  0
   37.5870   29.0030   39.3180 N   0  0  0  0  0  0  0  0  0  0  0  0
   37.5100   28.9840   40.6610 C   0  0  0  0  0  0  0  0  0  0  0  0
   36.3290   29.0230   41.2710 N   0  0  0  0  0  0  0  0  0  0  0  0
   34.2180   29.1160   41.0280 H   0  0  0  0  0  0  0  0  0  0  0  0
   34.3310   29.1540   38.5330 H   0  0  0  0  0  0  0  0  0  0  0  0
   36.5520   29.0790   37.4360 H   0  0  0  0  0  0  0  0  0  0  0  0
   43.8940   31.8500   43.4780 C   0  0  0  0  0  0  0  0  0  0  0  0
   43.7860   30.5850   44.0440 C   0  0  0  0  0  0  0  0  0  0  0  0
   42.6800   29.8120   43.6730 C   0  0  0  0  0  0  0  0  0  0  0  0
   41.7240   30.2670   42.7820 C   0  0  0  0  0  0  0  0  0  0  0  0
   41.8470   31.5270   42.2280 C   0  0  0  0  0  0  0  0  0  0  0  0
   42.9430   32.3120   42.5880 C   0  0  0  0  0  0  0  0  0  0  0  0
   46.4310   32.3470   43.3410 H   0  0  0  0  0  0  0  0  0  0  0  0
   45.2890   32.8190   43.9490 S   0  0  0  0  0  0  0  0  0  0  0  0
   45.0960   34.2290   43.4760 O   0  0  0  0  0  0  0  0  0  0  0  0
   45.5090   32.8230   45.4160 O   0  0  0  0  0  0  0  0  0  0  0  0
  1  2  2  0  0  0  0
  1  9  1  0  0  0  0
  2  3  1  0  0  0  0
  3 27  1  0  0  0  0
  3  4  1  0  0  0  0
  4  5  1  0  0  0  0
  5  6  2  0  0  0  0
  5 11  1  0  0  0  0
  6 12  1  0  0  0  0
  7 13  1  0  0  0  0
  7  6  1  0  0  0  0
  8  7  2  0  0  0  0
  9  8  1  0  0  0  0
  9  4  2  0  0  0  0
 10  2  1  0  0  0  0
 14  8  1  0  0  0  0
 15 21  1  0  0  0  0
 15 20  1  0  0  0  0
 16 15  2  0  0  0  0
 17 16  1  0  0  0  0
 17 18  2  0  0  0  0
 18 19  1  0  0  0  0
 19 20  2  0  0  0  0
 19  1  1  0  0  0  0
 22 16  1  0  0  0  0
 23 17  1  0  0  0  0
 24 31  1  0  0  0  0
 24 25  1  0  0  0  0
 26 25  2  0  0  0  0
 27 26  1  0  0  0  0
 28 29  1  0  0  0  0
 28 27  2  0  0  0  0
 29 24  2  0  0  0  0
 30 31  1  0  0  0  0
 31 33  2  0  0  0  0
 32 31  2  0  0  0  0
M  END
>  <minimizedAffinity>
-5.10129738

>  <minimizedRMSD>
9.06634808

$$$$
