
 OpenBabel03242508543D

 35 38  0  0  0  0  0  0  0  0999 V2000
   37.6480   28.2100   41.4900 C   0  0  0  0  0  0  0  0  0  0  0  0
   36.3810   27.9580   40.9580 C   0  0  0  0  0  0  0  0  0  0  0  0
   35.9310   29.1110   40.4540 N   0  0  0  0  0  0  0  0  0  0  0  0
   36.8200   30.1040   40.6210 C   0  0  0  0  0  0  0  0  0  0  0  0
   36.7280   31.4220   40.2440 C   0  0  0  0  0  0  0  0  0  0  0  0
   37.8150   32.2420   40.5480 C   0  0  0  0  0  0  0  0  0  0  0  0
   38.9400   31.7310   41.2060 C   0  0  0  0  0  0  0  0  0  0  0  0
   39.0140   30.4020   41.5780 C   0  0  0  0  0  0  0  0  0  0  0  0
   37.9390   29.5700   41.2830 C   0  0  0  0  0  0  0  0  0  0  0  0
   35.9490   26.9660   41.0060 H   0  0  0  0  0  0  0  0  0  0  0  0
   35.8530   31.8030   39.7350 H   0  0  0  0  0  0  0  0  0  0  0  0
   37.8140   33.2850   40.2820 H   0  0  0  0  0  0  0  0  0  0  0  0
   39.7940   32.3490   41.4510 H   0  0  0  0  0  0  0  0  0  0  0  0
   39.8550   29.9660   42.0840 H   0  0  0  0  0  0  0  0  0  0  0  0
   39.6690   26.6120   44.0850 C   0  0  0  0  0  0  0  0  0  0  0  0
   40.2220   25.4850   43.4060 C   0  0  0  0  0  0  0  0  0  0  0  0
   39.8780   25.2990   42.0480 C   0  0  0  0  0  0  0  0  0  0  0  0
   39.0520   26.2060   41.4950 N   0  0  0  0  0  0  0  0  0  0  0  0
   38.5410   27.2630   42.1510 C   0  0  0  0  0  0  0  0  0  0  0  0
   38.8530   27.4560   43.4390 N   0  0  0  0  0  0  0  0  0  0  0  0
   39.9160   26.7690   45.1120 H   0  0  0  0  0  0  0  0  0  0  0  0
   40.8790   24.7890   43.8950 H   0  0  0  0  0  0  0  0  0  0  0  0
   40.2680   24.4650   41.4910 H   0  0  0  0  0  0  0  0  0  0  0  0
   34.6380   29.1720   39.8300 C   0  0  0  0  0  0  0  0  0  0  0  0
   33.8460   28.7740   40.4840 H   0  0  0  0  0  0  0  0  0  0  0  0
   34.4090   30.2610   39.7010 H   0  0  0  0  0  0  0  0  0  0  0  0
   34.6060   28.5360   38.4560 C   0  0  0  0  0  0  0  0  0  0  0  0
   35.4180   28.9020   37.8240 H   0  0  0  0  0  0  0  0  0  0  0  0
   34.5470   27.4400   38.5170 H   0  0  0  0  0  0  0  0  0  0  0  0
   33.3280   28.9970   37.8200 C   0  0  0  0  0  0  0  0  0  0  0  0
   33.3210   29.1310   36.4610 C   0  0  0  0  0  0  0  0  0  0  0  0
   32.1090   29.5490   36.0670 N   0  0  0  0  0  0  0  0  0  0  0  0
   31.3480   29.6780   37.1920 C   0  0  0  0  0  0  0  0  0  0  0  0
   32.1110   29.3350   38.2550 N   0  0  0  0  0  0  0  0  0  0  0  0
   31.9160   29.2960   39.2810 H   0  0  0  0  0  0  0  0  0  0  0  0
  1 19  1  0  0  0  0
  2 10  1  0  0  0  0
  2  1  2  0  0  0  0
  3  4  1  0  0  0  0
  3  2  1  0  0  0  0
  4  9  1  0  0  0  0
  5  6  1  0  0  0  0
  5  4  2  0  0  0  0
  6  7  2  0  0  0  0
  7 13  1  0  0  0  0
  7  8  1  0  0  0  0
  8 14  1  0  0  0  0
  9  1  1  0  0  0  0
  9  8  2  0  0  0  0
 11  5  1  0  0  0  0
 12  6  1  0  0  0  0
 15 21  1  0  0  0  0
 16 22  1  0  0  0  0
 16 15  2  0  0  0  0
 17 16  1  0  0  0  0
 18 17  2  0  0  0  0
 18 19  1  0  0  0  0
 19 20  2  0  0  0  0
 20 15  1  0  0  0  0
 23 17  1  0  0  0  0
 24  3  1  0  0  0  0
 24 25  1  0  0  0  0
 26 24  1  0  0  0  0
 27 29  1  0  0  0  0
 27 24  1  0  0  0  0
 28 27  1  0  0  0  0
 30 34  1  0  0  0  0
 30 27  1  0  0  0  0
 31 30  2  0  0  0  0
 32 31  1  0  0  0  0
 32 33  2  0  0  0  0
 33 34  1  0  0  0  0
 34 35  1  0  0  0  0
M  END
>  <minimizedAffinity>
-5.07786369

>  <minimizedRMSD>
0.373462141

$$$$
