
 OpenBabel03242509283D

 44 48  0  0  0  0  0  0  0  0999 V2000
   35.9780   30.0040   40.9370 C   0  0  0  0  0  0  0  0  0  0  0  0
   35.3440   30.5020   41.7220 H   0  0  0  0  0  0  0  0  0  0  0  0
   36.5700   30.8210   40.4750 H   0  0  0  0  0  0  0  0  0  0  0  0
   38.4770   28.1770   42.6030 C   0  0  0  0  0  0  0  0  0  0  0  0
   37.4210   27.3130   42.6960 C   0  0  0  0  0  0  0  0  0  0  0  0
   36.3430   27.9330   42.0580 C   0  0  0  0  0  0  0  0  0  0  0  0
   36.8330   29.1060   41.6380 N   0  0  0  0  0  0  0  0  0  0  0  0
   38.0800   29.2900   41.9350 N   0  0  0  0  0  0  0  0  0  0  0  0
   37.4480   26.3460   43.1780 H   0  0  0  0  0  0  0  0  0  0  0  0
   35.3720   27.4730   41.9810 H   0  0  0  0  0  0  0  0  0  0  0  0
   41.4300   26.6230   44.2740 C   0  0  0  0  0  0  0  0  0  0  0  0
   40.1310   26.7850   43.7780 C   0  0  0  0  0  0  0  0  0  0  0  0
   39.8150   27.9800   43.1200 C   0  0  0  0  0  0  0  0  0  0  0  0
   40.7600   28.9460   42.9750 N   0  0  0  0  0  0  0  0  0  0  0  0
   42.0090   28.7250   43.4840 C   0  0  0  0  0  0  0  0  0  0  0  0
   42.3370   27.5940   44.1160 N   0  0  0  0  0  0  0  0  0  0  0  0
   41.6140   25.6800   44.7730 H   0  0  0  0  0  0  0  0  0  0  0  0
   39.3960   25.9990   43.9050 H   0  0  0  0  0  0  0  0  0  0  0  0
   43.0600   29.7090   43.3660 C   0  0  0  0  0  0  0  0  0  0  0  0
   43.1620   30.9830   43.7480 C   0  0  0  0  0  3  0  0  0  0  0  0
   44.2800   31.7350   43.5250 C   0  0  0  0  0  3  0  0  0  0  0  0
   45.3470   30.9670   42.8150 C   0  0  0  0  0  3  0  0  0  0  0  0
   44.5640   29.2780   42.5830 S   0  0  0  0  0  0  0  0  0  0  0  0
   35.1350   29.3900   39.8640 C   0  0  0  0  0  0  0  0  0  0  0  0
   34.7130   28.4590   40.2170 H   0  0  0  0  0  0  0  0  0  0  0  0
   34.3710   30.2320   39.7420 H   0  0  0  0  0  0  0  0  0  0  0  0
   35.7690   29.3580   38.5300 C   0  0  0  0  0  0  0  0  0  0  0  0
   37.0960   29.4940   38.2290 C   0  0  0  0  0  0  0  0  0  0  0  0
   37.6360   29.5270   36.9760 C   0  0  0  0  0  0  0  0  0  0  0  0
   36.8070   29.4160   35.8820 C   0  0  0  0  0  0  0  0  0  0  0  0
   35.4550   29.2740   36.1160 C   0  0  0  0  0  0  0  0  0  0  0  0
   34.6800   29.1720   34.9860 C   0  0  0  0  0  0  0  0  0  0  0  0
   33.3220   29.0270   35.1060 C   0  0  0  0  0  0  0  0  0  0  0  0
   32.7580   28.9830   36.3620 C   0  0  0  0  0  0  0  0  0  0  0  0
   33.5840   29.0900   37.4450 C   0  0  0  0  0  0  0  0  0  0  0  0
   34.9300   29.2410   37.4060 C   0  0  0  0  0  0  0  0  0  0  0  0
   37.7470   29.5820   39.1060 H   0  0  0  0  0  0  0  0  0  0  0  0
   38.7070   29.6400   36.9070 H   0  0  0  0  0  0  0  0  0  0  0  0
   37.2470   29.4450   34.9050 H   0  0  0  0  0  0  0  0  0  0  0  0
   35.0970   29.2010   33.9820 H   0  0  0  0  0  0  0  0  0  0  0  0
   32.7190   28.9490   34.2070 H   0  0  0  0  0  0  0  0  0  0  0  0
   31.6860   28.8670   36.4560 H   0  0  0  0  0  0  0  0  0  0  0  0
   32.9560   29.0210   38.6820 O   0  0  0  0  0  0  0  0  0  0  0  0
   32.5590   28.1540   39.0220 H   0  0  0  0  0  0  0  0  0  0  0  0
  1  7  1  0  0  0  0
  1  2  1  0  0  0  0
  3  1  1  0  0  0  0
  4  5  1  0  0  0  0
  4 13  1  0  0  0  0
  5  9  1  0  0  0  0
  6  5  2  0  0  0  0
  7  8  1  0  0  0  0
  7  6  1  0  0  0  0
  8  4  2  0  0  0  0
 10  6  1  0  0  0  0
 11 17  1  0  0  0  0
 12 18  1  0  0  0  0
 12 11  2  0  0  0  0
 13 12  1  0  0  0  0
 14 13  2  0  0  0  0
 14 15  1  0  0  0  0
 15 16  2  0  0  0  0
 16 11  1  0  0  0  0
 19 15  1  0  0  0  0
 19 20  2  0  0  0  0
 21 20  1  0  0  0  0
 22 21  2  0  0  0  0
 23 22  1  0  0  0  0
 23 19  1  0  0  0  0
 24 25  1  0  0  0  0
 24  1  1  0  0  0  0
 26 24  1  0  0  0  0
 27 24  1  0  0  0  0
 28 27  1  0  0  0  0
 28 37  1  0  0  0  0
 29 28  2  0  0  0  0
 30 31  2  0  0  0  0
 30 29  1  0  0  0  0
 31 36  1  0  0  0  0
 32 33  2  0  0  0  0
 32 31  1  0  0  0  0
 33 34  1  0  0  0  0
 34 42  1  0  0  0  0
 34 35  2  0  0  0  0
 35 43  1  0  0  0  0
 36 35  1  0  0  0  0
 36 27  2  0  0  0  0
 38 29  1  0  0  0  0
 39 30  1  0  0  0  0
 40 32  1  0  0  0  0
 41 33  1  0  0  0  0
 43 44  1  0  0  0  0
M  END
>  <minimizedAffinity>
-5.98278999

>  <minimizedRMSD>
0.380049646

$$$$
