
 OpenBabel03242509313D

 17 18  0  0  0  0  0  0  0  0999 V2000
   37.6200   28.6620   43.5920 C   0  0  0  0  0  0  0  0  0  0  0  0
   38.2280   27.3990   43.7490 C   0  0  0  0  0  0  0  0  0  0  0  0
   38.4070   26.6180   42.6060 C   0  0  0  0  0  0  0  0  0  0  0  0
   37.9890   27.1120   41.3950 N   0  0  0  0  0  0  0  0  0  0  0  0
   37.4120   28.3300   41.2980 C   0  0  0  0  0  0  0  0  0  0  0  0
   37.2330   29.0860   42.3780 N   0  0  0  0  0  0  0  0  0  0  0  0
   37.4810   29.2660   44.4820 H   0  0  0  0  0  0  0  0  0  0  0  0
   38.5320   27.0760   44.7370 H   0  0  0  0  0  0  0  0  0  0  0  0
   36.9550   28.8950   40.0480 C   0  0  0  0  0  0  0  0  0  0  0  0
   35.7190   28.7670   39.4300 C   0  0  0  0  0  3  0  0  0  0  0  0
   35.5290   29.4020   38.2410 C   0  0  0  0  0  3  0  0  0  0  0  0
   36.5800   30.1290   37.7340 C   0  0  0  0  0  3  0  0  0  0  0  0
   37.9200   29.9120   39.0000 S   0  0  0  0  0  0  0  0  0  0  0  0
   39.0430   25.2820   42.7240 C   0  0  0  0  0  0  0  0  0  0  0  0
   39.9050   25.1520   41.6630 F   0  0  0  0  0  0  0  0  0  0  0  0
   39.7710   25.1490   43.8840 F   0  0  0  0  0  0  0  0  0  0  0  0
   38.1010   24.2490   42.6760 F   0  0  0  0  0  0  0  0  0  0  0  0
  1  2  1  0  0  0  0
  1  7  1  0  0  0  0
  2  8  1  0  0  0  0
  3 14  1  0  0  0  0
  3  2  2  0  0  0  0
  4  3  1  0  0  0  0
  5  4  2  0  0  0  0
  5  6  1  0  0  0  0
  6  1  2  0  0  0  0
  9  5  1  0  0  0  0
 10  9  2  0  0  0  0
 11 10  1  0  0  0  0
 12 11  2  0  0  0  0
 12 13  1  0  0  0  0
 13  9  1  0  0  0  0
 14 16  1  0  0  0  0
 15 14  1  0  0  0  0
 17 14  1  0  0  0  0
M  END
>  <minimizedAffinity>
-4.1055274

>  <minimizedRMSD>
1.58614182

$$$$
