
 OpenBabel03242509313D

 17 18  0  0  0  0  0  0  0  0999 V2000
   37.4740   28.6460   43.5390 C   0  0  0  0  0  0  0  0  0  0  0  0
   37.3870   27.2590   43.3030 C   0  0  0  0  0  0  0  0  0  0  0  0
   37.2570   26.8310   41.9810 C   0  0  0  0  0  0  0  0  0  0  0  0
   37.2210   27.7720   40.9820 N   0  0  0  0  0  0  0  0  0  0  0  0
   37.3090   29.0920   41.2600 C   0  0  0  0  0  0  0  0  0  0  0  0
   37.4330   29.5150   42.5150 N   0  0  0  0  0  0  0  0  0  0  0  0
   37.5750   28.9760   44.5670 H   0  0  0  0  0  0  0  0  0  0  0  0
   37.4210   26.5760   44.1430 H   0  0  0  0  0  0  0  0  0  0  0  0
   37.2760   30.1210   40.2450 C   0  0  0  0  0  0  0  0  0  0  0  0
   37.1770   29.9900   38.8680 C   0  0  0  0  0  3  0  0  0  0  0  0
   37.1650   31.1230   38.1150 C   0  0  0  0  0  3  0  0  0  0  0  0
   37.2540   32.3260   38.7760 C   0  0  0  0  0  3  0  0  0  0  0  0
   37.3590   31.8400   40.5650 S   0  0  0  0  0  0  0  0  0  0  0  0
   37.1610   25.3800   41.6870 C   0  0  0  0  0  0  0  0  0  0  0  0
   36.5450   25.2580   40.4640 F   0  0  0  0  0  0  0  0  0  0  0  0
   38.3970   24.7810   41.6030 F   0  0  0  0  0  0  0  0  0  0  0  0
   36.4080   24.7000   42.6480 F   0  0  0  0  0  0  0  0  0  0  0  0
  1  7  1  0  0  0  0
  2  1  1  0  0  0  0
  2  8  1  0  0  0  0
  3  2  2  0  0  0  0
  4  5  2  0  0  0  0
  4  3  1  0  0  0  0
  5  6  1  0  0  0  0
  6  1  2  0  0  0  0
  9 13  1  0  0  0  0
  9  5  1  0  0  0  0
 10  9  2  0  0  0  0
 11 12  2  0  0  0  0
 11 10  1  0  0  0  0
 12 13  1  0  0  0  0
 14  3  1  0  0  0  0
 14 17  1  0  0  0  0
 15 14  1  0  0  0  0
 16 14  1  0  0  0  0
M  END
>  <minimizedAffinity>
-4.4682107

>  <minimizedRMSD>
1.38906932

$$$$
