
 OpenBabel03242509273D

 44 48  0  0  0  0  0  0  0  0999 V2000
   36.1270   30.0730   41.0940 C   0  0  0  0  0  0  0  0  0  0  0  0
   35.5330   30.5910   41.8970 H   0  0  0  0  0  0  0  0  0  0  0  0
   36.7490   30.8660   40.6300 H   0  0  0  0  0  0  0  0  0  0  0  0
   38.5670   28.1060   42.6890 C   0  0  0  0  0  0  0  0  0  0  0  0
   37.4720   27.2940   42.7920 C   0  0  0  0  0  0  0  0  0  0  0  0
   36.4130   27.9720   42.1830 C   0  0  0  0  0  0  0  0  0  0  0  0
   36.9510   29.1260   41.7670 N   0  0  0  0  0  0  0  0  0  0  0  0
   38.2110   29.2460   42.0420 N   0  0  0  0  0  0  0  0  0  0  0  0
   37.4610   26.3200   43.2620 H   0  0  0  0  0  0  0  0  0  0  0  0
   35.4200   27.5610   42.1190 H   0  0  0  0  0  0  0  0  0  0  0  0
   41.4880   26.3670   44.2280 C   0  0  0  0  0  0  0  0  0  0  0  0
   40.1900   26.5970   43.7570 C   0  0  0  0  0  0  0  0  0  0  0  0
   39.9030   27.8390   43.1770 C   0  0  0  0  0  0  0  0  0  0  0  0
   40.8750   28.7840   43.0810 N   0  0  0  0  0  0  0  0  0  0  0  0
   42.1210   28.4950   43.5600 C   0  0  0  0  0  0  0  0  0  0  0  0
   42.4220   27.3180   44.1180 N   0  0  0  0  0  0  0  0  0  0  0  0
   41.6480   25.3890   44.6660 H   0  0  0  0  0  0  0  0  0  0  0  0
   39.4320   25.8270   43.8440 H   0  0  0  0  0  0  0  0  0  0  0  0
   43.2010   29.4540   43.4910 C   0  0  0  0  0  0  0  0  0  0  0  0
   43.3820   30.6610   44.0270 C   0  0  0  0  0  3  0  0  0  0  0  0
   44.5110   31.4030   43.8180 C   0  0  0  0  0  3  0  0  0  0  0  0
   45.4910   30.7050   42.9330 C   0  0  0  0  0  3  0  0  0  0  0  0
   44.6260   29.0860   42.5430 S   0  0  0  0  0  0  0  0  0  0  0  0
   35.2350   29.5140   40.0310 C   0  0  0  0  0  0  0  0  0  0  0  0
   34.7510   28.6170   40.3930 H   0  0  0  0  0  0  0  0  0  0  0  0
   34.5320   30.4080   39.9090 H   0  0  0  0  0  0  0  0  0  0  0  0
   35.8560   29.4290   38.6930 C   0  0  0  0  0  0  0  0  0  0  0  0
   37.1780   29.5650   38.3720 C   0  0  0  0  0  0  0  0  0  0  0  0
   37.7050   29.5470   37.1130 C   0  0  0  0  0  0  0  0  0  0  0  0
   36.8670   29.3800   36.0340 C   0  0  0  0  0  0  0  0  0  0  0  0
   35.5180   29.2350   36.2880 C   0  0  0  0  0  0  0  0  0  0  0  0
   34.7330   29.0750   35.1720 C   0  0  0  0  0  0  0  0  0  0  0  0
   33.3780   28.9220   35.3130 C   0  0  0  0  0  0  0  0  0  0  0  0
   32.8270   28.9280   36.5760 C   0  0  0  0  0  0  0  0  0  0  0  0
   33.6630   29.0910   37.6440 C   0  0  0  0  0  0  0  0  0  0  0  0
   35.0070   29.2540   37.5840 C   0  0  0  0  0  0  0  0  0  0  0  0
   37.8380   29.6980   39.2370 H   0  0  0  0  0  0  0  0  0  0  0  0
   38.7740   29.6680   37.0270 H   0  0  0  0  0  0  0  0  0  0  0  0
   37.2960   29.3700   35.0520 H   0  0  0  0  0  0  0  0  0  0  0  0
   35.1400   29.0640   34.1630 H   0  0  0  0  0  0  0  0  0  0  0  0
   32.7670   28.7980   34.4250 H   0  0  0  0  0  0  0  0  0  0  0  0
   31.7570   28.8050   36.6860 H   0  0  0  0  0  0  0  0  0  0  0  0
   33.0490   29.0720   38.8890 O   0  0  0  0  0  0  0  0  0  0  0  0
   32.6640   28.2160   39.2720 H   0  0  0  0  0  0  0  0  0  0  0  0
  1  7  1  0  0  0  0
  1  2  1  0  0  0  0
  3  1  1  0  0  0  0
  4  5  1  0  0  0  0
  4 13  1  0  0  0  0
  5  9  1  0  0  0  0
  6  5  2  0  0  0  0
  7  8  1  0  0  0  0
  7  6  1  0  0  0  0
  8  4  2  0  0  0  0
 10  6  1  0  0  0  0
 11 17  1  0  0  0  0
 12 18  1  0  0  0  0
 12 11  2  0  0  0  0
 13 12  1  0  0  0  0
 14 13  2  0  0  0  0
 14 15  1  0  0  0  0
 15 16  2  0  0  0  0
 16 11  1  0  0  0  0
 19 15  1  0  0  0  0
 19 20  2  0  0  0  0
 21 20  1  0  0  0  0
 22 21  2  0  0  0  0
 23 22  1  0  0  0  0
 23 19  1  0  0  0  0
 24 25  1  0  0  0  0
 24  1  1  0  0  0  0
 26 24  1  0  0  0  0
 27 24  1  0  0  0  0
 28 27  1  0  0  0  0
 28 37  1  0  0  0  0
 29 28  2  0  0  0  0
 30 31  2  0  0  0  0
 30 29  1  0  0  0  0
 31 36  1  0  0  0  0
 32 33  2  0  0  0  0
 32 31  1  0  0  0  0
 33 34  1  0  0  0  0
 34 42  1  0  0  0  0
 34 35  2  0  0  0  0
 35 43  1  0  0  0  0
 36 35  1  0  0  0  0
 36 27  2  0  0  0  0
 38 29  1  0  0  0  0
 39 30  1  0  0  0  0
 40 32  1  0  0  0  0
 41 33  1  0  0  0  0
 43 44  1  0  0  0  0
M  END
>  <minimizedAffinity>
-5.9613595

>  <minimizedRMSD>
0.577619374

$$$$
