
 OpenBabel03242509273D

 44 48  0  0  0  0  0  0  0  0999 V2000
   36.0150   30.0030   40.9430 C   0  0  0  0  0  0  0  0  0  0  0  0
   35.3970   30.5240   41.7260 H   0  0  0  0  0  0  0  0  0  0  0  0
   36.6350   30.7980   40.4810 H   0  0  0  0  0  0  0  0  0  0  0  0
   38.4460   28.0940   42.6170 C   0  0  0  0  0  0  0  0  0  0  0  0
   37.3620   27.2650   42.7050 C   0  0  0  0  0  0  0  0  0  0  0  0
   36.3070   27.9200   42.0640 C   0  0  0  0  0  0  0  0  0  0  0  0
   36.8370   29.0770   41.6460 N   0  0  0  0  0  0  0  0  0  0  0  0
   38.0880   29.2200   41.9490 N   0  0  0  0  0  0  0  0  0  0  0  0
   37.3550   26.2970   43.1870 H   0  0  0  0  0  0  0  0  0  0  0  0
   35.3220   27.4930   41.9820 H   0  0  0  0  0  0  0  0  0  0  0  0
   41.3440   26.4360   44.2850 C   0  0  0  0  0  0  0  0  0  0  0  0
   40.0530   26.6410   43.7830 C   0  0  0  0  0  0  0  0  0  0  0  0
   39.7740   27.8530   43.1400 C   0  0  0  0  0  0  0  0  0  0  0  0
   40.7470   28.7940   43.0140 N   0  0  0  0  0  0  0  0  0  0  0  0
   41.9850   28.5310   43.5260 C   0  0  0  0  0  0  0  0  0  0  0  0
   42.2780   27.3830   44.1450 N   0  0  0  0  0  0  0  0  0  0  0  0
   41.4980   25.4810   44.7720 H   0  0  0  0  0  0  0  0  0  0  0  0
   39.2950   25.8750   43.8950 H   0  0  0  0  0  0  0  0  0  0  0  0
   43.0650   29.4870   43.4280 C   0  0  0  0  0  0  0  0  0  0  0  0
   43.2730   30.6850   43.9770 C   0  0  0  0  0  3  0  0  0  0  0  0
   44.3950   31.4250   43.7340 C   0  0  0  0  0  3  0  0  0  0  0  0
   45.3350   30.7400   42.7960 C   0  0  0  0  0  3  0  0  0  0  0  0
   44.4470   29.1310   42.4150 S   0  0  0  0  0  0  0  0  0  0  0  0
   35.1530   29.4170   39.8700 C   0  0  0  0  0  0  0  0  0  0  0  0
   34.7080   28.4950   40.2190 H   0  0  0  0  0  0  0  0  0  0  0  0
   34.4110   30.2800   39.7550 H   0  0  0  0  0  0  0  0  0  0  0  0
   35.7810   29.3770   38.5330 C   0  0  0  0  0  0  0  0  0  0  0  0
   37.1070   29.5160   38.2260 C   0  0  0  0  0  0  0  0  0  0  0  0
   37.6410   29.5400   36.9700 C   0  0  0  0  0  0  0  0  0  0  0  0
   36.8090   29.4160   35.8810 C   0  0  0  0  0  0  0  0  0  0  0  0
   35.4570   29.2710   36.1210 C   0  0  0  0  0  0  0  0  0  0  0  0
   34.6790   29.1570   34.9950 C   0  0  0  0  0  0  0  0  0  0  0  0
   33.3220   29.0070   35.1220 C   0  0  0  0  0  0  0  0  0  0  0  0
   32.7630   28.9710   36.3810 C   0  0  0  0  0  0  0  0  0  0  0  0
   33.5930   29.0900   37.4590 C   0  0  0  0  0  0  0  0  0  0  0  0
   34.9380   29.2470   37.4140 C   0  0  0  0  0  0  0  0  0  0  0  0
   37.7610   29.6130   39.0990 H   0  0  0  0  0  0  0  0  0  0  0  0
   38.7110   29.6570   36.8960 H   0  0  0  0  0  0  0  0  0  0  0  0
   37.2440   29.4390   34.9010 H   0  0  0  0  0  0  0  0  0  0  0  0
   35.0920   29.1790   33.9890 H   0  0  0  0  0  0  0  0  0  0  0  0
   32.7160   28.9200   34.2260 H   0  0  0  0  0  0  0  0  0  0  0  0
   31.6920   28.8520   36.4810 H   0  0  0  0  0  0  0  0  0  0  0  0
   32.9710   29.0300   38.6990 O   0  0  0  0  0  0  0  0  0  0  0  0
   32.5780   28.1640   39.0490 H   0  0  0  0  0  0  0  0  0  0  0  0
  1  7  1  0  0  0  0
  1  2  1  0  0  0  0
  3  1  1  0  0  0  0
  4  5  1  0  0  0  0
  4 13  1  0  0  0  0
  5  9  1  0  0  0  0
  6  5  2  0  0  0  0
  7  8  1  0  0  0  0
  7  6  1  0  0  0  0
  8  4  2  0  0  0  0
 10  6  1  0  0  0  0
 11 17  1  0  0  0  0
 12 18  1  0  0  0  0
 12 11  2  0  0  0  0
 13 12  1  0  0  0  0
 14 13  2  0  0  0  0
 14 15  1  0  0  0  0
 15 16  2  0  0  0  0
 16 11  1  0  0  0  0
 19 15  1  0  0  0  0
 19 20  2  0  0  0  0
 21 20  1  0  0  0  0
 22 21  2  0  0  0  0
 23 22  1  0  0  0  0
 23 19  1  0  0  0  0
 24 25  1  0  0  0  0
 24  1  1  0  0  0  0
 26 24  1  0  0  0  0
 27 24  1  0  0  0  0
 28 27  1  0  0  0  0
 28 37  1  0  0  0  0
 29 28  2  0  0  0  0
 30 31  2  0  0  0  0
 30 29  1  0  0  0  0
 31 36  1  0  0  0  0
 32 33  2  0  0  0  0
 32 31  1  0  0  0  0
 33 34  1  0  0  0  0
 34 42  1  0  0  0  0
 34 35  2  0  0  0  0
 35 43  1  0  0  0  0
 36 35  1  0  0  0  0
 36 27  2  0  0  0  0
 38 29  1  0  0  0  0
 39 30  1  0  0  0  0
 40 32  1  0  0  0  0
 41 33  1  0  0  0  0
 43 44  1  0  0  0  0
M  END
>  <minimizedAffinity>
-5.98551226

>  <minimizedRMSD>
0.418778718

$$$$
