
 OpenBabel03242508553D

 35 38  0  0  0  0  0  0  0  0999 V2000
   37.6300   28.1960   41.4350 C   0  0  0  0  0  0  0  0  0  0  0  0
   36.3740   27.9350   40.8770 C   0  0  0  0  0  0  0  0  0  0  0  0
   35.9210   29.0940   40.3700 N   0  0  0  0  0  0  0  0  0  0  0  0
   36.7980   30.0900   40.5620 C   0  0  0  0  0  0  0  0  0  0  0  0
   36.7090   31.4150   40.1960 C   0  0  0  0  0  0  0  0  0  0  0  0
   37.7820   32.2340   40.5270 C   0  0  0  0  0  0  0  0  0  0  0  0
   38.8990   31.7230   41.2050 C   0  0  0  0  0  0  0  0  0  0  0  0
   38.9720   30.4000   41.5640 C   0  0  0  0  0  0  0  0  0  0  0  0
   37.8970   29.5580   41.2360 C   0  0  0  0  0  0  0  0  0  0  0  0
   35.9260   26.9460   40.8960 H   0  0  0  0  0  0  0  0  0  0  0  0
   35.8340   31.7770   39.6740 H   0  0  0  0  0  0  0  0  0  0  0  0
   37.7410   33.2930   40.2490 H   0  0  0  0  0  0  0  0  0  0  0  0
   39.7040   32.4080   41.4380 H   0  0  0  0  0  0  0  0  0  0  0  0
   39.8220   29.9810   42.0860 H   0  0  0  0  0  0  0  0  0  0  0  0
   39.6330   26.6160   44.0530 C   0  0  0  0  0  0  0  0  0  0  0  0
   40.1750   25.4730   43.3820 C   0  0  0  0  0  0  0  0  0  0  0  0
   39.8330   25.2730   42.0310 C   0  0  0  0  0  0  0  0  0  0  0  0
   39.0130   26.1720   41.4460 N   0  0  0  0  0  0  0  0  0  0  0  0
   38.5150   27.2460   42.1050 C   0  0  0  0  0  0  0  0  0  0  0  0
   38.8210   27.4690   43.4010 N   0  0  0  0  0  0  0  0  0  0  0  0
   39.8780   26.7880   45.0780 H   0  0  0  0  0  0  0  0  0  0  0  0
   40.8170   24.8090   43.9200 H   0  0  0  0  0  0  0  0  0  0  0  0
   40.2380   24.4180   41.5300 H   0  0  0  0  0  0  0  0  0  0  0  0
   34.6400   29.1440   39.7230 C   0  0  0  0  0  0  0  0  0  0  0  0
   33.8350   28.7420   40.3730 H   0  0  0  0  0  0  0  0  0  0  0  0
   34.3860   30.2310   39.6130 H   0  0  0  0  0  0  0  0  0  0  0  0
   34.6240   28.4770   38.3630 C   0  0  0  0  0  0  0  0  0  0  0  0
   34.4610   27.3930   38.5330 H   0  0  0  0  0  0  0  0  0  0  0  0
   35.5150   28.7250   37.7880 H   0  0  0  0  0  0  0  0  0  0  0  0
   33.4080   29.0080   37.6500 C   0  0  0  0  0  0  0  0  0  0  0  0
   32.2420   29.4520   38.1320 N   0  0  0  0  0  0  0  0  0  0  0  0
   31.4780   29.8160   37.1350 O   0  0  0  0  0  0  0  0  0  0  0  0
   32.0770   29.6380   35.9900 C   0  0  0  0  0  0  0  0  0  0  0  0
   31.7350   29.8320   34.9820 H   0  0  0  0  0  0  0  0  0  0  0  0
   33.2930   29.1290   36.2960 N   0  0  0  0  0  0  0  0  0  0  0  0
  1 19  1  0  0  0  0
  2 10  1  0  0  0  0
  2  1  2  0  0  0  0
  3  4  1  0  0  0  0
  3  2  1  0  0  0  0
  4  9  1  0  0  0  0
  5  6  1  0  0  0  0
  5  4  2  0  0  0  0
  6  7  2  0  0  0  0
  7 13  1  0  0  0  0
  7  8  1  0  0  0  0
  8 14  1  0  0  0  0
  9  1  1  0  0  0  0
  9  8  2  0  0  0  0
 11  5  1  0  0  0  0
 12  6  1  0  0  0  0
 15 21  1  0  0  0  0
 16 22  1  0  0  0  0
 16 15  2  0  0  0  0
 17 16  1  0  0  0  0
 18 17  2  0  0  0  0
 18 19  1  0  0  0  0
 19 20  2  0  0  0  0
 20 15  1  0  0  0  0
 23 17  1  0  0  0  0
 24  3  1  0  0  0  0
 24 25  1  0  0  0  0
 26 24  1  0  0  0  0
 27 28  1  0  0  0  0
 27 24  1  0  0  0  0
 29 27  1  0  0  0  0
 30 31  2  0  0  0  0
 30 27  1  0  0  0  0
 32 31  1  0  0  0  0
 33 35  2  0  0  0  0
 33 32  1  0  0  0  0
 34 33  1  0  0  0  0
 35 30  1  0  0  0  0
M  END
>  <minimizedAffinity>
-4.74452066

>  <minimizedRMSD>
0.554792404

$$$$
