
 OpenBabel03242507073D

 34 36  0  0  0  0  0  0  0  0999 V2000
   36.1380   29.1330   41.2120 C   0  0  0  0  0  0  0  0  0  0  0  0
   35.8880   28.1580   40.7610 H   0  0  0  0  0  0  0  0  0  0  0  0
   35.1880   29.4860   41.6780 H   0  0  0  0  0  0  0  0  0  0  0  0
   37.1350   28.9310   42.2870 C   0  0  0  0  0  0  0  0  0  0  0  0
   36.6130   27.7410   43.1080 C   0  0  0  0  0  0  0  0  0  0  0  0
   37.5630   27.5930   44.2970 C   0  0  0  0  0  0  0  0  0  0  0  0
   38.8630   27.0600   43.7010 C   0  0  0  0  0  0  0  0  0  0  0  0
   39.4210   28.1830   42.8710 C   0  0  0  0  0  0  0  0  0  0  0  0
   38.5060   28.5990   41.7670 C   0  0  0  0  0  0  0  0  0  0  0  0
   37.1940   29.7910   42.9750 H   0  0  0  0  0  0  0  0  0  0  0  0
   35.6100   27.9610   43.5030 H   0  0  0  0  0  0  0  0  0  0  0  0
   36.6030   26.8300   42.5110 H   0  0  0  0  0  0  0  0  0  0  0  0
   37.6970   28.5870   44.7520 H   0  0  0  0  0  0  0  0  0  0  0  0
   37.1720   26.8390   45.0050 H   0  0  0  0  0  0  0  0  0  0  0  0
   39.5860   26.7400   44.4510 H   0  0  0  0  0  0  0  0  0  0  0  0
   38.5770   26.2540   42.9880 H   0  0  0  0  0  0  0  0  0  0  0  0
   40.4170   27.9480   42.4410 H   0  0  0  0  0  0  0  0  0  0  0  0
   39.5830   29.0560   43.5520 H   0  0  0  0  0  0  0  0  0  0  0  0
   38.4680   27.8820   40.9440 H   0  0  0  0  0  0  0  0  0  0  0  0
   38.9120   29.5520   41.3320 H   0  0  0  0  0  0  0  0  0  0  0  0
   37.1630   32.2600   39.5970 C   0  0  0  0  0  0  0  0  0  0  0  0
   37.2200   31.8940   38.2630 C   0  0  0  0  0  0  0  0  0  0  0  0
   36.9200   30.6020   37.8600 C   0  0  0  0  0  0  0  0  0  0  0  0
   36.5720   29.7390   38.8590 N   0  0  0  0  0  0  0  0  0  0  0  0
   36.5210   30.1070   40.1560 C   0  0  0  0  0  0  0  0  0  0  0  0
   36.8170   31.3600   40.5010 N   0  0  0  0  0  0  0  0  0  0  0  0
   37.3930   33.2600   39.9210 H   0  0  0  0  0  0  0  0  0  0  0  0
   37.5100   32.6900   37.5910 H   0  0  0  0  0  0  0  0  0  0  0  0
   36.9750   30.2480   36.5570 O   0  0  0  0  0  0  0  0  0  0  0  0
   36.3930   29.2250   35.8720 C   0  0  0  0  0  0  0  0  0  0  0  0
   36.6310   29.2270   34.3810 C   0  0  0  0  0  0  0  0  0  0  0  0
   35.6930   28.1330   33.9110 C   0  0  0  0  0  0  0  0  0  0  0  0
   34.6390   27.9790   35.0060 C   0  0  0  0  0  0  0  0  0  0  0  0
   34.8840   29.1940   35.9110 C   0  0  0  0  0  0  0  0  0  0  0  0
  1  3  1  0  0  0  0
  1  4  1  0  0  0  0
  2  1  1  0  0  0  0
  4 10  1  0  0  0  0
  4  5  1  0  0  0  0
  5 11  1  0  0  0  0
  5  6  1  0  0  0  0
  6 13  1  0  0  0  0
  6 14  1  0  0  0  0
  7  6  1  0  0  0  0
  7 15  1  0  0  0  0
  8 18  1  0  0  0  0
  8  7  1  0  0  0  0
  9  4  1  0  0  0  0
  9  8  1  0  0  0  0
 12  5  1  0  0  0  0
 16  7  1  0  0  0  0
 17  8  1  0  0  0  0
 19  9  1  0  0  0  0
 20  9  1  0  0  0  0
 21 27  1  0  0  0  0
 21 26  1  0  0  0  0
 22 21  2  0  0  0  0
 23 22  1  0  0  0  0
 23 24  2  0  0  0  0
 24 25  1  0  0  0  0
 25 26  2  0  0  0  0
 25  1  1  0  0  0  0
 28 22  1  0  0  0  0
 29 23  1  0  0  0  0
 30 34  1  0  0  0  0
 30 29  1  0  0  0  0
 31 30  1  0  0  0  0
 32 31  1  0  0  0  0
 32 33  1  0  0  0  0
 33 34  1  0  0  0  0
M  END
>  <minimizedAffinity>
-4.76541519

>  <minimizedRMSD>
7.78895617

$$$$
