
 OpenBabel03242503503D

 43 47  0  0  1  0  0  0  0  0999 V2000
   37.3190   26.4130   42.7940 C   0  0  0  0  0  0  0  0  0  0  0  0
   37.0100   25.6770   43.5770 H   0  0  0  0  0  0  0  0  0  0  0  0
   38.4370   26.4340   42.8320 H   0  0  0  0  0  0  0  0  0  0  0  0
   36.9420   25.9450   41.4590 C   0  0  0  0  0  0  0  0  0  0  0  0
   36.7370   24.6110   41.1800 C   0  0  0  0  0  0  0  0  0  0  0  0
   36.3830   24.3180   39.8690 C   0  0  0  0  0  0  0  0  0  0  0  0
   36.2580   25.3330   38.9470 C   0  0  0  0  0  0  0  0  0  0  0  0
   36.4680   26.6660   39.2490 C   0  0  0  0  0  0  0  0  0  0  0  0
   36.8130   26.9260   40.5360 N   0  0  0  0  0  0  0  0  0  0  0  0
   36.8480   23.8650   41.9320 H   0  0  0  0  0  0  0  0  0  0  0  0
   36.2040   23.2910   39.5680 H   0  0  0  0  0  0  0  0  0  0  0  0
   35.9820   25.1180   37.9190 H   0  0  0  0  0  0  0  0  0  0  0  0
   36.3400   27.7390   38.2920 C   0  0  0  0  0  0  0  0  0  0  0  0
   35.8870   28.9250   38.7460 N   0  0  0  0  0  0  0  0  0  0  0  0
   35.8320   29.7710   37.7750 O   0  0  0  0  0  0  0  0  0  0  0  0
   36.2410   29.1510   36.6990 C   0  0  0  0  0  0  0  0  0  0  0  0
   36.5680   27.8720   36.9890 N   0  0  0  0  0  0  0  0  0  0  0  0
   36.3530   29.6870   35.3700 C   0  0  0  0  0  0  0  0  0  0  0  0
   36.5100   31.1000   35.0740 C   0  0  0  0  0  0  0  0  0  0  0  0
   36.5980   31.4150   33.7480 C   0  0  0  0  0  0  0  0  0  0  0  0
   36.5340   30.3800   32.7490 C   0  0  0  0  0  0  0  0  0  0  0  0
   36.3290   28.8520   33.8570 S   0  0  0  0  0  0  0  0  0  0  0  0
   36.8270   27.7610   43.1170 C   0  0  2  0  0  0  0  0  0  0  0  0
   35.8040   27.9120   42.7060 H   0  0  0  0  0  0  0  0  0  0  0  0
   38.4620   30.7270   41.7780 N   0  0  0  0  0  0  0  0  0  0  0  0
   39.4570   30.0930   42.3980 C   0  0  0  0  0  0  0  0  0  0  0  0
   39.0270   28.9550   42.9580 N   0  0  0  0  0  0  0  0  0  0  0  0
   37.6870   28.8670   42.6770 C   0  0  0  0  0  0  0  0  0  0  0  0
   37.3960   29.9600   41.9630 N   0  0  0  0  0  0  0  0  0  0  0  0
   40.4470   30.5740   42.3610 H   0  0  0  0  0  0  0  0  0  0  0  0
   37.1790   32.1820   40.1890 C   0  0  0  0  0  0  0  0  0  0  0  0
   38.2660   31.9260   41.0270 C   0  0  0  0  0  0  0  0  0  0  0  0
   39.2770   32.9330   41.1580 C   0  0  0  0  0  0  0  0  0  0  0  0
   39.1100   34.0690   40.4600 N   0  0  0  0  0  0  0  0  0  0  0  0
   38.0470   34.2610   39.6710 C   0  0  0  0  0  0  0  0  0  0  0  0
   37.1010   33.3340   39.5390 N   0  0  0  0  0  0  0  0  0  0  0  0
   36.4660   31.3510   40.1580 H   0  0  0  0  0  0  0  0  0  0  0  0
   40.1430   32.7870   41.7960 H   0  0  0  0  0  0  0  0  0  0  0  0
   37.8800   35.1690   39.0900 H   0  0  0  0  0  0  0  0  0  0  0  0
   36.7300   27.9010   44.6600 C   0  0  0  0  0  0  0  0  0  0  0  0
   35.7740   27.3930   44.9320 H   0  0  0  0  0  0  0  0  0  0  0  0
   37.5960   27.3590   45.0940 H   0  0  0  0  0  0  0  0  0  0  0  0
   36.6980   28.9710   44.9090 H   0  0  0  0  0  0  0  0  0  0  0  0
  1  3  1  0  0  0  0
  1 23  1  0  0  0  0
  1  2  1  0  0  0  0
  4  1  1  0  0  0  0
  5  4  1  0  0  0  0
  5 10  1  0  0  0  0
  6  5  2  0  0  0  0
  7  8  2  0  0  0  0
  7  6  1  0  0  0  0
  8  9  1  0  0  0  0
  9  4  2  0  0  0  0
 11  6  1  0  0  0  0
 12  7  1  0  0  0  0
 13 14  2  0  0  0  0
 13  8  1  0  0  0  0
 15 14  1  0  0  0  0
 16 17  2  0  0  0  0
 16 15  1  0  0  0  0
 17 13  1  0  0  0  0
 18 16  1  0  0  0  0
 19 18  2  0  0  0  0
 20 19  1  0  0  0  0
 21 20  2  0  0  0  0
 21 22  1  0  0  0  0
 22 18  1  0  0  0  0
 23 24  1  6  0  0  0
 23 40  1  0  0  0  0
 25 29  1  0  0  0  0
 25 26  1  0  0  0  0
 26 27  2  0  0  0  0
 28 27  1  0  0  0  0
 28 23  1  0  0  0  0
 29 28  2  0  0  0  0
 30 26  1  0  0  0  0
 31 32  1  0  0  0  0
 32 33  2  0  0  0  0
 32 25  1  0  0  0  0
 33 38  1  0  0  0  0
 34 33  1  0  0  0  0
 35 34  2  0  0  0  0
 36 35  1  0  0  0  0
 36 31  2  0  0  0  0
 37 31  1  0  0  0  0
 39 35  1  0  0  0  0
 40 43  1  0  0  0  0
 40 41  1  0  0  0  0
 40 42  1  0  0  0  0
M  END
>  <minimizedAffinity>
-6.1342597

>  <minimizedRMSD>
1.260741

$$$$
