
 OpenBabel03242509173D

 33 36  0  0  1  0  0  0  0  0999 V2000
   37.3040   27.7430   41.5040 C   0  0  0  0  0  0  0  0  0  0  0  0
   37.4910   26.7930   42.5150 C   0  0  0  0  0  0  0  0  0  0  0  0
   37.2490   25.4670   42.2640 C   0  0  0  0  0  0  0  0  0  0  0  0
   36.8180   25.0900   40.9890 C   0  0  0  0  0  0  0  0  0  0  0  0
   36.6440   26.0290   40.0130 C   0  0  0  0  0  0  0  0  0  0  0  0
   36.8990   27.3860   40.2900 C   0  0  0  0  0  0  0  0  0  0  0  0
   37.8250   27.1470   43.4730 H   0  0  0  0  0  0  0  0  0  0  0  0
   37.4220   24.8040   43.1110 H   0  0  0  0  0  0  0  0  0  0  0  0
   36.6730   24.0080   40.9720 H   0  0  0  0  0  0  0  0  0  0  0  0
   36.3130   25.5020   39.1320 H   0  0  0  0  0  0  0  0  0  0  0  0
   38.6570   29.9090   41.4280 C   0  0  1  0  0  0  0  0  0  0  0  0
   38.3590   29.6170   42.8430 C   0  0  0  0  0  0  0  0  0  0  0  0
   37.3290   29.1790   41.9050 C   0  0  2  0  0  0  0  0  0  0  0  0
   39.4100   29.3290   40.9380 H   0  0  0  0  0  0  0  0  0  0  0  0
   38.1500   30.5010   43.5180 H   0  0  0  0  0  0  0  0  0  0  0  0
   38.9900   28.8610   43.3500 H   0  0  0  0  0  0  0  0  0  0  0  0
   36.5020   29.7960   41.5120 H   0  0  0  0  0  0  0  0  0  0  0  0
   38.3820   31.3010   40.9000 C   0  0  0  0  0  0  0  0  0  0  0  0
   37.3590   31.4590   39.9190 C   0  0  0  0  0  0  0  0  0  0  0  0
   37.1300   32.7190   39.4220 C   0  0  0  0  0  0  0  0  0  0  0  0
   37.8940   33.7660   39.8940 N   0  0  0  0  0  0  0  0  0  0  0  0
   38.8610   33.5700   40.8360 C   0  0  0  0  0  0  0  0  0  0  0  0
   39.1000   32.3060   41.3420 N   0  0  0  0  0  0  0  0  0  0  0  0
   36.6830   30.7510   39.5060 H   0  0  0  0  0  0  0  0  0  0  0  0
   36.3910   32.9650   38.6790 H   0  0  0  0  0  0  0  0  0  0  0  0
   39.4060   34.4360   41.1490 H   0  0  0  0  0  0  0  0  0  0  0  0
   36.6580   28.0220   39.0180 C   0  0  0  0  0  0  0  0  0  0  0  0
   35.4140   28.5160   38.6100 C   0  0  0  0  0  0  0  0  0  0  0  0
   35.1060   29.2350   37.4830 C   0  0  0  0  0  0  0  0  0  0  0  0
   36.1610   29.4850   36.6820 N   0  0  0  0  0  0  0  0  0  0  0  0
   37.3820   29.0520   36.9930 C   0  0  0  0  0  0  0  0  0  0  0  0
   38.2090   29.2830   36.3060 H   0  0  0  0  0  0  0  0  0  0  0  0
   37.5980   28.3570   38.1130 N   0  0  0  0  0  0  0  0  0  0  0  0
  1 13  1  0  0  0  0
  1  2  1  0  0  0  0
  2  7  1  0  0  0  0
  3  2  2  0  0  0  0
  3  8  1  0  0  0  0
  4  3  1  0  0  0  0
  5  6  1  0  0  0  0
  5  4  2  0  0  0  0
  6  1  2  0  0  0  0
  9  4  1  0  0  0  0
 10  5  1  0  0  0  0
 11 14  1  6  0  0  0
 11 13  1  0  0  0  0
 11 12  1  0  0  0  0
 12 16  1  0  0  0  0
 12 15  1  0  0  0  0
 13 17  1  6  0  0  0
 13 12  1  0  0  0  0
 18 23  1  0  0  0  0
 18 11  1  0  0  0  0
 19 18  2  0  0  0  0
 20 21  2  0  0  0  0
 20 19  1  0  0  0  0
 21 22  1  0  0  0  0
 22 26  1  0  0  0  0
 22 23  2  0  0  0  0
 24 19  1  0  0  0  0
 25 20  1  0  0  0  0
 27  6  1  0  0  0  0
 28 27  1  0  0  0  0
 29 28  2  0  0  0  0
 30 31  2  0  0  0  0
 30 29  1  0  0  0  0
 31 33  1  0  0  0  0
 32 31  1  0  0  0  0
 33 27  2  0  0  0  0
M  END
>  <minimizedAffinity>
-5.43614054

>  <minimizedRMSD>
0.27503705

$$$$
