
 OpenBabel03242507043D

 20 21  0  0  0  0  0  0  0  0999 V2000
   38.0520   28.9750   43.2810 C   0  0  0  0  0  0  0  0  0  0  0  0
   38.2150   27.5910   43.2830 C   0  0  0  0  0  0  0  0  0  0  0  0
   37.5050   26.7960   42.4000 C   0  0  0  0  0  0  0  0  0  0  0  0
   36.6440   27.4520   41.5360 N   0  0  0  0  0  0  0  0  0  0  0  0
   36.5090   28.7780   41.5590 C   0  0  0  0  0  0  0  0  0  0  0  0
   37.1990   29.5460   42.4160 N   0  0  0  0  0  0  0  0  0  0  0  0
   38.5850   29.6110   43.9500 H   0  0  0  0  0  0  0  0  0  0  0  0
   38.9290   27.2200   44.0210 H   0  0  0  0  0  0  0  0  0  0  0  0
   35.5830   29.4600   40.6260 C   0  0  0  0  0  0  0  0  0  0  0  0
   35.0310   28.6320   40.0920 H   0  0  0  0  0  0  0  0  0  0  0  0
   34.8040   30.0420   41.1360 H   0  0  0  0  0  0  0  0  0  0  0  0
   36.2900   30.3250   39.6730 C   0  0  0  0  0  0  0  0  0  0  0  0
   36.5920   29.7690   38.4470 C   0  0  0  0  0  0  0  0  0  0  0  0
   37.2610   30.4790   37.4480 C   0  0  0  0  0  0  0  0  0  0  0  0
   37.5060   30.0750   36.4930 H   0  0  0  0  0  0  0  0  0  0  0  0
   37.6090   31.7410   37.7230 N   0  0  0  0  0  0  0  0  0  0  0  0
   37.3260   32.3060   38.9120 C   0  0  0  0  0  0  0  0  0  0  0  0
   36.6800   31.6150   39.8710 N   0  0  0  0  0  0  0  0  0  0  0  0
   37.6960   25.4490   42.4350 O   0  0  0  0  0  0  0  0  0  0  0  0
   37.0390   24.8780   42.9530 H   0  0  0  0  0  0  0  0  0  0  0  0
  1  2  1  0  0  0  0
  1  7  1  0  0  0  0
  2  8  1  0  0  0  0
  3 19  1  0  0  0  0
  3  2  2  0  0  0  0
  4  5  2  0  0  0  0
  4  3  1  0  0  0  0
  5  6  1  0  0  0  0
  6  1  2  0  0  0  0
  9 11  1  0  0  0  0
  9  5  1  0  0  0  0
 10  9  1  0  0  0  0
 12 18  1  0  0  0  0
 12  9  1  0  0  0  0
 13 12  2  0  0  0  0
 14 16  2  0  0  0  0
 14 13  1  0  0  0  0
 15 14  1  0  0  0  0
 16 17  1  0  0  0  0
 17 18  2  0  0  0  0
 19 20  1  0  0  0  0
M  END
>  <minimizedAffinity>
-4.2128644

>  <minimizedRMSD>
1.04598081

$$$$
