
     RDKit          3D

 21 22  0  0  0  0  0  0  0  0999 V2000
   37.9691   28.8852   43.3759 C   0  0  0  0  0  0  0  0  0  0  0  0
   38.0870   27.4689   43.3180 C   0  0  0  0  0  0  0  0  0  0  0  0
   37.4365   26.8164   42.2506 C   0  0  0  0  0  0  0  0  0  0  0  0
   36.7373   27.5818   41.3437 N   0  0  0  0  0  0  0  0  0  0  0  0
   36.6591   28.9162   41.4469 C   0  0  0  0  0  0  0  0  0  0  0  0
   37.2650   29.5537   42.4458 N   0  0  0  0  0  0  0  0  0  0  0  0
   37.5308   25.3421   42.1484 C   0  0  0  0  0  0  0  0  0  0  0  0
   37.6514   25.0466   40.8165 F   0  0  0  0  0  0  0  0  0  0  0  0
   38.6266   24.8319   42.7847 F   0  0  0  0  0  0  0  0  0  0  0  0
   36.3833   24.7122   42.6426 F   0  0  0  0  0  0  0  0  0  0  0  0
   38.4619   29.4079   44.1892 H   0  0  0  0  0  0  0  0  0  0  0  0
   38.6412   26.9214   44.0467 H   0  0  0  0  0  0  0  0  0  0  0  0
   35.8905   29.6227   40.4277 C   0  0  0  0  0  0  0  0  0  0  0  0
   36.2468   29.5424   39.0764 C   0  0  0  0  0  0  0  0  0  0  0  0
   35.4570   30.2483   38.1781 C   0  0  0  0  0  0  0  0  0  0  0  0
   34.3952   30.9726   38.6277 N   0  0  0  0  0  0  0  0  0  0  0  0
   34.0651   31.0397   39.9334 C   0  0  0  0  0  0  0  0  0  0  0  0
   33.2256   31.6121   40.2910 H   0  0  0  0  0  0  0  0  0  0  0  0
   34.8192   30.3583   40.8455 N   0  0  0  0  0  0  0  0  0  0  0  0
   37.0885   28.9579   38.7960 H   0  0  0  0  0  0  0  0  0  0  0  0
   35.7020   30.2123   37.1060 H   0  0  0  0  0  0  0  0  0  0  0  0
  2  1  2  0
  3  2  1  0
  4  5  1  0
  4  3  2  0
  5  6  2  0
  6  1  1  0
  7  3  1  0
  7 10  1  0
  7  9  1  0
  8  7  1  0
  1 11  1  0
  2 12  1  0
 13 14  2  0
 14 15  1  0
 15 16  2  0
 16 17  1  0
 17 18  1  0
 17 19  2  0
 19 13  1  0
 14 20  1  0
 15 21  1  0
  5 13  1  0
M  ISO  3  11  14  12  14  18  14
M  END
>  <DihAtoms>  (1) 
3,4,12,13

>  <DihDeg>  (1) 
-179.99944550128976

$$$$
