
 OpenBabel03242509313D

 19 20  0  0  0  0  0  0  0  0999 V2000
   37.8710   28.6120   43.6340 C   0  0  0  0  0  0  0  0  0  0  0  0
   38.4420   27.3130   43.7400 C   0  0  0  0  0  0  0  0  0  0  0  0
   38.3580   26.4830   42.6040 C   0  0  0  0  0  0  0  0  0  0  0  0
   37.7350   26.9760   41.4780 N   0  0  0  0  0  0  0  0  0  0  0  0
   37.2140   28.2090   41.4330 C   0  0  0  0  0  0  0  0  0  0  0  0
   37.2820   29.0110   42.4930 N   0  0  0  0  0  0  0  0  0  0  0  0
   37.9250   29.2680   44.4960 H   0  0  0  0  0  0  0  0  0  0  0  0
   38.9130   26.9780   44.6370 H   0  0  0  0  0  0  0  0  0  0  0  0
   36.5790   28.6240   40.1870 C   0  0  0  0  0  0  0  0  0  0  0  0
   37.3460   28.9030   39.0490 C   0  0  0  0  0  3  0  0  0  0  0  0
   36.6550   29.2900   37.9080 C   0  0  0  0  0  3  0  0  0  0  0  0
   35.2960   29.3820   37.9330 N   0  0  0  0  0  0  0  0  0  0  0  0
   34.5720   29.1090   39.0360 C   0  0  0  0  0  0  0  0  0  0  0  0
   33.4980   29.1810   39.0580 H   0  0  0  0  0  0  0  0  0  0  0  0
   35.2170   28.7250   40.1780 N   0  0  0  0  0  0  0  0  0  0  0  0
   38.9380   25.1220   42.6660 C   0  0  0  0  0  0  0  0  0  0  0  0
   39.7400   24.9850   41.5640 F   0  0  0  0  0  0  0  0  0  0  0  0
   39.7160   24.9240   43.7710 F   0  0  0  0  0  0  0  0  0  0  0  0
   37.9480   24.1330   42.6220 F   0  0  0  0  0  0  0  0  0  0  0  0
  1  2  1  0  0  0  0
  1  7  1  0  0  0  0
  2  8  1  0  0  0  0
  3 16  1  0  0  0  0
  3  2  2  0  0  0  0
  4  3  1  0  0  0  0
  5  4  2  0  0  0  0
  5  6  1  0  0  0  0
  6  1  2  0  0  0  0
  9  5  1  0  0  0  0
 10  9  2  0  0  0  0
 11 12  2  0  0  0  0
 11 10  1  0  0  0  0
 12 13  1  0  0  0  0
 13 14  1  0  0  0  0
 13 15  2  0  0  0  0
 15  9  1  0  0  0  0
 16 18  1  0  0  0  0
 17 16  1  0  0  0  0
 19 16  1  0  0  0  0
M  END
>  <minimizedAffinity>
-4.10890007

>  <minimizedRMSD>
1.45097733

$$$$
