
 OpenBabel03242507573D

 29 32  0  0  0  0  0  0  0  0999 V2000
   37.5720   30.3450   40.6350 C   0  0  0  0  0  0  0  0  0  0  0  0
   37.5890   31.6840   40.9340 C   0  0  0  0  0  0  0  0  0  0  0  0
   37.4030   32.6010   39.9160 C   0  0  0  0  0  0  0  0  0  0  0  0
   37.2090   32.1250   38.6400 C   0  0  0  0  0  0  0  0  0  0  0  0
   37.1910   30.7950   38.3370 C   0  0  0  0  0  0  0  0  0  0  0  0
   37.3730   29.9240   39.3460 N   0  0  0  0  0  0  0  0  0  0  0  0
   37.7430   32.0400   41.9400 H   0  0  0  0  0  0  0  0  0  0  0  0
   37.4090   33.6670   40.0980 H   0  0  0  0  0  0  0  0  0  0  0  0
   37.0610   32.8270   37.8270 H   0  0  0  0  0  0  0  0  0  0  0  0
   39.2830   28.2390   43.0890 C   0  0  0  0  0  0  0  0  0  0  0  0
   38.2120   27.4750   43.6330 C   0  0  0  0  0  0  0  0  0  0  0  0
   36.9210   27.6930   43.1530 C   0  0  0  0  0  0  0  0  0  0  0  0
   36.7570   28.6300   42.1840 N   0  0  0  0  0  0  0  0  0  0  0  0
   37.7640   29.3400   41.6790 C   0  0  0  0  0  0  0  0  0  0  0  0
   39.0090   29.1310   42.1410 N   0  0  0  0  0  0  0  0  0  0  0  0
   40.2990   28.1240   43.4120 H   0  0  0  0  0  0  0  0  0  0  0  0
   38.4460   26.7510   44.4050 H   0  0  0  0  0  0  0  0  0  0  0  0
   36.1090   27.1170   43.5640 H   0  0  0  0  0  0  0  0  0  0  0  0
   36.9340   30.2030   36.6570 S   0  0  0  0  0  0  0  0  0  0  0  0
   35.7890   28.8170   36.7720 C   0  0  0  0  0  0  0  0  0  0  0  0
   34.4350   28.8890   37.0220 C   0  0  0  0  0  0  0  0  0  0  0  0
   33.7140   27.7100   37.0730 C   0  0  0  0  0  0  0  0  0  0  0  0
   34.2740   26.4730   36.8890 C   0  0  0  0  0  0  0  0  0  0  0  0
   35.6340   26.4330   36.6390 C   0  0  0  0  0  0  0  0  0  0  0  0
   36.1990   25.1810   36.4520 C   0  0  0  0  0  0  0  0  0  0  0  0
   37.5590   25.0670   36.1990 C   0  0  0  0  0  0  0  0  0  0  0  0
   38.3380   26.2000   36.1340 C   0  0  0  0  0  0  0  0  0  0  0  0
   37.7230   27.4030   36.3260 C   0  0  0  0  0  0  0  0  0  0  0  0
   36.3920   27.5910   36.5800 C   0  0  0  0  0  0  0  0  0  0  0  0
  1  2  1  0  0  0  0
  1 14  1  0  0  0  0
  2  7  1  0  0  0  0
  3  8  1  0  0  0  0
  3  2  2  0  0  0  0
  4  3  1  0  0  0  0
  5  4  2  0  0  0  0
  5  6  1  0  0  0  0
  6  1  2  0  0  0  0
  9  4  1  0  0  0  0
 10 16  1  0  0  0  0
 10 11  1  0  0  0  0
 11 17  1  0  0  0  0
 12 18  1  0  0  0  0
 12 11  2  0  0  0  0
 13 12  1  0  0  0  0
 14 15  1  0  0  0  0
 14 13  2  0  0  0  0
 15 10  2  0  0  0  0
 19 20  1  0  0  0  0
 19  5  1  0  0  0  0
 20 21  1  0  0  0  0
 21 22  2  0  0  0  0
 23 22  1  0  0  0  0
 24 23  2  0  0  0  0
 25 24  1  0  0  0  0
 26 25  2  0  0  0  0
 27 26  1  0  0  0  0
 27 28  2  0  0  0  0
 28 29  1  0  0  0  0
 29 24  1  0  0  0  0
 29 20  2  0  0  0  0
M  END
>  <minimizedAffinity>
-4.91666889

>  <minimizedRMSD>
4.090446

$$$$
