
 OpenBabel03242507423D

 34 37  0  0  0  0  0  0  0  0999 V2000
   38.0310   29.0560   43.2370 C   0  0  0  0  0  0  0  0  0  0  0  0
   37.9610   27.6800   42.9170 C   0  0  0  0  0  0  0  0  0  0  0  0
   38.5460   27.2850   41.7090 C   0  0  0  0  0  0  0  0  0  0  0  0
   39.1320   28.2130   40.9330 N   0  0  0  0  0  0  0  0  0  0  0  0
   39.1860   29.5230   41.2600 C   0  0  0  0  0  0  0  0  0  0  0  0
   38.6300   29.9420   42.4220 N   0  0  0  0  0  0  0  0  0  0  0  0
   38.5510   25.9550   41.2640 N   0  0  0  0  0  0  0  0  0  0  0  0
   39.7990   30.5120   40.4540 N   0  0  0  0  0  0  0  0  0  0  0  0
   40.3970   30.0840   39.3270 C   0  0  0  0  0  0  0  0  0  0  0  0
   41.0460   30.8830   38.4150 C   0  0  0  0  0  0  0  0  0  0  0  0
   41.0720   32.2330   38.6990 C   0  0  0  0  0  0  0  0  0  0  0  0
   41.6380   33.0470   37.9290 O   0  0  0  0  0  0  0  0  0  0  0  0
   40.4740   32.6580   39.8260 N   0  0  0  0  0  0  0  0  0  0  0  0
   39.8440   31.8440   40.7040 C   0  0  0  0  0  0  0  0  0  0  0  0
   39.2830   32.2110   41.7540 O   0  0  0  0  0  0  0  0  0  0  0  0
   37.5830   29.3720   44.1680 H   0  0  0  0  0  0  0  0  0  0  0  0
   37.4910   26.9500   43.5440 H   0  0  0  0  0  0  0  0  0  0  0  0
   38.9940   25.3940   42.0340 H   0  0  0  0  0  0  0  0  0  0  0  0
   38.1380   25.8140   40.3150 H   0  0  0  0  0  0  0  0  0  0  0  0
   40.3950   29.0130   39.0690 H   0  0  0  0  0  0  0  0  0  0  0  0
   40.4570   34.0370   40.1930 C   0  0  0  0  0  0  0  0  0  0  0  0
   39.3880   34.8230   39.7610 C   0  0  0  0  0  0  0  0  0  0  0  0
   39.3480   36.1390   40.0970 C   0  0  0  0  0  0  0  0  0  0  0  0
   40.3580   36.7070   40.8650 C   0  0  0  0  0  0  0  0  0  0  0  0
   41.4230   35.9220   41.2960 C   0  0  0  0  0  0  0  0  0  0  0  0
   42.4360   36.4660   42.0590 C   0  0  0  0  0  0  0  0  0  0  0  0
   43.4690   35.6830   42.4710 C   0  0  0  0  0  0  0  0  0  0  0  0
   43.5010   34.3660   42.1290 C   0  0  0  0  0  0  0  0  0  0  0  0
   42.5180   33.7350   41.3610 C   0  0  0  0  0  0  0  0  0  0  0  0
   41.4890   34.5700   40.9650 C   0  0  0  0  0  0  0  0  0  0  0  0
   41.6810   30.3210   37.1900 C   0  0  0  0  0  0  0  0  0  0  0  0
   42.6970   30.7270   37.0040 H   0  0  0  0  0  0  0  0  0  0  0  0
   41.0020   30.5190   36.3090 H   0  0  0  0  0  0  0  0  0  0  0  0
   41.6990   29.2170   37.3050 H   0  0  0  0  0  0  0  0  0  0  0  0
  1 16  1  0  0  0  0
  2  1  1  0  0  0  0
  2 17  1  0  0  0  0
  3  2  2  0  0  0  0
  4  5  2  0  0  0  0
  4  3  1  0  0  0  0
  5  6  1  0  0  0  0
  6  1  2  0  0  0  0
  7  3  1  0  0  0  0
  7 18  1  0  0  0  0
  8 14  1  0  0  0  0
  8  5  1  0  0  0  0
  9  8  1  0  0  0  0
 10 11  1  0  0  0  0
 10  9  2  0  0  0  0
 11 13  1  0  0  0  0
 12 11  2  0  0  0  0
 13 21  1  0  0  0  0
 13 14  1  0  0  0  0
 14 15  2  0  0  0  0
 19  7  1  0  0  0  0
 20  9  1  0  0  0  0
 21 30  1  0  0  0  0
 22 23  1  0  0  0  0
 22 21  2  0  0  0  0
 23 24  2  0  0  0  0
 24 25  1  0  0  0  0
 25 26  1  0  0  0  0
 26 27  2  0  0  0  0
 28 27  1  0  0  0  0
 29 28  2  0  0  0  0
 30 25  2  0  0  0  0
 30 29  1  0  0  0  0
 31 34  1  0  0  0  0
 31 10  1  0  0  0  0
 32 31  1  0  0  0  0
 33 31  1  0  0  0  0
M  END
>  <minimizedAffinity>
-6.83050585

>  <minimizedRMSD>
3.15458012

$$$$
