
 OpenBabel03242509313D

 19 20  0  0  0  0  0  0  0  0999 V2000
   37.8590   28.7090   43.5600 C   0  0  0  0  0  0  0  0  0  0  0  0
   38.3720   27.3880   43.6770 C   0  0  0  0  0  0  0  0  0  0  0  0
   38.3140   26.5750   42.5270 C   0  0  0  0  0  0  0  0  0  0  0  0
   37.7710   27.1050   41.3770 N   0  0  0  0  0  0  0  0  0  0  0  0
   37.3030   28.3600   41.3220 C   0  0  0  0  0  0  0  0  0  0  0  0
   37.3470   29.1460   42.3960 N   0  0  0  0  0  0  0  0  0  0  0  0
   37.8940   29.3530   44.4330 H   0  0  0  0  0  0  0  0  0  0  0  0
   38.7820   27.0240   44.5930 H   0  0  0  0  0  0  0  0  0  0  0  0
   36.7510   28.8140   40.0500 C   0  0  0  0  0  0  0  0  0  0  0  0
   37.1460   30.0350   39.4920 C   0  0  0  0  0  3  0  0  0  0  0  0
   36.5670   30.3840   38.2780 C   0  0  0  0  0  3  0  0  0  0  0  0
   35.6630   29.5530   37.6900 N   0  0  0  0  0  0  0  0  0  0  0  0
   35.2930   28.3790   38.2410 C   0  0  0  0  0  0  0  0  0  0  0  0
   34.5790   27.7200   37.7780 H   0  0  0  0  0  0  0  0  0  0  0  0
   35.8420   28.0030   39.4340 N   0  0  0  0  0  0  0  0  0  0  0  0
   38.8350   25.1910   42.6010 C   0  0  0  0  0  0  0  0  0  0  0  0
   39.6130   25.0030   41.4890 F   0  0  0  0  0  0  0  0  0  0  0  0
   39.6210   24.9750   43.6970 F   0  0  0  0  0  0  0  0  0  0  0  0
   37.8030   24.2450   42.5880 F   0  0  0  0  0  0  0  0  0  0  0  0
  1  2  1  0  0  0  0
  1  7  1  0  0  0  0
  2  8  1  0  0  0  0
  3 16  1  0  0  0  0
  3  2  2  0  0  0  0
  4  3  1  0  0  0  0
  5  4  2  0  0  0  0
  5  6  1  0  0  0  0
  6  1  2  0  0  0  0
  9  5  1  0  0  0  0
 10  9  1  0  0  0  0
 11 10  2  0  0  0  0
 12 13  2  0  0  0  0
 12 11  1  0  0  0  0
 13 15  1  0  0  0  0
 14 13  1  0  0  0  0
 15  9  2  0  0  0  0
 16 18  1  0  0  0  0
 17 16  1  0  0  0  0
 19 16  1  0  0  0  0
M  END
>  <minimizedAffinity>
-4.16023827

>  <minimizedRMSD>
1.36460507

$$$$
