REMARK  Name = 
REMARK  2 active torsions:
REMARK  status: ('A' for Active; 'I' for Inactive)
REMARK    1  A    between atoms: C_3  and  C_7
REMARK    2  A    between atoms: C_5  and  C_13
REMARK                            x       y       z     vdW  Elec       q    Type
REMARK                         _______ _______ _______ _____ _____    ______ ____
ROOT
ATOM      1  C   UNL     1      37.969  28.885  43.376  0.00  0.00    +0.000 A 
ATOM      2  C   UNL     1      38.087  27.469  43.318  0.00  0.00    +0.000 A 
ATOM      3  C   UNL     1      37.437  26.816  42.251  0.00  0.00    +0.000 A 
ATOM      4  N   UNL     1      36.737  27.582  41.344  0.00  0.00    +0.000 NA
ATOM      5  C   UNL     1      36.659  28.916  41.447  0.00  0.00    +0.000 A 
ATOM      6  N   UNL     1      37.265  29.554  42.446  0.00  0.00    +0.000 NA
ATOM      7  H   UNL     1      38.462  29.408  44.189  0.00  0.00    +0.000 HD
ATOM      8  H   UNL     1      38.641  26.921  44.047  0.00  0.00    +0.000 HD
ENDROOT
BRANCH   5   9
ATOM      9  C   UNL     1      35.891  29.623  40.428  0.00  0.00    +0.000 A 
ATOM     10  C   UNL     1      36.504  30.080  39.255  0.00  0.00    +0.000 A 
ATOM     11  C   UNL     1      35.693  30.742  38.343  0.00  0.00    +0.000 A 
ATOM     12  N   UNL     1      34.369  30.919  38.610  0.00  0.00    +0.000 NA
ATOM     13  C   UNL     1      33.794  30.472  39.744  0.00  0.00    +0.000 A 
ATOM     14  H   UNL     1      32.747  30.611  39.958  0.00  0.00    +0.000 HD
ATOM     15  N   UNL     1      34.560  29.816  40.665  0.00  0.00    +0.000 NA
ENDBRANCH   5   9
BRANCH   3  16
ATOM     16  C   UNL     1      37.531  25.342  42.148  0.00  0.00    +0.000 C 
ATOM     17  F   UNL     1      37.651  25.047  40.816  0.00  0.00    +0.000 F 
ATOM     18  F   UNL     1      38.627  24.832  42.785  0.00  0.00    +0.000 F 
ATOM     19  F   UNL     1      36.383  24.712  42.643  0.00  0.00    +0.000 F 
ENDBRANCH   3  16
TORSDOF 2
