
 OpenBabel03242508213D

 29 32  0  0  0  0  0  0  0  0999 V2000
   38.5960   27.2980   43.8420 C   0  0  0  0  0  0  0  0  0  0  0  0
   39.0660   26.3340   42.9490 C   0  0  0  0  0  0  0  0  0  0  0  0
   39.0620   26.6540   41.5920 C   0  0  0  0  0  0  0  0  0  0  0  0
   38.6020   27.8790   41.2150 N   0  0  0  0  0  0  0  0  0  0  0  0
   38.1520   28.7950   42.1090 C   0  0  0  0  0  0  0  0  0  0  0  0
   38.1510   28.4960   43.4310 N   0  0  0  0  0  0  0  0  0  0  0  0
   37.7270   29.9930   41.4800 N   0  0  0  0  0  0  0  0  0  0  0  0
   36.4320   30.1830   41.1220 C   0  0  0  0  0  0  0  0  0  0  0  0
   36.2830   31.3940   40.5470 N   0  0  0  0  0  0  0  0  0  0  0  0
   37.4780   31.9810   40.5340 C   0  0  0  0  0  0  0  0  0  0  0  0
   37.9740   33.2050   40.0890 C   0  0  0  0  0  0  0  0  0  0  0  0
   39.2960   33.4850   40.2410 N   0  0  0  0  0  0  0  0  0  0  0  0
   40.1270   32.6100   40.8100 C   0  0  0  0  0  0  0  0  0  0  0  0
   39.6740   31.4100   41.2530 N   0  0  0  0  0  0  0  0  0  0  0  0
   38.3590   31.1000   41.1160 C   0  0  0  0  0  0  0  0  0  0  0  0
   36.9990   34.0480   39.5030 N   0  0  0  0  0  0  0  0  0  0  0  0
   38.5550   27.1570   44.9150 H   0  0  0  0  0  0  0  0  0  0  0  0
   39.4090   25.3970   43.3260 H   0  0  0  0  0  0  0  0  0  0  0  0
   39.4180   25.9320   40.8680 H   0  0  0  0  0  0  0  0  0  0  0  0
   35.6050   29.4850   41.2630 H   0  0  0  0  0  0  0  0  0  0  0  0
   36.3560   33.7220   38.7670 H   0  0  0  0  0  0  0  0  0  0  0  0
   36.8900   35.0330   39.7920 H   0  0  0  0  0  0  0  0  0  0  0  0
   41.5420   32.9290   40.9630 C   0  0  0  0  0  0  0  0  0  0  0  0
   42.1640   33.8110   40.1040 C   0  0  0  0  0  0  0  0  0  0  0  0
   43.4790   34.1560   40.1860 C   0  0  0  0  0  0  0  0  0  0  0  0
   44.2300   33.5830   41.1990 C   0  0  0  0  0  0  0  0  0  0  0  0
   45.2580   33.8400   41.2790 H   0  0  0  0  0  0  0  0  0  0  0  0
   43.5880   32.6980   42.0560 C   0  0  0  0  0  0  0  0  0  0  0  0
   42.2660   32.3770   41.9400 N   0  0  0  0  0  0  0  0  0  0  0  0
  1 17  1  0  0  0  0
  2 18  1  0  0  0  0
  2  1  2  0  0  0  0
  3  2  1  0  0  0  0
  4  3  2  0  0  0  0
  4  5  1  0  0  0  0
  5  6  2  0  0  0  0
  6  1  1  0  0  0  0
  7  5  1  0  0  0  0
  8 20  1  0  0  0  0
  8  7  1  0  0  0  0
  9  8  2  0  0  0  0
 10  9  1  0  0  0  0
 10 15  1  0  0  0  0
 11 12  1  0  0  0  0
 11 10  2  0  0  0  0
 12 13  2  0  0  0  0
 13 23  1  0  0  0  0
 13 14  1  0  0  0  0
 15 14  2  0  0  0  0
 15  7  1  0  0  0  0
 16 22  1  0  0  0  0
 16 11  1  0  0  0  0
 19  3  1  0  0  0  0
 21 16  1  0  0  0  0
 23 29  1  0  0  0  0
 24 25  1  0  0  0  0
 24 23  2  0  0  0  0
 25 26  2  0  0  0  0
 26 27  1  0  0  0  0
 26 28  1  0  0  0  0
 29 28  2  0  0  0  0
M  END
>  <minimizedAffinity>
-6.00091648

>  <minimizedRMSD>
1.2860074

$$$$
