
 OpenBabel03242508553D

 36 39  0  0  0  0  0  0  0  0999 V2000
   37.6060   28.1650   41.3960 C   0  0  0  0  0  0  0  0  0  0  0  0
   36.3840   27.9070   40.7760 C   0  0  0  0  0  0  0  0  0  0  0  0
   35.9530   29.0690   40.2670 N   0  0  0  0  0  0  0  0  0  0  0  0
   36.8110   30.0680   40.5120 C   0  0  0  0  0  0  0  0  0  0  0  0
   36.7260   31.3930   40.1580 C   0  0  0  0  0  0  0  0  0  0  0  0
   37.7810   32.2250   40.5510 C   0  0  0  0  0  0  0  0  0  0  0  0
   38.8500   31.7080   41.2660 C   0  0  0  0  0  0  0  0  0  0  0  0
   38.9260   30.3770   41.6160 C   0  0  0  0  0  0  0  0  0  0  0  0
   37.8820   29.5360   41.2310 C   0  0  0  0  0  0  0  0  0  0  0  0
   35.9390   26.9190   40.7570 H   0  0  0  0  0  0  0  0  0  0  0  0
   35.9070   31.8180   39.6040 H   0  0  0  0  0  0  0  0  0  0  0  0
   37.8060   33.2820   40.3200 H   0  0  0  0  0  0  0  0  0  0  0  0
   39.6730   32.3400   41.5760 H   0  0  0  0  0  0  0  0  0  0  0  0
   39.7540   29.9440   42.1770 H   0  0  0  0  0  0  0  0  0  0  0  0
   39.5850   26.6240   44.0490 C   0  0  0  0  0  0  0  0  0  0  0  0
   40.0810   25.4420   43.4250 C   0  0  0  0  0  0  0  0  0  0  0  0
   39.7210   25.2020   42.0940 C   0  0  0  0  0  0  0  0  0  0  0  0
   38.9240   26.1050   41.4860 N   0  0  0  0  0  0  0  0  0  0  0  0
   38.4640   27.2170   42.0920 C   0  0  0  0  0  0  0  0  0  0  0  0
   38.7970   27.4700   43.3690 N   0  0  0  0  0  0  0  0  0  0  0  0
   39.8350   26.8530   45.0750 H   0  0  0  0  0  0  0  0  0  0  0  0
   40.7160   24.7650   43.9790 H   0  0  0  0  0  0  0  0  0  0  0  0
   40.0810   24.3060   41.5830 H   0  0  0  0  0  0  0  0  0  0  0  0
   34.6880   29.1300   39.5500 C   0  0  0  0  0  0  0  0  0  0  0  0
   34.0380   28.2640   39.7870 H   0  0  0  0  0  0  0  0  0  0  0  0
   34.1730   30.0390   39.9050 H   0  0  0  0  0  0  0  0  0  0  0  0
   34.8690   29.1370   38.0480 C   0  0  0  0  0  0  0  0  0  0  0  0
   34.8600   30.2200   37.7530 H   0  0  0  0  0  0  0  0  0  0  0  0
   35.8530   28.7640   37.7670 H   0  0  0  0  0  0  0  0  0  0  0  0
   33.7300   28.5130   37.3420 C   0  0  0  0  0  0  0  0  0  0  0  0
   32.6670   29.2910   36.9110 C   0  0  0  0  0  0  0  0  0  0  0  0
   31.7900   28.4060   36.3010 C   0  0  0  0  0  0  0  0  0  0  0  0
   30.8380   28.5720   35.8270 H   0  0  0  0  0  0  0  0  0  0  0  0
   32.3170   27.1500   36.3700 N   0  0  0  0  0  0  0  0  0  0  0  0
   33.4920   27.2320   37.0040 N   0  0  0  0  0  0  0  0  0  0  0  0
   31.8850   26.2690   35.9960 H   0  0  0  0  0  0  0  0  0  0  0  0
  1 19  1  0  0  0  0
  2  1  2  0  0  0  0
  3  4  1  0  0  0  0
  3  2  1  0  0  0  0
  4  9  1  0  0  0  0
  5  4  2  0  0  0  0
  5  6  1  0  0  0  0
  6  7  2  0  0  0  0
  7 13  1  0  0  0  0
  7  8  1  0  0  0  0
  8 14  1  0  0  0  0
  9  1  1  0  0  0  0
  9  8  2  0  0  0  0
 10  2  1  0  0  0  0
 11  5  1  0  0  0  0
 12  6  1  0  0  0  0
 15 21  1  0  0  0  0
 16 22  1  0  0  0  0
 16 15  1  0  0  0  0
 17 16  2  0  0  0  0
 18 19  2  0  0  0  0
 18 17  1  0  0  0  0
 19 20  1  0  0  0  0
 20 15  2  0  0  0  0
 23 17  1  0  0  0  0
 24 25  1  0  0  0  0
 24 26  1  0  0  0  0
 24  3  1  0  0  0  0
 27 24  1  0  0  0  0
 28 27  1  0  0  0  0
 29 27  1  0  0  0  0
 30 27  1  0  0  0  0
 31 30  1  0  0  0  0
 32 34  1  0  0  0  0
 32 31  2  0  0  0  0
 33 32  1  0  0  0  0
 34 35  1  0  0  0  0
 35 30  2  0  0  0  0
 36 34  1  0  0  0  0
M  END
>  <minimizedAffinity>
-4.96681833

>  <minimizedRMSD>
0.771943212

$$$$
