
 OpenBabel03242509323D

 19 20  0  0  0  0  0  0  0  0999 V2000
   37.9630   28.5520   43.4820 C   0  0  0  0  0  0  0  0  0  0  0  0
   38.6020   27.2830   43.6070 C   0  0  0  0  0  0  0  0  0  0  0  0
   38.3540   26.3220   42.6240 C   0  0  0  0  0  0  0  0  0  0  0  0
   37.5000   26.6550   41.5820 N   0  0  0  0  0  0  0  0  0  0  0  0
   36.9260   27.8690   41.5160 C   0  0  0  0  0  0  0  0  0  0  0  0
   37.1490   28.7980   42.4400 N   0  0  0  0  0  0  0  0  0  0  0  0
   38.1750   29.2730   44.2580 H   0  0  0  0  0  0  0  0  0  0  0  0
   39.2620   27.0080   44.4030 H   0  0  0  0  0  0  0  0  0  0  0  0
   36.0490   28.1020   40.3740 C   0  0  0  0  0  0  0  0  0  0  0  0
   36.2450   27.3790   39.1960 C   0  0  0  0  0  3  0  0  0  0  0  0
   35.4110   27.6080   38.1250 C   0  0  0  0  0  3  0  0  0  0  0  0
   34.3930   28.5580   38.2540 C   0  0  0  0  0  0  0  0  0  0  0  0
   33.7090   28.7820   37.4510 H   0  0  0  0  0  0  0  0  0  0  0  0
   34.2170   29.2660   39.4400 C   0  0  0  0  0  3  0  0  0  0  0  0
   35.0610   29.0160   40.4820 N   0  0  0  0  0  0  0  0  0  0  0  0
   39.0030   24.9910   42.7250 C   0  0  0  0  0  0  0  0  0  0  0  0
   39.8330   24.8940   41.6230 F   0  0  0  0  0  0  0  0  0  0  0  0
   39.7650   24.8650   43.8420 F   0  0  0  0  0  0  0  0  0  0  0  0
   38.0530   23.9650   42.6720 F   0  0  0  0  0  0  0  0  0  0  0  0
  1  2  1  0  0  0  0
  1  7  1  0  0  0  0
  2  8  1  0  0  0  0
  3 16  1  0  0  0  0
  3  2  2  0  0  0  0
  4  3  1  0  0  0  0
  5  4  2  0  0  0  0
  5  6  1  0  0  0  0
  6  1  2  0  0  0  0
  9 15  1  0  0  0  0
  9  5  1  0  0  0  0
 10  9  2  0  0  0  0
 11 12  2  0  0  0  0
 11 10  1  0  0  0  0
 12 14  1  0  0  0  0
 13 12  1  0  0  0  0
 14 15  2  0  0  0  0
 16 18  1  0  0  0  0
 17 16  1  0  0  0  0
 19 16  1  0  0  0  0
M  END
>  <minimizedAffinity>
-4.54215145

>  <minimizedRMSD>
1.66017056

$$$$
