
 OpenBabel03242509313D

 19 20  0  0  0  0  0  0  0  0999 V2000
   37.6570   28.6830   43.6430 C   0  0  0  0  0  0  0  0  0  0  0  0
   38.1610   27.3520   43.7360 C   0  0  0  0  0  0  0  0  0  0  0  0
   38.3090   26.6210   42.5550 C   0  0  0  0  0  0  0  0  0  0  0  0
   37.9580   27.2300   41.3580 N   0  0  0  0  0  0  0  0  0  0  0  0
   37.4870   28.4880   41.3320 C   0  0  0  0  0  0  0  0  0  0  0  0
   37.3390   29.2020   42.4440 N   0  0  0  0  0  0  0  0  0  0  0  0
   37.5530   29.2220   44.5730 H   0  0  0  0  0  0  0  0  0  0  0  0
   38.4370   26.8660   44.6490 H   0  0  0  0  0  0  0  0  0  0  0  0
   37.1520   29.0200   40.0150 C   0  0  0  0  0  0  0  0  0  0  0  0
   36.8490   28.1400   38.9740 C   0  0  0  0  0  3  0  0  0  0  0  0
   36.5340   28.6550   37.7360 C   0  0  0  0  0  3  0  0  0  0  0  0
   36.5290   30.0410   37.5630 C   0  0  0  0  0  0  0  0  0  0  0  0
   36.2900   30.5040   36.6190 H   0  0  0  0  0  0  0  0  0  0  0  0
   36.8350   30.8990   38.6180 C   0  0  0  0  0  3  0  0  0  0  0  0
   37.1430   30.3580   39.8320 N   0  0  0  0  0  0  0  0  0  0  0  0
   38.8320   25.2330   42.6170 C   0  0  0  0  0  0  0  0  0  0  0  0
   39.5990   25.0690   41.4780 F   0  0  0  0  0  0  0  0  0  0  0  0
   39.6270   25.0220   43.6980 F   0  0  0  0  0  0  0  0  0  0  0  0
   37.7860   24.3030   42.6000 F   0  0  0  0  0  0  0  0  0  0  0  0
  1  2  1  0  0  0  0
  1  7  1  0  0  0  0
  2  8  1  0  0  0  0
  3 16  1  0  0  0  0
  3  2  2  0  0  0  0
  4  3  1  0  0  0  0
  5  4  2  0  0  0  0
  5  6  1  0  0  0  0
  6  1  2  0  0  0  0
  9  5  1  0  0  0  0
 10  9  2  0  0  0  0
 11 10  1  0  0  0  0
 12 11  2  0  0  0  0
 12 14  1  0  0  0  0
 13 12  1  0  0  0  0
 14 15  2  0  0  0  0
 15  9  1  0  0  0  0
 16 18  1  0  0  0  0
 17 16  1  0  0  0  0
 19 16  1  0  0  0  0
M  END
>  <minimizedAffinity>
-4.19942427

>  <minimizedRMSD>
1.54613566

$$$$
