
     RDKit          3D

 22 23  0  0  0  0  0  0  0  0999 V2000
   37.9770   28.8905   43.3735 C   0  0  0  0  0  0  0  0  0  0  0  0
   38.0869   27.4696   43.3033 C   0  0  0  0  0  0  0  0  0  0  0  0
   37.4397   26.8102   42.2559 C   0  0  0  0  0  0  0  0  0  0  0  0
   36.7257   27.5735   41.3415 N   0  0  0  0  0  0  0  0  0  0  0  0
   36.6573   28.9102   41.4582 C   0  0  0  0  0  0  0  0  0  0  0  0
   37.2657   29.5583   42.4474 N   0  0  0  0  0  0  0  0  0  0  0  0
   37.5350   25.3319   42.1554 C   0  0  0  0  0  0  0  0  0  0  0  0
   37.6625   25.0560   40.8062 F   0  0  0  0  0  0  0  0  0  0  0  0
   38.6238   24.8342   42.7951 F   0  0  0  0  0  0  0  0  0  0  0  0
   36.3724   24.7206   42.6366 F   0  0  0  0  0  0  0  0  0  0  0  0
   38.4884   29.3703   44.1945 H   0  0  0  0  0  0  0  0  0  0  0  0
   38.6322   26.8650   43.9983 H   0  0  0  0  0  0  0  0  0  0  0  0
   35.8783   29.6032   40.4377 C   0  0  0  0  0  0  0  0  0  0  0  0
   36.4093   29.7622   39.1555 C   0  0  0  0  0  0  0  0  0  0  0  0
   35.6638   30.4181   38.2016 C   0  0  0  0  0  0  0  0  0  0  0  0
   34.4002   30.9028   38.5486 C   0  0  0  0  0  0  0  0  0  0  0  0
   33.7695   31.4246   37.8457 H   0  0  0  0  0  0  0  0  0  0  0  0
   33.8923   30.7320   39.8337 C   0  0  0  0  0  0  0  0  0  0  0  0
   34.6553   30.0777   40.7569 N   0  0  0  0  0  0  0  0  0  0  0  0
   37.3881   29.3906   38.8746 H   0  0  0  0  0  0  0  0  0  0  0  0
   36.0430   30.5637   37.1858 H   0  0  0  0  0  0  0  0  0  0  0  0
   32.9216   31.0913   40.1414 H   0  0  0  0  0  0  0  0  0  0  0  0
  2  1  2  0
  3  2  1  0
  4  5  1  0
  4  3  2  0
  5  6  2  0
  6  1  1  0
  7  3  1  0
  7 10  1  0
  7  9  1  0
  8  7  1  0
  1 11  1  0
  2 12  1  0
 13 14  2  0
 14 15  1  0
 15 16  2  0
 16 17  1  0
 16 18  1  0
 18 19  2  0
 19 13  1  0
 14 20  1  0
 15 21  1  0
 18 22  1  0
  5 13  1  0
M  ISO  3  11  14  12  14  17  16
M  END
>  <DihAtoms>  (1) 
3,4,12,13

>  <DihDeg>  (1) 
-179.9998529995102

$$$$
