
 OpenBabel03242509323D

 19 20  0  0  0  0  0  0  0  0999 V2000
   37.8820   28.7040   43.5850 C   0  0  0  0  0  0  0  0  0  0  0  0
   38.3870   27.3740   43.6870 C   0  0  0  0  0  0  0  0  0  0  0  0
   38.3490   26.5660   42.5490 C   0  0  0  0  0  0  0  0  0  0  0  0
   37.8210   27.1020   41.3820 N   0  0  0  0  0  0  0  0  0  0  0  0
   37.3600   28.3630   41.3440 C   0  0  0  0  0  0  0  0  0  0  0  0
   37.3880   29.1500   42.4170 N   0  0  0  0  0  0  0  0  0  0  0  0
   37.9260   29.3020   44.4820 H   0  0  0  0  0  0  0  0  0  0  0  0
   38.7960   26.9430   44.5770 H   0  0  0  0  0  0  0  0  0  0  0  0
   36.8300   28.8150   40.0630 C   0  0  0  0  0  0  0  0  0  0  0  0
   35.6210   28.2960   39.5950 C   0  0  0  0  0  3  0  0  0  0  0  0
   35.1320   28.7300   38.3840 C   0  0  0  0  0  3  0  0  0  0  0  0
   35.8620   29.6770   37.6620 C   0  0  0  0  0  0  0  0  0  0  0  0
   35.5310   30.0560   36.7070 H   0  0  0  0  0  0  0  0  0  0  0  0
   37.0660   30.1810   38.1480 C   0  0  0  0  0  3  0  0  0  0  0  0
   37.5250   29.7300   39.3520 N   0  0  0  0  0  0  0  0  0  0  0  0
   38.8660   25.1760   42.6220 C   0  0  0  0  0  0  0  0  0  0  0  0
   39.6520   25.0090   41.4960 F   0  0  0  0  0  0  0  0  0  0  0  0
   39.6420   24.9650   43.7160 F   0  0  0  0  0  0  0  0  0  0  0  0
   37.8190   24.2490   42.5880 F   0  0  0  0  0  0  0  0  0  0  0  0
  1  2  1  0  0  0  0
  1  7  1  0  0  0  0
  2  8  1  0  0  0  0
  3 16  1  0  0  0  0
  3  2  2  0  0  0  0
  4  3  1  0  0  0  0
  5  4  2  0  0  0  0
  5  6  1  0  0  0  0
  6  1  2  0  0  0  0
  9  5  1  0  0  0  0
 10  9  1  0  0  0  0
 11 10  2  0  0  0  0
 12 14  2  0  0  0  0
 12 11  1  0  0  0  0
 13 12  1  0  0  0  0
 14 15  1  0  0  0  0
 15  9  2  0  0  0  0
 16 18  1  0  0  0  0
 17 16  1  0  0  0  0
 19 16  1  0  0  0  0
M  END
>  <minimizedAffinity>
-4.33844995

>  <minimizedRMSD>
1.412781

$$$$
