
 OpenBabel03242509323D

 19 20  0  0  0  0  0  0  0  0999 V2000
   37.8840   28.6430   43.6210 C   0  0  0  0  0  0  0  0  0  0  0  0
   38.4190   27.3250   43.7210 C   0  0  0  0  0  0  0  0  0  0  0  0
   38.3840   26.5110   42.5870 C   0  0  0  0  0  0  0  0  0  0  0  0
   37.8310   27.0320   41.4240 N   0  0  0  0  0  0  0  0  0  0  0  0
   37.3420   28.2830   41.3880 C   0  0  0  0  0  0  0  0  0  0  0  0
   37.3660   29.0740   42.4570 N   0  0  0  0  0  0  0  0  0  0  0  0
   37.9250   29.2460   44.5160 H   0  0  0  0  0  0  0  0  0  0  0  0
   38.8480   26.9060   44.6080 H   0  0  0  0  0  0  0  0  0  0  0  0
   36.7870   28.7180   40.1110 C   0  0  0  0  0  0  0  0  0  0  0  0
   35.9840   27.8440   39.3750 C   0  0  0  0  0  3  0  0  0  0  0  0
   35.4670   28.2670   38.1710 C   0  0  0  0  0  3  0  0  0  0  0  0
   35.7640   29.5580   37.7260 C   0  0  0  0  0  0  0  0  0  0  0  0
   35.3880   29.9460   36.7910 H   0  0  0  0  0  0  0  0  0  0  0  0
   36.5680   30.4110   38.4770 C   0  0  0  0  0  3  0  0  0  0  0  0
   37.0650   29.9620   39.6660 N   0  0  0  0  0  0  0  0  0  0  0  0
   38.9320   25.1340   42.6580 C   0  0  0  0  0  0  0  0  0  0  0  0
   39.7380   24.9930   41.5430 F   0  0  0  0  0  0  0  0  0  0  0  0
   39.6970   24.9330   43.7620 F   0  0  0  0  0  0  0  0  0  0  0  0
   37.9070   24.1830   42.6030 F   0  0  0  0  0  0  0  0  0  0  0  0
  1  2  1  0  0  0  0
  1  7  1  0  0  0  0
  2  8  1  0  0  0  0
  3 16  1  0  0  0  0
  3  2  2  0  0  0  0
  4  3  1  0  0  0  0
  5  4  2  0  0  0  0
  5  6  1  0  0  0  0
  6  1  2  0  0  0  0
  9  5  1  0  0  0  0
 10  9  2  0  0  0  0
 11 10  1  0  0  0  0
 12 11  2  0  0  0  0
 12 14  1  0  0  0  0
 13 12  1  0  0  0  0
 14 15  2  0  0  0  0
 15  9  1  0  0  0  0
 16 18  1  0  0  0  0
 17 16  1  0  0  0  0
 19 16  1  0  0  0  0
M  END
>  <minimizedAffinity>
-4.32687855

>  <minimizedRMSD>
1.46661615

$$$$
