
 OpenBabel03242509313D

 19 20  0  0  0  0  0  0  0  0999 V2000
   37.8510   28.6620   43.6090 C   0  0  0  0  0  0  0  0  0  0  0  0
   38.3820   27.3420   43.7140 C   0  0  0  0  0  0  0  0  0  0  0  0
   38.3750   26.5370   42.5730 C   0  0  0  0  0  0  0  0  0  0  0  0
   37.8530   27.0660   41.4010 N   0  0  0  0  0  0  0  0  0  0  0  0
   37.3660   28.3180   41.3610 C   0  0  0  0  0  0  0  0  0  0  0  0
   37.3630   29.1010   42.4360 N   0  0  0  0  0  0  0  0  0  0  0  0
   37.8700   29.2590   44.5090 H   0  0  0  0  0  0  0  0  0  0  0  0
   38.7880   26.9170   44.6090 H   0  0  0  0  0  0  0  0  0  0  0  0
   36.8440   28.7630   40.0730 C   0  0  0  0  0  0  0  0  0  0  0  0
   35.4790   28.6430   39.8040 C   0  0  0  0  0  3  0  0  0  0  0  0
   35.0000   29.0660   38.5850 C   0  0  0  0  0  3  0  0  0  0  0  0
   35.8960   29.6020   37.6570 C   0  0  0  0  0  0  0  0  0  0  0  0
   35.5820   29.9500   36.6860 H   0  0  0  0  0  0  0  0  0  0  0  0
   37.2530   29.7120   37.9480 C   0  0  0  0  0  3  0  0  0  0  0  0
   37.6970   29.2830   39.1650 N   0  0  0  0  0  0  0  0  0  0  0  0
   38.9200   25.1580   42.6490 C   0  0  0  0  0  0  0  0  0  0  0  0
   39.7240   25.0110   41.5340 F   0  0  0  0  0  0  0  0  0  0  0  0
   39.6860   24.9600   43.7530 F   0  0  0  0  0  0  0  0  0  0  0  0
   37.8920   24.2100   42.5990 F   0  0  0  0  0  0  0  0  0  0  0  0
  1  2  1  0  0  0  0
  1  7  1  0  0  0  0
  2  8  1  0  0  0  0
  3 16  1  0  0  0  0
  3  2  2  0  0  0  0
  4  3  1  0  0  0  0
  5  4  2  0  0  0  0
  5  6  1  0  0  0  0
  6  1  2  0  0  0  0
  9  5  1  0  0  0  0
 10  9  1  0  0  0  0
 11 10  2  0  0  0  0
 12 14  2  0  0  0  0
 12 11  1  0  0  0  0
 13 12  1  0  0  0  0
 14 15  1  0  0  0  0
 15  9  2  0  0  0  0
 16 18  1  0  0  0  0
 17 16  1  0  0  0  0
 19 16  1  0  0  0  0
M  END
>  <minimizedAffinity>
-4.37587738

>  <minimizedRMSD>
1.46313012

$$$$
