
 OpenBabel03242509093D

 37 41  0  0  1  0  0  0  0  0999 V2000
   36.4540   30.2190   38.1850 C   0  0  0  0  0  0  0  0  0  0  0  0
   36.4970   29.1990   39.1500 C   0  0  0  0  0  0  0  0  0  0  0  0
   37.0150   29.4960   40.4300 C   0  0  0  0  0  0  0  0  0  0  0  0
   37.4350   30.7710   40.6150 N   0  0  0  0  0  0  0  0  0  0  0  0
   37.3890   31.7370   39.6820 C   0  0  0  0  0  0  0  0  0  0  0  0
   36.8960   31.4660   38.4520 N   0  0  0  0  0  0  0  0  0  0  0  0
   36.0600   29.9920   37.2120 H   0  0  0  0  0  0  0  0  0  0  0  0
   36.1540   28.2040   38.9660 H   0  0  0  0  0  0  0  0  0  0  0  0
   37.0690   28.4510   41.4080 C   0  0  0  0  0  0  0  0  0  0  0  0
   37.2430   28.5740   42.7650 C   0  0  0  0  0  0  0  0  0  0  0  0
   37.2410   27.3550   43.3420 N   0  0  0  0  0  0  0  0  0  0  0  0
   37.0680   26.4120   42.3950 C   0  0  0  0  0  0  0  0  0  0  0  0
   36.9870   25.0100   42.4030 C   0  0  0  0  0  0  0  0  0  0  0  0
   36.8030   24.2900   41.2400 C   0  0  0  0  0  0  0  0  0  0  0  0
   36.7020   24.9990   40.0640 C   0  0  0  0  0  0  0  0  0  0  0  0
   36.7770   26.3640   40.0310 C   0  0  0  0  0  0  0  0  0  0  0  0
   36.9620   27.0890   41.1950 C   0  0  0  0  0  0  0  0  0  0  0  0
   37.3730   29.4390   43.3900 H   0  0  0  0  0  0  0  0  0  0  0  0
   37.3480   27.0880   44.3450 H   0  0  0  0  0  0  0  0  0  0  0  0
   37.0780   24.5360   43.3770 H   0  0  0  0  0  0  0  0  0  0  0  0
   36.7520   23.2050   41.3340 H   0  0  0  0  0  0  0  0  0  0  0  0
   36.5570   24.4050   39.1630 H   0  0  0  0  0  0  0  0  0  0  0  0
   36.6940   26.9020   39.0930 H   0  0  0  0  0  0  0  0  0  0  0  0
   37.8760   33.1060   40.0040 C   0  0  1  0  0  0  0  0  0  0  0  0
   38.9680   33.2540   41.0560 C   0  0  0  0  0  0  0  0  0  0  0  0
   39.2500   33.5140   39.6050 C   0  0  1  0  0  0  0  0  0  0  0  0
   37.1040   33.9260   40.0540 H   0  0  0  0  0  0  0  0  0  0  0  0
   39.2520   32.2810   41.5240 H   0  0  0  0  0  0  0  0  0  0  0  0
   38.8860   34.0810   41.7830 H   0  0  0  0  0  0  0  0  0  0  0  0
   39.4390   34.5900   39.3570 H   0  0  0  0  0  0  0  0  0  0  0  0
   40.2440   32.5550   39.0570 C   0  0  0  0  0  0  0  0  0  0  0  0
   40.4880   32.4120   37.7080 C   0  0  0  0  0  0  0  0  0  0  0  0
   41.4550   31.5110   37.2650 C   0  0  0  0  0  0  0  0  0  0  0  0
   42.1790   30.7480   38.1860 C   0  0  0  0  0  0  0  0  0  0  0  0
   42.9370   30.0360   37.9000 H   0  0  0  0  0  0  0  0  0  0  0  0
   41.9060   30.9180   39.5300 C   0  0  0  0  0  0  0  0  0  0  0  0
   40.9650   31.8010   39.9050 N   0  0  0  0  0  0  0  0  0  0  0  0
  1  6  2  0  0  0  0
  1  2  1  0  0  0  0
  2  3  2  0  0  0  0
  3  4  1  0  0  0  0
  3  9  1  0  0  0  0
  5 24  1  0  0  0  0
  5  4  2  0  0  0  0
  6  5  1  0  0  0  0
  7  1  1  0  0  0  0
  8  2  1  0  0  0  0
  9 10  2  0  0  0  0
 10 11  1  0  0  0  0
 10 18  1  0  0  0  0
 11 19  1  0  0  0  0
 12 13  1  0  0  0  0
 12 11  1  0  0  0  0
 13 20  1  0  0  0  0
 14 21  1  0  0  0  0
 14 13  2  0  0  0  0
 15 14  1  0  0  0  0
 16 15  2  0  0  0  0
 16 17  1  0  0  0  0
 17  9  1  0  0  0  0
 17 12  2  0  0  0  0
 22 15  1  0  0  0  0
 23 16  1  0  0  0  0
 24 27  1  6  0  0  0
 24 25  1  0  0  0  0
 25 28  1  0  0  0  0
 25 29  1  0  0  0  0
 26 30  1  6  0  0  0
 26 24  1  0  0  0  0
 26 25  1  0  0  0  0
 31 26  1  0  0  0  0
 31 37  1  0  0  0  0
 32 31  2  0  0  0  0
 33 32  1  0  0  0  0
 33 34  2  0  0  0  0
 34 36  1  0  0  0  0
 35 34  1  0  0  0  0
 36 37  2  0  0  0  0
M  END
>  <minimizedAffinity>
-5.95504856

>  <minimizedRMSD>
2.91242671

$$$$
