
 OpenBabel03242505503D

 19 20  0  0  0  0  0  0  0  0999 V2000
   37.5360   28.3470   43.7680 C   0  0  0  0  0  0  0  0  0  0  0  0
   36.4510   28.1940   43.8030 H   0  0  0  0  0  0  0  0  0  0  0  0
   37.9160   28.6960   44.7700 H   0  0  0  0  0  0  0  0  0  0  0  0
   39.4720   26.6720   43.9790 C   0  0  0  0  0  0  0  0  0  0  0  0
   38.2530   27.0790   43.4470 C   0  0  0  0  0  0  0  0  0  0  0  0
   37.6090   26.2280   42.5090 C   0  0  0  0  0  0  0  0  0  0  0  0
   38.2330   25.0610   42.1890 N   0  0  0  0  0  0  0  0  0  0  0  0
   39.4100   24.7150   42.7320 C   0  0  0  0  0  0  0  0  0  0  0  0
   40.0270   25.5190   43.6250 N   0  0  0  0  0  0  0  0  0  0  0  0
   39.8810   27.3900   44.6850 H   0  0  0  0  0  0  0  0  0  0  0  0
   36.6540   26.4910   42.0580 H   0  0  0  0  0  0  0  0  0  0  0  0
   39.9530   23.8050   42.5200 H   0  0  0  0  0  0  0  0  0  0  0  0
   37.9550   29.3860   42.8110 C   0  0  0  0  0  0  0  0  0  0  0  0
   39.1490   30.0600   42.6510 C   0  0  0  0  0  0  0  0  0  0  0  0
   38.9900   30.9400   41.5820 C   0  0  0  0  0  0  0  0  0  0  0  0
   39.8090   31.5800   41.2730 H   0  0  0  0  0  0  0  0  0  0  0  0
   37.7200   30.7750   41.1300 N   0  0  0  0  0  0  0  0  0  0  0  0
   37.1070   29.8540   41.8590 N   0  0  0  0  0  0  0  0  0  0  0  0
   37.3820   31.3510   40.3140 H   0  0  0  0  0  0  0  0  0  0  0  0
  1  2  1  0  0  0  0
  1  3  1  0  0  0  0
  4 10  1  0  0  0  0
  5  1  1  0  0  0  0
  5  4  2  0  0  0  0
  6  5  1  0  0  0  0
  7  6  2  0  0  0  0
  7  8  1  0  0  0  0
  8  9  2  0  0  0  0
  9  4  1  0  0  0  0
 11  6  1  0  0  0  0
 12  8  1  0  0  0  0
 13  1  1  0  0  0  0
 14 13  1  0  0  0  0
 15 14  2  0  0  0  0
 16 15  1  0  0  0  0
 17 15  1  0  0  0  0
 17 18  1  0  0  0  0
 18 13  2  0  0  0  0
 19 17  1  0  0  0  0
M  END
>  <minimizedAffinity>
-3.82881045

>  <minimizedRMSD>
4.48487759

$$$$
