
 OpenBabel03242509273D

 46 50  0  0  0  0  0  0  0  0999 V2000
   36.1740   30.0750   41.1250 C   0  0  0  0  0  0  0  0  0  0  0  0
   36.7950   30.8730   40.6390 H   0  0  0  0  0  0  0  0  0  0  0  0
   35.5990   30.6110   41.9190 H   0  0  0  0  0  0  0  0  0  0  0  0
   38.6310   28.1240   42.7050 C   0  0  0  0  0  0  0  0  0  0  0  0
   37.5420   27.2990   42.8090 C   0  0  0  0  0  0  0  0  0  0  0  0
   36.4770   27.9740   42.2030 C   0  0  0  0  0  0  0  0  0  0  0  0
   37.0040   29.1370   41.7880 N   0  0  0  0  0  0  0  0  0  0  0  0
   38.2630   29.2620   42.0630 N   0  0  0  0  0  0  0  0  0  0  0  0
   37.5010   26.3050   43.2720 H   0  0  0  0  0  0  0  0  0  0  0  0
   35.5000   27.5480   42.1460 H   0  0  0  0  0  0  0  0  0  0  0  0
   41.5670   26.4270   44.2450 C   0  0  0  0  0  0  0  0  0  0  0  0
   40.2570   26.6250   43.7940 C   0  0  0  0  0  0  0  0  0  0  0  0
   39.9680   27.8610   43.1880 C   0  0  0  0  0  0  0  0  0  0  0  0
   40.9360   28.7840   43.0690 N   0  0  0  0  0  0  0  0  0  0  0  0
   42.2010   28.5360   43.5290 C   0  0  0  0  0  0  0  0  0  0  0  0
   42.5060   27.3670   44.1100 N   0  0  0  0  0  0  0  0  0  0  0  0
   41.7800   25.4580   44.7160 H   0  0  0  0  0  0  0  0  0  0  0  0
   39.5220   25.8550   43.9140 H   0  0  0  0  0  0  0  0  0  0  0  0
   43.2200   29.5690   43.3770 C   0  0  0  0  0  0  0  0  0  0  0  0
   42.9190   30.8910   43.6300 C   0  0  0  0  0  0  0  0  0  0  0  0
   43.9100   31.8410   43.4750 C   0  0  0  0  0  0  0  0  0  0  0  0
   45.1760   31.4530   43.0720 C   0  0  0  0  0  0  0  0  0  0  0  0
   45.8710   32.2680   42.9820 H   0  0  0  0  0  0  0  0  0  0  0  0
   45.4560   30.1110   42.8220 C   0  0  0  0  0  0  0  0  0  0  0  0
   44.4580   29.2340   42.9880 N   0  0  0  0  0  0  0  0  0  0  0  0
   35.2780   29.5190   40.0650 C   0  0  0  0  0  0  0  0  0  0  0  0
   34.5750   30.4120   39.9460 H   0  0  0  0  0  0  0  0  0  0  0  0
   34.7980   28.6200   40.4270 H   0  0  0  0  0  0  0  0  0  0  0  0
   35.8900   29.4320   38.7160 C   0  0  0  0  0  0  0  0  0  0  0  0
   37.2070   29.5660   38.3910 C   0  0  0  0  0  0  0  0  0  0  0  0
   37.7260   29.5450   37.1300 C   0  0  0  0  0  0  0  0  0  0  0  0
   36.8800   29.3770   36.0550 C   0  0  0  0  0  0  0  0  0  0  0  0
   35.5280   29.2340   36.3190 C   0  0  0  0  0  0  0  0  0  0  0  0
   34.7340   29.0730   35.2100 C   0  0  0  0  0  0  0  0  0  0  0  0
   33.3860   28.9220   35.3620 C   0  0  0  0  0  0  0  0  0  0  0  0
   32.8420   28.9300   36.6290 C   0  0  0  0  0  0  0  0  0  0  0  0
   33.6880   29.0940   37.6880 C   0  0  0  0  0  0  0  0  0  0  0  0
   35.0300   29.2560   37.6170 C   0  0  0  0  0  0  0  0  0  0  0  0
   37.8760   29.6990   39.2460 H   0  0  0  0  0  0  0  0  0  0  0  0
   38.7930   29.6630   37.0270 H   0  0  0  0  0  0  0  0  0  0  0  0
   37.2990   29.3640   35.0700 H   0  0  0  0  0  0  0  0  0  0  0  0
   35.1320   29.0590   34.2010 H   0  0  0  0  0  0  0  0  0  0  0  0
   32.7520   28.7960   34.4860 H   0  0  0  0  0  0  0  0  0  0  0  0
   31.7870   28.8090   36.7240 H   0  0  0  0  0  0  0  0  0  0  0  0
   33.0840   29.0770   38.9390 O   0  0  0  0  0  0  0  0  0  0  0  0
   32.3830   29.8020   39.0960 H   0  0  0  0  0  0  0  0  0  0  0  0
  1  7  1  0  0  0  0
  1  3  1  0  0  0  0
  2  1  1  0  0  0  0
  4  5  1  0  0  0  0
  4 13  1  0  0  0  0
  5  9  1  0  0  0  0
  6  5  2  0  0  0  0
  7  8  1  0  0  0  0
  7  6  1  0  0  0  0
  8  4  2  0  0  0  0
 10  6  1  0  0  0  0
 11 17  1  0  0  0  0
 12 18  1  0  0  0  0
 12 11  2  0  0  0  0
 13 12  1  0  0  0  0
 14 13  2  0  0  0  0
 14 15  1  0  0  0  0
 15 16  2  0  0  0  0
 16 11  1  0  0  0  0
 19 15  1  0  0  0  0
 19 20  1  0  0  0  0
 21 20  2  0  0  0  0
 22 21  1  0  0  0  0
 23 22  1  0  0  0  0
 24 25  1  0  0  0  0
 24 22  2  0  0  0  0
 25 19  2  0  0  0  0
 26 28  1  0  0  0  0
 26  1  1  0  0  0  0
 27 26  1  0  0  0  0
 29 26  1  0  0  0  0
 30 29  1  0  0  0  0
 30 39  1  0  0  0  0
 31 30  2  0  0  0  0
 32 33  2  0  0  0  0
 32 31  1  0  0  0  0
 33 38  1  0  0  0  0
 34 35  2  0  0  0  0
 34 33  1  0  0  0  0
 35 36  1  0  0  0  0
 36 44  1  0  0  0  0
 36 37  2  0  0  0  0
 37 45  1  0  0  0  0
 38 37  1  0  0  0  0
 38 29  2  0  0  0  0
 40 31  1  0  0  0  0
 41 32  1  0  0  0  0
 42 34  1  0  0  0  0
 43 35  1  0  0  0  0
 45 46  1  0  0  0  0
M  END
>  <minimizedAffinity>
-6.09833241

>  <minimizedRMSD>
0.290044755

$$$$
