
 OpenBabel03242502493D

 27 30  0  0  0  0  0  0  0  0999 V2000
   37.7950   30.3070   41.3410 C   0  0  0  0  0  0  0  0  0  0  0  0
   36.5690   29.5910   41.1700 C   0  0  0  0  0  0  0  0  0  0  0  0
   36.9200   27.9520   41.9930 S   0  0  0  0  0  0  0  0  0  0  0  0
   38.6620   28.5490   42.4140 C   0  0  0  0  0  0  0  0  0  0  0  0
   38.6700   29.5840   41.9810 N   0  0  0  0  0  0  0  0  0  0  0  0
   35.6470   29.9220   40.6770 H   0  0  0  0  0  0  0  0  0  0  0  0
   38.9730   32.4820   41.2380 C   0  0  0  0  0  0  0  0  0  0  0  0
   37.9250   31.6620   40.8220 C   0  0  0  0  0  0  0  0  0  0  0  0
   37.0050   32.1760   39.8940 C   0  0  0  0  0  0  0  0  0  0  0  0
   37.1950   33.4550   39.4550 N   0  0  0  0  0  0  0  0  0  0  0  0
   38.2400   34.2140   39.8970 C   0  0  0  0  0  0  0  0  0  0  0  0
   39.1050   33.7200   40.7730 N   0  0  0  0  0  0  0  0  0  0  0  0
   39.6730   32.0680   41.9530 H   0  0  0  0  0  0  0  0  0  0  0  0
   36.1770   31.5730   39.5460 H   0  0  0  0  0  0  0  0  0  0  0  0
   38.3580   35.2190   39.5270 H   0  0  0  0  0  0  0  0  0  0  0  0
   39.6500   27.7240   43.1400 C   0  0  0  0  0  0  0  0  0  0  0  0
   39.3920   26.4760   43.5560 N   0  0  0  0  0  0  0  0  0  0  0  0
   40.4260   25.9870   44.1620 O   0  0  0  0  0  0  0  0  0  0  0  0
   41.3560   26.9280   44.1340 C   0  0  0  0  0  0  0  0  0  0  0  0
   40.9210   28.0420   43.5020 N   0  0  0  0  0  0  0  0  0  0  0  0
   42.7120   26.8090   44.7110 C   0  0  0  0  0  0  0  0  0  0  0  0
   43.0020   27.2580   46.0010 C   0  0  0  0  0  0  0  0  0  0  0  0
   44.2930   27.1240   46.5000 C   0  0  0  0  0  0  0  0  0  0  0  0
   45.2380   26.5440   45.6790 C   0  0  0  0  0  0  0  0  0  0  0  0
   46.2340   26.4580   46.1070 H   0  0  0  0  0  0  0  0  0  0  0  0
   44.9640   26.0970   44.4040 C   0  0  0  0  0  0  0  0  0  0  0  0
   43.6970   26.2520   43.9750 N   0  0  0  0  0  0  0  0  0  0  0  0
  1  5  1  0  0  0  0
  2  1  2  0  0  0  0
  2  3  1  0  0  0  0
  3  4  1  0  0  0  0
  4 16  1  0  0  0  0
  5  4  2  0  0  0  0
  6  2  1  0  0  0  0
  7 13  1  0  0  0  0
  8  7  1  0  0  0  0
  8  1  1  0  0  0  0
  9  8  2  0  0  0  0
 10  9  1  0  0  0  0
 10 11  2  0  0  0  0
 11 12  1  0  0  0  0
 12  7  2  0  0  0  0
 14  9  1  0  0  0  0
 15 11  1  0  0  0  0
 16 20  1  0  0  0  0
 16 17  2  0  0  0  0
 17 18  1  0  0  0  0
 19 18  1  0  0  0  0
 19 21  1  0  0  0  0
 20 19  2  0  0  0  0
 21 22  1  0  0  0  0
 22 23  2  0  0  0  0
 24 25  1  0  0  0  0
 24 23  1  0  0  0  0
 26 24  2  0  0  0  0
 27 26  1  0  0  0  0
 27 21  2  0  0  0  0
M  END
>  <minimizedAffinity>
-5.36753654

>  <minimizedRMSD>
0.543281078

$$$$
