
 OpenBabel03242509323D

 19 20  0  0  0  0  0  0  0  0999 V2000
   39.0180   26.6860   43.1930 C   0  0  0  0  0  0  0  0  0  0  0  0
   38.5330   25.4410   42.6930 C   0  0  0  0  0  0  0  0  0  0  0  0
   37.7180   25.4590   41.5590 C   0  0  0  0  0  0  0  0  0  0  0  0
   37.4240   26.6870   40.9830 N   0  0  0  0  0  0  0  0  0  0  0  0
   37.9090   27.8300   41.4980 C   0  0  0  0  0  0  0  0  0  0  0  0
   38.6880   27.8350   42.5760 N   0  0  0  0  0  0  0  0  0  0  0  0
   39.6450   26.6380   44.0700 H   0  0  0  0  0  0  0  0  0  0  0  0
   38.7480   24.4850   43.1240 H   0  0  0  0  0  0  0  0  0  0  0  0
   37.5320   29.0570   40.8050 C   0  0  0  0  0  0  0  0  0  0  0  0
   36.7850   30.0260   41.4800 C   0  0  0  0  0  3  0  0  0  0  0  0
   36.4350   31.1800   40.8150 C   0  0  0  0  0  3  0  0  0  0  0  0
   36.8410   31.3430   39.4880 C   0  0  0  0  0  0  0  0  0  0  0  0
   36.5970   32.2240   38.9140 H   0  0  0  0  0  0  0  0  0  0  0  0
   37.5850   30.3630   38.8370 C   0  0  0  0  0  3  0  0  0  0  0  0
   37.9150   29.2300   39.5230 N   0  0  0  0  0  0  0  0  0  0  0  0
   37.1970   24.1800   41.0140 C   0  0  0  0  0  0  0  0  0  0  0  0
   37.2020   24.3300   39.6390 F   0  0  0  0  0  0  0  0  0  0  0  0
   37.9850   23.1200   41.3280 F   0  0  0  0  0  0  0  0  0  0  0  0
   35.8850   23.9500   41.4430 F   0  0  0  0  0  0  0  0  0  0  0  0
  1  7  1  0  0  0  0
  2  8  1  0  0  0  0
  2  1  1  0  0  0  0
  3  2  2  0  0  0  0
  4  5  2  0  0  0  0
  4  3  1  0  0  0  0
  5  6  1  0  0  0  0
  6  1  2  0  0  0  0
  9 10  1  0  0  0  0
  9  5  1  0  0  0  0
 11 10  2  0  0  0  0
 12 11  1  0  0  0  0
 13 12  1  0  0  0  0
 14 12  2  0  0  0  0
 14 15  1  0  0  0  0
 15  9  2  0  0  0  0
 16 18  1  0  0  0  0
 16 19  1  0  0  0  0
 16  3  1  0  0  0  0
 17 16  1  0  0  0  0
M  END
>  <minimizedAffinity>
-4.14387465

>  <minimizedRMSD>
2.3039825

$$$$
