
 OpenBabel03242509313D

 18 19  0  0  0  0  0  0  0  0999 V2000
   37.9730   28.5120   43.5260 C   0  0  0  0  0  0  0  0  0  0  0  0
   38.5820   27.2270   43.6310 C   0  0  0  0  0  0  0  0  0  0  0  0
   38.3310   26.3070   42.6020 C   0  0  0  0  0  0  0  0  0  0  0  0
   37.5150   26.6950   41.5560 N   0  0  0  0  0  0  0  0  0  0  0  0
   36.9700   27.9230   41.5160 C   0  0  0  0  0  0  0  0  0  0  0  0
   37.1970   28.8130   42.4850 N   0  0  0  0  0  0  0  0  0  0  0  0
   38.1460   29.2450   44.3000 H   0  0  0  0  0  0  0  0  0  0  0  0
   39.2080   26.9650   44.4560 H   0  0  0  0  0  0  0  0  0  0  0  0
   36.1340   28.1220   40.3100 C   0  0  0  0  0  0  0  0  0  0  0  0
   36.3410   27.5100   39.0910 C   0  0  0  0  0  3  0  0  0  0  0  0
   34.9930   28.1780   38.0770 S   0  0  0  0  0  0  0  0  0  0  0  0
   34.3490   29.2250   39.5520 C   0  0  0  0  0  0  0  0  0  0  0  0
   33.4730   29.8670   39.4500 H   0  0  0  0  0  0  0  0  0  0  0  0
   35.1530   28.9700   40.5420 N   0  0  0  0  0  0  0  0  0  0  0  0
   38.9450   24.9580   42.6710 C   0  0  0  0  0  0  0  0  0  0  0  0
   39.7720   24.8580   41.5790 F   0  0  0  0  0  0  0  0  0  0  0  0
   39.7050   24.7900   43.7950 F   0  0  0  0  0  0  0  0  0  0  0  0
   37.9730   23.9570   42.6010 F   0  0  0  0  0  0  0  0  0  0  0  0
  1  2  1  0  0  0  0
  1  7  1  0  0  0  0
  2  8  1  0  0  0  0
  3 15  1  0  0  0  0
  3  2  2  0  0  0  0
  4  3  1  0  0  0  0
  5  4  2  0  0  0  0
  5  6  1  0  0  0  0
  6  1  2  0  0  0  0
  9 14  1  0  0  0  0
  9  5  1  0  0  0  0
 10  9  2  0  0  0  0
 11 10  1  0  0  0  0
 11 12  1  0  0  0  0
 12 14  2  0  0  0  0
 13 12  1  0  0  0  0
 15 17  1  0  0  0  0
 16 15  1  0  0  0  0
 18 15  1  0  0  0  0
M  END
>  <minimizedAffinity>
-4.15789843

>  <minimizedRMSD>
1.48084962

$$$$
