
 OpenBabel03242509313D

 18 19  0  0  0  0  0  0  0  0999 V2000
   37.9360   28.5850   43.5130 C   0  0  0  0  0  0  0  0  0  0  0  0
   38.5620   27.3080   43.6300 C   0  0  0  0  0  0  0  0  0  0  0  0
   38.3260   26.3780   42.6060 C   0  0  0  0  0  0  0  0  0  0  0  0
   37.5080   26.7480   41.5550 N   0  0  0  0  0  0  0  0  0  0  0  0
   36.9470   27.9680   41.5040 C   0  0  0  0  0  0  0  0  0  0  0  0
   37.1600   28.8670   42.4680 N   0  0  0  0  0  0  0  0  0  0  0  0
   38.0970   29.3250   44.2830 H   0  0  0  0  0  0  0  0  0  0  0  0
   39.1880   27.0600   44.4580 H   0  0  0  0  0  0  0  0  0  0  0  0
   36.1130   28.1480   40.2940 C   0  0  0  0  0  0  0  0  0  0  0  0
   36.3360   27.5340   39.0790 C   0  0  0  0  0  3  0  0  0  0  0  0
   34.9800   28.1750   38.0570 S   0  0  0  0  0  0  0  0  0  0  0  0
   34.3120   29.2160   39.5250 C   0  0  0  0  0  0  0  0  0  0  0  0
   33.4250   29.8430   39.4170 H   0  0  0  0  0  0  0  0  0  0  0  0
   35.1160   28.9790   40.5190 N   0  0  0  0  0  0  0  0  0  0  0  0
   38.9570   25.0380   42.6860 C   0  0  0  0  0  0  0  0  0  0  0  0
   39.7690   24.9300   41.5840 F   0  0  0  0  0  0  0  0  0  0  0  0
   39.7350   24.8960   43.8010 F   0  0  0  0  0  0  0  0  0  0  0  0
   37.9960   24.0240   42.6460 F   0  0  0  0  0  0  0  0  0  0  0  0
  1  2  1  0  0  0  0
  1  7  1  0  0  0  0
  2  8  1  0  0  0  0
  3 15  1  0  0  0  0
  3  2  2  0  0  0  0
  4  3  1  0  0  0  0
  5  4  2  0  0  0  0
  5  6  1  0  0  0  0
  6  1  2  0  0  0  0
  9 14  1  0  0  0  0
  9  5  1  0  0  0  0
 10  9  2  0  0  0  0
 11 10  1  0  0  0  0
 11 12  1  0  0  0  0
 12 14  2  0  0  0  0
 13 12  1  0  0  0  0
 15 17  1  0  0  0  0
 16 15  1  0  0  0  0
 18 15  1  0  0  0  0
M  END
>  <minimizedAffinity>
-4.14965582

>  <minimizedRMSD>
1.46072781

$$$$
