
 OpenBabel03242509323D

 18 19  0  0  0  0  0  0  0  0999 V2000
   37.9180   28.5970   43.5180 C   0  0  0  0  0  0  0  0  0  0  0  0
   38.5430   27.3200   43.6230 C   0  0  0  0  0  0  0  0  0  0  0  0
   38.2930   26.3930   42.5990 C   0  0  0  0  0  0  0  0  0  0  0  0
   37.4630   26.7670   41.5600 N   0  0  0  0  0  0  0  0  0  0  0  0
   36.9020   27.9870   41.5200 C   0  0  0  0  0  0  0  0  0  0  0  0
   37.1280   28.8840   42.4840 N   0  0  0  0  0  0  0  0  0  0  0  0
   38.0890   29.3340   44.2890 H   0  0  0  0  0  0  0  0  0  0  0  0
   39.1790   27.0680   44.4420 H   0  0  0  0  0  0  0  0  0  0  0  0
   36.0530   28.1720   40.3220 C   0  0  0  0  0  0  0  0  0  0  0  0
   35.1060   29.1640   40.1660 C   0  0  0  0  0  3  0  0  0  0  0  0
   34.4460   28.8260   38.5100 S   0  0  0  0  0  0  0  0  0  0  0  0
   35.6240   27.3250   38.3030 C   0  0  0  0  0  0  0  0  0  0  0  0
   35.6210   26.7240   37.3920 H   0  0  0  0  0  0  0  0  0  0  0  0
   36.3120   27.2630   39.4050 N   0  0  0  0  0  0  0  0  0  0  0  0
   38.9240   25.0520   42.6670 C   0  0  0  0  0  0  0  0  0  0  0  0
   39.7280   24.9500   41.5590 F   0  0  0  0  0  0  0  0  0  0  0  0
   39.7100   24.9020   43.7760 F   0  0  0  0  0  0  0  0  0  0  0  0
   37.9620   24.0390   42.6280 F   0  0  0  0  0  0  0  0  0  0  0  0
  1  2  1  0  0  0  0
  1  7  1  0  0  0  0
  2  8  1  0  0  0  0
  3 15  1  0  0  0  0
  3  2  2  0  0  0  0
  4  3  1  0  0  0  0
  5  4  2  0  0  0  0
  5  6  1  0  0  0  0
  6  1  2  0  0  0  0
  9  5  1  0  0  0  0
 10  9  2  0  0  0  0
 11 10  1  0  0  0  0
 12 11  1  0  0  0  0
 12 14  2  0  0  0  0
 13 12  1  0  0  0  0
 14  9  1  0  0  0  0
 15 17  1  0  0  0  0
 16 15  1  0  0  0  0
 18 15  1  0  0  0  0
M  END
>  <minimizedAffinity>
-4.15246058

>  <minimizedRMSD>
1.50085771

$$$$
