
 OpenBabel03242508363D

 35 38  0  0  0  0  0  0  0  0999 V2000
   36.8580   31.2770   40.4660 C   0  0  0  0  0  0  0  0  0  0  0  0
   36.6850   31.6470   39.1530 N   0  0  0  0  0  0  0  0  0  0  0  0
   37.6250   32.5120   38.8440 O   0  0  0  0  0  0  0  0  0  0  0  0
   38.3700   32.6870   39.9190 C   0  0  0  0  0  0  0  0  0  0  0  0
   37.9180   31.9400   40.9250 N   0  0  0  0  0  0  0  0  0  0  0  0
   39.5170   33.5790   39.9600 C   0  0  0  0  0  0  0  0  0  0  0  0
   39.5020   34.9450   40.1120 C   0  0  0  0  0  0  0  0  0  0  0  0
   40.7840   35.4280   40.1010 C   0  0  0  0  0  0  0  0  0  0  0  0
   41.5770   34.2920   39.9330 C   0  0  0  0  0  0  0  0  0  0  0  0
   40.7780   33.2940   39.8620 O   0  0  0  0  0  0  0  0  0  0  0  0
   38.5840   35.5400   40.2270 H   0  0  0  0  0  0  0  0  0  0  0  0
   41.1340   36.4340   40.1940 H   0  0  0  0  0  0  0  0  0  0  0  0
   43.0550   34.2730   39.8550 C   0  0  0  0  0  0  0  0  0  0  0  0
   43.8790   34.4440   41.0850 C   0  0  0  0  0  0  0  0  0  0  0  0
   45.5340   34.3450   40.4480 S   0  0  0  0  0  0  0  0  0  0  0  0
   44.9360   34.0950   38.6600 C   0  0  0  0  0  0  0  0  0  0  0  0
   45.4980   33.9580   37.7180 H   0  0  0  0  0  0  0  0  0  0  0  0
   43.7490   34.1130   38.7450 N   0  0  0  0  0  0  0  0  0  0  0  0
   36.1150   30.3830   41.2560 O   0  0  0  0  0  0  0  0  0  0  0  0
   38.0060   28.1110   43.3590 C   0  0  0  0  0  0  0  0  0  0  0  0
   37.8180   26.9160   42.5970 C   0  0  0  0  0  0  0  0  0  0  0  0
   37.0670   26.9960   41.4410 C   0  0  0  0  0  0  0  0  0  0  0  0
   36.5540   28.2040   41.1020 N   0  0  0  0  0  0  0  0  0  0  0  0
   36.7350   29.3020   41.8150 C   0  0  0  0  0  0  0  0  0  0  0  0
   37.4590   29.2770   42.9510 N   0  0  0  0  0  0  0  0  0  0  0  0
   38.5630   28.2090   44.2770 H   0  0  0  0  0  0  0  0  0  0  0  0
   38.3510   26.1360   43.1210 H   0  0  0  0  0  0  0  0  0  0  0  0
   36.9520   25.7300   40.7580 C   0  0  0  0  0  0  0  0  0  0  0  0
   36.0280   25.7560   40.1130 H   0  0  0  0  0  0  0  0  0  0  0  0
   37.7860   25.6620   40.0020 H   0  0  0  0  0  0  0  0  0  0  0  0
   37.0140   24.5280   41.6070 C   0  0  0  0  0  0  0  0  0  0  0  0
   37.3650   24.6470   42.6440 H   0  0  0  0  0  0  0  0  0  0  0  0
   35.9380   24.1750   41.7250 H   0  0  0  0  0  0  0  0  0  0  0  0
   37.8230   23.1330   40.7430 S   0  0  0  0  0  0  0  0  0  0  0  0
   38.6280   22.4250   41.6630 H   0  0  0  0  0  0  0  0  0  0  0  0
  1  5  1  0  0  0  0
  1 19  1  0  0  0  0
  2  1  2  0  0  0  0
  3  2  1  0  0  0  0
  3  4  1  0  0  0  0
  4  6  1  0  0  0  0
  4  5  2  0  0  0  0
  6  7  2  0  0  0  0
  7 11  1  0  0  0  0
  8  7  1  0  0  0  0
  8 12  1  0  0  0  0
  9  8  2  0  0  0  0
 10  9  1  0  0  0  0
 10  6  1  0  0  0  0
 13  9  1  0  0  0  0
 13 14  2  0  0  0  0
 15 14  1  0  0  0  0
 16 18  2  0  0  0  0
 16 15  1  0  0  0  0
 17 16  1  0  0  0  0
 18 13  1  0  0  0  0
 19 24  1  0  0  0  0
 20 26  1  0  0  0  0
 21 27  1  0  0  0  0
 21 20  2  0  0  0  0
 22 21  1  0  0  0  0
 23 22  2  0  0  0  0
 23 24  1  0  0  0  0
 24 25  2  0  0  0  0
 25 20  1  0  0  0  0
 28 22  1  0  0  0  0
 28 31  1  0  0  0  0
 29 28  1  0  0  0  0
 30 28  1  0  0  0  0
 31 33  1  0  0  0  0
 31 32  1  0  0  0  0
 34 31  1  0  0  0  0
 34 35  1  0  0  0  0
M  END
>  <minimizedAffinity>
-5.59485674

>  <minimizedRMSD>
0.970453143

$$$$
