
 OpenBabel03242509173D

 32 35  0  0  1  0  0  0  0  0999 V2000
   39.4000   30.6780   41.2890 C   0  0  1  0  0  0  0  0  0  0  0  0
   39.8720   30.6850   42.6920 C   0  0  0  0  0  0  0  0  0  0  0  0
   38.5600   30.0760   42.4940 C   0  0  2  0  0  0  0  0  0  0  0  0
   39.9080   30.0190   40.6220 H   0  0  0  0  0  0  0  0  0  0  0  0
   39.9410   31.7100   43.1580 H   0  0  0  0  0  0  0  0  0  0  0  0
   40.7560   30.0710   42.9350 H   0  0  0  0  0  0  0  0  0  0  0  0
   37.5740   30.6250   42.4520 H   0  0  0  0  0  0  0  0  0  0  0  0
   38.4710   28.5950   42.4370 C   0  0  0  0  0  0  0  0  0  0  0  0
   39.3160   27.8350   43.2480 C   0  0  0  0  0  0  0  0  0  0  0  0
   39.1140   26.4870   43.3890 C   0  0  0  0  0  0  0  0  0  0  0  0
   38.0550   25.8890   42.7100 C   0  0  0  0  0  0  0  0  0  0  0  0
   37.2340   26.6400   41.9140 C   0  0  0  0  0  0  0  0  0  0  0  0
   37.4680   28.0220   41.7900 C   0  0  0  0  0  0  0  0  0  0  0  0
   40.1140   28.3680   43.7410 H   0  0  0  0  0  0  0  0  0  0  0  0
   39.8250   25.9630   44.0460 H   0  0  0  0  0  0  0  0  0  0  0  0
   38.0330   24.8180   42.9300 H   0  0  0  0  0  0  0  0  0  0  0  0
   36.4910   25.9780   41.4890 H   0  0  0  0  0  0  0  0  0  0  0  0
   36.4480   28.4680   40.8790 C   0  0  0  0  0  0  0  0  0  0  0  0
   37.0110   27.8340   39.5480 C   0  0  0  0  0  0  0  0  0  0  0  0
   35.6760   28.2300   38.3750 S   0  0  0  0  0  0  0  0  0  0  0  0
   34.6340   29.1200   39.7220 C   0  0  0  0  0  0  0  0  0  0  0  0
   33.6580   29.6920   39.9710 H   0  0  0  0  0  0  0  0  0  0  0  0
   35.2860   29.0440   40.7610 N   0  0  0  0  0  0  0  0  0  0  0  0
   38.7870   31.9370   40.7270 C   0  0  0  0  0  0  0  0  0  0  0  0
   37.7070   31.8010   39.8040 C   0  0  0  0  0  0  0  0  0  0  0  0
   37.1460   32.9470   39.2940 C   0  0  0  0  0  0  0  0  0  0  0  0
   37.6570   34.1650   39.7060 N   0  0  0  0  0  0  0  0  0  0  0  0
   38.6750   34.2530   40.5800 C   0  0  0  0  0  0  0  0  0  0  0  0
   39.2450   33.1130   41.0950 N   0  0  0  0  0  0  0  0  0  0  0  0
   37.2040   30.9610   39.4210 H   0  0  0  0  0  0  0  0  0  0  0  0
   36.3330   33.0110   38.5920 H   0  0  0  0  0  0  0  0  0  0  0  0
   38.9930   35.2550   40.8330 H   0  0  0  0  0  0  0  0  0  0  0  0
  1  4  1  6  0  0  0
  1  3  1  0  0  0  0
  1  2  1  0  0  0  0
  2  6  1  0  0  0  0
  2  5  1  0  0  0  0
  3  7  1  1  0  0  0
  3  2  1  0  0  0  0
  8  3  1  0  0  0  0
  8  9  1  0  0  0  0
  9 10  2  0  0  0  0
  9 14  1  0  0  0  0
 10 15  1  0  0  0  0
 11 16  1  0  0  0  0
 11 10  1  0  0  0  0
 12 11  2  0  0  0  0
 13 12  1  0  0  0  0
 13  8  2  0  0  0  0
 17 12  1  0  0  0  0
 18 13  1  0  0  0  0
 19 18  2  0  0  0  0
 20 19  1  0  0  0  0
 20 21  1  0  0  0  0
 21 22  1  0  0  0  0
 21 23  2  0  0  0  0
 23 18  1  0  0  0  0
 24 29  1  0  0  0  0
 24  1  1  0  0  0  0
 25 24  2  0  0  0  0
 26 27  2  0  0  0  0
 26 25  1  0  0  0  0
 27 28  1  0  0  0  0
 28 32  1  0  0  0  0
 28 29  2  0  0  0  0
 30 25  1  0  0  0  0
 31 26  1  0  0  0  0
M  END
>  <minimizedAffinity>
-5.42311764

>  <minimizedRMSD>
1.72216773

$$$$
