
 OpenBabel03242508333D

 31 34  0  0  0  0  0  0  0  0999 V2000
   38.1580   28.3040   43.2930 C   0  0  0  0  0  0  0  0  0  0  0  0
   37.9470   27.0700   42.6160 C   0  0  0  0  0  0  0  0  0  0  0  0
   37.1300   27.0990   41.4890 C   0  0  0  0  0  0  0  0  0  0  0  0
   36.5940   28.2800   41.1140 N   0  0  0  0  0  0  0  0  0  0  0  0
   36.8040   29.4160   41.7590 C   0  0  0  0  0  0  0  0  0  0  0  0
   37.5870   29.4350   42.8520 N   0  0  0  0  0  0  0  0  0  0  0  0
   38.7680   28.4180   44.1760 H   0  0  0  0  0  0  0  0  0  0  0  0
   38.4810   26.2930   43.1130 H   0  0  0  0  0  0  0  0  0  0  0  0
   36.9580   25.8040   40.8480 C   0  0  0  0  0  0  0  0  0  0  0  0
   37.7120   25.7450   40.0440 H   0  0  0  0  0  0  0  0  0  0  0  0
   35.9740   25.8500   40.2930 H   0  0  0  0  0  0  0  0  0  0  0  0
   36.9280   24.6370   41.7580 C   0  0  0  0  0  0  0  0  0  0  0  0
   37.1240   24.9600   42.8080 H   0  0  0  0  0  0  0  0  0  0  0  0
   35.9010   24.2180   41.7480 H   0  0  0  0  0  0  0  0  0  0  0  0
   37.9410   23.5730   41.4540 C   0  0  0  0  0  0  0  0  0  0  0  0
   37.8240   22.6010   40.3900 C   0  0  0  0  0  0  0  0  0  0  0  0
   38.8430   23.7560   40.2630 C   0  0  0  0  0  0  0  0  0  0  0  0
   36.1650   30.4760   41.2000 O   0  0  0  0  0  0  0  0  0  0  0  0
   36.8540   31.3490   40.3600 C   0  0  0  0  0  0  0  0  0  0  0  0
   36.8350   31.4780   39.0030 N   0  0  0  0  0  0  0  0  0  0  0  0
   37.6570   32.4480   38.6610 O   0  0  0  0  0  0  0  0  0  0  0  0
   38.1840   32.9190   39.7720 C   0  0  0  0  0  0  0  0  0  0  0  0
   37.7070   32.2620   40.8220 N   0  0  0  0  0  0  0  0  0  0  0  0
   39.1510   34.0110   39.7980 C   0  0  0  0  0  0  0  0  0  0  0  0
   38.9250   35.3110   40.2180 C   0  0  0  0  0  0  0  0  0  0  0  0
   40.0660   36.0510   40.1000 C   0  0  0  0  0  0  0  0  0  0  0  0
   41.0030   35.1520   39.5910 C   0  0  0  0  0  0  0  0  0  0  0  0
   40.4090   34.0040   39.4440 O   0  0  0  0  0  0  0  0  0  0  0  0
   37.9760   35.6780   40.5850 H   0  0  0  0  0  0  0  0  0  0  0  0
   40.2460   37.1100   40.3390 H   0  0  0  0  0  0  0  0  0  0  0  0
   42.0420   35.3780   39.3620 H   0  0  0  0  0  0  0  0  0  0  0  0
  1  7  1  0  0  0  0
  2  8  1  0  0  0  0
  2  1  2  0  0  0  0
  3  2  1  0  0  0  0
  4  3  2  0  0  0  0
  4  5  1  0  0  0  0
  5  6  2  0  0  0  0
  6  1  1  0  0  0  0
  9  3  1  0  0  0  0
  9 12  1  0  0  0  0
 10  9  1  0  0  0  0
 11  9  1  0  0  0  0
 12 13  1  0  0  0  0
 14 12  1  0  0  0  0
 15 12  1  0  0  0  0
 16 15  1  0  0  0  0
 17 16  1  0  0  0  0
 17 15  1  0  0  0  0
 18  5  1  0  0  0  0
 19 23  1  0  0  0  0
 19 18  1  0  0  0  0
 20 19  2  0  0  0  0
 21 20  1  0  0  0  0
 21 22  1  0  0  0  0
 22 24  1  0  0  0  0
 22 23  2  0  0  0  0
 24 25  2  0  0  0  0
 25 29  1  0  0  0  0
 26 25  1  0  0  0  0
 26 30  1  0  0  0  0
 27 26  2  0  0  0  0
 28 27  1  0  0  0  0
 28 24  1  0  0  0  0
 31 27  1  0  0  0  0
M  END
>  <minimizedAffinity>
-5.67681885

>  <minimizedRMSD>
0.648529768

$$$$
