
 OpenBabel03242509323D

 18 19  0  0  0  0  0  0  0  0999 V2000
   37.8000   28.7040   43.5870 C   0  0  0  0  0  0  0  0  0  0  0  0
   38.3210   27.3800   43.6920 C   0  0  0  0  0  0  0  0  0  0  0  0
   38.2890   26.5820   42.5380 C   0  0  0  0  0  0  0  0  0  0  0  0
   37.7590   27.1170   41.3800 N   0  0  0  0  0  0  0  0  0  0  0  0
   37.2820   28.3730   41.3480 C   0  0  0  0  0  0  0  0  0  0  0  0
   37.3040   29.1490   42.4340 N   0  0  0  0  0  0  0  0  0  0  0  0
   37.8090   29.3460   44.4560 H   0  0  0  0  0  0  0  0  0  0  0  0
   38.7230   27.0030   44.6050 H   0  0  0  0  0  0  0  0  0  0  0  0
   36.7640   28.7380   40.0100 C   0  0  0  0  0  0  0  0  0  0  0  0
   35.4290   28.8540   39.6800 C   0  0  0  0  0  3  0  0  0  0  0  0
   35.4910   29.3170   37.9270 S   0  0  0  0  0  0  0  0  0  0  0  0
   37.4100   29.2740   37.9420 C   0  0  0  0  0  0  0  0  0  0  0  0
   37.9880   29.5000   37.0450 H   0  0  0  0  0  0  0  0  0  0  0  0
   37.7460   28.9450   39.1550 N   0  0  0  0  0  0  0  0  0  0  0  0
   38.8220   25.1980   42.6010 C   0  0  0  0  0  0  0  0  0  0  0  0
   39.5910   25.0320   41.4750 F   0  0  0  0  0  0  0  0  0  0  0  0
   39.6200   24.9980   43.6930 F   0  0  0  0  0  0  0  0  0  0  0  0
   37.7880   24.2580   42.5900 F   0  0  0  0  0  0  0  0  0  0  0  0
  1  2  1  0  0  0  0
  1  7  1  0  0  0  0
  2  8  1  0  0  0  0
  3 15  1  0  0  0  0
  3  2  2  0  0  0  0
  4  3  1  0  0  0  0
  5  4  2  0  0  0  0
  5  6  1  0  0  0  0
  6  1  2  0  0  0  0
  9  5  1  0  0  0  0
 10  9  2  0  0  0  0
 11 12  1  0  0  0  0
 11 10  1  0  0  0  0
 12 14  2  0  0  0  0
 13 12  1  0  0  0  0
 14  9  1  0  0  0  0
 15 17  1  0  0  0  0
 16 15  1  0  0  0  0
 18 15  1  0  0  0  0
M  END
>  <minimizedAffinity>
-3.85926962

>  <minimizedRMSD>
1.33210909

$$$$
