
 OpenBabel03242507493D

 37 41  0  0  1  0  0  0  0  0999 V2000
   39.8430   26.2250   43.8880 C   0  0  2  0  0  0  0  0  0  0  0  0
   40.9860   25.7940   42.9600 C   0  0  0  0  0  0  0  0  0  0  0  0
   39.7660   24.9530   43.0920 C   0  0  2  0  0  0  0  0  0  0  0  0
   40.0000   26.1250   44.9740 H   0  0  0  0  0  0  0  0  0  0  0  0
   41.9010   25.4580   43.5100 H   0  0  0  0  0  0  0  0  0  0  0  0
   41.1270   26.3520   42.0140 H   0  0  0  0  0  0  0  0  0  0  0  0
   39.8020   24.0230   43.7150 H   0  0  0  0  0  0  0  0  0  0  0  0
   38.7770   24.8370   41.9990 C   0  0  0  0  0  0  0  0  0  0  0  0
   37.5700   24.2030   42.2320 C   0  0  0  0  0  0  0  0  0  0  0  0
   36.7450   24.1440   41.1450 C   0  0  0  0  0  0  0  0  0  0  0  0
   36.9900   24.6260   39.9190 N   0  0  0  0  0  0  0  0  0  0  0  0
   38.1950   25.2430   39.7440 C   0  0  0  0  0  0  0  0  0  0  0  0
   39.0480   25.3340   40.7690 N   0  0  0  0  0  0  0  0  0  0  0  0
   37.2860   23.7820   43.1920 H   0  0  0  0  0  0  0  0  0  0  0  0
   35.7750   23.6560   41.2590 H   0  0  0  0  0  0  0  0  0  0  0  0
   38.5240   25.7980   38.4090 C   0  0  0  0  0  0  0  0  0  0  0  0
   37.5680   26.7550   37.8710 C   0  0  0  0  0  0  0  0  0  0  0  0
   38.2610   27.2160   36.2730 S   0  0  0  0  0  0  0  0  0  0  0  0
   39.7450   26.0560   36.5480 C   0  0  0  0  0  0  0  0  0  0  0  0
   40.8050   25.6090   36.0890 H   0  0  0  0  0  0  0  0  0  0  0  0
   39.5300   25.6050   37.5730 N   0  0  0  0  0  0  0  0  0  0  0  0
   38.4610   29.2490   42.5510 C   0  0  0  0  0  0  0  0  0  0  0  0
   37.4030   28.8150   43.3720 C   0  0  0  0  0  0  0  0  0  0  0  0
   37.8360   27.6310   43.9490 C   0  0  0  0  0  0  0  0  0  0  0  0
   39.0730   27.3880   43.4920 N   0  0  0  0  0  0  0  0  0  0  0  0
   39.4590   28.3560   42.6500 N   0  0  0  0  0  0  0  0  0  0  0  0
   36.4500   29.2940   43.5290 H   0  0  0  0  0  0  0  0  0  0  0  0
   37.2090   27.0760   44.6340 H   0  0  0  0  0  0  0  0  0  0  0  0
   37.0760   31.8630   40.3910 C   0  0  0  0  0  0  0  0  0  0  0  0
   38.1150   32.8050   40.3250 C   0  0  0  0  0  0  0  0  0  0  0  0
   39.2950   32.5250   41.0330 C   0  0  0  0  0  0  0  0  0  0  0  0
   39.3820   31.3720   41.7430 N   0  0  0  0  0  0  0  0  0  0  0  0
   38.3480   30.4780   41.7830 C   0  0  0  0  0  0  0  0  0  0  0  0
   37.1820   30.7270   41.1000 N   0  0  0  0  0  0  0  0  0  0  0  0
   36.1500   32.0590   39.8490 H   0  0  0  0  0  0  0  0  0  0  0  0
   37.9430   33.6790   39.7390 H   0  0  0  0  0  0  0  0  0  0  0  0
   40.0860   33.2470   40.9810 H   0  0  0  0  0  0  0  0  0  0  0  0
  1  4  1  1  0  0  0
  2  3  1  0  0  0  0
  2  5  1  0  0  0  0
  2  1  1  0  0  0  0
  3  7  1  1  0  0  0
  3  1  1  0  0  0  0
  6  2  1  0  0  0  0
  8  9  1  0  0  0  0
  8  3  1  0  0  0  0
  9 14  1  0  0  0  0
 10 15  1  0  0  0  0
 10  9  2  0  0  0  0
 11 10  1  0  0  0  0
 12 11  2  0  0  0  0
 12 13  1  0  0  0  0
 13  8  2  0  0  0  0
 16 12  1  0  0  0  0
 17 16  2  0  0  0  0
 18 19  1  0  0  0  0
 18 17  1  0  0  0  0
 19 21  2  0  0  0  0
 20 19  1  0  0  0  0
 21 16  1  0  0  0  0
 22 26  2  0  0  0  0
 22 23  1  0  0  0  0
 23 27  1  0  0  0  0
 23 24  2  0  0  0  0
 24 28  1  0  0  0  0
 25  1  1  0  0  0  0
 25 24  1  0  0  0  0
 26 25  1  0  0  0  0
 29 34  1  0  0  0  0
 30 29  2  0  0  0  0
 30 31  1  0  0  0  0
 31 32  2  0  0  0  0
 32 33  1  0  0  0  0
 33 22  1  0  0  0  0
 34 33  2  0  0  0  0
 35 29  1  0  0  0  0
 36 30  1  0  0  0  0
 37 31  1  0  0  0  0
M  END
>  <minimizedAffinity>
-5.47214031

>  <minimizedRMSD>
0.215804532

$$$$
