
 OpenBabel03242509313D

 18 19  0  0  0  0  0  0  0  0999 V2000
   37.9230   28.5970   43.5180 C   0  0  0  0  0  0  0  0  0  0  0  0
   38.5470   27.3190   43.6220 C   0  0  0  0  0  0  0  0  0  0  0  0
   38.2950   26.3920   42.6000 C   0  0  0  0  0  0  0  0  0  0  0  0
   37.4640   26.7670   41.5610 N   0  0  0  0  0  0  0  0  0  0  0  0
   36.9050   27.9880   41.5210 C   0  0  0  0  0  0  0  0  0  0  0  0
   37.1330   28.8840   42.4840 N   0  0  0  0  0  0  0  0  0  0  0  0
   38.0950   29.3340   44.2880 H   0  0  0  0  0  0  0  0  0  0  0  0
   39.1840   27.0670   44.4410 H   0  0  0  0  0  0  0  0  0  0  0  0
   36.0550   28.1730   40.3230 C   0  0  0  0  0  0  0  0  0  0  0  0
   35.1080   29.1640   40.1690 C   0  0  0  0  0  3  0  0  0  0  0  0
   34.4460   28.8270   38.5130 S   0  0  0  0  0  0  0  0  0  0  0  0
   35.6250   27.3260   38.3050 C   0  0  0  0  0  0  0  0  0  0  0  0
   35.6200   26.7260   37.3930 H   0  0  0  0  0  0  0  0  0  0  0  0
   36.3140   27.2640   39.4060 N   0  0  0  0  0  0  0  0  0  0  0  0
   38.9250   25.0500   42.6670 C   0  0  0  0  0  0  0  0  0  0  0  0
   39.7290   24.9480   41.5590 F   0  0  0  0  0  0  0  0  0  0  0  0
   39.7100   24.9000   43.7760 F   0  0  0  0  0  0  0  0  0  0  0  0
   37.9620   24.0380   42.6280 F   0  0  0  0  0  0  0  0  0  0  0  0
  1  2  1  0  0  0  0
  1  7  1  0  0  0  0
  2  8  1  0  0  0  0
  3 15  1  0  0  0  0
  3  2  2  0  0  0  0
  4  3  1  0  0  0  0
  5  4  2  0  0  0  0
  5  6  1  0  0  0  0
  6  1  2  0  0  0  0
  9  5  1  0  0  0  0
 10  9  2  0  0  0  0
 11 10  1  0  0  0  0
 12 11  1  0  0  0  0
 12 14  2  0  0  0  0
 13 12  1  0  0  0  0
 14  9  1  0  0  0  0
 15 17  1  0  0  0  0
 16 15  1  0  0  0  0
 18 15  1  0  0  0  0
M  END
>  <minimizedAffinity>
-4.15229797

>  <minimizedRMSD>
1.4463228

$$$$
