
 OpenBabel03242509323D

 18 19  0  0  0  0  0  0  0  0999 V2000
   37.8120   28.6080   43.5830 C   0  0  0  0  0  0  0  0  0  0  0  0
   38.3780   27.3050   43.7010 C   0  0  0  0  0  0  0  0  0  0  0  0
   38.3350   26.4770   42.5680 C   0  0  0  0  0  0  0  0  0  0  0  0
   37.7510   26.9680   41.4160 N   0  0  0  0  0  0  0  0  0  0  0  0
   37.2340   28.2070   41.3690 C   0  0  0  0  0  0  0  0  0  0  0  0
   37.2660   29.0100   42.4360 N   0  0  0  0  0  0  0  0  0  0  0  0
   37.8290   29.2720   44.4350 H   0  0  0  0  0  0  0  0  0  0  0  0
   38.8210   26.9620   44.6100 H   0  0  0  0  0  0  0  0  0  0  0  0
   36.6620   28.5230   40.0410 C   0  0  0  0  0  0  0  0  0  0  0  0
   36.6740   29.7690   39.4490 C   0  0  0  0  0  3  0  0  0  0  0  0
   35.8310   29.4670   37.8710 S   0  0  0  0  0  0  0  0  0  0  0  0
   35.5940   27.6130   38.3060 C   0  0  0  0  0  0  0  0  0  0  0  0
   35.0940   26.9290   37.6180 H   0  0  0  0  0  0  0  0  0  0  0  0
   36.1310   27.4560   39.4810 N   0  0  0  0  0  0  0  0  0  0  0  0
   38.9130   25.1130   42.6460 C   0  0  0  0  0  0  0  0  0  0  0  0
   39.7170   24.9740   41.5420 F   0  0  0  0  0  0  0  0  0  0  0  0
   39.6870   24.9400   43.7590 F   0  0  0  0  0  0  0  0  0  0  0  0
   37.9120   24.1380   42.6080 F   0  0  0  0  0  0  0  0  0  0  0  0
  1  2  1  0  0  0  0
  1  7  1  0  0  0  0
  2  8  1  0  0  0  0
  3 15  1  0  0  0  0
  3  2  2  0  0  0  0
  4  3  1  0  0  0  0
  5  4  2  0  0  0  0
  5  6  1  0  0  0  0
  6  1  2  0  0  0  0
  9  5  1  0  0  0  0
 10  9  2  0  0  0  0
 11 12  1  0  0  0  0
 11 10  1  0  0  0  0
 12 14  2  0  0  0  0
 13 12  1  0  0  0  0
 14  9  1  0  0  0  0
 15 17  1  0  0  0  0
 16 15  1  0  0  0  0
 18 15  1  0  0  0  0
M  END
>  <minimizedAffinity>
-3.87864256

>  <minimizedRMSD>
1.42905712

$$$$
