
 OpenBabel03242509273D

 45 49  0  0  0  0  0  0  0  0999 V2000
   35.9980   30.0020   40.9370 C   0  0  0  0  0  0  0  0  0  0  0  0
   36.5980   30.8130   40.4750 H   0  0  0  0  0  0  0  0  0  0  0  0
   35.3720   30.5150   41.7230 H   0  0  0  0  0  0  0  0  0  0  0  0
   38.4690   28.1440   42.6060 C   0  0  0  0  0  0  0  0  0  0  0  0
   37.3950   27.3000   42.7060 C   0  0  0  0  0  0  0  0  0  0  0  0
   36.3280   27.9360   42.0660 C   0  0  0  0  0  0  0  0  0  0  0  0
   36.8430   29.0970   41.6390 N   0  0  0  0  0  0  0  0  0  0  0  0
   38.0910   29.2610   41.9340 N   0  0  0  0  0  0  0  0  0  0  0  0
   37.4210   26.3220   43.2040 H   0  0  0  0  0  0  0  0  0  0  0  0
   35.3710   27.4790   42.0070 H   0  0  0  0  0  0  0  0  0  0  0  0
   41.3830   26.5530   44.3030 C   0  0  0  0  0  0  0  0  0  0  0  0
   40.0850   26.7280   43.8140 C   0  0  0  0  0  0  0  0  0  0  0  0
   39.7990   27.9160   43.1260 C   0  0  0  0  0  0  0  0  0  0  0  0
   40.7680   28.8410   42.9590 N   0  0  0  0  0  0  0  0  0  0  0  0
   42.0270   28.6260   43.4560 C   0  0  0  0  0  0  0  0  0  0  0  0
   42.3170   27.4890   44.1200 N   0  0  0  0  0  0  0  0  0  0  0  0
   41.5580   25.6270   44.8250 H   0  0  0  0  0  0  0  0  0  0  0  0
   39.3270   25.9680   43.9620 H   0  0  0  0  0  0  0  0  0  0  0  0
   42.9950   29.6900   43.2190 C   0  0  0  0  0  0  0  0  0  0  0  0
   42.5290   31.0970   43.3450 C   0  0  0  0  0  0  0  0  0  0  0  0
   44.0240   32.0760   42.9750 S   0  0  0  0  0  0  0  0  0  0  0  0
   45.0230   30.4800   42.7120 C   0  0  0  0  0  0  0  0  0  0  0  0
   46.1500   30.1320   42.4250 H   0  0  0  0  0  0  0  0  0  0  0  0
   44.2730   29.6440   42.8960 N   0  0  0  0  0  0  0  0  0  0  0  0
   35.1440   29.4020   39.8660 C   0  0  0  0  0  0  0  0  0  0  0  0
   34.7120   28.4740   40.2170 H   0  0  0  0  0  0  0  0  0  0  0  0
   34.3890   30.2530   39.7550 H   0  0  0  0  0  0  0  0  0  0  0  0
   35.7710   29.3690   38.5280 C   0  0  0  0  0  0  0  0  0  0  0  0
   37.0960   29.5090   38.2230 C   0  0  0  0  0  0  0  0  0  0  0  0
   37.6310   29.5380   36.9650 C   0  0  0  0  0  0  0  0  0  0  0  0
   36.8000   29.4200   35.8770 C   0  0  0  0  0  0  0  0  0  0  0  0
   35.4440   29.2740   36.1170 C   0  0  0  0  0  0  0  0  0  0  0  0
   34.6650   29.1650   34.9900 C   0  0  0  0  0  0  0  0  0  0  0  0
   33.3110   29.0190   35.1180 C   0  0  0  0  0  0  0  0  0  0  0  0
   32.7510   28.9780   36.3760 C   0  0  0  0  0  0  0  0  0  0  0  0
   33.5830   29.0910   37.4550 C   0  0  0  0  0  0  0  0  0  0  0  0
   34.9330   29.2460   37.4140 C   0  0  0  0  0  0  0  0  0  0  0  0
   37.7680   29.6040   39.0800 H   0  0  0  0  0  0  0  0  0  0  0  0
   38.7020   29.6530   36.8700 H   0  0  0  0  0  0  0  0  0  0  0  0
   37.2300   29.4450   34.8850 H   0  0  0  0  0  0  0  0  0  0  0  0
   35.0710   29.1920   33.9900 H   0  0  0  0  0  0  0  0  0  0  0  0
   32.6960   28.9360   34.2300 H   0  0  0  0  0  0  0  0  0  0  0  0
   31.6810   28.8600   36.4770 H   0  0  0  0  0  0  0  0  0  0  0  0
   32.9600   29.0250   38.6950 O   0  0  0  0  0  0  0  0  0  0  0  0
   32.5160   28.2090   39.0770 H   0  0  0  0  0  0  0  0  0  0  0  0
  1  7  1  0  0  0  0
  1  3  1  0  0  0  0
  2  1  1  0  0  0  0
  4  5  1  0  0  0  0
  4 13  1  0  0  0  0
  5  9  1  0  0  0  0
  6  5  2  0  0  0  0
  7  8  1  0  0  0  0
  7  6  1  0  0  0  0
  8  4  2  0  0  0  0
 10  6  1  0  0  0  0
 11 17  1  0  0  0  0
 12 18  1  0  0  0  0
 12 11  2  0  0  0  0
 13 12  1  0  0  0  0
 14 13  2  0  0  0  0
 14 15  1  0  0  0  0
 15 16  2  0  0  0  0
 16 11  1  0  0  0  0
 19 20  2  0  0  0  0
 19 15  1  0  0  0  0
 21 20  1  0  0  0  0
 22 24  2  0  0  0  0
 22 21  1  0  0  0  0
 23 22  1  0  0  0  0
 24 19  1  0  0  0  0
 25 26  1  0  0  0  0
 25  1  1  0  0  0  0
 27 25  1  0  0  0  0
 28 25  1  0  0  0  0
 29 28  1  0  0  0  0
 29 38  1  0  0  0  0
 30 29  2  0  0  0  0
 31 32  2  0  0  0  0
 31 30  1  0  0  0  0
 32 37  1  0  0  0  0
 33 34  2  0  0  0  0
 33 32  1  0  0  0  0
 34 35  1  0  0  0  0
 35 43  1  0  0  0  0
 35 36  2  0  0  0  0
 36 44  1  0  0  0  0
 37 36  1  0  0  0  0
 37 28  2  0  0  0  0
 39 30  1  0  0  0  0
 40 31  1  0  0  0  0
 41 33  1  0  0  0  0
 42 34  1  0  0  0  0
 44 45  1  0  0  0  0
M  END
>  <minimizedAffinity>
-5.97012568

>  <minimizedRMSD>
0.740683138

$$$$
