
 OpenBabel03242509313D

 18 19  0  0  0  0  0  0  0  0999 V2000
   37.8140   28.7310   43.6080 C   0  0  0  0  0  0  0  0  0  0  0  0
   38.3150   27.3990   43.6930 C   0  0  0  0  0  0  0  0  0  0  0  0
   38.2770   26.6200   42.5260 C   0  0  0  0  0  0  0  0  0  0  0  0
   37.7610   27.1830   41.3750 N   0  0  0  0  0  0  0  0  0  0  0  0
   37.3030   28.4460   41.3600 C   0  0  0  0  0  0  0  0  0  0  0  0
   37.3310   29.2040   42.4590 N   0  0  0  0  0  0  0  0  0  0  0  0
   37.8280   29.3590   44.4870 H   0  0  0  0  0  0  0  0  0  0  0  0
   38.7060   27.0000   44.6020 H   0  0  0  0  0  0  0  0  0  0  0  0
   36.7980   28.8410   40.0260 C   0  0  0  0  0  0  0  0  0  0  0  0
   37.5180   29.5400   39.0800 C   0  0  0  0  0  3  0  0  0  0  0  0
   36.3370   29.6890   37.7120 S   0  0  0  0  0  0  0  0  0  0  0  0
   35.0040   28.7290   38.7040 C   0  0  0  0  0  0  0  0  0  0  0  0
   34.0170   28.5320   38.2830 H   0  0  0  0  0  0  0  0  0  0  0  0
   35.5570   28.4380   39.8460 N   0  0  0  0  0  0  0  0  0  0  0  0
   38.7890   25.2280   42.5690 C   0  0  0  0  0  0  0  0  0  0  0  0
   39.5310   25.0570   41.4260 F   0  0  0  0  0  0  0  0  0  0  0  0
   39.6060   25.0070   43.6420 F   0  0  0  0  0  0  0  0  0  0  0  0
   37.7400   24.3040   42.5740 F   0  0  0  0  0  0  0  0  0  0  0  0
  1  2  1  0  0  0  0
  1  7  1  0  0  0  0
  2  8  1  0  0  0  0
  3 15  1  0  0  0  0
  3  2  2  0  0  0  0
  4  3  1  0  0  0  0
  5  4  2  0  0  0  0
  5  6  1  0  0  0  0
  6  1  2  0  0  0  0
  9  5  1  0  0  0  0
 10  9  2  0  0  0  0
 11 12  1  0  0  0  0
 11 10  1  0  0  0  0
 12 14  2  0  0  0  0
 13 12  1  0  0  0  0
 14  9  1  0  0  0  0
 15 18  1  0  0  0  0
 15 17  1  0  0  0  0
 16 15  1  0  0  0  0
M  END
>  <minimizedAffinity>
-3.90569305

>  <minimizedRMSD>
1.2919457

$$$$
