
 OpenBabel03242503143D

 27 29  0  0  1  0  0  0  0  0999 V2000
   38.4370   29.2490   42.9870 C   0  0  0  0  0  0  0  0  0  0  0  0
   37.8030   28.2490   43.7540 C   0  0  0  0  0  0  0  0  0  0  0  0
   36.6720   27.6520   43.2060 C   0  0  0  0  0  0  0  0  0  0  0  0
   36.2300   28.0540   41.9650 N   0  0  0  0  0  0  0  0  0  0  0  0
   36.8790   29.0150   41.2810 C   0  0  0  0  0  0  0  0  0  0  0  0
   37.9720   29.6000   41.7980 N   0  0  0  0  0  0  0  0  0  0  0  0
   36.3850   29.3880   40.0160 N   0  0  0  0  0  0  0  0  0  0  0  0
   35.6770   28.4580   39.1410 C   0  0  0  0  0  0  0  0  0  0  0  0
   35.9980   28.9820   37.7730 C   0  0  0  0  0  0  0  0  0  0  0  0
   36.6360   30.3150   37.9450 C   0  0  0  0  0  0  0  0  0  0  0  0
   36.4830   30.6910   39.4080 C   0  0  2  0  0  0  0  0  0  0  0  0
   39.3120   29.6660   43.4850 H   0  0  0  0  0  0  0  0  0  0  0  0
   38.0690   27.8740   44.7150 H   0  0  0  0  0  0  0  0  0  0  0  0
   36.0660   26.8750   43.6520 H   0  0  0  0  0  0  0  0  0  0  0  0
   34.5900   28.4470   39.3250 H   0  0  0  0  0  0  0  0  0  0  0  0
   36.0940   27.4460   39.3190 H   0  0  0  0  0  0  0  0  0  0  0  0
   35.1110   29.0130   37.1040 H   0  0  0  0  0  0  0  0  0  0  0  0
   36.7590   28.2940   37.3180 H   0  0  0  0  0  0  0  0  0  0  0  0
   37.6960   30.3530   37.6090 H   0  0  0  0  0  0  0  0  0  0  0  0
   36.0550   31.0540   37.3490 H   0  0  0  0  0  0  0  0  0  0  0  0
   35.5950   31.2920   39.5570 H   0  0  0  0  0  0  0  0  0  0  0  0
   37.7630   31.4120   39.7720 C   0  0  0  0  0  0  0  0  0  0  0  0
   39.0020   30.9860   39.1970 C   0  0  0  0  0  0  0  0  0  0  0  0
   40.1670   32.1390   39.9380 S   0  0  0  0  0  0  0  0  0  0  0  0
   38.8010   33.0280   40.9170 C   0  0  0  0  0  0  0  0  0  0  0  0
   38.7950   33.9040   41.6390 H   0  0  0  0  0  0  0  0  0  0  0  0
   37.7470   32.4280   40.6120 N   0  0  0  0  0  0  0  0  0  0  0  0
  1 12  1  0  0  0  0
  1  2  1  0  0  0  0
  2 13  1  0  0  0  0
  3 14  1  0  0  0  0
  3  2  2  0  0  0  0
  4  3  1  0  0  0  0
  5  6  1  0  0  0  0
  5  4  2  0  0  0  0
  6  1  2  0  0  0  0
  7  5  1  0  0  0  0
  8 16  1  0  0  0  0
  8 15  1  0  0  0  0
  8  7  1  0  0  0  0
  9 10  1  0  0  0  0
  9  8  1  0  0  0  0
 10 11  1  0  0  0  0
 11 21  1  1  0  0  0
 11 22  1  0  0  0  0
 11  7  1  0  0  0  0
 17  9  1  0  0  0  0
 18  9  1  0  0  0  0
 19 10  1  0  0  0  0
 20 10  1  0  0  0  0
 22 27  1  0  0  0  0
 23 22  2  0  0  0  0
 23 24  1  0  0  0  0
 24 25  1  0  0  0  0
 25 26  1  0  0  0  0
 27 25  2  0  0  0  0
M  END
>  <minimizedAffinity>
-4.53391743

>  <minimizedRMSD>
1.26206648

$$$$
