
 OpenBabel03242506583D

 40 44  0  0  0  0  0  0  0  0999 V2000
   39.7300   32.4330   40.9590 C   0  0  0  0  0  0  0  0  0  0  0  0
   40.8390   31.8760   41.6360 C   0  0  0  0  0  0  0  0  0  0  0  0
   40.8470   30.5980   42.1650 C   0  0  0  0  0  0  0  0  0  0  0  0
   39.7100   29.8160   42.0280 C   0  0  0  0  0  0  0  0  0  0  0  0
   38.6200   30.3090   41.3850 C   0  0  0  0  0  0  0  0  0  0  0  0
   37.5340   29.5070   41.2700 C   0  0  0  0  0  0  0  0  0  0  0  0
   36.3710   29.9630   40.6030 C   0  0  0  0  0  0  0  0  0  0  0  0
   36.4350   31.2680   40.0900 C   0  0  0  0  0  0  0  0  0  0  0  0
   37.5650   32.0200   40.2440 C   0  0  0  0  0  0  0  0  0  0  0  0
   38.6930   31.5720   40.8940 C   0  0  0  0  0  0  0  0  0  0  0  0
   41.7600   32.4520   41.7700 H   0  0  0  0  0  0  0  0  0  0  0  0
   41.7260   30.2290   42.6720 H   0  0  0  0  0  0  0  0  0  0  0  0
   39.6720   28.7920   42.4360 H   0  0  0  0  0  0  0  0  0  0  0  0
   35.4700   29.4370   40.4500 H   0  0  0  0  0  0  0  0  0  0  0  0
   35.5780   31.6990   39.5590 H   0  0  0  0  0  0  0  0  0  0  0  0
   37.5650   33.0350   39.8260 H   0  0  0  0  0  0  0  0  0  0  0  0
   39.9050   33.7680   40.4940 C   0  0  0  0  0  0  0  0  0  0  0  0
   39.1000   34.9130   40.6840 C   0  0  0  0  0  0  0  0  0  0  0  0
   39.4420   36.1570   40.1650 C   0  0  0  0  0  0  0  0  0  0  0  0
   40.6150   36.2090   39.4520 N   0  0  0  0  0  0  0  0  0  0  0  0
   41.3750   35.1480   39.2680 C   0  0  0  0  0  0  0  0  0  0  0  0
   41.0320   33.9620   39.7730 N   0  0  0  0  0  0  0  0  0  0  0  0
   38.2120   34.6800   41.2730 H   0  0  0  0  0  0  0  0  0  0  0  0
   38.7560   36.9580   40.3720 H   0  0  0  0  0  0  0  0  0  0  0  0
   42.2710   35.3360   38.6860 H   0  0  0  0  0  0  0  0  0  0  0  0
   37.3250   28.1630   41.7500 C   0  0  0  0  0  0  0  0  0  0  0  0
   36.7500   27.7420   42.9170 C   0  0  0  0  0  0  0  0  0  0  0  0
   36.5550   26.4400   43.2910 C   0  0  0  0  0  0  0  0  0  0  0  0
   36.9440   25.4280   42.4810 C   0  0  0  0  0  0  0  0  0  0  0  0
   37.5290   25.8410   41.2930 C   0  0  0  0  0  0  0  0  0  0  0  0
   37.6970   27.1380   40.9750 N   0  0  0  0  0  0  0  0  0  0  0  0
   36.4260   28.5500   43.5920 H   0  0  0  0  0  0  0  0  0  0  0  0
   36.0840   26.2280   44.2490 H   0  0  0  0  0  0  0  0  0  0  0  0
   36.8110   24.4030   42.7330 H   0  0  0  0  0  0  0  0  0  0  0  0
   38.0040   24.8410   40.3060 C   0  0  0  0  0  0  0  0  0  0  0  0
   38.0570   23.4190   40.6930 C   0  0  0  0  0  0  0  0  0  0  0  0
   38.6720   22.6080   39.2310 S   0  0  0  0  0  0  0  0  0  0  0  0
   38.7840   24.2570   38.2910 C   0  0  0  0  0  0  0  0  0  0  0  0
   39.1040   24.6330   37.2310 H   0  0  0  0  0  0  0  0  0  0  0  0
   38.4150   25.0110   39.0640 N   0  0  0  0  0  0  0  0  0  0  0  0
  1  2  1  0  0  0  0
  2 11  1  0  0  0  0
  2  3  2  0  0  0  0
  3 12  1  0  0  0  0
  4  3  1  0  0  0  0
  4 13  1  0  0  0  0
  5  4  2  0  0  0  0
  6  5  1  0  0  0  0
  6 26  1  0  0  0  0
  7  6  2  0  0  0  0
  8  9  2  0  0  0  0
  8  7  1  0  0  0  0
  9 10  1  0  0  0  0
 10  1  2  0  0  0  0
 10  5  1  0  0  0  0
 14  7  1  0  0  0  0
 15  8  1  0  0  0  0
 16  9  1  0  0  0  0
 17 18  1  0  0  0  0
 17  1  1  0  0  0  0
 18 23  1  0  0  0  0
 19 24  1  0  0  0  0
 19 18  2  0  0  0  0
 20 19  1  0  0  0  0
 21 20  2  0  0  0  0
 21 22  1  0  0  0  0
 22 17  2  0  0  0  0
 25 21  1  0  0  0  0
 26 27  1  0  0  0  0
 27 28  2  0  0  0  0
 27 32  1  0  0  0  0
 28 33  1  0  0  0  0
 29 34  1  0  0  0  0
 29 28  1  0  0  0  0
 30 29  2  0  0  0  0
 31 30  1  0  0  0  0
 31 26  2  0  0  0  0
 35 36  2  0  0  0  0
 35 30  1  0  0  0  0
 37 36  1  0  0  0  0
 38 40  2  0  0  0  0
 38 37  1  0  0  0  0
 39 38  1  0  0  0  0
 40 35  1  0  0  0  0
M  END
>  <minimizedAffinity>
-6.52179527

>  <minimizedRMSD>
1.43985665

$$$$
