
 OpenBabel03242506353D

 23 25  0  0  0  0  0  0  0  0999 V2000
   37.1410   30.1800   40.2890 C   0  0  0  0  0  0  0  0  0  0  0  0
   37.3560   31.5340   40.3390 C   0  0  0  0  0  0  0  0  0  0  0  0
   37.2970   32.2360   39.1490 C   0  0  0  0  0  0  0  0  0  0  0  0
   37.0390   31.6320   37.9760 N   0  0  0  0  0  0  0  0  0  0  0  0
   36.8290   30.2910   37.9460 C   0  0  0  0  0  0  0  0  0  0  0  0
   36.8840   29.5900   39.1030 N   0  0  0  0  0  0  0  0  0  0  0  0
   37.5570   31.9640   41.2930 H   0  0  0  0  0  0  0  0  0  0  0  0
   37.4690   33.3110   39.2040 H   0  0  0  0  0  0  0  0  0  0  0  0
   38.1020   28.9520   43.6100 C   0  0  0  0  0  0  0  0  0  0  0  0
   37.2490   27.8300   43.7690 C   0  0  0  0  0  0  0  0  0  0  0  0
   36.3710   27.5240   42.7410 C   0  0  0  0  0  0  0  0  0  0  0  0
   36.3700   28.3170   41.6240 N   0  0  0  0  0  0  0  0  0  0  0  0
   37.1880   29.3730   41.4990 C   0  0  0  0  0  0  0  0  0  0  0  0
   38.0370   29.6770   42.4830 N   0  0  0  0  0  0  0  0  0  0  0  0
   38.7820   29.1800   44.4200 H   0  0  0  0  0  0  0  0  0  0  0  0
   37.2810   27.2210   44.6780 H   0  0  0  0  0  0  0  0  0  0  0  0
   35.6920   26.6810   42.7980 H   0  0  0  0  0  0  0  0  0  0  0  0
   36.5410   29.5770   36.6810 C   0  0  0  0  0  0  0  0  0  0  0  0
   36.2420   28.2190   36.7160 C   0  0  0  0  0  0  0  0  0  0  0  0
   35.9720   27.8180   34.9510 S   0  0  0  0  0  0  0  0  0  0  0  0
   36.3300   29.6420   34.4620 C   0  0  0  0  0  0  0  0  0  0  0  0
   36.3650   30.2500   33.4630 H   0  0  0  0  0  0  0  0  0  0  0  0
   36.5410   30.1290   35.4670 N   0  0  0  0  0  0  0  0  0  0  0  0
  1  2  1  0  0  0  0
  1 13  1  0  0  0  0
  2  7  1  0  0  0  0
  3  8  1  0  0  0  0
  3  2  2  0  0  0  0
  4  3  1  0  0  0  0
  5  4  2  0  0  0  0
  5  6  1  0  0  0  0
  6  1  2  0  0  0  0
  9 10  1  0  0  0  0
  9 15  1  0  0  0  0
 10 16  1  0  0  0  0
 11 17  1  0  0  0  0
 11 10  2  0  0  0  0
 12 11  1  0  0  0  0
 13 12  2  0  0  0  0
 13 14  1  0  0  0  0
 14  9  2  0  0  0  0
 18 19  2  0  0  0  0
 18  5  1  0  0  0  0
 20 19  1  0  0  0  0
 21 20  1  0  0  0  0
 21 23  2  0  0  0  0
 22 21  1  0  0  0  0
 23 18  1  0  0  0  0
M  END
>  <minimizedAffinity>
-4.19057369

>  <minimizedRMSD>
0.978765428

$$$$
