
 OpenBabel03242508453D

 33 36  0  0  1  0  0  0  0  0999 V2000
   37.9510   27.3670   42.7370 C   0  0  2  0  0  0  0  0  0  0  0  0
   39.0340   27.6640   43.6810 C   0  0  0  0  0  0  0  0  0  0  0  0
   39.7590   26.3410   43.8610 C   0  0  0  0  0  0  0  0  0  0  0  0
   39.3100   25.4720   42.7420 C   0  0  0  0  0  0  0  0  0  0  0  0
   38.5650   26.3730   41.7690 C   0  0  1  0  0  0  0  0  0  0  0  0
   37.1450   26.7810   43.2550 H   0  0  0  0  0  0  0  0  0  0  0  0
   38.6070   28.0540   44.6260 H   0  0  0  0  0  0  0  0  0  0  0  0
   39.8070   28.3540   43.3040 H   0  0  0  0  0  0  0  0  0  0  0  0
   40.8590   26.4600   43.9190 H   0  0  0  0  0  0  0  0  0  0  0  0
   39.4080   25.9550   44.8570 H   0  0  0  0  0  0  0  0  0  0  0  0
   38.7170   24.6570   43.1490 H   0  0  0  0  0  0  0  0  0  0  0  0
   40.2260   25.1150   42.1950 H   0  0  0  0  0  0  0  0  0  0  0  0
   39.2210   26.8360   41.0390 H   0  0  0  0  0  0  0  0  0  0  0  0
   37.9900   29.7770   41.9160 C   0  0  0  0  0  0  0  0  0  0  0  0
   37.3670   28.5130   42.0550 C   0  0  0  0  0  0  0  0  0  0  0  0
   36.1080   28.3370   41.4950 C   0  0  0  0  0  0  0  0  0  0  0  0
   35.5250   29.3990   40.8340 N   0  0  0  0  0  0  0  0  0  0  0  0
   36.1600   30.6140   40.7210 C   0  0  0  0  0  0  0  0  0  0  0  0
   37.4140   30.7910   41.2760 N   0  0  0  0  0  0  0  0  0  0  0  0
   38.9490   29.9030   42.3440 H   0  0  0  0  0  0  0  0  0  0  0  0
   35.5110   27.4390   41.5170 H   0  0  0  0  0  0  0  0  0  0  0  0
   35.6820   31.4120   40.2040 H   0  0  0  0  0  0  0  0  0  0  0  0
   37.5750   25.4260   41.1760 C   0  0  0  0  0  0  0  0  0  0  0  0
   36.8940   24.5360   41.9150 N   0  0  0  0  0  0  0  0  0  0  0  0
   36.1010   23.8780   41.0920 O   0  0  0  0  0  0  0  0  0  0  0  0
   36.2920   24.3600   39.8550 C   0  0  0  0  0  0  0  0  0  0  0  0
   37.2000   25.3210   39.8670 N   0  0  0  0  0  0  0  0  0  0  0  0
   35.5350   23.8200   38.6890 C   0  0  0  0  0  0  0  0  0  0  0  0
   34.4480   22.9240   38.9060 C   0  0  0  0  0  0  0  0  0  0  0  0
   33.9090   22.5980   37.1610 S   0  0  0  0  0  0  0  0  0  0  0  0
   35.2050   23.6930   36.4650 C   0  0  0  0  0  0  0  0  0  0  0  0
   35.4250   23.9380   35.4440 H   0  0  0  0  0  0  0  0  0  0  0  0
   35.8690   24.1700   37.4570 N   0  0  0  0  0  0  0  0  0  0  0  0
  1  6  1  1  0  0  0
  1  2  1  0  0  0  0
  2  3  1  0  0  0  0
  2  7  1  0  0  0  0
  3  9  1  0  0  0  0
  3 10  1  0  0  0  0
  4 11  1  0  0  0  0
  4  3  1  0  0  0  0
  5 13  1  6  0  0  0
  5  1  1  0  0  0  0
  5  4  1  0  0  0  0
  8  2  1  0  0  0  0
 12  4  1  0  0  0  0
 14 15  1  0  0  0  0
 14 20  1  0  0  0  0
 15  1  1  0  0  0  0
 16 21  1  0  0  0  0
 16 15  2  0  0  0  0
 17 16  1  0  0  0  0
 18 17  2  0  0  0  0
 18 19  1  0  0  0  0
 19 14  2  0  0  0  0
 22 18  1  0  0  0  0
 23  5  1  0  0  0  0
 23 24  2  0  0  0  0
 25 24  1  0  0  0  0
 26 27  2  0  0  0  0
 26 25  1  0  0  0  0
 27 23  1  0  0  0  0
 28 29  2  0  0  0  0
 28 26  1  0  0  0  0
 30 29  1  0  0  0  0
 31 30  1  0  0  0  0
 31 33  2  0  0  0  0
 32 31  1  0  0  0  0
 33 28  1  0  0  0  0
M  END
>  <minimizedAffinity>
-4.79054213

>  <minimizedRMSD>
0.657916248

$$$$
