
 OpenBabel03242509323D

 18 19  0  0  0  0  0  0  0  0999 V2000
   37.7900   28.6520   43.5670 C   0  0  0  0  0  0  0  0  0  0  0  0
   38.2890   27.3240   43.7120 C   0  0  0  0  0  0  0  0  0  0  0  0
   38.4250   26.5550   42.5460 C   0  0  0  0  0  0  0  0  0  0  0  0
   38.0710   27.1230   41.3370 N   0  0  0  0  0  0  0  0  0  0  0  0
   37.6050   28.3820   41.2680 C   0  0  0  0  0  0  0  0  0  0  0  0
   37.4690   29.1300   42.3660 N   0  0  0  0  0  0  0  0  0  0  0  0
   37.6730   29.2710   44.4440 H   0  0  0  0  0  0  0  0  0  0  0  0
   38.5530   26.9200   44.6640 H   0  0  0  0  0  0  0  0  0  0  0  0
   37.2890   28.7840   39.8790 C   0  0  0  0  0  0  0  0  0  0  0  0
   37.3670   27.9580   38.7760 C   0  0  0  0  0  3  0  0  0  0  0  0
   36.8570   29.0540   37.4230 S   0  0  0  0  0  0  0  0  0  0  0  0
   36.6120   30.5150   38.6440 C   0  0  0  0  0  0  0  0  0  0  0  0
   36.2800   31.4940   38.2950 H   0  0  0  0  0  0  0  0  0  0  0  0
   36.9170   30.0460   39.8180 N   0  0  0  0  0  0  0  0  0  0  0  0
   38.9410   25.1680   42.6490 C   0  0  0  0  0  0  0  0  0  0  0  0
   39.7530   24.9780   41.5580 F   0  0  0  0  0  0  0  0  0  0  0  0
   39.6910   24.9750   43.7760 F   0  0  0  0  0  0  0  0  0  0  0  0
   37.8990   24.2370   42.6090 F   0  0  0  0  0  0  0  0  0  0  0  0
  1  2  1  0  0  0  0
  1  7  1  0  0  0  0
  2  8  1  0  0  0  0
  3 15  1  0  0  0  0
  3  2  2  0  0  0  0
  4  3  1  0  0  0  0
  5  4  2  0  0  0  0
  5  6  1  0  0  0  0
  6  1  2  0  0  0  0
  9  5  1  0  0  0  0
 10  9  2  0  0  0  0
 11 12  1  0  0  0  0
 11 10  1  0  0  0  0
 12 14  2  0  0  0  0
 13 12  1  0  0  0  0
 14  9  1  0  0  0  0
 15 17  1  0  0  0  0
 16 15  1  0  0  0  0
 18 15  1  0  0  0  0
M  END
>  <minimizedAffinity>
-3.80712914

>  <minimizedRMSD>
1.6385814

$$$$
