
 OpenBabel03242506463D

 30 33  0  0  0  0  0  0  0  0999 V2000
   44.5830   26.4630   44.2940 C   0  0  0  0  0  0  0  0  0  0  0  0
   43.3850   26.4840   43.5610 C   0  0  0  0  0  0  0  0  0  0  0  0
   42.2140   26.9420   44.1530 C   0  0  0  0  0  0  0  0  0  0  0  0
   42.2770   27.3680   45.4700 N   0  0  0  0  0  0  0  0  0  0  0  0
   43.4440   27.3300   46.1330 C   0  0  0  0  0  0  0  0  0  0  0  0
   44.5790   26.8930   45.5790 N   0  0  0  0  0  0  0  0  0  0  0  0
   45.5020   26.1070   43.8390 H   0  0  0  0  0  0  0  0  0  0  0  0
   43.3630   26.0300   42.1870 C   0  0  0  0  0  0  0  0  0  0  0  0
   42.3920   25.2650   41.5840 C   0  0  0  0  0  0  0  0  0  0  0  0
   42.7370   25.0440   40.2620 C   0  0  0  0  0  0  0  0  0  0  0  0
   43.9410   25.7080   40.1260 C   0  0  0  0  0  0  0  0  0  0  0  0
   44.5020   25.7400   39.1970 H   0  0  0  0  0  0  0  0  0  0  0  0
   44.2860   26.2770   41.2640 O   0  0  0  0  0  0  0  0  0  0  0  0
   43.4520   27.8040   47.5570 C   0  0  0  0  0  0  0  0  0  0  0  0
   43.4640   29.1890   47.6170 F   0  0  0  0  0  0  0  0  0  0  0  0
   42.2630   27.4380   48.2000 F   0  0  0  0  0  0  0  0  0  0  0  0
   44.5690   27.3820   48.2530 F   0  0  0  0  0  0  0  0  0  0  0  0
   41.0780   26.9430   43.4000 O   0  0  0  0  0  0  0  0  0  0  0  0
   37.0870   29.1050   43.3260 N   0  0  0  0  0  0  0  0  0  0  0  0
   36.9660   27.8400   43.7720 C   0  0  0  0  0  0  0  0  0  0  0  0
   38.1960   27.2890   43.7550 N   0  0  0  0  0  0  0  0  0  0  0  0
   39.1140   28.1810   43.3040 C   0  0  0  0  0  0  0  0  0  0  0  0
   40.4800   28.1430   43.0930 C   0  0  0  0  0  0  0  0  0  0  0  0
   41.0910   29.2480   42.6210 N   0  0  0  0  0  0  0  0  0  0  0  0
   40.3590   30.3650   42.3650 C   0  0  0  0  0  0  0  0  0  0  0  0
   39.0150   30.4360   42.5610 N   0  0  0  0  0  0  0  0  0  0  0  0
   38.3640   29.3320   43.0400 C   0  0  0  0  0  0  0  0  0  0  0  0
   36.3280   29.8200   43.2090 H   0  0  0  0  0  0  0  0  0  0  0  0
   36.0530   27.3320   44.0920 H   0  0  0  0  0  0  0  0  0  0  0  0
   40.8770   31.2550   41.9810 H   0  0  0  0  0  0  0  0  0  0  0  0
  1  6  1  0  0  0  0
  2  3  1  0  0  0  0
  2  1  2  0  0  0  0
  3  4  2  0  0  0  0
  4  5  1  0  0  0  0
  5 14  1  0  0  0  0
  6  5  2  0  0  0  0
  7  1  1  0  0  0  0
  8  2  1  0  0  0  0
  9  8  2  0  0  0  0
 10  9  1  0  0  0  0
 11 10  2  0  0  0  0
 11 13  1  0  0  0  0
 12 11  1  0  0  0  0
 13  8  1  0  0  0  0
 14 15  1  0  0  0  0
 14 16  1  0  0  0  0
 14 17  1  0  0  0  0
 18  3  1  0  0  0  0
 19 20  1  0  0  0  0
 20 29  1  0  0  0  0
 21 20  2  0  0  0  0
 22 21  1  0  0  0  0
 23 22  1  0  0  0  0
 23 18  1  0  0  0  0
 24 23  2  0  0  0  0
 25 26  2  0  0  0  0
 25 24  1  0  0  0  0
 26 27  1  0  0  0  0
 27 22  2  0  0  0  0
 27 19  1  0  0  0  0
 28 19  1  0  0  0  0
 30 25  1  0  0  0  0
M  END
>  <minimizedAffinity>
-5.43608761

>  <minimizedRMSD>
0.280331582

$$$$
