
 OpenBabel03242509323D

 18 19  0  0  0  0  0  0  0  0999 V2000
   37.5970   28.7700   43.6150 C   0  0  0  0  0  0  0  0  0  0  0  0
   37.6220   27.3490   43.5210 C   0  0  0  0  0  0  0  0  0  0  0  0
   37.4670   26.7870   42.2580 C   0  0  0  0  0  0  0  0  0  0  0  0
   37.2980   27.6310   41.1820 N   0  0  0  0  0  0  0  0  0  0  0  0
   37.2810   28.9630   41.3220 C   0  0  0  0  0  0  0  0  0  0  0  0
   37.4310   29.5230   42.5360 N   0  0  0  0  0  0  0  0  0  0  0  0
   37.7160   29.2560   44.5830 H   0  0  0  0  0  0  0  0  0  0  0  0
   37.7580   26.7640   44.4030 H   0  0  0  0  0  0  0  0  0  0  0  0
   37.0970   29.7620   40.1170 C   0  0  0  0  0  0  0  0  0  0  0  0
   36.4030   29.1750   39.0520 C   0  0  0  0  0  3  0  0  0  0  0  0
   36.3450   30.0910   38.0310 C   0  0  0  0  0  3  0  0  0  0  0  0
   37.0070   31.1990   38.5160 C   0  0  0  0  0  0  0  0  0  0  0  0
   37.2540   32.1820   38.1470 H   0  0  0  0  0  0  0  0  0  0  0  0
   37.4400   30.9730   39.7540 O   0  0  0  0  0  0  0  0  0  0  0  0
   37.4870   25.3090   42.1170 C   0  0  0  0  0  0  0  0  0  0  0  0
   37.5380   25.0680   40.7530 F   0  0  0  0  0  0  0  0  0  0  0  0
   38.5800   24.7460   42.7010 F   0  0  0  0  0  0  0  0  0  0  0  0
   36.3360   24.7220   42.6320 F   0  0  0  0  0  0  0  0  0  0  0  0
  1  7  1  0  0  0  0
  2  1  1  0  0  0  0
  2  8  1  0  0  0  0
  3  2  2  0  0  0  0
  4  5  2  0  0  0  0
  4  3  1  0  0  0  0
  5  6  1  0  0  0  0
  6  1  2  0  0  0  0
  9  5  1  0  0  0  0
 10  9  2  0  0  0  0
 11 12  2  0  0  0  0
 11 10  1  0  0  0  0
 12 14  1  0  0  0  0
 13 12  1  0  0  0  0
 14  9  1  0  0  0  0
 15  3  1  0  0  0  0
 15 18  1  0  0  0  0
 15 17  1  0  0  0  0
 16 15  1  0  0  0  0
M  END
>  <minimizedAffinity>
-4.27846622

>  <minimizedRMSD>
1.09075308

$$$$
