
 OpenBabel03242509103D

 36 40  0  0  1  0  0  0  0  0999 V2000
   35.8990   30.4800   40.9010 C   0  0  0  0  0  0  0  0  0  0  0  0
   36.6060   29.4190   41.5100 C   0  0  0  0  0  0  0  0  0  0  0  0
   38.0020   29.4710   41.5210 C   0  0  0  0  0  0  0  0  0  0  0  0
   38.5660   30.5540   40.9370 N   0  0  0  0  0  0  0  0  0  0  0  0
   37.8880   31.5550   40.3610 C   0  0  0  0  0  0  0  0  0  0  0  0
   36.5350   31.5120   40.3460 N   0  0  0  0  0  0  0  0  0  0  0  0
   34.8150   30.3710   40.9300 H   0  0  0  0  0  0  0  0  0  0  0  0
   36.0960   28.5770   41.9630 H   0  0  0  0  0  0  0  0  0  0  0  0
   38.7320   28.3850   42.1350 C   0  0  0  0  0  0  0  0  0  0  0  0
   39.8850   28.4550   42.8820 C   0  0  0  0  0  0  0  0  0  0  0  0
   40.2440   27.2150   43.2700 N   0  0  0  0  0  0  0  0  0  0  0  0
   39.3620   26.3130   42.8030 C   0  0  0  0  0  0  0  0  0  0  0  0
   39.2380   24.9330   42.8930 C   0  0  0  0  0  0  0  0  0  0  0  0
   38.1820   24.2430   42.2840 C   0  0  0  0  0  0  0  0  0  0  0  0
   37.2750   25.0050   41.5950 C   0  0  0  0  0  0  0  0  0  0  0  0
   37.3810   26.3640   41.4970 C   0  0  0  0  0  0  0  0  0  0  0  0
   38.4210   27.0430   42.0950 C   0  0  0  0  0  0  0  0  0  0  0  0
   40.4470   29.3520   43.1420 H   0  0  0  0  0  0  0  0  0  0  0  0
   41.0510   26.8830   43.8420 H   0  0  0  0  0  0  0  0  0  0  0  0
   39.9760   24.3590   43.4480 H   0  0  0  0  0  0  0  0  0  0  0  0
   38.0800   23.1780   42.3490 H   0  0  0  0  0  0  0  0  0  0  0  0
   36.4320   24.5740   41.0950 H   0  0  0  0  0  0  0  0  0  0  0  0
   36.6470   26.9630   40.9410 H   0  0  0  0  0  0  0  0  0  0  0  0
   38.6120   32.7160   39.7490 C   0  0  1  0  0  0  0  0  0  0  0  0
   38.9760   33.8750   40.6720 C   0  0  0  0  0  0  0  0  0  0  0  0
   40.0320   32.9550   40.1360 C   0  0  2  0  0  0  0  0  0  0  0  0
   38.3120   33.0030   38.7230 H   0  0  0  0  0  0  0  0  0  0  0  0
   38.6720   33.8080   41.7330 H   0  0  0  0  0  0  0  0  0  0  0  0
   38.8530   34.8680   40.2300 H   0  0  0  0  0  0  0  0  0  0  0  0
   40.4300   32.2570   40.9030 H   0  0  0  0  0  0  0  0  0  0  0  0
   40.9900   33.4680   39.1020 C   0  0  0  0  0  0  0  0  0  0  0  0
   41.5420   34.7470   39.1170 C   0  0  0  0  0  0  0  0  0  0  0  0
   42.3340   34.7290   37.9860 C   0  0  0  0  0  0  0  0  0  0  0  0
   42.2380   33.4880   37.3490 C   0  0  0  0  0  0  0  0  0  0  0  0
   42.7390   33.1620   36.4370 H   0  0  0  0  0  0  0  0  0  0  0  0
   41.4030   32.7750   38.0860 O   0  0  0  0  0  0  0  0  0  0  0  0
  1  7  1  0  0  0  0
  1  2  1  0  0  0  0
  2  3  2  0  0  0  0
  2  8  1  0  0  0  0
  3  9  1  0  0  0  0
  4  3  1  0  0  0  0
  5  4  2  0  0  0  0
  6  5  1  0  0  0  0
  6  1  2  0  0  0  0
  9 10  2  0  0  0  0
 10 18  1  0  0  0  0
 10 11  1  0  0  0  0
 11 19  1  0  0  0  0
 12 13  1  0  0  0  0
 12 11  1  0  0  0  0
 13 20  1  0  0  0  0
 14 21  1  0  0  0  0
 14 13  2  0  0  0  0
 15 14  1  0  0  0  0
 16 15  2  0  0  0  0
 16 17  1  0  0  0  0
 17  9  1  0  0  0  0
 17 12  2  0  0  0  0
 22 15  1  0  0  0  0
 23 16  1  0  0  0  0
 24 27  1  6  0  0  0
 24 26  1  0  0  0  0
 24  5  1  0  0  0  0
 24 25  1  0  0  0  0
 25 28  1  0  0  0  0
 26 25  1  0  0  0  0
 26 30  1  1  0  0  0
 29 25  1  0  0  0  0
 31 32  2  0  0  0  0
 31 26  1  0  0  0  0
 33 32  1  0  0  0  0
 34 33  2  0  0  0  0
 34 36  1  0  0  0  0
 35 34  1  0  0  0  0
 36 31  1  0  0  0  0
M  END
>  <minimizedAffinity>
-5.99069643

>  <minimizedRMSD>
0.997146606

$$$$
