
 OpenBabel03242509323D

 18 19  0  0  0  0  0  0  0  0999 V2000
   37.9100   28.5280   43.4660 C   0  0  0  0  0  0  0  0  0  0  0  0
   38.5560   27.2650   43.6030 C   0  0  0  0  0  0  0  0  0  0  0  0
   38.3390   26.3220   42.6050 C   0  0  0  0  0  0  0  0  0  0  0  0
   37.5180   26.6620   41.5510 N   0  0  0  0  0  0  0  0  0  0  0  0
   36.9330   27.8640   41.4670 C   0  0  0  0  0  0  0  0  0  0  0  0
   37.1340   28.7890   42.4240 N   0  0  0  0  0  0  0  0  0  0  0  0
   38.0520   29.2990   44.2240 H   0  0  0  0  0  0  0  0  0  0  0  0
   39.1770   27.0790   44.4510 H   0  0  0  0  0  0  0  0  0  0  0  0
   36.0850   28.1180   40.3090 C   0  0  0  0  0  0  0  0  0  0  0  0
   35.0840   29.0860   40.4400 C   0  0  0  0  0  3  0  0  0  0  0  0
   34.4110   29.1640   39.2450 C   0  0  0  0  0  3  0  0  0  0  0  0
   35.0340   28.2380   38.4350 C   0  0  0  0  0  0  0  0  0  0  0  0
   34.9170   27.8900   37.4190 H   0  0  0  0  0  0  0  0  0  0  0  0
   36.0200   27.6340   39.0920 O   0  0  0  0  0  0  0  0  0  0  0  0
   38.9920   24.9940   42.7090 C   0  0  0  0  0  0  0  0  0  0  0  0
   39.8170   24.8980   41.6000 F   0  0  0  0  0  0  0  0  0  0  0  0
   39.7540   24.8760   43.8310 F   0  0  0  0  0  0  0  0  0  0  0  0
   38.0680   23.9550   42.6710 F   0  0  0  0  0  0  0  0  0  0  0  0
  1  2  1  0  0  0  0
  1  7  1  0  0  0  0
  2  8  1  0  0  0  0
  3 15  1  0  0  0  0
  3  2  2  0  0  0  0
  4  3  1  0  0  0  0
  5  4  2  0  0  0  0
  5  6  1  0  0  0  0
  6  1  2  0  0  0  0
  9 10  2  0  0  0  0
  9  5  1  0  0  0  0
 11 10  1  0  0  0  0
 12 14  1  0  0  0  0
 12 11  2  0  0  0  0
 13 12  1  0  0  0  0
 14  9  1  0  0  0  0
 15 17  1  0  0  0  0
 16 15  1  0  0  0  0
 18 15  1  0  0  0  0
M  END
>  <minimizedAffinity>
-4.38878489

>  <minimizedRMSD>
1.54640889

$$$$
