REMARK  Name = 
REMARK  6 active torsions:
REMARK  status: ('A' for Active; 'I' for Inactive)
REMARK    1  A    between atoms: C_1  and  C_2
REMARK    2  A    between atoms: C_1  and  C_13
REMARK    3  A    between atoms: C_10  and  O_12
REMARK    4  A    between atoms: C_13  and  N_17
REMARK    5  A    between atoms: C_14  and  C_21
REMARK    6  A    between atoms: C_23  and  C_40
REMARK                            x       y       z     vdW  Elec       q    Type
REMARK                         _______ _______ _______ _____ _____    ______ ____
ROOT
ATOM      1  C   UNL     1      36.169  30.075  41.134  0.00  0.00    +0.000 C 
ATOM      2  H   UNL     1      36.774  30.865  40.636  0.00  0.00    +0.000 HD
ATOM      3  H   UNL     1      35.584  30.606  41.928  0.00  0.00    +0.000 HD
ENDROOT
BRANCH   1   7
ATOM      4  C   UNL     1      38.650  28.154  42.716  0.00  0.00    +0.000 A 
ATOM      5  C   UNL     1      37.560  27.346  42.870  0.00  0.00    +0.000 A 
ATOM      6  C   UNL     1      36.485  28.008  42.269  0.00  0.00    +0.000 A 
ATOM      7  N   UNL     1      37.012  29.149  41.808  0.00  0.00    +0.000 N 
ATOM      8  N   UNL     1      38.282  29.282  42.045  0.00  0.00    +0.000 NA
ATOM      9  H   UNL     1      37.532  26.365  43.368  0.00  0.00    +0.000 HD
ATOM     10  H   UNL     1      35.504  27.587  42.249  0.00  0.00    +0.000 HD
BRANCH   4  13
ATOM     11  C   UNL     1      41.572  26.548  44.383  0.00  0.00    +0.000 A 
ATOM     12  C   UNL     1      40.259  26.759  43.950  0.00  0.00    +0.000 A 
ATOM     13  C   UNL     1      40.002  27.903  43.175  0.00  0.00    +0.000 A 
ATOM     14  N   UNL     1      41.011  28.767  42.866  0.00  0.00    +0.000 NA
ATOM     15  C   UNL     1      42.277  28.487  43.332  0.00  0.00    +0.000 A 
ATOM     16  N   UNL     1      42.542  27.412  44.066  0.00  0.00    +0.000 NA
ATOM     17  H   UNL     1      41.712  25.657  44.972  0.00  0.00    +0.000 HD
ATOM     18  H   UNL     1      39.477  26.082  44.193  0.00  0.00    +0.000 HD
BRANCH  15  19
ATOM     19  C   UNL     1      43.380  29.391  43.020  0.00  0.00    +0.000 A 
ATOM     20  C   UNL     1      43.241  30.190  41.878  0.00  0.00    +0.000 A 
ATOM     21  C   UNL     1      44.408  30.944  41.809  0.00  0.00    +0.000 A 
ATOM     22  C   UNL     1      45.185  30.563  42.906  0.00  0.00    +0.000 A 
ATOM     23  H   UNL     1      46.172  30.958  43.162  0.00  0.00    +0.000 HD
ATOM     24  O   UNL     1      44.526  29.658  43.565  0.00  0.00    +0.000 OA
ENDBRANCH  15  19
ENDBRANCH   4  13
ENDBRANCH   1   7
BRANCH   1  25
ATOM     25  C   UNL     1      35.283  29.498  40.076  0.00  0.00    +0.000 C 
ATOM     26  H   UNL     1      34.550  30.369  39.971  0.00  0.00    +0.000 HD
ATOM     27  H   UNL     1      34.834  28.583  40.437  0.00  0.00    +0.000 HD
BRANCH  25  28
ATOM     28  C   UNL     1      35.889  29.439  38.727  0.00  0.00    +0.000 A 
ATOM     29  C   UNL     1      37.204  29.608  38.395  0.00  0.00    +0.000 A 
ATOM     30  C   UNL     1      37.717  29.610  37.131  0.00  0.00    +0.000 A 
ATOM     31  C   UNL     1      36.870  29.429  36.059  0.00  0.00    +0.000 A 
ATOM     32  C   UNL     1      35.518  29.249  36.324  0.00  0.00    +0.000 A 
ATOM     33  C   UNL     1      34.729  29.075  35.221  0.00  0.00    +0.000 A 
ATOM     34  C   UNL     1      33.387  28.887  35.382  0.00  0.00    +0.000 A 
ATOM     35  C   UNL     1      32.848  28.873  36.645  0.00  0.00    +0.000 A 
ATOM     36  C   UNL     1      33.692  29.053  37.701  0.00  0.00    +0.000 A 
ATOM     37  C   UNL     1      35.035  29.251  37.624  0.00  0.00    +0.000 A 
ATOM     38  H   UNL     1      37.883  29.752  39.231  0.00  0.00    +0.000 HD
ATOM     39  H   UNL     1      38.781  29.754  37.005  0.00  0.00    +0.000 HD
ATOM     40  H   UNL     1      37.285  29.433  35.060  0.00  0.00    +0.000 HD
ATOM     41  H   UNL     1      35.130  29.079  34.205  0.00  0.00    +0.000 HD
ATOM     42  H   UNL     1      32.762  28.750  34.505  0.00  0.00    +0.000 HD
ATOM     43  H   UNL     1      31.784  28.722  36.770  0.00  0.00    +0.000 HD
BRANCH  36  44
ATOM     44  O   UNL     1      33.093  29.012  38.959  0.00  0.00    +0.000 OA
ATOM     45  H   UNL     1      32.638  28.182  39.319  0.00  0.00    +0.000 HD
ENDBRANCH  36  44
ENDBRANCH  25  28
ENDBRANCH   1  25
TORSDOF 6
