
 OpenBabel03242509313D

 18 19  0  0  0  0  0  0  0  0999 V2000
   37.8390   28.7260   43.5750 C   0  0  0  0  0  0  0  0  0  0  0  0
   38.3440   27.3970   43.6710 C   0  0  0  0  0  0  0  0  0  0  0  0
   38.2940   26.6070   42.5280 C   0  0  0  0  0  0  0  0  0  0  0  0
   37.7610   27.1520   41.3790 N   0  0  0  0  0  0  0  0  0  0  0  0
   37.2980   28.4070   41.3390 C   0  0  0  0  0  0  0  0  0  0  0  0
   37.3400   29.1860   42.4360 N   0  0  0  0  0  0  0  0  0  0  0  0
   37.8580   29.3830   44.4450 H   0  0  0  0  0  0  0  0  0  0  0  0
   38.7410   27.0500   44.5990 H   0  0  0  0  0  0  0  0  0  0  0  0
   36.7560   28.8820   40.0720 C   0  0  0  0  0  0  0  0  0  0  0  0
   35.3830   28.7200   39.8540 C   0  0  0  0  0  3  0  0  0  0  0  0
   35.0890   29.2290   38.6130 C   0  0  0  0  0  3  0  0  0  0  0  0
   36.2980   29.6800   38.1270 C   0  0  0  0  0  0  0  0  0  0  0  0
   36.6430   30.1590   37.2210 H   0  0  0  0  0  0  0  0  0  0  0  0
   37.2650   29.4610   39.0120 O   0  0  0  0  0  0  0  0  0  0  0  0
   38.8110   25.2170   42.5860 C   0  0  0  0  0  0  0  0  0  0  0  0
   39.5640   25.0530   41.4350 F   0  0  0  0  0  0  0  0  0  0  0  0
   39.6110   25.0050   43.6660 F   0  0  0  0  0  0  0  0  0  0  0  0
   37.7820   24.2800   42.5850 F   0  0  0  0  0  0  0  0  0  0  0  0
  1  2  1  0  0  0  0
  1  7  1  0  0  0  0
  2  8  1  0  0  0  0
  3 15  1  0  0  0  0
  3  2  2  0  0  0  0
  4  3  1  0  0  0  0
  5  4  2  0  0  0  0
  5  6  1  0  0  0  0
  6  1  2  0  0  0  0
  9  5  1  0  0  0  0
 10  9  2  0  0  0  0
 11 10  1  0  0  0  0
 12 11  2  0  0  0  0
 12 14  1  0  0  0  0
 13 12  1  0  0  0  0
 14  9  1  0  0  0  0
 15 17  1  0  0  0  0
 16 15  1  0  0  0  0
 18 15  1  0  0  0  0
M  END
>  <minimizedAffinity>
-4.10485554

>  <minimizedRMSD>
1.29485321

$$$$
