
 OpenBabel03242509273D

 45 49  0  0  0  0  0  0  0  0999 V2000
   36.0540   30.0170   40.9810 C   0  0  0  0  0  0  0  0  0  0  0  0
   36.6530   30.8110   40.4820 H   0  0  0  0  0  0  0  0  0  0  0  0
   35.4380   30.5500   41.7500 H   0  0  0  0  0  0  0  0  0  0  0  0
   38.5380   28.1880   42.6640 C   0  0  0  0  0  0  0  0  0  0  0  0
   37.4660   27.3530   42.8000 C   0  0  0  0  0  0  0  0  0  0  0  0
   36.3920   27.9770   42.1580 C   0  0  0  0  0  0  0  0  0  0  0  0
   36.9010   29.1250   41.6940 N   0  0  0  0  0  0  0  0  0  0  0  0
   38.1600   29.2950   41.9650 N   0  0  0  0  0  0  0  0  0  0  0  0
   37.4500   26.3800   43.3120 H   0  0  0  0  0  0  0  0  0  0  0  0
   35.4230   27.5290   42.1160 H   0  0  0  0  0  0  0  0  0  0  0  0
   41.4970   26.6010   44.2830 C   0  0  0  0  0  0  0  0  0  0  0  0
   40.1940   26.7680   43.8050 C   0  0  0  0  0  0  0  0  0  0  0  0
   39.8820   27.9810   43.1650 C   0  0  0  0  0  0  0  0  0  0  0  0
   40.8320   28.9490   43.0250 N   0  0  0  0  0  0  0  0  0  0  0  0
   42.0930   28.7060   43.5250 C   0  0  0  0  0  0  0  0  0  0  0  0
   42.4080   27.5680   44.1330 N   0  0  0  0  0  0  0  0  0  0  0  0
   41.6800   25.6540   44.7630 H   0  0  0  0  0  0  0  0  0  0  0  0
   39.4580   26.0100   43.9160 H   0  0  0  0  0  0  0  0  0  0  0  0
   43.1330   29.7220   43.3920 C   0  0  0  0  0  0  0  0  0  0  0  0
   42.7380   31.0570   43.5360 C   0  0  0  0  0  3  0  0  0  0  0  0
   43.8950   31.8080   43.3670 C   0  0  0  0  0  3  0  0  0  0  0  0
   44.9230   30.8920   43.1310 C   0  0  0  0  0  0  0  0  0  0  0  0
   45.9750   31.1370   42.9540 H   0  0  0  0  0  0  0  0  0  0  0  0
   44.4080   29.7000   43.1600 O   0  0  0  0  0  0  0  0  0  0  0  0
   35.2070   29.3990   39.9150 C   0  0  0  0  0  0  0  0  0  0  0  0
   34.4380   30.2370   39.7970 H   0  0  0  0  0  0  0  0  0  0  0  0
   34.7940   28.4660   40.2740 H   0  0  0  0  0  0  0  0  0  0  0  0
   35.8320   29.3620   38.5730 C   0  0  0  0  0  0  0  0  0  0  0  0
   37.1580   29.4890   38.2670 C   0  0  0  0  0  0  0  0  0  0  0  0
   37.6900   29.5140   37.0110 C   0  0  0  0  0  0  0  0  0  0  0  0
   36.8540   29.4040   35.9210 C   0  0  0  0  0  0  0  0  0  0  0  0
   35.4920   29.2690   36.1600 C   0  0  0  0  0  0  0  0  0  0  0  0
   34.7150   29.1640   35.0400 C   0  0  0  0  0  0  0  0  0  0  0  0
   33.3640   29.0250   35.1750 C   0  0  0  0  0  0  0  0  0  0  0  0
   32.8050   28.9890   36.4290 C   0  0  0  0  0  0  0  0  0  0  0  0
   33.6380   29.0990   37.5020 C   0  0  0  0  0  0  0  0  0  0  0  0
   34.9890   29.2460   37.4520 C   0  0  0  0  0  0  0  0  0  0  0  0
   37.8280   29.5780   39.1170 H   0  0  0  0  0  0  0  0  0  0  0  0
   38.7610   29.6200   36.9060 H   0  0  0  0  0  0  0  0  0  0  0  0
   37.2850   29.4250   34.9290 H   0  0  0  0  0  0  0  0  0  0  0  0
   35.1320   29.1870   34.0310 H   0  0  0  0  0  0  0  0  0  0  0  0
   32.7480   28.9430   34.2850 H   0  0  0  0  0  0  0  0  0  0  0  0
   31.7340   28.8760   36.5330 H   0  0  0  0  0  0  0  0  0  0  0  0
   33.0180   29.0390   38.7490 O   0  0  0  0  0  0  0  0  0  0  0  0
   32.5250   28.2160   39.0740 H   0  0  0  0  0  0  0  0  0  0  0  0
  1  7  1  0  0  0  0
  1  3  1  0  0  0  0
  2  1  1  0  0  0  0
  4  5  1  0  0  0  0
  4 13  1  0  0  0  0
  5  9  1  0  0  0  0
  6  5  2  0  0  0  0
  7  8  1  0  0  0  0
  7  6  1  0  0  0  0
  8  4  2  0  0  0  0
 10  6  1  0  0  0  0
 11 17  1  0  0  0  0
 12 18  1  0  0  0  0
 12 11  2  0  0  0  0
 13 12  1  0  0  0  0
 14 13  2  0  0  0  0
 14 15  1  0  0  0  0
 15 16  2  0  0  0  0
 16 11  1  0  0  0  0
 19 15  1  0  0  0  0
 19 20  2  0  0  0  0
 21 20  1  0  0  0  0
 22 24  1  0  0  0  0
 22 21  2  0  0  0  0
 23 22  1  0  0  0  0
 24 19  1  0  0  0  0
 25 27  1  0  0  0  0
 25  1  1  0  0  0  0
 26 25  1  0  0  0  0
 28 25  1  0  0  0  0
 29 28  1  0  0  0  0
 29 38  1  0  0  0  0
 30 29  2  0  0  0  0
 31 32  2  0  0  0  0
 31 30  1  0  0  0  0
 32 37  1  0  0  0  0
 33 34  2  0  0  0  0
 33 32  1  0  0  0  0
 34 35  1  0  0  0  0
 35 43  1  0  0  0  0
 35 36  2  0  0  0  0
 36 44  1  0  0  0  0
 37 36  1  0  0  0  0
 37 28  2  0  0  0  0
 39 30  1  0  0  0  0
 40 31  1  0  0  0  0
 41 33  1  0  0  0  0
 42 34  1  0  0  0  0
 44 45  1  0  0  0  0
M  END
>  <minimizedAffinity>
-6.02117968

>  <minimizedRMSD>
0.490783334

$$$$
