
 OpenBabel03242508213D

 28 31  0  0  0  0  0  0  0  0999 V2000
   38.6290   27.2980   43.8120 C   0  0  0  0  0  0  0  0  0  0  0  0
   39.0870   26.3330   42.9180 C   0  0  0  0  0  0  0  0  0  0  0  0
   39.0700   26.6640   41.5510 C   0  0  0  0  0  0  0  0  0  0  0  0
   38.6140   27.8900   41.1820 N   0  0  0  0  0  0  0  0  0  0  0  0
   38.1750   28.7990   42.1070 C   0  0  0  0  0  0  0  0  0  0  0  0
   38.1810   28.5050   43.4320 N   0  0  0  0  0  0  0  0  0  0  0  0
   37.7500   30.0040   41.4770 N   0  0  0  0  0  0  0  0  0  0  0  0
   36.4360   30.1740   41.1180 C   0  0  0  0  0  0  0  0  0  0  0  0
   36.2730   31.3830   40.5420 N   0  0  0  0  0  0  0  0  0  0  0  0
   37.4690   31.9870   40.5310 C   0  0  0  0  0  0  0  0  0  0  0  0
   37.9610   33.2180   40.0860 C   0  0  0  0  0  0  0  0  0  0  0  0
   39.2750   33.5020   40.2430 N   0  0  0  0  0  0  0  0  0  0  0  0
   40.1260   32.6330   40.8150 C   0  0  0  0  0  0  0  0  0  0  0  0
   39.6730   31.4240   41.2570 N   0  0  0  0  0  0  0  0  0  0  0  0
   38.3740   31.1130   41.1160 C   0  0  0  0  0  0  0  0  0  0  0  0
   36.9800   34.0370   39.4970 N   0  0  0  0  0  0  0  0  0  0  0  0
   38.6350   27.0630   44.8490 H   0  0  0  0  0  0  0  0  0  0  0  0
   39.4480   25.3580   43.2350 H   0  0  0  0  0  0  0  0  0  0  0  0
   39.4110   25.9630   40.8040 H   0  0  0  0  0  0  0  0  0  0  0  0
   35.6020   29.4790   41.2480 H   0  0  0  0  0  0  0  0  0  0  0  0
   36.6040   33.6980   38.5710 H   0  0  0  0  0  0  0  0  0  0  0  0
   36.7820   34.8800   40.1070 H   0  0  0  0  0  0  0  0  0  0  0  0
   41.5290   33.0120   40.9470 C   0  0  0  0  0  0  0  0  0  0  0  0
   42.0620   33.8280   39.9550 C   0  0  0  0  0  0  0  0  0  0  0  0
   43.3900   34.0490   40.2990 C   0  0  0  0  0  0  0  0  0  0  0  0
   43.5860   33.3500   41.4840 C   0  0  0  0  0  0  0  0  0  0  0  0
   44.5130   33.2980   42.0410 H   0  0  0  0  0  0  0  0  0  0  0  0
   42.4620   32.7610   41.8190 O   0  0  0  0  0  0  0  0  0  0  0  0
  1 17  1  0  0  0  0
  2 18  1  0  0  0  0
  2  1  2  0  0  0  0
  3  2  1  0  0  0  0
  4  3  2  0  0  0  0
  4  5  1  0  0  0  0
  5  6  2  0  0  0  0
  6  1  1  0  0  0  0
  7  5  1  0  0  0  0
  8 20  1  0  0  0  0
  8  7  1  0  0  0  0
  9  8  2  0  0  0  0
 10  9  1  0  0  0  0
 10 15  1  0  0  0  0
 11 12  1  0  0  0  0
 11 10  2  0  0  0  0
 12 13  2  0  0  0  0
 13 23  1  0  0  0  0
 13 14  1  0  0  0  0
 15 14  2  0  0  0  0
 15  7  1  0  0  0  0
 16 11  1  0  0  0  0
 16 22  1  0  0  0  0
 19  3  1  0  0  0  0
 21 16  1  0  0  0  0
 23 28  1  0  0  0  0
 24 25  1  0  0  0  0
 24 23  2  0  0  0  0
 25 26  2  0  0  0  0
 26 28  1  0  0  0  0
 26 27  1  0  0  0  0
M  END
>  <minimizedAffinity>
-5.88406801

>  <minimizedRMSD>
1.33834636

$$$$
