
 OpenBabel03242509313D

 18 19  0  0  0  0  0  0  0  0999 V2000
   38.1250   28.4650   43.5370 C   0  0  0  0  0  0  0  0  0  0  0  0
   38.6600   27.1450   43.5720 C   0  0  0  0  0  0  0  0  0  0  0  0
   38.2570   26.2630   42.5740 C   0  0  0  0  0  0  0  0  0  0  0  0
   37.3710   26.7160   41.6200 N   0  0  0  0  0  0  0  0  0  0  0  0
   36.8960   27.9670   41.6310 C   0  0  0  0  0  0  0  0  0  0  0  0
   37.2760   28.8330   42.5890 N   0  0  0  0  0  0  0  0  0  0  0  0
   38.4120   29.1910   44.2980 H   0  0  0  0  0  0  0  0  0  0  0  0
   39.3420   26.8720   44.3450 H   0  0  0  0  0  0  0  0  0  0  0  0
   35.9640   28.3400   40.5740 C   0  0  0  0  0  0  0  0  0  0  0  0
   36.1480   27.7600   39.3140 C   0  0  0  0  0  3  0  0  0  0  0  0
   35.1730   28.2440   38.4780 C   0  0  0  0  0  3  0  0  0  0  0  0
   34.4320   29.1000   39.2660 C   0  0  0  0  0  0  0  0  0  0  0  0
   33.5690   29.7350   39.1290 H   0  0  0  0  0  0  0  0  0  0  0  0
   34.9240   29.1360   40.5020 O   0  0  0  0  0  0  0  0  0  0  0  0
   38.7910   24.8790   42.5730 C   0  0  0  0  0  0  0  0  0  0  0  0
   39.5430   24.7720   41.4150 F   0  0  0  0  0  0  0  0  0  0  0  0
   39.5970   24.6320   43.6420 F   0  0  0  0  0  0  0  0  0  0  0  0
   37.7750   23.9300   42.5360 F   0  0  0  0  0  0  0  0  0  0  0  0
  1  2  1  0  0  0  0
  1  7  1  0  0  0  0
  2  8  1  0  0  0  0
  3  2  2  0  0  0  0
  4  5  2  0  0  0  0
  4  3  1  0  0  0  0
  5  6  1  0  0  0  0
  6  1  2  0  0  0  0
  9  5  1  0  0  0  0
 10  9  2  0  0  0  0
 11 12  2  0  0  0  0
 11 10  1  0  0  0  0
 12 14  1  0  0  0  0
 13 12  1  0  0  0  0
 14  9  1  0  0  0  0
 15  3  1  0  0  0  0
 15 17  1  0  0  0  0
 16 15  1  0  0  0  0
 18 15  1  0  0  0  0
M  END
>  <minimizedAffinity>
-4.35381317

>  <minimizedRMSD>
1.40802574

$$$$
