
 OpenBabel03242504243D

 16 16  0  0  0  0  0  0  0  0999 V2000
   38.2300   29.3200   43.0650 C   0  0  0  0  0  0  0  0  0  0  0  0
   37.5350   29.7390   41.9140 C   0  0  0  0  0  0  0  0  0  0  0  0
   36.5220   28.8930   41.4480 C   0  0  0  0  0  0  0  0  0  0  0  0
   36.2790   27.7490   42.1180 N   0  0  0  0  0  0  0  0  0  0  0  0
   36.9600   27.3720   43.2180 C   0  0  0  0  0  0  0  0  0  0  0  0
   37.9390   28.1700   43.6860 N   0  0  0  0  0  0  0  0  0  0  0  0
   38.9900   30.0390   43.3450 H   0  0  0  0  0  0  0  0  0  0  0  0
   35.9190   29.1040   40.5730 H   0  0  0  0  0  0  0  0  0  0  0  0
   36.7640   26.4540   43.7560 H   0  0  0  0  0  0  0  0  0  0  0  0
   37.8040   30.9730   41.1970 C   0  0  0  0  0  0  0  0  0  0  0  0
   38.8520   31.6560   41.3390 O   0  0  0  0  0  0  0  0  0  0  0  0
   36.7900   31.3580   40.3160 O   0  0  0  0  0  0  0  0  0  0  0  0
   37.0700   32.4650   39.4920 C   0  0  0  0  0  0  0  0  0  0  0  0
   37.3110   32.4380   38.2590 O   0  0  0  0  0  0  0  0  0  0  0  0
   37.1060   33.7660   39.9900 O   0  0  0  0  0  0  0  0  0  0  0  0
   37.9100   34.3800   39.7930 H   0  0  0  0  0  0  0  0  0  0  0  0
  1  7  1  0  0  0  0
  1  6  1  0  0  0  0
  2  1  2  0  0  0  0
  3  2  1  0  0  0  0
  3  4  2  0  0  0  0
  4  5  1  0  0  0  0
  5  6  2  0  0  0  0
  5  9  1  0  0  0  0
  8  3  1  0  0  0  0
 10 11  2  0  0  0  0
 10  2  1  0  0  0  0
 12 10  1  0  0  0  0
 13 15  1  0  0  0  0
 13 12  1  0  0  0  0
 14 13  2  0  0  0  0
 16 15  1  0  0  0  0
M  END
>  <minimizedAffinity>
-3.72999573

>  <minimizedRMSD>
1.54885304

$$$$
