
 OpenBabel03242508503D

 38 40  0  0  1  0  0  0  0  0999 V2000
   40.0460   27.3210   43.2120 C   0  0  2  0  0  0  0  0  0  0  0  0
   41.3220   27.5220   43.8450 C   0  0  0  0  0  0  0  0  0  0  0  0
   41.9290   26.1190   43.9860 C   0  0  0  0  0  0  0  0  0  0  0  0
   41.1950   25.2650   42.9770 C   0  0  0  0  0  0  0  0  0  0  0  0
   40.3770   26.1910   42.1500 C   0  0  1  0  0  0  0  0  0  0  0  0
   39.3340   26.8290   43.8530 H   0  0  0  0  0  0  0  0  0  0  0  0
   42.0340   28.0580   43.1560 H   0  0  0  0  0  0  0  0  0  0  0  0
   41.2830   28.0550   44.7940 H   0  0  0  0  0  0  0  0  0  0  0  0
   43.0140   26.1230   43.8140 H   0  0  0  0  0  0  0  0  0  0  0  0
   41.7450   25.8370   45.0370 H   0  0  0  0  0  0  0  0  0  0  0  0
   40.5680   24.5780   43.5810 H   0  0  0  0  0  0  0  0  0  0  0  0
   41.8550   24.6090   42.3860 H   0  0  0  0  0  0  0  0  0  0  0  0
   40.8570   26.6590   41.3040 H   0  0  0  0  0  0  0  0  0  0  0  0
   40.1470   29.1960   41.5000 C   0  0  0  0  0  0  0  0  0  0  0  0
   39.4440   28.4630   42.5400 C   0  0  0  0  0  0  0  0  0  0  0  0
   38.1960   28.8470   42.9380 C   0  0  0  0  0  0  0  0  0  0  0  0
   37.6400   29.9550   42.3130 N   0  0  0  0  0  0  0  0  0  0  0  0
   38.3120   30.6620   41.3170 C   0  0  0  0  0  0  0  0  0  0  0  0
   39.5950   30.2630   40.9060 N   0  0  0  0  0  0  0  0  0  0  0  0
   37.6560   31.7870   40.7370 N   0  0  0  0  0  0  0  0  0  0  0  0
   41.1280   28.8560   41.2230 H   0  0  0  0  0  0  0  0  0  0  0  0
   37.8050   32.7080   41.2450 H   0  0  0  0  0  0  0  0  0  0  0  0
   37.0720   31.7380   39.8840 H   0  0  0  0  0  0  0  0  0  0  0  0
   37.3300   28.2900   43.9280 C   0  0  0  0  0  0  0  0  0  0  0  0
   37.8210   27.5300   44.5960 H   0  0  0  0  0  0  0  0  0  0  0  0
   36.9410   29.0780   44.6110 H   0  0  0  0  0  0  0  0  0  0  0  0
   36.1770   27.5940   43.3830 N   0  0  0  0  0  0  0  0  0  0  0  0
   36.0200   27.7610   42.3900 H   0  0  0  0  0  0  0  0  0  0  0  0
   35.3720   27.5420   44.0070 H   0  0  0  0  0  0  0  0  0  0  0  0
   39.1860   25.3750   41.8030 C   0  0  0  0  0  0  0  0  0  0  0  0
   38.7230   24.3950   42.6530 N   0  0  0  0  0  0  0  0  0  0  0  0
   37.6700   23.8500   42.0860 O   0  0  0  0  0  0  0  0  0  0  0  0
   37.4630   24.4420   40.9400 C   0  0  0  0  0  0  0  0  0  0  0  0
   38.3890   25.3900   40.7430 N   0  0  0  0  0  0  0  0  0  0  0  0
   36.3280   24.0440   40.0550 C   0  0  0  0  0  0  0  0  0  0  0  0
   35.2920   23.5910   40.8240 F   0  0  0  0  0  0  0  0  0  0  0  0
   35.9070   25.1280   39.2880 F   0  0  0  0  0  0  0  0  0  0  0  0
   36.7210   23.0120   39.2030 F   0  0  0  0  0  0  0  0  0  0  0  0
  1  2  1  0  0  0  0
  1  6  1  1  0  0  0
  2  3  1  0  0  0  0
  2  8  1  0  0  0  0
  3 10  1  0  0  0  0
  4 11  1  0  0  0  0
  4  3  1  0  0  0  0
  5 13  1  6  0  0  0
  5  4  1  0  0  0  0
  5  1  1  0  0  0  0
  7  2  1  0  0  0  0
  9  3  1  0  0  0  0
 12  4  1  0  0  0  0
 14 15  1  0  0  0  0
 15 16  2  0  0  0  0
 15  1  1  0  0  0  0
 16 24  1  0  0  0  0
 17 16  1  0  0  0  0
 18 17  2  0  0  0  0
 19 18  1  0  0  0  0
 19 14  2  0  0  0  0
 20 22  1  0  0  0  0
 20 18  1  0  0  0  0
 21 14  1  0  0  0  0
 23 20  1  0  0  0  0
 24 25  1  0  0  0  0
 24 26  1  0  0  0  0
 27 24  1  0  0  0  0
 27 29  1  0  0  0  0
 28 27  1  0  0  0  0
 30  5  1  0  0  0  0
 30 31  2  0  0  0  0
 32 31  1  0  0  0  0
 33 32  1  0  0  0  0
 34 33  2  0  0  0  0
 34 30  1  0  0  0  0
 35 36  1  0  0  0  0
 35 33  1  0  0  0  0
 37 35  1  0  0  0  0
 38 35  1  0  0  0  0
M  END
>  <minimizedAffinity>
-5.35342741

>  <minimizedRMSD>
0.90271765

$$$$
