
 OpenBabel03242508353D

 32 34  0  0  0  0  0  0  0  0999 V2000
   38.1520   28.1030   43.2850 C   0  0  0  0  0  0  0  0  0  0  0  0
   37.9310   26.9050   42.5360 C   0  0  0  0  0  0  0  0  0  0  0  0
   37.1090   26.9700   41.4270 C   0  0  0  0  0  0  0  0  0  0  0  0
   36.5650   28.1640   41.1190 N   0  0  0  0  0  0  0  0  0  0  0  0
   36.7670   29.2730   41.8070 C   0  0  0  0  0  0  0  0  0  0  0  0
   37.5660   29.2590   42.9030 N   0  0  0  0  0  0  0  0  0  0  0  0
   38.7510   28.2350   44.1570 H   0  0  0  0  0  0  0  0  0  0  0  0
   38.5100   26.1460   43.0410 H   0  0  0  0  0  0  0  0  0  0  0  0
   36.9700   25.6910   40.7700 C   0  0  0  0  0  0  0  0  0  0  0  0
   35.9610   25.6880   40.2620 H   0  0  0  0  0  0  0  0  0  0  0  0
   37.6830   25.5750   39.9030 H   0  0  0  0  0  0  0  0  0  0  0  0
   37.0820   24.4940   41.6180 C   0  0  0  0  0  0  0  0  0  0  0  0
   36.0460   24.1000   41.8680 H   0  0  0  0  0  0  0  0  0  0  0  0
   37.5880   24.5600   42.5710 H   0  0  0  0  0  0  0  0  0  0  0  0
   37.8490   23.0960   40.7180 S   0  0  0  0  0  0  0  0  0  0  0  0
   38.5000   22.2110   41.5770 H   0  0  0  0  0  0  0  0  0  0  0  0
   36.0960   30.3330   41.2700 O   0  0  0  0  0  0  0  0  0  0  0  0
   36.7750   31.2190   40.4180 C   0  0  0  0  0  0  0  0  0  0  0  0
   36.7360   31.3400   39.0490 N   0  0  0  0  0  0  0  0  0  0  0  0
   37.5450   32.3130   38.6990 O   0  0  0  0  0  0  0  0  0  0  0  0
   38.0770   32.7940   39.7880 C   0  0  0  0  0  0  0  0  0  0  0  0
   37.6260   32.1420   40.8680 N   0  0  0  0  0  0  0  0  0  0  0  0
   39.0330   33.8920   39.8120 C   0  0  0  0  0  0  0  0  0  0  0  0
   38.8650   35.1540   40.3350 C   0  0  0  0  0  0  0  0  0  0  0  0
   39.9940   35.9090   40.1670 C   0  0  0  0  0  0  0  0  0  0  0  0
   40.8650   35.0480   39.5160 C   0  0  0  0  0  0  0  0  0  0  0  0
   40.2660   33.9200   39.3410 O   0  0  0  0  0  0  0  0  0  0  0  0
   37.9410   35.4840   40.8160 H   0  0  0  0  0  0  0  0  0  0  0  0
   40.1740   36.9220   40.4650 H   0  0  0  0  0  0  0  0  0  0  0  0
   42.2000   35.3230   39.0930 N   0  0  0  0  0  0  0  0  0  0  0  0
   42.5480   36.1760   39.6130 H   0  0  0  0  0  0  0  0  0  0  0  0
   42.8150   34.8520   38.4160 H   0  0  0  0  0  0  0  0  0  0  0  0
  1  7  1  0  0  0  0
  2  8  1  0  0  0  0
  2  1  2  0  0  0  0
  3  2  1  0  0  0  0
  4  3  2  0  0  0  0
  4  5  1  0  0  0  0
  5  6  2  0  0  0  0
  6  1  1  0  0  0  0
  9  3  1  0  0  0  0
  9 12  1  0  0  0  0
 10  9  1  0  0  0  0
 11  9  1  0  0  0  0
 12 13  1  0  0  0  0
 12 14  1  0  0  0  0
 15 16  1  0  0  0  0
 15 12  1  0  0  0  0
 17  5  1  0  0  0  0
 18 22  1  0  0  0  0
 18 17  1  0  0  0  0
 19 18  2  0  0  0  0
 20 19  1  0  0  0  0
 20 21  1  0  0  0  0
 21 23  1  0  0  0  0
 21 22  2  0  0  0  0
 23 24  2  0  0  0  0
 24 28  1  0  0  0  0
 25 24  1  0  0  0  0
 25 29  1  0  0  0  0
 26 25  2  0  0  0  0
 27 26  1  0  0  0  0
 27 23  1  0  0  0  0
 30 26  1  0  0  0  0
 30 31  1  0  0  0  0
 32 30  1  0  0  0  0
M  END
>  <minimizedAffinity>
-5.5826602

>  <minimizedRMSD>
0.146302968

$$$$
