
 OpenBabel03242506403D

 14 14  0  0  0  0  0  0  0  0999 V2000
   38.5420   28.8030   43.2750 C   0  0  0  0  0  0  0  0  0  0  0  0
   39.4210   27.8260   42.7750 C   0  0  0  0  0  0  0  0  0  0  0  0
   38.9080   26.5900   42.4140 C   0  0  0  0  0  0  0  0  0  0  0  0
   37.5590   26.3930   42.5680 N   0  0  0  0  0  0  0  0  0  0  0  0
   36.7500   27.3520   43.0490 C   0  0  0  0  0  0  0  0  0  0  0  0
   37.2320   28.5450   43.3990 N   0  0  0  0  0  0  0  0  0  0  0  0
   38.8990   29.7850   43.5700 H   0  0  0  0  0  0  0  0  0  0  0  0
   40.4720   28.1350   42.7120 H   0  0  0  0  0  0  0  0  0  0  0  0
   35.6910   27.1440   43.1500 H   0  0  0  0  0  0  0  0  0  0  0  0
   39.7810   25.6580   41.9330 O   0  0  0  0  0  0  0  0  0  0  0  0
   40.4870   24.8090   42.7780 C   0  0  0  0  0  0  0  0  0  0  0  0
   39.6700   24.0840   43.4310 O   0  0  0  0  0  0  0  0  0  0  0  0
   41.8590   24.6890   42.9580 O   0  0  0  0  0  0  0  0  0  0  0  0
   42.2140   24.2970   43.8420 H   0  0  0  0  0  0  0  0  0  0  0  0
  1  6  1  0  0  0  0
  1  7  1  0  0  0  0
  2  1  2  0  0  0  0
  3  4  2  0  0  0  0
  3  2  1  0  0  0  0
  4  5  1  0  0  0  0
  5  9  1  0  0  0  0
  5  6  2  0  0  0  0
  8  2  1  0  0  0  0
 10  3  1  0  0  0  0
 10 11  1  0  0  0  0
 11 13  1  0  0  0  0
 11 12  2  0  0  0  0
 13 14  1  0  0  0  0
M  END
>  <minimizedAffinity>
-3.15357971

>  <minimizedRMSD>
3.40680218

$$$$
