
 OpenBabel03242503363D

 40 42  0  0  1  0  0  0  0  0999 V2000
   38.9230   29.4140   42.2810 N   0  0  0  0  0  0  0  0  0  0  0  0
   38.1070   29.4740   43.3210 C   0  0  0  0  0  0  0  0  0  0  0  0
   37.2520   28.4570   43.6760 C   0  0  0  0  0  0  0  0  0  0  0  0
   37.2210   27.2800   42.9170 C   0  0  0  0  0  0  0  0  0  0  0  0
   36.4470   26.3620   43.2390 O   0  0  0  0  0  0  0  0  0  0  0  0
   38.0700   27.2600   41.8620 N   0  0  0  0  0  0  0  0  0  0  0  0
   38.8800   28.2810   41.5640 C   0  0  0  0  0  0  0  0  0  0  0  0
   39.6300   28.1500   40.5570 O   0  0  0  0  0  0  0  0  0  0  0  0
   38.0970   30.3640   43.9380 H   0  0  0  0  0  0  0  0  0  0  0  0
   36.6100   28.5740   44.5420 H   0  0  0  0  0  0  0  0  0  0  0  0
   38.0570   26.0630   41.0660 C   0  0  2  0  0  0  0  0  0  0  0  0
   36.8300   25.7220   40.3620 C   0  0  0  0  0  0  0  0  0  0  0  0
   36.9860   24.2220   40.0840 C   0  0  0  0  0  0  0  0  0  0  0  0
   37.5540   23.7220   41.3650 C   0  0  0  0  0  0  0  0  0  0  0  0
   38.4200   24.8230   41.8910 C   0  0  1  0  0  0  0  0  0  0  0  0
   38.8840   26.1170   40.3140 H   0  0  0  0  0  0  0  0  0  0  0  0
   36.8520   26.2020   39.3390 H   0  0  0  0  0  0  0  0  0  0  0  0
   35.8620   25.9670   40.7710 H   0  0  0  0  0  0  0  0  0  0  0  0
   37.6830   24.0290   39.2460 H   0  0  0  0  0  0  0  0  0  0  0  0
   35.9690   23.8060   39.9330 H   0  0  0  0  0  0  0  0  0  0  0  0
   36.7130   23.5920   42.0780 H   0  0  0  0  0  0  0  0  0  0  0  0
   38.0750   22.7450   41.2990 H   0  0  0  0  0  0  0  0  0  0  0  0
   38.1520   25.1010   42.9350 H   0  0  0  0  0  0  0  0  0  0  0  0
   39.8790   24.5320   41.8490 C   0  0  0  0  0  0  0  0  0  0  0  0
   40.1530   23.8620   42.6740 H   0  0  0  0  0  0  0  0  0  0  0  0
   40.0930   24.0550   40.8660 H   0  0  0  0  0  0  0  0  0  0  0  0
   40.4390   25.5050   41.9280 H   0  0  0  0  0  0  0  0  0  0  0  0
   39.8060   30.4600   41.9120 C   0  0  0  0  0  0  0  0  0  0  0  0
   41.0750   30.6820   42.5260 C   0  0  0  0  0  0  0  0  0  0  0  0
   41.8440   31.7500   42.0640 C   0  0  0  0  0  0  0  0  0  0  0  0
   41.3470   32.5080   41.0690 N   0  0  0  0  0  0  0  0  0  0  0  0
   40.1590   32.2840   40.5090 C   0  0  0  0  0  0  0  0  0  0  0  0
   39.4020   31.2600   40.9400 N   0  0  0  0  0  0  0  0  0  0  0  0
   41.3570   30.0140   43.3030 H   0  0  0  0  0  0  0  0  0  0  0  0
   42.8070   31.9240   42.5250 H   0  0  0  0  0  0  0  0  0  0  0  0
   39.6730   33.0920   39.4780 O   0  0  0  0  0  0  0  0  0  0  0  0
   38.6400   33.9940   39.7600 C   0  0  0  0  0  0  0  0  0  0  0  0
   37.4340   33.6680   39.8940 O   0  0  0  0  0  0  0  0  0  0  0  0
   38.8770   35.3700   39.9200 O   0  0  0  0  0  0  0  0  0  0  0  0
   38.2940   36.0460   39.4000 H   0  0  0  0  0  0  0  0  0  0  0  0
  1  2  1  0  0  0  0
  2  3  2  0  0  0  0
  2  9  1  0  0  0  0
  3 10  1  0  0  0  0
  4  5  2  0  0  0  0
  4  3  1  0  0  0  0
  6  4  1  0  0  0  0
  7  6  1  0  0  0  0
  7  1  1  0  0  0  0
  8  7  2  0  0  0  0
 11 16  1  6  0  0  0
 11  6  1  0  0  0  0
 11 15  1  0  0  0  0
 12 18  1  0  0  0  0
 12 11  1  0  0  0  0
 13 12  1  0  0  0  0
 13 14  1  0  0  0  0
 14 15  1  0  0  0  0
 14 21  1  0  0  0  0
 15 23  1  1  0  0  0
 17 12  1  0  0  0  0
 19 13  1  0  0  0  0
 20 13  1  0  0  0  0
 22 14  1  0  0  0  0
 24 15  1  0  0  0  0
 24 27  1  0  0  0  0
 24 25  1  0  0  0  0
 26 24  1  0  0  0  0
 28  1  1  0  0  0  0
 28 29  1  0  0  0  0
 29 34  1  0  0  0  0
 30 35  1  0  0  0  0
 30 29  2  0  0  0  0
 31 30  1  0  0  0  0
 32 33  1  0  0  0  0
 32 31  2  0  0  0  0
 33 28  2  0  0  0  0
 36 37  1  0  0  0  0
 36 32  1  0  0  0  0
 37 38  2  0  0  0  0
 37 39  1  0  0  0  0
 40 39  1  0  0  0  0
M  END
>  <minimizedAffinity>
-5.35765839

>  <minimizedRMSD>
1.83457828

$$$$
