
 OpenBabel03242500053D

 25 26  0  0  1  0  0  0  0  0999 V2000
   38.1630   28.2730   43.4170 C   0  0  0  0  0  0  0  0  0  0  0  0
   38.0560   27.0130   42.8050 C   0  0  0  0  0  0  0  0  0  0  0  0
   37.2780   26.8980   41.6480 C   0  0  0  0  0  0  0  0  0  0  0  0
   36.6510   28.0110   41.1530 N   0  0  0  0  0  0  0  0  0  0  0  0
   36.7760   29.2140   41.7700 C   0  0  0  0  0  0  0  0  0  0  0  0
   37.5270   29.3320   42.8900 N   0  0  0  0  0  0  0  0  0  0  0  0
   37.1290   25.6410   40.9830 N   0  0  0  0  0  0  0  0  0  0  0  0
   37.1020   24.4180   41.7300 C   0  0  0  0  0  0  0  0  0  0  0  0
   37.5500   23.2210   40.9280 C   0  0  0  0  0  0  0  0  0  0  0  0
   37.6040   23.4370   39.5840 O   0  0  0  0  0  0  0  0  0  0  0  0
   36.6830   24.3090   39.0540 C   0  0  0  0  0  0  0  0  0  0  0  0
   37.0080   25.6730   39.5390 C   0  0  1  0  0  0  0  0  0  0  0  0
   38.7330   28.4400   44.2940 H   0  0  0  0  0  0  0  0  0  0  0  0
   38.5790   26.1810   43.2470 H   0  0  0  0  0  0  0  0  0  0  0  0
   36.2270   30.0010   41.2690 H   0  0  0  0  0  0  0  0  0  0  0  0
   37.5990   24.5240   42.6910 H   0  0  0  0  0  0  0  0  0  0  0  0
   36.0220   24.1910   41.9790 H   0  0  0  0  0  0  0  0  0  0  0  0
   38.5780   22.9590   41.3020 H   0  0  0  0  0  0  0  0  0  0  0  0
   36.9440   22.3090   41.1440 H   0  0  0  0  0  0  0  0  0  0  0  0
   35.6350   24.0060   39.2840 H   0  0  0  0  0  0  0  0  0  0  0  0
   36.7870   24.2390   37.9420 H   0  0  0  0  0  0  0  0  0  0  0  0
   38.0450   25.9060   39.1680 H   0  0  0  0  0  0  0  0  0  0  0  0
   36.1670   26.7200   39.0500 N   0  0  0  0  0  0  0  0  0  0  0  0
   36.6850   27.5330   38.6370 H   0  0  0  0  0  0  0  0  0  0  0  0
   35.3810   26.3950   38.4560 H   0  0  0  0  0  0  0  0  0  0  0  0
  1 13  1  0  0  0  0
  2 14  1  0  0  0  0
  2  1  2  0  0  0  0
  3  2  1  0  0  0  0
  4  3  2  0  0  0  0
  4  5  1  0  0  0  0
  5  6  2  0  0  0  0
  6  1  1  0  0  0  0
  7  3  1  0  0  0  0
  7  8  1  0  0  0  0
  8 17  1  0  0  0  0
  8 16  1  0  0  0  0
  9 19  1  0  0  0  0
  9 18  1  0  0  0  0
  9  8  1  0  0  0  0
 10  9  1  0  0  0  0
 11 20  1  0  0  0  0
 11 12  1  0  0  0  0
 11 10  1  0  0  0  0
 12 22  1  6  0  0  0
 12  7  1  0  0  0  0
 15  5  1  0  0  0  0
 21 11  1  0  0  0  0
 23 12  1  0  0  0  0
 24 23  1  0  0  0  0
 25 23  1  0  0  0  0
M  END
>  <minimizedAffinity>
-3.54342532

>  <minimizedRMSD>
0.425626785

$$$$
