
 OpenBabel03242508323D

 31 33  0  0  0  0  0  0  0  0999 V2000
   38.6450   28.4400   43.2350 C   0  0  0  0  0  0  0  0  0  0  0  0
   38.4410   27.2360   42.5020 C   0  0  0  0  0  0  0  0  0  0  0  0
   37.5460   27.2940   41.4220 C   0  0  0  0  0  0  0  0  0  0  0  0
   36.9460   28.4690   41.1500 N   0  0  0  0  0  0  0  0  0  0  0  0
   37.1570   29.5710   41.8500 C   0  0  0  0  0  0  0  0  0  0  0  0
   38.0100   29.5650   42.9000 N   0  0  0  0  0  0  0  0  0  0  0  0
   39.3210   28.4750   44.0820 H   0  0  0  0  0  0  0  0  0  0  0  0
   39.0170   26.4130   42.8860 H   0  0  0  0  0  0  0  0  0  0  0  0
   37.3890   26.0290   40.7260 C   0  0  0  0  0  0  0  0  0  0  0  0
   37.9980   25.9900   39.8020 H   0  0  0  0  0  0  0  0  0  0  0  0
   36.3290   25.9410   40.3630 H   0  0  0  0  0  0  0  0  0  0  0  0
   37.6190   24.8100   41.5850 C   0  0  0  0  0  0  0  0  0  0  0  0
   38.4500   24.8960   42.2880 H   0  0  0  0  0  0  0  0  0  0  0  0
   37.9110   23.9810   40.8840 H   0  0  0  0  0  0  0  0  0  0  0  0
   36.4490   24.3800   42.2800 N   0  0  0  0  0  0  0  0  0  0  0  0
   36.1550   25.0290   43.0160 H   0  0  0  0  0  0  0  0  0  0  0  0
   36.3800   23.3810   42.4950 H   0  0  0  0  0  0  0  0  0  0  0  0
   36.4290   30.6210   41.3710 O   0  0  0  0  0  0  0  0  0  0  0  0
   37.0190   31.5450   40.5200 C   0  0  0  0  0  0  0  0  0  0  0  0
   36.8170   31.7530   39.1860 N   0  0  0  0  0  0  0  0  0  0  0  0
   37.5930   32.7350   38.7860 O   0  0  0  0  0  0  0  0  0  0  0  0
   38.2740   33.1420   39.8470 C   0  0  0  0  0  0  0  0  0  0  0  0
   37.9360   32.4270   40.9160 N   0  0  0  0  0  0  0  0  0  0  0  0
   39.2460   34.2240   39.8060 C   0  0  0  0  0  0  0  0  0  0  0  0
   39.0590   35.5350   40.2030 C   0  0  0  0  0  0  0  0  0  0  0  0
   40.2020   36.2550   40.0150 C   0  0  0  0  0  0  0  0  0  0  0  0
   41.0940   35.3470   39.4930 C   0  0  0  0  0  0  0  0  0  0  0  0
   40.4880   34.1970   39.3960 O   0  0  0  0  0  0  0  0  0  0  0  0
   38.1400   35.9690   40.6130 H   0  0  0  0  0  0  0  0  0  0  0  0
   40.4600   37.2770   40.1920 H   0  0  0  0  0  0  0  0  0  0  0  0
   42.1430   35.4180   39.1690 H   0  0  0  0  0  0  0  0  0  0  0  0
  1  7  1  0  0  0  0
  2  8  1  0  0  0  0
  2  1  2  0  0  0  0
  3  2  1  0  0  0  0
  4  3  2  0  0  0  0
  4  5  1  0  0  0  0
  5  6  2  0  0  0  0
  6  1  1  0  0  0  0
  9  3  1  0  0  0  0
  9 12  1  0  0  0  0
 10  9  1  0  0  0  0
 11  9  1  0  0  0  0
 12 15  1  0  0  0  0
 12 13  1  0  0  0  0
 14 12  1  0  0  0  0
 15 17  1  0  0  0  0
 15 16  1  0  0  0  0
 18  5  1  0  0  0  0
 19 23  1  0  0  0  0
 19 18  1  0  0  0  0
 20 19  2  0  0  0  0
 21 20  1  0  0  0  0
 21 22  1  0  0  0  0
 22 23  2  0  0  0  0
 24 22  1  0  0  0  0
 24 25  2  0  0  0  0
 25 29  1  0  0  0  0
 26 30  1  0  0  0  0
 26 25  1  0  0  0  0
 27 26  2  0  0  0  0
 28 27  1  0  0  0  0
 28 24  1  0  0  0  0
 31 27  1  0  0  0  0
M  END
>  <minimizedAffinity>
-5.13112926

>  <minimizedRMSD>
0.448017657

$$$$
