
 OpenBabel03242506423D

 24 26  0  0  0  0  0  0  0  0999 V2000
   39.1270   27.7150   40.3830 O   0  0  0  0  0  0  0  0  0  0  0  0
   35.6330   30.5920   40.9380 N   0  0  0  0  0  0  0  0  0  0  0  0
   35.2280   29.3510   40.6460 C   0  0  0  0  0  0  0  0  0  0  0  0
   36.3250   28.5840   40.5020 N   0  0  0  0  0  0  0  0  0  0  0  0
   37.4450   29.3060   40.6970 C   0  0  0  0  0  0  0  0  0  0  0  0
   38.8090   29.0390   40.6750 C   0  0  0  0  0  0  0  0  0  0  0  0
   39.6740   30.0590   40.9310 N   0  0  0  0  0  0  0  0  0  0  0  0
   39.2140   31.2850   41.1960 C   0  0  0  0  0  0  0  0  0  0  0  0
   37.8950   31.5830   41.2260 N   0  0  0  0  0  0  0  0  0  0  0  0
   36.9870   30.5990   40.9780 C   0  0  0  0  0  0  0  0  0  0  0  0
   35.0110   31.4130   41.1070 H   0  0  0  0  0  0  0  0  0  0  0  0
   34.2250   28.9630   40.5300 H   0  0  0  0  0  0  0  0  0  0  0  0
   39.9660   32.0480   41.3900 H   0  0  0  0  0  0  0  0  0  0  0  0
   38.8490   24.6920   42.3850 C   0  0  0  0  0  0  0  0  0  0  0  0
   38.6720   25.6140   41.3270 C   0  0  0  0  0  0  0  0  0  0  0  0
   39.3260   26.8630   41.4220 C   0  0  0  0  0  0  0  0  0  0  0  0
   40.0880   27.1160   42.5210 N   0  0  0  0  0  0  0  0  0  0  0  0
   40.2340   26.2080   43.5150 C   0  0  0  0  0  0  0  0  0  0  0  0
   39.6250   25.0070   43.4550 N   0  0  0  0  0  0  0  0  0  0  0  0
   38.3680   23.7310   42.3480 H   0  0  0  0  0  0  0  0  0  0  0  0
   38.0600   25.3570   40.4900 H   0  0  0  0  0  0  0  0  0  0  0  0
   41.0520   26.5790   44.6120 N   0  0  0  0  0  0  0  0  0  0  0  0
   41.3740   25.7380   45.1530 H   0  0  0  0  0  0  0  0  0  0  0  0
   41.2540   27.5970   44.7810 H   0  0  0  0  0  0  0  0  0  0  0  0
  1  6  1  0  0  0  0
  1 16  1  0  0  0  0
  2 10  1  0  0  0  0
  2 11  1  0  0  0  0
  3  2  1  0  0  0  0
  4  3  2  0  0  0  0
  4  5  1  0  0  0  0
  5 10  1  0  0  0  0
  6  5  2  0  0  0  0
  6  7  1  0  0  0  0
  7  8  2  0  0  0  0
  8  9  1  0  0  0  0
  8 13  1  0  0  0  0
 10  9  2  0  0  0  0
 12  3  1  0  0  0  0
 14 19  1  0  0  0  0
 15 16  1  0  0  0  0
 15 14  2  0  0  0  0
 16 17  2  0  0  0  0
 17 18  1  0  0  0  0
 18 22  1  0  0  0  0
 19 18  2  0  0  0  0
 20 14  1  0  0  0  0
 21 15  1  0  0  0  0
 22 24  1  0  0  0  0
 22 23  1  0  0  0  0
M  END
>  <minimizedAffinity>
-4.39317465

>  <minimizedRMSD>
0.518214107

$$$$
