REMARK  Name = 
REMARK  6 active torsions:
REMARK  status: ('A' for Active; 'I' for Inactive)
REMARK    1  A    between atoms: C_1  and  C_2
REMARK    2  A    between atoms: C_1  and  C_13
REMARK    3  A    between atoms: C_10  and  O_12
REMARK    4  A    between atoms: C_13  and  N_17
REMARK    5  A    between atoms: C_14  and  C_21
REMARK    6  A    between atoms: C_23  and  C_40
REMARK                            x       y       z     vdW  Elec       q    Type
REMARK                         _______ _______ _______ _____ _____    ______ ____
ROOT
ATOM      1  C   UNL     1      38.666  28.161  42.702  0.00  0.00    +0.000 A 
ATOM      2  C   UNL     1      37.564  27.336  42.866  0.00  0.00    +0.000 A 
ATOM      3  C   UNL     1      36.497  28.015  42.266  0.00  0.00    +0.000 A 
ATOM      4  N   UNL     1      37.022  29.164  41.799  0.00  0.00    +0.000 N 
ATOM      5  N   UNL     1      38.276  29.265  42.043  0.00  0.00    +0.000 NA
ATOM      6  H   UNL     1      37.562  26.365  43.364  0.00  0.00    +0.000 HD
ATOM      7  H   UNL     1      35.527  27.583  42.258  0.00  0.00    +0.000 HD
ENDROOT
BRANCH   1  10
ATOM      8  C   UNL     1      41.576  26.566  44.387  0.00  0.00    +0.000 A 
ATOM      9  C   UNL     1      40.257  26.748  43.946  0.00  0.00    +0.000 A 
ATOM     10  C   UNL     1      40.001  27.880  43.172  0.00  0.00    +0.000 A 
ATOM     11  N   UNL     1      40.999  28.715  42.893  0.00  0.00    +0.000 NA
ATOM     12  C   UNL     1      42.279  28.526  43.329  0.00  0.00    +0.000 A 
ATOM     13  N   UNL     1      42.541  27.442  44.075  0.00  0.00    +0.000 NA
ATOM     14  H   UNL     1      41.789  25.683  44.995  0.00  0.00    +0.000 HD
ATOM     15  H   UNL     1      39.471  26.066  44.180  0.00  0.00    +0.000 HD
BRANCH  12  16
ATOM     16  C   UNL     1      43.427  29.372  43.083  0.00  0.00    +0.000 A 
ATOM     17  N   UNL     1      43.278  30.623  42.618  0.00  0.00    +0.000 NA
ATOM     18  C   UNL     1      44.268  31.480  42.359  0.00  0.00    +0.000 A 
ATOM     19  N   UNL     1      45.568  31.114  42.563  0.00  0.00    +0.000 NA
ATOM     20  C   UNL     1      45.833  29.860  43.034  0.00  0.00    +0.000 A 
ATOM     21  C   UNL     1      47.136  29.472  43.246  0.00  0.00    +0.000 A 
ATOM     22  C   UNL     1      47.428  28.212  43.721  0.00  0.00    +0.000 A 
ATOM     23  H   UNL     1      48.485  28.025  43.847  0.00  0.00    +0.000 HD
ATOM     24  C   UNL     1      46.343  27.364  43.972  0.00  0.00    +0.000 A 
ATOM     25  H   UNL     1      46.626  26.395  44.341  0.00  0.00    +0.000 HD
ATOM     26  C   UNL     1      45.069  27.822  43.737  0.00  0.00    +0.000 A 
ATOM     27  C   UNL     1      44.753  29.064  43.267  0.00  0.00    +0.000 A 
ENDBRANCH  12  16
ENDBRANCH   1  10
BRANCH   4  28
ATOM     28  C   UNL     1      36.167  30.076  41.132  0.00  0.00    +0.000 C 
ATOM     29  H   UNL     1      35.556  30.577  41.939  0.00  0.00    +0.000 HD
ATOM     30  H   UNL     1      36.758  30.896  40.671  0.00  0.00    +0.000 HD
BRANCH  28  31
ATOM     31  C   UNL     1      35.281  29.494  40.077  0.00  0.00    +0.000 C 
ATOM     32  H   UNL     1      34.826  28.583  40.442  0.00  0.00    +0.000 HD
ATOM     33  H   UNL     1      34.552  30.367  39.965  0.00  0.00    +0.000 HD
BRANCH  31  34
ATOM     34  C   UNL     1      35.890  29.430  38.731  0.00  0.00    +0.000 A 
ATOM     35  C   UNL     1      37.205  29.593  38.400  0.00  0.00    +0.000 A 
ATOM     36  C   UNL     1      37.715  29.596  37.130  0.00  0.00    +0.000 A 
ATOM     37  C   UNL     1      36.867  29.422  36.060  0.00  0.00    +0.000 A 
ATOM     38  C   UNL     1      35.515  29.248  36.329  0.00  0.00    +0.000 A 
ATOM     39  C   UNL     1      34.725  29.082  35.215  0.00  0.00    +0.000 A 
ATOM     40  C   UNL     1      33.381  28.901  35.377  0.00  0.00    +0.000 A 
ATOM     41  C   UNL     1      32.846  28.887  36.644  0.00  0.00    +0.000 A 
ATOM     42  C   UNL     1      33.693  29.059  37.705  0.00  0.00    +0.000 A 
ATOM     43  C   UNL     1      35.039  29.250  37.623  0.00  0.00    +0.000 A 
ATOM     44  H   UNL     1      37.885  29.732  39.234  0.00  0.00    +0.000 HD
ATOM     45  H   UNL     1      38.770  29.731  36.957  0.00  0.00    +0.000 HD
ATOM     46  H   UNL     1      37.290  29.429  35.078  0.00  0.00    +0.000 HD
ATOM     47  H   UNL     1      35.125  29.087  34.207  0.00  0.00    +0.000 HD
ATOM     48  H   UNL     1      32.720  28.768  34.529  0.00  0.00    +0.000 HD
ATOM     49  H   UNL     1      31.788  28.743  36.760  0.00  0.00    +0.000 HD
BRANCH  42  50
ATOM     50  O   UNL     1      33.087  29.018  38.959  0.00  0.00    +0.000 OA
ATOM     51  H   UNL     1      32.351  29.673  39.215  0.00  0.00    +0.000 HD
ENDBRANCH  42  50
ENDBRANCH  31  34
ENDBRANCH  28  31
ENDBRANCH   4  28
TORSDOF 6
