
 OpenBabel03242509273D

 51 56  0  0  0  0  0  0  0  0999 V2000
   39.5770   27.8030   43.1880 C   0  0  0  0  0  0  0  0  0  0  0  0
   38.3280   27.3590   43.5920 C   0  0  0  0  0  0  0  0  0  0  0  0
   37.4200   28.3070   43.1070 C   0  0  0  0  0  0  0  0  0  0  0  0
   38.1700   29.2250   42.4660 N   0  0  0  0  0  0  0  0  0  0  0  0
   39.4200   28.9480   42.5040 N   0  0  0  0  0  0  0  0  0  0  0  0
   38.1270   26.4530   44.1670 H   0  0  0  0  0  0  0  0  0  0  0  0
   36.3800   28.1910   43.2860 H   0  0  0  0  0  0  0  0  0  0  0  0
   42.3250   25.2950   43.3100 C   0  0  0  0  0  0  0  0  0  0  0  0
   41.0940   25.8730   42.9640 C   0  0  0  0  0  0  0  0  0  0  0  0
   40.8310   27.1470   43.4690 C   0  0  0  0  0  0  0  0  0  0  0  0
   41.7410   27.7410   44.2370 N   0  0  0  0  0  0  0  0  0  0  0  0
   42.9350   27.1670   44.5670 C   0  0  0  0  0  0  0  0  0  0  0  0
   43.2030   25.9420   44.0890 N   0  0  0  0  0  0  0  0  0  0  0  0
   42.5420   24.2970   42.9200 H   0  0  0  0  0  0  0  0  0  0  0  0
   40.3780   25.3800   42.3450 H   0  0  0  0  0  0  0  0  0  0  0  0
   43.9840   27.7260   45.3920 C   0  0  0  0  0  0  0  0  0  0  0  0
   45.1760   28.0540   44.8690 N   0  0  0  0  0  0  0  0  0  0  0  0
   46.2050   28.5740   45.5410 C   0  0  0  0  0  3  0  0  0  0  0  0
   46.1000   28.8170   46.8810 N   0  0  0  0  0  0  0  0  0  0  0  0
   44.9280   28.5200   47.5150 C   0  0  0  0  0  0  0  0  0  0  0  0
   44.8020   28.7580   48.8650 C   0  0  0  0  0  3  0  0  0  0  0  0
   43.6300   28.4670   49.5260 C   0  0  0  0  0  0  0  0  0  0  0  0
   43.6520   28.6970   50.5820 H   0  0  0  0  0  0  0  0  0  0  0  0
   42.5910   27.9240   48.7610 C   0  0  0  0  0  0  0  0  0  0  0  0
   41.7000   27.7150   49.3240 H   0  0  0  0  0  0  0  0  0  0  0  0
   42.7900   27.7140   47.4180 C   0  0  0  0  0  3  0  0  0  0  0  0
   43.9410   27.9940   46.7380 C   0  0  0  0  0  0  0  0  0  0  0  0
   37.5180   30.3280   41.8620 C   0  0  0  0  0  0  0  0  0  0  0  0
   37.1650   30.9840   42.7110 H   0  0  0  0  0  0  0  0  0  0  0  0
   38.2480   30.9520   41.3040 H   0  0  0  0  0  0  0  0  0  0  0  0
   36.3890   29.9990   40.9380 C   0  0  0  0  0  0  0  0  0  0  0  0
   35.8090   29.1810   41.3450 H   0  0  0  0  0  0  0  0  0  0  0  0
   35.8510   31.0070   40.9590 H   0  0  0  0  0  0  0  0  0  0  0  0
   36.7730   29.8870   39.5150 C   0  0  0  0  0  0  0  0  0  0  0  0
   37.9860   30.1660   38.9520 C   0  0  0  0  0  0  0  0  0  0  0  0
   38.2780   30.1160   37.6160 C   0  0  0  0  0  0  0  0  0  0  0  0
   37.2940   29.7570   36.7220 C   0  0  0  0  0  0  0  0  0  0  0  0
   36.0360   29.4580   37.2310 C   0  0  0  0  0  0  0  0  0  0  0  0
   35.1020   29.1110   36.2830 C   0  0  0  0  0  0  0  0  0  0  0  0
   33.8350   28.7970   36.6860 C   0  0  0  0  0  0  0  0  0  0  0  0
   33.5200   28.8330   38.0240 C   0  0  0  0  0  0  0  0  0  0  0  0
   34.5010   29.1880   38.9100 C   0  0  0  0  0  0  0  0  0  0  0  0
   35.7810   29.5190   38.5840 C   0  0  0  0  0  0  0  0  0  0  0  0
   38.7700   30.4510   39.6460 H   0  0  0  0  0  0  0  0  0  0  0  0
   39.2650   30.3510   37.2550 H   0  0  0  0  0  0  0  0  0  0  0  0
   37.5470   29.7260   35.6840 H   0  0  0  0  0  0  0  0  0  0  0  0
   35.3280   29.0730   35.2230 H   0  0  0  0  0  0  0  0  0  0  0  0
   33.0660   28.5190   35.9750 H   0  0  0  0  0  0  0  0  0  0  0  0
   32.5210   28.5830   38.3300 H   0  0  0  0  0  0  0  0  0  0  0  0
   34.1180   29.1890   40.2490 O   0  0  0  0  0  0  0  0  0  0  0  0
   33.3580   29.7780   40.5840 H   0  0  0  0  0  0  0  0  0  0  0  0
  1 10  1  0  0  0  0
  1  2  1  0  0  0  0
  2  6  1  0  0  0  0
  3  7  1  0  0  0  0
  3  2  2  0  0  0  0
  4  5  1  0  0  0  0
  4  3  1  0  0  0  0
  5  1  2  0  0  0  0
  8 13  1  0  0  0  0
  9  8  2  0  0  0  0
  9 10  1  0  0  0  0
 10 11  2  0  0  0  0
 11 12  1  0  0  0  0
 12 16  1  0  0  0  0
 13 12  2  0  0  0  0
 14  8  1  0  0  0  0
 15  9  1  0  0  0  0
 16 27  1  0  0  0  0
 17 16  2  0  0  0  0
 17 18  1  0  0  0  0
 18 19  2  0  0  0  0
 19 20  1  0  0  0  0
 20 21  1  0  0  0  0
 21 22  2  0  0  0  0
 22 23  1  0  0  0  0
 24 25  1  0  0  0  0
 24 22  1  0  0  0  0
 26 24  2  0  0  0  0
 27 26  1  0  0  0  0
 27 20  2  0  0  0  0
 28  4  1  0  0  0  0
 28 29  1  0  0  0  0
 30 28  1  0  0  0  0
 31 33  1  0  0  0  0
 31 32  1  0  0  0  0
 31 28  1  0  0  0  0
 34 31  1  0  0  0  0
 35 34  1  0  0  0  0
 35 44  1  0  0  0  0
 36 35  2  0  0  0  0
 37 38  2  0  0  0  0
 37 36  1  0  0  0  0
 38 43  1  0  0  0  0
 39 40  2  0  0  0  0
 39 38  1  0  0  0  0
 40 41  1  0  0  0  0
 41 49  1  0  0  0  0
 41 42  2  0  0  0  0
 42 50  1  0  0  0  0
 43 42  1  0  0  0  0
 43 34  2  0  0  0  0
 45 36  1  0  0  0  0
 46 37  1  0  0  0  0
 47 39  1  0  0  0  0
 48 40  1  0  0  0  0
 50 51  1  0  0  0  0
M  END
>  <minimizedAffinity>
-7.90846872

>  <minimizedRMSD>
2.67031503

$$$$
