
 OpenBabel03242508043D

 33 36  0  0  0  0  0  0  0  0999 V2000
   38.5780   27.4990   41.0270 C   0  0  0  0  0  0  0  0  0  0  0  0
   38.6320   26.5060   41.9860 C   0  0  0  0  0  0  0  0  0  0  0  0
   39.2960   26.7920   43.2260 C   0  0  0  0  0  0  0  0  0  0  0  0
   39.8430   28.0190   43.4060 N   0  0  0  0  0  0  0  0  0  0  0  0
   39.7780   28.9570   42.4650 C   0  0  0  0  0  0  0  0  0  0  0  0
   39.1650   28.6690   41.3390 N   0  0  0  0  0  0  0  0  0  0  0  0
   39.3300   26.0050   43.9680 H   0  0  0  0  0  0  0  0  0  0  0  0
   40.2390   29.9050   42.6900 H   0  0  0  0  0  0  0  0  0  0  0  0
   38.0980   25.2200   41.8350 N   0  0  0  0  0  0  0  0  0  0  0  0
   38.8170   23.9860   41.4490 C   0  0  0  0  0  0  0  0  0  0  0  0
   37.7790   23.1540   40.7710 C   0  0  0  0  0  0  0  0  0  0  0  0
   36.4820   23.9210   40.9370 C   0  0  0  0  0  0  0  0  0  0  0  0
   36.7580   24.8030   42.0740 C   0  0  0  0  0  0  0  0  0  0  0  0
   39.1140   23.5220   42.3850 H   0  0  0  0  0  0  0  0  0  0  0  0
   39.6750   24.2400   40.7980 H   0  0  0  0  0  0  0  0  0  0  0  0
   38.0510   22.9620   39.7260 H   0  0  0  0  0  0  0  0  0  0  0  0
   37.6370   22.1540   41.2540 H   0  0  0  0  0  0  0  0  0  0  0  0
   35.6370   23.1870   41.1490 H   0  0  0  0  0  0  0  0  0  0  0  0
   36.3340   24.3950   39.9710 H   0  0  0  0  0  0  0  0  0  0  0  0
   36.0260   25.5680   42.3480 H   0  0  0  0  0  0  0  0  0  0  0  0
   36.8250   24.1060   42.9900 H   0  0  0  0  0  0  0  0  0  0  0  0
   37.9850   27.4250   39.7190 C   0  0  0  0  0  0  0  0  0  0  0  0
   38.4320   26.9770   38.5810 N   0  0  0  0  0  0  0  0  0  0  0  0
   38.0220   26.9080   37.3570 C   0  0  0  0  0  0  0  0  0  0  0  0
   36.8080   27.4250   37.1370 N   0  0  0  0  0  0  0  0  0  0  0  0
   36.1430   27.9620   38.2070 C   0  0  0  0  0  0  0  0  0  0  0  0
   34.9230   28.4900   37.8720 C   0  0  0  0  0  0  0  0  0  0  0  0
   34.2090   29.0740   38.8860 C   0  0  0  0  0  0  0  0  0  0  0  0
   33.2480   29.4920   38.6260 H   0  0  0  0  0  0  0  0  0  0  0  0
   34.6890   29.1290   40.1660 C   0  0  0  0  0  0  0  0  0  0  0  0
   34.0770   29.5990   40.8970 H   0  0  0  0  0  0  0  0  0  0  0  0
   35.9260   28.5590   40.3550 C   0  0  0  0  0  0  0  0  0  0  0  0
   36.7490   27.9420   39.4420 C   0  0  0  0  0  0  0  0  0  0  0  0
  1  6  2  0  0  0  0
  1  2  1  0  0  0  0
  2  3  2  0  0  0  0
  3  4  1  0  0  0  0
  3  7  1  0  0  0  0
  5  8  1  0  0  0  0
  5  4  2  0  0  0  0
  6  5  1  0  0  0  0
  9  2  1  0  0  0  0
  9 13  1  0  0  0  0
 10  9  1  0  0  0  0
 10 14  1  0  0  0  0
 11 12  1  0  0  0  0
 11 17  1  0  0  0  0
 11 10  1  0  0  0  0
 12 18  1  0  0  0  0
 12 13  1  0  0  0  0
 13 20  1  0  0  0  0
 13 21  1  0  0  0  0
 15 10  1  0  0  0  0
 16 11  1  0  0  0  0
 19 12  1  0  0  0  0
 22  1  1  0  0  0  0
 23 22  2  0  0  0  0
 24 23  1  0  0  0  0
 25 24  2  0  0  0  0
 25 26  1  0  0  0  0
 26 33  1  0  0  0  0
 27 26  2  0  0  0  0
 27 28  1  0  0  0  0
 28 30  2  0  0  0  0
 29 28  1  0  0  0  0
 30 32  1  0  0  0  0
 30 31  1  0  0  0  0
 33 22  1  0  0  0  0
 33 32  2  0  0  0  0
M  END
>  <minimizedAffinity>
-4.81301928

>  <minimizedRMSD>
5.82926559

$$$$
