
 OpenBabel03242509273D

 51 56  0  0  0  0  0  0  0  0999 V2000
   38.4940   28.1840   42.5990 C   0  0  0  0  0  0  0  0  0  0  0  0
   37.4200   27.3170   42.7310 C   0  0  0  0  0  0  0  0  0  0  0  0
   36.3470   27.9540   42.0970 C   0  0  0  0  0  0  0  0  0  0  0  0
   36.8420   29.1220   41.6440 N   0  0  0  0  0  0  0  0  0  0  0  0
   38.0830   29.2710   41.9260 N   0  0  0  0  0  0  0  0  0  0  0  0
   37.4400   26.3470   43.2310 H   0  0  0  0  0  0  0  0  0  0  0  0
   35.3950   27.4860   42.0610 H   0  0  0  0  0  0  0  0  0  0  0  0
   41.4340   26.6520   44.2910 C   0  0  0  0  0  0  0  0  0  0  0  0
   40.1260   26.7810   43.8020 C   0  0  0  0  0  0  0  0  0  0  0  0
   39.8240   27.9540   43.1100 C   0  0  0  0  0  0  0  0  0  0  0  0
   40.7720   28.8750   42.9490 N   0  0  0  0  0  0  0  0  0  0  0  0
   42.0420   28.7360   43.4300 C   0  0  0  0  0  0  0  0  0  0  0  0
   42.3470   27.6130   44.0980 N   0  0  0  0  0  0  0  0  0  0  0  0
   41.6820   25.7370   44.8350 H   0  0  0  0  0  0  0  0  0  0  0  0
   39.3810   26.0310   43.9410 H   0  0  0  0  0  0  0  0  0  0  0  0
   43.1370   29.6750   43.3100 C   0  0  0  0  0  0  0  0  0  0  0  0
   43.4740   30.4790   44.3300 N   0  0  0  0  0  0  0  0  0  0  0  0
   44.4630   31.3760   44.3210 C   0  0  0  0  0  3  0  0  0  0  0  0
   45.2360   31.5380   43.2070 N   0  0  0  0  0  0  0  0  0  0  0  0
   44.9780   30.7680   42.1100 C   0  0  0  0  0  0  0  0  0  0  0  0
   45.7460   30.9160   40.9770 C   0  0  0  0  0  3  0  0  0  0  0  0
   45.5060   30.1500   39.8570 C   0  0  0  0  0  0  0  0  0  0  0  0
   46.1730   30.3570   39.0320 H   0  0  0  0  0  0  0  0  0  0  0  0
   44.4540   29.2300   39.9340 C   0  0  0  0  0  0  0  0  0  0  0  0
   44.3090   28.6590   39.0350 H   0  0  0  0  0  0  0  0  0  0  0  0
   43.7310   29.1390   41.0990 C   0  0  0  0  0  3  0  0  0  0  0  0
   43.9490   29.8840   42.2220 C   0  0  0  0  0  0  0  0  0  0  0  0
   35.9730   30.0000   40.9500 C   0  0  0  0  0  0  0  0  0  0  0  0
   35.3220   30.4810   41.7380 H   0  0  0  0  0  0  0  0  0  0  0  0
   36.5470   30.8400   40.5020 H   0  0  0  0  0  0  0  0  0  0  0  0
   35.1390   29.3830   39.8730 C   0  0  0  0  0  0  0  0  0  0  0  0
   34.7170   28.4510   40.2250 H   0  0  0  0  0  0  0  0  0  0  0  0
   34.3740   30.2230   39.7470 H   0  0  0  0  0  0  0  0  0  0  0  0
   35.7810   29.3520   38.5410 C   0  0  0  0  0  0  0  0  0  0  0  0
   37.1080   29.4860   38.2500 C   0  0  0  0  0  0  0  0  0  0  0  0
   37.6510   29.5220   36.9940 C   0  0  0  0  0  0  0  0  0  0  0  0
   36.8270   29.4160   35.8980 C   0  0  0  0  0  0  0  0  0  0  0  0
   35.4640   29.2750   36.1250 C   0  0  0  0  0  0  0  0  0  0  0  0
   34.6990   29.1770   34.9860 C   0  0  0  0  0  0  0  0  0  0  0  0
   33.3460   29.0320   35.1070 C   0  0  0  0  0  0  0  0  0  0  0  0
   32.7780   28.9860   36.3590 C   0  0  0  0  0  0  0  0  0  0  0  0
   33.6010   29.0900   37.4470 C   0  0  0  0  0  0  0  0  0  0  0  0
   34.9540   29.2420   37.4060 C   0  0  0  0  0  0  0  0  0  0  0  0
   37.7700   29.5720   39.1060 H   0  0  0  0  0  0  0  0  0  0  0  0
   38.7140   29.6310   36.8540 H   0  0  0  0  0  0  0  0  0  0  0  0
   37.2760   29.4480   34.9270 H   0  0  0  0  0  0  0  0  0  0  0  0
   35.1250   29.2080   33.9900 H   0  0  0  0  0  0  0  0  0  0  0  0
   32.7040   28.9530   34.2380 H   0  0  0  0  0  0  0  0  0  0  0  0
   31.7130   28.8710   36.4420 H   0  0  0  0  0  0  0  0  0  0  0  0
   32.9610   29.0200   38.6820 O   0  0  0  0  0  0  0  0  0  0  0  0
   32.2390   29.6870   38.9460 H   0  0  0  0  0  0  0  0  0  0  0  0
  1  2  1  0  0  0  0
  1 10  1  0  0  0  0
  2  6  1  0  0  0  0
  3  2  2  0  0  0  0
  4  5  1  0  0  0  0
  4  3  1  0  0  0  0
  5  1  2  0  0  0  0
  7  3  1  0  0  0  0
  8 14  1  0  0  0  0
  9 15  1  0  0  0  0
  9  8  2  0  0  0  0
 10  9  1  0  0  0  0
 11 10  2  0  0  0  0
 11 12  1  0  0  0  0
 12 13  2  0  0  0  0
 13  8  1  0  0  0  0
 16 12  1  0  0  0  0
 16 17  1  0  0  0  0
 18 17  2  0  0  0  0
 19 18  1  0  0  0  0
 20 27  1  0  0  0  0
 20 19  2  0  0  0  0
 21 20  1  0  0  0  0
 22 24  1  0  0  0  0
 22 21  2  0  0  0  0
 23 22  1  0  0  0  0
 24 26  2  0  0  0  0
 25 24  1  0  0  0  0
 26 27  1  0  0  0  0
 27 16  2  0  0  0  0
 28  4  1  0  0  0  0
 28 29  1  0  0  0  0
 30 28  1  0  0  0  0
 31 32  1  0  0  0  0
 31 28  1  0  0  0  0
 33 31  1  0  0  0  0
 34 31  1  0  0  0  0
 35 34  1  0  0  0  0
 35 44  1  0  0  0  0
 36 35  2  0  0  0  0
 37 38  2  0  0  0  0
 37 36  1  0  0  0  0
 38 43  1  0  0  0  0
 39 40  2  0  0  0  0
 39 38  1  0  0  0  0
 40 41  1  0  0  0  0
 41 49  1  0  0  0  0
 41 42  2  0  0  0  0
 42 50  1  0  0  0  0
 43 42  1  0  0  0  0
 43 34  2  0  0  0  0
 45 36  1  0  0  0  0
 46 37  1  0  0  0  0
 47 39  1  0  0  0  0
 48 40  1  0  0  0  0
 50 51  1  0  0  0  0
M  END
>  <minimizedAffinity>
-6.14684248

>  <minimizedRMSD>
1.34604871

$$$$
