
 OpenBabel03242507193D

 46 50  0  0  0  0  0  0  0  0999 V2000
   35.1210   28.9700   40.2570 C   0  0  0  0  0  0  0  0  0  0  0  0
   36.3660   28.4840   40.6470 C   0  0  0  0  0  0  0  0  0  0  0  0
   37.2300   28.0690   39.6110 C   0  0  0  0  0  0  0  0  0  0  0  0
   36.8460   28.1500   38.3150 N   0  0  0  0  0  0  0  0  0  0  0  0
   35.5920   28.6430   37.9910 C   0  0  0  0  0  0  0  0  0  0  0  0
   34.7190   29.0570   38.9620 N   0  0  0  0  0  0  0  0  0  0  0  0
   34.4480   29.2900   41.0410 H   0  0  0  0  0  0  0  0  0  0  0  0
   38.2200   27.6760   39.8120 H   0  0  0  0  0  0  0  0  0  0  0  0
   36.7800   28.3950   41.9720 N   0  0  0  0  0  0  0  0  0  0  0  0
   36.3550   27.5170   42.8860 C   0  0  0  0  0  0  0  0  0  0  0  0
   37.0460   27.8240   44.0300 C   0  0  0  0  0  0  0  0  0  0  0  0
   37.8750   28.8730   43.8090 N   0  0  0  0  0  0  0  0  0  0  0  0
   37.7020   29.2220   42.5270 C   0  0  0  0  0  0  0  0  0  0  0  0
   38.4860   30.3150   42.0830 N   0  0  0  0  0  0  0  0  0  0  0  0
   39.7630   30.5290   42.5110 C   0  0  0  0  0  0  0  0  0  0  0  0
   40.2880   31.6540   41.9250 N   0  0  0  0  0  0  0  0  0  0  0  0
   39.3450   32.1630   41.1200 C   0  0  0  0  0  0  0  0  0  0  0  0
   39.3180   33.2650   40.2980 C   0  0  0  0  0  0  0  0  0  0  0  0
   38.1610   33.4640   39.6220 N   0  0  0  0  0  0  0  0  0  0  0  0
   37.0970   32.6630   39.7230 C   0  0  0  0  0  0  0  0  0  0  0  0
   37.1110   31.5750   40.5270 N   0  0  0  0  0  0  0  0  0  0  0  0
   38.2420   31.3400   41.2190 C   0  0  0  0  0  0  0  0  0  0  0  0
   40.4220   34.1440   40.1600 N   0  0  0  0  0  0  0  0  0  0  0  0
   35.6190   26.7360   42.7310 H   0  0  0  0  0  0  0  0  0  0  0  0
   36.9050   27.2670   44.9600 H   0  0  0  0  0  0  0  0  0  0  0  0
   40.3960   30.0070   43.1830 H   0  0  0  0  0  0  0  0  0  0  0  0
   36.1610   32.7960   39.1980 H   0  0  0  0  0  0  0  0  0  0  0  0
   41.3000   33.8910   40.6630 H   0  0  0  0  0  0  0  0  0  0  0  0
   40.3000   34.9930   39.5640 H   0  0  0  0  0  0  0  0  0  0  0  0
   35.0690   28.7820   36.6170 C   0  0  0  0  0  0  0  0  0  0  0  0
   33.6350   29.2070   36.5790 C   0  0  0  0  0  0  0  0  0  0  0  0
   33.4310   29.8230   37.4790 H   0  0  0  0  0  0  0  0  0  0  0  0
   32.9950   28.2850   36.7510 H   0  0  0  0  0  0  0  0  0  0  0  0
   33.3120   29.6260   35.6310 H   0  0  0  0  0  0  0  0  0  0  0  0
   35.1260   27.4020   35.9540 C   0  0  0  0  0  0  0  0  0  0  0  0
   34.5000   26.7360   36.6160 H   0  0  0  0  0  0  0  0  0  0  0  0
   34.6260   27.4100   34.9760 H   0  0  0  0  0  0  0  0  0  0  0  0
   36.1310   26.9830   35.9650 H   0  0  0  0  0  0  0  0  0  0  0  0
   35.9730   29.6660   35.7990 C   0  0  0  0  0  0  0  0  0  0  0  0
   37.0380   29.4030   35.9690 H   0  0  0  0  0  0  0  0  0  0  0  0
   35.8730   30.7120   36.1990 H   0  0  0  0  0  0  0  0  0  0  0  0
   35.7230   29.7240   34.3440 C   0  0  0  0  0  0  0  0  0  0  0  0
   36.7080   29.0700   33.4510 C   0  0  0  0  0  0  0  0  0  0  0  0
   36.5600   29.8580   32.1400 C   0  0  0  0  0  0  0  0  0  0  0  0
   36.6280   31.2700   32.6850 C   0  0  0  0  0  0  0  0  0  0  0  0
   35.8260   31.2030   33.9520 C   0  0  0  0  0  0  0  0  0  0  0  0
  1  2  1  0  0  0  0
  1  7  1  0  0  0  0
  2  9  1  0  0  0  0
  3  8  1  0  0  0  0
  3  2  2  0  0  0  0
  4  3  1  0  0  0  0
  5  4  2  0  0  0  0
  5  6  1  0  0  0  0
  6  1  2  0  0  0  0
  9 13  1  0  0  0  0
  9 10  1  0  0  0  0
 10 11  2  0  0  0  0
 11 25  1  0  0  0  0
 12 11  1  0  0  0  0
 13 12  2  0  0  0  0
 14 15  1  0  0  0  0
 14 13  1  0  0  0  0
 15 26  1  0  0  0  0
 16 15  2  0  0  0  0
 17 22  1  0  0  0  0
 17 16  1  0  0  0  0
 18 17  2  0  0  0  0
 19 20  2  0  0  0  0
 19 18  1  0  0  0  0
 20 21  1  0  0  0  0
 21 22  2  0  0  0  0
 22 14  1  0  0  0  0
 23 18  1  0  0  0  0
 23 28  1  0  0  0  0
 24 10  1  0  0  0  0
 27 20  1  0  0  0  0
 29 23  1  0  0  0  0
 30  5  1  0  0  0  0
 31 30  1  0  0  0  0
 31 33  1  0  0  0  0
 31 32  1  0  0  0  0
 34 31  1  0  0  0  0
 35 38  1  0  0  0  0
 35 36  1  0  0  0  0
 35 30  1  0  0  0  0
 37 35  1  0  0  0  0
 39 40  1  0  0  0  0
 39 41  1  0  0  0  0
 39 30  1  0  0  0  0
 42 39  1  0  0  0  0
 43 42  1  0  0  0  0
 44 45  1  0  0  0  0
 44 43  1  0  0  0  0
 45 46  1  0  0  0  0
 46 42  1  0  0  0  0
M  END
>  <minimizedAffinity>
-6.40330887

>  <minimizedRMSD>
1.46630692

$$$$
