
 OpenBabel03242509273D

 51 56  0  0  0  0  0  0  0  0999 V2000
   38.5660   28.0520   42.6720 C   0  0  0  0  0  0  0  0  0  0  0  0
   37.4430   27.2460   42.7790 C   0  0  0  0  0  0  0  0  0  0  0  0
   36.4070   27.9670   42.1740 C   0  0  0  0  0  0  0  0  0  0  0  0
   36.9680   29.1190   41.7590 N   0  0  0  0  0  0  0  0  0  0  0  0
   38.2170   29.1850   42.0390 N   0  0  0  0  0  0  0  0  0  0  0  0
   37.4070   26.2600   43.2440 H   0  0  0  0  0  0  0  0  0  0  0  0
   35.4290   27.5570   42.1250 H   0  0  0  0  0  0  0  0  0  0  0  0
   41.4720   26.2110   44.0920 C   0  0  0  0  0  0  0  0  0  0  0  0
   40.1790   26.4340   43.5960 C   0  0  0  0  0  0  0  0  0  0  0  0
   39.8810   27.7280   43.1680 C   0  0  0  0  0  0  0  0  0  0  0  0
   40.8190   28.6690   43.2470 N   0  0  0  0  0  0  0  0  0  0  0  0
   42.0740   28.4390   43.7320 C   0  0  0  0  0  0  0  0  0  0  0  0
   42.3750   27.1990   44.1480 N   0  0  0  0  0  0  0  0  0  0  0  0
   41.7160   25.2010   44.4310 H   0  0  0  0  0  0  0  0  0  0  0  0
   39.4410   25.6650   43.5400 H   0  0  0  0  0  0  0  0  0  0  0  0
   43.1570   29.3900   43.8600 C   0  0  0  0  0  0  0  0  0  0  0  0
   44.2370   29.1120   44.6070 N   0  0  0  0  0  0  0  0  0  0  0  0
   45.2860   29.9170   44.7900 C   0  0  0  0  0  3  0  0  0  0  0  0
   45.3240   31.1450   44.1920 N   0  0  0  0  0  0  0  0  0  0  0  0
   44.2740   31.5280   43.4080 C   0  0  0  0  0  0  0  0  0  0  0  0
   44.2950   32.7610   42.7970 C   0  0  0  0  0  3  0  0  0  0  0  0
   43.2460   33.1710   42.0020 C   0  0  0  0  0  0  0  0  0  0  0  0
   43.3770   34.1570   41.5770 H   0  0  0  0  0  0  0  0  0  0  0  0
   42.1790   32.2780   41.8530 C   0  0  0  0  0  0  0  0  0  0  0  0
   41.3890   32.6460   41.2230 H   0  0  0  0  0  0  0  0  0  0  0  0
   42.2300   31.0640   42.4940 C   0  0  0  0  0  3  0  0  0  0  0  0
   43.2550   30.6340   43.2870 C   0  0  0  0  0  0  0  0  0  0  0  0
   36.1510   30.0700   41.1000 C   0  0  0  0  0  0  0  0  0  0  0  0
   35.5540   30.5830   41.9100 H   0  0  0  0  0  0  0  0  0  0  0  0
   36.7740   30.8740   40.6530 H   0  0  0  0  0  0  0  0  0  0  0  0
   35.2500   29.5350   40.0330 C   0  0  0  0  0  0  0  0  0  0  0  0
   34.7480   28.6450   40.3890 H   0  0  0  0  0  0  0  0  0  0  0  0
   34.5640   30.4420   39.9170 H   0  0  0  0  0  0  0  0  0  0  0  0
   35.8700   29.4470   38.6930 C   0  0  0  0  0  0  0  0  0  0  0  0
   37.1890   29.5890   38.3720 C   0  0  0  0  0  0  0  0  0  0  0  0
   37.7110   29.5710   37.1070 C   0  0  0  0  0  0  0  0  0  0  0  0
   36.8700   29.3950   36.0310 C   0  0  0  0  0  0  0  0  0  0  0  0
   35.5130   29.2420   36.2900 C   0  0  0  0  0  0  0  0  0  0  0  0
   34.7310   29.0730   35.1710 C   0  0  0  0  0  0  0  0  0  0  0  0
   33.3840   28.9120   35.3230 C   0  0  0  0  0  0  0  0  0  0  0  0
   32.8370   28.9190   36.5850 C   0  0  0  0  0  0  0  0  0  0  0  0
   33.6770   29.0930   37.6520 C   0  0  0  0  0  0  0  0  0  0  0  0
   35.0260   29.2650   37.5800 C   0  0  0  0  0  0  0  0  0  0  0  0
   37.8640   29.7290   39.2110 H   0  0  0  0  0  0  0  0  0  0  0  0
   38.7690   29.6900   36.9420 H   0  0  0  0  0  0  0  0  0  0  0  0
   37.3020   29.3850   35.0530 H   0  0  0  0  0  0  0  0  0  0  0  0
   35.1400   29.0610   34.1670 H   0  0  0  0  0  0  0  0  0  0  0  0
   32.7280   28.7770   34.4710 H   0  0  0  0  0  0  0  0  0  0  0  0
   31.7760   28.7910   36.6940 H   0  0  0  0  0  0  0  0  0  0  0  0
   33.0590   29.0750   38.9010 O   0  0  0  0  0  0  0  0  0  0  0  0
   32.3300   29.7420   39.1430 H   0  0  0  0  0  0  0  0  0  0  0  0
  1  2  1  0  0  0  0
  1 10  1  0  0  0  0
  2  6  1  0  0  0  0
  3  2  2  0  0  0  0
  4  5  1  0  0  0  0
  4  3  1  0  0  0  0
  5  1  2  0  0  0  0
  7  3  1  0  0  0  0
  8 13  1  0  0  0  0
  8 14  1  0  0  0  0
  9  8  2  0  0  0  0
 10 11  2  0  0  0  0
 10  9  1  0  0  0  0
 11 12  1  0  0  0  0
 12 16  1  0  0  0  0
 12 13  2  0  0  0  0
 15  9  1  0  0  0  0
 16 17  1  0  0  0  0
 17 18  2  0  0  0  0
 19 18  1  0  0  0  0
 20 19  2  0  0  0  0
 21 20  1  0  0  0  0
 22 21  2  0  0  0  0
 23 22  1  0  0  0  0
 24 22  1  0  0  0  0
 24 26  2  0  0  0  0
 25 24  1  0  0  0  0
 26 27  1  0  0  0  0
 27 20  1  0  0  0  0
 27 16  2  0  0  0  0
 28  4  1  0  0  0  0
 28 29  1  0  0  0  0
 30 28  1  0  0  0  0
 31 32  1  0  0  0  0
 31 28  1  0  0  0  0
 33 31  1  0  0  0  0
 34 31  1  0  0  0  0
 35 34  1  0  0  0  0
 35 44  1  0  0  0  0
 36 35  2  0  0  0  0
 37 38  2  0  0  0  0
 37 36  1  0  0  0  0
 38 43  1  0  0  0  0
 39 40  2  0  0  0  0
 39 38  1  0  0  0  0
 40 41  1  0  0  0  0
 41 49  1  0  0  0  0
 41 42  2  0  0  0  0
 42 50  1  0  0  0  0
 43 42  1  0  0  0  0
 43 34  2  0  0  0  0
 45 36  1  0  0  0  0
 46 37  1  0  0  0  0
 47 39  1  0  0  0  0
 48 40  1  0  0  0  0
 50 51  1  0  0  0  0
M  END
>  <minimizedAffinity>
-6.54584026

>  <minimizedRMSD>
0.648670316

$$$$
