
     RDKit          3D

 54 59  0  0  0  0  0  0  0  0999 V2000
   35.2810   29.4939   40.0768 C   0  0  0  0  0  0  0  0  0  0  0  0
   35.8900   29.4299   38.7313 C   0  0  0  0  0  0  0  0  0  0  0  0
   37.2049   29.5932   38.3995 C   0  0  0  0  0  0  0  0  0  0  0  0
   37.7146   29.5955   37.1298 C   0  0  0  0  0  0  0  0  0  0  0  0
   36.8668   29.4219   36.0605 C   0  0  0  0  0  0  0  0  0  0  0  0
   35.5150   29.2483   36.3288 C   0  0  0  0  0  0  0  0  0  0  0  0
   34.7247   29.0816   35.2145 C   0  0  0  0  0  0  0  0  0  0  0  0
   33.3809   28.9012   35.3774 C   0  0  0  0  0  0  0  0  0  0  0  0
   32.8459   28.8872   36.6438 C   0  0  0  0  0  0  0  0  0  0  0  0
   33.6930   29.0588   37.7051 C   0  0  0  0  0  0  0  0  0  0  0  0
   35.0388   29.2496   37.6233 C   0  0  0  0  0  0  0  0  0  0  0  0
   33.0866   29.0180   38.9585 O   0  0  0  0  0  0  0  0  0  0  0  0
   36.1673   30.0759   41.1317 C   0  0  0  0  0  0  0  0  0  0  0  0
   38.6658   28.1609   42.7016 C   0  0  0  0  0  0  0  0  0  0  0  0
   37.5642   27.3357   42.8657 C   0  0  0  0  0  0  0  0  0  0  0  0
   36.4974   28.0146   42.2655 C   0  0  0  0  0  0  0  0  0  0  0  0
   37.0222   29.1637   41.7990 N   0  0  0  0  0  0  0  0  0  0  0  0
   38.2760   29.2645   42.0428 N   0  0  0  0  0  0  0  0  0  0  0  0
   41.5756   26.5663   44.3870 C   0  0  0  0  0  0  0  0  0  0  0  0
   40.2565   26.7484   43.9461 C   0  0  0  0  0  0  0  0  0  0  0  0
   40.0010   27.8799   43.1719 C   0  0  0  0  0  0  0  0  0  0  0  0
   40.9991   28.7154   42.8926 N   0  0  0  0  0  0  0  0  0  0  0  0
   42.2793   28.5264   43.3291 C   0  0  0  0  0  0  0  0  0  0  0  0
   42.5405   27.4422   44.0755 N   0  0  0  0  0  0  0  0  0  0  0  0
   34.8259   28.5833   40.4424 H   0  0  0  0  0  0  0  0  0  0  0  0
   34.5523   30.3675   39.9649 H   0  0  0  0  0  0  0  0  0  0  0  0
   37.8851   29.7316   39.2340 H   0  0  0  0  0  0  0  0  0  0  0  0
   38.7704   29.7313   36.9573 H   0  0  0  0  0  0  0  0  0  0  0  0
   37.2902   29.4293   35.0777 H   0  0  0  0  0  0  0  0  0  0  0  0
   35.1254   29.0873   34.2066 H   0  0  0  0  0  0  0  0  0  0  0  0
   32.7202   28.7679   34.5288 H   0  0  0  0  0  0  0  0  0  0  0  0
   31.7882   28.7432   36.7603 H   0  0  0  0  0  0  0  0  0  0  0  0
   32.3508   29.6730   39.2146 H   0  0  0  0  0  0  0  0  0  0  0  0
   35.5563   30.5771   41.9387 H   0  0  0  0  0  0  0  0  0  0  0  0
   36.7582   30.8960   40.6712 H   0  0  0  0  0  0  0  0  0  0  0  0
   37.5618   26.3654   43.3636 H   0  0  0  0  0  0  0  0  0  0  0  0
   35.5271   27.5828   42.2584 H   0  0  0  0  0  0  0  0  0  0  0  0
   41.7891   25.6825   44.9952 H   0  0  0  0  0  0  0  0  0  0  0  0
   39.4712   26.0664   44.1802 H   0  0  0  0  0  0  0  0  0  0  0  0
   43.4268   29.3717   43.0828 C   0  0  0  0  0  0  0  0  0  0  0  0
   44.4283   29.4561   43.9733 N   0  0  0  0  0  0  0  0  0  0  0  0
   45.5267   30.2038   43.8418 C   0  0  0  0  0  0  0  0  0  0  0  0
   45.7076   30.9729   42.7273 N   0  0  0  0  0  0  0  0  0  0  0  0
   44.7476   30.9611   41.7569 C   0  0  0  0  0  0  0  0  0  0  0  0
   44.9108   31.7290   40.6262 C   0  0  0  0  0  0  0  0  0  0  0  0
   43.9563   31.7341   39.6329 C   0  0  0  0  0  0  0  0  0  0  0  0
   44.1964   32.3750   38.7964 H   0  0  0  0  0  0  0  0  0  0  0  0
   42.8301   30.9279   39.8348 C   0  0  0  0  0  0  0  0  0  0  0  0
   42.1171   30.9680   39.0313 H   0  0  0  0  0  0  0  0  0  0  0  0
   42.7364   30.1883   40.9892 C   0  0  0  0  0  0  0  0  0  0  0  0
   43.6669   30.1656   41.9876 C   0  0  0  0  0  0  0  0  0  0  0  0
   46.2443   30.1605   44.6553 H   0  0  0  0  0  0  0  0  0  0  0  0
   45.8308   32.3285   40.5613 H   0  0  0  0  0  0  0  0  0  0  0  0
   41.8251   29.6270   40.9985 H   0  0  0  0  0  0  0  0  0  0  0  0
  1 13  1  0
  2  1  1  0
  3  2  2  0
  4  3  1  0
  5  6  1  0
  5  4  2  0
  6 11  2  0
  7  8  2  0
  7  6  1  0
  8  9  1  0
  9 10  2  0
 10 12  1  0
 11 10  1  0
 11  2  1  0
 13 17  1  0
 14 15  1  0
 14 21  1  0
 16 15  2  0
 17 18  1  0
 17 16  1  0
 18 14  2  0
 20 19  2  0
 21 20  1  0
 22 21  2  0
 22 23  1  0
 23 24  2  0
 24 19  1  0
  1 25  1  0
  1 26  1  0
  3 27  1  0
  4 28  1  0
  5 29  1  0
  7 30  1  0
  8 31  1  0
  9 32  1  0
 12 33  1  0
 13 34  1  0
 13 35  1  0
 15 36  1  0
 16 37  1  0
 19 38  1  0
 20 39  1  0
 40 41  2  0
 41 42  1  0
 42 43  2  0
 43 44  1  0
 44 45  2  0
 45 46  1  0
 46 47  1  0
 46 48  2  0
 48 49  1  0
 48 50  1  0
 50 51  2  0
 51 40  1  0
 51 44  1  0
 42 52  1  0
 45 53  1  0
 50 54  1  0
 23 40  1  0
M  ISO  8  25   8  26   8  27  14  28  14  29  14  30  14  31  14  32  14
M  ISO  8  33   3  34   8  35   8  36  14  37  14  38  14  39  14  47  16
M  ISO  1  49  16
M  END
>  <DihAtoms>  (1) 
21,22,39,40

>  <DihDeg>  (1) 
179.97066211865481

$$$$
