
 OpenBabel03242509213D

 27 29  0  0  0  0  0  0  0  0999 V2000
   39.7690   25.7600   42.9150 C   0  0  0  0  0  0  0  0  0  0  0  0
   39.6210   27.0690   43.2620 C   0  0  0  0  0  0  0  0  0  0  0  0
   40.7630   27.4400   43.9610 C   0  0  0  0  0  0  0  0  0  0  0  0
   41.5360   26.3190   43.9920 N   0  0  0  0  0  0  0  0  0  0  0  0
   40.9500   25.3470   43.3810 N   0  0  0  0  0  0  0  0  0  0  0  0
   38.7840   27.7390   43.0530 H   0  0  0  0  0  0  0  0  0  0  0  0
   40.9060   28.4550   44.3610 H   0  0  0  0  0  0  0  0  0  0  0  0
   36.5850   24.4550   41.4780 C   0  0  0  0  0  0  0  0  0  0  0  0
   37.4380   25.2600   42.2200 C   0  0  0  0  0  0  0  0  0  0  0  0
   38.8100   24.9670   42.1710 C   0  0  0  0  0  0  0  0  0  0  0  0
   39.2580   23.9200   41.4120 N   0  0  0  0  0  0  0  0  0  0  0  0
   38.3620   23.1760   40.7120 C   0  0  0  0  0  0  0  0  0  0  0  0
   37.0540   23.4440   40.7490 N   0  0  0  0  0  0  0  0  0  0  0  0
   35.5180   24.6630   41.5000 H   0  0  0  0  0  0  0  0  0  0  0  0
   37.1090   26.0780   42.8160 H   0  0  0  0  0  0  0  0  0  0  0  0
   38.6730   22.3450   40.1030 H   0  0  0  0  0  0  0  0  0  0  0  0
   42.8140   26.4260   44.6740 C   0  0  0  0  0  0  0  0  0  0  0  0
   42.8740   25.5550   45.3840 H   0  0  0  0  0  0  0  0  0  0  0  0
   43.6050   26.3060   43.9370 H   0  0  0  0  0  0  0  0  0  0  0  0
   42.9540   27.6800   45.4900 C   0  0  0  0  0  0  0  0  0  0  0  0
   42.0620   28.3050   45.4980 H   0  0  0  0  0  0  0  0  0  0  0  0
   43.8290   28.2720   45.1880 H   0  0  0  0  0  0  0  0  0  0  0  0
   43.2140   27.2090   46.9280 C   0  0  0  0  0  0  0  0  0  0  0  0
   43.0620   28.3290   47.9160 C   0  0  0  0  0  0  0  0  0  0  0  0
   44.0350   28.0070   49.0560 C   0  0  0  0  0  0  0  0  0  0  0  0
   44.7730   26.7730   48.6250 C   0  0  0  0  0  0  0  0  0  0  0  0
   44.6650   26.8320   47.1160 C   0  0  0  0  0  0  0  0  0  0  0  0
  1  2  1  0  0  0  0
  1  5  2  0  0  0  0
  2  3  2  0  0  0  0
  3  4  1  0  0  0  0
  3  7  1  0  0  0  0
  4 17  1  0  0  0  0
  5  4  1  0  0  0  0
  6  2  1  0  0  0  0
  8 14  1  0  0  0  0
  8  9  1  0  0  0  0
  9 15  1  0  0  0  0
 10  9  2  0  0  0  0
 10  1  1  0  0  0  0
 11 10  1  0  0  0  0
 12 13  1  0  0  0  0
 12 11  2  0  0  0  0
 13  8  2  0  0  0  0
 16 12  1  0  0  0  0
 17 18  1  0  0  0  0
 17 20  1  0  0  0  0
 19 17  1  0  0  0  0
 20 21  1  0  0  0  0
 20 23  1  0  0  0  0
 22 20  1  0  0  0  0
 23 27  1  0  0  0  0
 23 24  1  0  0  0  0
 24 25  1  0  0  0  0
 26 25  1  0  0  0  0
 27 26  1  0  0  0  0
M  END
>  <minimizedAffinity>
-4.579

>  <minimizedRMSD>
9.08938122

$$$$
