
 OpenBabel03242509323D

 24 26  0  0  0  0  0  0  0  0999 V2000
   37.9780   28.7650   43.3730 C   0  0  0  0  0  0  0  0  0  0  0  0
   38.6400   27.5250   43.6020 C   0  0  0  0  0  0  0  0  0  0  0  0
   38.4770   26.5500   42.6320 C   0  0  0  0  0  0  0  0  0  0  0  0
   37.7110   26.8760   41.5700 N   0  0  0  0  0  0  0  0  0  0  0  0
   37.0910   28.0140   41.3400 C   0  0  0  0  0  0  0  0  0  0  0  0
   37.2490   28.9660   42.2850 N   0  0  0  0  0  0  0  0  0  0  0  0
   38.1180   29.5180   44.1460 H   0  0  0  0  0  0  0  0  0  0  0  0
   39.2210   27.3750   44.4760 H   0  0  0  0  0  0  0  0  0  0  0  0
   36.2540   28.4430   40.2320 C   0  0  0  0  0  0  0  0  0  0  0  0
   34.9700   28.8080   40.3910 N   0  0  0  0  0  0  0  0  0  0  0  0
   34.1680   29.2080   39.4030 C   0  0  0  0  0  3  0  0  0  0  0  0
   34.5940   29.2780   38.1300 N   0  0  0  0  0  0  0  0  0  0  0  0
   35.8780   28.9290   37.8580 C   0  0  0  0  0  0  0  0  0  0  0  0
   36.3220   28.9970   36.5570 C   0  0  0  0  0  3  0  0  0  0  0  0
   37.6200   28.6510   36.2460 C   0  0  0  0  0  0  0  0  0  0  0  0
   37.8480   28.7460   35.1950 H   0  0  0  0  0  0  0  0  0  0  0  0
   38.4340   28.2380   37.3040 C   0  0  0  0  0  0  0  0  0  0  0  0
   39.4410   27.9800   36.9940 H   0  0  0  0  0  0  0  0  0  0  0  0
   37.9350   28.1900   38.5740 C   0  0  0  0  0  3  0  0  0  0  0  0
   36.6560   28.5260   38.9190 C   0  0  0  0  0  0  0  0  0  0  0  0
   39.1200   25.2260   42.7810 C   0  0  0  0  0  0  0  0  0  0  0  0
   39.9940   25.0630   41.7460 F   0  0  0  0  0  0  0  0  0  0  0  0
   39.8110   25.1250   43.9700 F   0  0  0  0  0  0  0  0  0  0  0  0
   38.1870   24.1820   42.7440 F   0  0  0  0  0  0  0  0  0  0  0  0
  1  2  1  0  0  0  0
  1  7  1  0  0  0  0
  2  8  1  0  0  0  0
  3 21  1  0  0  0  0
  3  2  2  0  0  0  0
  4  3  1  0  0  0  0
  5  4  2  0  0  0  0
  5  6  1  0  0  0  0
  6  1  2  0  0  0  0
  9 10  1  0  0  0  0
  9  5  1  0  0  0  0
 11 10  2  0  0  0  0
 12 11  1  0  0  0  0
 13 12  2  0  0  0  0
 13 20  1  0  0  0  0
 14 13  1  0  0  0  0
 15 14  2  0  0  0  0
 15 17  1  0  0  0  0
 16 15  1  0  0  0  0
 17 19  2  0  0  0  0
 18 17  1  0  0  0  0
 19 20  1  0  0  0  0
 20  9  2  0  0  0  0
 21 23  1  0  0  0  0
 22 21  1  0  0  0  0
 24 21  1  0  0  0  0
M  END
>  <minimizedAffinity>
-4.74613714

>  <minimizedRMSD>
3.1908524

$$$$
