REMARK  Name = 
REMARK  2 active torsions:
REMARK  status: ('A' for Active; 'I' for Inactive)
REMARK    1  A    between atoms: C_3  and  C_7
REMARK    2  A    between atoms: C_5  and  C_13
REMARK                            x       y       z     vdW  Elec       q    Type
REMARK                         _______ _______ _______ _____ _____    ______ ____
ROOT
ATOM      1  C   UNL     1      37.957  28.882  43.359  0.00  0.00    +0.000 A 
ATOM      2  C   UNL     1      38.090  27.465  43.312  0.00  0.00    +0.000 A 
ATOM      3  C   UNL     1      37.454  26.819  42.265  0.00  0.00    +0.000 A 
ATOM      4  N   UNL     1      36.775  27.599  41.397  0.00  0.00    +0.000 NA
ATOM      5  C   UNL     1      36.640  28.908  41.423  0.00  0.00    +0.000 A 
ATOM      6  N   UNL     1      37.260  29.539  42.444  0.00  0.00    +0.000 NA
ATOM      7  H   UNL     1      38.464  29.370  44.189  0.00  0.00    +0.000 HD
ATOM      8  H   UNL     1      38.651  26.949  44.050  0.00  0.00    +0.000 HD
ENDROOT
BRANCH   5   9
ATOM      9  C   UNL     1      35.933  29.816  40.536  0.00  0.00    +0.000 A 
ATOM     10  N   UNL     1      36.565  30.601  39.647  0.00  0.00    +0.000 NA
ATOM     11  C   UNL     1      35.954  31.448  38.815  0.00  0.00    +0.000 A 
ATOM     12  N   UNL     1      34.617  31.586  38.802  0.00  0.00    +0.000 NA
ATOM     13  C   UNL     1      33.881  30.838  39.663  0.00  0.00    +0.000 A 
ATOM     14  C   UNL     1      32.511  30.973  39.655  0.00  0.00    +0.000 A 
ATOM     15  C   UNL     1      31.735  30.228  40.517  0.00  0.00    +0.000 A 
ATOM     16  H   UNL     1      30.678  30.422  40.416  0.00  0.00    +0.000 HD
ATOM     17  C   UNL     1      32.404  29.351  41.374  0.00  0.00    +0.000 A 
ATOM     18  H   UNL     1      31.738  28.796  42.025  0.00  0.00    +0.000 HD
ATOM     19  C   UNL     1      33.766  29.262  41.334  0.00  0.00    +0.000 A 
ATOM     20  C   UNL     1      34.568  29.983  40.495  0.00  0.00    +0.000 A 
ENDBRANCH   5   9
BRANCH   3  21
ATOM     21  C   UNL     1      37.529  25.348  42.132  0.00  0.00    +0.000 C 
ATOM     22  F   UNL     1      37.638  25.050  40.805  0.00  0.00    +0.000 F 
ATOM     23  F   UNL     1      38.619  24.830  42.798  0.00  0.00    +0.000 F 
ATOM     24  F   UNL     1      36.385  24.716  42.637  0.00  0.00    +0.000 F 
ENDBRANCH   3  21
TORSDOF 2
