
 OpenBabel03242509283D

 45 49  0  0  0  0  0  0  0  0999 V2000
   36.1440   30.0700   41.1150 C   0  0  0  0  0  0  0  0  0  0  0  0
   36.7660   30.8490   40.6080 H   0  0  0  0  0  0  0  0  0  0  0  0
   35.5810   30.6180   41.8990 H   0  0  0  0  0  0  0  0  0  0  0  0
   38.6180   28.1440   42.7050 C   0  0  0  0  0  0  0  0  0  0  0  0
   37.5310   27.3230   42.8340 C   0  0  0  0  0  0  0  0  0  0  0  0
   36.4600   27.9860   42.2290 C   0  0  0  0  0  0  0  0  0  0  0  0
   36.9870   29.1440   41.7880 N   0  0  0  0  0  0  0  0  0  0  0  0
   38.2490   29.2740   42.0470 N   0  0  0  0  0  0  0  0  0  0  0  0
   37.5160   26.3370   43.3210 H   0  0  0  0  0  0  0  0  0  0  0  0
   35.4950   27.5420   42.2020 H   0  0  0  0  0  0  0  0  0  0  0  0
   41.5380   26.5360   44.3620 C   0  0  0  0  0  0  0  0  0  0  0  0
   40.2210   26.7270   43.9320 C   0  0  0  0  0  0  0  0  0  0  0  0
   39.9620   27.8920   43.1760 C   0  0  0  0  0  0  0  0  0  0  0  0
   40.9610   28.7480   42.9070 N   0  0  0  0  0  0  0  0  0  0  0  0
   42.2300   28.5050   43.3570 C   0  0  0  0  0  0  0  0  0  0  0  0
   42.5080   27.4080   44.0770 N   0  0  0  0  0  0  0  0  0  0  0  0
   41.7700   25.6550   44.9420 H   0  0  0  0  0  0  0  0  0  0  0  0
   39.4270   26.0250   44.1590 H   0  0  0  0  0  0  0  0  0  0  0  0
   43.2790   29.4660   43.0380 C   0  0  0  0  0  0  0  0  0  0  0  0
   44.6030   29.3960   43.4040 C   0  0  0  0  0  3  0  0  0  0  0  0
   45.2320   30.4830   42.9070 N   0  0  0  0  0  0  0  0  0  0  0  0
   44.3130   31.2120   42.2470 C   0  0  0  0  0  3  0  0  0  0  0  0
   43.1110   30.5960   42.3220 N   0  0  0  0  0  0  0  0  0  0  0  0
   42.2190   30.9240   41.9060 H   0  0  0  0  0  0  0  0  0  0  0  0
   35.2570   29.4930   40.0570 C   0  0  0  0  0  0  0  0  0  0  0  0
   34.7950   28.5860   40.4190 H   0  0  0  0  0  0  0  0  0  0  0  0
   34.5390   30.3720   39.9380 H   0  0  0  0  0  0  0  0  0  0  0  0
   35.8780   29.4090   38.7100 C   0  0  0  0  0  0  0  0  0  0  0  0
   37.1980   29.5360   38.3890 C   0  0  0  0  0  0  0  0  0  0  0  0
   37.7210   29.5240   37.1340 C   0  0  0  0  0  0  0  0  0  0  0  0
   36.8770   29.3710   36.0560 C   0  0  0  0  0  0  0  0  0  0  0  0
   35.5210   29.2350   36.3110 C   0  0  0  0  0  0  0  0  0  0  0  0
   34.7330   29.0900   35.1970 C   0  0  0  0  0  0  0  0  0  0  0  0
   33.3860   28.9440   35.3330 C   0  0  0  0  0  0  0  0  0  0  0  0
   32.8370   28.9450   36.6090 C   0  0  0  0  0  0  0  0  0  0  0  0
   33.6760   29.0940   37.6690 C   0  0  0  0  0  0  0  0  0  0  0  0
   35.0220   29.2490   37.6040 C   0  0  0  0  0  0  0  0  0  0  0  0
   37.8640   29.6570   39.2480 H   0  0  0  0  0  0  0  0  0  0  0  0
   38.7910   29.6350   37.0350 H   0  0  0  0  0  0  0  0  0  0  0  0
   37.3110   29.3670   35.0820 H   0  0  0  0  0  0  0  0  0  0  0  0
   35.1140   29.0810   34.1840 H   0  0  0  0  0  0  0  0  0  0  0  0
   32.7260   28.8300   34.4820 H   0  0  0  0  0  0  0  0  0  0  0  0
   31.7740   28.8280   36.7100 H   0  0  0  0  0  0  0  0  0  0  0  0
   33.0680   29.0680   38.9140 O   0  0  0  0  0  0  0  0  0  0  0  0
   32.1630   29.4660   39.1260 H   0  0  0  0  0  0  0  0  0  0  0  0
  1  7  1  0  0  0  0
  1  3  1  0  0  0  0
  2  1  1  0  0  0  0
  4  5  1  0  0  0  0
  4 13  1  0  0  0  0
  5  9  1  0  0  0  0
  6  5  2  0  0  0  0
  7  8  1  0  0  0  0
  7  6  1  0  0  0  0
  8  4  2  0  0  0  0
 10  6  1  0  0  0  0
 11 17  1  0  0  0  0
 12 18  1  0  0  0  0
 12 11  2  0  0  0  0
 13 12  1  0  0  0  0
 14 13  2  0  0  0  0
 14 15  1  0  0  0  0
 15 16  2  0  0  0  0
 16 11  1  0  0  0  0
 19 15  1  0  0  0  0
 19 20  2  0  0  0  0
 21 20  1  0  0  0  0
 22 23  1  0  0  0  0
 22 21  2  0  0  0  0
 23 19  1  0  0  0  0
 24 23  1  0  0  0  0
 25 26  1  0  0  0  0
 25  1  1  0  0  0  0
 27 25  1  0  0  0  0
 28 25  1  0  0  0  0
 29 28  1  0  0  0  0
 29 38  1  0  0  0  0
 30 29  2  0  0  0  0
 31 32  2  0  0  0  0
 31 30  1  0  0  0  0
 32 37  1  0  0  0  0
 33 34  2  0  0  0  0
 33 32  1  0  0  0  0
 34 35  1  0  0  0  0
 35 43  1  0  0  0  0
 35 36  2  0  0  0  0
 36 44  1  0  0  0  0
 37 36  1  0  0  0  0
 37 28  2  0  0  0  0
 39 30  1  0  0  0  0
 40 31  1  0  0  0  0
 41 33  1  0  0  0  0
 42 34  1  0  0  0  0
 44 45  1  0  0  0  0
M  END
>  <minimizedAffinity>
-5.81332874

>  <minimizedRMSD>
0.0568031743

$$$$
