REMARK  Name = 
REMARK  2 active torsions:
REMARK  status: ('A' for Active; 'I' for Inactive)
REMARK    1  A    between atoms: C_3  and  C_7
REMARK    2  A    between atoms: C_5  and  C_13
REMARK                            x       y       z     vdW  Elec       q    Type
REMARK                         _______ _______ _______ _____ _____    ______ ____
ROOT
ATOM      1  C   UNL     1      37.971  28.884  43.367  0.00  0.00    +0.000 A 
ATOM      2  C   UNL     1      38.097  27.462  43.320  0.00  0.00    +0.000 A 
ATOM      3  C   UNL     1      37.438  26.820  42.253  0.00  0.00    +0.000 A 
ATOM      4  N   UNL     1      36.728  27.579  41.341  0.00  0.00    +0.000 NA
ATOM      5  C   UNL     1      36.657  28.909  41.453  0.00  0.00    +0.000 A 
ATOM      6  N   UNL     1      37.265  29.553  42.446  0.00  0.00    +0.000 NA
ATOM      7  H   UNL     1      38.477  29.398  44.189  0.00  0.00    +0.000 HD
ATOM      8  H   UNL     1      38.661  26.907  44.052  0.00  0.00    +0.000 HD
ENDROOT
BRANCH   5   9
ATOM      9  C   UNL     1      35.897  29.669  40.468  0.00  0.00    +0.000 A 
ATOM     10  C   UNL     1      35.204  29.174  39.376  0.00  0.00    +0.000 A 
ATOM     11  N   UNL     1      34.636  30.174  38.709  0.00  0.00    +0.000 NA
ATOM     12  C   UNL     1      34.945  31.321  39.346  0.00  0.00    +0.000 A 
ATOM     13  N   UNL     1      35.697  30.997  40.391  0.00  0.00    +0.000 N 
ATOM     14  H   UNL     1      36.077  31.709  41.061  0.00  0.00    +0.000 HD
ENDBRANCH   5   9
BRANCH   3  15
ATOM     15  C   UNL     1      37.532  25.337  42.150  0.00  0.00    +0.000 C 
ATOM     16  F   UNL     1      37.654  25.054  40.810  0.00  0.00    +0.000 F 
ATOM     17  F   UNL     1      38.628  24.840  42.797  0.00  0.00    +0.000 F 
ATOM     18  F   UNL     1      36.374  24.716  42.635  0.00  0.00    +0.000 F 
ENDBRANCH   3  15
TORSDOF 2
