
     RDKit          3D

 47 51  0  0  0  0  0  0  0  0999 V2000
   35.2844   29.4961   40.0763 C   0  0  0  0  0  0  0  0  0  0  0  0
   35.8941   29.4302   38.7233 C   0  0  0  0  0  0  0  0  0  0  0  0
   37.2057   29.5946   38.3894 C   0  0  0  0  0  0  0  0  0  0  0  0
   37.7168   29.5978   37.1290 C   0  0  0  0  0  0  0  0  0  0  0  0
   36.8673   29.4233   36.0590 C   0  0  0  0  0  0  0  0  0  0  0  0
   35.5183   29.2487   36.3276 C   0  0  0  0  0  0  0  0  0  0  0  0
   34.7227   29.0820   35.2206 C   0  0  0  0  0  0  0  0  0  0  0  0
   33.3818   28.8995   35.3703 C   0  0  0  0  0  0  0  0  0  0  0  0
   32.8459   28.8832   36.6522 C   0  0  0  0  0  0  0  0  0  0  0  0
   33.6914   29.0545   37.7043 C   0  0  0  0  0  0  0  0  0  0  0  0
   35.0316   29.2475   37.6251 C   0  0  0  0  0  0  0  0  0  0  0  0
   33.0972   29.0108   38.9539 O   0  0  0  0  0  0  0  0  0  0  0  0
   36.1719   30.0778   41.1300 C   0  0  0  0  0  0  0  0  0  0  0  0
   38.6515   28.1577   42.7187 C   0  0  0  0  0  0  0  0  0  0  0  0
   37.5616   27.3431   42.8670 C   0  0  0  0  0  0  0  0  0  0  0  0
   36.4889   28.0053   42.2640 C   0  0  0  0  0  0  0  0  0  0  0  0
   37.0170   29.1551   41.8058 N   0  0  0  0  0  0  0  0  0  0  0  0
   38.2818   29.2820   42.0522 N   0  0  0  0  0  0  0  0  0  0  0  0
   41.5781   26.5564   44.3714 C   0  0  0  0  0  0  0  0  0  0  0  0
   40.2580   26.7491   43.9510 C   0  0  0  0  0  0  0  0  0  0  0  0
   39.9983   27.9041   43.1814 C   0  0  0  0  0  0  0  0  0  0  0  0
   41.0002   28.7503   42.8901 N   0  0  0  0  0  0  0  0  0  0  0  0
   42.2721   28.5062   43.3312 C   0  0  0  0  0  0  0  0  0  0  0  0
   42.5503   27.4176   44.0642 N   0  0  0  0  0  0  0  0  0  0  0  0
   34.8377   28.5799   40.4360 H   0  0  0  0  0  0  0  0  0  0  0  0
   34.5519   30.3652   39.9699 H   0  0  0  0  0  0  0  0  0  0  0  0
   37.8765   29.7338   39.2422 H   0  0  0  0  0  0  0  0  0  0  0  0
   38.7833   29.7394   37.0199 H   0  0  0  0  0  0  0  0  0  0  0  0
   37.2910   29.4316   35.0812 H   0  0  0  0  0  0  0  0  0  0  0  0
   35.0945   29.0850   34.2054 H   0  0  0  0  0  0  0  0  0  0  0  0
   32.7170   28.7665   34.5261 H   0  0  0  0  0  0  0  0  0  0  0  0
   31.7878   28.7364   36.7628 H   0  0  0  0  0  0  0  0  0  0  0  0
   32.1833   29.3828   39.1761 H   0  0  0  0  0  0  0  0  0  0  0  0
   36.7931   30.8554   40.6194 H   0  0  0  0  0  0  0  0  0  0  0  0
   35.6098   30.6290   41.9132 H   0  0  0  0  0  0  0  0  0  0  0  0
   37.5470   26.3632   43.3650 H   0  0  0  0  0  0  0  0  0  0  0  0
   35.5213   27.5647   42.2511 H   0  0  0  0  0  0  0  0  0  0  0  0
   41.8102   25.6824   44.9617 H   0  0  0  0  0  0  0  0  0  0  0  0
   39.4616   26.0546   44.1960 H   0  0  0  0  0  0  0  0  0  0  0  0
   43.3228   29.4563   42.9878 C   0  0  0  0  0  0  0  0  0  0  0  0
   44.4480   29.7463   43.7251 C   0  0  0  0  0  0  0  0  0  0  0  0
   45.1582   30.6781   43.0535 N   0  0  0  0  0  0  0  0  0  0  0  0
   44.4851   30.9589   41.9224 C   0  0  0  0  0  0  0  0  0  0  0  0
   43.3568   30.2139   41.8728 N   0  0  0  0  0  0  0  0  0  0  0  0
   44.7401   29.3151   44.6857 H   0  0  0  0  0  0  0  0  0  0  0  0
   44.7671   31.6721   41.1346 H   0  0  0  0  0  0  0  0  0  0  0  0
   42.6438   30.2182   41.1200 H   0  0  0  0  0  0  0  0  0  0  0  0
  1 13  1  0
  2  1  1  0
  3  2  2  0
  4  3  1  0
  5  6  1  0
  5  4  2  0
  6 11  2  0
  7  8  2  0
  7  6  1  0
  8  9  1  0
  9 10  2  0
 10 12  1  0
 11 10  1  0
 11  2  1  0
 13 17  1  0
 14 15  1  0
 14 21  1  0
 16 15  2  0
 17 18  1  0
 17 16  1  0
 18 14  2  0
 20 19  2  0
 21 20  1  0
 22 21  2  0
 22 23  1  0
 23 24  2  0
 24 19  1  0
  1 25  1  0
  1 26  1  0
  3 27  1  0
  4 28  1  0
  5 29  1  0
  7 30  1  0
  8 31  1  0
  9 32  1  0
 12 33  1  0
 13 34  1  0
 13 35  1  0
 15 36  1  0
 16 37  1  0
 19 38  1  0
 20 39  1  0
 40 41  2  0
 41 42  1  0
 42 43  2  0
 43 44  1  0
 44 40  1  0
 41 45  1  0
 43 46  1  0
 44 47  1  0
 23 40  1  0
M  ISO  8  25   8  26   8  27  14  28  14  29  14  30  14  31  14  32  14
M  ISO  7  33   3  34   8  35   8  36  14  37  14  38  14  39  14
M  END
>  <DihAtoms>  (1) 
21,22,39,40

>  <DihDeg>  (1) 
-0.00337454820164345

$$$$
