
 OpenBabel03242505413D

 39 42  0  0  1  0  0  0  0  0999 V2000
   37.5030   28.8410   41.3750 N   0  0  0  0  0  0  0  0  0  0  0  0
   37.5000   29.4050   42.7160 C   0  0  0  0  0  0  0  0  0  0  0  0
   37.5400   28.4300   43.8440 C   0  0  0  0  0  0  0  0  0  0  0  0
   38.0990   27.1420   43.4640 N   0  0  0  0  0  0  0  0  0  0  0  0
   39.0540   27.3520   42.4060 C   0  0  0  0  0  0  0  0  0  0  0  0
   38.2870   27.6630   41.1550 C   0  0  2  0  0  0  0  0  0  0  0  0
   38.3480   30.1200   42.7780 H   0  0  0  0  0  0  0  0  0  0  0  0
   36.5900   30.0260   42.8560 H   0  0  0  0  0  0  0  0  0  0  0  0
   36.5580   28.2500   44.3320 H   0  0  0  0  0  0  0  0  0  0  0  0
   38.2020   28.8240   44.6430 H   0  0  0  0  0  0  0  0  0  0  0  0
   38.6440   26.7150   44.2740 H   0  0  0  0  0  0  0  0  0  0  0  0
   39.8400   28.0700   42.6530 H   0  0  0  0  0  0  0  0  0  0  0  0
   39.5570   26.3610   42.2570 H   0  0  0  0  0  0  0  0  0  0  0  0
   37.4990   26.8340   41.1090 H   0  0  0  0  0  0  0  0  0  0  0  0
   37.1240   30.2170   39.2910 C   0  0  0  0  0  0  0  0  0  0  0  0
   36.4290   30.3520   38.1050 C   0  0  0  0  0  0  0  0  0  0  0  0
   35.4750   29.4160   37.7710 C   0  0  0  0  0  0  0  0  0  0  0  0
   35.2270   28.3590   38.6290 C   0  0  0  0  0  0  0  0  0  0  0  0
   35.9270   28.2260   39.8220 C   0  0  0  0  0  0  0  0  0  0  0  0
   36.8790   29.1600   40.1490 C   0  0  0  0  0  0  0  0  0  0  0  0
   36.6560   31.1870   37.4770 H   0  0  0  0  0  0  0  0  0  0  0  0
   34.9760   29.5930   36.8250 H   0  0  0  0  0  0  0  0  0  0  0  0
   34.4660   27.6730   38.2930 H   0  0  0  0  0  0  0  0  0  0  0  0
   35.6300   27.3590   40.3870 H   0  0  0  0  0  0  0  0  0  0  0  0
   40.2810   32.0470   39.4450 C   0  0  0  0  0  0  0  0  0  0  0  0
   40.0150   33.1040   40.3250 C   0  0  0  0  0  0  0  0  0  0  0  0
   38.7310   33.1730   40.8600 C   0  0  0  0  0  0  0  0  0  0  0  0
   37.8550   32.2240   40.4900 N   0  0  0  0  0  0  0  0  0  0  0  0
   38.1210   31.2120   39.6430 C   0  0  0  0  0  0  0  0  0  0  0  0
   39.3320   31.1770   39.1610 N   0  0  0  0  0  0  0  0  0  0  0  0
   41.2890   31.9830   39.0190 H   0  0  0  0  0  0  0  0  0  0  0  0
   40.7760   33.8260   40.5710 H   0  0  0  0  0  0  0  0  0  0  0  0
   38.4820   33.9620   41.5350 H   0  0  0  0  0  0  0  0  0  0  0  0
   39.0890   27.4950   39.9880 C   0  0  0  0  0  0  0  0  0  0  0  0
   40.2340   28.0280   39.4420 C   0  0  0  0  0  0  0  0  0  0  0  0
   40.6000   27.4760   38.2700 N   0  0  0  0  0  0  0  0  0  0  0  0
   39.6570   26.5230   38.0100 C   0  0  0  0  0  0  0  0  0  0  0  0
   38.7880   26.5590   39.0290 N   0  0  0  0  0  0  0  0  0  0  0  0
   37.9630   25.8870   39.0260 H   0  0  0  0  0  0  0  0  0  0  0  0
  1  2  1  0  0  0  0
  2  7  1  0  0  0  0
  2  8  1  0  0  0  0
  2  3  1  0  0  0  0
  3  9  1  0  0  0  0
  3 10  1  0  0  0  0
  4  3  1  0  0  0  0
  4 11  1  0  0  0  0
  5 12  1  0  0  0  0
  5  4  1  0  0  0  0
  6 14  1  6  0  0  0
  6  1  1  0  0  0  0
  6  5  1  0  0  0  0
 13  5  1  0  0  0  0
 15 29  1  0  0  0  0
 15 20  1  0  0  0  0
 16 15  2  0  0  0  0
 17 16  1  0  0  0  0
 17 18  2  0  0  0  0
 18 19  1  0  0  0  0
 19 20  2  0  0  0  0
 19 24  1  0  0  0  0
 20  1  1  0  0  0  0
 21 16  1  0  0  0  0
 22 17  1  0  0  0  0
 23 18  1  0  0  0  0
 25 26  1  0  0  0  0
 26 32  1  0  0  0  0
 26 27  2  0  0  0  0
 27 33  1  0  0  0  0
 28 27  1  0  0  0  0
 29 28  2  0  0  0  0
 30 25  2  0  0  0  0
 30 29  1  0  0  0  0
 31 25  1  0  0  0  0
 34  6  1  0  0  0  0
 35 34  2  0  0  0  0
 36 35  1  0  0  0  0
 37 36  2  0  0  0  0
 37 38  1  0  0  0  0
 38 34  1  0  0  0  0
 39 38  1  0  0  0  0
M  END
>  <minimizedAffinity>
-4.80229282

>  <minimizedRMSD>
5.0113101

$$$$
