
 OpenBabel03242509323D

 18 19  0  0  0  0  0  0  0  0999 V2000
   39.8380   27.3940   43.5180 C   0  0  0  0  0  0  0  0  0  0  0  0
   39.3220   26.0970   43.2160 C   0  0  0  0  0  0  0  0  0  0  0  0
   38.2090   26.0620   42.3530 C   0  0  0  0  0  0  0  0  0  0  0  0
   37.6950   27.2480   41.8640 N   0  0  0  0  0  0  0  0  0  0  0  0
   38.2350   28.4260   42.1940 C   0  0  0  0  0  0  0  0  0  0  0  0
   39.2860   28.5010   43.0060 N   0  0  0  0  0  0  0  0  0  0  0  0
   40.7030   27.4380   44.1870 H   0  0  0  0  0  0  0  0  0  0  0  0
   39.7530   25.1940   43.6190 H   0  0  0  0  0  0  0  0  0  0  0  0
   37.6590   29.6520   41.6540 C   0  0  0  0  0  0  0  0  0  0  0  0
   38.3380   30.7660   41.1900 C   0  0  0  0  0  3  0  0  0  0  0  0
   37.4710   31.6850   40.7760 N   0  0  0  0  0  0  0  0  0  0  0  0
   36.2300   31.1910   40.9590 C   0  0  0  0  0  3  0  0  0  0  0  0
   36.3660   29.9790   41.4830 N   0  0  0  0  0  0  0  0  0  0  0  0
   35.5480   29.3700   41.7270 H   0  0  0  0  0  0  0  0  0  0  0  0
   37.6250   24.7380   42.0010 C   0  0  0  0  0  0  0  0  0  0  0  0
   37.4620   24.7430   40.6360 F   0  0  0  0  0  0  0  0  0  0  0  0
   38.4510   23.7010   42.3320 F   0  0  0  0  0  0  0  0  0  0  0  0
   36.3730   24.5550   42.6000 F   0  0  0  0  0  0  0  0  0  0  0  0
  1  7  1  0  0  0  0
  2  1  1  0  0  0  0
  2  8  1  0  0  0  0
  3  2  2  0  0  0  0
  4  5  2  0  0  0  0
  4  3  1  0  0  0  0
  5  6  1  0  0  0  0
  6  1  2  0  0  0  0
  9  5  1  0  0  0  0
 10  9  2  0  0  0  0
 11 12  2  0  0  0  0
 11 10  1  0  0  0  0
 12 13  1  0  0  0  0
 13  9  1  0  0  0  0
 13 14  1  0  0  0  0
 15 17  1  0  0  0  0
 15  3  1  0  0  0  0
 15 18  1  0  0  0  0
 16 15  1  0  0  0  0
M  END
>  <minimizedAffinity>
-4.35715389

>  <minimizedRMSD>
1.93637168

$$$$
