
 OpenBabel03242509313D

 18 19  0  0  0  0  0  0  0  0999 V2000
   37.8440   28.7000   43.5280 C   0  0  0  0  0  0  0  0  0  0  0  0
   38.3330   27.3670   43.6850 C   0  0  0  0  0  0  0  0  0  0  0  0
   38.3720   26.5840   42.5150 C   0  0  0  0  0  0  0  0  0  0  0  0
   37.9490   27.1330   41.3180 N   0  0  0  0  0  0  0  0  0  0  0  0
   37.5040   28.3910   41.2520 C   0  0  0  0  0  0  0  0  0  0  0  0
   37.4510   29.1640   42.3350 N   0  0  0  0  0  0  0  0  0  0  0  0
   37.8070   29.3220   44.4270 H   0  0  0  0  0  0  0  0  0  0  0  0
   38.6540   26.9770   44.6370 H   0  0  0  0  0  0  0  0  0  0  0  0
   37.0680   28.9280   39.9690 C   0  0  0  0  0  0  0  0  0  0  0  0
   36.6140   28.2180   38.8710 C   0  0  0  0  0  3  0  0  0  0  0  0
   36.3090   29.0550   37.8840 N   0  0  0  0  0  0  0  0  0  0  0  0
   36.5550   30.3090   38.3180 C   0  0  0  0  0  3  0  0  0  0  0  0
   37.0070   30.2100   39.5620 N   0  0  0  0  0  0  0  0  0  0  0  0
   37.2770   31.0430   40.1360 H   0  0  0  0  0  0  0  0  0  0  0  0
   38.8720   25.1840   42.6140 C   0  0  0  0  0  0  0  0  0  0  0  0
   39.6580   24.9790   41.5040 F   0  0  0  0  0  0  0  0  0  0  0  0
   39.6380   24.9840   43.7280 F   0  0  0  0  0  0  0  0  0  0  0  0
   37.8180   24.2620   42.5920 F   0  0  0  0  0  0  0  0  0  0  0  0
  1  2  1  0  0  0  0
  1  7  1  0  0  0  0
  2  8  1  0  0  0  0
  3 15  1  0  0  0  0
  3  2  2  0  0  0  0
  4  3  1  0  0  0  0
  5  4  2  0  0  0  0
  5  6  1  0  0  0  0
  6  1  2  0  0  0  0
  9  5  1  0  0  0  0
 10  9  2  0  0  0  0
 11 12  2  0  0  0  0
 11 10  1  0  0  0  0
 12 13  1  0  0  0  0
 13  9  1  0  0  0  0
 13 14  1  0  0  0  0
 15 17  1  0  0  0  0
 16 15  1  0  0  0  0
 18 15  1  0  0  0  0
M  END
>  <minimizedAffinity>
-3.82641554

>  <minimizedRMSD>
1.48094201

$$$$
