
 OpenBabel03242509273D

 45 49  0  0  0  0  0  0  0  0999 V2000
   36.1280   30.0710   41.1060 C   0  0  0  0  0  0  0  0  0  0  0  0
   36.7480   30.8550   40.6050 H   0  0  0  0  0  0  0  0  0  0  0  0
   35.5620   30.6130   41.8920 H   0  0  0  0  0  0  0  0  0  0  0  0
   38.6050   28.1520   42.6990 C   0  0  0  0  0  0  0  0  0  0  0  0
   37.5270   27.3160   42.8030 C   0  0  0  0  0  0  0  0  0  0  0  0
   36.4560   27.9750   42.1940 C   0  0  0  0  0  0  0  0  0  0  0  0
   36.9740   29.1450   41.7770 N   0  0  0  0  0  0  0  0  0  0  0  0
   38.2310   29.2860   42.0530 N   0  0  0  0  0  0  0  0  0  0  0  0
   37.5180   26.3230   43.2750 H   0  0  0  0  0  0  0  0  0  0  0  0
   35.4960   27.5200   42.1490 H   0  0  0  0  0  0  0  0  0  0  0  0
   41.5350   26.5300   44.3270 C   0  0  0  0  0  0  0  0  0  0  0  0
   40.2220   26.7120   43.8820 C   0  0  0  0  0  0  0  0  0  0  0  0
   39.9460   27.9080   43.1830 C   0  0  0  0  0  0  0  0  0  0  0  0
   40.9280   28.8010   42.9800 N   0  0  0  0  0  0  0  0  0  0  0  0
   42.1940   28.5670   43.4420 C   0  0  0  0  0  0  0  0  0  0  0  0
   42.4870   27.4400   44.1080 N   0  0  0  0  0  0  0  0  0  0  0  0
   41.7780   25.6260   44.8650 H   0  0  0  0  0  0  0  0  0  0  0  0
   39.4420   25.9790   44.0550 H   0  0  0  0  0  0  0  0  0  0  0  0
   43.2240   29.5690   43.1950 C   0  0  0  0  0  0  0  0  0  0  0  0
   43.0270   30.8920   42.8690 C   0  0  0  0  0  3  0  0  0  0  0  0
   44.2390   31.4710   42.7260 N   0  0  0  0  0  0  0  0  0  0  0  0
   45.1670   30.5240   42.9580 C   0  0  0  0  0  3  0  0  0  0  0  0
   44.5540   29.3530   43.2480 N   0  0  0  0  0  0  0  0  0  0  0  0
   45.0130   28.4510   43.4690 H   0  0  0  0  0  0  0  0  0  0  0  0
   35.2460   29.4960   40.0440 C   0  0  0  0  0  0  0  0  0  0  0  0
   34.7820   28.5890   40.4030 H   0  0  0  0  0  0  0  0  0  0  0  0
   34.5280   30.3750   39.9230 H   0  0  0  0  0  0  0  0  0  0  0  0
   35.8730   29.4130   38.6990 C   0  0  0  0  0  0  0  0  0  0  0  0
   37.1930   29.5450   38.3840 C   0  0  0  0  0  0  0  0  0  0  0  0
   37.7220   29.5340   37.1310 C   0  0  0  0  0  0  0  0  0  0  0  0
   36.8830   29.3790   36.0490 C   0  0  0  0  0  0  0  0  0  0  0  0
   35.5260   29.2390   36.3000 C   0  0  0  0  0  0  0  0  0  0  0  0
   34.7430   29.0910   35.1820 C   0  0  0  0  0  0  0  0  0  0  0  0
   33.3960   28.9420   35.3120 C   0  0  0  0  0  0  0  0  0  0  0  0
   32.8410   28.9410   36.5860 C   0  0  0  0  0  0  0  0  0  0  0  0
   33.6760   29.0930   37.6500 C   0  0  0  0  0  0  0  0  0  0  0  0
   35.0220   29.2510   37.5900 C   0  0  0  0  0  0  0  0  0  0  0  0
   37.8560   29.6680   39.2460 H   0  0  0  0  0  0  0  0  0  0  0  0
   38.7920   29.6480   37.0370 H   0  0  0  0  0  0  0  0  0  0  0  0
   37.3200   29.3760   35.0770 H   0  0  0  0  0  0  0  0  0  0  0  0
   35.1280   29.0840   34.1710 H   0  0  0  0  0  0  0  0  0  0  0  0
   32.7390   28.8260   34.4590 H   0  0  0  0  0  0  0  0  0  0  0  0
   31.7790   28.8210   36.6830 H   0  0  0  0  0  0  0  0  0  0  0  0
   33.0630   29.0650   38.8920 O   0  0  0  0  0  0  0  0  0  0  0  0
   32.1560   29.4600   39.1000 H   0  0  0  0  0  0  0  0  0  0  0  0
  1  7  1  0  0  0  0
  1  3  1  0  0  0  0
  2  1  1  0  0  0  0
  4  5  1  0  0  0  0
  4 13  1  0  0  0  0
  5  9  1  0  0  0  0
  6  5  2  0  0  0  0
  7  8  1  0  0  0  0
  7  6  1  0  0  0  0
  8  4  2  0  0  0  0
 10  6  1  0  0  0  0
 11 17  1  0  0  0  0
 12 18  1  0  0  0  0
 12 11  2  0  0  0  0
 13 12  1  0  0  0  0
 14 13  2  0  0  0  0
 14 15  1  0  0  0  0
 15 16  2  0  0  0  0
 16 11  1  0  0  0  0
 19 23  1  0  0  0  0
 19 15  1  0  0  0  0
 20 19  2  0  0  0  0
 21 20  1  0  0  0  0
 21 22  2  0  0  0  0
 22 23  1  0  0  0  0
 23 24  1  0  0  0  0
 25 26  1  0  0  0  0
 25  1  1  0  0  0  0
 27 25  1  0  0  0  0
 28 25  1  0  0  0  0
 29 28  1  0  0  0  0
 29 38  1  0  0  0  0
 30 29  2  0  0  0  0
 31 32  2  0  0  0  0
 31 30  1  0  0  0  0
 32 37  1  0  0  0  0
 33 34  2  0  0  0  0
 33 32  1  0  0  0  0
 34 35  1  0  0  0  0
 35 43  1  0  0  0  0
 35 36  2  0  0  0  0
 36 44  1  0  0  0  0
 37 36  1  0  0  0  0
 37 28  2  0  0  0  0
 39 30  1  0  0  0  0
 40 31  1  0  0  0  0
 41 33  1  0  0  0  0
 42 34  1  0  0  0  0
 44 45  1  0  0  0  0
M  END
>  <minimizedAffinity>
-5.85203314

>  <minimizedRMSD>
0.162263572

$$$$
