
 OpenBabel03242508503D

 44 47  0  0  1  0  0  0  0  0999 V2000
   39.6750   27.4110   41.9220 C   0  0  2  0  0  0  0  0  0  0  0  0
   40.6430   27.8400   42.8810 C   0  0  0  0  0  0  0  0  0  0  0  0
   40.4800   26.8840   44.0710 C   0  0  0  0  0  0  0  0  0  0  0  0
   39.7980   25.6490   43.5010 C   0  0  0  0  0  0  0  0  0  0  0  0
   39.7560   25.8350   42.0250 C   0  0  1  0  0  0  0  0  0  0  0  0
   38.6680   27.6260   42.2290 H   0  0  0  0  0  0  0  0  0  0  0  0
   40.6060   28.8870   43.2050 H   0  0  0  0  0  0  0  0  0  0  0  0
   41.6920   27.6590   42.5280 H   0  0  0  0  0  0  0  0  0  0  0  0
   39.8330   27.4350   44.7930 H   0  0  0  0  0  0  0  0  0  0  0  0
   41.4420   26.6210   44.5220 H   0  0  0  0  0  0  0  0  0  0  0  0
   38.8090   25.6000   43.9720 H   0  0  0  0  0  0  0  0  0  0  0  0
   40.3290   24.7130   43.8100 H   0  0  0  0  0  0  0  0  0  0  0  0
   40.6120   25.4960   41.4650 H   0  0  0  0  0  0  0  0  0  0  0  0
   40.9170   27.2470   39.7080 C   0  0  0  0  0  0  0  0  0  0  0  0
   39.8800   27.8210   40.5300 C   0  0  0  0  0  0  0  0  0  0  0  0
   39.0650   28.7890   40.0210 C   0  0  0  0  0  0  0  0  0  0  0  0
   39.2930   29.1650   38.7130 N   0  0  0  0  0  0  0  0  0  0  0  0
   40.2860   28.6140   37.9280 C   0  0  0  0  0  0  0  0  0  0  0  0
   41.1100   27.6330   38.4480 N   0  0  0  0  0  0  0  0  0  0  0  0
   40.4410   29.0800   36.5850 N   0  0  0  0  0  0  0  0  0  0  0  0
   41.5330   26.4880   40.1520 H   0  0  0  0  0  0  0  0  0  0  0  0
   41.4110   28.9350   36.1810 H   0  0  0  0  0  0  0  0  0  0  0  0
   39.6180   29.5100   36.1270 H   0  0  0  0  0  0  0  0  0  0  0  0
   37.9880   29.5090   40.6480 C   0  0  0  0  0  0  0  0  0  0  0  0
   36.9850   29.0740   40.4530 H   0  0  0  0  0  0  0  0  0  0  0  0
   38.0250   29.4570   41.7870 H   0  0  0  0  0  0  0  0  0  0  0  0
   37.9010   30.9590   40.3490 C   0  0  0  0  0  0  0  0  0  0  0  0
   38.8820   31.6530   41.0780 C   0  0  0  0  0  0  0  0  0  0  0  0
   39.6050   31.2540   41.7670 H   0  0  0  0  0  0  0  0  0  0  0  0
   39.0080   33.0380   40.9570 C   0  0  0  0  0  0  0  0  0  0  0  0
   38.1910   33.7770   40.1310 C   0  0  0  0  0  0  0  0  0  0  0  0
   38.2210   34.8350   39.9830 H   0  0  0  0  0  0  0  0  0  0  0  0
   37.2100   33.0920   39.4000 C   0  0  0  0  0  0  0  0  0  0  0  0
   36.4930   33.5190   38.7130 H   0  0  0  0  0  0  0  0  0  0  0  0
   37.1070   31.7300   39.5370 C   0  0  0  0  0  0  0  0  0  0  0  0
   38.4800   25.1680   41.6380 C   0  0  0  0  0  0  0  0  0  0  0  0
   37.4250   25.0870   42.5130 N   0  0  0  0  0  0  0  0  0  0  0  0
   36.4520   24.4580   41.8890 O   0  0  0  0  0  0  0  0  0  0  0  0
   36.8670   24.1580   40.6840 C   0  0  0  0  0  0  0  0  0  0  0  0
   38.1220   24.5850   40.4980 N   0  0  0  0  0  0  0  0  0  0  0  0
   35.9750   23.4300   39.7170 C   0  0  0  0  0  0  0  0  0  0  0  0
   34.7330   23.2810   40.2760 F   0  0  0  0  0  0  0  0  0  0  0  0
   35.8600   24.1330   38.5380 F   0  0  0  0  0  0  0  0  0  0  0  0
   36.4790   22.1650   39.4600 F   0  0  0  0  0  0  0  0  0  0  0  0
  1  5  1  0  0  0  0
  1  6  1  1  0  0  0
  1  2  1  0  0  0  0
  2  7  1  0  0  0  0
  2  3  1  0  0  0  0
  3 10  1  0  0  0  0
  3  9  1  0  0  0  0
  4 12  1  0  0  0  0
  4 11  1  0  0  0  0
  4  3  1  0  0  0  0
  5 13  1  6  0  0  0
  5  4  1  0  0  0  0
  8  2  1  0  0  0  0
 14 21  1  0  0  0  0
 14 15  1  0  0  0  0
 15  1  1  0  0  0  0
 16 15  2  0  0  0  0
 16 24  1  0  0  0  0
 17 16  1  0  0  0  0
 18 19  1  0  0  0  0
 18 17  2  0  0  0  0
 19 14  2  0  0  0  0
 20 18  1  0  0  0  0
 22 20  1  0  0  0  0
 23 20  1  0  0  0  0
 24 26  1  0  0  0  0
 25 24  1  0  0  0  0
 27 24  1  0  0  0  0
 27 28  1  0  0  0  0
 28 29  1  0  0  0  0
 30 28  2  0  0  0  0
 31 30  1  0  0  0  0
 32 31  1  0  0  0  0
 33 35  1  0  0  0  0
 33 31  2  0  0  0  0
 34 33  1  0  0  0  0
 35 27  2  0  0  0  0
 36  5  1  0  0  0  0
 36 37  2  0  0  0  0
 38 37  1  0  0  0  0
 39 38  1  0  0  0  0
 40 39  2  0  0  0  0
 40 36  1  0  0  0  0
 41 42  1  0  0  0  0
 41 39  1  0  0  0  0
 43 41  1  0  0  0  0
 44 41  1  0  0  0  0
M  END
>  <minimizedAffinity>
-5.60794449

>  <minimizedRMSD>
4.36940002

$$$$
