
 OpenBabel03242509313D

 18 19  0  0  0  0  0  0  0  0999 V2000
   37.6870   28.7230   43.6400 C   0  0  0  0  0  0  0  0  0  0  0  0
   38.2050   27.3950   43.7300 C   0  0  0  0  0  0  0  0  0  0  0  0
   38.2250   26.6570   42.5300 C   0  0  0  0  0  0  0  0  0  0  0  0
   37.7550   27.2420   41.3690 N   0  0  0  0  0  0  0  0  0  0  0  0
   37.2850   28.4940   41.3640 C   0  0  0  0  0  0  0  0  0  0  0  0
   37.2490   29.2230   42.4770 N   0  0  0  0  0  0  0  0  0  0  0  0
   37.6660   29.3090   44.5620 H   0  0  0  0  0  0  0  0  0  0  0  0
   38.5630   26.9760   44.6570 H   0  0  0  0  0  0  0  0  0  0  0  0
   36.8000   29.0700   40.1160 C   0  0  0  0  0  0  0  0  0  0  0  0
   35.7310   28.6380   39.3490 C   0  0  0  0  0  3  0  0  0  0  0  0
   35.5970   29.4160   38.2810 N   0  0  0  0  0  0  0  0  0  0  0  0
   36.5620   30.3560   38.3330 C   0  0  0  0  0  3  0  0  0  0  0  0
   37.2670   30.1310   39.4330 N   0  0  0  0  0  0  0  0  0  0  0  0
   38.0850   30.7230   39.7160 H   0  0  0  0  0  0  0  0  0  0  0  0
   38.7540   25.2650   42.5610 C   0  0  0  0  0  0  0  0  0  0  0  0
   39.4790   25.1070   41.4030 F   0  0  0  0  0  0  0  0  0  0  0  0
   39.5850   25.0490   43.6230 F   0  0  0  0  0  0  0  0  0  0  0  0
   37.7160   24.3240   42.5710 F   0  0  0  0  0  0  0  0  0  0  0  0
  1  2  1  0  0  0  0
  1  7  1  0  0  0  0
  2  8  1  0  0  0  0
  3 15  1  0  0  0  0
  3  2  2  0  0  0  0
  4  3  1  0  0  0  0
  5  4  2  0  0  0  0
  5  6  1  0  0  0  0
  6  1  2  0  0  0  0
  9  5  1  0  0  0  0
 10  9  2  0  0  0  0
 11 12  2  0  0  0  0
 11 10  1  0  0  0  0
 12 13  1  0  0  0  0
 13 14  1  0  0  0  0
 13  9  1  0  0  0  0
 15 18  1  0  0  0  0
 15 17  1  0  0  0  0
 16 15  1  0  0  0  0
M  END
>  <minimizedAffinity>
-3.90042949

>  <minimizedRMSD>
1.23667157

$$$$
