
     RDKit          3D

 20 21  0  0  0  0  0  0  0  0999 V2000
   37.9708   28.8836   43.3669 C   0  0  0  0  0  0  0  0  0  0  0  0
   38.0968   27.4621   43.3197 C   0  0  0  0  0  0  0  0  0  0  0  0
   37.4379   26.8202   42.2534 C   0  0  0  0  0  0  0  0  0  0  0  0
   36.7284   27.5795   41.3412 N   0  0  0  0  0  0  0  0  0  0  0  0
   36.6573   28.9092   41.4535 C   0  0  0  0  0  0  0  0  0  0  0  0
   37.2653   29.5531   42.4459 N   0  0  0  0  0  0  0  0  0  0  0  0
   37.5325   25.3375   42.1503 C   0  0  0  0  0  0  0  0  0  0  0  0
   37.6545   25.0537   40.8097 F   0  0  0  0  0  0  0  0  0  0  0  0
   38.6281   24.8397   42.7974 F   0  0  0  0  0  0  0  0  0  0  0  0
   36.3744   24.7163   42.6350 F   0  0  0  0  0  0  0  0  0  0  0  0
   38.4767   29.3980   44.1892 H   0  0  0  0  0  0  0  0  0  0  0  0
   38.6606   26.9069   44.0524 H   0  0  0  0  0  0  0  0  0  0  0  0
   35.8973   29.6691   40.4675 C   0  0  0  0  0  0  0  0  0  0  0  0
   34.5205   29.7690   40.3610 C   0  0  0  0  0  0  0  0  0  0  0  0
   34.2013   30.5523   39.3364 N   0  0  0  0  0  0  0  0  0  0  0  0
   35.3489   30.9708   38.7653 C   0  0  0  0  0  0  0  0  0  0  0  0
   36.3466   30.4328   39.4550 N   0  0  0  0  0  0  0  0  0  0  0  0
   33.8473   29.2567   41.0469 H   0  0  0  0  0  0  0  0  0  0  0  0
   35.3265   31.6245   37.9059 H   0  0  0  0  0  0  0  0  0  0  0  0
   37.3547   30.5978   39.2197 H   0  0  0  0  0  0  0  0  0  0  0  0
  2  1  2  0
  3  2  1  0
  4  5  1  0
  4  3  2  0
  5  6  2  0
  6  1  1  0
  7  3  1  0
  7 10  1  0
  7  9  1  0
  8  7  1  0
  1 11  1  0
  2 12  1  0
 13 14  2  0
 14 15  1  0
 15 16  2  0
 16 17  1  0
 17 13  1  0
 14 18  1  0
 16 19  1  0
 17 20  1  0
  5 13  1  0
M  ISO  2  11  14  12  14
M  END
>  <DihAtoms>  (1) 
3,4,12,13

>  <DihDeg>  (1) 
-179.9939352877311

$$$$
