
 OpenBabel03242509313D

 18 19  0  0  0  0  0  0  0  0999 V2000
   37.5980   28.7920   43.6160 C   0  0  0  0  0  0  0  0  0  0  0  0
   38.0450   27.4390   43.7080 C   0  0  0  0  0  0  0  0  0  0  0  0
   38.2780   26.7830   42.4830 C   0  0  0  0  0  0  0  0  0  0  0  0
   38.0670   27.4640   41.2990 N   0  0  0  0  0  0  0  0  0  0  0  0
   37.6470   28.7330   41.2950 C   0  0  0  0  0  0  0  0  0  0  0  0
   37.4150   29.3880   42.4300 N   0  0  0  0  0  0  0  0  0  0  0  0
   37.4120   29.3170   44.5580 H   0  0  0  0  0  0  0  0  0  0  0  0
   38.1970   26.9430   44.6530 H   0  0  0  0  0  0  0  0  0  0  0  0
   37.4380   29.4130   40.0230 C   0  0  0  0  0  0  0  0  0  0  0  0
   36.5470   30.4360   39.7510 C   0  0  0  0  0  3  0  0  0  0  0  0
   36.6470   30.7970   38.4760 N   0  0  0  0  0  0  0  0  0  0  0  0
   37.5910   30.0250   37.9030 C   0  0  0  0  0  3  0  0  0  0  0  0
   38.0500   29.2080   38.8410 N   0  0  0  0  0  0  0  0  0  0  0  0
   38.7990   28.4960   38.6610 H   0  0  0  0  0  0  0  0  0  0  0  0
   38.7460   25.3690   42.5140 C   0  0  0  0  0  0  0  0  0  0  0  0
   39.4770   25.1830   41.3640 F   0  0  0  0  0  0  0  0  0  0  0  0
   39.5540   25.1120   43.5850 F   0  0  0  0  0  0  0  0  0  0  0  0
   37.6680   24.4730   42.5090 F   0  0  0  0  0  0  0  0  0  0  0  0
  1  2  1  0  0  0  0
  1  7  1  0  0  0  0
  2  8  1  0  0  0  0
  3 15  1  0  0  0  0
  3  2  2  0  0  0  0
  4  3  1  0  0  0  0
  5  4  2  0  0  0  0
  5  6  1  0  0  0  0
  6  1  2  0  0  0  0
  9  5  1  0  0  0  0
 10  9  2  0  0  0  0
 11 10  1  0  0  0  0
 12 11  2  0  0  0  0
 12 13  1  0  0  0  0
 13  9  1  0  0  0  0
 14 13  1  0  0  0  0
 15 17  1  0  0  0  0
 16 15  1  0  0  0  0
 18 15  1  0  0  0  0
M  END
>  <minimizedAffinity>
-3.87298441

>  <minimizedRMSD>
1.5552541

$$$$
