
 OpenBabel03242502433D

 41 44  0  0  1  0  0  0  0  0999 V2000
   37.6560   28.0620   43.3920 C   0  0  0  0  0  0  0  0  0  0  0  0
   36.9680   28.0720   44.4680 O   0  0  0  0  0  0  0  0  0  0  0  0
   38.1060   26.7850   42.9410 N   0  0  0  0  0  0  0  0  0  0  0  0
   39.4480   26.4050   43.2480 C   0  0  0  0  0  0  0  0  0  0  0  0
   39.7470   24.9510   43.3180 C   0  0  0  0  0  0  0  0  0  0  0  0
   38.9950   24.1140   42.4520 N   0  0  0  0  0  0  0  0  0  0  0  0
   37.6160   24.4080   42.5170 C   0  0  0  0  0  0  0  0  0  0  0  0
   37.2940   25.8650   42.2580 C   0  0  2  0  0  0  0  0  0  0  0  0
   39.4120   26.6280   44.4010 H   0  0  0  0  0  0  0  0  0  0  0  0
   40.2710   27.0840   43.0540 H   0  0  0  0  0  0  0  0  0  0  0  0
   40.8320   24.8400   43.0210 H   0  0  0  0  0  0  0  0  0  0  0  0
   39.7060   24.4750   44.3140 H   0  0  0  0  0  0  0  0  0  0  0  0
   39.1570   23.1320   42.6850 H   0  0  0  0  0  0  0  0  0  0  0  0
   37.2510   24.1370   43.5520 H   0  0  0  0  0  0  0  0  0  0  0  0
   37.0440   23.8040   41.7910 H   0  0  0  0  0  0  0  0  0  0  0  0
   36.2420   25.8720   42.7250 H   0  0  0  0  0  0  0  0  0  0  0  0
   37.0150   26.0770   40.8560 C   0  0  0  0  0  0  0  0  0  0  0  0
   36.4100   27.2820   40.4200 C   0  0  0  0  0  0  0  0  0  0  0  0
   36.0930   27.6110   39.1370 C   0  0  0  0  0  0  0  0  0  0  0  0
   36.4160   26.6460   38.1810 C   0  0  0  0  0  0  0  0  0  0  0  0
   37.0130   25.4350   38.5370 C   0  0  0  0  0  0  0  0  0  0  0  0
   37.2850   25.1910   39.8740 C   0  0  0  0  0  0  0  0  0  0  0  0
   36.1940   27.9880   41.2350 H   0  0  0  0  0  0  0  0  0  0  0  0
   35.6320   28.5650   38.9770 H   0  0  0  0  0  0  0  0  0  0  0  0
   36.1140   27.0400   37.1910 H   0  0  0  0  0  0  0  0  0  0  0  0
   37.1350   24.9250   37.5930 H   0  0  0  0  0  0  0  0  0  0  0  0
   37.6880   23.8170   39.7530 C   0  0  0  0  0  0  0  0  0  0  0  0
   38.9180   23.5030   39.3290 N   0  0  0  0  0  0  0  0  0  0  0  0
   39.1100   22.2310   39.2990 O   0  0  0  0  0  0  0  0  0  0  0  0
   38.0250   21.6110   39.7000 C   0  0  0  0  0  0  0  0  0  0  0  0
   37.6520   20.6070   39.8610 H   0  0  0  0  0  0  0  0  0  0  0  0
   37.1570   22.6230   39.9750 N   0  0  0  0  0  0  0  0  0  0  0  0
   39.6090   30.8300   41.9630 C   0  0  0  0  0  0  0  0  0  0  0  0
   39.2680   29.7070   42.6920 C   0  0  0  0  0  0  0  0  0  0  0  0
   37.9860   29.2410   42.6350 C   0  0  0  0  0  0  0  0  0  0  0  0
   37.1170   29.9110   41.8630 N   0  0  0  0  0  0  0  0  0  0  0  0
   37.4580   31.0000   41.1580 C   0  0  0  0  0  0  0  0  0  0  0  0
   38.7010   31.4670   41.2010 N   0  0  0  0  0  0  0  0  0  0  0  0
   40.6010   31.2880   41.9340 H   0  0  0  0  0  0  0  0  0  0  0  0
   40.1170   29.3390   43.2460 H   0  0  0  0  0  0  0  0  0  0  0  0
   36.6360   31.4060   40.5980 H   0  0  0  0  0  0  0  0  0  0  0  0
  1  2  2  0  0  0  0
  3  4  1  0  0  0  0
  3  1  1  0  0  0  0
  4  5  1  0  0  0  0
  4  9  1  0  0  0  0
  5 12  1  0  0  0  0
  6  7  1  0  0  0  0
  6 13  1  0  0  0  0
  6  5  1  0  0  0  0
  7 14  1  0  0  0  0
  8  7  1  0  0  0  0
  8 16  1  1  0  0  0
  8  3  1  0  0  0  0
 10  4  1  0  0  0  0
 11  5  1  0  0  0  0
 15  7  1  0  0  0  0
 17  8  1  0  0  0  0
 18 17  1  0  0  0  0
 18 23  1  0  0  0  0
 19 18  2  0  0  0  0
 20 21  2  0  0  0  0
 20 19  1  0  0  0  0
 21 22  1  0  0  0  0
 22 17  2  0  0  0  0
 24 19  1  0  0  0  0
 25 20  1  0  0  0  0
 26 21  1  0  0  0  0
 27 22  1  0  0  0  0
 27 32  1  0  0  0  0
 28 27  2  0  0  0  0
 29 28  1  0  0  0  0
 29 30  1  0  0  0  0
 30 31  1  0  0  0  0
 30 32  2  0  0  0  0
 33 34  1  0  0  0  0
 34 40  1  0  0  0  0
 35 34  2  0  0  0  0
 35  1  1  0  0  0  0
 36 35  1  0  0  0  0
 37 38  1  0  0  0  0
 37 36  2  0  0  0  0
 38 33  2  0  0  0  0
 39 33  1  0  0  0  0
 41 37  1  0  0  0  0
M  END
>  <minimizedAffinity>
-5.90928698

>  <minimizedRMSD>
2.86407065

$$$$
