
 OpenBabel03242509273D

 45 49  0  0  0  0  0  0  0  0999 V2000
   35.9650   30.0050   40.9380 C   0  0  0  0  0  0  0  0  0  0  0  0
   35.3150   30.4800   41.7200 H   0  0  0  0  0  0  0  0  0  0  0  0
   36.5480   30.8350   40.4770 H   0  0  0  0  0  0  0  0  0  0  0  0
   38.4710   28.1960   42.6050 C   0  0  0  0  0  0  0  0  0  0  0  0
   37.4190   27.3240   42.7010 C   0  0  0  0  0  0  0  0  0  0  0  0
   36.3370   27.9330   42.0620 C   0  0  0  0  0  0  0  0  0  0  0  0
   36.8240   29.1160   41.6370 N   0  0  0  0  0  0  0  0  0  0  0  0
   38.0630   29.2960   41.9390 N   0  0  0  0  0  0  0  0  0  0  0  0
   37.4390   26.3500   43.1830 H   0  0  0  0  0  0  0  0  0  0  0  0
   35.3660   27.4710   41.9830 H   0  0  0  0  0  0  0  0  0  0  0  0
   41.4370   26.6750   44.2680 C   0  0  0  0  0  0  0  0  0  0  0  0
   40.1290   26.8090   43.7890 C   0  0  0  0  0  0  0  0  0  0  0  0
   39.8100   28.0000   43.1230 C   0  0  0  0  0  0  0  0  0  0  0  0
   40.7540   28.9680   42.9630 N   0  0  0  0  0  0  0  0  0  0  0  0
   42.0150   28.7750   43.4550 C   0  0  0  0  0  0  0  0  0  0  0  0
   42.3460   27.6390   44.0990 N   0  0  0  0  0  0  0  0  0  0  0  0
   41.6710   25.7660   44.7740 H   0  0  0  0  0  0  0  0  0  0  0  0
   39.3990   26.0160   43.9360 H   0  0  0  0  0  0  0  0  0  0  0  0
   42.9190   29.8930   43.2100 C   0  0  0  0  0  0  0  0  0  0  0  0
   42.3850   31.1180   43.3630 N   0  0  0  0  0  0  0  0  0  0  0  0
   43.2760   32.0260   43.1220 O   0  0  0  0  0  0  0  0  0  0  0  0
   44.3970   31.4330   42.8110 C   0  0  0  0  0  0  0  0  0  0  0  0
   45.3050   31.9640   42.5630 H   0  0  0  0  0  0  0  0  0  0  0  0
   44.2020   30.1000   42.8580 N   0  0  0  0  0  0  0  0  0  0  0  0
   35.1290   29.3900   39.8620 C   0  0  0  0  0  0  0  0  0  0  0  0
   34.7070   28.4610   40.2150 H   0  0  0  0  0  0  0  0  0  0  0  0
   34.3710   30.2320   39.7260 H   0  0  0  0  0  0  0  0  0  0  0  0
   35.7700   29.3490   38.5230 C   0  0  0  0  0  0  0  0  0  0  0  0
   37.0940   29.4840   38.2260 C   0  0  0  0  0  0  0  0  0  0  0  0
   37.6340   29.5210   36.9790 C   0  0  0  0  0  0  0  0  0  0  0  0
   36.8080   29.4160   35.8850 C   0  0  0  0  0  0  0  0  0  0  0  0
   35.4590   29.2770   36.1140 C   0  0  0  0  0  0  0  0  0  0  0  0
   34.6890   29.1830   34.9810 C   0  0  0  0  0  0  0  0  0  0  0  0
   33.3270   29.0390   35.0930 C   0  0  0  0  0  0  0  0  0  0  0  0
   32.7570   28.9900   36.3600 C   0  0  0  0  0  0  0  0  0  0  0  0
   33.5820   29.0880   37.4440 C   0  0  0  0  0  0  0  0  0  0  0  0
   34.9280   29.2380   37.4020 C   0  0  0  0  0  0  0  0  0  0  0  0
   37.7380   29.5670   39.1160 H   0  0  0  0  0  0  0  0  0  0  0  0
   38.7090   29.6320   36.9220 H   0  0  0  0  0  0  0  0  0  0  0  0
   37.2370   29.4480   34.9150 H   0  0  0  0  0  0  0  0  0  0  0  0
   35.0960   29.2150   33.9810 H   0  0  0  0  0  0  0  0  0  0  0  0
   32.7090   28.9670   34.2080 H   0  0  0  0  0  0  0  0  0  0  0  0
   31.6850   28.8740   36.4460 H   0  0  0  0  0  0  0  0  0  0  0  0
   32.9540   29.0140   38.6720 O   0  0  0  0  0  0  0  0  0  0  0  0
   32.0130   29.3520   38.8290 H   0  0  0  0  0  0  0  0  0  0  0  0
  1  7  1  0  0  0  0
  1  2  1  0  0  0  0
  3  1  1  0  0  0  0
  4  5  1  0  0  0  0
  4 13  1  0  0  0  0
  5  9  1  0  0  0  0
  6  5  2  0  0  0  0
  7  8  1  0  0  0  0
  7  6  1  0  0  0  0
  8  4  2  0  0  0  0
 10  6  1  0  0  0  0
 11 17  1  0  0  0  0
 12 18  1  0  0  0  0
 12 11  2  0  0  0  0
 13 12  1  0  0  0  0
 14 13  2  0  0  0  0
 14 15  1  0  0  0  0
 15 16  2  0  0  0  0
 16 11  1  0  0  0  0
 19 20  2  0  0  0  0
 19 15  1  0  0  0  0
 21 20  1  0  0  0  0
 22 24  2  0  0  0  0
 22 21  1  0  0  0  0
 23 22  1  0  0  0  0
 24 19  1  0  0  0  0
 25 26  1  0  0  0  0
 25  1  1  0  0  0  0
 27 25  1  0  0  0  0
 28 25  1  0  0  0  0
 29 28  1  0  0  0  0
 29 38  1  0  0  0  0
 30 29  2  0  0  0  0
 31 32  2  0  0  0  0
 31 30  1  0  0  0  0
 32 37  1  0  0  0  0
 33 34  2  0  0  0  0
 33 32  1  0  0  0  0
 34 35  1  0  0  0  0
 35 43  1  0  0  0  0
 35 36  2  0  0  0  0
 36 44  1  0  0  0  0
 37 36  1  0  0  0  0
 37 28  2  0  0  0  0
 39 30  1  0  0  0  0
 40 31  1  0  0  0  0
 41 33  1  0  0  0  0
 42 34  1  0  0  0  0
 44 45  1  0  0  0  0
M  END
>  <minimizedAffinity>
-5.96417093

>  <minimizedRMSD>
0.388999104

$$$$
