
 OpenBabel03242509273D

 45 49  0  0  0  0  0  0  0  0999 V2000
   36.1260   30.0730   41.0980 C   0  0  0  0  0  0  0  0  0  0  0  0
   35.5140   30.5660   41.8990 H   0  0  0  0  0  0  0  0  0  0  0  0
   36.7350   30.8820   40.6340 H   0  0  0  0  0  0  0  0  0  0  0  0
   38.5840   28.1360   42.6930 C   0  0  0  0  0  0  0  0  0  0  0  0
   37.4970   27.3080   42.7970 C   0  0  0  0  0  0  0  0  0  0  0  0
   36.4310   27.9710   42.1860 C   0  0  0  0  0  0  0  0  0  0  0  0
   36.9590   29.1390   41.7690 N   0  0  0  0  0  0  0  0  0  0  0  0
   38.2100   29.2620   42.0500 N   0  0  0  0  0  0  0  0  0  0  0  0
   37.4860   26.3270   43.2650 H   0  0  0  0  0  0  0  0  0  0  0  0
   35.4400   27.5510   42.1200 H   0  0  0  0  0  0  0  0  0  0  0  0
   41.5160   26.4630   44.2660 C   0  0  0  0  0  0  0  0  0  0  0  0
   40.2060   26.6590   43.8140 C   0  0  0  0  0  0  0  0  0  0  0  0
   39.9220   27.8780   43.1830 C   0  0  0  0  0  0  0  0  0  0  0  0
   40.9000   28.8130   43.0320 N   0  0  0  0  0  0  0  0  0  0  0  0
   42.1600   28.5610   43.4970 C   0  0  0  0  0  0  0  0  0  0  0  0
   42.4580   27.3970   44.1070 N   0  0  0  0  0  0  0  0  0  0  0  0
   41.7240   25.5330   44.7450 H   0  0  0  0  0  0  0  0  0  0  0  0
   39.4500   25.8890   43.9520 H   0  0  0  0  0  0  0  0  0  0  0  0
   43.1020   29.6500   43.2660 C   0  0  0  0  0  0  0  0  0  0  0  0
   43.8480   29.5480   42.1510 N   0  0  0  0  0  0  0  0  0  0  0  0
   44.6430   30.5650   42.0510 O   0  0  0  0  0  0  0  0  0  0  0  0
   44.4440   31.3470   43.0780 C   0  0  0  0  0  0  0  0  0  0  0  0
   44.9820   32.2710   43.2380 H   0  0  0  0  0  0  0  0  0  0  0  0
   43.4860   30.7990   43.8530 N   0  0  0  0  0  0  0  0  0  0  0  0
   35.2410   29.5080   40.0330 C   0  0  0  0  0  0  0  0  0  0  0  0
   34.7610   28.6120   40.3960 H   0  0  0  0  0  0  0  0  0  0  0  0
   34.5410   30.3980   39.8960 H   0  0  0  0  0  0  0  0  0  0  0  0
   35.8680   29.4150   38.6900 C   0  0  0  0  0  0  0  0  0  0  0  0
   37.1870   29.5460   38.3720 C   0  0  0  0  0  0  0  0  0  0  0  0
   37.7130   29.5340   37.1180 C   0  0  0  0  0  0  0  0  0  0  0  0
   36.8750   29.3770   36.0390 C   0  0  0  0  0  0  0  0  0  0  0  0
   35.5310   29.2380   36.2900 C   0  0  0  0  0  0  0  0  0  0  0  0
   34.7480   29.0900   35.1710 C   0  0  0  0  0  0  0  0  0  0  0  0
   33.3890   28.9420   35.3050 C   0  0  0  0  0  0  0  0  0  0  0  0
   32.8330   28.9420   36.5790 C   0  0  0  0  0  0  0  0  0  0  0  0
   33.6700   29.0930   37.6480 C   0  0  0  0  0  0  0  0  0  0  0  0
   35.0150   29.2500   37.5840 C   0  0  0  0  0  0  0  0  0  0  0  0
   37.8400   29.6720   39.2500 H   0  0  0  0  0  0  0  0  0  0  0  0
   38.7860   29.6510   37.0440 H   0  0  0  0  0  0  0  0  0  0  0  0
   37.2930   29.3700   35.0640 H   0  0  0  0  0  0  0  0  0  0  0  0
   35.1430   29.0830   34.1650 H   0  0  0  0  0  0  0  0  0  0  0  0
   32.7610   28.8280   34.4300 H   0  0  0  0  0  0  0  0  0  0  0  0
   31.7640   28.8220   36.6830 H   0  0  0  0  0  0  0  0  0  0  0  0
   33.0560   29.0660   38.8860 O   0  0  0  0  0  0  0  0  0  0  0  0
   32.1140   29.4040   39.0390 H   0  0  0  0  0  0  0  0  0  0  0  0
  1  7  1  0  0  0  0
  1  2  1  0  0  0  0
  3  1  1  0  0  0  0
  4  5  1  0  0  0  0
  4 13  1  0  0  0  0
  5  9  1  0  0  0  0
  6  5  2  0  0  0  0
  7  8  1  0  0  0  0
  7  6  1  0  0  0  0
  8  4  2  0  0  0  0
 10  6  1  0  0  0  0
 11 17  1  0  0  0  0
 12 18  1  0  0  0  0
 12 11  2  0  0  0  0
 13 12  1  0  0  0  0
 14 13  2  0  0  0  0
 14 15  1  0  0  0  0
 15 16  2  0  0  0  0
 16 11  1  0  0  0  0
 19 15  1  0  0  0  0
 19 24  1  0  0  0  0
 20 19  2  0  0  0  0
 21 20  1  0  0  0  0
 21 22  1  0  0  0  0
 22 23  1  0  0  0  0
 22 24  2  0  0  0  0
 25 26  1  0  0  0  0
 25  1  1  0  0  0  0
 27 25  1  0  0  0  0
 28 25  1  0  0  0  0
 29 28  1  0  0  0  0
 29 38  1  0  0  0  0
 30 29  2  0  0  0  0
 31 32  2  0  0  0  0
 31 30  1  0  0  0  0
 32 37  1  0  0  0  0
 33 34  2  0  0  0  0
 33 32  1  0  0  0  0
 34 35  1  0  0  0  0
 35 43  1  0  0  0  0
 35 36  2  0  0  0  0
 36 44  1  0  0  0  0
 37 36  1  0  0  0  0
 37 28  2  0  0  0  0
 39 30  1  0  0  0  0
 40 31  1  0  0  0  0
 41 33  1  0  0  0  0
 42 34  1  0  0  0  0
 44 45  1  0  0  0  0
M  END
>  <minimizedAffinity>
-5.84449959

>  <minimizedRMSD>
0.241734371

$$$$
