
     RDKit          3D

 45 49  0  0  0  0  0  0  0  0999 V2000
   35.2856   29.4938   40.0748 C   0  0  0  0  0  0  0  0  0  0  0  0
   35.8947   29.4202   38.7229 C   0  0  0  0  0  0  0  0  0  0  0  0
   37.2069   29.5794   38.3874 C   0  0  0  0  0  0  0  0  0  0  0  0
   37.7161   29.5832   37.1264 C   0  0  0  0  0  0  0  0  0  0  0  0
   36.8659   29.4153   36.0582 C   0  0  0  0  0  0  0  0  0  0  0  0
   35.5282   29.2477   36.3268 C   0  0  0  0  0  0  0  0  0  0  0  0
   34.7326   29.0907   35.2176 C   0  0  0  0  0  0  0  0  0  0  0  0
   33.3785   28.9154   35.3699 C   0  0  0  0  0  0  0  0  0  0  0  0
   32.8414   28.8975   36.6520 C   0  0  0  0  0  0  0  0  0  0  0  0
   33.6897   29.0596   37.7099 C   0  0  0  0  0  0  0  0  0  0  0  0
   35.0297   29.2437   37.6280 C   0  0  0  0  0  0  0  0  0  0  0  0
   33.0939   29.0151   38.9560 O   0  0  0  0  0  0  0  0  0  0  0  0
   36.1733   30.0739   41.1297 C   0  0  0  0  0  0  0  0  0  0  0  0
   38.6514   28.1582   42.7195 C   0  0  0  0  0  0  0  0  0  0  0  0
   37.5609   27.3418   42.8677 C   0  0  0  0  0  0  0  0  0  0  0  0
   36.4860   27.9983   42.2652 C   0  0  0  0  0  0  0  0  0  0  0  0
   37.0144   29.1499   41.8062 N   0  0  0  0  0  0  0  0  0  0  0  0
   38.2720   29.2703   42.0557 N   0  0  0  0  0  0  0  0  0  0  0  0
   41.5802   26.5561   44.3704 C   0  0  0  0  0  0  0  0  0  0  0  0
   40.2608   26.7544   43.9465 C   0  0  0  0  0  0  0  0  0  0  0  0
   39.9983   27.9011   43.1858 C   0  0  0  0  0  0  0  0  0  0  0  0
   41.0041   28.7679   42.8869 N   0  0  0  0  0  0  0  0  0  0  0  0
   42.2722   28.5179   43.3306 C   0  0  0  0  0  0  0  0  0  0  0  0
   42.5501   27.4215   44.0642 N   0  0  0  0  0  0  0  0  0  0  0  0
   34.8301   28.5868   40.4411 H   0  0  0  0  0  0  0  0  0  0  0  0
   34.5646   30.3705   39.9518 H   0  0  0  0  0  0  0  0  0  0  0  0
   37.8701   29.7132   39.2572 H   0  0  0  0  0  0  0  0  0  0  0  0
   38.7848   29.7214   37.0381 H   0  0  0  0  0  0  0  0  0  0  0  0
   37.2703   29.4214   35.0766 H   0  0  0  0  0  0  0  0  0  0  0  0
   35.1135   29.0965   34.2067 H   0  0  0  0  0  0  0  0  0  0  0  0
   32.7407   28.7933   34.5039 H   0  0  0  0  0  0  0  0  0  0  0  0
   31.7764   28.7567   36.7699 H   0  0  0  0  0  0  0  0  0  0  0  0
   32.1475   29.3335   39.1239 H   0  0  0  0  0  0  0  0  0  0  0  0
   35.5633   30.5722   41.9292 H   0  0  0  0  0  0  0  0  0  0  0  0
   36.7758   30.8809   40.6554 H   0  0  0  0  0  0  0  0  0  0  0  0
   37.5521   26.3726   43.3620 H   0  0  0  0  0  0  0  0  0  0  0  0
   35.4914   27.5849   42.2306 H   0  0  0  0  0  0  0  0  0  0  0  0
   41.7715   25.6812   44.9487 H   0  0  0  0  0  0  0  0  0  0  0  0
   39.4818   26.0397   44.2045 H   0  0  0  0  0  0  0  0  0  0  0  0
   43.2455   29.5299   42.9355 C   0  0  0  0  0  0  0  0  0  0  0  0
   44.1307   29.8870   43.8839 N   0  0  0  0  0  0  0  0  0  0  0  0
   44.9400   30.7857   43.4223 O   0  0  0  0  0  0  0  0  0  0  0  0
   44.6141   31.0378   42.1829 C   0  0  0  0  0  0  0  0  0  0  0  0
   45.1337   31.7544   41.5625 H   0  0  0  0  0  0  0  0  0  0  0  0
   43.5584   30.2667   41.8531 N   0  0  0  0  0  0  0  0  0  0  0  0
  1 13  1  0
  2  1  1  0
  3  2  2  0
  4  3  1  0
  5  6  1  0
  5  4  2  0
  6 11  2  0
  7  8  2  0
  7  6  1  0
  8  9  1  0
  9 10  2  0
 10 12  1  0
 11 10  1  0
 11  2  1  0
 13 17  1  0
 14 15  1  0
 14 21  1  0
 16 15  2  0
 17 18  1  0
 17 16  1  0
 18 14  2  0
 20 19  2  0
 21 20  1  0
 22 21  2  0
 22 23  1  0
 23 24  2  0
 24 19  1  0
  1 25  1  0
  1 26  1  0
  3 27  1  0
  4 28  1  0
  5 29  1  0
  7 30  1  0
  8 31  1  0
  9 32  1  0
 12 33  1  0
 13 34  1  0
 13 35  1  0
 15 36  1  0
 16 37  1  0
 19 38  1  0
 20 39  1  0
 40 41  2  0
 41 42  1  0
 42 43  1  0
 43 44  1  0
 43 45  2  0
 45 40  1  0
 23 40  1  0
M  ISO  8  25   8  26   8  27  14  28  14  29  14  30  14  31  14  32  14
M  ISO  8  33   3  34   8  35   8  36  14  37  14  38  14  39  14  44  14
M  END
>  <DihAtoms>  (1) 
21,22,39,40

>  <DihDeg>  (1) 
-101.67671365481951

$$$$
