
 OpenBabel03242509003D

 22 24  0  0  1  0  0  0  0  0999 V2000
   36.1910   30.7400   40.8270 C   0  0  1  0  0  0  0  0  0  0  0  0
   37.0950   31.8640   40.4420 C   0  0  0  0  0  0  0  0  0  0  0  0
   36.7240   30.8780   39.3900 C   0  0  1  0  0  0  0  0  0  0  0  0
   35.1230   30.9410   40.9590 H   0  0  0  0  0  0  0  0  0  0  0  0
   36.6740   32.8840   40.3300 H   0  0  0  0  0  0  0  0  0  0  0  0
   38.1800   31.8160   40.7340 H   0  0  0  0  0  0  0  0  0  0  0  0
   35.9680   31.1930   38.6490 H   0  0  0  0  0  0  0  0  0  0  0  0
   38.5230   28.9800   43.0890 C   0  0  0  0  0  0  0  0  0  0  0  0
   37.9350   27.6920   43.1600 C   0  0  0  0  0  0  0  0  0  0  0  0
   36.7500   27.4510   42.4210 C   0  0  0  0  0  0  0  0  0  0  0  0
   36.2310   28.4560   41.6810 N   0  0  0  0  0  0  0  0  0  0  0  0
   36.8210   29.6790   41.6360 C   0  0  0  0  0  0  0  0  0  0  0  0
   37.9510   29.9380   42.3300 N   0  0  0  0  0  0  0  0  0  0  0  0
   39.4250   29.1380   43.6620 H   0  0  0  0  0  0  0  0  0  0  0  0
   38.3400   26.8800   43.7480 H   0  0  0  0  0  0  0  0  0  0  0  0
   36.2970   26.4710   42.4710 H   0  0  0  0  0  0  0  0  0  0  0  0
   37.7270   29.8680   38.9500 C   0  0  0  0  0  0  0  0  0  0  0  0
   39.0630   30.0080   39.0210 N   0  0  0  0  0  0  0  0  0  0  0  0
   39.5690   28.9340   38.5490 O   0  0  0  0  0  0  0  0  0  0  0  0
   38.6640   28.0710   38.1610 C   0  0  0  0  0  0  0  0  0  0  0  0
   39.0890   27.1600   37.7610 H   0  0  0  0  0  0  0  0  0  0  0  0
   37.4770   28.6550   38.4110 N   0  0  0  0  0  0  0  0  0  0  0  0
  1  4  1  1  0  0  0
  1 12  1  0  0  0  0
  2  6  1  0  0  0  0
  2  1  1  0  0  0  0
  3  7  1  6  0  0  0
  3  2  1  0  0  0  0
  3  1  1  0  0  0  0
  5  2  1  0  0  0  0
  8  9  1  0  0  0  0
  8 14  1  0  0  0  0
  9 15  1  0  0  0  0
 10 16  1  0  0  0  0
 10  9  2  0  0  0  0
 11 10  1  0  0  0  0
 12 11  2  0  0  0  0
 12 13  1  0  0  0  0
 13  8  2  0  0  0  0
 17 18  2  0  0  0  0
 17  3  1  0  0  0  0
 19 18  1  0  0  0  0
 20 22  2  0  0  0  0
 20 19  1  0  0  0  0
 21 20  1  0  0  0  0
 22 17  1  0  0  0  0
M  END
>  <minimizedAffinity>
-3.84930229

>  <minimizedRMSD>
0.31306994

$$$$
