
 OpenBabel03242508153D

 45 49  0  0  1  0  0  0  0  0999 V2000
   38.9850   35.5070   40.2350 C   0  0  0  0  0  0  0  0  0  0  0  0
   40.3360   35.8530   40.3780 C   0  0  0  0  0  0  0  0  0  0  0  0
   41.2380   34.7900   40.6080 C   0  0  0  0  0  0  0  0  0  0  0  0
   40.7100   33.5840   40.6640 N   0  0  0  0  0  0  0  0  0  0  0  0
   39.4590   33.2110   40.5370 C   0  0  0  0  0  0  0  0  0  0  0  0
   38.6210   34.2290   40.3200 N   0  0  0  0  0  0  0  0  0  0  0  0
   38.3130   36.3360   40.0610 H   0  0  0  0  0  0  0  0  0  0  0  0
   40.6480   36.8760   40.3130 H   0  0  0  0  0  0  0  0  0  0  0  0
   38.7770   31.9300   40.5820 C   0  0  0  0  0  0  0  0  0  0  0  0
   38.6610   31.1840   41.7020 N   0  0  0  0  0  0  0  0  0  0  0  0
   38.0470   30.0140   41.7780 C   0  0  0  0  0  0  0  0  0  0  0  0
   37.4810   29.4750   40.7170 N   0  0  0  0  0  0  0  0  0  0  0  0
   37.5270   30.1210   39.5330 C   0  0  0  0  0  0  0  0  0  0  0  0
   36.9350   29.5640   38.4090 C   0  0  0  0  0  0  0  0  0  0  0  0
   36.9670   30.1940   37.2080 C   0  0  0  0  0  0  0  0  0  0  0  0
   37.6220   31.4470   37.1230 C   0  0  0  0  0  0  0  0  0  0  0  0
   38.1830   31.9310   38.2760 C   0  0  0  0  0  0  0  0  0  0  0  0
   38.1740   31.3380   39.4900 C   0  0  0  0  0  0  0  0  0  0  0  0
   37.9930   29.4730   42.7080 H   0  0  0  0  0  0  0  0  0  0  0  0
   36.4410   28.6050   38.5070 H   0  0  0  0  0  0  0  0  0  0  0  0
   36.5110   29.7830   36.3100 H   0  0  0  0  0  0  0  0  0  0  0  0
   37.6720   31.9850   36.1860 H   0  0  0  0  0  0  0  0  0  0  0  0
   38.6860   32.9070   38.1790 H   0  0  0  0  0  0  0  0  0  0  0  0
   42.5290   35.0130   40.7590 O   0  0  0  0  0  0  0  0  0  0  0  0
   43.2620   34.7990   41.9500 C   0  0  2  0  0  0  0  0  0  0  0  0
   42.7330   34.0600   42.5980 H   0  0  0  0  0  0  0  0  0  0  0  0
   43.1480   36.1730   42.7180 C   0  0  0  0  0  0  0  0  0  0  0  0
   43.9030   36.2100   43.5150 H   0  0  0  0  0  0  0  0  0  0  0  0
   42.1040   36.1680   43.0940 H   0  0  0  0  0  0  0  0  0  0  0  0
   43.2410   36.9900   41.9640 H   0  0  0  0  0  0  0  0  0  0  0  0
   44.6970   34.5230   41.6910 C   0  0  0  0  0  0  0  0  0  0  0  0
   45.1720   35.4780   41.3860 H   0  0  0  0  0  0  0  0  0  0  0  0
   44.8490   33.7750   40.8950 H   0  0  0  0  0  0  0  0  0  0  0  0
   45.2890   34.0840   42.9500 N   0  0  0  0  0  0  0  0  0  0  0  0
   46.4800   34.5240   43.4370 C   0  0  0  0  0  0  0  0  0  0  0  0
   46.7320   33.9230   44.6170 N   0  0  0  0  0  0  0  0  0  0  0  0
   45.6790   33.1000   44.8590 C   0  0  0  0  0  0  0  0  0  0  0  0
   44.8130   33.2170   43.8290 N   0  0  0  0  0  0  0  0  0  0  0  0
   47.1450   35.2530   42.9570 H   0  0  0  0  0  0  0  0  0  0  0  0
   45.3810   32.1960   45.9740 C   0  0  0  0  0  0  0  0  0  0  0  0
   46.2290   31.8420   46.9460 N   0  0  0  0  0  0  0  0  0  0  0  0
   45.6400   31.0340   47.7610 O   0  0  0  0  0  0  0  0  0  0  0  0
   44.4120   30.8270   47.3670 C   0  0  0  0  0  0  0  0  0  0  0  0
   43.5450   30.2430   47.7070 H   0  0  0  0  0  0  0  0  0  0  0  0
   44.2240   31.5560   46.2310 N   0  0  0  0  0  0  0  0  0  0  0  0
  1  6  2  0  0  0  0
  1  2  1  0  0  0  0
  2  3  2  0  0  0  0
  3  4  1  0  0  0  0
  3 24  1  0  0  0  0
  5  9  1  0  0  0  0
  5  4  2  0  0  0  0
  6  5  1  0  0  0  0
  7  1  1  0  0  0  0
  8  2  1  0  0  0  0
  9 10  1  0  0  0  0
 10 11  2  0  0  0  0
 11 19  1  0  0  0  0
 12 11  1  0  0  0  0
 13 12  2  0  0  0  0
 14 20  1  0  0  0  0
 14 13  1  0  0  0  0
 15 14  2  0  0  0  0
 16 15  1  0  0  0  0
 16 17  2  0  0  0  0
 17 18  1  0  0  0  0
 18 13  1  0  0  0  0
 18  9  2  0  0  0  0
 21 15  1  0  0  0  0
 22 16  1  0  0  0  0
 23 17  1  0  0  0  0
 24 25  1  0  0  0  0
 25 26  1  1  0  0  0
 25 27  1  0  0  0  0
 27 29  1  0  0  0  0
 27 28  1  0  0  0  0
 30 27  1  0  0  0  0
 31 25  1  0  0  0  0
 31 34  1  0  0  0  0
 32 31  1  0  0  0  0
 33 31  1  0  0  0  0
 34 35  1  0  0  0  0
 34 38  1  0  0  0  0
 35 36  2  0  0  0  0
 36 37  1  0  0  0  0
 37 40  1  0  0  0  0
 38 37  2  0  0  0  0
 39 35  1  0  0  0  0
 40 45  1  0  0  0  0
 40 41  2  0  0  0  0
 41 42  1  0  0  0  0
 43 44  1  0  0  0  0
 43 42  1  0  0  0  0
 45 43  2  0  0  0  0
M  END
>  <minimizedAffinity>
-6.68466759

>  <minimizedRMSD>
0.34596318

$$$$
