
 OpenBabel03242508403D

 28 30  0  0  1  0  0  0  0  0999 V2000
   38.2570   26.8640   42.8180 C   0  0  2  0  0  0  0  0  0  0  0  0
   39.3910   26.9900   43.7670 C   0  0  0  0  0  0  0  0  0  0  0  0
   40.0250   25.6210   43.7920 C   0  0  0  0  0  0  0  0  0  0  0  0
   39.4770   24.8840   42.6220 C   0  0  0  0  0  0  0  0  0  0  0  0
   38.7840   25.9440   41.7540 C   0  0  1  0  0  0  0  0  0  0  0  0
   37.4060   26.3090   43.2830 H   0  0  0  0  0  0  0  0  0  0  0  0
   39.0580   27.2710   44.8070 H   0  0  0  0  0  0  0  0  0  0  0  0
   40.1110   27.7540   43.4330 H   0  0  0  0  0  0  0  0  0  0  0  0
   39.8170   25.1010   44.7630 H   0  0  0  0  0  0  0  0  0  0  0  0
   41.1260   25.7040   43.7070 H   0  0  0  0  0  0  0  0  0  0  0  0
   40.2720   24.3650   42.0260 H   0  0  0  0  0  0  0  0  0  0  0  0
   38.7340   24.1610   43.0070 H   0  0  0  0  0  0  0  0  0  0  0  0
   39.5100   26.4010   41.0550 H   0  0  0  0  0  0  0  0  0  0  0  0
   38.5170   29.3130   42.1560 C   0  0  0  0  0  0  0  0  0  0  0  0
   37.7700   28.1220   42.2730 C   0  0  0  0  0  0  0  0  0  0  0  0
   36.4470   28.1370   41.8350 C   0  0  0  0  0  0  0  0  0  0  0  0
   35.9330   29.2990   41.3160 N   0  0  0  0  0  0  0  0  0  0  0  0
   36.6860   30.4380   41.2170 C   0  0  0  0  0  0  0  0  0  0  0  0
   37.9880   30.4250   41.6470 N   0  0  0  0  0  0  0  0  0  0  0  0
   39.5240   29.1800   42.5250 H   0  0  0  0  0  0  0  0  0  0  0  0
   35.6920   27.3740   41.8250 H   0  0  0  0  0  0  0  0  0  0  0  0
   36.2460   31.3330   40.8030 H   0  0  0  0  0  0  0  0  0  0  0  0
   37.7260   25.1430   41.0760 C   0  0  0  0  0  0  0  0  0  0  0  0
   36.8300   24.4130   41.7570 N   0  0  0  0  0  0  0  0  0  0  0  0
   36.0580   23.8310   40.8600 O   0  0  0  0  0  0  0  0  0  0  0  0
   36.4660   24.1950   39.6490 C   0  0  0  0  0  0  0  0  0  0  0  0
   36.0620   23.9070   38.6800 H   0  0  0  0  0  0  0  0  0  0  0  0
   37.5170   25.0200   39.7330 N   0  0  0  0  0  0  0  0  0  0  0  0
  1  6  1  1  0  0  0
  1  2  1  0  0  0  0
  2  3  1  0  0  0  0
  2  7  1  0  0  0  0
  3  9  1  0  0  0  0
  4 12  1  0  0  0  0
  4  3  1  0  0  0  0
  5 13  1  6  0  0  0
  5  4  1  0  0  0  0
  5  1  1  0  0  0  0
  8  2  1  0  0  0  0
 10  3  1  0  0  0  0
 11  4  1  0  0  0  0
 14 15  1  0  0  0  0
 14 20  1  0  0  0  0
 15  1  1  0  0  0  0
 16 15  2  0  0  0  0
 17 16  1  0  0  0  0
 18 17  2  0  0  0  0
 18 19  1  0  0  0  0
 19 14  2  0  0  0  0
 21 16  1  0  0  0  0
 22 18  1  0  0  0  0
 23  5  1  0  0  0  0
 23 24  2  0  0  0  0
 25 24  1  0  0  0  0
 26 28  2  0  0  0  0
 26 25  1  0  0  0  0
 27 26  1  0  0  0  0
 28 23  1  0  0  0  0
M  END
>  <minimizedAffinity>
-4.45030403

>  <minimizedRMSD>
1.33851278

$$$$
