
 OpenBabel03242509313D

 18 19  0  0  0  0  0  0  0  0999 V2000
   37.6680   28.7230   43.6400 C   0  0  0  0  0  0  0  0  0  0  0  0
   38.1790   27.4110   43.7130 C   0  0  0  0  0  0  0  0  0  0  0  0
   38.2250   26.6700   42.5170 C   0  0  0  0  0  0  0  0  0  0  0  0
   37.7730   27.2600   41.3590 N   0  0  0  0  0  0  0  0  0  0  0  0
   37.2930   28.5190   41.3400 C   0  0  0  0  0  0  0  0  0  0  0  0
   37.2480   29.2310   42.4840 N   0  0  0  0  0  0  0  0  0  0  0  0
   37.6120   29.3370   44.5400 H   0  0  0  0  0  0  0  0  0  0  0  0
   38.5220   26.9940   44.6500 H   0  0  0  0  0  0  0  0  0  0  0  0
   36.8630   28.9660   40.0170 C   0  0  0  0  0  0  0  0  0  0  0  0
   35.7240   29.5510   39.6020 N   0  0  0  0  0  0  0  0  0  0  0  0
   35.7660   29.7810   38.3240 O   0  0  0  0  0  0  0  0  0  0  0  0
   36.9320   29.3530   37.8710 C   0  0  0  0  0  0  0  0  0  0  0  0
   37.4110   29.3300   36.9000 H   0  0  0  0  0  0  0  0  0  0  0  0
   37.6200   28.8460   38.9110 N   0  0  0  0  0  0  0  0  0  0  0  0
   38.7560   25.2750   42.5570 C   0  0  0  0  0  0  0  0  0  0  0  0
   39.4620   25.1170   41.3980 F   0  0  0  0  0  0  0  0  0  0  0  0
   39.5740   25.0590   43.6160 F   0  0  0  0  0  0  0  0  0  0  0  0
   37.7120   24.3430   42.5700 F   0  0  0  0  0  0  0  0  0  0  0  0
  1  2  1  0  0  0  0
  1  7  1  0  0  0  0
  2  8  1  0  0  0  0
  3 15  1  0  0  0  0
  3  2  2  0  0  0  0
  4  3  1  0  0  0  0
  5  4  2  0  0  0  0
  5  6  1  0  0  0  0
  6  1  2  0  0  0  0
  9  5  1  0  0  0  0
 10  9  2  0  0  0  0
 11 10  1  0  0  0  0
 12 11  1  0  0  0  0
 12 14  2  0  0  0  0
 13 12  1  0  0  0  0
 14  9  1  0  0  0  0
 15 18  1  0  0  0  0
 15 17  1  0  0  0  0
 16 15  1  0  0  0  0
M  END
>  <minimizedAffinity>
-3.80307341

>  <minimizedRMSD>
1.31067693

$$$$
