
 OpenBabel03242509103D

 36 40  0  0  1  0  0  0  0  0999 V2000
   35.9180   30.4470   40.9050 C   0  0  0  0  0  0  0  0  0  0  0  0
   36.6840   29.4330   41.5130 C   0  0  0  0  0  0  0  0  0  0  0  0
   38.0700   29.5630   41.5340 C   0  0  0  0  0  0  0  0  0  0  0  0
   38.5850   30.6750   40.9570 N   0  0  0  0  0  0  0  0  0  0  0  0
   37.8470   31.6380   40.3790 C   0  0  0  0  0  0  0  0  0  0  0  0
   36.5000   31.5140   40.3570 N   0  0  0  0  0  0  0  0  0  0  0  0
   34.8500   30.2630   40.9350 H   0  0  0  0  0  0  0  0  0  0  0  0
   36.2240   28.5610   41.9620 H   0  0  0  0  0  0  0  0  0  0  0  0
   38.8670   28.5270   42.1460 C   0  0  0  0  0  0  0  0  0  0  0  0
   40.0620   28.6560   42.8140 C   0  0  0  0  0  0  0  0  0  0  0  0
   40.4750   27.4300   43.2250 N   0  0  0  0  0  0  0  0  0  0  0  0
   39.5880   26.4910   42.8480 C   0  0  0  0  0  0  0  0  0  0  0  0
   39.5210   25.1210   43.0000 C   0  0  0  0  0  0  0  0  0  0  0  0
   38.4480   24.3820   42.4870 C   0  0  0  0  0  0  0  0  0  0  0  0
   37.4710   25.0840   41.8280 C   0  0  0  0  0  0  0  0  0  0  0  0
   37.5310   26.4400   41.6720 C   0  0  0  0  0  0  0  0  0  0  0  0
   38.5880   27.1680   42.1770 C   0  0  0  0  0  0  0  0  0  0  0  0
   40.5750   29.6060   42.9740 H   0  0  0  0  0  0  0  0  0  0  0  0
   41.3690   27.2550   43.7630 H   0  0  0  0  0  0  0  0  0  0  0  0
   40.3350   24.6710   43.5310 H   0  0  0  0  0  0  0  0  0  0  0  0
   38.4870   23.3170   42.6570 H   0  0  0  0  0  0  0  0  0  0  0  0
   36.6500   24.4970   41.4380 H   0  0  0  0  0  0  0  0  0  0  0  0
   36.7360   26.9630   41.1420 H   0  0  0  0  0  0  0  0  0  0  0  0
   38.5100   32.8380   39.7750 C   0  0  1  0  0  0  0  0  0  0  0  0
   38.8290   33.9970   40.7090 C   0  0  0  0  0  0  0  0  0  0  0  0
   39.9200   33.1320   40.1710 C   0  0  2  0  0  0  0  0  0  0  0  0
   38.1900   33.0850   38.7510 H   0  0  0  0  0  0  0  0  0  0  0  0
   38.6950   34.9860   40.2440 H   0  0  0  0  0  0  0  0  0  0  0  0
   38.5290   33.9380   41.7680 H   0  0  0  0  0  0  0  0  0  0  0  0
   40.3430   32.4230   40.9320 H   0  0  0  0  0  0  0  0  0  0  0  0
   40.8760   33.6570   39.1710 C   0  0  0  0  0  0  0  0  0  0  0  0
   41.4070   34.8920   39.1260 N   0  0  0  0  0  0  0  0  0  0  0  0
   42.2130   34.9750   38.0900 O   0  0  0  0  0  0  0  0  0  0  0  0
   42.2340   33.8250   37.4390 C   0  0  0  0  0  0  0  0  0  0  0  0
   42.7820   33.5420   36.5500 H   0  0  0  0  0  0  0  0  0  0  0  0
   41.3950   32.9940   38.1170 N   0  0  0  0  0  0  0  0  0  0  0  0
  1  7  1  0  0  0  0
  1  2  1  0  0  0  0
  2  3  2  0  0  0  0
  2  8  1  0  0  0  0
  3  9  1  0  0  0  0
  4  3  1  0  0  0  0
  5  4  2  0  0  0  0
  6  5  1  0  0  0  0
  6  1  2  0  0  0  0
  9 17  1  0  0  0  0
  9 10  2  0  0  0  0
 10 18  1  0  0  0  0
 10 11  1  0  0  0  0
 11 19  1  0  0  0  0
 12 13  1  0  0  0  0
 12 11  1  0  0  0  0
 13 20  1  0  0  0  0
 14 21  1  0  0  0  0
 14 13  2  0  0  0  0
 15 14  1  0  0  0  0
 16 15  2  0  0  0  0
 16 17  1  0  0  0  0
 17 12  2  0  0  0  0
 22 15  1  0  0  0  0
 23 16  1  0  0  0  0
 24 27  1  6  0  0  0
 24 26  1  0  0  0  0
 24  5  1  0  0  0  0
 24 25  1  0  0  0  0
 25 29  1  0  0  0  0
 26 25  1  0  0  0  0
 26 30  1  1  0  0  0
 28 25  1  0  0  0  0
 31 26  1  0  0  0  0
 32 31  2  0  0  0  0
 33 32  1  0  0  0  0
 34 33  1  0  0  0  0
 34 36  2  0  0  0  0
 35 34  1  0  0  0  0
 36 31  1  0  0  0  0
M  END
>  <minimizedAffinity>
-5.98974752

>  <minimizedRMSD>
1.22293007

$$$$
