
 OpenBabel03242509323D

 18 19  0  0  0  0  0  0  0  0999 V2000
   37.6190   28.7980   43.5720 C   0  0  0  0  0  0  0  0  0  0  0  0
   37.6760   27.3910   43.5010 C   0  0  0  0  0  0  0  0  0  0  0  0
   37.4760   26.8010   42.2380 C   0  0  0  0  0  0  0  0  0  0  0  0
   37.2390   27.6200   41.1580 N   0  0  0  0  0  0  0  0  0  0  0  0
   37.1940   28.9610   41.2760 C   0  0  0  0  0  0  0  0  0  0  0  0
   37.3860   29.5290   42.4840 N   0  0  0  0  0  0  0  0  0  0  0  0
   37.7680   29.3020   44.5270 H   0  0  0  0  0  0  0  0  0  0  0  0
   37.8660   26.7930   44.3810 H   0  0  0  0  0  0  0  0  0  0  0  0
   36.9310   29.6560   40.0180 C   0  0  0  0  0  0  0  0  0  0  0  0
   37.1730   30.9230   39.6340 N   0  0  0  0  0  0  0  0  0  0  0  0
   36.7710   31.1160   38.4140 O   0  0  0  0  0  0  0  0  0  0  0  0
   36.2580   29.9830   37.9680 C   0  0  0  0  0  0  0  0  0  0  0  0
   35.8080   29.6620   37.0370 H   0  0  0  0  0  0  0  0  0  0  0  0
   36.3510   29.0710   38.9550 N   0  0  0  0  0  0  0  0  0  0  0  0
   37.5250   25.3120   42.1260 C   0  0  0  0  0  0  0  0  0  0  0  0
   37.5910   25.0460   40.7880 F   0  0  0  0  0  0  0  0  0  0  0  0
   38.6050   24.7780   42.7460 F   0  0  0  0  0  0  0  0  0  0  0  0
   36.3560   24.7350   42.6360 F   0  0  0  0  0  0  0  0  0  0  0  0
  1  7  1  0  0  0  0
  2  1  1  0  0  0  0
  2  8  1  0  0  0  0
  3  2  2  0  0  0  0
  4  5  2  0  0  0  0
  4  3  1  0  0  0  0
  5  6  1  0  0  0  0
  6  1  2  0  0  0  0
  9  5  1  0  0  0  0
 10  9  2  0  0  0  0
 11 10  1  0  0  0  0
 12 11  1  0  0  0  0
 12 14  2  0  0  0  0
 13 12  1  0  0  0  0
 14  9  1  0  0  0  0
 15  3  1  0  0  0  0
 15 18  1  0  0  0  0
 15 17  1  0  0  0  0
 16 15  1  0  0  0  0
M  END
>  <minimizedAffinity>
-4.13201761

>  <minimizedRMSD>
0.968387485

$$$$
