
 OpenBabel03242509323D

 19 20  0  0  0  0  0  0  0  0999 V2000
   37.8390   28.6190   43.5770 C   0  0  0  0  0  0  0  0  0  0  0  0
   38.3780   27.3160   43.6980 C   0  0  0  0  0  0  0  0  0  0  0  0
   38.3790   26.5090   42.5660 C   0  0  0  0  0  0  0  0  0  0  0  0
   37.8580   27.0220   41.4070 N   0  0  0  0  0  0  0  0  0  0  0  0
   37.3540   28.2590   41.3230 C   0  0  0  0  0  0  0  0  0  0  0  0
   37.3500   29.0460   42.4120 N   0  0  0  0  0  0  0  0  0  0  0  0
   37.8420   29.2440   44.4680 H   0  0  0  0  0  0  0  0  0  0  0  0
   38.7640   26.9970   44.6440 H   0  0  0  0  0  0  0  0  0  0  0  0
   36.8080   28.7650   40.0640 C   0  0  0  0  0  0  0  0  0  0  0  0
   35.9750   27.9360   39.3160 C   0  0  0  0  0  3  0  0  0  0  0  0
   35.4480   28.3890   38.1260 C   0  0  0  0  0  0  0  0  0  0  0  0
   34.8110   27.7600   37.5500 H   0  0  0  0  0  0  0  0  0  0  0  0
   35.7860   29.6380   37.7570 N   0  0  0  0  0  0  0  0  0  0  0  0
   36.5920   30.4460   38.4770 C   0  0  0  0  0  3  0  0  0  0  0  0
   37.1150   30.0130   39.6460 N   0  0  0  0  0  0  0  0  0  0  0  0
   38.9400   25.1270   42.6530 C   0  0  0  0  0  0  0  0  0  0  0  0
   39.7590   24.9780   41.5510 F   0  0  0  0  0  0  0  0  0  0  0  0
   39.7090   24.9600   43.7790 F   0  0  0  0  0  0  0  0  0  0  0  0
   37.9490   24.1610   42.6210 F   0  0  0  0  0  0  0  0  0  0  0  0
  1  2  1  0  0  0  0
  1  7  1  0  0  0  0
  2  8  1  0  0  0  0
  3 16  1  0  0  0  0
  3  2  2  0  0  0  0
  4  3  1  0  0  0  0
  5  4  2  0  0  0  0
  5  6  1  0  0  0  0
  6  1  2  0  0  0  0
  9  5  1  0  0  0  0
 10  9  2  0  0  0  0
 11 10  1  0  0  0  0
 12 11  1  0  0  0  0
 13 11  2  0  0  0  0
 13 14  1  0  0  0  0
 14 15  2  0  0  0  0
 15  9  1  0  0  0  0
 16 18  1  0  0  0  0
 17 16  1  0  0  0  0
 19 16  1  0  0  0  0
M  END
>  <minimizedAffinity>
-4.1723876

>  <minimizedRMSD>
1.48183274

$$$$
