REMARK  Name = 
REMARK  2 active torsions:
REMARK  status: ('A' for Active; 'I' for Inactive)
REMARK    1  A    between atoms: C_3  and  C_7
REMARK    2  A    between atoms: C_5  and  C_13
REMARK                            x       y       z     vdW  Elec       q    Type
REMARK                         _______ _______ _______ _____ _____    ______ ____
ROOT
ATOM      1  C   UNL     1      37.974  28.879  43.368  0.00  0.00    +0.000 A 
ATOM      2  C   UNL     1      38.080  27.469  43.302  0.00  0.00    +0.000 A 
ATOM      3  C   UNL     1      37.434  26.820  42.255  0.00  0.00    +0.000 A 
ATOM      4  N   UNL     1      36.737  27.583  41.356  0.00  0.00    +0.000 NA
ATOM      5  C   UNL     1      36.654  28.916  41.444  0.00  0.00    +0.000 A 
ATOM      6  N   UNL     1      37.275  29.551  42.452  0.00  0.00    +0.000 NA
ATOM      7  H   UNL     1      38.482  29.379  44.190  0.00  0.00    +0.000 HD
ATOM      8  H   UNL     1      38.646  26.953  44.049  0.00  0.00    +0.000 HD
ENDROOT
BRANCH   5   9
ATOM      9  C   UNL     1      35.897  29.689  40.460  0.00  0.00    +0.000 A 
ATOM     10  C   UNL     1      36.093  31.066  40.400  0.00  0.00    +0.000 A 
ATOM     11  C   UNL     1      35.392  31.819  39.481  0.00  0.00    +0.000 A 
ATOM     12  H   UNL     1      35.538  32.873  39.431  0.00  0.00    +0.000 HD
ATOM     13  N   UNL     1      34.542  31.149  38.682  0.00  0.00    +0.000 NA
ATOM     14  C   UNL     1      34.348  29.816  38.735  0.00  0.00    +0.000 A 
ATOM     15  N   UNL     1      35.029  29.067  39.632  0.00  0.00    +0.000 NA
ENDBRANCH   5   9
BRANCH   3  16
ATOM     16  C   UNL     1      37.522  25.333  42.151  0.00  0.00    +0.000 C 
ATOM     17  F   UNL     1      37.657  25.052  40.806  0.00  0.00    +0.000 F 
ATOM     18  F   UNL     1      38.629  24.842  42.800  0.00  0.00    +0.000 F 
ATOM     19  F   UNL     1      36.386  24.710  42.638  0.00  0.00    +0.000 F 
ENDBRANCH   3  16
TORSDOF 2
