
 OpenBabel03242509283D

 46 50  0  0  0  0  0  0  0  0999 V2000
   36.1090   30.0510   41.0720 C   0  0  0  0  0  0  0  0  0  0  0  0
   35.5170   30.5780   41.8640 H   0  0  0  0  0  0  0  0  0  0  0  0
   36.7030   30.8520   40.5870 H   0  0  0  0  0  0  0  0  0  0  0  0
   38.5940   28.1670   42.6860 C   0  0  0  0  0  0  0  0  0  0  0  0
   37.5170   27.3260   42.7930 C   0  0  0  0  0  0  0  0  0  0  0  0
   36.4440   27.9740   42.1740 C   0  0  0  0  0  0  0  0  0  0  0  0
   36.9600   29.1410   41.7490 N   0  0  0  0  0  0  0  0  0  0  0  0
   38.2130   29.2840   42.0320 N   0  0  0  0  0  0  0  0  0  0  0  0
   37.5710   26.3590   43.2810 H   0  0  0  0  0  0  0  0  0  0  0  0
   35.4530   27.5460   42.1030 H   0  0  0  0  0  0  0  0  0  0  0  0
   41.5330   26.5370   44.3000 C   0  0  0  0  0  0  0  0  0  0  0  0
   40.2260   26.7190   43.8340 C   0  0  0  0  0  0  0  0  0  0  0  0
   39.9320   27.9280   43.1830 C   0  0  0  0  0  0  0  0  0  0  0  0
   40.9030   28.8630   43.0270 N   0  0  0  0  0  0  0  0  0  0  0  0
   42.1630   28.6220   43.5080 C   0  0  0  0  0  0  0  0  0  0  0  0
   42.4660   27.4780   44.1300 N   0  0  0  0  0  0  0  0  0  0  0  0
   41.7200   25.5960   44.7950 H   0  0  0  0  0  0  0  0  0  0  0  0
   39.4520   25.9600   43.9650 H   0  0  0  0  0  0  0  0  0  0  0  0
   43.1660   29.6630   43.3120 C   0  0  0  0  0  0  0  0  0  0  0  0
   43.9520   29.6300   42.1780 C   0  0  0  0  0  3  0  0  0  0  0  0
   44.9290   30.5990   41.9350 C   0  0  0  0  0  0  0  0  0  0  0  0
   45.5080   30.5160   41.0310 H   0  0  0  0  0  0  0  0  0  0  0  0
   45.0610   31.5700   42.8700 N   0  0  0  0  0  0  0  0  0  0  0  0
   44.2790   31.5860   43.9770 C   0  0  0  0  0  3  0  0  0  0  0  0
   43.3470   30.6410   44.1860 N   0  0  0  0  0  0  0  0  0  0  0  0
   35.2290   29.4670   40.0150 C   0  0  0  0  0  0  0  0  0  0  0  0
   34.4990   30.3380   39.8980 H   0  0  0  0  0  0  0  0  0  0  0  0
   34.7750   28.5550   40.3770 H   0  0  0  0  0  0  0  0  0  0  0  0
   35.8390   29.3980   38.6660 C   0  0  0  0  0  0  0  0  0  0  0  0
   37.1610   29.5300   38.3440 C   0  0  0  0  0  0  0  0  0  0  0  0
   37.6800   29.5200   37.0800 C   0  0  0  0  0  0  0  0  0  0  0  0
   36.8400   29.3690   36.0100 C   0  0  0  0  0  0  0  0  0  0  0  0
   35.4920   29.2310   36.2640 C   0  0  0  0  0  0  0  0  0  0  0  0
   34.7000   29.0920   35.1520 C   0  0  0  0  0  0  0  0  0  0  0  0
   33.3410   28.9520   35.2960 C   0  0  0  0  0  0  0  0  0  0  0  0
   32.7950   28.9500   36.5620 C   0  0  0  0  0  0  0  0  0  0  0  0
   33.6390   29.0910   37.6330 C   0  0  0  0  0  0  0  0  0  0  0  0
   34.9830   29.2400   37.5610 C   0  0  0  0  0  0  0  0  0  0  0  0
   37.8200   29.6500   39.2140 H   0  0  0  0  0  0  0  0  0  0  0  0
   38.7520   29.6360   37.0020 H   0  0  0  0  0  0  0  0  0  0  0  0
   37.2550   29.3630   35.0110 H   0  0  0  0  0  0  0  0  0  0  0  0
   35.0940   29.0860   34.1410 H   0  0  0  0  0  0  0  0  0  0  0  0
   32.6860   28.8420   34.4400 H   0  0  0  0  0  0  0  0  0  0  0  0
   31.7250   28.8380   36.6790 H   0  0  0  0  0  0  0  0  0  0  0  0
   33.0300   29.0660   38.8770 O   0  0  0  0  0  0  0  0  0  0  0  0
   32.2150   29.6560   39.0000 H   0  0  0  0  0  0  0  0  0  0  0  0
  1  7  1  0  0  0  0
  1  2  1  0  0  0  0
  3  1  1  0  0  0  0
  4  5  1  0  0  0  0
  4 13  1  0  0  0  0
  5  9  1  0  0  0  0
  6  5  2  0  0  0  0
  7  8  1  0  0  0  0
  7  6  1  0  0  0  0
  8  4  2  0  0  0  0
 10  6  1  0  0  0  0
 11 17  1  0  0  0  0
 12 18  1  0  0  0  0
 12 11  2  0  0  0  0
 13 12  1  0  0  0  0
 14 13  2  0  0  0  0
 14 15  1  0  0  0  0
 15 16  2  0  0  0  0
 16 11  1  0  0  0  0
 19 15  1  0  0  0  0
 19 25  1  0  0  0  0
 20 19  2  0  0  0  0
 21 20  1  0  0  0  0
 21 23  2  0  0  0  0
 22 21  1  0  0  0  0
 23 24  1  0  0  0  0
 24 25  2  0  0  0  0
 26 28  1  0  0  0  0
 26  1  1  0  0  0  0
 27 26  1  0  0  0  0
 29 26  1  0  0  0  0
 30 29  1  0  0  0  0
 30 39  1  0  0  0  0
 31 30  2  0  0  0  0
 32 33  2  0  0  0  0
 32 31  1  0  0  0  0
 33 38  1  0  0  0  0
 34 35  2  0  0  0  0
 34 33  1  0  0  0  0
 35 36  1  0  0  0  0
 36 44  1  0  0  0  0
 36 37  2  0  0  0  0
 37 45  1  0  0  0  0
 38 37  1  0  0  0  0
 38 29  2  0  0  0  0
 40 31  1  0  0  0  0
 41 32  1  0  0  0  0
 42 34  1  0  0  0  0
 43 35  1  0  0  0  0
 45 46  1  0  0  0  0
M  END
>  <minimizedAffinity>
-5.9770546

>  <minimizedRMSD>
0.308099747

$$$$
