
 OpenBabel03242508113D

 43 47  0  0  1  0  0  0  0  0999 V2000
   38.7880   35.6470   40.0760 C   0  0  0  0  0  0  0  0  0  0  0  0
   40.0920   36.1050   40.2870 C   0  0  0  0  0  0  0  0  0  0  0  0
   41.0410   35.1320   40.6220 C   0  0  0  0  0  0  0  0  0  0  0  0
   40.6010   33.8830   40.7060 N   0  0  0  0  0  0  0  0  0  0  0  0
   39.3820   33.4190   40.5150 C   0  0  0  0  0  0  0  0  0  0  0  0
   38.5020   34.3580   40.1970 N   0  0  0  0  0  0  0  0  0  0  0  0
   38.0630   36.4140   39.8140 H   0  0  0  0  0  0  0  0  0  0  0  0
   40.4100   37.1240   40.2100 H   0  0  0  0  0  0  0  0  0  0  0  0
   38.7890   32.0880   40.5780 C   0  0  0  0  0  0  0  0  0  0  0  0
   38.7350   31.3430   41.6960 N   0  0  0  0  0  0  0  0  0  0  0  0
   38.2090   30.1390   41.7880 C   0  0  0  0  0  0  0  0  0  0  0  0
   37.6680   29.5470   40.7400 N   0  0  0  0  0  0  0  0  0  0  0  0
   37.6570   30.1860   39.5550 C   0  0  0  0  0  0  0  0  0  0  0  0
   37.0930   29.5800   38.4480 C   0  0  0  0  0  0  0  0  0  0  0  0
   37.0650   30.1930   37.2450 C   0  0  0  0  0  0  0  0  0  0  0  0
   37.6310   31.4930   37.1360 C   0  0  0  0  0  0  0  0  0  0  0  0
   38.1750   32.0330   38.2830 C   0  0  0  0  0  0  0  0  0  0  0  0
   38.2180   31.4420   39.5030 C   0  0  0  0  0  0  0  0  0  0  0  0
   38.2760   29.7240   42.7910 H   0  0  0  0  0  0  0  0  0  0  0  0
   36.6560   28.5900   38.5130 H   0  0  0  0  0  0  0  0  0  0  0  0
   36.6420   29.7860   36.3260 H   0  0  0  0  0  0  0  0  0  0  0  0
   37.6410   32.0380   36.2050 H   0  0  0  0  0  0  0  0  0  0  0  0
   38.6050   33.0390   38.1680 H   0  0  0  0  0  0  0  0  0  0  0  0
   42.3280   35.3950   40.8570 O   0  0  0  0  0  0  0  0  0  0  0  0
   42.9360   35.3660   42.1380 C   0  0  2  0  0  0  0  0  0  0  0  0
   42.4220   34.5980   42.7190 H   0  0  0  0  0  0  0  0  0  0  0  0
   42.6130   36.6980   42.8450 C   0  0  0  0  0  0  0  0  0  0  0  0
   41.7430   37.1230   42.3420 H   0  0  0  0  0  0  0  0  0  0  0  0
   42.4540   36.4940   43.9170 H   0  0  0  0  0  0  0  0  0  0  0  0
   43.4980   37.3430   42.7140 H   0  0  0  0  0  0  0  0  0  0  0  0
   44.4270   35.2250   41.9990 C   0  0  0  0  0  0  0  0  0  0  0  0
   44.9000   36.0840   42.5160 H   0  0  0  0  0  0  0  0  0  0  0  0
   44.7480   35.1320   40.9540 H   0  0  0  0  0  0  0  0  0  0  0  0
   44.8420   33.9970   42.7300 C   0  0  0  0  0  0  0  0  0  0  0  0
   44.9600   32.7120   42.2210 C   0  0  0  0  0  0  0  0  0  0  0  0
   45.3600   31.8280   43.1540 N   0  0  0  0  0  0  0  0  0  0  0  0
   45.5120   32.5230   44.2960 C   0  0  0  0  0  0  0  0  0  0  0  0
   45.8940   32.1730   45.5630 C   0  0  0  0  0  0  0  0  0  0  0  0
   45.9780   33.0820   46.5920 C   0  0  0  0  0  0  0  0  0  0  0  0
   45.6690   34.4210   46.3730 C   0  0  0  0  0  0  0  0  0  0  0  0
   45.2900   34.7360   45.0910 C   0  0  0  0  0  0  0  0  0  0  0  0
   45.1990   33.8410   44.0450 C   0  0  0  0  0  0  0  0  0  0  0  0
   45.5300   30.8180   43.0670 H   0  0  0  0  0  0  0  0  0  0  0  0
  1  6  2  0  0  0  0
  1  2  1  0  0  0  0
  2  3  2  0  0  0  0
  3  4  1  0  0  0  0
  3 24  1  0  0  0  0
  5  9  1  0  0  0  0
  5  4  2  0  0  0  0
  6  5  1  0  0  0  0
  7  1  1  0  0  0  0
  8  2  1  0  0  0  0
  9 10  1  0  0  0  0
 10 11  2  0  0  0  0
 11 19  1  0  0  0  0
 12 11  1  0  0  0  0
 13 12  2  0  0  0  0
 14 20  1  0  0  0  0
 14 13  1  0  0  0  0
 15 14  2  0  0  0  0
 16 15  1  0  0  0  0
 16 17  2  0  0  0  0
 17 18  1  0  0  0  0
 18 13  1  0  0  0  0
 18  9  2  0  0  0  0
 21 15  1  0  0  0  0
 22 16  1  0  0  0  0
 23 17  1  0  0  0  0
 24 25  1  0  0  0  0
 25 26  1  1  0  0  0
 25 27  1  0  0  0  0
 27 29  1  0  0  0  0
 28 27  1  0  0  0  0
 30 27  1  0  0  0  0
 31 25  1  0  0  0  0
 31 32  1  0  0  0  0
 31 34  1  0  0  0  0
 33 31  1  0  0  0  0
 34 42  1  0  0  0  0
 35 34  2  0  0  0  0
 35 36  1  0  0  0  0
 36 37  1  0  0  0  0
 37 38  1  0  0  0  0
 38 39  2  0  0  0  0
 40 39  1  0  0  0  0
 41 40  2  0  0  0  0
 42 37  2  0  0  0  0
 42 41  1  0  0  0  0
 43 36  1  0  0  0  0
M  END
>  <minimizedAffinity>
-6.63830757

>  <minimizedRMSD>
1.46374786

$$$$
