
 OpenBabel03242509103D

 37 41  0  0  1  0  0  0  0  0999 V2000
   36.0900   30.7400   41.0280 C   0  0  0  0  0  0  0  0  0  0  0  0
   36.7200   29.6220   41.6170 C   0  0  0  0  0  0  0  0  0  0  0  0
   38.1140   29.5660   41.6110 C   0  0  0  0  0  0  0  0  0  0  0  0
   38.7840   30.6080   41.0290 N   0  0  0  0  0  0  0  0  0  0  0  0
   38.1600   31.6610   40.4740 C   0  0  0  0  0  0  0  0  0  0  0  0
   36.8110   31.7370   40.4680 N   0  0  0  0  0  0  0  0  0  0  0  0
   34.9980   30.7540   41.0500 H   0  0  0  0  0  0  0  0  0  0  0  0
   36.1440   28.8190   42.0680 H   0  0  0  0  0  0  0  0  0  0  0  0
   38.7710   28.4220   42.2040 C   0  0  0  0  0  0  0  0  0  0  0  0
   39.9200   28.4010   42.9630 C   0  0  0  0  0  0  0  0  0  0  0  0
   40.1760   27.1090   43.3130 N   0  0  0  0  0  0  0  0  0  0  0  0
   39.2410   26.2960   42.8130 C   0  0  0  0  0  0  0  0  0  0  0  0
   39.0360   24.9140   42.8690 C   0  0  0  0  0  0  0  0  0  0  0  0
   37.9400   24.3240   42.2290 C   0  0  0  0  0  0  0  0  0  0  0  0
   37.0850   25.1600   41.5480 C   0  0  0  0  0  0  0  0  0  0  0  0
   37.2850   26.5010   41.4940 C   0  0  0  0  0  0  0  0  0  0  0  0
   38.3610   27.1060   42.1190 C   0  0  0  0  0  0  0  0  0  0  0  0
   40.5390   29.2450   43.2520 H   0  0  0  0  0  0  0  0  0  0  0  0
   40.9610   26.7220   43.8850 H   0  0  0  0  0  0  0  0  0  0  0  0
   39.7210   24.2740   43.4110 H   0  0  0  0  0  0  0  0  0  0  0  0
   37.7640   23.2530   42.2610 H   0  0  0  0  0  0  0  0  0  0  0  0
   36.2400   24.6810   41.0560 H   0  0  0  0  0  0  0  0  0  0  0  0
   36.5790   27.0840   40.9460 H   0  0  0  0  0  0  0  0  0  0  0  0
   38.9480   32.7730   39.8550 C   0  0  1  0  0  0  0  0  0  0  0  0
   39.1170   34.0570   40.6570 C   0  0  0  0  0  0  0  0  0  0  0  0
   40.2580   33.1220   40.4800 C   0  0  2  0  0  0  0  0  0  0  0  0
   38.7260   32.9500   38.7750 H   0  0  0  0  0  0  0  0  0  0  0  0
   38.6230   34.1370   41.6360 H   0  0  0  0  0  0  0  0  0  0  0  0
   39.0910   34.9970   40.0720 H   0  0  0  0  0  0  0  0  0  0  0  0
   40.5420   32.5450   41.3830 H   0  0  0  0  0  0  0  0  0  0  0  0
   41.4250   33.4900   39.6370 C   0  0  0  0  0  0  0  0  0  0  0  0
   42.6970   33.6100   40.1630 C   0  0  0  0  0  0  0  0  0  0  0  0
   43.7940   33.9510   39.3910 C   0  0  0  0  0  0  0  0  0  0  0  0
   44.7970   34.0400   39.8350 H   0  0  0  0  0  0  0  0  0  0  0  0
   43.6390   34.1840   38.0550 N   0  0  0  0  0  0  0  0  0  0  0  0
   42.3910   34.0670   37.5410 C   0  0  0  0  0  0  0  0  0  0  0  0
   41.3220   33.7330   38.2980 N   0  0  0  0  0  0  0  0  0  0  0  0
  1  7  1  0  0  0  0
  1  2  1  0  0  0  0
  2  8  1  0  0  0  0
  3  2  2  0  0  0  0
  3  9  1  0  0  0  0
  4  3  1  0  0  0  0
  5  4  2  0  0  0  0
  6  5  1  0  0  0  0
  6  1  2  0  0  0  0
  9 10  2  0  0  0  0
 10 18  1  0  0  0  0
 10 11  1  0  0  0  0
 11 19  1  0  0  0  0
 12 13  1  0  0  0  0
 12 11  1  0  0  0  0
 13 20  1  0  0  0  0
 14 21  1  0  0  0  0
 14 13  2  0  0  0  0
 15 14  1  0  0  0  0
 16 15  2  0  0  0  0
 16 17  1  0  0  0  0
 17  9  1  0  0  0  0
 17 12  2  0  0  0  0
 22 15  1  0  0  0  0
 23 16  1  0  0  0  0
 24 27  1  6  0  0  0
 24  5  1  0  0  0  0
 24 26  1  0  0  0  0
 24 25  1  0  0  0  0
 25 28  1  0  0  0  0
 26 25  1  0  0  0  0
 26 30  1  1  0  0  0
 29 25  1  0  0  0  0
 31 32  1  0  0  0  0
 31 26  1  0  0  0  0
 33 34  1  0  0  0  0
 33 32  2  0  0  0  0
 35 33  1  0  0  0  0
 36 35  2  0  0  0  0
 36 37  1  0  0  0  0
 37 31  2  0  0  0  0
M  END
>  <minimizedAffinity>
-6.1450839

>  <minimizedRMSD>
0.904379904

$$$$
