REMARK  Name = 
REMARK  6 active torsions:
REMARK  status: ('A' for Active; 'I' for Inactive)
REMARK    1  A    between atoms: C_1  and  C_2
REMARK    2  A    between atoms: C_1  and  C_13
REMARK    3  A    between atoms: C_10  and  O_12
REMARK    4  A    between atoms: C_13  and  N_17
REMARK    5  A    between atoms: C_14  and  C_21
REMARK    6  A    between atoms: C_23  and  C_40
REMARK                            x       y       z     vdW  Elec       q    Type
REMARK                         _______ _______ _______ _____ _____    ______ ____
ROOT
ATOM      1  C   UNL     1      36.173  30.078  41.127  0.00  0.00    +0.000 C 
ATOM      2  H   UNL     1      35.615  30.643  41.897  0.00  0.00    +0.000 HD
ATOM      3  H   UNL     1      36.790  30.844  40.605  0.00  0.00    +0.000 HD
ENDROOT
BRANCH   1   7
ATOM      4  C   UNL     1      38.652  28.158  42.718  0.00  0.00    +0.000 A 
ATOM      5  C   UNL     1      37.562  27.348  42.867  0.00  0.00    +0.000 A 
ATOM      6  C   UNL     1      36.486  28.000  42.267  0.00  0.00    +0.000 A 
ATOM      7  N   UNL     1      37.010  29.149  41.806  0.00  0.00    +0.000 N 
ATOM      8  N   UNL     1      38.279  29.281  42.050  0.00  0.00    +0.000 NA
ATOM      9  H   UNL     1      37.592  26.382  43.370  0.00  0.00    +0.000 HD
ATOM     10  H   UNL     1      35.519  27.559  42.257  0.00  0.00    +0.000 HD
BRANCH   4  13
ATOM     11  C   UNL     1      41.577  26.557  44.379  0.00  0.00    +0.000 A 
ATOM     12  C   UNL     1      40.261  26.763  43.948  0.00  0.00    +0.000 A 
ATOM     13  C   UNL     1      39.999  27.906  43.181  0.00  0.00    +0.000 A 
ATOM     14  N   UNL     1      41.005  28.762  42.885  0.00  0.00    +0.000 NA
ATOM     15  C   UNL     1      42.273  28.508  43.334  0.00  0.00    +0.000 A 
ATOM     16  N   UNL     1      42.547  27.423  44.067  0.00  0.00    +0.000 NA
ATOM     17  H   UNL     1      41.742  25.657  44.972  0.00  0.00    +0.000 HD
ATOM     18  H   UNL     1      39.495  26.059  44.206  0.00  0.00    +0.000 HD
BRANCH  15  19
ATOM     19  C   UNL     1      43.326  29.455  42.991  0.00  0.00    +0.000 A 
ATOM     20  C   UNL     1      43.146  30.779  43.357  0.00  0.00    +0.000 A 
ATOM     21  C   UNL     1      44.272  31.466  42.923  0.00  0.00    +0.000 A 
ATOM     22  H   UNL     1      44.465  32.538  43.046  0.00  0.00    +0.000 HD
ATOM     23  N   UNL     1      45.086  30.572  42.322  0.00  0.00    +0.000 N 
ATOM     24  N   UNL     1      44.530  29.371  42.358  0.00  0.00    +0.000 NA
ATOM     25  H   UNL     1      46.007  30.817  41.902  0.00  0.00    +0.000 HD
ENDBRANCH  15  19
ENDBRANCH   4  13
ENDBRANCH   1   7
BRANCH   1  26
ATOM     26  C   UNL     1      35.284  29.486  40.074  0.00  0.00    +0.000 C 
ATOM     27  H   UNL     1      34.839  28.575  40.442  0.00  0.00    +0.000 HD
ATOM     28  H   UNL     1      34.557  30.357  39.954  0.00  0.00    +0.000 HD
BRANCH  26  29
ATOM     29  C   UNL     1      35.895  29.407  38.718  0.00  0.00    +0.000 A 
ATOM     30  C   UNL     1      37.208  29.568  38.387  0.00  0.00    +0.000 A 
ATOM     31  C   UNL     1      37.718  29.580  37.129  0.00  0.00    +0.000 A 
ATOM     32  C   UNL     1      36.868  29.420  36.059  0.00  0.00    +0.000 A 
ATOM     33  C   UNL     1      35.520  29.251  36.325  0.00  0.00    +0.000 A 
ATOM     34  C   UNL     1      34.724  29.103  35.214  0.00  0.00    +0.000 A 
ATOM     35  C   UNL     1      33.377  28.929  35.370  0.00  0.00    +0.000 A 
ATOM     36  C   UNL     1      32.840  28.901  36.653  0.00  0.00    +0.000 A 
ATOM     37  C   UNL     1      33.695  29.055  37.709  0.00  0.00    +0.000 A 
ATOM     38  C   UNL     1      35.035  29.240  37.633  0.00  0.00    +0.000 A 
ATOM     39  H   UNL     1      37.891  29.697  39.236  0.00  0.00    +0.000 HD
ATOM     40  H   UNL     1      38.784  29.715  37.008  0.00  0.00    +0.000 HD
ATOM     41  H   UNL     1      37.283  29.434  35.070  0.00  0.00    +0.000 HD
ATOM     42  H   UNL     1      35.120  29.119  34.207  0.00  0.00    +0.000 HD
ATOM     43  H   UNL     1      32.703  28.811  34.530  0.00  0.00    +0.000 HD
ATOM     44  H   UNL     1      31.777  28.760  36.770  0.00  0.00    +0.000 HD
BRANCH  37  45
ATOM     45  O   UNL     1      33.098  28.997  38.959  0.00  0.00    +0.000 OA
ATOM     46  H   UNL     1      32.648  28.116  39.247  0.00  0.00    +0.000 HD
ENDBRANCH  37  45
ENDBRANCH  26  29
ENDBRANCH   1  26
TORSDOF 6
