
 OpenBabel03242509273D

 46 50  0  0  0  0  0  0  0  0999 V2000
   36.1300   30.0860   41.0900 C   0  0  0  0  0  0  0  0  0  0  0  0
   35.5700   30.6440   41.8630 H   0  0  0  0  0  0  0  0  0  0  0  0
   36.7450   30.8580   40.5730 H   0  0  0  0  0  0  0  0  0  0  0  0
   38.6090   28.1730   42.6890 C   0  0  0  0  0  0  0  0  0  0  0  0
   37.5330   27.3360   42.7860 C   0  0  0  0  0  0  0  0  0  0  0  0
   36.4590   27.9830   42.1770 C   0  0  0  0  0  0  0  0  0  0  0  0
   36.9700   29.1560   41.7630 N   0  0  0  0  0  0  0  0  0  0  0  0
   38.2290   29.3070   42.0440 N   0  0  0  0  0  0  0  0  0  0  0  0
   37.5720   26.3570   43.2620 H   0  0  0  0  0  0  0  0  0  0  0  0
   35.5030   27.5220   42.1290 H   0  0  0  0  0  0  0  0  0  0  0  0
   41.5410   26.5530   44.3190 C   0  0  0  0  0  0  0  0  0  0  0  0
   40.2330   26.7430   43.8580 C   0  0  0  0  0  0  0  0  0  0  0  0
   39.9490   27.9360   43.1800 C   0  0  0  0  0  0  0  0  0  0  0  0
   40.9270   28.8530   42.9940 N   0  0  0  0  0  0  0  0  0  0  0  0
   42.1890   28.6120   43.4680 C   0  0  0  0  0  0  0  0  0  0  0  0
   42.4830   27.4800   44.1180 N   0  0  0  0  0  0  0  0  0  0  0  0
   41.7240   25.6130   44.8410 H   0  0  0  0  0  0  0  0  0  0  0  0
   39.4890   25.9900   44.0270 H   0  0  0  0  0  0  0  0  0  0  0  0
   43.2110   29.6260   43.2450 C   0  0  0  0  0  0  0  0  0  0  0  0
   42.9230   30.9260   43.6260 C   0  0  0  0  0  0  0  0  0  0  0  0
   44.0420   31.6870   43.3130 C   0  0  0  0  0  0  0  0  0  0  0  0
   44.1610   32.7640   43.4790 H   0  0  0  0  0  0  0  0  0  0  0  0
   44.9560   30.8580   42.7660 N   0  0  0  0  0  0  0  0  0  0  0  0
   44.4700   29.6270   42.7220 N   0  0  0  0  0  0  0  0  0  0  0  0
   45.8950   31.1660   42.4370 H   0  0  0  0  0  0  0  0  0  0  0  0
   35.2440   29.4980   40.0320 C   0  0  0  0  0  0  0  0  0  0  0  0
   34.7810   28.5980   40.4030 H   0  0  0  0  0  0  0  0  0  0  0  0
   34.5320   30.3790   39.8950 H   0  0  0  0  0  0  0  0  0  0  0  0
   35.8690   29.3960   38.6840 C   0  0  0  0  0  0  0  0  0  0  0  0
   37.1900   29.5220   38.3680 C   0  0  0  0  0  0  0  0  0  0  0  0
   37.7160   29.5150   37.1170 C   0  0  0  0  0  0  0  0  0  0  0  0
   36.8750   29.3710   36.0370 C   0  0  0  0  0  0  0  0  0  0  0  0
   35.5200   29.2370   36.2870 C   0  0  0  0  0  0  0  0  0  0  0  0
   34.7340   29.1040   35.1670 C   0  0  0  0  0  0  0  0  0  0  0  0
   33.3810   28.9650   35.3070 C   0  0  0  0  0  0  0  0  0  0  0  0
   32.8280   28.9570   36.5840 C   0  0  0  0  0  0  0  0  0  0  0  0
   33.6740   29.0950   37.6500 C   0  0  0  0  0  0  0  0  0  0  0  0
   35.0190   29.2460   37.5890 C   0  0  0  0  0  0  0  0  0  0  0  0
   37.8660   29.6380   39.2250 H   0  0  0  0  0  0  0  0  0  0  0  0
   38.7860   29.6220   37.0080 H   0  0  0  0  0  0  0  0  0  0  0  0
   37.3020   29.3690   35.0530 H   0  0  0  0  0  0  0  0  0  0  0  0
   35.1430   29.1040   34.1650 H   0  0  0  0  0  0  0  0  0  0  0  0
   32.7150   28.8600   34.4600 H   0  0  0  0  0  0  0  0  0  0  0  0
   31.7610   28.8440   36.6880 H   0  0  0  0  0  0  0  0  0  0  0  0
   33.0600   29.0590   38.8920 O   0  0  0  0  0  0  0  0  0  0  0  0
   32.5840   28.1910   39.1790 H   0  0  0  0  0  0  0  0  0  0  0  0
  1  7  1  0  0  0  0
  1  2  1  0  0  0  0
  3  1  1  0  0  0  0
  4  5  1  0  0  0  0
  4 13  1  0  0  0  0
  5  9  1  0  0  0  0
  6  5  2  0  0  0  0
  7  8  1  0  0  0  0
  7  6  1  0  0  0  0
  8  4  2  0  0  0  0
 10  6  1  0  0  0  0
 11 17  1  0  0  0  0
 12 18  1  0  0  0  0
 12 11  2  0  0  0  0
 13 12  1  0  0  0  0
 14 13  2  0  0  0  0
 14 15  1  0  0  0  0
 15 16  2  0  0  0  0
 16 11  1  0  0  0  0
 19 15  1  0  0  0  0
 19 20  1  0  0  0  0
 21 22  1  0  0  0  0
 21 20  2  0  0  0  0
 23 21  1  0  0  0  0
 24 23  1  0  0  0  0
 24 19  2  0  0  0  0
 25 23  1  0  0  0  0
 26 27  1  0  0  0  0
 26  1  1  0  0  0  0
 28 26  1  0  0  0  0
 29 26  1  0  0  0  0
 30 29  1  0  0  0  0
 30 39  1  0  0  0  0
 31 30  2  0  0  0  0
 32 33  2  0  0  0  0
 32 31  1  0  0  0  0
 33 38  1  0  0  0  0
 34 35  2  0  0  0  0
 34 33  1  0  0  0  0
 35 36  1  0  0  0  0
 36 44  1  0  0  0  0
 36 37  2  0  0  0  0
 37 45  1  0  0  0  0
 38 37  1  0  0  0  0
 38 29  2  0  0  0  0
 40 31  1  0  0  0  0
 41 32  1  0  0  0  0
 42 34  1  0  0  0  0
 43 35  1  0  0  0  0
 45 46  1  0  0  0  0
M  END
>  <minimizedAffinity>
-6.00220776

>  <minimizedRMSD>
0.201021284

$$$$
