
     RDKit          3D

 47 51  0  0  0  0  0  0  0  0999 V2000
   35.2840   29.4860   40.0739 C   0  0  0  0  0  0  0  0  0  0  0  0
   35.8951   29.4075   38.7182 C   0  0  0  0  0  0  0  0  0  0  0  0
   37.2076   29.5677   38.3874 C   0  0  0  0  0  0  0  0  0  0  0  0
   37.7178   29.5798   37.1289 C   0  0  0  0  0  0  0  0  0  0  0  0
   36.8682   29.4204   36.0589 C   0  0  0  0  0  0  0  0  0  0  0  0
   35.5197   29.2509   36.3252 C   0  0  0  0  0  0  0  0  0  0  0  0
   34.7241   29.1034   35.2137 C   0  0  0  0  0  0  0  0  0  0  0  0
   33.3775   28.9293   35.3700 C   0  0  0  0  0  0  0  0  0  0  0  0
   32.8400   28.9010   36.6532 C   0  0  0  0  0  0  0  0  0  0  0  0
   33.6947   29.0549   37.7093 C   0  0  0  0  0  0  0  0  0  0  0  0
   35.0345   29.2400   37.6330 C   0  0  0  0  0  0  0  0  0  0  0  0
   33.0982   28.9975   38.9586 O   0  0  0  0  0  0  0  0  0  0  0  0
   36.1732   30.0782   41.1270 C   0  0  0  0  0  0  0  0  0  0  0  0
   38.6519   28.1583   42.7182 C   0  0  0  0  0  0  0  0  0  0  0  0
   37.5623   27.3478   42.8670 C   0  0  0  0  0  0  0  0  0  0  0  0
   36.4863   28.0003   42.2675 C   0  0  0  0  0  0  0  0  0  0  0  0
   37.0101   29.1495   41.8058 N   0  0  0  0  0  0  0  0  0  0  0  0
   38.2790   29.2810   42.0498 N   0  0  0  0  0  0  0  0  0  0  0  0
   41.5771   26.5567   44.3785 C   0  0  0  0  0  0  0  0  0  0  0  0
   40.2606   26.7632   43.9476 C   0  0  0  0  0  0  0  0  0  0  0  0
   39.9994   27.9062   43.1814 C   0  0  0  0  0  0  0  0  0  0  0  0
   41.0055   28.7619   42.8847 N   0  0  0  0  0  0  0  0  0  0  0  0
   42.2735   28.5082   43.3336 C   0  0  0  0  0  0  0  0  0  0  0  0
   42.5469   27.4234   44.0667 N   0  0  0  0  0  0  0  0  0  0  0  0
   34.8392   28.5750   40.4423 H   0  0  0  0  0  0  0  0  0  0  0  0
   34.5573   30.3566   39.9544 H   0  0  0  0  0  0  0  0  0  0  0  0
   37.8909   29.6965   39.2357 H   0  0  0  0  0  0  0  0  0  0  0  0
   38.7836   29.7153   37.0076 H   0  0  0  0  0  0  0  0  0  0  0  0
   37.2834   29.4342   35.0700 H   0  0  0  0  0  0  0  0  0  0  0  0
   35.1203   29.1190   34.2070 H   0  0  0  0  0  0  0  0  0  0  0  0
   32.7026   28.8111   34.5301 H   0  0  0  0  0  0  0  0  0  0  0  0
   31.7766   28.7599   36.7701 H   0  0  0  0  0  0  0  0  0  0  0  0
   32.6482   28.1161   39.2471 H   0  0  0  0  0  0  0  0  0  0  0  0
   35.6154   30.6435   41.8971 H   0  0  0  0  0  0  0  0  0  0  0  0
   36.7899   30.8444   40.6051 H   0  0  0  0  0  0  0  0  0  0  0  0
   37.5915   26.3822   43.3702 H   0  0  0  0  0  0  0  0  0  0  0  0
   35.5190   27.5589   42.2567 H   0  0  0  0  0  0  0  0  0  0  0  0
   41.7416   25.6567   44.9724 H   0  0  0  0  0  0  0  0  0  0  0  0
   39.4953   26.0586   44.2063 H   0  0  0  0  0  0  0  0  0  0  0  0
   43.3260   29.4553   42.9911 C   0  0  0  0  0  0  0  0  0  0  0  0
   43.1456   30.7794   43.3572 C   0  0  0  0  0  0  0  0  0  0  0  0
   44.2723   31.4664   42.9230 C   0  0  0  0  0  0  0  0  0  0  0  0
   44.4651   32.5384   43.0460 H   0  0  0  0  0  0  0  0  0  0  0  0
   45.0858   30.5721   42.3220 N   0  0  0  0  0  0  0  0  0  0  0  0
   44.5296   29.3710   42.3582 N   0  0  0  0  0  0  0  0  0  0  0  0
   42.3407   31.2891   43.8743 H   0  0  0  0  0  0  0  0  0  0  0  0
   46.0070   30.8174   41.9016 H   0  0  0  0  0  0  0  0  0  0  0  0
  1 13  1  0
  2  1  1  0
  3  2  2  0
  4  3  1  0
  5  6  1  0
  5  4  2  0
  6 11  2  0
  7  8  2  0
  7  6  1  0
  8  9  1  0
  9 10  2  0
 10 12  1  0
 11 10  1  0
 11  2  1  0
 13 17  1  0
 14 15  1  0
 14 21  1  0
 16 15  2  0
 17 18  1  0
 17 16  1  0
 18 14  2  0
 20 19  2  0
 21 20  1  0
 22 21  2  0
 22 23  1  0
 23 24  2  0
 24 19  1  0
  1 25  1  0
  1 26  1  0
  3 27  1  0
  4 28  1  0
  5 29  1  0
  7 30  1  0
  8 31  1  0
  9 32  1  0
 12 33  1  0
 13 34  1  0
 13 35  1  0
 15 36  1  0
 16 37  1  0
 19 38  1  0
 20 39  1  0
 40 41  1  0
 41 42  2  0
 42 43  1  0
 42 44  1  0
 44 45  1  0
 45 40  2  0
 41 46  1  0
 44 47  1  0
 23 40  1  0
M  ISO  8  25   8  26   8  27  14  28  14  29  14  30  14  31  14  32  14
M  ISO  8  33   3  34   8  35   8  36  14  37  14  38  14  39  14  43  14
M  END
>  <DihAtoms>  (1) 
21,22,39,40

>  <DihDeg>  (1) 
56.53256077558686

$$$$
