
 OpenBabel03242509143D

 23 25  0  0  1  0  0  0  0  0999 V2000
   37.7530   30.3340   40.3500 C   0  0  1  0  0  0  0  0  0  0  0  0
   36.5980   30.7100   39.5690 C   0  0  0  0  0  0  0  0  0  0  0  0
   36.9480   31.6320   40.6930 C   0  0  2  0  0  0  0  0  0  0  0  0
   38.7790   30.5390   39.9580 H   0  0  0  0  0  0  0  0  0  0  0  0
   35.6150   30.2060   39.6730 H   0  0  0  0  0  0  0  0  0  0  0  0
   36.7670   31.0530   38.5110 H   0  0  0  0  0  0  0  0  0  0  0  0
   36.3380   31.6310   41.5920 H   0  0  0  0  0  0  0  0  0  0  0  0
   37.6850   29.2790   41.4290 C   0  0  0  0  0  0  0  0  0  0  0  0
   38.7820   29.2220   42.3120 C   0  0  0  0  0  0  0  0  0  0  0  0
   38.7330   28.2450   43.2930 C   0  0  0  0  0  0  0  0  0  0  0  0
   37.6520   27.4150   43.3500 N   0  0  0  0  0  0  0  0  0  0  0  0
   36.6150   27.4950   42.4880 C   0  0  0  0  0  0  0  0  0  0  0  0
   36.6360   28.4410   41.5160 N   0  0  0  0  0  0  0  0  0  0  0  0
   39.5910   29.9160   42.1930 H   0  0  0  0  0  0  0  0  0  0  0  0
   39.5530   28.1590   44.0000 H   0  0  0  0  0  0  0  0  0  0  0  0
   35.7980   26.7960   42.6030 H   0  0  0  0  0  0  0  0  0  0  0  0
   37.6510   32.8960   40.3680 C   0  0  0  0  0  0  0  0  0  0  0  0
   38.8580   33.2940   40.9180 C   0  0  0  0  0  0  0  0  0  0  0  0
   39.1650   34.5200   40.3530 C   0  0  0  0  0  0  0  0  0  0  0  0
   40.0210   35.1830   40.5040 H   0  0  0  0  0  0  0  0  0  0  0  0
   38.1580   34.8040   39.5100 N   0  0  0  0  0  0  0  0  0  0  0  0
   37.2360   33.8520   39.4960 N   0  0  0  0  0  0  0  0  0  0  0  0
   37.9800   35.6310   38.8750 H   0  0  0  0  0  0  0  0  0  0  0  0
  1  4  1  6  0  0  0
  1  3  1  0  0  0  0
  1  8  1  0  0  0  0
  2  5  1  0  0  0  0
  2  1  1  0  0  0  0
  2  3  1  0  0  0  0
  3  7  1  1  0  0  0
  6  2  1  0  0  0  0
  8 13  2  0  0  0  0
  8  9  1  0  0  0  0
  9 10  2  0  0  0  0
 10 11  1  0  0  0  0
 10 15  1  0  0  0  0
 12 16  1  0  0  0  0
 12 11  2  0  0  0  0
 13 12  1  0  0  0  0
 14  9  1  0  0  0  0
 17  3  1  0  0  0  0
 17 18  1  0  0  0  0
 19 20  1  0  0  0  0
 19 18  2  0  0  0  0
 21 19  1  0  0  0  0
 22 21  1  0  0  0  0
 22 17  2  0  0  0  0
 23 21  1  0  0  0  0
M  END
>  <minimizedAffinity>
-4.42219925

>  <minimizedRMSD>
7.0278039

$$$$
