
 OpenBabel03242509213D

 32 35  0  0  0  0  0  0  0  0999 V2000
   38.7190   28.1560   42.7410 C   0  0  0  0  0  0  0  0  0  0  0  0
   37.6360   27.3280   42.8750 C   0  0  0  0  0  0  0  0  0  0  0  0
   36.5530   28.0010   42.3040 C   0  0  0  0  0  0  0  0  0  0  0  0
   37.0600   29.1760   41.8700 N   0  0  0  0  0  0  0  0  0  0  0  0
   38.3230   29.2800   42.1180 N   0  0  0  0  0  0  0  0  0  0  0  0
   37.6970   26.3380   43.3540 H   0  0  0  0  0  0  0  0  0  0  0  0
   35.6080   27.4740   42.3360 H   0  0  0  0  0  0  0  0  0  0  0  0
   41.6470   26.5400   44.3880 C   0  0  0  0  0  0  0  0  0  0  0  0
   40.3300   26.7340   43.9590 C   0  0  0  0  0  0  0  0  0  0  0  0
   40.0570   27.8860   43.2060 C   0  0  0  0  0  0  0  0  0  0  0  0
   41.0560   28.7670   42.9150 N   0  0  0  0  0  0  0  0  0  0  0  0
   42.3260   28.5170   43.3670 C   0  0  0  0  0  0  0  0  0  0  0  0
   42.6110   27.4230   44.0880 N   0  0  0  0  0  0  0  0  0  0  0  0
   41.9000   25.6740   44.9660 H   0  0  0  0  0  0  0  0  0  0  0  0
   39.5490   26.0240   44.1990 H   0  0  0  0  0  0  0  0  0  0  0  0
   43.1530   29.1800   43.1660 H   0  0  0  0  0  0  0  0  0  0  0  0
   36.1590   30.1020   41.2500 C   0  0  0  0  0  0  0  0  0  0  0  0
   36.7400   31.0070   41.0310 H   0  0  0  0  0  0  0  0  0  0  0  0
   35.4370   30.4120   42.0620 H   0  0  0  0  0  0  0  0  0  0  0  0
   35.3320   29.5430   40.1570 C   0  0  0  0  0  0  0  0  0  0  0  0
   34.3230   30.0040   40.1870 H   0  0  0  0  0  0  0  0  0  0  0  0
   35.1880   28.4690   40.3480 H   0  0  0  0  0  0  0  0  0  0  0  0
   35.8990   29.6780   38.7980 C   0  0  0  0  0  0  0  0  0  0  0  0
   37.1340   30.1510   38.4240 C   0  0  0  0  0  0  0  0  0  0  0  0
   37.5930   30.2670   37.1520 C   0  0  0  0  0  0  0  0  0  0  0  0
   36.7810   29.8880   36.1020 C   0  0  0  0  0  0  0  0  0  0  0  0
   35.5280   29.4020   36.4040 C   0  0  0  0  0  0  0  0  0  0  0  0
   34.7790   29.0320   35.3100 C   0  0  0  0  0  0  0  0  0  0  0  0
   33.5170   28.5230   35.5110 C   0  0  0  0  0  0  0  0  0  0  0  0
   33.0320   28.3960   36.7940 C   0  0  0  0  0  0  0  0  0  0  0  0
   33.8300   28.7820   37.8360 C   0  0  0  0  0  0  0  0  0  0  0  0
   35.1010   29.2990   37.7130 C   0  0  0  0  0  0  0  0  0  0  0  0
  1  2  1  0  0  0  0
  1 10  1  0  0  0  0
  2  6  1  0  0  0  0
  3  7  1  0  0  0  0
  3  2  2  0  0  0  0
  4  5  1  0  0  0  0
  4  3  1  0  0  0  0
  5  1  2  0  0  0  0
  8 14  1  0  0  0  0
  9 15  1  0  0  0  0
  9  8  2  0  0  0  0
 10  9  1  0  0  0  0
 11 10  2  0  0  0  0
 11 12  1  0  0  0  0
 12 13  2  0  0  0  0
 13  8  1  0  0  0  0
 16 12  1  0  0  0  0
 17  4  1  0  0  0  0
 17 19  1  0  0  0  0
 18 17  1  0  0  0  0
 20 21  1  0  0  0  0
 20 22  1  0  0  0  0
 20 17  1  0  0  0  0
 23 20  1  0  0  0  0
 24 23  1  0  0  0  0
 25 24  2  0  0  0  0
 26 27  2  0  0  0  0
 26 25  1  0  0  0  0
 27 32  1  0  0  0  0
 28 29  2  0  0  0  0
 28 27  1  0  0  0  0
 29 30  1  0  0  0  0
 30 31  2  0  0  0  0
 32 31  1  0  0  0  0
 32 23  2  0  0  0  0
M  END
>  <minimizedAffinity>
-5.63416958

>  <minimizedRMSD>
1.74526346

$$$$
