
 OpenBabel03242509283D

 46 50  0  0  0  0  0  0  0  0999 V2000
   36.1730   30.1000   41.1110 C   0  0  0  0  0  0  0  0  0  0  0  0
   35.6250   30.6670   41.8860 H   0  0  0  0  0  0  0  0  0  0  0  0
   36.7970   30.8620   40.5910 H   0  0  0  0  0  0  0  0  0  0  0  0
   38.6310   28.1530   42.7010 C   0  0  0  0  0  0  0  0  0  0  0  0
   37.5440   27.3310   42.8030 C   0  0  0  0  0  0  0  0  0  0  0  0
   36.4770   27.9930   42.1980 C   0  0  0  0  0  0  0  0  0  0  0  0
   37.0020   29.1580   41.7820 N   0  0  0  0  0  0  0  0  0  0  0  0
   38.2650   29.2920   42.0580 N   0  0  0  0  0  0  0  0  0  0  0  0
   37.5710   26.3520   43.2790 H   0  0  0  0  0  0  0  0  0  0  0  0
   35.5140   27.5450   42.1540 H   0  0  0  0  0  0  0  0  0  0  0  0
   41.5430   26.4990   44.3330 C   0  0  0  0  0  0  0  0  0  0  0  0
   40.2360   26.7070   43.8770 C   0  0  0  0  0  0  0  0  0  0  0  0
   39.9700   27.8970   43.1870 C   0  0  0  0  0  0  0  0  0  0  0  0
   40.9630   28.7940   42.9850 N   0  0  0  0  0  0  0  0  0  0  0  0
   42.2230   28.5360   43.4540 C   0  0  0  0  0  0  0  0  0  0  0  0
   42.5010   27.4060   44.1150 N   0  0  0  0  0  0  0  0  0  0  0  0
   41.7120   25.5620   44.8640 H   0  0  0  0  0  0  0  0  0  0  0  0
   39.4800   25.9700   44.0590 H   0  0  0  0  0  0  0  0  0  0  0  0
   43.2630   29.5280   43.2140 C   0  0  0  0  0  0  0  0  0  0  0  0
   43.2330   30.6890   43.9710 C   0  0  0  0  0  3  0  0  0  0  0  0
   44.3120   31.4580   43.5570 C   0  0  0  0  0  0  0  0  0  0  0  0
   44.5920   32.4450   43.9460 H   0  0  0  0  0  0  0  0  0  0  0  0
   44.9530   30.7700   42.5880 N   0  0  0  0  0  0  0  0  0  0  0  0
   44.3340   29.6180   42.3780 N   0  0  0  0  0  0  0  0  0  0  0  0
   45.8050   31.1170   42.0980 H   0  0  0  0  0  0  0  0  0  0  0  0
   35.2740   29.5240   40.0580 C   0  0  0  0  0  0  0  0  0  0  0  0
   34.8000   28.6310   40.4320 H   0  0  0  0  0  0  0  0  0  0  0  0
   34.5740   30.4150   39.9250 H   0  0  0  0  0  0  0  0  0  0  0  0
   35.8910   29.4140   38.7070 C   0  0  0  0  0  0  0  0  0  0  0  0
   37.2090   29.5420   38.3820 C   0  0  0  0  0  0  0  0  0  0  0  0
   37.7270   29.5260   37.1270 C   0  0  0  0  0  0  0  0  0  0  0  0
   36.8790   29.3700   36.0540 C   0  0  0  0  0  0  0  0  0  0  0  0
   35.5270   29.2340   36.3140 C   0  0  0  0  0  0  0  0  0  0  0  0
   34.7340   29.0890   35.2000 C   0  0  0  0  0  0  0  0  0  0  0  0
   33.3830   28.9470   35.3500 C   0  0  0  0  0  0  0  0  0  0  0  0
   32.8380   28.9480   36.6300 C   0  0  0  0  0  0  0  0  0  0  0  0
   33.6900   29.0970   37.6890 C   0  0  0  0  0  0  0  0  0  0  0  0
   35.0340   29.2520   37.6190 C   0  0  0  0  0  0  0  0  0  0  0  0
   37.8900   29.6670   39.2330 H   0  0  0  0  0  0  0  0  0  0  0  0
   38.7960   29.6360   37.0100 H   0  0  0  0  0  0  0  0  0  0  0  0
   37.3000   29.3620   35.0670 H   0  0  0  0  0  0  0  0  0  0  0  0
   35.1360   29.0830   34.1950 H   0  0  0  0  0  0  0  0  0  0  0  0
   32.7110   28.8320   34.5080 H   0  0  0  0  0  0  0  0  0  0  0  0
   31.7710   28.8320   36.7420 H   0  0  0  0  0  0  0  0  0  0  0  0
   33.0840   29.0690   38.9360 O   0  0  0  0  0  0  0  0  0  0  0  0
   32.6130   28.2020   39.2330 H   0  0  0  0  0  0  0  0  0  0  0  0
  1  7  1  0  0  0  0
  1  2  1  0  0  0  0
  3  1  1  0  0  0  0
  4  5  1  0  0  0  0
  4 13  1  0  0  0  0
  5  9  1  0  0  0  0
  6  5  2  0  0  0  0
  7  8  1  0  0  0  0
  7  6  1  0  0  0  0
  8  4  2  0  0  0  0
 10  6  1  0  0  0  0
 11 17  1  0  0  0  0
 12 18  1  0  0  0  0
 12 11  2  0  0  0  0
 13 12  1  0  0  0  0
 14 13  2  0  0  0  0
 14 15  1  0  0  0  0
 15 16  2  0  0  0  0
 16 11  1  0  0  0  0
 19 15  1  0  0  0  0
 19 20  1  0  0  0  0
 21 22  1  0  0  0  0
 21 20  2  0  0  0  0
 23 21  1  0  0  0  0
 24 23  1  0  0  0  0
 24 19  2  0  0  0  0
 25 23  1  0  0  0  0
 26 27  1  0  0  0  0
 26  1  1  0  0  0  0
 28 26  1  0  0  0  0
 29 26  1  0  0  0  0
 30 29  1  0  0  0  0
 30 39  1  0  0  0  0
 31 30  2  0  0  0  0
 32 33  2  0  0  0  0
 32 31  1  0  0  0  0
 33 38  1  0  0  0  0
 34 35  2  0  0  0  0
 34 33  1  0  0  0  0
 35 36  1  0  0  0  0
 36 44  1  0  0  0  0
 36 37  2  0  0  0  0
 37 45  1  0  0  0  0
 38 37  1  0  0  0  0
 38 29  2  0  0  0  0
 40 31  1  0  0  0  0
 41 32  1  0  0  0  0
 42 34  1  0  0  0  0
 43 35  1  0  0  0  0
 45 46  1  0  0  0  0
M  END
>  <minimizedAffinity>
-5.9992094

>  <minimizedRMSD>
0.163047925

$$$$
