
 OpenBabel03242507463D

 30 33  0  0  1  0  0  0  0  0999 V2000
   38.4500   29.1030   42.6060 C   0  0  0  0  0  0  0  0  0  0  0  0
   37.4090   28.6650   43.4450 C   0  0  0  0  0  0  0  0  0  0  0  0
   37.8860   27.4800   44.0050 C   0  0  0  0  0  0  0  0  0  0  0  0
   39.1170   27.2540   43.5210 N   0  0  0  0  0  0  0  0  0  0  0  0
   39.4580   28.2260   42.6820 N   0  0  0  0  0  0  0  0  0  0  0  0
   36.4290   29.0540   43.6870 H   0  0  0  0  0  0  0  0  0  0  0  0
   37.3450   26.8430   44.7200 H   0  0  0  0  0  0  0  0  0  0  0  0
   36.9800   31.7140   40.4900 C   0  0  0  0  0  0  0  0  0  0  0  0
   38.0170   32.6520   40.3890 C   0  0  0  0  0  0  0  0  0  0  0  0
   39.2150   32.3830   41.0460 C   0  0  0  0  0  0  0  0  0  0  0  0
   39.3330   31.2330   41.7550 N   0  0  0  0  0  0  0  0  0  0  0  0
   38.3070   30.3380   41.8370 C   0  0  0  0  0  0  0  0  0  0  0  0
   37.1310   30.5930   41.1970 N   0  0  0  0  0  0  0  0  0  0  0  0
   36.0180   31.8290   40.0210 H   0  0  0  0  0  0  0  0  0  0  0  0
   37.8430   33.5470   39.8030 H   0  0  0  0  0  0  0  0  0  0  0  0
   40.0250   33.0960   40.9770 H   0  0  0  0  0  0  0  0  0  0  0  0
   39.9110   26.0960   43.9000 C   0  0  2  0  0  0  0  0  0  0  0  0
   41.0080   25.6690   42.8680 C   0  0  0  0  0  0  0  0  0  0  0  0
   39.7940   24.8250   43.1520 C   0  0  2  0  0  0  0  0  0  0  0  0
   40.2260   26.1040   44.9520 H   0  0  0  0  0  0  0  0  0  0  0  0
   41.0100   26.2410   41.9070 H   0  0  0  0  0  0  0  0  0  0  0  0
   41.9920   25.4110   43.2700 H   0  0  0  0  0  0  0  0  0  0  0  0
   40.0390   23.9200   43.7670 H   0  0  0  0  0  0  0  0  0  0  0  0
   38.7700   24.6650   42.0810 C   0  0  0  0  0  0  0  0  0  0  0  0
   37.4460   24.2850   42.1890 C   0  0  0  0  0  0  0  0  0  0  0  0
   36.9750   24.3060   40.8900 C   0  0  0  0  0  0  0  0  0  0  0  0
   35.9690   24.0620   40.5770 H   0  0  0  0  0  0  0  0  0  0  0  0
   37.9690   24.6810   40.0350 N   0  0  0  0  0  0  0  0  0  0  0  0
   39.0370   24.8910   40.7830 N   0  0  0  0  0  0  0  0  0  0  0  0
   37.9300   24.7910   38.9970 H   0  0  0  0  0  0  0  0  0  0  0  0
  1  5  2  0  0  0  0
  1  2  1  0  0  0  0
  2  6  1  0  0  0  0
  2  3  2  0  0  0  0
  3  7  1  0  0  0  0
  4 17  1  0  0  0  0
  4  3  1  0  0  0  0
  5  4  1  0  0  0  0
  8 13  1  0  0  0  0
  9  8  2  0  0  0  0
  9 10  1  0  0  0  0
 10 11  2  0  0  0  0
 11 12  1  0  0  0  0
 12  1  1  0  0  0  0
 13 12  2  0  0  0  0
 14  8  1  0  0  0  0
 15  9  1  0  0  0  0
 16 10  1  0  0  0  0
 17 20  1  1  0  0  0
 18 19  1  0  0  0  0
 18 22  1  0  0  0  0
 18 17  1  0  0  0  0
 19 23  1  1  0  0  0
 19 17  1  0  0  0  0
 21 18  1  0  0  0  0
 24 25  1  0  0  0  0
 24 19  1  0  0  0  0
 26 25  2  0  0  0  0
 27 26  1  0  0  0  0
 28 29  1  0  0  0  0
 28 26  1  0  0  0  0
 29 24  2  0  0  0  0
 30 28  1  0  0  0  0
M  END
>  <minimizedAffinity>
-5.06390142

>  <minimizedRMSD>
1.77602899

$$$$
