
 OpenBabel03242509283D

 46 50  0  0  0  0  0  0  0  0999 V2000
   36.1420   30.0950   41.0770 C   0  0  0  0  0  0  0  0  0  0  0  0
   35.5920   30.6670   41.8480 H   0  0  0  0  0  0  0  0  0  0  0  0
   36.7700   30.8530   40.5560 H   0  0  0  0  0  0  0  0  0  0  0  0
   38.5900   28.1480   42.6840 C   0  0  0  0  0  0  0  0  0  0  0  0
   37.5000   27.3320   42.7900 C   0  0  0  0  0  0  0  0  0  0  0  0
   36.4360   27.9940   42.1790 C   0  0  0  0  0  0  0  0  0  0  0  0
   36.9660   29.1540   41.7550 N   0  0  0  0  0  0  0  0  0  0  0  0
   38.2290   29.2850   42.0320 N   0  0  0  0  0  0  0  0  0  0  0  0
   37.5210   26.3550   43.2720 H   0  0  0  0  0  0  0  0  0  0  0  0
   35.4710   27.5500   42.1360 H   0  0  0  0  0  0  0  0  0  0  0  0
   41.4940   26.4910   44.3280 C   0  0  0  0  0  0  0  0  0  0  0  0
   40.1880   26.7020   43.8680 C   0  0  0  0  0  0  0  0  0  0  0  0
   39.9260   27.8900   43.1740 C   0  0  0  0  0  0  0  0  0  0  0  0
   40.9230   28.7840   42.9710 N   0  0  0  0  0  0  0  0  0  0  0  0
   42.1810   28.5230   43.4440 C   0  0  0  0  0  0  0  0  0  0  0  0
   42.4540   27.3950   44.1090 N   0  0  0  0  0  0  0  0  0  0  0  0
   41.6590   25.5550   44.8620 H   0  0  0  0  0  0  0  0  0  0  0  0
   39.4290   25.9670   44.0510 H   0  0  0  0  0  0  0  0  0  0  0  0
   43.2240   29.5120   43.2020 C   0  0  0  0  0  0  0  0  0  0  0  0
   43.5400   30.3800   44.2350 C   0  0  0  0  0  3  0  0  0  0  0  0
   44.5470   31.2100   43.7590 C   0  0  0  0  0  0  0  0  0  0  0  0
   45.0370   32.0190   44.3150 H   0  0  0  0  0  0  0  0  0  0  0  0
   44.8110   30.8390   42.4880 N   0  0  0  0  0  0  0  0  0  0  0  0
   44.0280   29.8270   42.1490 N   0  0  0  0  0  0  0  0  0  0  0  0
   45.5300   31.2970   41.8880 H   0  0  0  0  0  0  0  0  0  0  0  0
   35.2460   29.5170   40.0230 C   0  0  0  0  0  0  0  0  0  0  0  0
   34.7740   28.6210   40.3960 H   0  0  0  0  0  0  0  0  0  0  0  0
   34.5430   30.4050   39.8890 H   0  0  0  0  0  0  0  0  0  0  0  0
   35.8650   29.4080   38.6730 C   0  0  0  0  0  0  0  0  0  0  0  0
   37.1830   29.5350   38.3500 C   0  0  0  0  0  0  0  0  0  0  0  0
   37.7030   29.5210   37.0960 C   0  0  0  0  0  0  0  0  0  0  0  0
   36.8570   29.3690   36.0210 C   0  0  0  0  0  0  0  0  0  0  0  0
   35.5030   29.2340   36.2790 C   0  0  0  0  0  0  0  0  0  0  0  0
   34.7120   29.0910   35.1640 C   0  0  0  0  0  0  0  0  0  0  0  0
   33.3610   28.9500   35.3120 C   0  0  0  0  0  0  0  0  0  0  0  0
   32.8140   28.9490   36.5910 C   0  0  0  0  0  0  0  0  0  0  0  0
   33.6640   29.0950   37.6510 C   0  0  0  0  0  0  0  0  0  0  0  0
   35.0090   29.2490   37.5830 C   0  0  0  0  0  0  0  0  0  0  0  0
   37.8630   29.6580   39.2020 H   0  0  0  0  0  0  0  0  0  0  0  0
   38.7720   29.6300   36.9810 H   0  0  0  0  0  0  0  0  0  0  0  0
   37.2790   29.3620   35.0350 H   0  0  0  0  0  0  0  0  0  0  0  0
   35.1160   29.0870   34.1600 H   0  0  0  0  0  0  0  0  0  0  0  0
   32.6900   28.8380   34.4680 H   0  0  0  0  0  0  0  0  0  0  0  0
   31.7470   28.8340   36.7010 H   0  0  0  0  0  0  0  0  0  0  0  0
   33.0570   29.0650   38.8970 O   0  0  0  0  0  0  0  0  0  0  0  0
   32.5850   28.1980   39.1920 H   0  0  0  0  0  0  0  0  0  0  0  0
  1  7  1  0  0  0  0
  1  2  1  0  0  0  0
  3  1  1  0  0  0  0
  4  5  1  0  0  0  0
  4 13  1  0  0  0  0
  5  9  1  0  0  0  0
  6  5  2  0  0  0  0
  7  8  1  0  0  0  0
  7  6  1  0  0  0  0
  8  4  2  0  0  0  0
 10  6  1  0  0  0  0
 11 17  1  0  0  0  0
 12 18  1  0  0  0  0
 12 11  2  0  0  0  0
 13 12  1  0  0  0  0
 14 13  2  0  0  0  0
 14 15  1  0  0  0  0
 15 16  2  0  0  0  0
 16 11  1  0  0  0  0
 19 15  1  0  0  0  0
 19 20  1  0  0  0  0
 21 20  2  0  0  0  0
 21 22  1  0  0  0  0
 23 21  1  0  0  0  0
 24 23  1  0  0  0  0
 24 19  2  0  0  0  0
 25 23  1  0  0  0  0
 26 27  1  0  0  0  0
 26  1  1  0  0  0  0
 28 26  1  0  0  0  0
 29 26  1  0  0  0  0
 30 29  1  0  0  0  0
 30 39  1  0  0  0  0
 31 30  2  0  0  0  0
 32 33  2  0  0  0  0
 32 31  1  0  0  0  0
 33 38  1  0  0  0  0
 34 35  2  0  0  0  0
 34 33  1  0  0  0  0
 35 36  1  0  0  0  0
 36 44  1  0  0  0  0
 36 37  2  0  0  0  0
 37 45  1  0  0  0  0
 38 37  1  0  0  0  0
 38 29  2  0  0  0  0
 40 31  1  0  0  0  0
 41 32  1  0  0  0  0
 42 34  1  0  0  0  0
 43 35  1  0  0  0  0
 45 46  1  0  0  0  0
M  END
>  <minimizedAffinity>
-5.97078323

>  <minimizedRMSD>
0.160866514

$$$$
