
 OpenBabel03242508553D

 39 43  0  0  0  0  0  0  0  0999 V2000
   37.9850   28.2070   41.6320 C   0  0  0  0  0  0  0  0  0  0  0  0
   36.7240   27.9920   41.1060 C   0  0  0  0  0  0  0  0  0  0  0  0
   36.2840   29.1630   40.6490 N   0  0  0  0  0  0  0  0  0  0  0  0
   37.1780   30.1440   40.8410 C   0  0  0  0  0  0  0  0  0  0  0  0
   37.1100   31.4890   40.5150 C   0  0  0  0  0  0  0  0  0  0  0  0
   38.2190   32.2790   40.8450 C   0  0  0  0  0  0  0  0  0  0  0  0
   39.3230   31.7220   41.4670 C   0  0  0  0  0  0  0  0  0  0  0  0
   39.3850   30.3900   41.7880 C   0  0  0  0  0  0  0  0  0  0  0  0
   38.2860   29.5840   41.4660 C   0  0  0  0  0  0  0  0  0  0  0  0
   36.2870   27.0100   41.1230 H   0  0  0  0  0  0  0  0  0  0  0  0
   36.2240   31.8590   40.0310 H   0  0  0  0  0  0  0  0  0  0  0  0
   38.1810   33.3360   40.5960 H   0  0  0  0  0  0  0  0  0  0  0  0
   40.1800   32.3480   41.7190 H   0  0  0  0  0  0  0  0  0  0  0  0
   40.2080   29.9050   42.2690 H   0  0  0  0  0  0  0  0  0  0  0  0
   39.9890   26.4740   44.1460 C   0  0  0  0  0  0  0  0  0  0  0  0
   40.5430   25.3800   43.4050 C   0  0  0  0  0  0  0  0  0  0  0  0
   40.2060   25.2710   42.0420 C   0  0  0  0  0  0  0  0  0  0  0  0
   39.3860   26.2070   41.5460 N   0  0  0  0  0  0  0  0  0  0  0  0
   38.8710   27.2280   42.2490 C   0  0  0  0  0  0  0  0  0  0  0  0
   39.1730   27.3600   43.5470 N   0  0  0  0  0  0  0  0  0  0  0  0
   40.2040   26.6150   45.1860 H   0  0  0  0  0  0  0  0  0  0  0  0
   41.1960   24.6780   43.9020 H   0  0  0  0  0  0  0  0  0  0  0  0
   40.6070   24.4590   41.4570 H   0  0  0  0  0  0  0  0  0  0  0  0
   34.9770   29.3010   40.0250 C   0  0  0  0  0  0  0  0  0  0  0  0
   34.5510   30.2720   40.3560 H   0  0  0  0  0  0  0  0  0  0  0  0
   34.3200   28.5220   40.4470 H   0  0  0  0  0  0  0  0  0  0  0  0
   35.0240   29.3240   38.5380 C   0  0  0  0  0  0  0  0  0  0  0  0
   36.0900   29.5660   38.2600 H   0  0  0  0  0  0  0  0  0  0  0  0
   34.4670   30.2500   38.2150 H   0  0  0  0  0  0  0  0  0  0  0  0
   34.5800   28.1070   37.8580 C   0  0  0  0  0  0  0  0  0  0  0  0
   35.2390   26.8990   37.9230 C   0  0  0  0  0  0  0  0  0  0  0  0
   34.7800   25.7740   37.2850 C   0  0  0  0  0  0  0  0  0  0  0  0
   33.6120   25.8480   36.5460 C   0  0  0  0  0  0  0  0  0  0  0  0
   32.9240   27.0250   36.4510 C   0  0  0  0  0  0  0  0  0  0  0  0
   31.7700   27.0200   35.6880 C   0  0  0  0  0  0  0  0  0  0  0  0
   31.0510   28.1910   35.5600 C   0  0  0  0  0  0  0  0  0  0  0  0
   31.4890   29.3530   36.1930 C   0  0  0  0  0  0  0  0  0  0  0  0
   32.6480   29.2800   36.9370 C   0  0  0  0  0  0  0  0  0  0  0  0
   33.4100   28.1430   37.1050 C   0  0  0  0  0  0  0  0  0  0  0  0
  1 19  1  0  0  0  0
  2 10  1  0  0  0  0
  2  1  2  0  0  0  0
  3  4  1  0  0  0  0
  3  2  1  0  0  0  0
  4  9  1  0  0  0  0
  5  4  2  0  0  0  0
  5  6  1  0  0  0  0
  6  7  2  0  0  0  0
  7 13  1  0  0  0  0
  7  8  1  0  0  0  0
  8 14  1  0  0  0  0
  9  1  1  0  0  0  0
  9  8  2  0  0  0  0
 11  5  1  0  0  0  0
 12  6  1  0  0  0  0
 15 21  1  0  0  0  0
 16 22  1  0  0  0  0
 16 15  2  0  0  0  0
 17 16  1  0  0  0  0
 18 17  2  0  0  0  0
 18 19  1  0  0  0  0
 19 20  2  0  0  0  0
 20 15  1  0  0  0  0
 23 17  1  0  0  0  0
 24 25  1  0  0  0  0
 24 26  1  0  0  0  0
 24  3  1  0  0  0  0
 27 24  1  0  0  0  0
 28 27  1  0  0  0  0
 29 27  1  0  0  0  0
 30 31  1  0  0  0  0
 30 27  1  0  0  0  0
 32 31  2  0  0  0  0
 33 32  1  0  0  0  0
 34 33  2  0  0  0  0
 34 39  1  0  0  0  0
 35 34  1  0  0  0  0
 36 35  2  0  0  0  0
 36 37  1  0  0  0  0
 37 38  2  0  0  0  0
 38 39  1  0  0  0  0
 39 30  2  0  0  0  0
M  END
>  <minimizedAffinity>
-5.60070229

>  <minimizedRMSD>
1.41160131

$$$$
