
 OpenBabel03242509323D

 15 16  0  0  0  0  0  0  0  0999 V2000
   38.0330   28.6670   43.3930 C   0  0  0  0  0  0  0  0  0  0  0  0
   37.9830   27.2670   43.1270 C   0  0  0  0  0  0  0  0  0  0  0  0
   37.2360   26.8620   42.0190 C   0  0  0  0  0  0  0  0  0  0  0  0
   36.5940   27.8190   41.2450 N   0  0  0  0  0  0  0  0  0  0  0  0
   36.6870   29.1270   41.5560 C   0  0  0  0  0  0  0  0  0  0  0  0
   37.3980   29.5320   42.6160 N   0  0  0  0  0  0  0  0  0  0  0  0
   38.6110   28.9850   44.2520 H   0  0  0  0  0  0  0  0  0  0  0  0
   38.5020   26.5730   43.7640 H   0  0  0  0  0  0  0  0  0  0  0  0
   37.1450   25.4130   41.6900 C   0  0  0  0  0  0  0  0  0  0  0  0
   36.5000   25.3320   40.4670 F   0  0  0  0  0  0  0  0  0  0  0  0
   38.3860   24.8430   41.5560 F   0  0  0  0  0  0  0  0  0  0  0  0
   36.4090   24.7080   42.6390 F   0  0  0  0  0  0  0  0  0  0  0  0
   35.9920   30.1270   40.7140 C   0  0  0  0  0  3  0  0  0  0  0  0
   36.5340   30.2670   39.3250 C   0  0  0  0  0  2  0  0  0  0  0  0
   36.6670   31.3980   40.3380 C   0  0  0  0  0  2  0  0  0  0  0  0
  1  7  1  0  0  0  0
  2  1  1  0  0  0  0
  2  8  1  0  0  0  0
  3  2  2  0  0  0  0
  4  5  2  0  0  0  0
  4  3  1  0  0  0  0
  5  6  1  0  0  0  0
  6  1  2  0  0  0  0
  9  3  1  0  0  0  0
  9 12  1  0  0  0  0
 10  9  1  0  0  0  0
 11  9  1  0  0  0  0
 13  5  1  0  0  0  0
 14 15  1  0  0  0  0
 14 13  1  0  0  0  0
 15 13  1  0  0  0  0
M  END
>  <minimizedAffinity>
-4.22898149

>  <minimizedRMSD>
0.764926672

$$$$
