
 OpenBabel03242507023D

 13 14  0  0  0  0  0  0  0  0999 V2000
   40.1700   27.1900   43.6720 C   0  0  0  0  0  0  0  0  0  0  0  0
   40.4350   25.8040   43.6480 C   0  0  0  0  0  0  0  0  0  0  0  0
   39.4580   24.9310   43.1490 C   0  0  0  0  0  0  0  0  0  0  0  0
   38.3040   25.4930   42.7150 N   0  0  0  0  0  0  0  0  0  0  0  0
   38.0550   26.8120   42.7390 C   0  0  0  0  0  0  0  0  0  0  0  0
   38.9950   27.6530   43.2200 N   0  0  0  0  0  0  0  0  0  0  0  0
   40.9150   27.8880   44.0560 H   0  0  0  0  0  0  0  0  0  0  0  0
   41.4180   25.5190   44.0360 H   0  0  0  0  0  0  0  0  0  0  0  0
   36.7590   27.3210   42.2410 C   0  0  0  0  0  0  0  0  0  0  0  0
   36.5970   28.6720   41.7040 C   0  0  0  0  0  0  0  0  0  0  0  0
   36.7560   27.5420   40.7040 C   0  0  0  0  0  0  0  0  0  0  0  0
   39.7640   23.6000   43.1480 O   0  0  0  0  0  0  0  0  0  0  0  0
   39.4610   22.9010   42.4900 H   0  0  0  0  0  0  0  0  0  0  0  0
  1  7  1  0  0  0  0
  2  1  1  0  0  0  0
  2  8  1  0  0  0  0
  3  2  2  0  0  0  0
  4  5  2  0  0  0  0
  4  3  1  0  0  0  0
  5  6  1  0  0  0  0
  6  1  2  0  0  0  0
  9  5  1  0  0  0  0
 10  9  1  0  0  0  0
 11 10  1  0  0  0  0
 11  9  1  0  0  0  0
 12  3  1  0  0  0  0
 13 12  1  0  0  0  0
M  END
>  <minimizedAffinity>
-3.53817725

>  <minimizedRMSD>
3.30054116

$$$$
