
     RDKit          3D

 20 21  0  0  0  0  0  0  0  0999 V2000
   37.9743   28.8883   43.3655 C   0  0  0  0  0  0  0  0  0  0  0  0
   38.0916   27.4685   43.3111 C   0  0  0  0  0  0  0  0  0  0  0  0
   37.4393   26.8198   42.2609 C   0  0  0  0  0  0  0  0  0  0  0  0
   36.7226   27.5709   41.3389 N   0  0  0  0  0  0  0  0  0  0  0  0
   36.6551   28.9123   41.4531 C   0  0  0  0  0  0  0  0  0  0  0  0
   37.2745   29.5485   42.4536 N   0  0  0  0  0  0  0  0  0  0  0  0
   37.5253   25.3378   42.1513 C   0  0  0  0  0  0  0  0  0  0  0  0
   37.6589   25.0550   40.8022 F   0  0  0  0  0  0  0  0  0  0  0  0
   38.6260   24.8419   42.8035 F   0  0  0  0  0  0  0  0  0  0  0  0
   36.3784   24.7120   42.6330 F   0  0  0  0  0  0  0  0  0  0  0  0
   38.4793   29.3939   44.1790 H   0  0  0  0  0  0  0  0  0  0  0  0
   38.6619   26.9404   44.0557 H   0  0  0  0  0  0  0  0  0  0  0  0
   35.8839   29.6886   40.4559 C   0  0  0  0  0  0  0  0  0  0  0  0
   34.7766   28.9320   39.7884 C   0  0  0  0  0  0  0  0  0  0  0  0
   36.0032   29.3824   39.0045 C   0  0  0  0  0  0  0  0  0  0  0  0
   35.6667   30.7304   40.7713 H   0  0  0  0  0  0  0  0  0  0  0  0
   33.8334   29.4772   39.5386 H   0  0  0  0  0  0  0  0  0  0  0  0
   34.6341   27.8558   40.0098 H   0  0  0  0  0  0  0  0  0  0  0  0
   36.7239   28.5843   38.6827 H   0  0  0  0  0  0  0  0  0  0  0  0
   35.8465   30.1854   38.2623 H   0  0  0  0  0  0  0  0  0  0  0  0
  2  1  2  0
  3  2  1  0
  4  5  1  0
  4  3  2  0
  5  6  2  0
  6  1  1  0
  7  3  1  0
  7 10  1  0
  7  9  1  0
  8  7  1  0
  1 11  1  0
  2 12  1  0
 13 14  1  0
 14 15  1  0
 15 13  1  0
 13 16  1  0
 14 17  1  0
 14 18  1  0
 15 19  1  0
 15 20  1  0
  5 13  1  0
M  ISO  2  11  14  12  14
M  END
>  <DihAtoms>  (1) 
3,4,12,13

>  <DihDeg>  (1) 
-138.85515052691565

$$$$
