
 OpenBabel03242509283D

 42 46  0  0  0  0  0  0  0  0999 V2000
   35.2330   29.5310   40.0160 C   0  0  0  0  0  0  0  0  0  0  0  0
   34.7530   28.6320   40.3790 H   0  0  0  0  0  0  0  0  0  0  0  0
   34.5300   30.4220   39.8950 H   0  0  0  0  0  0  0  0  0  0  0  0
   35.8500   29.4370   38.6700 C   0  0  0  0  0  0  0  0  0  0  0  0
   37.1710   29.5770   38.3540 C   0  0  0  0  0  0  0  0  0  0  0  0
   37.6980   29.5590   37.0960 C   0  0  0  0  0  0  0  0  0  0  0  0
   36.8550   29.3860   36.0140 C   0  0  0  0  0  0  0  0  0  0  0  0
   35.5100   29.2380   36.2730 C   0  0  0  0  0  0  0  0  0  0  0  0
   34.7170   29.0740   35.1600 C   0  0  0  0  0  0  0  0  0  0  0  0
   33.3690   28.9180   35.3100 C   0  0  0  0  0  0  0  0  0  0  0  0
   32.8160   28.9250   36.5670 C   0  0  0  0  0  0  0  0  0  0  0  0
   33.6610   29.0910   37.6400 C   0  0  0  0  0  0  0  0  0  0  0  0
   35.0040   29.2580   37.5720 C   0  0  0  0  0  0  0  0  0  0  0  0
   37.8430   29.7150   39.2040 H   0  0  0  0  0  0  0  0  0  0  0  0
   38.7670   29.6820   36.9890 H   0  0  0  0  0  0  0  0  0  0  0  0
   37.2710   29.3740   35.0180 H   0  0  0  0  0  0  0  0  0  0  0  0
   35.1070   29.0600   34.1500 H   0  0  0  0  0  0  0  0  0  0  0  0
   32.7080   28.7890   34.4540 H   0  0  0  0  0  0  0  0  0  0  0  0
   31.7480   28.8000   36.6880 H   0  0  0  0  0  0  0  0  0  0  0  0
   33.0460   29.0700   38.8860 O   0  0  0  0  0  0  0  0  0  0  0  0
   32.4530   28.2490   39.0840 H   0  0  0  0  0  0  0  0  0  0  0  0
   36.1270   30.0940   41.0780 C   0  0  0  0  0  0  0  0  0  0  0  0
   35.5650   30.6510   41.8590 H   0  0  0  0  0  0  0  0  0  0  0  0
   36.7620   30.8580   40.5710 H   0  0  0  0  0  0  0  0  0  0  0  0
   38.5620   28.1320   42.6820 C   0  0  0  0  0  0  0  0  0  0  0  0
   37.4620   27.3190   42.7890 C   0  0  0  0  0  0  0  0  0  0  0  0
   36.4070   28.0000   42.1750 C   0  0  0  0  0  0  0  0  0  0  0  0
   36.9470   29.1500   41.7530 N   0  0  0  0  0  0  0  0  0  0  0  0
   38.2100   29.2620   42.0330 N   0  0  0  0  0  0  0  0  0  0  0  0
   37.4880   26.3510   43.2710 H   0  0  0  0  0  0  0  0  0  0  0  0
   35.4100   27.5890   42.1110 H   0  0  0  0  0  0  0  0  0  0  0  0
   41.4410   26.4450   44.3480 C   0  0  0  0  0  0  0  0  0  0  0  0
   40.1360   26.6700   43.8880 C   0  0  0  0  0  0  0  0  0  0  0  0
   39.8930   27.8510   43.1760 C   0  0  0  0  0  0  0  0  0  0  0  0
   40.9060   28.7340   42.9520 N   0  0  0  0  0  0  0  0  0  0  0  0
   42.1600   28.4620   43.4260 C   0  0  0  0  0  0  0  0  0  0  0  0
   42.4140   27.3290   44.1140 N   0  0  0  0  0  0  0  0  0  0  0  0
   41.6400   25.5500   44.8910 H   0  0  0  0  0  0  0  0  0  0  0  0
   39.3440   25.9790   44.0610 H   0  0  0  0  0  0  0  0  0  0  0  0
   43.2250   29.4660   43.1510 C   0  0  0  0  0  3  0  0  0  0  0  0
   44.1860   29.1540   42.0010 C   0  0  0  0  0  2  0  0  0  0  0  0
   44.6620   29.1490   43.4450 C   0  0  0  0  0  2  0  0  0  0  0  0
  1  2  1  0  0  0  0
  1 22  1  0  0  0  0
  3  1  1  0  0  0  0
  4  1  1  0  0  0  0
  5  4  1  0  0  0  0
  5 14  1  0  0  0  0
  6  5  2  0  0  0  0
  7  8  2  0  0  0  0
  7  6  1  0  0  0  0
  8 13  1  0  0  0  0
  9 10  2  0  0  0  0
  9  8  1  0  0  0  0
 10 11  1  0  0  0  0
 11 19  1  0  0  0  0
 11 12  2  0  0  0  0
 12 20  1  0  0  0  0
 13 12  1  0  0  0  0
 13  4  2  0  0  0  0
 15  6  1  0  0  0  0
 16  7  1  0  0  0  0
 17  9  1  0  0  0  0
 18 10  1  0  0  0  0
 20 21  1  0  0  0  0
 22 28  1  0  0  0  0
 22 23  1  0  0  0  0
 24 22  1  0  0  0  0
 25 26  1  0  0  0  0
 25 34  1  0  0  0  0
 26 30  1  0  0  0  0
 27 26  2  0  0  0  0
 28 29  1  0  0  0  0
 28 27  1  0  0  0  0
 29 25  2  0  0  0  0
 31 27  1  0  0  0  0
 32 38  1  0  0  0  0
 33 39  1  0  0  0  0
 33 32  2  0  0  0  0
 34 33  1  0  0  0  0
 35 34  2  0  0  0  0
 35 36  1  0  0  0  0
 36 37  2  0  0  0  0
 37 32  1  0  0  0  0
 40 36  1  0  0  0  0
 40 42  1  0  0  0  0
 41 40  1  0  0  0  0
 41 42  1  0  0  0  0
M  END
>  <minimizedAffinity>
-5.73571491

>  <minimizedRMSD>
0.161345124

$$$$
