
 OpenBabel03242508503D

 43 46  0  0  1  0  0  0  0  0999 V2000
   39.0530   27.6380   42.2940 C   0  0  2  0  0  0  0  0  0  0  0  0
   38.8340   28.8690   42.9880 C   0  0  0  0  0  0  0  0  0  0  0  0
   37.3380   29.1740   42.8190 C   0  0  0  0  0  0  0  0  0  0  0  0
   36.6970   27.8320   42.4830 C   0  0  0  0  0  0  0  0  0  0  0  0
   37.7590   26.8000   42.6570 C   0  0  1  0  0  0  0  0  0  0  0  0
   38.9490   27.7540   41.2330 H   0  0  0  0  0  0  0  0  0  0  0  0
   38.9940   28.7160   44.0970 H   0  0  0  0  0  0  0  0  0  0  0  0
   39.3710   29.7620   42.6300 H   0  0  0  0  0  0  0  0  0  0  0  0
   37.2140   29.9120   41.9980 H   0  0  0  0  0  0  0  0  0  0  0  0
   36.9200   29.5500   43.7790 H   0  0  0  0  0  0  0  0  0  0  0  0
   36.2880   27.9080   41.4780 H   0  0  0  0  0  0  0  0  0  0  0  0
   35.8090   27.6550   43.1520 H   0  0  0  0  0  0  0  0  0  0  0  0
   37.8920   26.3760   43.6380 H   0  0  0  0  0  0  0  0  0  0  0  0
   40.6980   26.7490   44.0110 C   0  0  0  0  0  0  0  0  0  0  0  0
   40.2460   26.8720   42.6410 C   0  0  0  0  0  0  0  0  0  0  0  0
   40.9480   26.2710   41.6290 C   0  0  0  0  0  0  0  0  0  0  0  0
   42.0760   25.5690   42.0090 N   0  0  0  0  0  0  0  0  0  0  0  0
   42.5040   25.4550   43.3100 C   0  0  0  0  0  0  0  0  0  0  0  0
   41.7940   26.0600   44.3300 N   0  0  0  0  0  0  0  0  0  0  0  0
   43.6980   24.7020   43.5530 N   0  0  0  0  0  0  0  0  0  0  0  0
   40.0880   27.2470   44.7240 H   0  0  0  0  0  0  0  0  0  0  0  0
   44.3050   25.2910   44.1930 H   0  0  0  0  0  0  0  0  0  0  0  0
   43.7780   23.7480   43.0870 H   0  0  0  0  0  0  0  0  0  0  0  0
   40.7100   26.2780   40.2160 C   0  0  0  0  0  0  0  0  0  0  0  0
   39.7620   25.7580   39.8970 H   0  0  0  0  0  0  0  0  0  0  0  0
   41.4670   25.6730   39.6740 H   0  0  0  0  0  0  0  0  0  0  0  0
   40.6210   27.6080   39.5600 C   0  0  0  0  0  0  0  0  0  0  0  0
   39.4940   27.6520   38.7220 C   0  0  0  0  0  0  0  0  0  0  0  0
   39.1170   28.7510   37.9710 C   0  0  0  0  0  0  0  0  0  0  0  0
   38.2580   28.8140   37.3210 H   0  0  0  0  0  0  0  0  0  0  0  0
   39.9030   29.9010   38.0430 C   0  0  0  0  0  0  0  0  0  0  0  0
   41.0120   29.8660   38.8630 C   0  0  0  0  0  0  0  0  0  0  0  0
   41.6860   30.7110   38.9860 H   0  0  0  0  0  0  0  0  0  0  0  0
   41.3680   28.7620   39.6020 C   0  0  0  0  0  0  0  0  0  0  0  0
   37.4210   25.7980   41.6080 C   0  0  0  0  0  0  0  0  0  0  0  0
   36.7310   26.1480   40.4740 N   0  0  0  0  0  0  0  0  0  0  0  0
   36.5960   25.0610   39.7450 O   0  0  0  0  0  0  0  0  0  0  0  0
   37.1670   24.0650   40.3720 C   0  0  0  0  0  0  0  0  0  0  0  0
   37.6870   24.4970   41.5310 N   0  0  0  0  0  0  0  0  0  0  0  0
   37.1800   22.6810   39.7890 C   0  0  0  0  0  0  0  0  0  0  0  0
   37.8380   22.6980   38.5960 F   0  0  0  0  0  0  0  0  0  0  0  0
   37.7920   21.8010   40.6710 F   0  0  0  0  0  0  0  0  0  0  0  0
   35.8800   22.2510   39.5560 F   0  0  0  0  0  0  0  0  0  0  0  0
  1  6  1  6  0  0  0
  1 15  1  0  0  0  0
  1  5  1  0  0  0  0
  1  2  1  0  0  0  0
  2  7  1  0  0  0  0
  3  2  1  0  0  0  0
  3 10  1  0  0  0  0
  4  5  1  0  0  0  0
  4  3  1  0  0  0  0
  4 12  1  0  0  0  0
  5 13  1  1  0  0  0
  8  2  1  0  0  0  0
  9  3  1  0  0  0  0
 11  4  1  0  0  0  0
 14 19  1  0  0  0  0
 14 21  1  0  0  0  0
 15 14  2  0  0  0  0
 16 17  2  0  0  0  0
 16 15  1  0  0  0  0
 17 18  1  0  0  0  0
 18 20  1  0  0  0  0
 18 19  2  0  0  0  0
 20 22  1  0  0  0  0
 23 20  1  0  0  0  0
 24 16  1  0  0  0  0
 25 24  1  0  0  0  0
 26 24  1  0  0  0  0
 27 34  1  0  0  0  0
 27 24  1  0  0  0  0
 28 27  2  0  0  0  0
 29 31  2  0  0  0  0
 29 28  1  0  0  0  0
 30 29  1  0  0  0  0
 31 32  1  0  0  0  0
 32 33  1  0  0  0  0
 32 34  2  0  0  0  0
 35  5  1  0  0  0  0
 36 35  2  0  0  0  0
 37 38  1  0  0  0  0
 37 36  1  0  0  0  0
 38 39  2  0  0  0  0
 39 35  1  0  0  0  0
 40 38  1  0  0  0  0
 40 42  1  0  0  0  0
 41 40  1  0  0  0  0
 43 40  1  0  0  0  0
M  END
>  <minimizedAffinity>
-5.52064085

>  <minimizedRMSD>
5.612463

$$$$
