
 OpenBabel03242507053D

 21 22  0  0  0  0  0  0  0  0999 V2000
   35.6320   29.3250   40.8600 C   0  0  0  0  0  0  0  0  0  0  0  0
   35.0390   28.5770   40.2780 H   0  0  0  0  0  0  0  0  0  0  0  0
   34.9750   29.9380   41.5200 H   0  0  0  0  0  0  0  0  0  0  0  0
   38.1800   28.6850   43.4150 C   0  0  0  0  0  0  0  0  0  0  0  0
   38.4190   27.3200   43.2770 C   0  0  0  0  0  0  0  0  0  0  0  0
   37.7220   26.5910   42.3180 C   0  0  0  0  0  0  0  0  0  0  0  0
   36.8220   27.2730   41.5470 N   0  0  0  0  0  0  0  0  0  0  0  0
   36.6050   28.5910   41.6950 C   0  0  0  0  0  0  0  0  0  0  0  0
   37.2860   29.2770   42.6240 N   0  0  0  0  0  0  0  0  0  0  0  0
   38.7110   29.2830   44.1580 H   0  0  0  0  0  0  0  0  0  0  0  0
   39.1640   26.9050   43.9590 H   0  0  0  0  0  0  0  0  0  0  0  0
   37.9850   25.2450   42.2110 O   0  0  0  0  0  0  0  0  0  0  0  0
   38.8010   24.9180   41.7150 H   0  0  0  0  0  0  0  0  0  0  0  0
   36.3040   30.2920   39.9340 C   0  0  0  0  0  0  0  0  0  0  0  0
   36.6230   31.5620   40.3630 C   0  0  0  0  0  0  0  0  0  0  0  0
   37.2500   32.4810   39.5200 C   0  0  0  0  0  0  0  0  0  0  0  0
   37.4750   33.4560   39.9040 H   0  0  0  0  0  0  0  0  0  0  0  0
   37.5390   32.0690   38.2360 C   0  0  0  0  0  0  0  0  0  0  0  0
   37.2450   30.8050   37.7420 C   0  0  0  0  0  0  0  0  0  0  0  0
   37.4870   30.5130   36.7230 H   0  0  0  0  0  0  0  0  0  0  0  0
   36.6280   29.9580   38.6340 C   0  0  0  0  0  0  0  0  0  0  0  0
  1  3  1  0  0  0  0
  1  8  1  0  0  0  0
  2  1  1  0  0  0  0
  4 10  1  0  0  0  0
  5  4  1  0  0  0  0
  5 11  1  0  0  0  0
  6  5  2  0  0  0  0
  7  8  2  0  0  0  0
  7  6  1  0  0  0  0
  8  9  1  0  0  0  0
  9  4  2  0  0  0  0
 12  6  1  0  0  0  0
 13 12  1  0  0  0  0
 14 15  1  0  0  0  0
 14  1  1  0  0  0  0
 16 17  1  0  0  0  0
 16 15  2  0  0  0  0
 18 16  1  0  0  0  0
 19 18  2  0  0  0  0
 19 21  1  0  0  0  0
 20 19  1  0  0  0  0
 21 14  2  0  0  0  0
M  END
>  <minimizedAffinity>
-4.63427782

>  <minimizedRMSD>
1.50052595

$$$$
