
 OpenBabel03242509283D

 42 46  0  0  0  0  0  0  0  0999 V2000
   35.2320   29.5260   40.0140 C   0  0  0  0  0  0  0  0  0  0  0  0
   34.7540   28.6270   40.3770 H   0  0  0  0  0  0  0  0  0  0  0  0
   34.5270   30.4160   39.8930 H   0  0  0  0  0  0  0  0  0  0  0  0
   35.8480   29.4340   38.6670 C   0  0  0  0  0  0  0  0  0  0  0  0
   37.1690   29.5730   38.3510 C   0  0  0  0  0  0  0  0  0  0  0  0
   37.6960   29.5550   37.0930 C   0  0  0  0  0  0  0  0  0  0  0  0
   36.8520   29.3850   36.0100 C   0  0  0  0  0  0  0  0  0  0  0  0
   35.5070   29.2380   36.2700 C   0  0  0  0  0  0  0  0  0  0  0  0
   34.7130   29.0760   35.1570 C   0  0  0  0  0  0  0  0  0  0  0  0
   33.3660   28.9210   35.3080 C   0  0  0  0  0  0  0  0  0  0  0  0
   32.8120   28.9270   36.5650 C   0  0  0  0  0  0  0  0  0  0  0  0
   33.6580   29.0920   37.6370 C   0  0  0  0  0  0  0  0  0  0  0  0
   35.0010   29.2570   37.5690 C   0  0  0  0  0  0  0  0  0  0  0  0
   37.8420   29.7090   39.2010 H   0  0  0  0  0  0  0  0  0  0  0  0
   38.7650   29.6770   36.9850 H   0  0  0  0  0  0  0  0  0  0  0  0
   37.2680   29.3740   35.0140 H   0  0  0  0  0  0  0  0  0  0  0  0
   35.1030   29.0630   34.1470 H   0  0  0  0  0  0  0  0  0  0  0  0
   32.7040   28.7940   34.4520 H   0  0  0  0  0  0  0  0  0  0  0  0
   31.7450   28.8030   36.6860 H   0  0  0  0  0  0  0  0  0  0  0  0
   33.0440   29.0690   38.8830 O   0  0  0  0  0  0  0  0  0  0  0  0
   32.4500   28.2490   39.0810 H   0  0  0  0  0  0  0  0  0  0  0  0
   36.1260   30.0910   41.0750 C   0  0  0  0  0  0  0  0  0  0  0  0
   35.5630   30.6490   41.8550 H   0  0  0  0  0  0  0  0  0  0  0  0
   36.7610   30.8550   40.5670 H   0  0  0  0  0  0  0  0  0  0  0  0
   38.5610   28.1320   42.6820 C   0  0  0  0  0  0  0  0  0  0  0  0
   37.4610   27.3200   42.7910 C   0  0  0  0  0  0  0  0  0  0  0  0
   36.4060   27.9990   42.1760 C   0  0  0  0  0  0  0  0  0  0  0  0
   36.9460   29.1480   41.7520 N   0  0  0  0  0  0  0  0  0  0  0  0
   38.2090   29.2610   42.0310 N   0  0  0  0  0  0  0  0  0  0  0  0
   37.4860   26.3530   43.2750 H   0  0  0  0  0  0  0  0  0  0  0  0
   35.4080   27.5890   42.1140 H   0  0  0  0  0  0  0  0  0  0  0  0
   41.4400   26.4460   44.3470 C   0  0  0  0  0  0  0  0  0  0  0  0
   40.1360   26.6700   43.8880 C   0  0  0  0  0  0  0  0  0  0  0  0
   39.8920   27.8520   43.1750 C   0  0  0  0  0  0  0  0  0  0  0  0
   40.9040   28.7350   42.9520 N   0  0  0  0  0  0  0  0  0  0  0  0
   42.1590   28.4640   43.4260 C   0  0  0  0  0  0  0  0  0  0  0  0
   42.4130   27.3310   44.1140 N   0  0  0  0  0  0  0  0  0  0  0  0
   41.6400   25.5500   44.8900 H   0  0  0  0  0  0  0  0  0  0  0  0
   39.3430   25.9790   44.0610 H   0  0  0  0  0  0  0  0  0  0  0  0
   43.2230   29.4680   43.1510 C   0  0  0  0  0  3  0  0  0  0  0  0
   44.1840   29.1550   42.0000 C   0  0  0  0  0  2  0  0  0  0  0  0
   44.6620   29.1490   43.4430 C   0  0  0  0  0  2  0  0  0  0  0  0
  1  2  1  0  0  0  0
  1 22  1  0  0  0  0
  3  1  1  0  0  0  0
  4  1  1  0  0  0  0
  5  4  1  0  0  0  0
  5 14  1  0  0  0  0
  6  5  2  0  0  0  0
  7  8  2  0  0  0  0
  7  6  1  0  0  0  0
  8 13  1  0  0  0  0
  9 10  2  0  0  0  0
  9  8  1  0  0  0  0
 10 11  1  0  0  0  0
 11 19  1  0  0  0  0
 11 12  2  0  0  0  0
 12 20  1  0  0  0  0
 13 12  1  0  0  0  0
 13  4  2  0  0  0  0
 15  6  1  0  0  0  0
 16  7  1  0  0  0  0
 17  9  1  0  0  0  0
 18 10  1  0  0  0  0
 20 21  1  0  0  0  0
 22 28  1  0  0  0  0
 22 23  1  0  0  0  0
 24 22  1  0  0  0  0
 25 26  1  0  0  0  0
 25 34  1  0  0  0  0
 26 30  1  0  0  0  0
 27 26  2  0  0  0  0
 28 29  1  0  0  0  0
 28 27  1  0  0  0  0
 29 25  2  0  0  0  0
 31 27  1  0  0  0  0
 32 38  1  0  0  0  0
 33 39  1  0  0  0  0
 33 32  2  0  0  0  0
 34 33  1  0  0  0  0
 35 34  2  0  0  0  0
 35 36  1  0  0  0  0
 36 37  2  0  0  0  0
 37 32  1  0  0  0  0
 40 36  1  0  0  0  0
 40 42  1  0  0  0  0
 41 40  1  0  0  0  0
 41 42  1  0  0  0  0
M  END
>  <minimizedAffinity>
-5.73372507

>  <minimizedRMSD>
0.427215427

$$$$
