
 OpenBabel03242509283D

 42 46  0  0  0  0  0  0  0  0999 V2000
   35.2370   29.4850   40.0230 C   0  0  0  0  0  0  0  0  0  0  0  0
   34.7790   28.5780   40.3910 H   0  0  0  0  0  0  0  0  0  0  0  0
   34.5130   30.3600   39.9000 H   0  0  0  0  0  0  0  0  0  0  0  0
   35.8510   29.4000   38.6760 C   0  0  0  0  0  0  0  0  0  0  0  0
   37.1740   29.5280   38.3600 C   0  0  0  0  0  0  0  0  0  0  0  0
   37.7000   29.5190   37.1020 C   0  0  0  0  0  0  0  0  0  0  0  0
   36.8550   29.3690   36.0180 C   0  0  0  0  0  0  0  0  0  0  0  0
   35.5080   29.2340   36.2770 C   0  0  0  0  0  0  0  0  0  0  0  0
   34.7120   29.0930   35.1620 C   0  0  0  0  0  0  0  0  0  0  0  0
   33.3630   28.9520   35.3120 C   0  0  0  0  0  0  0  0  0  0  0  0
   32.8100   28.9500   36.5690 C   0  0  0  0  0  0  0  0  0  0  0  0
   33.6580   29.0940   37.6430 C   0  0  0  0  0  0  0  0  0  0  0  0
   35.0030   29.2450   37.5760 C   0  0  0  0  0  0  0  0  0  0  0  0
   37.8490   29.6480   39.2120 H   0  0  0  0  0  0  0  0  0  0  0  0
   38.7700   29.6300   36.9950 H   0  0  0  0  0  0  0  0  0  0  0  0
   37.2700   29.3640   35.0220 H   0  0  0  0  0  0  0  0  0  0  0  0
   35.1020   29.0870   34.1520 H   0  0  0  0  0  0  0  0  0  0  0  0
   32.7000   28.8410   34.4550 H   0  0  0  0  0  0  0  0  0  0  0  0
   31.7410   28.8370   36.6890 H   0  0  0  0  0  0  0  0  0  0  0  0
   33.0440   29.0650   38.8890 O   0  0  0  0  0  0  0  0  0  0  0  0
   32.4410   28.2490   39.0770 H   0  0  0  0  0  0  0  0  0  0  0  0
   36.1210   30.0730   41.0800 C   0  0  0  0  0  0  0  0  0  0  0  0
   35.5480   30.6220   41.8600 H   0  0  0  0  0  0  0  0  0  0  0  0
   36.7380   30.8490   40.5680 H   0  0  0  0  0  0  0  0  0  0  0  0
   38.6010   28.1740   42.6900 C   0  0  0  0  0  0  0  0  0  0  0  0
   37.5200   27.3360   42.7990 C   0  0  0  0  0  0  0  0  0  0  0  0
   36.4500   27.9900   42.1830 C   0  0  0  0  0  0  0  0  0  0  0  0
   36.9630   29.1510   41.7580 N   0  0  0  0  0  0  0  0  0  0  0  0
   38.2220   29.2940   42.0380 N   0  0  0  0  0  0  0  0  0  0  0  0
   37.5690   26.3700   43.2840 H   0  0  0  0  0  0  0  0  0  0  0  0
   35.4630   27.5550   42.1210 H   0  0  0  0  0  0  0  0  0  0  0  0
   41.5300   26.5370   44.3170 C   0  0  0  0  0  0  0  0  0  0  0  0
   40.2210   26.7290   43.8550 C   0  0  0  0  0  0  0  0  0  0  0  0
   39.9380   27.9260   43.1850 C   0  0  0  0  0  0  0  0  0  0  0  0
   40.9180   28.8550   43.0040 N   0  0  0  0  0  0  0  0  0  0  0  0
   42.1780   28.6140   43.4780 C   0  0  0  0  0  0  0  0  0  0  0  0
   42.4700   27.4660   44.1260 N   0  0  0  0  0  0  0  0  0  0  0  0
   41.7600   25.6300   44.8290 H   0  0  0  0  0  0  0  0  0  0  0  0
   39.4550   26.0030   43.9950 H   0  0  0  0  0  0  0  0  0  0  0  0
   43.2050   29.6670   43.2500 C   0  0  0  0  0  3  0  0  0  0  0  0
   43.5800   30.5360   44.4530 C   0  0  0  0  0  2  0  0  0  0  0  0
   42.8200   31.1190   43.2720 C   0  0  0  0  0  2  0  0  0  0  0  0
  1  2  1  0  0  0  0
  1 22  1  0  0  0  0
  3  1  1  0  0  0  0
  4  1  1  0  0  0  0
  5  4  1  0  0  0  0
  5 14  1  0  0  0  0
  6  5  2  0  0  0  0
  7  8  2  0  0  0  0
  7  6  1  0  0  0  0
  8 13  1  0  0  0  0
  9 10  2  0  0  0  0
  9  8  1  0  0  0  0
 10 11  1  0  0  0  0
 11 19  1  0  0  0  0
 11 12  2  0  0  0  0
 12 20  1  0  0  0  0
 13 12  1  0  0  0  0
 13  4  2  0  0  0  0
 15  6  1  0  0  0  0
 16  7  1  0  0  0  0
 17  9  1  0  0  0  0
 18 10  1  0  0  0  0
 20 21  1  0  0  0  0
 22 28  1  0  0  0  0
 22 23  1  0  0  0  0
 24 22  1  0  0  0  0
 25 26  1  0  0  0  0
 25 34  1  0  0  0  0
 26 30  1  0  0  0  0
 27 26  2  0  0  0  0
 28 29  1  0  0  0  0
 28 27  1  0  0  0  0
 29 25  2  0  0  0  0
 31 27  1  0  0  0  0
 32 38  1  0  0  0  0
 33 39  1  0  0  0  0
 33 32  2  0  0  0  0
 34 33  1  0  0  0  0
 35 34  2  0  0  0  0
 35 36  1  0  0  0  0
 36 37  2  0  0  0  0
 37 32  1  0  0  0  0
 40 42  1  0  0  0  0
 40 36  1  0  0  0  0
 40 41  1  0  0  0  0
 42 41  1  0  0  0  0
M  END
>  <minimizedAffinity>
-6.03351831

>  <minimizedRMSD>
0.554543376

$$$$
