
 OpenBabel03242509283D

 42 46  0  0  0  0  0  0  0  0999 V2000
   35.2330   29.5320   40.0180 C   0  0  0  0  0  0  0  0  0  0  0  0
   34.7530   28.6340   40.3800 H   0  0  0  0  0  0  0  0  0  0  0  0
   34.5310   30.4240   39.8960 H   0  0  0  0  0  0  0  0  0  0  0  0
   35.8500   29.4370   38.6720 C   0  0  0  0  0  0  0  0  0  0  0  0
   37.1710   29.5770   38.3560 C   0  0  0  0  0  0  0  0  0  0  0  0
   37.6990   29.5590   37.0980 C   0  0  0  0  0  0  0  0  0  0  0  0
   36.8560   29.3850   36.0150 C   0  0  0  0  0  0  0  0  0  0  0  0
   35.5100   29.2370   36.2750 C   0  0  0  0  0  0  0  0  0  0  0  0
   34.7180   29.0730   35.1610 C   0  0  0  0  0  0  0  0  0  0  0  0
   33.3700   28.9170   35.3120 C   0  0  0  0  0  0  0  0  0  0  0  0
   32.8160   28.9240   36.5680 C   0  0  0  0  0  0  0  0  0  0  0  0
   33.6610   29.0910   37.6410 C   0  0  0  0  0  0  0  0  0  0  0  0
   35.0040   29.2580   37.5730 C   0  0  0  0  0  0  0  0  0  0  0  0
   37.8440   29.7160   39.2060 H   0  0  0  0  0  0  0  0  0  0  0  0
   38.7670   29.6820   36.9900 H   0  0  0  0  0  0  0  0  0  0  0  0
   37.2720   29.3730   35.0200 H   0  0  0  0  0  0  0  0  0  0  0  0
   35.1080   29.0580   34.1510 H   0  0  0  0  0  0  0  0  0  0  0  0
   32.7090   28.7870   34.4550 H   0  0  0  0  0  0  0  0  0  0  0  0
   31.7490   28.7990   36.6890 H   0  0  0  0  0  0  0  0  0  0  0  0
   33.0470   29.0700   38.8870 O   0  0  0  0  0  0  0  0  0  0  0  0
   32.4530   28.2500   39.0850 H   0  0  0  0  0  0  0  0  0  0  0  0
   36.1270   30.0940   41.0800 C   0  0  0  0  0  0  0  0  0  0  0  0
   35.5650   30.6510   41.8610 H   0  0  0  0  0  0  0  0  0  0  0  0
   36.7620   30.8590   40.5730 H   0  0  0  0  0  0  0  0  0  0  0  0
   38.5630   28.1330   42.6820 C   0  0  0  0  0  0  0  0  0  0  0  0
   37.4630   27.3190   42.7880 C   0  0  0  0  0  0  0  0  0  0  0  0
   36.4080   28.0000   42.1750 C   0  0  0  0  0  0  0  0  0  0  0  0
   36.9480   29.1500   41.7540 N   0  0  0  0  0  0  0  0  0  0  0  0
   38.2100   29.2630   42.0340 N   0  0  0  0  0  0  0  0  0  0  0  0
   37.4890   26.3510   43.2700 H   0  0  0  0  0  0  0  0  0  0  0  0
   35.4110   27.5890   42.1110 H   0  0  0  0  0  0  0  0  0  0  0  0
   41.4410   26.4450   44.3470 C   0  0  0  0  0  0  0  0  0  0  0  0
   40.1370   26.6700   43.8880 C   0  0  0  0  0  0  0  0  0  0  0  0
   39.8940   27.8510   43.1760 C   0  0  0  0  0  0  0  0  0  0  0  0
   40.9070   28.7340   42.9530 N   0  0  0  0  0  0  0  0  0  0  0  0
   42.1610   28.4630   43.4270 C   0  0  0  0  0  0  0  0  0  0  0  0
   42.4140   27.3290   44.1140 N   0  0  0  0  0  0  0  0  0  0  0  0
   41.6410   25.5490   44.8910 H   0  0  0  0  0  0  0  0  0  0  0  0
   39.3440   25.9790   44.0610 H   0  0  0  0  0  0  0  0  0  0  0  0
   43.2260   29.4660   43.1520 C   0  0  0  0  0  3  0  0  0  0  0  0
   44.1860   29.1530   42.0010 C   0  0  0  0  0  2  0  0  0  0  0  0
   44.6630   29.1470   43.4460 C   0  0  0  0  0  2  0  0  0  0  0  0
  1  2  1  0  0  0  0
  1 22  1  0  0  0  0
  3  1  1  0  0  0  0
  4  1  1  0  0  0  0
  5  4  1  0  0  0  0
  5 14  1  0  0  0  0
  6  5  2  0  0  0  0
  7  8  2  0  0  0  0
  7  6  1  0  0  0  0
  8 13  1  0  0  0  0
  9 10  2  0  0  0  0
  9  8  1  0  0  0  0
 10 11  1  0  0  0  0
 11 19  1  0  0  0  0
 11 12  2  0  0  0  0
 12 20  1  0  0  0  0
 13 12  1  0  0  0  0
 13  4  2  0  0  0  0
 15  6  1  0  0  0  0
 16  7  1  0  0  0  0
 17  9  1  0  0  0  0
 18 10  1  0  0  0  0
 20 21  1  0  0  0  0
 22 28  1  0  0  0  0
 22 23  1  0  0  0  0
 24 22  1  0  0  0  0
 25 26  1  0  0  0  0
 25 34  1  0  0  0  0
 26 30  1  0  0  0  0
 27 26  2  0  0  0  0
 28 29  1  0  0  0  0
 28 27  1  0  0  0  0
 29 25  2  0  0  0  0
 31 27  1  0  0  0  0
 32 38  1  0  0  0  0
 33 39  1  0  0  0  0
 33 32  2  0  0  0  0
 34 33  1  0  0  0  0
 35 34  2  0  0  0  0
 35 36  1  0  0  0  0
 36 37  2  0  0  0  0
 37 32  1  0  0  0  0
 40 36  1  0  0  0  0
 40 42  1  0  0  0  0
 41 40  1  0  0  0  0
 41 42  1  0  0  0  0
M  END
>  <minimizedAffinity>
-5.73278618

>  <minimizedRMSD>
0.496337622

$$$$
