
 OpenBabel03242506433D

 24 27  0  0  0  0  0  0  0  0999 V2000
   39.0810   27.8390   40.3500 O   0  0  0  0  0  0  0  0  0  0  0  0
   35.4080   30.4710   40.8330 N   0  0  0  0  0  0  0  0  0  0  0  0
   35.0900   29.1880   40.6070 C   0  0  0  0  0  0  0  0  0  0  0  0
   36.2410   28.4930   40.4790 N   0  0  0  0  0  0  0  0  0  0  0  0
   37.3050   29.3040   40.6180 C   0  0  0  0  0  0  0  0  0  0  0  0
   38.6900   29.1550   40.5840 C   0  0  0  0  0  0  0  0  0  0  0  0
   39.4710   30.2370   40.7720 N   0  0  0  0  0  0  0  0  0  0  0  0
   38.9230   31.4380   40.9870 C   0  0  0  0  0  0  0  0  0  0  0  0
   37.5820   31.6420   41.0310 N   0  0  0  0  0  0  0  0  0  0  0  0
   36.7470   30.5760   40.8460 C   0  0  0  0  0  0  0  0  0  0  0  0
   34.7180   31.2560   40.9760 H   0  0  0  0  0  0  0  0  0  0  0  0
   34.1090   28.7170   40.5290 H   0  0  0  0  0  0  0  0  0  0  0  0
   39.6230   32.2610   41.1300 H   0  0  0  0  0  0  0  0  0  0  0  0
   38.8990   24.9860   42.6100 C   0  0  0  0  0  0  0  0  0  0  0  0
   38.6480   25.8450   41.5180 C   0  0  0  0  0  0  0  0  0  0  0  0
   39.3610   27.0400   41.4290 C   0  0  0  0  0  0  0  0  0  0  0  0
   40.2740   27.3340   42.4050 N   0  0  0  0  0  0  0  0  0  0  0  0
   40.4940   26.4930   43.4410 C   0  0  0  0  0  0  0  0  0  0  0  0
   39.8090   25.3290   43.5380 N   0  0  0  0  0  0  0  0  0  0  0  0
   38.3320   24.0650   42.6560 H   0  0  0  0  0  0  0  0  0  0  0  0
   37.9200   25.5780   40.7680 H   0  0  0  0  0  0  0  0  0  0  0  0
   41.5120   26.8880   44.4690 C   0  0  0  0  0  0  0  0  0  0  0  0
   42.5670   27.8690   44.1000 C   0  0  0  0  0  0  0  0  0  0  0  0
   42.9060   26.4290   44.3950 C   0  0  0  0  0  0  0  0  0  0  0  0
  1  6  1  0  0  0  0
  1 16  1  0  0  0  0
  2 10  1  0  0  0  0
  2 11  1  0  0  0  0
  3  2  1  0  0  0  0
  4  3  2  0  0  0  0
  4  5  1  0  0  0  0
  5 10  1  0  0  0  0
  6  5  2  0  0  0  0
  6  7  1  0  0  0  0
  7  8  2  0  0  0  0
  8  9  1  0  0  0  0
  8 13  1  0  0  0  0
 10  9  2  0  0  0  0
 12  3  1  0  0  0  0
 14 20  1  0  0  0  0
 14 19  1  0  0  0  0
 15 14  2  0  0  0  0
 16 15  1  0  0  0  0
 16 17  2  0  0  0  0
 17 18  1  0  0  0  0
 18 19  2  0  0  0  0
 18 22  1  0  0  0  0
 21 15  1  0  0  0  0
 23 24  1  0  0  0  0
 23 22  1  0  0  0  0
 24 22  1  0  0  0  0
M  END
>  <minimizedAffinity>
-4.49606371

>  <minimizedRMSD>
0.848696232

$$$$
