
 OpenBabel03242509143D

 19 21  0  0  1  0  0  0  0  0999 V2000
   37.8580   28.2800   42.9150 C   0  0  1  0  0  0  0  0  0  0  0  0
   36.7270   27.7550   43.6480 C   0  0  0  0  0  0  0  0  0  0  0  0
   37.0010   27.1000   42.3320 C   0  0  2  0  0  0  0  0  0  0  0  0
   38.9200   27.9860   43.0990 H   0  0  0  0  0  0  0  0  0  0  0  0
   36.8570   27.1880   44.5830 H   0  0  0  0  0  0  0  0  0  0  0  0
   35.8060   28.3830   43.6640 H   0  0  0  0  0  0  0  0  0  0  0  0
   36.4100   27.3120   41.4330 H   0  0  0  0  0  0  0  0  0  0  0  0
   37.7480   29.5590   42.1190 C   0  0  0  0  0  0  0  0  0  0  0  0
   38.9290   30.3140   42.0050 C   0  0  0  0  0  0  0  0  0  0  0  0
   38.8310   31.5100   41.2860 C   0  0  0  0  0  0  0  0  0  0  0  0
   37.6290   31.8650   40.7540 N   0  0  0  0  0  0  0  0  0  0  0  0
   36.5110   31.1030   40.8890 C   0  0  0  0  0  0  0  0  0  0  0  0
   36.5790   29.9370   41.5820 N   0  0  0  0  0  0  0  0  0  0  0  0
   39.8540   29.9810   42.4500 H   0  0  0  0  0  0  0  0  0  0  0  0
   39.6910   32.1300   41.1620 H   0  0  0  0  0  0  0  0  0  0  0  0
   35.5740   31.4190   40.4510 H   0  0  0  0  0  0  0  0  0  0  0  0
   37.6390   25.7360   42.4360 C   0  0  0  0  0  0  0  0  0  0  0  0
   37.8740   25.0310   41.0960 C   0  0  0  0  0  0  0  0  0  0  0  0
   36.9060   24.5060   42.1110 C   0  0  0  0  0  0  0  0  0  0  0  0
  1  4  1  1  0  0  0
  1  2  1  0  0  0  0
  2  6  1  0  0  0  0
  2  5  1  0  0  0  0
  3  7  1  6  0  0  0
  3 17  1  0  0  0  0
  3  1  1  0  0  0  0
  3  2  1  0  0  0  0
  8  1  1  0  0  0  0
  9  8  1  0  0  0  0
  9 14  1  0  0  0  0
 10  9  2  0  0  0  0
 11 12  2  0  0  0  0
 11 10  1  0  0  0  0
 12 13  1  0  0  0  0
 13  8  2  0  0  0  0
 15 10  1  0  0  0  0
 16 12  1  0  0  0  0
 18 19  1  0  0  0  0
 18 17  1  0  0  0  0
 19 17  1  0  0  0  0
M  END
>  <minimizedAffinity>
-4.17909765

>  <minimizedRMSD>
2.38441062

$$$$
