
 OpenBabel03242509173D

 32 35  0  0  1  0  0  0  0  0999 V2000
   38.2610   29.1420   41.9990 C   0  0  1  0  0  0  0  0  0  0  0  0
   37.3600   28.8250   43.1360 C   0  0  0  0  0  0  0  0  0  0  0  0
   36.9400   28.3900   41.8080 C   0  0  2  0  0  0  0  0  0  0  0  0
   39.2260   28.6870   42.1030 H   0  0  0  0  0  0  0  0  0  0  0  0
   37.6750   28.0870   43.8870 H   0  0  0  0  0  0  0  0  0  0  0  0
   36.9320   29.7390   43.6180 H   0  0  0  0  0  0  0  0  0  0  0  0
   36.3570   29.0070   41.0850 H   0  0  0  0  0  0  0  0  0  0  0  0
   36.9930   26.9900   41.4260 C   0  0  0  0  0  0  0  0  0  0  0  0
   37.1980   26.0290   42.4140 C   0  0  0  0  0  0  0  0  0  0  0  0
   37.0660   24.7000   42.1400 C   0  0  0  0  0  0  0  0  0  0  0  0
   36.7260   24.3280   40.8560 C   0  0  0  0  0  0  0  0  0  0  0  0
   36.5330   25.2700   39.8970 C   0  0  0  0  0  0  0  0  0  0  0  0
   36.6680   26.6420   40.1750 C   0  0  0  0  0  0  0  0  0  0  0  0
   37.4650   26.3810   43.4130 H   0  0  0  0  0  0  0  0  0  0  0  0
   37.2420   24.0230   42.9710 H   0  0  0  0  0  0  0  0  0  0  0  0
   36.6520   23.2490   40.7670 H   0  0  0  0  0  0  0  0  0  0  0  0
   36.2830   24.7730   38.9780 H   0  0  0  0  0  0  0  0  0  0  0  0
   36.4370   27.3890   38.9390 C   0  0  0  0  0  0  0  0  0  0  0  0
   37.6740   28.1710   38.5640 C   0  0  0  0  0  0  0  0  0  0  0  0
   37.4900   28.8940   37.2490 C   0  0  0  0  0  0  0  0  0  0  0  0
   36.1770   29.5660   37.0630 C   0  0  0  0  0  0  0  0  0  0  0  0
   34.9920   28.8500   37.6660 C   0  0  0  0  0  0  0  0  0  0  0  0
   35.4100   28.5430   39.1160 C   0  0  0  0  0  0  0  0  0  0  0  0
   38.2700   30.5360   41.4570 C   0  0  0  0  0  0  0  0  0  0  0  0
   37.1320   30.9820   40.7850 C   0  0  0  0  0  0  0  0  0  0  0  0
   37.0900   32.2630   40.2450 C   0  0  0  0  0  0  0  0  0  0  0  0
   38.2200   33.0430   40.4170 N   0  0  0  0  0  0  0  0  0  0  0  0
   39.3110   32.5710   41.0840 C   0  0  0  0  0  0  0  0  0  0  0  0
   39.3290   31.2920   41.6110 N   0  0  0  0  0  0  0  0  0  0  0  0
   36.1860   30.5820   40.5780 H   0  0  0  0  0  0  0  0  0  0  0  0
   36.3230   32.7780   39.7020 H   0  0  0  0  0  0  0  0  0  0  0  0
   40.1630   33.2270   41.1880 H   0  0  0  0  0  0  0  0  0  0  0  0
  1  4  1  6  0  0  0
  1  2  1  0  0  0  0
  2  6  1  0  0  0  0
  2  5  1  0  0  0  0
  3  7  1  6  0  0  0
  3  1  1  0  0  0  0
  3  2  1  0  0  0  0
  8  3  1  0  0  0  0
  8  9  1  0  0  0  0
  9 14  1  0  0  0  0
 10  9  2  0  0  0  0
 10 15  1  0  0  0  0
 11 10  1  0  0  0  0
 12 13  1  0  0  0  0
 12 11  2  0  0  0  0
 13  8  2  0  0  0  0
 16 11  1  0  0  0  0
 17 12  1  0  0  0  0
 18 23  1  0  0  0  0
 18 13  1  0  0  0  0
 19 18  1  0  0  0  0
 20 19  1  0  0  0  0
 21 20  1  0  0  0  0
 21 22  1  0  0  0  0
 22 23  1  0  0  0  0
 24 29  1  0  0  0  0
 24  1  1  0  0  0  0
 25 24  2  0  0  0  0
 26 27  2  0  0  0  0
 26 25  1  0  0  0  0
 27 28  1  0  0  0  0
 28 32  1  0  0  0  0
 28 29  2  0  0  0  0
 30 25  1  0  0  0  0
 31 26  1  0  0  0  0
M  END
>  <minimizedAffinity>
-5.84322262

>  <minimizedRMSD>
0.915699601

$$$$
