
 OpenBabel03242509283D

 45 49  0  0  0  0  0  0  0  0999 V2000
   36.1990   30.1620   41.0890 C   0  0  0  0  0  0  0  0  0  0  0  0
   36.8850   30.8940   40.5940 H   0  0  0  0  0  0  0  0  0  0  0  0
   35.6680   30.7500   41.8690 H   0  0  0  0  0  0  0  0  0  0  0  0
   38.4770   28.0180   42.6940 C   0  0  0  0  0  0  0  0  0  0  0  0
   37.3130   27.2970   42.8180 C   0  0  0  0  0  0  0  0  0  0  0  0
   36.3160   28.0590   42.2050 C   0  0  0  0  0  0  0  0  0  0  0  0
   36.9510   29.1640   41.7660 N   0  0  0  0  0  0  0  0  0  0  0  0
   38.2210   29.1820   42.0310 N   0  0  0  0  0  0  0  0  0  0  0  0
   37.2330   26.3330   43.3040 H   0  0  0  0  0  0  0  0  0  0  0  0
   35.3020   27.7340   42.1550 H   0  0  0  0  0  0  0  0  0  0  0  0
   41.2320   26.1100   44.3200 C   0  0  0  0  0  0  0  0  0  0  0  0
   39.9520   26.4270   43.8620 C   0  0  0  0  0  0  0  0  0  0  0  0
   39.7930   27.6570   43.1740 C   0  0  0  0  0  0  0  0  0  0  0  0
   40.8560   28.4650   42.9860 N   0  0  0  0  0  0  0  0  0  0  0  0
   42.0900   28.0860   43.4670 C   0  0  0  0  0  0  0  0  0  0  0  0
   42.2610   26.9380   44.1160 N   0  0  0  0  0  0  0  0  0  0  0  0
   41.3970   25.1790   44.8520 H   0  0  0  0  0  0  0  0  0  0  0  0
   39.1110   25.7600   44.0250 H   0  0  0  0  0  0  0  0  0  0  0  0
   43.1580   29.0890   43.1780 C   0  0  0  0  0  3  0  0  0  0  0  0
   44.2230   28.9040   44.2090 C   0  0  0  0  0  2  0  0  0  0  0  0
   45.0230   30.1490   44.4880 C   0  0  0  0  0  2  0  0  0  0  0  0
   43.9970   31.1370   45.0510 C   0  0  0  0  0  2  0  0  0  0  0  0
   43.1360   31.5260   43.8950 C   0  0  0  0  0  2  0  0  0  0  0  0
   42.5380   30.4250   43.1110 C   0  0  0  0  0  2  0  0  0  0  0  0
   35.2750   29.6700   40.0230 C   0  0  0  0  0  0  0  0  0  0  0  0
   34.7300   28.8070   40.3780 H   0  0  0  0  0  0  0  0  0  0  0  0
   34.6390   30.6100   39.8940 H   0  0  0  0  0  0  0  0  0  0  0  0
   35.8910   29.5380   38.6760 C   0  0  0  0  0  0  0  0  0  0  0  0
   37.2020   29.7040   38.3420 C   0  0  0  0  0  0  0  0  0  0  0  0
   37.7190   29.6460   37.0830 C   0  0  0  0  0  0  0  0  0  0  0  0
   36.8780   29.3990   36.0210 C   0  0  0  0  0  0  0  0  0  0  0  0
   35.5280   29.2190   36.2940 C   0  0  0  0  0  0  0  0  0  0  0  0
   34.7450   28.9800   35.1900 C   0  0  0  0  0  0  0  0  0  0  0  0
   33.4010   28.7870   35.3540 C   0  0  0  0  0  0  0  0  0  0  0  0
   32.8620   28.8330   36.6260 C   0  0  0  0  0  0  0  0  0  0  0  0
   33.7000   29.0750   37.6740 C   0  0  0  0  0  0  0  0  0  0  0  0
   35.0370   29.2830   37.5870 C   0  0  0  0  0  0  0  0  0  0  0  0
   37.8680   29.9000   39.1840 H   0  0  0  0  0  0  0  0  0  0  0  0
   38.7830   29.7970   36.9680 H   0  0  0  0  0  0  0  0  0  0  0  0
   37.2750   29.3520   35.0160 H   0  0  0  0  0  0  0  0  0  0  0  0
   35.1480   28.9370   34.1780 H   0  0  0  0  0  0  0  0  0  0  0  0
   32.7720   28.6000   34.4930 H   0  0  0  0  0  0  0  0  0  0  0  0
   31.8020   28.6770   36.7470 H   0  0  0  0  0  0  0  0  0  0  0  0
   33.1000   29.0900   38.9220 O   0  0  0  0  0  0  0  0  0  0  0  0
   32.2270   29.5950   39.0370 H   0  0  0  0  0  0  0  0  0  0  0  0
  1  7  1  0  0  0  0
  1  3  1  0  0  0  0
  2  1  1  0  0  0  0
  4  5  1  0  0  0  0
  4 13  1  0  0  0  0
  5  9  1  0  0  0  0
  6  5  2  0  0  0  0
  7  8  1  0  0  0  0
  7  6  1  0  0  0  0
  8  4  2  0  0  0  0
 10  6  1  0  0  0  0
 11 17  1  0  0  0  0
 12 18  1  0  0  0  0
 12 11  2  0  0  0  0
 13 12  1  0  0  0  0
 14 13  2  0  0  0  0
 14 15  1  0  0  0  0
 15 16  2  0  0  0  0
 16 11  1  0  0  0  0
 19 15  1  0  0  0  0
 19 20  1  0  0  0  0
 20 21  1  0  0  0  0
 21 22  1  0  0  0  0
 23 22  1  0  0  0  0
 24 19  1  0  0  0  0
 24 23  1  0  0  0  0
 25 26  1  0  0  0  0
 25  1  1  0  0  0  0
 27 25  1  0  0  0  0
 28 25  1  0  0  0  0
 29 28  1  0  0  0  0
 29 38  1  0  0  0  0
 30 29  2  0  0  0  0
 31 32  2  0  0  0  0
 31 30  1  0  0  0  0
 32 37  1  0  0  0  0
 33 34  2  0  0  0  0
 33 32  1  0  0  0  0
 34 35  1  0  0  0  0
 35 43  1  0  0  0  0
 35 36  2  0  0  0  0
 36 44  1  0  0  0  0
 37 36  1  0  0  0  0
 37 28  2  0  0  0  0
 39 30  1  0  0  0  0
 40 31  1  0  0  0  0
 41 33  1  0  0  0  0
 42 34  1  0  0  0  0
 44 45  1  0  0  0  0
M  END
>  <minimizedAffinity>
-6.30839014

>  <minimizedRMSD>
0.362441182

$$$$
