
     RDKit          3D

 56 60  0  0  0  0  0  0  0  0999 V2000
   35.2827   29.4939   40.0770 C   0  0  0  0  0  0  0  0  0  0  0  0
   35.8928   29.4273   38.7234 C   0  0  0  0  0  0  0  0  0  0  0  0
   37.2053   29.5885   38.3930 C   0  0  0  0  0  0  0  0  0  0  0  0
   37.7174   29.5911   37.1314 C   0  0  0  0  0  0  0  0  0  0  0  0
   36.8686   29.4195   36.0599 C   0  0  0  0  0  0  0  0  0  0  0  0
   35.5166   29.2482   36.3282 C   0  0  0  0  0  0  0  0  0  0  0  0
   34.7264   29.0850   35.2163 C   0  0  0  0  0  0  0  0  0  0  0  0
   33.3795   28.9061   35.3740 C   0  0  0  0  0  0  0  0  0  0  0  0
   32.8446   28.8906   36.6488 C   0  0  0  0  0  0  0  0  0  0  0  0
   33.6909   29.0587   37.7046 C   0  0  0  0  0  0  0  0  0  0  0  0
   35.0310   29.2478   37.6254 C   0  0  0  0  0  0  0  0  0  0  0  0
   33.0948   29.0147   38.9551 O   0  0  0  0  0  0  0  0  0  0  0  0
   36.1674   30.0725   41.1339 C   0  0  0  0  0  0  0  0  0  0  0  0
   38.6526   28.1525   42.7130 C   0  0  0  0  0  0  0  0  0  0  0  0
   37.5594   27.3343   42.8673 C   0  0  0  0  0  0  0  0  0  0  0  0
   36.4880   27.9999   42.2667 C   0  0  0  0  0  0  0  0  0  0  0  0
   37.0161   29.1505   41.8053 N   0  0  0  0  0  0  0  0  0  0  0  0
   38.2841   29.2820   42.0449 N   0  0  0  0  0  0  0  0  0  0  0  0
   41.5747   26.5552   44.3822 C   0  0  0  0  0  0  0  0  0  0  0  0
   40.2629   26.7547   43.9491 C   0  0  0  0  0  0  0  0  0  0  0  0
   40.0038   27.9120   43.1697 C   0  0  0  0  0  0  0  0  0  0  0  0
   41.0073   28.7641   42.8771 N   0  0  0  0  0  0  0  0  0  0  0  0
   42.2777   28.5010   43.3400 C   0  0  0  0  0  0  0  0  0  0  0  0
   42.5424   27.4229   44.0717 N   0  0  0  0  0  0  0  0  0  0  0  0
   34.8306   28.5814   40.4363 H   0  0  0  0  0  0  0  0  0  0  0  0
   34.5560   30.3666   39.9595 H   0  0  0  0  0  0  0  0  0  0  0  0
   37.8772   29.7253   39.2424 H   0  0  0  0  0  0  0  0  0  0  0  0
   38.7837   29.7295   37.0199 H   0  0  0  0  0  0  0  0  0  0  0  0
   37.2619   29.4214   35.0522 H   0  0  0  0  0  0  0  0  0  0  0  0
   35.1254   29.0912   34.2014 H   0  0  0  0  0  0  0  0  0  0  0  0
   32.7448   28.7788   34.5073 H   0  0  0  0  0  0  0  0  0  0  0  0
   31.7831   28.7469   36.7649 H   0  0  0  0  0  0  0  0  0  0  0  0
   32.2320   29.5283   39.1012 H   0  0  0  0  0  0  0  0  0  0  0  0
   36.7769   30.8649   40.6309 H   0  0  0  0  0  0  0  0  0  0  0  0
   35.5910   30.6098   41.9184 H   0  0  0  0  0  0  0  0  0  0  0  0
   37.5722   26.3722   43.3633 H   0  0  0  0  0  0  0  0  0  0  0  0
   35.5053   27.5878   42.2397 H   0  0  0  0  0  0  0  0  0  0  0  0
   41.8164   25.6828   44.9807 H   0  0  0  0  0  0  0  0  0  0  0  0
   39.4715   26.0545   44.1973 H   0  0  0  0  0  0  0  0  0  0  0  0
   43.2713   29.5387   42.9300 C   0  0  0  0  0  0  0  0  0  0  0  0
   42.5783   30.4568   41.9768 C   0  0  0  0  0  0  0  0  0  0  0  0
   43.5037   31.1332   41.0014 C   0  0  0  0  0  0  0  0  0  0  0  0
   44.1025   29.9810   40.1880 C   0  0  0  0  0  0  0  0  0  0  0  0
   45.0296   29.2704   41.1162 C   0  0  0  0  0  0  0  0  0  0  0  0
   44.4759   28.8564   42.4224 C   0  0  0  0  0  0  0  0  0  0  0  0
   43.4648   30.1470   43.8588 H   0  0  0  0  0  0  0  0  0  0  0  0
   41.8423   29.8943   41.3652 H   0  0  0  0  0  0  0  0  0  0  0  0
   42.0131   31.2503   42.5070 H   0  0  0  0  0  0  0  0  0  0  0  0
   42.8855   31.7945   40.3701 H   0  0  0  0  0  0  0  0  0  0  0  0
   44.3025   31.6553   41.5596 H   0  0  0  0  0  0  0  0  0  0  0  0
   43.2335   29.3637   39.8771 H   0  0  0  0  0  0  0  0  0  0  0  0
   44.7008   30.3441   39.3306 H   0  0  0  0  0  0  0  0  0  0  0  0
   45.4299   28.3904   40.5362 H   0  0  0  0  0  0  0  0  0  0  0  0
   45.9331   29.9350   41.2323 H   0  0  0  0  0  0  0  0  0  0  0  0
   44.3604   27.7331   42.4092 H   0  0  0  0  0  0  0  0  0  0  0  0
   45.2918   29.0086   43.1857 H   0  0  0  0  0  0  0  0  0  0  0  0
  1 13  1  0
  2  1  1  0
  3  2  2  0
  4  3  1  0
  5  6  1  0
  5  4  2  0
  6 11  2  0
  7  8  2  0
  7  6  1  0
  8  9  1  0
  9 10  2  0
 10 12  1  0
 11 10  1  0
 11  2  1  0
 13 17  1  0
 14 15  1  0
 14 21  1  0
 16 15  2  0
 17 18  1  0
 17 16  1  0
 18 14  2  0
 20 19  2  0
 21 20  1  0
 22 21  2  0
 22 23  1  0
 23 24  2  0
 24 19  1  0
  1 25  1  0
  1 26  1  0
  3 27  1  0
  4 28  1  0
  5 29  1  0
  7 30  1  0
  8 31  1  0
  9 32  1  0
 12 33  1  0
 13 34  1  0
 13 35  1  0
 15 36  1  0
 16 37  1  0
 19 38  1  0
 20 39  1  0
 40 41  1  0
 41 42  1  0
 42 43  1  0
 43 44  1  0
 44 45  1  0
 45 40  1  0
 40 46  1  0
 41 47  1  0
 41 48  1  0
 42 49  1  0
 42 50  1  0
 43 51  1  0
 43 52  1  0
 44 53  1  0
 44 54  1  0
 45 55  1  0
 45 56  1  0
 23 40  1  0
M  ISO  8  25   8  26   8  27  14  28  14  29  14  30  14  31  14  32  14
M  ISO  7  33   3  34   8  35   8  36  14  37  14  38  14  39  14
M  END
>  <DihAtoms>  (1) 
21,22,39,40

>  <DihDeg>  (1) 
67.6338860891706

$$$$
