
 OpenBabel03242502453D

 21 23  0  0  0  0  0  0  0  0999 V2000
   41.8790   29.2350   38.5500 C   0  0  0  0  0  0  0  0  0  0  0  0
   42.3240   28.2390   39.4730 C   0  0  0  0  0  0  0  0  0  0  0  0
   40.8390   27.9340   40.5430 S   0  0  0  0  0  0  0  0  0  0  0  0
   39.8750   29.2310   39.5280 C   0  0  0  0  0  0  0  0  0  0  0  0
   40.6390   29.5750   38.7640 N   0  0  0  0  0  0  0  0  0  0  0  0
   43.3090   27.7690   39.5330 H   0  0  0  0  0  0  0  0  0  0  0  0
   42.5430   29.5120   36.2000 C   0  0  0  0  0  0  0  0  0  0  0  0
   42.8110   29.7170   37.5470 C   0  0  0  0  0  0  0  0  0  0  0  0
   43.9920   30.3940   37.8620 C   0  0  0  0  0  0  0  0  0  0  0  0
   44.8090   30.8120   36.8470 N   0  0  0  0  0  0  0  0  0  0  0  0
   44.4850   30.5770   35.5410 C   0  0  0  0  0  0  0  0  0  0  0  0
   43.3610   29.9320   35.2290 N   0  0  0  0  0  0  0  0  0  0  0  0
   41.6470   28.9940   35.8820 H   0  0  0  0  0  0  0  0  0  0  0  0
   44.2300   30.5700   38.9010 H   0  0  0  0  0  0  0  0  0  0  0  0
   45.1520   30.9210   34.7630 H   0  0  0  0  0  0  0  0  0  0  0  0
   38.4430   29.6010   39.8000 C   0  0  0  0  0  0  0  0  0  0  0  0
   38.0240   29.0170   41.0960 C   0  0  0  0  0  0  0  0  0  0  0  0
   37.1100   29.9090   41.9000 C   0  0  0  0  0  0  0  0  0  0  0  0
   36.2240   30.7790   41.0680 C   0  0  0  0  0  0  0  0  0  0  0  0
   36.8590   31.4130   39.8810 C   0  0  0  0  0  0  0  0  0  0  0  0
   38.3620   31.1010   39.8700 C   0  0  0  0  0  0  0  0  0  0  0  0
  1  5  1  0  0  0  0
  1  2  2  0  0  0  0
  2  6  1  0  0  0  0
  2  3  1  0  0  0  0
  4 16  1  0  0  0  0
  4  3  1  0  0  0  0
  5  4  2  0  0  0  0
  7  8  1  0  0  0  0
  8  9  2  0  0  0  0
  8  1  1  0  0  0  0
  9 14  1  0  0  0  0
 10  9  1  0  0  0  0
 11 10  2  0  0  0  0
 12 11  1  0  0  0  0
 12  7  2  0  0  0  0
 13  7  1  0  0  0  0
 15 11  1  0  0  0  0
 16 21  1  0  0  0  0
 16 17  1  0  0  0  0
 17 18  1  0  0  0  0
 19 18  1  0  0  0  0
 20 19  1  0  0  0  0
 21 20  1  0  0  0  0
M  END
>  <minimizedAffinity>
-3.45699835

>  <minimizedRMSD>
7.08689213

$$$$
