
 OpenBabel03242508043D

 27 29  0  0  0  0  0  0  0  0999 V2000
   37.4870   29.9970   40.3530 C   0  0  0  0  0  0  0  0  0  0  0  0
   36.9630   28.8100   39.8260 C   0  0  0  0  0  0  0  0  0  0  0  0
   36.6040   27.7930   40.7490 C   0  0  0  0  0  0  0  0  0  0  0  0
   36.7720   27.9990   42.0710 N   0  0  0  0  0  0  0  0  0  0  0  0
   37.2840   29.1740   42.5360 C   0  0  0  0  0  0  0  0  0  0  0  0
   37.6290   30.1440   41.6760 N   0  0  0  0  0  0  0  0  0  0  0  0
   36.2030   26.8760   40.3730 H   0  0  0  0  0  0  0  0  0  0  0  0
   37.3490   29.1680   43.6110 H   0  0  0  0  0  0  0  0  0  0  0  0
   36.7600   28.5580   38.4710 N   0  0  0  0  0  0  0  0  0  0  0  0
   37.6380   27.8800   37.5390 C   0  0  0  0  0  0  0  0  0  0  0  0
   37.3780   28.5870   36.2160 C   0  0  0  0  0  0  0  0  0  0  0  0
   36.1880   29.4870   36.4480 C   0  0  0  0  0  0  0  0  0  0  0  0
   35.5990   28.9120   37.6880 C   0  0  0  0  0  0  0  0  0  0  0  0
   38.6830   28.0430   37.8500 H   0  0  0  0  0  0  0  0  0  0  0  0
   37.3650   26.8050   37.4990 H   0  0  0  0  0  0  0  0  0  0  0  0
   37.1820   27.8140   35.4640 H   0  0  0  0  0  0  0  0  0  0  0  0
   38.2940   29.1800   35.9400 H   0  0  0  0  0  0  0  0  0  0  0  0
   36.4030   30.5520   36.4440 H   0  0  0  0  0  0  0  0  0  0  0  0
   35.4870   29.2800   35.6080 H   0  0  0  0  0  0  0  0  0  0  0  0
   34.8290   29.4740   38.1960 H   0  0  0  0  0  0  0  0  0  0  0  0
   35.1010   27.9440   37.3670 H   0  0  0  0  0  0  0  0  0  0  0  0
   37.9290   31.1390   39.5110 C   0  0  0  0  0  0  0  0  0  0  0  0
   37.0240   32.3040   39.5150 C   0  0  0  0  0  0  0  0  0  0  0  0
   37.5780   33.6510   39.7590 C   0  0  0  0  0  0  0  0  0  0  0  0
   38.9050   33.7620   40.4040 C   0  0  0  0  0  0  0  0  0  0  0  0
   39.2870   32.4430   41.0700 C   0  0  0  0  0  0  0  0  0  0  0  0
   39.3640   31.4460   39.9670 C   0  0  0  0  0  0  0  0  0  0  0  0
  1  6  1  0  0  0  0
  2  1  2  0  0  0  0
  2  3  1  0  0  0  0
  3  4  2  0  0  0  0
  4  5  1  0  0  0  0
  5  8  1  0  0  0  0
  6  5  2  0  0  0  0
  7  3  1  0  0  0  0
  9  2  1  0  0  0  0
 10 14  1  0  0  0  0
 10  9  1  0  0  0  0
 11 12  1  0  0  0  0
 11 10  1  0  0  0  0
 12 13  1  0  0  0  0
 13 20  1  0  0  0  0
 13  9  1  0  0  0  0
 15 10  1  0  0  0  0
 16 11  1  0  0  0  0
 17 11  1  0  0  0  0
 18 12  1  0  0  0  0
 19 12  1  0  0  0  0
 21 13  1  0  0  0  0
 22 23  1  0  0  0  0
 22 27  1  0  0  0  0
 22  1  1  0  0  0  0
 23 24  1  0  0  0  0
 24 25  1  0  0  0  0
 25 26  1  0  0  0  0
 27 26  1  0  0  0  0
M  END
>  <minimizedAffinity>
-4.28573847

>  <minimizedRMSD>
4.5243907

$$$$
