
 OpenBabel03242509293D

 45 49  0  0  0  0  0  0  0  0999 V2000
   35.9340   29.9790   40.9650 C   0  0  0  0  0  0  0  0  0  0  0  0
   36.5180   30.8070   40.4890 H   0  0  0  0  0  0  0  0  0  0  0  0
   35.3040   30.4790   41.7320 H   0  0  0  0  0  0  0  0  0  0  0  0
   38.4690   28.1710   42.5990 C   0  0  0  0  0  0  0  0  0  0  0  0
   37.4020   27.3180   42.7560 C   0  0  0  0  0  0  0  0  0  0  0  0
   36.3150   27.9370   42.1350 C   0  0  0  0  0  0  0  0  0  0  0  0
   36.8080   29.0980   41.6590 N   0  0  0  0  0  0  0  0  0  0  0  0
   38.0680   29.2770   41.9090 N   0  0  0  0  0  0  0  0  0  0  0  0
   37.4430   26.3650   43.2670 H   0  0  0  0  0  0  0  0  0  0  0  0
   35.3470   27.4910   42.1050 H   0  0  0  0  0  0  0  0  0  0  0  0
   41.4260   26.7060   44.3250 C   0  0  0  0  0  0  0  0  0  0  0  0
   40.1130   26.8530   43.8760 C   0  0  0  0  0  0  0  0  0  0  0  0
   39.8230   27.9850   43.0720 C   0  0  0  0  0  0  0  0  0  0  0  0
   40.8000   28.8640   42.7710 N   0  0  0  0  0  0  0  0  0  0  0  0
   42.0740   28.6530   43.2500 C   0  0  0  0  0  0  0  0  0  0  0  0
   42.3670   27.5990   44.0060 N   0  0  0  0  0  0  0  0  0  0  0  0
   41.6910   25.8540   44.9430 H   0  0  0  0  0  0  0  0  0  0  0  0
   39.3420   26.1320   44.1310 H   0  0  0  0  0  0  0  0  0  0  0  0
   43.0360   29.7150   42.8280 C   0  0  0  0  0  3  0  0  0  0  0  0
   42.5480   31.0040   43.4050 C   0  0  0  0  0  2  0  0  0  0  0  0
   42.9630   32.2180   42.6190 C   0  0  0  0  0  2  0  0  0  0  0  0
   42.2900   32.0330   41.2550 C   0  0  0  0  0  2  0  0  0  0  0  0
   43.0240   30.9180   40.5910 C   0  0  0  0  0  2  0  0  0  0  0  0
   43.1710   29.6660   41.3610 C   0  0  0  0  0  2  0  0  0  0  0  0
   35.1190   29.3630   39.8740 C   0  0  0  0  0  0  0  0  0  0  0  0
   34.7040   28.4250   40.2120 H   0  0  0  0  0  0  0  0  0  0  0  0
   34.3510   30.1980   39.7370 H   0  0  0  0  0  0  0  0  0  0  0  0
   35.7780   29.3390   38.5420 C   0  0  0  0  0  0  0  0  0  0  0  0
   37.1050   29.4750   38.2680 C   0  0  0  0  0  0  0  0  0  0  0  0
   37.6650   29.5200   37.0270 C   0  0  0  0  0  0  0  0  0  0  0  0
   36.8540   29.4230   35.9190 C   0  0  0  0  0  0  0  0  0  0  0  0
   35.4880   29.2800   36.1290 C   0  0  0  0  0  0  0  0  0  0  0  0
   34.7360   29.1920   34.9820 C   0  0  0  0  0  0  0  0  0  0  0  0
   33.3800   29.0470   35.0830 C   0  0  0  0  0  0  0  0  0  0  0  0
   32.7970   28.9900   36.3350 C   0  0  0  0  0  0  0  0  0  0  0  0
   33.6070   29.0840   37.4280 C   0  0  0  0  0  0  0  0  0  0  0  0
   34.9530   29.2360   37.4060 C   0  0  0  0  0  0  0  0  0  0  0  0
   37.7480   29.5540   39.1470 H   0  0  0  0  0  0  0  0  0  0  0  0
   38.7390   29.6320   36.9620 H   0  0  0  0  0  0  0  0  0  0  0  0
   37.2850   29.4580   34.9270 H   0  0  0  0  0  0  0  0  0  0  0  0
   35.1730   29.2320   33.9840 H   0  0  0  0  0  0  0  0  0  0  0  0
   32.7750   28.9780   34.1880 H   0  0  0  0  0  0  0  0  0  0  0  0
   31.7280   28.8730   36.4050 H   0  0  0  0  0  0  0  0  0  0  0  0
   32.9620   29.0020   38.6520 O   0  0  0  0  0  0  0  0  0  0  0  0
   32.1090   29.5330   38.7900 H   0  0  0  0  0  0  0  0  0  0  0  0
  1  7  1  0  0  0  0
  1  3  1  0  0  0  0
  2  1  1  0  0  0  0
  4  5  1  0  0  0  0
  4 13  1  0  0  0  0
  5  9  1  0  0  0  0
  6  5  2  0  0  0  0
  7  8  1  0  0  0  0
  7  6  1  0  0  0  0
  8  4  2  0  0  0  0
 10  6  1  0  0  0  0
 11 17  1  0  0  0  0
 12 18  1  0  0  0  0
 12 11  2  0  0  0  0
 13 12  1  0  0  0  0
 14 13  2  0  0  0  0
 14 15  1  0  0  0  0
 15 16  2  0  0  0  0
 16 11  1  0  0  0  0
 19 15  1  0  0  0  0
 19 20  1  0  0  0  0
 21 20  1  0  0  0  0
 22 21  1  0  0  0  0
 23 22  1  0  0  0  0
 23 24  1  0  0  0  0
 24 19  1  0  0  0  0
 25 26  1  0  0  0  0
 25  1  1  0  0  0  0
 27 25  1  0  0  0  0
 28 25  1  0  0  0  0
 29 28  1  0  0  0  0
 29 38  1  0  0  0  0
 30 29  2  0  0  0  0
 31 32  2  0  0  0  0
 31 30  1  0  0  0  0
 32 37  1  0  0  0  0
 33 34  2  0  0  0  0
 33 32  1  0  0  0  0
 34 35  1  0  0  0  0
 35 43  1  0  0  0  0
 35 36  2  0  0  0  0
 36 44  1  0  0  0  0
 37 36  1  0  0  0  0
 37 28  2  0  0  0  0
 39 30  1  0  0  0  0
 40 31  1  0  0  0  0
 41 33  1  0  0  0  0
 42 34  1  0  0  0  0
 44 45  1  0  0  0  0
M  END
>  <minimizedAffinity>
-6.24574089

>  <minimizedRMSD>
1.11088717

$$$$
