
 OpenBabel03242509293D

 45 49  0  0  0  0  0  0  0  0999 V2000
   36.1350   30.0840   41.0890 C   0  0  0  0  0  0  0  0  0  0  0  0
   36.7670   30.8620   40.5910 H   0  0  0  0  0  0  0  0  0  0  0  0
   35.5680   30.6330   41.8710 H   0  0  0  0  0  0  0  0  0  0  0  0
   38.5610   28.1060   42.6920 C   0  0  0  0  0  0  0  0  0  0  0  0
   37.4570   27.2950   42.7970 C   0  0  0  0  0  0  0  0  0  0  0  0
   36.4080   27.9830   42.1830 C   0  0  0  0  0  0  0  0  0  0  0  0
   36.9580   29.1390   41.7620 N   0  0  0  0  0  0  0  0  0  0  0  0
   38.2200   29.2540   42.0400 N   0  0  0  0  0  0  0  0  0  0  0  0
   37.4480   26.3220   43.2720 H   0  0  0  0  0  0  0  0  0  0  0  0
   35.4230   27.5800   42.1200 H   0  0  0  0  0  0  0  0  0  0  0  0
   41.4520   26.3860   44.2910 C   0  0  0  0  0  0  0  0  0  0  0  0
   40.1550   26.6070   43.8240 C   0  0  0  0  0  0  0  0  0  0  0  0
   39.8970   27.8440   43.1810 C   0  0  0  0  0  0  0  0  0  0  0  0
   40.8860   28.7500   43.0420 N   0  0  0  0  0  0  0  0  0  0  0  0
   42.1420   28.4630   43.5300 C   0  0  0  0  0  0  0  0  0  0  0  0
   42.4050   27.3090   44.1370 N   0  0  0  0  0  0  0  0  0  0  0  0
   41.6920   25.4530   44.7900 H   0  0  0  0  0  0  0  0  0  0  0  0
   39.3740   25.8620   43.9460 H   0  0  0  0  0  0  0  0  0  0  0  0
   43.1210   29.5670   43.2980 C   0  0  0  0  0  3  0  0  0  0  0  0
   42.8010   30.1640   41.9660 C   0  0  0  0  0  2  0  0  0  0  0  0
   43.9810   30.8050   41.2880 C   0  0  0  0  0  2  0  0  0  0  0  0
   44.9590   29.6480   41.0580 C   0  0  0  0  0  2  0  0  0  0  0  0
   45.4840   29.2870   42.4070 C   0  0  0  0  0  2  0  0  0  0  0  0
   44.4830   29.0250   43.4610 C   0  0  0  0  0  2  0  0  0  0  0  0
   35.2430   29.5290   40.0260 C   0  0  0  0  0  0  0  0  0  0  0  0
   34.7570   28.6330   40.3850 H   0  0  0  0  0  0  0  0  0  0  0  0
   34.5460   30.4250   39.8970 H   0  0  0  0  0  0  0  0  0  0  0  0
   35.8630   29.4350   38.6780 C   0  0  0  0  0  0  0  0  0  0  0  0
   37.1810   29.5700   38.3580 C   0  0  0  0  0  0  0  0  0  0  0  0
   37.7040   29.5490   37.1010 C   0  0  0  0  0  0  0  0  0  0  0  0
   36.8620   29.3790   36.0250 C   0  0  0  0  0  0  0  0  0  0  0  0
   35.5050   29.2340   36.2830 C   0  0  0  0  0  0  0  0  0  0  0  0
   34.7210   29.0710   35.1660 C   0  0  0  0  0  0  0  0  0  0  0  0
   33.3710   28.9160   35.3140 C   0  0  0  0  0  0  0  0  0  0  0  0
   32.8250   28.9260   36.5840 C   0  0  0  0  0  0  0  0  0  0  0  0
   33.6640   29.0920   37.6450 C   0  0  0  0  0  0  0  0  0  0  0  0
   35.0080   29.2580   37.5750 C   0  0  0  0  0  0  0  0  0  0  0  0
   37.8470   29.7060   39.2120 H   0  0  0  0  0  0  0  0  0  0  0  0
   38.7740   29.6690   36.9980 H   0  0  0  0  0  0  0  0  0  0  0  0
   37.2640   29.3620   35.0200 H   0  0  0  0  0  0  0  0  0  0  0  0
   35.1290   29.0580   34.1540 H   0  0  0  0  0  0  0  0  0  0  0  0
   32.7410   28.7900   34.4430 H   0  0  0  0  0  0  0  0  0  0  0  0
   31.7590   28.8010   36.6920 H   0  0  0  0  0  0  0  0  0  0  0  0
   33.0570   29.0730   38.8900 O   0  0  0  0  0  0  0  0  0  0  0  0
   32.2010   29.6030   39.0230 H   0  0  0  0  0  0  0  0  0  0  0  0
  1  7  1  0  0  0  0
  1  3  1  0  0  0  0
  2  1  1  0  0  0  0
  4  5  1  0  0  0  0
  4 13  1  0  0  0  0
  5  9  1  0  0  0  0
  6  5  2  0  0  0  0
  7  8  1  0  0  0  0
  7  6  1  0  0  0  0
  8  4  2  0  0  0  0
 10  6  1  0  0  0  0
 11 17  1  0  0  0  0
 12 18  1  0  0  0  0
 12 11  2  0  0  0  0
 13 12  1  0  0  0  0
 14 13  2  0  0  0  0
 14 15  1  0  0  0  0
 15 16  2  0  0  0  0
 16 11  1  0  0  0  0
 19 24  1  0  0  0  0
 19 15  1  0  0  0  0
 20 19  1  0  0  0  0
 21 20  1  0  0  0  0
 22 21  1  0  0  0  0
 22 23  1  0  0  0  0
 23 24  1  0  0  0  0
 25 26  1  0  0  0  0
 25  1  1  0  0  0  0
 27 25  1  0  0  0  0
 28 25  1  0  0  0  0
 29 28  1  0  0  0  0
 29 38  1  0  0  0  0
 30 29  2  0  0  0  0
 31 32  2  0  0  0  0
 31 30  1  0  0  0  0
 32 37  1  0  0  0  0
 33 34  2  0  0  0  0
 33 32  1  0  0  0  0
 34 35  1  0  0  0  0
 35 43  1  0  0  0  0
 35 36  2  0  0  0  0
 36 44  1  0  0  0  0
 37 36  1  0  0  0  0
 37 28  2  0  0  0  0
 39 30  1  0  0  0  0
 40 31  1  0  0  0  0
 41 33  1  0  0  0  0
 42 34  1  0  0  0  0
 44 45  1  0  0  0  0
M  END
>  <minimizedAffinity>
-5.85778904

>  <minimizedRMSD>
0.247440785

$$$$
