
 OpenBabel03242509283D

 45 49  0  0  0  0  0  0  0  0999 V2000
   36.0950   30.0610   41.1040 C   0  0  0  0  0  0  0  0  0  0  0  0
   36.6980   30.8670   40.6150 H   0  0  0  0  0  0  0  0  0  0  0  0
   35.5060   30.5810   41.8900 H   0  0  0  0  0  0  0  0  0  0  0  0
   38.5930   28.1610   42.6900 C   0  0  0  0  0  0  0  0  0  0  0  0
   37.5140   27.3160   42.8050 C   0  0  0  0  0  0  0  0  0  0  0  0
   36.4410   27.9720   42.1990 C   0  0  0  0  0  0  0  0  0  0  0  0
   36.9510   29.1440   41.7720 N   0  0  0  0  0  0  0  0  0  0  0  0
   38.2110   29.2970   42.0400 N   0  0  0  0  0  0  0  0  0  0  0  0
   37.5390   26.3440   43.2810 H   0  0  0  0  0  0  0  0  0  0  0  0
   35.4680   27.5390   42.1440 H   0  0  0  0  0  0  0  0  0  0  0  0
   41.5300   26.5640   44.3320 C   0  0  0  0  0  0  0  0  0  0  0  0
   40.2230   26.7440   43.8770 C   0  0  0  0  0  0  0  0  0  0  0  0
   39.9400   27.9410   43.1680 C   0  0  0  0  0  0  0  0  0  0  0  0
   40.9160   28.8470   42.9610 N   0  0  0  0  0  0  0  0  0  0  0  0
   42.1840   28.6000   43.4410 C   0  0  0  0  0  0  0  0  0  0  0  0
   42.4710   27.4860   44.1070 N   0  0  0  0  0  0  0  0  0  0  0  0
   41.7890   25.6640   44.8790 H   0  0  0  0  0  0  0  0  0  0  0  0
   39.4520   26.0010   44.0550 H   0  0  0  0  0  0  0  0  0  0  0  0
   43.1470   29.6990   43.1280 C   0  0  0  0  0  3  0  0  0  0  0  0
   42.4320   30.9890   43.3640 C   0  0  0  0  0  2  0  0  0  0  0  0
   42.9570   32.1340   42.5410 C   0  0  0  0  0  2  0  0  0  0  0  0
   42.6910   31.7120   41.0930 C   0  0  0  0  0  2  0  0  0  0  0  0
   43.6540   30.6080   40.8110 C   0  0  0  0  0  2  0  0  0  0  0  0
   43.6760   29.4820   41.7690 C   0  0  0  0  0  2  0  0  0  0  0  0
   35.2280   29.4820   40.0340 C   0  0  0  0  0  0  0  0  0  0  0  0
   34.7650   28.5730   40.3880 H   0  0  0  0  0  0  0  0  0  0  0  0
   34.5070   30.3580   39.8990 H   0  0  0  0  0  0  0  0  0  0  0  0
   35.8620   29.4060   38.6920 C   0  0  0  0  0  0  0  0  0  0  0  0
   37.1830   29.5390   38.3870 C   0  0  0  0  0  0  0  0  0  0  0  0
   37.7190   29.5350   37.1350 C   0  0  0  0  0  0  0  0  0  0  0  0
   36.8880   29.3870   36.0480 C   0  0  0  0  0  0  0  0  0  0  0  0
   35.5280   29.2450   36.2890 C   0  0  0  0  0  0  0  0  0  0  0  0
   34.7550   29.1050   35.1620 C   0  0  0  0  0  0  0  0  0  0  0  0
   33.4020   28.9560   35.2930 C   0  0  0  0  0  0  0  0  0  0  0  0
   32.8430   28.9480   36.5580 C   0  0  0  0  0  0  0  0  0  0  0  0
   33.6720   29.0930   37.6300 C   0  0  0  0  0  0  0  0  0  0  0  0
   35.0170   29.2510   37.5770 C   0  0  0  0  0  0  0  0  0  0  0  0
   37.8420   29.6570   39.2500 H   0  0  0  0  0  0  0  0  0  0  0  0
   38.7910   29.6500   37.0450 H   0  0  0  0  0  0  0  0  0  0  0  0
   37.3000   29.3840   35.0470 H   0  0  0  0  0  0  0  0  0  0  0  0
   35.1730   29.1060   34.1540 H   0  0  0  0  0  0  0  0  0  0  0  0
   32.7810   28.8470   34.4140 H   0  0  0  0  0  0  0  0  0  0  0  0
   31.7760   28.8280   36.6530 H   0  0  0  0  0  0  0  0  0  0  0  0
   33.0510   29.0570   38.8680 O   0  0  0  0  0  0  0  0  0  0  0  0
   32.1970   29.5890   39.0000 H   0  0  0  0  0  0  0  0  0  0  0  0
  1  7  1  0  0  0  0
  1  3  1  0  0  0  0
  2  1  1  0  0  0  0
  4  5  1  0  0  0  0
  4 13  1  0  0  0  0
  5  9  1  0  0  0  0
  6  5  2  0  0  0  0
  7  8  1  0  0  0  0
  7  6  1  0  0  0  0
  8  4  2  0  0  0  0
 10  6  1  0  0  0  0
 11 17  1  0  0  0  0
 12 18  1  0  0  0  0
 12 11  2  0  0  0  0
 13 12  1  0  0  0  0
 14 13  2  0  0  0  0
 14 15  1  0  0  0  0
 15 16  2  0  0  0  0
 16 11  1  0  0  0  0
 19 20  1  0  0  0  0
 19 15  1  0  0  0  0
 21 20  1  0  0  0  0
 22 21  1  0  0  0  0
 23 22  1  0  0  0  0
 23 24  1  0  0  0  0
 24 19  1  0  0  0  0
 25 26  1  0  0  0  0
 25  1  1  0  0  0  0
 27 25  1  0  0  0  0
 28 25  1  0  0  0  0
 29 28  1  0  0  0  0
 29 38  1  0  0  0  0
 30 29  2  0  0  0  0
 31 32  2  0  0  0  0
 31 30  1  0  0  0  0
 32 37  1  0  0  0  0
 33 34  2  0  0  0  0
 33 32  1  0  0  0  0
 34 35  1  0  0  0  0
 35 43  1  0  0  0  0
 35 36  2  0  0  0  0
 36 44  1  0  0  0  0
 37 36  1  0  0  0  0
 37 28  2  0  0  0  0
 39 30  1  0  0  0  0
 40 31  1  0  0  0  0
 41 33  1  0  0  0  0
 42 34  1  0  0  0  0
 44 45  1  0  0  0  0
M  END
>  <minimizedAffinity>
-6.2179985

>  <minimizedRMSD>
0.232838735

$$$$
