
 OpenBabel03242509283D

 45 49  0  0  0  0  0  0  0  0999 V2000
   36.1630   30.1000   41.1220 C   0  0  0  0  0  0  0  0  0  0  0  0
   36.7910   30.8800   40.6240 H   0  0  0  0  0  0  0  0  0  0  0  0
   35.5970   30.6450   41.9080 H   0  0  0  0  0  0  0  0  0  0  0  0
   38.6010   28.1180   42.7010 C   0  0  0  0  0  0  0  0  0  0  0  0
   37.4920   27.3180   42.8360 C   0  0  0  0  0  0  0  0  0  0  0  0
   36.4380   28.0090   42.2340 C   0  0  0  0  0  0  0  0  0  0  0  0
   36.9900   29.1560   41.7900 N   0  0  0  0  0  0  0  0  0  0  0  0
   38.2580   29.2620   42.0430 N   0  0  0  0  0  0  0  0  0  0  0  0
   37.4840   26.3500   43.3210 H   0  0  0  0  0  0  0  0  0  0  0  0
   35.4480   27.6140   42.1930 H   0  0  0  0  0  0  0  0  0  0  0  0
   41.4760   26.4640   44.3970 C   0  0  0  0  0  0  0  0  0  0  0  0
   40.1710   26.6920   43.9550 C   0  0  0  0  0  0  0  0  0  0  0  0
   39.9430   27.8500   43.1680 C   0  0  0  0  0  0  0  0  0  0  0  0
   40.9670   28.6770   42.8760 N   0  0  0  0  0  0  0  0  0  0  0  0
   42.2290   28.3870   43.3480 C   0  0  0  0  0  0  0  0  0  0  0  0
   42.4640   27.3080   44.0880 N   0  0  0  0  0  0  0  0  0  0  0  0
   41.6930   25.5900   45.0020 H   0  0  0  0  0  0  0  0  0  0  0  0
   39.3620   26.0120   44.2020 H   0  0  0  0  0  0  0  0  0  0  0  0
   43.2480   29.4000   42.9380 C   0  0  0  0  0  3  0  0  0  0  0  0
   43.2310   30.4820   43.9680 C   0  0  0  0  0  2  0  0  0  0  0  0
   43.6720   31.8230   43.4480 C   0  0  0  0  0  2  0  0  0  0  0  0
   42.6310   32.1760   42.3810 C   0  0  0  0  0  2  0  0  0  0  0  0
   42.8950   31.2540   41.2380 C   0  0  0  0  0  2  0  0  0  0  0  0
   42.9660   29.8110   41.5510 C   0  0  0  0  0  2  0  0  0  0  0  0
   35.2680   29.5460   40.0600 C   0  0  0  0  0  0  0  0  0  0  0  0
   34.7820   28.6510   40.4200 H   0  0  0  0  0  0  0  0  0  0  0  0
   34.5730   30.4430   39.9320 H   0  0  0  0  0  0  0  0  0  0  0  0
   35.8870   29.4510   38.7120 C   0  0  0  0  0  0  0  0  0  0  0  0
   37.2030   29.5920   38.3890 C   0  0  0  0  0  0  0  0  0  0  0  0
   37.7240   29.5700   37.1310 C   0  0  0  0  0  0  0  0  0  0  0  0
   36.8810   29.3900   36.0560 C   0  0  0  0  0  0  0  0  0  0  0  0
   35.5260   29.2390   36.3180 C   0  0  0  0  0  0  0  0  0  0  0  0
   34.7400   29.0670   35.2030 C   0  0  0  0  0  0  0  0  0  0  0  0
   33.3910   28.9060   35.3540 C   0  0  0  0  0  0  0  0  0  0  0  0
   32.8470   28.9160   36.6250 C   0  0  0  0  0  0  0  0  0  0  0  0
   33.6880   29.0920   37.6840 C   0  0  0  0  0  0  0  0  0  0  0  0
   35.0310   29.2640   37.6110 C   0  0  0  0  0  0  0  0  0  0  0  0
   37.8710   29.7350   39.2400 H   0  0  0  0  0  0  0  0  0  0  0  0
   38.7930   29.6950   37.0250 H   0  0  0  0  0  0  0  0  0  0  0  0
   37.2810   29.3720   35.0510 H   0  0  0  0  0  0  0  0  0  0  0  0
   35.1460   29.0530   34.1900 H   0  0  0  0  0  0  0  0  0  0  0  0
   32.7610   28.7720   34.4840 H   0  0  0  0  0  0  0  0  0  0  0  0
   31.7830   28.7860   36.7360 H   0  0  0  0  0  0  0  0  0  0  0  0
   33.0830   29.0740   38.9310 O   0  0  0  0  0  0  0  0  0  0  0  0
   32.2250   29.5990   39.0620 H   0  0  0  0  0  0  0  0  0  0  0  0
  1  7  1  0  0  0  0
  1  3  1  0  0  0  0
  2  1  1  0  0  0  0
  4  5  1  0  0  0  0
  4 13  1  0  0  0  0
  5  9  1  0  0  0  0
  6  5  2  0  0  0  0
  7  8  1  0  0  0  0
  7  6  1  0  0  0  0
  8  4  2  0  0  0  0
 10  6  1  0  0  0  0
 11 17  1  0  0  0  0
 12 18  1  0  0  0  0
 12 11  2  0  0  0  0
 13 12  1  0  0  0  0
 14 13  2  0  0  0  0
 14 15  1  0  0  0  0
 15 16  2  0  0  0  0
 16 11  1  0  0  0  0
 19 15  1  0  0  0  0
 19 20  1  0  0  0  0
 21 20  1  0  0  0  0
 22 21  1  0  0  0  0
 23 24  1  0  0  0  0
 23 22  1  0  0  0  0
 24 19  1  0  0  0  0
 25 26  1  0  0  0  0
 25  1  1  0  0  0  0
 27 25  1  0  0  0  0
 28 25  1  0  0  0  0
 29 28  1  0  0  0  0
 29 38  1  0  0  0  0
 30 29  2  0  0  0  0
 31 32  2  0  0  0  0
 31 30  1  0  0  0  0
 32 37  1  0  0  0  0
 33 34  2  0  0  0  0
 33 32  1  0  0  0  0
 34 35  1  0  0  0  0
 35 43  1  0  0  0  0
 35 36  2  0  0  0  0
 36 44  1  0  0  0  0
 37 36  1  0  0  0  0
 37 28  2  0  0  0  0
 39 30  1  0  0  0  0
 40 31  1  0  0  0  0
 41 33  1  0  0  0  0
 42 34  1  0  0  0  0
 44 45  1  0  0  0  0
M  END
>  <minimizedAffinity>
-6.26734352

>  <minimizedRMSD>
0.168148324

$$$$
