
 OpenBabel03242509003D

 22 24  0  0  1  0  0  0  0  0999 V2000
   36.3520   30.6830   41.1180 C   0  0  1  0  0  0  0  0  0  0  0  0
   37.2640   31.5260   40.2910 C   0  0  0  0  0  0  0  0  0  0  0  0
   36.3180   30.5970   39.6170 C   0  0  1  0  0  0  0  0  0  0  0  0
   35.4340   31.1320   41.6140 H   0  0  0  0  0  0  0  0  0  0  0  0
   38.3430   31.3910   40.3470 H   0  0  0  0  0  0  0  0  0  0  0  0
   36.9920   32.6170   40.2280 H   0  0  0  0  0  0  0  0  0  0  0  0
   35.3870   31.0910   39.2020 H   0  0  0  0  0  0  0  0  0  0  0  0
   38.7720   28.8080   43.1220 C   0  0  0  0  0  0  0  0  0  0  0  0
   38.1160   27.5670   43.3380 C   0  0  0  0  0  0  0  0  0  0  0  0
   36.8270   27.3990   42.7720 C   0  0  0  0  0  0  0  0  0  0  0  0
   36.2780   28.4270   42.0490 N   0  0  0  0  0  0  0  0  0  0  0  0
   36.9500   29.5830   41.8760 C   0  0  0  0  0  0  0  0  0  0  0  0
   38.1540   29.7430   42.4050 N   0  0  0  0  0  0  0  0  0  0  0  0
   39.7400   28.8240   43.5960 H   0  0  0  0  0  0  0  0  0  0  0  0
   38.5310   26.7390   43.9070 H   0  0  0  0  0  0  0  0  0  0  0  0
   36.2840   26.4690   42.9090 H   0  0  0  0  0  0  0  0  0  0  0  0
   36.8720   29.5220   38.7720 C   0  0  0  0  0  0  0  0  0  0  0  0
   35.7490   28.9230   37.8770 C   0  0  0  0  0  0  0  0  0  0  0  0
   36.2080   28.5880   36.5050 C   0  0  0  0  0  0  0  0  0  0  0  0
   36.5630   29.8210   35.6920 C   0  0  0  0  0  0  0  0  0  0  0  0
   37.1440   30.8310   36.6800 C   0  0  0  0  0  0  0  0  0  0  0  0
   37.8730   30.0500   37.7840 C   0  0  0  0  0  0  0  0  0  0  0  0
  1  4  1  1  0  0  0
  1 12  1  0  0  0  0
  2  5  1  0  0  0  0
  2  1  1  0  0  0  0
  3  7  1  6  0  0  0
  3  2  1  0  0  0  0
  3  1  1  0  0  0  0
  6  2  1  0  0  0  0
  8  9  1  0  0  0  0
  8 14  1  0  0  0  0
  9 15  1  0  0  0  0
 10 16  1  0  0  0  0
 10  9  2  0  0  0  0
 11 10  1  0  0  0  0
 12 11  2  0  0  0  0
 12 13  1  0  0  0  0
 13  8  2  0  0  0  0
 17  3  1  0  0  0  0
 18 17  1  0  0  0  0
 19 18  1  0  0  0  0
 20 19  1  0  0  0  0
 20 21  1  0  0  0  0
 21 22  1  0  0  0  0
 22 17  1  0  0  0  0
M  END
>  <minimizedAffinity>
-4.34287071

>  <minimizedRMSD>
2.4911046

$$$$
