
 OpenBabel03242509283D

 45 49  0  0  0  0  0  0  0  0999 V2000
   36.1970   30.1600   41.0870 C   0  0  0  0  0  0  0  0  0  0  0  0
   36.8830   30.8910   40.5910 H   0  0  0  0  0  0  0  0  0  0  0  0
   35.6650   30.7480   41.8660 H   0  0  0  0  0  0  0  0  0  0  0  0
   38.4750   28.0180   42.6950 C   0  0  0  0  0  0  0  0  0  0  0  0
   37.3110   27.2980   42.8220 C   0  0  0  0  0  0  0  0  0  0  0  0
   36.3140   28.0590   42.2080 C   0  0  0  0  0  0  0  0  0  0  0  0
   36.9490   29.1620   41.7660 N   0  0  0  0  0  0  0  0  0  0  0  0
   38.2190   29.1800   42.0290 N   0  0  0  0  0  0  0  0  0  0  0  0
   37.2310   26.3350   43.3100 H   0  0  0  0  0  0  0  0  0  0  0  0
   35.3000   27.7350   42.1600 H   0  0  0  0  0  0  0  0  0  0  0  0
   41.2320   26.1110   44.3190 C   0  0  0  0  0  0  0  0  0  0  0  0
   39.9510   26.4270   43.8620 C   0  0  0  0  0  0  0  0  0  0  0  0
   39.7920   27.6570   43.1740 C   0  0  0  0  0  0  0  0  0  0  0  0
   40.8540   28.4660   42.9850 N   0  0  0  0  0  0  0  0  0  0  0  0
   42.0890   28.0870   43.4660 C   0  0  0  0  0  0  0  0  0  0  0  0
   42.2600   26.9390   44.1140 N   0  0  0  0  0  0  0  0  0  0  0  0
   41.3980   25.1800   44.8520 H   0  0  0  0  0  0  0  0  0  0  0  0
   39.1100   25.7600   44.0250 H   0  0  0  0  0  0  0  0  0  0  0  0
   43.1570   29.0900   43.1760 C   0  0  0  0  0  0  0  0  0  0  0  0
   44.2230   28.9050   44.2060 C   0  0  0  0  0  0  0  0  0  0  0  0
   45.0230   30.1490   44.4850 C   0  0  0  0  0  0  0  0  0  0  0  0
   43.9970   31.1380   45.0480 C   0  0  0  0  0  0  0  0  0  0  0  0
   43.1350   31.5260   43.8950 C   0  0  0  0  0  0  0  0  0  0  0  0
   42.5370   30.4260   43.1100 C   0  0  0  0  0  0  0  0  0  0  0  0
   35.2730   29.6660   40.0210 C   0  0  0  0  0  0  0  0  0  0  0  0
   34.7310   28.8020   40.3760 H   0  0  0  0  0  0  0  0  0  0  0  0
   34.6360   30.6050   39.8920 H   0  0  0  0  0  0  0  0  0  0  0  0
   35.8900   29.5350   38.6740 C   0  0  0  0  0  0  0  0  0  0  0  0
   37.2010   29.7000   38.3410 C   0  0  0  0  0  0  0  0  0  0  0  0
   37.7180   29.6430   37.0820 C   0  0  0  0  0  0  0  0  0  0  0  0
   36.8780   29.3980   36.0190 C   0  0  0  0  0  0  0  0  0  0  0  0
   35.5280   29.2190   36.2910 C   0  0  0  0  0  0  0  0  0  0  0  0
   34.7440   28.9820   35.1870 C   0  0  0  0  0  0  0  0  0  0  0  0
   33.4010   28.7890   35.3500 C   0  0  0  0  0  0  0  0  0  0  0  0
   32.8610   28.8350   36.6220 C   0  0  0  0  0  0  0  0  0  0  0  0
   33.6990   29.0750   37.6710 C   0  0  0  0  0  0  0  0  0  0  0  0
   35.0360   29.2820   37.5850 C   0  0  0  0  0  0  0  0  0  0  0  0
   37.8670   29.8940   39.1830 H   0  0  0  0  0  0  0  0  0  0  0  0
   38.7830   29.7930   36.9670 H   0  0  0  0  0  0  0  0  0  0  0  0
   37.2750   29.3510   35.0140 H   0  0  0  0  0  0  0  0  0  0  0  0
   35.1480   28.9390   34.1750 H   0  0  0  0  0  0  0  0  0  0  0  0
   32.7720   28.6050   34.4890 H   0  0  0  0  0  0  0  0  0  0  0  0
   31.8010   28.6800   36.7420 H   0  0  0  0  0  0  0  0  0  0  0  0
   33.0990   29.0890   38.9190 O   0  0  0  0  0  0  0  0  0  0  0  0
   32.2270   29.5950   39.0340 H   0  0  0  0  0  0  0  0  0  0  0  0
  1  7  1  0  0  0  0
  1  3  1  0  0  0  0
  2  1  1  0  0  0  0
  4  5  1  0  0  0  0
  4 13  1  0  0  0  0
  5  9  1  0  0  0  0
  6  5  2  0  0  0  0
  7  8  1  0  0  0  0
  7  6  1  0  0  0  0
  8  4  2  0  0  0  0
 10  6  1  0  0  0  0
 11 17  1  0  0  0  0
 12 18  1  0  0  0  0
 12 11  2  0  0  0  0
 13 12  1  0  0  0  0
 14 13  2  0  0  0  0
 14 15  1  0  0  0  0
 15 16  2  0  0  0  0
 16 11  1  0  0  0  0
 19 15  1  0  0  0  0
 19 20  1  0  0  0  0
 20 21  1  0  0  0  0
 21 22  1  0  0  0  0
 23 22  1  0  0  0  0
 24 19  1  0  0  0  0
 24 23  1  0  0  0  0
 25 26  1  0  0  0  0
 25  1  1  0  0  0  0
 27 25  1  0  0  0  0
 28 25  1  0  0  0  0
 29 28  1  0  0  0  0
 29 38  1  0  0  0  0
 30 29  2  0  0  0  0
 31 32  2  0  0  0  0
 31 30  1  0  0  0  0
 32 37  1  0  0  0  0
 33 34  2  0  0  0  0
 33 32  1  0  0  0  0
 34 35  1  0  0  0  0
 35 43  1  0  0  0  0
 35 36  2  0  0  0  0
 36 44  1  0  0  0  0
 37 36  1  0  0  0  0
 37 28  2  0  0  0  0
 39 30  1  0  0  0  0
 40 31  1  0  0  0  0
 41 33  1  0  0  0  0
 42 34  1  0  0  0  0
 44 45  1  0  0  0  0
M  END
>  <minimizedAffinity>
-6.31108809

>  <minimizedRMSD>
0.468240499

$$$$
