
 OpenBabel03242508483D

 35 38  0  0  1  0  0  0  0  0999 V2000
   38.7330   26.8320   42.4140 C   0  0  2  0  0  0  0  0  0  0  0  0
   39.4430   27.4590   43.5150 C   0  0  0  0  0  0  0  0  0  0  0  0
   40.1640   26.3150   44.2240 C   0  0  0  0  0  0  0  0  0  0  0  0
   40.1530   25.1580   43.2580 C   0  0  0  0  0  0  0  0  0  0  0  0
   39.6670   25.7140   41.9340 C   0  0  1  0  0  0  0  0  0  0  0  0
   37.8380   26.2630   42.7880 H   0  0  0  0  0  0  0  0  0  0  0  0
   38.7390   27.9800   44.2030 H   0  0  0  0  0  0  0  0  0  0  0  0
   40.2540   28.1520   43.2110 H   0  0  0  0  0  0  0  0  0  0  0  0
   41.1830   26.5640   44.5270 H   0  0  0  0  0  0  0  0  0  0  0  0
   39.5620   26.1050   45.1530 H   0  0  0  0  0  0  0  0  0  0  0  0
   39.5020   24.3950   43.6830 H   0  0  0  0  0  0  0  0  0  0  0  0
   41.1810   24.7310   43.1200 H   0  0  0  0  0  0  0  0  0  0  0  0
   40.4490   26.0920   41.2870 H   0  0  0  0  0  0  0  0  0  0  0  0
   39.2300   28.4570   40.5210 C   0  0  0  0  0  0  0  0  0  0  0  0
   38.3160   27.6860   41.3090 C   0  0  0  0  0  0  0  0  0  0  0  0
   36.9690   27.7410   41.0180 C   0  0  0  0  0  0  0  0  0  0  0  0
   36.5680   28.5420   39.9740 N   0  0  0  0  0  0  0  0  0  0  0  0
   37.4710   29.2770   39.2260 C   0  0  0  0  0  0  0  0  0  0  0  0
   38.8210   29.2250   39.5150 N   0  0  0  0  0  0  0  0  0  0  0  0
   40.2650   28.4140   40.7450 H   0  0  0  0  0  0  0  0  0  0  0  0
   36.2070   27.2110   41.5370 H   0  0  0  0  0  0  0  0  0  0  0  0
   37.0280   30.1230   38.1210 C   0  0  0  0  0  0  0  0  0  0  0  0
   38.0390   31.1600   37.6830 C   0  0  0  0  0  0  0  0  0  0  0  0
   37.3830   31.6900   36.4230 C   0  0  0  0  0  0  0  0  0  0  0  0
   36.7150   30.4860   35.7990 C   0  0  0  0  0  0  0  0  0  0  0  0
   36.8300   29.3670   36.8150 C   0  0  0  0  0  0  0  0  0  0  0  0
   38.9390   24.5460   41.3530 C   0  0  0  0  0  0  0  0  0  0  0  0
   37.7770   24.0820   41.8760 N   0  0  0  0  0  0  0  0  0  0  0  0
   37.4030   23.0590   41.1370 O   0  0  0  0  0  0  0  0  0  0  0  0
   38.2900   22.8820   40.1840 C   0  0  0  0  0  0  0  0  0  0  0  0
   39.2630   23.7920   40.2880 N   0  0  0  0  0  0  0  0  0  0  0  0
   38.1380   21.7850   39.1740 C   0  0  0  0  0  0  0  0  0  0  0  0
   37.0480   21.0110   39.5040 F   0  0  0  0  0  0  0  0  0  0  0  0
   37.9690   22.3200   37.9040 F   0  0  0  0  0  0  0  0  0  0  0  0
   39.2710   20.9790   39.1750 F   0  0  0  0  0  0  0  0  0  0  0  0
  1  6  1  1  0  0  0
  1  2  1  0  0  0  0
  2  7  1  0  0  0  0
  2  3  1  0  0  0  0
  3  9  1  0  0  0  0
  3 10  1  0  0  0  0
  4 11  1  0  0  0  0
  4  3  1  0  0  0  0
  5 13  1  6  0  0  0
  5  1  1  0  0  0  0
  5  4  1  0  0  0  0
  8  2  1  0  0  0  0
 12  4  1  0  0  0  0
 14 20  1  0  0  0  0
 14 15  1  0  0  0  0
 15  1  1  0  0  0  0
 16 15  2  0  0  0  0
 16 21  1  0  0  0  0
 17 16  1  0  0  0  0
 18 19  1  0  0  0  0
 18 17  2  0  0  0  0
 19 14  2  0  0  0  0
 22 18  1  0  0  0  0
 23 22  1  0  0  0  0
 24 23  1  0  0  0  0
 25 24  1  0  0  0  0
 25 26  1  0  0  0  0
 26 22  1  0  0  0  0
 27 28  2  0  0  0  0
 27  5  1  0  0  0  0
 29 28  1  0  0  0  0
 30 31  2  0  0  0  0
 30 29  1  0  0  0  0
 31 27  1  0  0  0  0
 32 35  1  0  0  0  0
 32 33  1  0  0  0  0
 32 30  1  0  0  0  0
 34 32  1  0  0  0  0
M  END
>  <minimizedAffinity>
-4.72723293

>  <minimizedRMSD>
2.69648576

$$$$
