
     RDKit          3D

 26 27  0  0  0  0  0  0  0  0999 V2000
   37.9684   28.8793   43.3676 C   0  0  0  0  0  0  0  0  0  0  0  0
   38.0774   27.4739   43.3102 C   0  0  0  0  0  0  0  0  0  0  0  0
   37.4359   26.8144   42.2624 C   0  0  0  0  0  0  0  0  0  0  0  0
   36.7413   27.5729   41.3561 N   0  0  0  0  0  0  0  0  0  0  0  0
   36.6579   28.9130   41.4410 C   0  0  0  0  0  0  0  0  0  0  0  0
   37.2743   29.5546   42.4492 N   0  0  0  0  0  0  0  0  0  0  0  0
   37.5199   25.3325   42.1558 C   0  0  0  0  0  0  0  0  0  0  0  0
   37.6527   25.0600   40.8012 F   0  0  0  0  0  0  0  0  0  0  0  0
   38.6343   24.8389   42.7897 F   0  0  0  0  0  0  0  0  0  0  0  0
   36.3839   24.7155   42.6398 F   0  0  0  0  0  0  0  0  0  0  0  0
   38.4797   29.3869   44.2000 H   0  0  0  0  0  0  0  0  0  0  0  0
   38.6370   26.9318   44.0510 H   0  0  0  0  0  0  0  0  0  0  0  0
   35.8764   29.6656   40.4058 C   0  0  0  0  0  0  0  0  0  0  0  0
   34.9447   30.6693   41.0219 C   0  0  0  0  0  0  0  0  0  0  0  0
   34.9928   31.9091   40.1929 C   0  0  0  0  0  0  0  0  0  0  0  0
   36.3279   31.8820   39.5239 C   0  0  0  0  0  0  0  0  0  0  0  0
   36.7412   30.4277   39.4528 C   0  0  0  0  0  0  0  0  0  0  0  0
   35.2408   28.9291   39.8482 H   0  0  0  0  0  0  0  0  0  0  0  0
   33.8882   30.3310   41.0753 H   0  0  0  0  0  0  0  0  0  0  0  0
   35.3264   30.9081   42.0280 H   0  0  0  0  0  0  0  0  0  0  0  0
   34.1456   31.8930   39.4517 H   0  0  0  0  0  0  0  0  0  0  0  0
   34.8801   32.8405   40.8123 H   0  0  0  0  0  0  0  0  0  0  0  0
   36.1892   32.3166   38.5027 H   0  0  0  0  0  0  0  0  0  0  0  0
   37.0852   32.4340   40.1128 H   0  0  0  0  0  0  0  0  0  0  0  0
   37.8143   30.3355   39.7223 H   0  0  0  0  0  0  0  0  0  0  0  0
   36.5445   30.0871   38.4098 H   0  0  0  0  0  0  0  0  0  0  0  0
  2  1  2  0
  3  2  1  0
  4  5  1  0
  4  3  2  0
  5  6  2  0
  6  1  1  0
  7  3  1  0
  7 10  1  0
  7  9  1  0
  8  7  1  0
  1 11  1  0
  2 12  1  0
 13 14  1  0
 14 15  1  0
 15 16  1  0
 16 17  1  0
 17 13  1  0
 13 18  1  0
 14 19  1  0
 14 20  1  0
 15 21  1  0
 15 22  1  0
 16 23  1  0
 16 24  1  0
 17 25  1  0
 17 26  1  0
  5 13  1  0
M  ISO  2  11  14  12  14
M  END
>  <DihAtoms>  (1) 
3,4,12,13

>  <DihDeg>  (1) 
-62.47135660387491

$$$$
