
 OpenBabel03242509283D

 44 48  0  0  0  0  0  0  0  0999 V2000
   36.0410   30.0480   40.9190 C   0  0  0  0  0  0  0  0  0  0  0  0
   36.7080   30.7800   40.4020 H   0  0  0  0  0  0  0  0  0  0  0  0
   35.4890   30.6330   41.6830 H   0  0  0  0  0  0  0  0  0  0  0  0
   38.3940   28.0480   42.6090 C   0  0  0  0  0  0  0  0  0  0  0  0
   37.2800   27.2650   42.6970 C   0  0  0  0  0  0  0  0  0  0  0  0
   36.2530   27.9560   42.0510 C   0  0  0  0  0  0  0  0  0  0  0  0
   36.8240   29.0900   41.6290 N   0  0  0  0  0  0  0  0  0  0  0  0
   38.0770   29.1830   41.9350 N   0  0  0  0  0  0  0  0  0  0  0  0
   37.2940   26.3020   43.1970 H   0  0  0  0  0  0  0  0  0  0  0  0
   35.2600   27.5570   41.9760 H   0  0  0  0  0  0  0  0  0  0  0  0
   41.2290   26.3090   44.2780 C   0  0  0  0  0  0  0  0  0  0  0  0
   39.9410   26.5420   43.7860 C   0  0  0  0  0  0  0  0  0  0  0  0
   39.7180   27.7740   43.1270 C   0  0  0  0  0  0  0  0  0  0  0  0
   40.7260   28.6550   43.0010 N   0  0  0  0  0  0  0  0  0  0  0  0
   41.9600   28.3680   43.5040 C   0  0  0  0  0  0  0  0  0  0  0  0
   42.2060   27.2060   44.1360 N   0  0  0  0  0  0  0  0  0  0  0  0
   41.4710   25.3720   44.8010 H   0  0  0  0  0  0  0  0  0  0  0  0
   39.1580   25.7970   43.9130 H   0  0  0  0  0  0  0  0  0  0  0  0
   42.9950   29.4080   43.3090 C   0  0  0  0  0  3  0  0  0  0  0  0
   42.3490   30.7570   43.0540 C   0  0  0  0  0  2  0  0  0  0  0  0
   43.4450   31.7100   43.5160 C   0  0  0  0  0  2  0  0  0  0  0  0
   43.8200   31.0860   44.8430 C   0  0  0  0  0  2  0  0  0  0  0  0
   43.8890   29.6120   44.4930 C   0  0  0  0  0  2  0  0  0  0  0  0
   35.1430   29.4840   39.8630 C   0  0  0  0  0  0  0  0  0  0  0  0
   34.4260   30.3650   39.7570 H   0  0  0  0  0  0  0  0  0  0  0  0
   34.6870   28.5700   40.2110 H   0  0  0  0  0  0  0  0  0  0  0  0
   35.7490   29.4140   38.5080 C   0  0  0  0  0  0  0  0  0  0  0  0
   37.0630   29.5610   38.1770 C   0  0  0  0  0  0  0  0  0  0  0  0
   37.5730   29.5700   36.9140 C   0  0  0  0  0  0  0  0  0  0  0  0
   36.7180   29.4200   35.8420 C   0  0  0  0  0  0  0  0  0  0  0  0
   35.3750   29.2650   36.1110 C   0  0  0  0  0  0  0  0  0  0  0  0
   34.5720   29.1240   35.0050 C   0  0  0  0  0  0  0  0  0  0  0  0
   33.2230   28.9620   35.1580 C   0  0  0  0  0  0  0  0  0  0  0  0
   32.6880   28.9410   36.4380 C   0  0  0  0  0  0  0  0  0  0  0  0
   33.5410   29.0860   37.4960 C   0  0  0  0  0  0  0  0  0  0  0  0
   34.8820   29.2570   37.4170 C   0  0  0  0  0  0  0  0  0  0  0  0
   37.7370   29.6810   39.0330 H   0  0  0  0  0  0  0  0  0  0  0  0
   38.6420   29.6950   36.8100 H   0  0  0  0  0  0  0  0  0  0  0  0
   37.1270   29.4300   34.8410 H   0  0  0  0  0  0  0  0  0  0  0  0
   34.9600   29.1350   33.9960 H   0  0  0  0  0  0  0  0  0  0  0  0
   32.5520   28.8510   34.3130 H   0  0  0  0  0  0  0  0  0  0  0  0
   31.6280   28.8110   36.5520 H   0  0  0  0  0  0  0  0  0  0  0  0
   32.9460   29.0370   38.7440 O   0  0  0  0  0  0  0  0  0  0  0  0
   32.5200   28.1610   39.0440 H   0  0  0  0  0  0  0  0  0  0  0  0
  1  7  1  0  0  0  0
  1  3  1  0  0  0  0
  2  1  1  0  0  0  0
  4  5  1  0  0  0  0
  4 13  1  0  0  0  0
  5  9  1  0  0  0  0
  6  5  2  0  0  0  0
  7  8  1  0  0  0  0
  7  6  1  0  0  0  0
  8  4  2  0  0  0  0
 10  6  1  0  0  0  0
 11 17  1  0  0  0  0
 12 18  1  0  0  0  0
 12 11  2  0  0  0  0
 13 12  1  0  0  0  0
 14 13  2  0  0  0  0
 14 15  1  0  0  0  0
 15 16  2  0  0  0  0
 16 11  1  0  0  0  0
 19 15  1  0  0  0  0
 19 23  1  0  0  0  0
 20 19  1  0  0  0  0
 20 21  1  0  0  0  0
 21 22  1  0  0  0  0
 23 22  1  0  0  0  0
 24 26  1  0  0  0  0
 24  1  1  0  0  0  0
 25 24  1  0  0  0  0
 27 24  1  0  0  0  0
 28 27  1  0  0  0  0
 28 37  1  0  0  0  0
 29 28  2  0  0  0  0
 30 31  2  0  0  0  0
 30 29  1  0  0  0  0
 31 36  1  0  0  0  0
 32 33  2  0  0  0  0
 32 31  1  0  0  0  0
 33 34  1  0  0  0  0
 34 42  1  0  0  0  0
 34 35  2  0  0  0  0
 35 43  1  0  0  0  0
 36 35  1  0  0  0  0
 36 27  2  0  0  0  0
 38 29  1  0  0  0  0
 39 30  1  0  0  0  0
 40 32  1  0  0  0  0
 41 33  1  0  0  0  0
 43 44  1  0  0  0  0
M  END
>  <minimizedAffinity>
-6.39866543

>  <minimizedRMSD>
0.412305564

$$$$
