
     RDKit          3D

 53 57  0  0  0  0  0  0  0  0999 V2000
   35.2853   29.4933   40.0750 C   0  0  0  0  0  0  0  0  0  0  0  0
   35.8942   29.4234   38.7211 C   0  0  0  0  0  0  0  0  0  0  0  0
   37.2059   29.5885   38.3908 C   0  0  0  0  0  0  0  0  0  0  0  0
   37.7166   29.5957   37.1277 C   0  0  0  0  0  0  0  0  0  0  0  0
   36.8658   29.4251   36.0563 C   0  0  0  0  0  0  0  0  0  0  0  0
   35.5252   29.2513   36.3253 C   0  0  0  0  0  0  0  0  0  0  0  0
   34.7261   29.0905   35.2190 C   0  0  0  0  0  0  0  0  0  0  0  0
   33.3785   28.9091   35.3711 C   0  0  0  0  0  0  0  0  0  0  0  0
   32.8428   28.8879   36.6509 C   0  0  0  0  0  0  0  0  0  0  0  0
   33.6924   29.0538   37.7085 C   0  0  0  0  0  0  0  0  0  0  0  0
   35.0313   29.2448   37.6296 C   0  0  0  0  0  0  0  0  0  0  0  0
   33.0963   29.0050   38.9562 O   0  0  0  0  0  0  0  0  0  0  0  0
   36.1723   30.0799   41.1279 C   0  0  0  0  0  0  0  0  0  0  0  0
   38.6503   28.1511   42.7188 C   0  0  0  0  0  0  0  0  0  0  0  0
   37.5610   27.3436   42.8685 C   0  0  0  0  0  0  0  0  0  0  0  0
   36.4867   28.0049   42.2665 C   0  0  0  0  0  0  0  0  0  0  0  0
   37.0111   29.1467   41.8072 N   0  0  0  0  0  0  0  0  0  0  0  0
   38.2749   29.2723   42.0506 N   0  0  0  0  0  0  0  0  0  0  0  0
   41.5742   26.5613   44.3831 C   0  0  0  0  0  0  0  0  0  0  0  0
   40.2577   26.7613   43.9551 C   0  0  0  0  0  0  0  0  0  0  0  0
   40.0043   27.9126   43.1743 C   0  0  0  0  0  0  0  0  0  0  0  0
   41.0107   28.7532   42.8778 N   0  0  0  0  0  0  0  0  0  0  0  0
   42.2736   28.5017   43.3260 C   0  0  0  0  0  0  0  0  0  0  0  0
   42.5497   27.4162   44.0708 N   0  0  0  0  0  0  0  0  0  0  0  0
   34.5544   30.3618   39.9607 H   0  0  0  0  0  0  0  0  0  0  0  0
   34.8425   28.5754   40.4287 H   0  0  0  0  0  0  0  0  0  0  0  0
   37.8765   29.7245   39.2472 H   0  0  0  0  0  0  0  0  0  0  0  0
   38.7837   29.7374   37.0252 H   0  0  0  0  0  0  0  0  0  0  0  0
   37.2761   29.4338   35.0556 H   0  0  0  0  0  0  0  0  0  0  0  0
   35.1149   29.0999   34.2100 H   0  0  0  0  0  0  0  0  0  0  0  0
   32.7109   28.7808   34.5260 H   0  0  0  0  0  0  0  0  0  0  0  0
   31.7851   28.7426   36.7643 H   0  0  0  0  0  0  0  0  0  0  0  0
   32.6843   28.1236   39.2622 H   0  0  0  0  0  0  0  0  0  0  0  0
   36.7951   30.8522   40.6147 H   0  0  0  0  0  0  0  0  0  0  0  0
   35.6051   30.6242   41.9108 H   0  0  0  0  0  0  0  0  0  0  0  0
   37.6213   26.3875   43.3750 H   0  0  0  0  0  0  0  0  0  0  0  0
   35.5025   27.5817   42.2442 H   0  0  0  0  0  0  0  0  0  0  0  0
   41.8407   25.6858   44.9938 H   0  0  0  0  0  0  0  0  0  0  0  0
   39.4766   26.0513   44.2212 H   0  0  0  0  0  0  0  0  0  0  0  0
   43.3051   29.4921   42.9413 C   0  0  0  0  0  0  0  0  0  0  0  0
   43.3131   30.6550   43.9172 C   0  0  0  0  0  0  0  0  0  0  0  0
   44.7408   31.1657   43.7675 C   0  0  0  0  0  0  0  0  0  0  0  0
   45.5139   29.8675   43.8494 C   0  0  0  0  0  0  0  0  0  0  0  0
   44.7023   28.9556   42.9492 C   0  0  0  0  0  0  0  0  0  0  0  0
   43.0186   29.9413   41.9532 H   0  0  0  0  0  0  0  0  0  0  0  0
   42.6316   31.4720   43.6272 H   0  0  0  0  0  0  0  0  0  0  0  0
   43.1609   30.3555   44.9606 H   0  0  0  0  0  0  0  0  0  0  0  0
   44.8969   31.6055   42.7564 H   0  0  0  0  0  0  0  0  0  0  0  0
   44.9639   31.8702   44.5857 H   0  0  0  0  0  0  0  0  0  0  0  0
   45.5457   29.5147   44.9057 H   0  0  0  0  0  0  0  0  0  0  0  0
   46.5469   30.0315   43.4806 H   0  0  0  0  0  0  0  0  0  0  0  0
   45.1948   28.9528   41.9633 H   0  0  0  0  0  0  0  0  0  0  0  0
   44.7080   27.9016   43.3342 H   0  0  0  0  0  0  0  0  0  0  0  0
  1 13  1  0
  2  1  1  0
  3  2  2  0
  4  3  1  0
  5  6  1  0
  5  4  2  0
  6 11  2  0
  7  8  2  0
  7  6  1  0
  8  9  1  0
  9 10  2  0
 10 12  1  0
 11 10  1  0
 11  2  1  0
 13 17  1  0
 14 15  1  0
 14 21  1  0
 16 15  2  0
 17 18  1  0
 17 16  1  0
 18 14  2  0
 20 19  2  0
 21 20  1  0
 22 21  2  0
 22 23  1  0
 23 24  2  0
 24 19  1  0
  1 25  1  0
  1 26  1  0
  3 27  1  0
  4 28  1  0
  5 29  1  0
  7 30  1  0
  8 31  1  0
  9 32  1  0
 12 33  1  0
 13 34  1  0
 13 35  1  0
 15 36  1  0
 16 37  1  0
 19 38  1  0
 20 39  1  0
 40 41  1  0
 41 42  1  0
 42 43  1  0
 43 44  1  0
 44 40  1  0
 40 45  1  0
 41 46  1  0
 41 47  1  0
 42 48  1  0
 42 49  1  0
 43 50  1  0
 43 51  1  0
 44 52  1  0
 44 53  1  0
 23 40  1  0
M  ISO  8  25   8  26   8  27  14  28  14  29  14  30  14  31  14  32  14
M  ISO  7  33   3  34   8  35   8  36  14  37  14  38  14  39  14
M  END
>  <DihAtoms>  (1) 
21,22,39,40

>  <DihDeg>  (1) 
-65.26757007963224

$$$$
