
 OpenBabel03242505553D

 33 36  0  0  0  0  0  0  0  0999 V2000
   38.5920   27.1290   43.2790 C   0  0  0  0  0  0  0  0  0  0  0  0
   39.7970   27.0680   43.9910 C   0  0  0  0  0  0  0  0  0  0  0  0
   40.6100   25.9630   43.9000 C   0  0  0  0  0  0  0  0  0  0  0  0
   40.2280   24.9060   43.0990 C   0  0  0  0  0  0  0  0  0  0  0  0
   39.0480   24.9550   42.3970 C   0  0  0  0  0  0  0  0  0  0  0  0
   38.6480   23.8940   41.5870 C   0  0  0  0  0  0  0  0  0  0  0  0
   37.4840   23.9410   40.8970 C   0  0  0  0  0  0  0  0  0  0  0  0
   36.6360   25.0380   40.9600 C   0  0  0  0  0  0  0  0  0  0  0  0
   37.0610   26.0850   41.7780 C   0  0  0  0  0  0  0  0  0  0  0  0
   38.2280   26.0750   42.4910 C   0  0  0  0  0  0  0  0  0  0  0  0
   40.1150   27.8630   44.6150 H   0  0  0  0  0  0  0  0  0  0  0  0
   41.5450   25.8830   44.4350 H   0  0  0  0  0  0  0  0  0  0  0  0
   40.8380   24.0110   42.9970 H   0  0  0  0  0  0  0  0  0  0  0  0
   39.2730   23.0150   41.5030 H   0  0  0  0  0  0  0  0  0  0  0  0
   37.1880   23.0980   40.2660 H   0  0  0  0  0  0  0  0  0  0  0  0
   35.7100   25.0550   40.4000 H   0  0  0  0  0  0  0  0  0  0  0  0
   36.3600   26.9070   41.7820 H   0  0  0  0  0  0  0  0  0  0  0  0
   37.6990   28.2850   43.3510 C   0  0  0  0  0  0  0  0  0  0  0  0
   36.6390   28.1170   43.2460 H   0  0  0  0  0  0  0  0  0  0  0  0
   37.8050   28.6380   44.4310 H   0  0  0  0  0  0  0  0  0  0  0  0
   39.3430   30.1470   42.8640 C   0  0  0  0  0  0  0  0  0  0  0  0
   38.1450   29.4770   42.5880 C   0  0  0  0  0  0  0  0  0  0  0  0
   37.3820   29.9940   41.5490 C   0  0  0  0  0  0  0  0  0  0  0  0
   37.8240   31.0740   40.8890 N   0  0  0  0  0  0  0  0  0  0  0  0
   38.9700   31.6880   41.1770 C   0  0  0  0  0  0  0  0  0  0  0  0
   39.7440   31.2180   42.1820 N   0  0  0  0  0  0  0  0  0  0  0  0
   39.9850   29.8020   43.6580 H   0  0  0  0  0  0  0  0  0  0  0  0
   36.4360   29.5260   41.2750 H   0  0  0  0  0  0  0  0  0  0  0  0
   39.3240   32.8750   40.3540 C   0  0  0  0  0  0  0  0  0  0  0  0
   40.7670   33.2530   40.4250 C   0  0  0  0  0  0  0  0  0  0  0  0
   40.7370   34.6450   39.7840 C   0  0  0  0  0  0  0  0  0  0  0  0
   39.3510   35.2050   40.1040 C   0  0  0  0  0  0  0  0  0  0  0  0
   38.6640   34.1340   40.9060 C   0  0  0  0  0  0  0  0  0  0  0  0
  1 18  1  0  0  0  0
  1  2  1  0  0  0  0
  2 11  1  0  0  0  0
  3  2  2  0  0  0  0
  3 12  1  0  0  0  0
  4  3  1  0  0  0  0
  5 10  1  0  0  0  0
  5  4  2  0  0  0  0
  6  5  1  0  0  0  0
  7  8  1  0  0  0  0
  7  6  2  0  0  0  0
  8  9  2  0  0  0  0
  9 17  1  0  0  0  0
  9 10  1  0  0  0  0
 10  1  2  0  0  0  0
 13  4  1  0  0  0  0
 14  6  1  0  0  0  0
 15  7  1  0  0  0  0
 16  8  1  0  0  0  0
 18 20  1  0  0  0  0
 19 18  1  0  0  0  0
 21 27  1  0  0  0  0
 22 21  1  0  0  0  0
 22 18  1  0  0  0  0
 23 22  2  0  0  0  0
 24 25  2  0  0  0  0
 24 23  1  0  0  0  0
 25 26  1  0  0  0  0
 26 21  2  0  0  0  0
 28 23  1  0  0  0  0
 29 30  1  0  0  0  0
 29 33  1  0  0  0  0
 29 25  1  0  0  0  0
 31 32  1  0  0  0  0
 31 30  1  0  0  0  0
 32 33  1  0  0  0  0
M  END
>  <minimizedAffinity>
-6.58869743

>  <minimizedRMSD>
0.990099013

$$$$
