
 OpenBabel03242509283D

 44 48  0  0  0  0  0  0  0  0999 V2000
   36.0280   30.0270   40.9350 C   0  0  0  0  0  0  0  0  0  0  0  0
   36.6900   30.7740   40.4330 H   0  0  0  0  0  0  0  0  0  0  0  0
   35.4600   30.5970   41.6990 H   0  0  0  0  0  0  0  0  0  0  0  0
   38.3930   28.0360   42.6200 C   0  0  0  0  0  0  0  0  0  0  0  0
   37.2830   27.2500   42.7120 C   0  0  0  0  0  0  0  0  0  0  0  0
   36.2500   27.9380   42.0690 C   0  0  0  0  0  0  0  0  0  0  0  0
   36.8170   29.0720   41.6430 N   0  0  0  0  0  0  0  0  0  0  0  0
   38.0710   29.1700   41.9450 N   0  0  0  0  0  0  0  0  0  0  0  0
   37.3010   26.2890   43.2130 H   0  0  0  0  0  0  0  0  0  0  0  0
   35.2590   27.5350   41.9980 H   0  0  0  0  0  0  0  0  0  0  0  0
   41.2400   26.3080   44.2800 C   0  0  0  0  0  0  0  0  0  0  0  0
   39.9500   26.5360   43.7910 C   0  0  0  0  0  0  0  0  0  0  0  0
   39.7200   27.7680   43.1330 C   0  0  0  0  0  0  0  0  0  0  0  0
   40.7250   28.6520   43.0030 N   0  0  0  0  0  0  0  0  0  0  0  0
   41.9620   28.3690   43.5020 C   0  0  0  0  0  0  0  0  0  0  0  0
   42.2140   27.2080   44.1340 N   0  0  0  0  0  0  0  0  0  0  0  0
   41.4870   25.3720   44.8020 H   0  0  0  0  0  0  0  0  0  0  0  0
   39.1690   25.7890   43.9210 H   0  0  0  0  0  0  0  0  0  0  0  0
   42.9920   29.4130   43.3030 C   0  0  0  0  0  3  0  0  0  0  0  0
   42.3400   30.7610   43.0550 C   0  0  0  0  0  2  0  0  0  0  0  0
   43.4360   31.7160   43.5110 C   0  0  0  0  0  2  0  0  0  0  0  0
   43.8220   31.0900   44.8340 C   0  0  0  0  0  2  0  0  0  0  0  0
   43.8930   29.6170   44.4810 C   0  0  0  0  0  2  0  0  0  0  0  0
   35.1500   29.4620   39.8640 C   0  0  0  0  0  0  0  0  0  0  0  0
   34.4320   30.3410   39.7470 H   0  0  0  0  0  0  0  0  0  0  0  0
   34.6910   28.5460   40.2020 H   0  0  0  0  0  0  0  0  0  0  0  0
   35.7780   29.3970   38.5180 C   0  0  0  0  0  0  0  0  0  0  0  0
   37.0980   29.5380   38.2110 C   0  0  0  0  0  0  0  0  0  0  0  0
   37.6290   29.5520   36.9560 C   0  0  0  0  0  0  0  0  0  0  0  0
   36.7910   29.4130   35.8690 C   0  0  0  0  0  0  0  0  0  0  0  0
   35.4430   29.2640   36.1150 C   0  0  0  0  0  0  0  0  0  0  0  0
   34.6580   29.1350   34.9950 C   0  0  0  0  0  0  0  0  0  0  0  0
   33.3050   28.9800   35.1240 C   0  0  0  0  0  0  0  0  0  0  0  0
   32.7490   28.9540   36.3950 C   0  0  0  0  0  0  0  0  0  0  0  0
   33.5850   29.0880   37.4680 C   0  0  0  0  0  0  0  0  0  0  0  0
   34.9290   29.2510   37.4120 C   0  0  0  0  0  0  0  0  0  0  0  0
   37.7590   29.6490   39.0780 H   0  0  0  0  0  0  0  0  0  0  0  0
   38.7000   29.6720   36.8710 H   0  0  0  0  0  0  0  0  0  0  0  0
   37.2170   29.4270   34.8750 H   0  0  0  0  0  0  0  0  0  0  0  0
   35.0630   29.1500   33.9920 H   0  0  0  0  0  0  0  0  0  0  0  0
   32.6480   28.8780   34.2670 H   0  0  0  0  0  0  0  0  0  0  0  0
   31.6870   28.8300   36.4900 H   0  0  0  0  0  0  0  0  0  0  0  0
   32.9690   29.0350   38.7050 O   0  0  0  0  0  0  0  0  0  0  0  0
   32.5340   28.1590   38.9920 H   0  0  0  0  0  0  0  0  0  0  0  0
  1  7  1  0  0  0  0
  1  3  1  0  0  0  0
  2  1  1  0  0  0  0
  4  5  1  0  0  0  0
  4 13  1  0  0  0  0
  5  9  1  0  0  0  0
  6  5  2  0  0  0  0
  7  8  1  0  0  0  0
  7  6  1  0  0  0  0
  8  4  2  0  0  0  0
 10  6  1  0  0  0  0
 11 17  1  0  0  0  0
 12 18  1  0  0  0  0
 12 11  2  0  0  0  0
 13 12  1  0  0  0  0
 14 13  2  0  0  0  0
 14 15  1  0  0  0  0
 15 16  2  0  0  0  0
 16 11  1  0  0  0  0
 19 15  1  0  0  0  0
 19 23  1  0  0  0  0
 20 19  1  0  0  0  0
 20 21  1  0  0  0  0
 21 22  1  0  0  0  0
 23 22  1  0  0  0  0
 24 26  1  0  0  0  0
 24  1  1  0  0  0  0
 25 24  1  0  0  0  0
 27 24  1  0  0  0  0
 28 27  1  0  0  0  0
 28 37  1  0  0  0  0
 29 28  2  0  0  0  0
 30 31  2  0  0  0  0
 30 29  1  0  0  0  0
 31 36  1  0  0  0  0
 32 33  2  0  0  0  0
 32 31  1  0  0  0  0
 33 34  1  0  0  0  0
 34 42  1  0  0  0  0
 34 35  2  0  0  0  0
 35 43  1  0  0  0  0
 36 35  1  0  0  0  0
 36 27  2  0  0  0  0
 38 29  1  0  0  0  0
 39 30  1  0  0  0  0
 40 32  1  0  0  0  0
 41 33  1  0  0  0  0
 43 44  1  0  0  0  0
M  END
>  <minimizedAffinity>
-6.39704847

>  <minimizedRMSD>
1.25543416

$$$$
