
     RDKit          3D

 26 27  0  0  0  0  0  0  0  0999 V2000
   37.9684   28.8793   43.3676 C   0  0  0  0  0  0  0  0  0  0  0  0
   38.0774   27.4739   43.3102 C   0  0  0  0  0  0  0  0  0  0  0  0
   37.4359   26.8144   42.2624 C   0  0  0  0  0  0  0  0  0  0  0  0
   36.7413   27.5729   41.3561 N   0  0  0  0  0  0  0  0  0  0  0  0
   36.6579   28.9130   41.4410 C   0  0  0  0  0  0  0  0  0  0  0  0
   37.2743   29.5546   42.4492 N   0  0  0  0  0  0  0  0  0  0  0  0
   37.5199   25.3325   42.1558 C   0  0  0  0  0  0  0  0  0  0  0  0
   37.6527   25.0600   40.8012 F   0  0  0  0  0  0  0  0  0  0  0  0
   38.6343   24.8389   42.7897 F   0  0  0  0  0  0  0  0  0  0  0  0
   36.3839   24.7155   42.6398 F   0  0  0  0  0  0  0  0  0  0  0  0
   38.4797   29.3869   44.2000 H   0  0  0  0  0  0  0  0  0  0  0  0
   38.6370   26.9318   44.0510 H   0  0  0  0  0  0  0  0  0  0  0  0
   35.8764   29.6656   40.4058 C   0  0  0  0  0  0  0  0  0  0  0  0
   35.8401   31.1400   40.6882 C   0  0  0  0  0  0  0  0  0  0  0  0
   36.0066   31.8596   39.3916 C   0  0  0  0  0  0  0  0  0  0  0  0
   36.7377   30.9059   38.5048 C   0  0  0  0  0  0  0  0  0  0  0  0
   36.4317   29.5178   39.0249 C   0  0  0  0  0  0  0  0  0  0  0  0
   34.8166   29.3005   40.4384 H   0  0  0  0  0  0  0  0  0  0  0  0
   34.8944   31.4868   41.1560 H   0  0  0  0  0  0  0  0  0  0  0  0
   36.7017   31.3797   41.3326 H   0  0  0  0  0  0  0  0  0  0  0  0
   34.9924   32.1276   38.9830 H   0  0  0  0  0  0  0  0  0  0  0  0
   36.5863   32.8160   39.5064 H   0  0  0  0  0  0  0  0  0  0  0  0
   36.3375   31.0509   37.4705 H   0  0  0  0  0  0  0  0  0  0  0  0
   37.8318   31.0665   38.5551 H   0  0  0  0  0  0  0  0  0  0  0  0
   37.3619   28.9118   39.0287 H   0  0  0  0  0  0  0  0  0  0  0  0
   35.6568   29.0844   38.3510 H   0  0  0  0  0  0  0  0  0  0  0  0
  2  1  2  0
  3  2  1  0
  4  5  1  0
  4  3  2  0
  5  6  2  0
  6  1  1  0
  7  3  1  0
  7 10  1  0
  7  9  1  0
  8  7  1  0
  1 11  1  0
  2 12  1  0
 13 14  1  0
 14 15  1  0
 15 16  1  0
 16 17  1  0
 17 13  1  0
 13 18  1  0
 14 19  1  0
 14 20  1  0
 15 21  1  0
 15 22  1  0
 16 23  1  0
 16 24  1  0
 17 25  1  0
 17 26  1  0
  5 13  1  0
M  ISO  2  11  14  12  14
M  END
>  <DihAtoms>  (1) 
3,4,12,13

>  <DihDeg>  (1) 
-62.47135660387491

$$$$
