
 OpenBabel03242509283D

 44 48  0  0  0  0  0  0  0  0999 V2000
   36.0400   30.0460   40.9190 C   0  0  0  0  0  0  0  0  0  0  0  0
   36.7060   30.7790   40.4040 H   0  0  0  0  0  0  0  0  0  0  0  0
   35.4860   30.6300   41.6830 H   0  0  0  0  0  0  0  0  0  0  0  0
   38.3930   28.0460   42.6090 C   0  0  0  0  0  0  0  0  0  0  0  0
   37.2810   27.2630   42.6970 C   0  0  0  0  0  0  0  0  0  0  0  0
   36.2520   27.9540   42.0510 C   0  0  0  0  0  0  0  0  0  0  0  0
   36.8240   29.0880   41.6290 N   0  0  0  0  0  0  0  0  0  0  0  0
   38.0770   29.1820   41.9350 N   0  0  0  0  0  0  0  0  0  0  0  0
   37.2940   26.3010   43.1970 H   0  0  0  0  0  0  0  0  0  0  0  0
   35.2600   27.5540   41.9760 H   0  0  0  0  0  0  0  0  0  0  0  0
   41.2290   26.3090   44.2790 C   0  0  0  0  0  0  0  0  0  0  0  0
   39.9410   26.5410   43.7860 C   0  0  0  0  0  0  0  0  0  0  0  0
   39.7180   27.7730   43.1270 C   0  0  0  0  0  0  0  0  0  0  0  0
   40.7250   28.6540   43.0010 N   0  0  0  0  0  0  0  0  0  0  0  0
   41.9600   28.3680   43.5040 C   0  0  0  0  0  0  0  0  0  0  0  0
   42.2060   27.2060   44.1370 N   0  0  0  0  0  0  0  0  0  0  0  0
   41.4710   25.3720   44.8020 H   0  0  0  0  0  0  0  0  0  0  0  0
   39.1580   25.7960   43.9130 H   0  0  0  0  0  0  0  0  0  0  0  0
   42.9950   29.4090   43.3090 C   0  0  0  0  0  3  0  0  0  0  0  0
   42.3470   30.7590   43.0560 C   0  0  0  0  0  2  0  0  0  0  0  0
   43.4430   31.7110   43.5150 C   0  0  0  0  0  2  0  0  0  0  0  0
   43.8190   31.0870   44.8410 C   0  0  0  0  0  2  0  0  0  0  0  0
   43.8890   29.6130   44.4910 C   0  0  0  0  0  2  0  0  0  0  0  0
   35.1440   29.4810   39.8610 C   0  0  0  0  0  0  0  0  0  0  0  0
   34.4260   30.3620   39.7550 H   0  0  0  0  0  0  0  0  0  0  0  0
   34.6880   28.5670   40.2080 H   0  0  0  0  0  0  0  0  0  0  0  0
   35.7520   29.4130   38.5070 C   0  0  0  0  0  0  0  0  0  0  0  0
   37.0660   29.5600   38.1780 C   0  0  0  0  0  0  0  0  0  0  0  0
   37.5770   29.5710   36.9150 C   0  0  0  0  0  0  0  0  0  0  0  0
   36.7240   29.4220   35.8420 C   0  0  0  0  0  0  0  0  0  0  0  0
   35.3800   29.2670   36.1100 C   0  0  0  0  0  0  0  0  0  0  0  0
   34.5790   29.1270   35.0020 C   0  0  0  0  0  0  0  0  0  0  0  0
   33.2290   28.9660   35.1530 C   0  0  0  0  0  0  0  0  0  0  0  0
   32.6930   28.9430   36.4330 C   0  0  0  0  0  0  0  0  0  0  0  0
   33.5440   29.0870   37.4920 C   0  0  0  0  0  0  0  0  0  0  0  0
   34.8860   29.2570   37.4150 C   0  0  0  0  0  0  0  0  0  0  0  0
   37.7390   29.6790   39.0350 H   0  0  0  0  0  0  0  0  0  0  0  0
   38.6460   29.6960   36.8130 H   0  0  0  0  0  0  0  0  0  0  0  0
   37.1340   29.4330   34.8420 H   0  0  0  0  0  0  0  0  0  0  0  0
   34.9680   29.1400   33.9930 H   0  0  0  0  0  0  0  0  0  0  0  0
   32.5590   28.8550   34.3070 H   0  0  0  0  0  0  0  0  0  0  0  0
   31.6330   28.8130   36.5450 H   0  0  0  0  0  0  0  0  0  0  0  0
   32.9480   29.0360   38.7390 O   0  0  0  0  0  0  0  0  0  0  0  0
   32.5220   28.1590   39.0370 H   0  0  0  0  0  0  0  0  0  0  0  0
  1  7  1  0  0  0  0
  1  3  1  0  0  0  0
  2  1  1  0  0  0  0
  4  5  1  0  0  0  0
  4 13  1  0  0  0  0
  5  9  1  0  0  0  0
  6  5  2  0  0  0  0
  7  8  1  0  0  0  0
  7  6  1  0  0  0  0
  8  4  2  0  0  0  0
 10  6  1  0  0  0  0
 11 17  1  0  0  0  0
 12 18  1  0  0  0  0
 12 11  2  0  0  0  0
 13 12  1  0  0  0  0
 14 13  2  0  0  0  0
 14 15  1  0  0  0  0
 15 16  2  0  0  0  0
 16 11  1  0  0  0  0
 19 15  1  0  0  0  0
 19 23  1  0  0  0  0
 20 19  1  0  0  0  0
 20 21  1  0  0  0  0
 21 22  1  0  0  0  0
 23 22  1  0  0  0  0
 24 26  1  0  0  0  0
 24  1  1  0  0  0  0
 25 24  1  0  0  0  0
 27 24  1  0  0  0  0
 28 27  1  0  0  0  0
 28 37  1  0  0  0  0
 29 28  2  0  0  0  0
 30 31  2  0  0  0  0
 30 29  1  0  0  0  0
 31 36  1  0  0  0  0
 32 33  2  0  0  0  0
 32 31  1  0  0  0  0
 33 34  1  0  0  0  0
 34 42  1  0  0  0  0
 34 35  2  0  0  0  0
 35 43  1  0  0  0  0
 36 35  1  0  0  0  0
 36 27  2  0  0  0  0
 38 29  1  0  0  0  0
 39 30  1  0  0  0  0
 40 32  1  0  0  0  0
 41 33  1  0  0  0  0
 43 44  1  0  0  0  0
M  END
>  <minimizedAffinity>
-6.39863873

>  <minimizedRMSD>
1.13608539

$$$$
