
 OpenBabel03242507023D

 15 16  0  0  0  0  0  0  0  0999 V2000
   38.8410   30.1410   39.9980 C   0  0  0  0  0  0  0  0  0  0  0  0
   37.5520   30.0370   40.5580 C   0  0  0  0  0  0  0  0  0  0  0  0
   36.8410   31.2020   40.8090 C   0  0  0  0  0  0  0  0  0  0  0  0
   37.4250   32.3850   40.5030 N   0  0  0  0  0  0  0  0  0  0  0  0
   38.6540   32.4740   39.9690 C   0  0  0  0  0  0  0  0  0  0  0  0
   39.3570   31.3620   39.7180 N   0  0  0  0  0  0  0  0  0  0  0  0
   39.4190   29.2420   39.7910 H   0  0  0  0  0  0  0  0  0  0  0  0
   37.1430   29.0630   40.7790 H   0  0  0  0  0  0  0  0  0  0  0  0
   39.2540   33.7690   39.6510 C   0  0  0  0  0  0  0  0  0  0  0  0
   38.7760   34.8770   40.5950 C   0  0  0  0  0  0  0  0  0  0  0  0
   39.7570   35.9770   40.1940 C   0  0  0  0  0  0  0  0  0  0  0  0
   41.0770   35.2180   40.2900 C   0  0  0  0  0  0  0  0  0  0  0  0
   40.7490   33.8140   39.8040 C   0  0  0  0  0  0  0  0  0  0  0  0
   35.5900   31.0560   41.3550 O   0  0  0  0  0  0  0  0  0  0  0  0
   34.7900   31.2820   40.7620 H   0  0  0  0  0  0  0  0  0  0  0  0
  1  2  1  0  0  0  0
  2  8  1  0  0  0  0
  2  3  2  0  0  0  0
  3 14  1  0  0  0  0
  4  3  1  0  0  0  0
  5  4  2  0  0  0  0
  6  5  1  0  0  0  0
  6  1  2  0  0  0  0
  7  1  1  0  0  0  0
  9 13  1  0  0  0  0
  9  5  1  0  0  0  0
  9 10  1  0  0  0  0
 11 12  1  0  0  0  0
 11 10  1  0  0  0  0
 13 12  1  0  0  0  0
 15 14  1  0  0  0  0
M  END
>  <minimizedAffinity>
-4.40975142

>  <minimizedRMSD>
4.9981122

$$$$
