
     RDKit          3D

 26 27  0  0  0  0  0  0  0  0999 V2000
   37.9684   28.8793   43.3676 C   0  0  0  0  0  0  0  0  0  0  0  0
   38.0774   27.4739   43.3102 C   0  0  0  0  0  0  0  0  0  0  0  0
   37.4359   26.8144   42.2624 C   0  0  0  0  0  0  0  0  0  0  0  0
   36.7413   27.5729   41.3561 N   0  0  0  0  0  0  0  0  0  0  0  0
   36.6579   28.9130   41.4410 C   0  0  0  0  0  0  0  0  0  0  0  0
   37.2743   29.5546   42.4492 N   0  0  0  0  0  0  0  0  0  0  0  0
   37.5199   25.3325   42.1558 C   0  0  0  0  0  0  0  0  0  0  0  0
   37.6527   25.0600   40.8012 F   0  0  0  0  0  0  0  0  0  0  0  0
   38.6343   24.8389   42.7897 F   0  0  0  0  0  0  0  0  0  0  0  0
   36.3839   24.7155   42.6398 F   0  0  0  0  0  0  0  0  0  0  0  0
   38.4797   29.3869   44.2000 H   0  0  0  0  0  0  0  0  0  0  0  0
   38.6370   26.9318   44.0510 H   0  0  0  0  0  0  0  0  0  0  0  0
   35.8764   29.6656   40.4058 C   0  0  0  0  0  0  0  0  0  0  0  0
   35.9392   29.0030   39.0597 C   0  0  0  0  0  0  0  0  0  0  0  0
   34.5808   29.0796   38.4469 C   0  0  0  0  0  0  0  0  0  0  0  0
   33.6366   29.1904   39.5988 C   0  0  0  0  0  0  0  0  0  0  0  0
   34.4245   29.7943   40.7412 C   0  0  0  0  0  0  0  0  0  0  0  0
   36.3393   30.6806   40.2922 H   0  0  0  0  0  0  0  0  0  0  0  0
   36.6609   29.4731   38.3585 H   0  0  0  0  0  0  0  0  0  0  0  0
   36.1897   27.9415   39.2195 H   0  0  0  0  0  0  0  0  0  0  0  0
   34.5301   29.9762   37.7680 H   0  0  0  0  0  0  0  0  0  0  0  0
   34.3418   28.1735   37.8258 H   0  0  0  0  0  0  0  0  0  0  0  0
   32.8058   29.8655   39.2749 H   0  0  0  0  0  0  0  0  0  0  0  0
   33.2670   28.1958   39.9141 H   0  0  0  0  0  0  0  0  0  0  0  0
   34.1804   29.2578   41.6821 H   0  0  0  0  0  0  0  0  0  0  0  0
   34.1434   30.8717   40.7929 H   0  0  0  0  0  0  0  0  0  0  0  0
  2  1  2  0
  3  2  1  0
  4  5  1  0
  4  3  2  0
  5  6  2  0
  6  1  1  0
  7  3  1  0
  7 10  1  0
  7  9  1  0
  8  7  1  0
  1 11  1  0
  2 12  1  0
 13 14  1  0
 14 15  1  0
 15 16  1  0
 16 17  1  0
 17 13  1  0
 13 18  1  0
 14 19  1  0
 14 20  1  0
 15 21  1  0
 15 22  1  0
 16 23  1  0
 16 24  1  0
 17 25  1  0
 17 26  1  0
  5 13  1  0
M  ISO  2  11  14  12  14
M  END
>  <DihAtoms>  (1) 
3,4,12,13

>  <DihDeg>  (1) 
-62.47135660387491

$$$$
