
 OpenBabel03242509103D

 35 39  0  0  1  0  0  0  0  0999 V2000
   36.1700   30.7840   41.1890 C   0  0  0  0  0  0  0  0  0  0  0  0
   36.7230   29.6890   41.8790 C   0  0  0  0  0  0  0  0  0  0  0  0
   37.6740   28.9080   41.2290 C   0  0  0  0  0  0  0  0  0  0  0  0
   38.0030   29.2590   39.9660 N   0  0  0  0  0  0  0  0  0  0  0  0
   37.4610   30.3160   39.3160 C   0  0  0  0  0  0  0  0  0  0  0  0
   36.5380   31.0820   39.9350 N   0  0  0  0  0  0  0  0  0  0  0  0
   35.4540   31.3080   41.7840 H   0  0  0  0  0  0  0  0  0  0  0  0
   36.4610   29.4090   42.8870 H   0  0  0  0  0  0  0  0  0  0  0  0
   38.2510   27.7690   41.9200 C   0  0  0  0  0  0  0  0  0  0  0  0
   39.1850   27.7640   42.9290 C   0  0  0  0  0  0  0  0  0  0  0  0
   39.4460   26.4810   43.2830 N   0  0  0  0  0  0  0  0  0  0  0  0
   38.7100   25.6320   42.5370 C   0  0  0  0  0  0  0  0  0  0  0  0
   38.5870   24.2540   42.4810 C   0  0  0  0  0  0  0  0  0  0  0  0
   37.7260   23.6360   41.5840 C   0  0  0  0  0  0  0  0  0  0  0  0
   36.9990   24.4550   40.7530 C   0  0  0  0  0  0  0  0  0  0  0  0
   37.1110   25.8160   40.7980 C   0  0  0  0  0  0  0  0  0  0  0  0
   37.9650   26.4330   41.6870 C   0  0  0  0  0  0  0  0  0  0  0  0
   39.6500   28.6320   43.3840 H   0  0  0  0  0  0  0  0  0  0  0  0
   40.1060   26.1060   44.0180 H   0  0  0  0  0  0  0  0  0  0  0  0
   39.1610   23.6250   43.1360 H   0  0  0  0  0  0  0  0  0  0  0  0
   37.5940   22.5690   41.5000 H   0  0  0  0  0  0  0  0  0  0  0  0
   36.3200   23.9930   40.0450 H   0  0  0  0  0  0  0  0  0  0  0  0
   36.5000   26.3940   40.1040 H   0  0  0  0  0  0  0  0  0  0  0  0
   37.9000   30.6290   37.9240 C   0  0  1  0  0  0  0  0  0  0  0  0
   37.7750   32.0580   37.4430 C   0  0  0  0  0  0  0  0  0  0  0  0
   39.1170   31.4350   37.6980 C   0  0  1  0  0  0  0  0  0  0  0  0
   37.6080   29.8200   37.2200 H   0  0  0  0  0  0  0  0  0  0  0  0
   37.4130   32.1340   36.3860 H   0  0  0  0  0  0  0  0  0  0  0  0
   37.2630   32.7030   38.1520 H   0  0  0  0  0  0  0  0  0  0  0  0
   39.6670   31.1650   36.7410 H   0  0  0  0  0  0  0  0  0  0  0  0
   39.9150   32.1330   38.7220 C   0  0  0  0  0  0  0  0  0  0  0  0
   39.2120   33.2790   39.4180 C   0  0  0  0  0  0  0  0  0  0  0  0
   40.3350   34.0570   40.0820 C   0  0  0  0  0  0  0  0  0  0  0  0
   41.3580   34.0610   38.9720 C   0  0  0  0  0  0  0  0  0  0  0  0
   41.0600   32.9000   38.0540 C   0  0  0  0  0  0  0  0  0  0  0  0
  1  7  1  0  0  0  0
  1  2  1  0  0  0  0
  2  8  1  0  0  0  0
  3  2  2  0  0  0  0
  3  9  1  0  0  0  0
  4  3  1  0  0  0  0
  5  6  1  0  0  0  0
  5  4  2  0  0  0  0
  6  1  2  0  0  0  0
  9 10  2  0  0  0  0
 10 11  1  0  0  0  0
 10 18  1  0  0  0  0
 11 19  1  0  0  0  0
 12 11  1  0  0  0  0
 13 12  1  0  0  0  0
 13 20  1  0  0  0  0
 14 13  2  0  0  0  0
 15 16  2  0  0  0  0
 15 14  1  0  0  0  0
 16 17  1  0  0  0  0
 17  9  1  0  0  0  0
 17 12  2  0  0  0  0
 21 14  1  0  0  0  0
 22 15  1  0  0  0  0
 23 16  1  0  0  0  0
 24 27  1  6  0  0  0
 24  5  1  0  0  0  0
 25 26  1  0  0  0  0
 25 24  1  0  0  0  0
 25 29  1  0  0  0  0
 26 30  1  6  0  0  0
 26 24  1  0  0  0  0
 26 31  1  0  0  0  0
 28 25  1  0  0  0  0
 31 32  1  0  0  0  0
 32 33  1  0  0  0  0
 34 33  1  0  0  0  0
 35 31  1  0  0  0  0
 35 34  1  0  0  0  0
M  END
>  <minimizedAffinity>
-5.53764009

>  <minimizedRMSD>
2.53358436

$$$$
