REMARK  Name = 
REMARK  2 active torsions:
REMARK  status: ('A' for Active; 'I' for Inactive)
REMARK    1  A    between atoms: C_3  and  C_7
REMARK    2  A    between atoms: C_5  and  C_13
REMARK                            x       y       z     vdW  Elec       q    Type
REMARK                         _______ _______ _______ _____ _____    ______ ____
ROOT
ATOM      1  C   UNL     1      37.973  28.885  43.372  0.00  0.00    +0.000 A 
ATOM      2  C   UNL     1      38.087  27.467  43.313  0.00  0.00    +0.000 A 
ATOM      3  C   UNL     1      37.432  26.820  42.252  0.00  0.00    +0.000 A 
ATOM      4  N   UNL     1      36.726  27.578  41.339  0.00  0.00    +0.000 NA
ATOM      5  C   UNL     1      36.659  28.913  41.453  0.00  0.00    +0.000 A 
ATOM      6  N   UNL     1      37.270  29.554  42.450  0.00  0.00    +0.000 NA
ATOM      7  H   UNL     1      38.447  29.441  44.154  0.00  0.00    +0.000 HD
ATOM      8  H   UNL     1      38.655  26.931  44.059  0.00  0.00    +0.000 HD
ENDROOT
BRANCH   5   9
ATOM      9  C   UNL     1      35.902  29.678  40.468  0.00  0.00    +0.000 A 
ATOM     10  C   UNL     1      35.520  29.106  39.271  0.00  0.00    +0.000 A 
ATOM     11  H   UNL     1      35.785  28.068  39.054  0.00  0.00    +0.000 HD
ATOM     12  C   UNL     1      34.816  29.728  38.290  0.00  0.00    +0.000 A 
ATOM     13  C   UNL     1      34.440  31.051  38.486  0.00  0.00    +0.000 A 
ATOM     14  H   UNL     1      33.875  31.625  37.753  0.00  0.00    +0.000 HD
ATOM     15  C   UNL     1      34.810  31.661  39.688  0.00  0.00    +0.000 A 
ATOM     16  H   UNL     1      34.547  32.704  39.911  0.00  0.00    +0.000 HD
ATOM     17  C   UNL     1      35.531  30.983  40.662  0.00  0.00    +0.000 A 
ENDBRANCH   5   9
BRANCH   3  18
ATOM     18  C   UNL     1      37.530  25.332  42.158  0.00  0.00    +0.000 C 
ATOM     19  F   UNL     1      37.661  25.049  40.808  0.00  0.00    +0.000 F 
ATOM     20  F   UNL     1      38.629  24.837  42.790  0.00  0.00    +0.000 F 
ATOM     21  F   UNL     1      36.378  24.718  42.639  0.00  0.00    +0.000 F 
ENDBRANCH   3  18
TORSDOF 2
