
 OpenBabel03242507123D

 25 27  0  0  0  0  0  0  0  0999 V2000
   38.5040   27.9590   42.5600 N   0  0  0  0  0  0  0  0  0  0  0  0
   38.3280   26.8740   43.3500 C   0  0  0  0  0  0  0  0  0  0  0  0
   39.5890   26.6840   43.9090 C   0  0  0  0  0  0  0  0  0  0  0  0
   40.4780   27.6220   43.4680 N   0  0  0  0  0  0  0  0  0  0  0  0
   39.7530   28.3950   42.6270 C   0  0  0  0  0  0  0  0  0  0  0  0
   37.4490   26.2740   43.5310 H   0  0  0  0  0  0  0  0  0  0  0  0
   39.7840   25.8600   44.6150 H   0  0  0  0  0  0  0  0  0  0  0  0
   37.1120   29.8800   41.9060 C   0  0  0  0  0  0  0  0  0  0  0  0
   37.4880   28.5230   41.7900 C   0  0  0  0  0  0  0  0  0  0  0  0
   36.7810   27.7330   40.8370 C   0  0  0  0  0  0  0  0  0  0  0  0
   35.8010   28.3060   40.0990 N   0  0  0  0  0  0  0  0  0  0  0  0
   35.4740   29.6310   40.2500 C   0  0  0  0  0  0  0  0  0  0  0  0
   36.1370   30.4130   41.1580 N   0  0  0  0  0  0  0  0  0  0  0  0
   37.5830   30.5510   42.6020 H   0  0  0  0  0  0  0  0  0  0  0  0
   37.0520   26.6910   40.7320 H   0  0  0  0  0  0  0  0  0  0  0  0
   34.6800   30.0470   39.6350 H   0  0  0  0  0  0  0  0  0  0  0  0
   40.4990   29.4820   42.0100 C   0  0  0  0  0  0  0  0  0  0  0  0
   40.7780   30.7320   42.5760 C   0  0  0  0  0  0  0  0  0  0  0  0
   40.3910   30.8710   43.5790 H   0  0  0  0  0  0  0  0  0  0  0  0
   41.4860   31.6760   41.8830 C   0  0  0  0  0  0  0  0  0  0  0  0
   41.9540   31.4450   40.6100 C   0  0  0  0  0  0  0  0  0  0  0  0
   42.5120   32.2100   40.0840 H   0  0  0  0  0  0  0  0  0  0  0  0
   41.7240   30.2500   39.9830 C   0  0  0  0  0  0  0  0  0  0  0  0
   42.0520   29.9860   38.9930 H   0  0  0  0  0  0  0  0  0  0  0  0
   41.0080   29.3280   40.7140 C   0  0  0  0  0  0  0  0  0  0  0  0
  1  5  1  0  0  0  0
  1  2  1  0  0  0  0
  2  6  1  0  0  0  0
  2  3  2  0  0  0  0
  3  7  1  0  0  0  0
  4  3  1  0  0  0  0
  5  4  2  0  0  0  0
  8 14  1  0  0  0  0
  9  8  1  0  0  0  0
  9  1  1  0  0  0  0
 10  9  2  0  0  0  0
 11 12  2  0  0  0  0
 11 10  1  0  0  0  0
 12 13  1  0  0  0  0
 13  8  2  0  0  0  0
 15 10  1  0  0  0  0
 16 12  1  0  0  0  0
 17 18  1  0  0  0  0
 17  5  1  0  0  0  0
 18 19  1  0  0  0  0
 20 18  2  0  0  0  0
 21 20  1  0  0  0  0
 22 21  1  0  0  0  0
 23 21  2  0  0  0  0
 23 25  1  0  0  0  0
 24 23  1  0  0  0  0
 25 17  2  0  0  0  0
M  END
>  <minimizedAffinity>
-3.94116926

>  <minimizedRMSD>
0.728402495

$$$$
