
 OpenBabel03242509283D

 48 52  0  0  0  0  0  0  0  0999 V2000
   36.1490   30.0450   41.1190 C   0  0  0  0  0  0  0  0  0  0  0  0
   35.5270   30.5200   41.9340 H   0  0  0  0  0  0  0  0  0  0  0  0
   36.7320   30.8690   40.6610 H   0  0  0  0  0  0  0  0  0  0  0  0
   38.6510   28.1550   42.7030 C   0  0  0  0  0  0  0  0  0  0  0  0
   37.5800   27.3040   42.8000 C   0  0  0  0  0  0  0  0  0  0  0  0
   36.5010   27.9520   42.1930 C   0  0  0  0  0  0  0  0  0  0  0  0
   37.0060   29.1270   41.7850 N   0  0  0  0  0  0  0  0  0  0  0  0
   38.2590   29.2890   42.0630 N   0  0  0  0  0  0  0  0  0  0  0  0
   37.5790   26.3130   43.2630 H   0  0  0  0  0  0  0  0  0  0  0  0
   35.5290   27.5050   42.1270 H   0  0  0  0  0  0  0  0  0  0  0  0
   41.6050   26.5160   44.2850 C   0  0  0  0  0  0  0  0  0  0  0  0
   40.2990   26.7050   43.8160 C   0  0  0  0  0  0  0  0  0  0  0  0
   39.9920   27.9230   43.1950 C   0  0  0  0  0  0  0  0  0  0  0  0
   40.9510   28.8810   43.0600 N   0  0  0  0  0  0  0  0  0  0  0  0
   42.2100   28.6430   43.5360 C   0  0  0  0  0  0  0  0  0  0  0  0
   42.5260   27.4790   44.1370 N   0  0  0  0  0  0  0  0  0  0  0  0
   41.8340   25.5780   44.7620 H   0  0  0  0  0  0  0  0  0  0  0  0
   39.5830   25.9190   43.9480 H   0  0  0  0  0  0  0  0  0  0  0  0
   43.2060   29.6920   43.3720 C   0  0  0  0  0  0  0  0  0  0  0  0
   43.7660   29.8990   42.1310 C   0  0  0  0  0  0  0  0  0  0  0  0
   43.5260   29.3390   41.2530 H   0  0  0  0  0  0  0  0  0  0  0  0
   44.6950   30.9040   42.0530 C   0  0  0  0  0  3  0  0  0  0  0  0
   45.0480   31.6550   43.1290 C   0  0  0  0  0  0  0  0  0  0  0  0
   45.7990   32.4310   42.9600 H   0  0  0  0  0  0  0  0  0  0  0  0
   44.4880   31.4570   44.3940 C   0  0  0  0  0  0  0  0  0  0  0  0
   44.7870   32.0650   45.2220 H   0  0  0  0  0  0  0  0  0  0  0  0
   43.5680   30.4570   44.4580 C   0  0  0  0  0  3  0  0  0  0  0  0
   35.2640   29.4660   40.0620 C   0  0  0  0  0  0  0  0  0  0  0  0
   34.5400   30.3410   39.9400 H   0  0  0  0  0  0  0  0  0  0  0  0
   34.8070   28.5590   40.4290 H   0  0  0  0  0  0  0  0  0  0  0  0
   35.8830   29.3880   38.7190 C   0  0  0  0  0  0  0  0  0  0  0  0
   37.2030   29.5080   38.3940 C   0  0  0  0  0  0  0  0  0  0  0  0
   37.7240   29.5010   37.1370 C   0  0  0  0  0  0  0  0  0  0  0  0
   36.8760   29.3640   36.0560 C   0  0  0  0  0  0  0  0  0  0  0  0
   35.5180   29.2350   36.3140 C   0  0  0  0  0  0  0  0  0  0  0  0
   34.7320   29.1010   35.2000 C   0  0  0  0  0  0  0  0  0  0  0  0
   33.3810   28.9630   35.3400 C   0  0  0  0  0  0  0  0  0  0  0  0
   32.8360   28.9580   36.6170 C   0  0  0  0  0  0  0  0  0  0  0  0
   33.6770   29.0950   37.6740 C   0  0  0  0  0  0  0  0  0  0  0  0
   35.0260   29.2430   37.6110 C   0  0  0  0  0  0  0  0  0  0  0  0
   37.8800   29.6190   39.2410 H   0  0  0  0  0  0  0  0  0  0  0  0
   38.7940   29.6050   37.0210 H   0  0  0  0  0  0  0  0  0  0  0  0
   37.2770   29.3590   35.0590 H   0  0  0  0  0  0  0  0  0  0  0  0
   35.1420   29.1000   34.1870 H   0  0  0  0  0  0  0  0  0  0  0  0
   32.7620   28.8600   34.4570 H   0  0  0  0  0  0  0  0  0  0  0  0
   31.7830   28.8470   36.7030 H   0  0  0  0  0  0  0  0  0  0  0  0
   33.0700   29.0650   38.9200 O   0  0  0  0  0  0  0  0  0  0  0  0
   32.5350   28.2850   39.2810 H   0  0  0  0  0  0  0  0  0  0  0  0
  1  7  1  0  0  0  0
  1  2  1  0  0  0  0
  3  1  1  0  0  0  0
  4  5  1  0  0  0  0
  4 13  1  0  0  0  0
  5  9  1  0  0  0  0
  6  5  2  0  0  0  0
  7  8  1  0  0  0  0
  7  6  1  0  0  0  0
  8  4  2  0  0  0  0
 10  6  1  0  0  0  0
 11 17  1  0  0  0  0
 12 18  1  0  0  0  0
 12 11  2  0  0  0  0
 13 12  1  0  0  0  0
 14 13  2  0  0  0  0
 14 15  1  0  0  0  0
 15 16  2  0  0  0  0
 16 11  1  0  0  0  0
 19 15  1  0  0  0  0
 19 27  1  0  0  0  0
 20 19  2  0  0  0  0
 21 20  1  0  0  0  0
 22 20  1  0  0  0  0
 22 23  2  0  0  0  0
 23 25  1  0  0  0  0
 24 23  1  0  0  0  0
 25 27  2  0  0  0  0
 25 26  1  0  0  0  0
 28 30  1  0  0  0  0
 28  1  1  0  0  0  0
 29 28  1  0  0  0  0
 31 28  1  0  0  0  0
 32 31  1  0  0  0  0
 32 41  1  0  0  0  0
 33 32  2  0  0  0  0
 34 35  2  0  0  0  0
 34 33  1  0  0  0  0
 35 40  1  0  0  0  0
 36 37  2  0  0  0  0
 36 35  1  0  0  0  0
 37 38  1  0  0  0  0
 38 46  1  0  0  0  0
 38 39  2  0  0  0  0
 39 47  1  0  0  0  0
 40 39  1  0  0  0  0
 40 31  2  0  0  0  0
 42 33  1  0  0  0  0
 43 34  1  0  0  0  0
 44 36  1  0  0  0  0
 45 37  1  0  0  0  0
 47 48  1  0  0  0  0
M  END
>  <minimizedAffinity>
-6.13179255

>  <minimizedRMSD>
0.305602521

$$$$
