
 OpenBabel03242507293D

 35 38  0  0  0  0  0  0  0  0999 V2000
   36.8480   27.3780   42.9760 C   0  0  0  0  0  0  0  0  0  0  0  0
   36.9460   27.0220   44.0230 H   0  0  0  0  0  0  0  0  0  0  0  0
   35.8730   27.8760   42.9030 H   0  0  0  0  0  0  0  0  0  0  0  0
   40.3260   28.8980   42.8030 C   0  0  0  0  0  0  0  0  0  0  0  0
   39.2730   27.9880   43.0920 C   0  0  0  0  0  0  0  0  0  0  0  0
   37.9820   28.2980   42.6960 C   0  0  0  0  0  0  0  0  0  0  0  0
   37.7640   29.4820   42.0340 N   0  0  0  0  0  0  0  0  0  0  0  0
   38.7990   30.3330   41.7730 C   0  0  0  0  0  0  0  0  0  0  0  0
   40.0300   30.0490   42.1440 N   0  0  0  0  0  0  0  0  0  0  0  0
   41.3170   28.6650   43.1050 H   0  0  0  0  0  0  0  0  0  0  0  0
   39.4690   27.0730   43.6090 H   0  0  0  0  0  0  0  0  0  0  0  0
   38.4460   31.5590   41.0650 C   0  0  0  0  0  0  0  0  0  0  0  0
   37.2890   31.6570   40.3110 C   0  0  0  0  0  0  0  0  0  0  0  0
   36.6090   30.8250   40.2250 H   0  0  0  0  0  0  0  0  0  0  0  0
   37.0220   32.8610   39.6650 C   0  0  0  0  0  0  0  0  0  0  0  0
   37.8740   33.9440   39.7580 C   0  0  0  0  0  0  0  0  0  0  0  0
   37.6780   34.8950   39.2570 H   0  0  0  0  0  0  0  0  0  0  0  0
   39.0310   33.8660   40.5040 C   0  0  0  0  0  0  0  0  0  0  0  0
   39.7180   34.7050   40.5920 H   0  0  0  0  0  0  0  0  0  0  0  0
   39.2700   32.6640   41.1310 C   0  0  0  0  0  0  0  0  0  0  0  0
   36.9490   26.1820   42.1220 C   0  0  0  0  0  0  0  0  0  0  0  0
   36.9980   24.8550   42.3250 C   0  0  0  0  0  0  0  0  0  0  0  0
   37.0930   23.9740   41.3130 C   0  0  0  0  0  0  0  0  0  0  0  0
   37.1350   24.6150   40.0220 C   0  0  0  0  0  0  0  0  0  0  0  0
   37.0400   26.3250   40.3460 S   0  0  0  0  0  0  0  0  0  0  0  0
   36.9540   24.5650   43.3700 H   0  0  0  0  0  0  0  0  0  0  0  0
   37.1370   22.8990   41.4090 H   0  0  0  0  0  0  0  0  0  0  0  0
   37.2360   23.9550   38.7220 C   0  0  0  0  0  0  0  0  0  0  0  0
   38.2610   23.1790   38.3290 C   0  0  0  0  0  0  0  0  0  0  0  0
   37.9010   22.7920   37.0410 C   0  0  0  0  0  0  0  0  0  0  0  0
   36.7010   23.3380   36.7130 N   0  0  0  0  0  0  0  0  0  0  0  0
   36.2980   24.0560   37.7620 N   0  0  0  0  0  0  0  0  0  0  0  0
   39.1730   22.8850   38.8360 H   0  0  0  0  0  0  0  0  0  0  0  0
   38.4470   22.1540   36.3430 H   0  0  0  0  0  0  0  0  0  0  0  0
   36.1440   23.2530   35.8310 H   0  0  0  0  0  0  0  0  0  0  0  0
  1  2  1  0  0  0  0
  3  1  1  0  0  0  0
  4  5  1  0  0  0  0
  4 10  1  0  0  0  0
  5 11  1  0  0  0  0
  6  1  1  0  0  0  0
  6  5  2  0  0  0  0
  7  6  1  0  0  0  0
  8  7  2  0  0  0  0
  8  9  1  0  0  0  0
  9  4  2  0  0  0  0
 12 20  1  0  0  0  0
 12  8  1  0  0  0  0
 13 12  2  0  0  0  0
 14 13  1  0  0  0  0
 15 16  2  0  0  0  0
 15 13  1  0  0  0  0
 16 18  1  0  0  0  0
 17 16  1  0  0  0  0
 18 19  1  0  0  0  0
 18 20  2  0  0  0  0
 21 22  2  0  0  0  0
 21  1  1  0  0  0  0
 22 26  1  0  0  0  0
 23 27  1  0  0  0  0
 23 22  1  0  0  0  0
 24 25  1  0  0  0  0
 24 23  2  0  0  0  0
 25 21  1  0  0  0  0
 28 24  1  0  0  0  0
 29 28  1  0  0  0  0
 29 33  1  0  0  0  0
 30 29  2  0  0  0  0
 31 30  1  0  0  0  0
 31 32  1  0  0  0  0
 32 28  2  0  0  0  0
 34 30  1  0  0  0  0
 35 31  1  0  0  0  0
M  END
>  <minimizedAffinity>
-5.28437948

>  <minimizedRMSD>
1.41245782

$$$$
