
 OpenBabel03242509283D

 48 52  0  0  0  0  0  0  0  0999 V2000
   36.1710   30.0640   41.1270 C   0  0  0  0  0  0  0  0  0  0  0  0
   35.5580   30.5510   41.9420 H   0  0  0  0  0  0  0  0  0  0  0  0
   36.7700   30.8770   40.6700 H   0  0  0  0  0  0  0  0  0  0  0  0
   38.6360   28.1210   42.7040 C   0  0  0  0  0  0  0  0  0  0  0  0
   37.5440   27.3010   42.8200 C   0  0  0  0  0  0  0  0  0  0  0  0
   36.4770   27.9720   42.2170 C   0  0  0  0  0  0  0  0  0  0  0  0
   37.0090   29.1280   41.7930 N   0  0  0  0  0  0  0  0  0  0  0  0
   38.2690   29.2600   42.0570 N   0  0  0  0  0  0  0  0  0  0  0  0
   37.5210   26.3140   43.2930 H   0  0  0  0  0  0  0  0  0  0  0  0
   35.4920   27.5510   42.1660 H   0  0  0  0  0  0  0  0  0  0  0  0
   41.5630   26.4140   44.2630 C   0  0  0  0  0  0  0  0  0  0  0  0
   40.2590   26.6330   43.8050 C   0  0  0  0  0  0  0  0  0  0  0  0
   39.9750   27.8570   43.1840 C   0  0  0  0  0  0  0  0  0  0  0  0
   40.9570   28.7920   43.0400 N   0  0  0  0  0  0  0  0  0  0  0  0
   42.2140   28.5240   43.5060 C   0  0  0  0  0  0  0  0  0  0  0  0
   42.5060   27.3530   44.1060 N   0  0  0  0  0  0  0  0  0  0  0  0
   41.7740   25.4710   44.7400 H   0  0  0  0  0  0  0  0  0  0  0  0
   39.5250   25.8650   43.9440 H   0  0  0  0  0  0  0  0  0  0  0  0
   43.2330   29.5480   43.3330 C   0  0  0  0  0  0  0  0  0  0  0  0
   43.5560   30.3630   44.3950 C   0  0  0  0  0  0  0  0  0  0  0  0
   43.1090   30.3030   45.3650 H   0  0  0  0  0  0  0  0  0  0  0  0
   44.5240   31.3030   44.1580 C   0  0  0  0  0  3  0  0  0  0  0  0
   45.1330   31.4340   42.9500 C   0  0  0  0  0  0  0  0  0  0  0  0
   45.8900   32.2150   42.8650 H   0  0  0  0  0  0  0  0  0  0  0  0
   44.8140   30.6150   41.8620 C   0  0  0  0  0  0  0  0  0  0  0  0
   45.3120   30.7430   40.9230 H   0  0  0  0  0  0  0  0  0  0  0  0
   43.8530   29.6860   42.1110 C   0  0  0  0  0  3  0  0  0  0  0  0
   35.2760   29.5030   40.0690 C   0  0  0  0  0  0  0  0  0  0  0  0
   34.5680   30.3900   39.9480 H   0  0  0  0  0  0  0  0  0  0  0  0
   34.8020   28.6030   40.4340 H   0  0  0  0  0  0  0  0  0  0  0  0
   35.8930   29.4150   38.7250 C   0  0  0  0  0  0  0  0  0  0  0  0
   37.2120   29.5420   38.3980 C   0  0  0  0  0  0  0  0  0  0  0  0
   37.7320   29.5260   37.1400 C   0  0  0  0  0  0  0  0  0  0  0  0
   36.8840   29.3710   36.0610 C   0  0  0  0  0  0  0  0  0  0  0  0
   35.5260   29.2340   36.3230 C   0  0  0  0  0  0  0  0  0  0  0  0
   34.7400   29.0830   35.2110 C   0  0  0  0  0  0  0  0  0  0  0  0
   33.3900   28.9370   35.3540 C   0  0  0  0  0  0  0  0  0  0  0  0
   32.8470   28.9410   36.6320 C   0  0  0  0  0  0  0  0  0  0  0  0
   33.6890   29.0950   37.6870 C   0  0  0  0  0  0  0  0  0  0  0  0
   35.0360   29.2520   37.6210 C   0  0  0  0  0  0  0  0  0  0  0  0
   37.8900   29.6660   39.2420 H   0  0  0  0  0  0  0  0  0  0  0  0
   38.8010   29.6360   37.0220 H   0  0  0  0  0  0  0  0  0  0  0  0
   37.2830   29.3590   35.0640 H   0  0  0  0  0  0  0  0  0  0  0  0
   35.1490   29.0750   34.1980 H   0  0  0  0  0  0  0  0  0  0  0  0
   32.7710   28.8200   34.4730 H   0  0  0  0  0  0  0  0  0  0  0  0
   31.7950   28.8230   36.7210 H   0  0  0  0  0  0  0  0  0  0  0  0
   33.0830   29.0730   38.9340 O   0  0  0  0  0  0  0  0  0  0  0  0
   32.5540   28.2930   39.3040 H   0  0  0  0  0  0  0  0  0  0  0  0
  1  7  1  0  0  0  0
  1  2  1  0  0  0  0
  3  1  1  0  0  0  0
  4  5  1  0  0  0  0
  4 13  1  0  0  0  0
  5  9  1  0  0  0  0
  6  5  2  0  0  0  0
  7  8  1  0  0  0  0
  7  6  1  0  0  0  0
  8  4  2  0  0  0  0
 10  6  1  0  0  0  0
 11 17  1  0  0  0  0
 12 18  1  0  0  0  0
 12 11  2  0  0  0  0
 13 12  1  0  0  0  0
 14 13  2  0  0  0  0
 14 15  1  0  0  0  0
 15 16  2  0  0  0  0
 16 11  1  0  0  0  0
 19 15  1  0  0  0  0
 19 20  1  0  0  0  0
 20 21  1  0  0  0  0
 22 20  2  0  0  0  0
 23 22  1  0  0  0  0
 24 23  1  0  0  0  0
 25 27  1  0  0  0  0
 25 23  2  0  0  0  0
 26 25  1  0  0  0  0
 27 19  2  0  0  0  0
 28 30  1  0  0  0  0
 28  1  1  0  0  0  0
 29 28  1  0  0  0  0
 31 28  1  0  0  0  0
 32 31  1  0  0  0  0
 32 41  1  0  0  0  0
 33 32  2  0  0  0  0
 34 35  2  0  0  0  0
 34 33  1  0  0  0  0
 35 40  1  0  0  0  0
 36 37  2  0  0  0  0
 36 35  1  0  0  0  0
 37 38  1  0  0  0  0
 38 46  1  0  0  0  0
 38 39  2  0  0  0  0
 39 47  1  0  0  0  0
 40 39  1  0  0  0  0
 40 31  2  0  0  0  0
 42 33  1  0  0  0  0
 43 34  1  0  0  0  0
 44 36  1  0  0  0  0
 45 37  1  0  0  0  0
 47 48  1  0  0  0  0
M  END
>  <minimizedAffinity>
-6.10212517

>  <minimizedRMSD>
0.249623224

$$$$
