
 OpenBabel03242509293D

 48 52  0  0  0  0  0  0  0  0999 V2000
   36.0170   29.9520   40.9790 C   0  0  0  0  0  0  0  0  0  0  0  0
   35.3780   30.4280   41.7800 H   0  0  0  0  0  0  0  0  0  0  0  0
   36.6280   30.7710   40.5500 H   0  0  0  0  0  0  0  0  0  0  0  0
   38.4410   27.9960   42.6030 C   0  0  0  0  0  0  0  0  0  0  0  0
   37.3440   27.1790   42.6950 C   0  0  0  0  0  0  0  0  0  0  0  0
   36.2920   27.8560   42.0710 C   0  0  0  0  0  0  0  0  0  0  0  0
   36.8380   29.0120   41.6610 N   0  0  0  0  0  0  0  0  0  0  0  0
   38.0930   29.1370   41.9510 N   0  0  0  0  0  0  0  0  0  0  0  0
   37.3070   26.1930   43.1650 H   0  0  0  0  0  0  0  0  0  0  0  0
   35.3070   27.4400   41.9990 H   0  0  0  0  0  0  0  0  0  0  0  0
   41.3740   26.2170   44.0700 C   0  0  0  0  0  0  0  0  0  0  0  0
   40.0820   26.4420   43.5810 C   0  0  0  0  0  0  0  0  0  0  0  0
   39.7690   27.7250   43.1110 C   0  0  0  0  0  0  0  0  0  0  0  0
   40.7110   28.7090   43.1370 N   0  0  0  0  0  0  0  0  0  0  0  0
   41.9580   28.4340   43.6250 C   0  0  0  0  0  0  0  0  0  0  0  0
   42.2780   27.2070   44.0830 N   0  0  0  0  0  0  0  0  0  0  0  0
   41.6070   25.2300   44.4310 H   0  0  0  0  0  0  0  0  0  0  0  0
   39.3790   25.6330   43.5830 H   0  0  0  0  0  0  0  0  0  0  0  0
   42.9350   29.5120   43.6370 C   0  0  0  0  0  0  0  0  0  0  0  0
   44.2040   29.2650   44.1110 C   0  0  0  0  0  0  0  0  0  0  0  0
   44.5420   28.3220   44.4820 H   0  0  0  0  0  0  0  0  0  0  0  0
   45.0690   30.3290   44.0900 C   0  0  0  0  0  3  0  0  0  0  0  0
   44.7050   31.5550   43.6320 C   0  0  0  0  0  0  0  0  0  0  0  0
   45.4710   32.3350   43.6590 H   0  0  0  0  0  0  0  0  0  0  0  0
   43.4210   31.8200   43.1470 C   0  0  0  0  0  0  0  0  0  0  0  0
   43.1660   32.7980   42.7930 H   0  0  0  0  0  0  0  0  0  0  0  0
   42.5730   30.7570   43.1730 C   0  0  0  0  0  3  0  0  0  0  0  0
   35.1570   29.4000   39.8880 C   0  0  0  0  0  0  0  0  0  0  0  0
   34.4320   30.2740   39.7760 H   0  0  0  0  0  0  0  0  0  0  0  0
   34.6960   28.4810   40.2200 H   0  0  0  0  0  0  0  0  0  0  0  0
   35.8040   29.3620   38.5560 C   0  0  0  0  0  0  0  0  0  0  0  0
   37.1290   29.4970   38.2630 C   0  0  0  0  0  0  0  0  0  0  0  0
   37.6760   29.5270   37.0170 C   0  0  0  0  0  0  0  0  0  0  0  0
   36.8520   29.4160   35.9150 C   0  0  0  0  0  0  0  0  0  0  0  0
   35.4890   29.2730   36.1420 C   0  0  0  0  0  0  0  0  0  0  0  0
   34.7260   29.1670   35.0080 C   0  0  0  0  0  0  0  0  0  0  0  0
   33.3740   29.0190   35.1160 C   0  0  0  0  0  0  0  0  0  0  0  0
   32.8020   28.9760   36.3810 C   0  0  0  0  0  0  0  0  0  0  0  0
   33.6220   29.0870   37.4590 C   0  0  0  0  0  0  0  0  0  0  0  0
   34.9710   29.2440   37.4280 C   0  0  0  0  0  0  0  0  0  0  0  0
   37.7890   29.5870   39.1260 H   0  0  0  0  0  0  0  0  0  0  0  0
   38.7480   29.6390   36.9260 H   0  0  0  0  0  0  0  0  0  0  0  0
   37.2730   29.4410   34.9270 H   0  0  0  0  0  0  0  0  0  0  0  0
   35.1580   29.1960   34.0040 H   0  0  0  0  0  0  0  0  0  0  0  0
   32.7740   28.9380   34.2180 H   0  0  0  0  0  0  0  0  0  0  0  0
   31.7490   28.8580   36.4410 H   0  0  0  0  0  0  0  0  0  0  0  0
   32.9890   29.0200   38.6900 O   0  0  0  0  0  0  0  0  0  0  0  0
   32.4500   28.2280   39.0190 H   0  0  0  0  0  0  0  0  0  0  0  0
  1  7  1  0  0  0  0
  1  2  1  0  0  0  0
  3  1  1  0  0  0  0
  4  5  1  0  0  0  0
  4 13  1  0  0  0  0
  5  9  1  0  0  0  0
  6  5  2  0  0  0  0
  7  8  1  0  0  0  0
  7  6  1  0  0  0  0
  8  4  2  0  0  0  0
 10  6  1  0  0  0  0
 11 16  1  0  0  0  0
 11 17  1  0  0  0  0
 12 18  1  0  0  0  0
 12 11  2  0  0  0  0
 13 14  2  0  0  0  0
 13 12  1  0  0  0  0
 14 15  1  0  0  0  0
 15 19  1  0  0  0  0
 15 16  2  0  0  0  0
 19 20  1  0  0  0  0
 20 21  1  0  0  0  0
 22 20  2  0  0  0  0
 23 24  1  0  0  0  0
 23 22  1  0  0  0  0
 25 27  1  0  0  0  0
 25 23  2  0  0  0  0
 26 25  1  0  0  0  0
 27 19  2  0  0  0  0
 28 30  1  0  0  0  0
 28  1  1  0  0  0  0
 29 28  1  0  0  0  0
 31 28  1  0  0  0  0
 32 31  1  0  0  0  0
 32 41  1  0  0  0  0
 33 32  2  0  0  0  0
 34 35  2  0  0  0  0
 34 33  1  0  0  0  0
 35 40  1  0  0  0  0
 36 37  2  0  0  0  0
 36 35  1  0  0  0  0
 37 38  1  0  0  0  0
 38 46  1  0  0  0  0
 38 39  2  0  0  0  0
 39 47  1  0  0  0  0
 40 39  1  0  0  0  0
 40 31  2  0  0  0  0
 42 33  1  0  0  0  0
 43 34  1  0  0  0  0
 44 36  1  0  0  0  0
 45 37  1  0  0  0  0
 47 48  1  0  0  0  0
M  END
>  <minimizedAffinity>
-6.16120195

>  <minimizedRMSD>
0.585964978

$$$$
