
 OpenBabel03242509283D

 48 52  0  0  0  0  0  0  0  0999 V2000
   36.1410   30.0710   41.1070 C   0  0  0  0  0  0  0  0  0  0  0  0
   35.5310   30.5650   41.9200 H   0  0  0  0  0  0  0  0  0  0  0  0
   36.7600   30.8740   40.6600 H   0  0  0  0  0  0  0  0  0  0  0  0
   38.5520   28.0700   42.6950 C   0  0  0  0  0  0  0  0  0  0  0  0
   37.4450   27.2670   42.7880 C   0  0  0  0  0  0  0  0  0  0  0  0
   36.3980   27.9630   42.1790 C   0  0  0  0  0  0  0  0  0  0  0  0
   36.9550   29.1140   41.7740 N   0  0  0  0  0  0  0  0  0  0  0  0
   38.2130   29.2210   42.0550 N   0  0  0  0  0  0  0  0  0  0  0  0
   37.3990   26.2770   43.2500 H   0  0  0  0  0  0  0  0  0  0  0  0
   35.4060   27.5600   42.1110 H   0  0  0  0  0  0  0  0  0  0  0  0
   41.4640   26.2510   44.1530 C   0  0  0  0  0  0  0  0  0  0  0  0
   40.1710   26.4960   43.6770 C   0  0  0  0  0  0  0  0  0  0  0  0
   39.8810   27.7780   43.1890 C   0  0  0  0  0  0  0  0  0  0  0  0
   40.8450   28.7410   43.1870 N   0  0  0  0  0  0  0  0  0  0  0  0
   42.0910   28.4460   43.6630 C   0  0  0  0  0  0  0  0  0  0  0  0
   42.3900   27.2190   44.1370 N   0  0  0  0  0  0  0  0  0  0  0  0
   41.6810   25.2640   44.5270 H   0  0  0  0  0  0  0  0  0  0  0  0
   39.4510   25.7040   43.7010 H   0  0  0  0  0  0  0  0  0  0  0  0
   43.0920   29.5020   43.6440 C   0  0  0  0  0  0  0  0  0  0  0  0
   44.4040   29.1920   43.9280 C   0  0  0  0  0  0  0  0  0  0  0  0
   44.7580   28.2120   44.1710 H   0  0  0  0  0  0  0  0  0  0  0  0
   45.2890   30.2370   43.8900 C   0  0  0  0  0  3  0  0  0  0  0  0
   44.9060   31.5060   43.5900 C   0  0  0  0  0  0  0  0  0  0  0  0
   45.6910   32.2670   43.5860 H   0  0  0  0  0  0  0  0  0  0  0  0
   43.5780   31.8360   43.2980 C   0  0  0  0  0  0  0  0  0  0  0  0
   43.3100   32.8450   43.0650 H   0  0  0  0  0  0  0  0  0  0  0  0
   42.7110   30.7900   43.3400 C   0  0  0  0  0  3  0  0  0  0  0  0
   35.2440   29.5350   40.0380 C   0  0  0  0  0  0  0  0  0  0  0  0
   34.5560   30.4380   39.9160 H   0  0  0  0  0  0  0  0  0  0  0  0
   34.7470   28.6440   40.3940 H   0  0  0  0  0  0  0  0  0  0  0  0
   35.8710   29.4410   38.7000 C   0  0  0  0  0  0  0  0  0  0  0  0
   37.1910   29.5760   38.3800 C   0  0  0  0  0  0  0  0  0  0  0  0
   37.7190   29.5530   37.1260 C   0  0  0  0  0  0  0  0  0  0  0  0
   36.8800   29.3810   36.0430 C   0  0  0  0  0  0  0  0  0  0  0  0
   35.5220   29.2350   36.2970 C   0  0  0  0  0  0  0  0  0  0  0  0
   34.7450   29.0670   35.1810 C   0  0  0  0  0  0  0  0  0  0  0  0
   33.3950   28.9100   35.3160 C   0  0  0  0  0  0  0  0  0  0  0  0
   32.8430   28.9210   36.5910 C   0  0  0  0  0  0  0  0  0  0  0  0
   33.6770   29.0920   37.6490 C   0  0  0  0  0  0  0  0  0  0  0  0
   35.0230   29.2600   37.5910 C   0  0  0  0  0  0  0  0  0  0  0  0
   37.8620   29.7130   39.2280 H   0  0  0  0  0  0  0  0  0  0  0  0
   38.7880   29.6720   37.0140 H   0  0  0  0  0  0  0  0  0  0  0  0
   37.2860   29.3640   35.0490 H   0  0  0  0  0  0  0  0  0  0  0  0
   35.1610   29.0530   34.1710 H   0  0  0  0  0  0  0  0  0  0  0  0
   32.7830   28.7800   34.4320 H   0  0  0  0  0  0  0  0  0  0  0  0
   31.7920   28.7940   36.6730 H   0  0  0  0  0  0  0  0  0  0  0  0
   33.0630   29.0760   38.8920 O   0  0  0  0  0  0  0  0  0  0  0  0
   32.5380   28.2950   39.2660 H   0  0  0  0  0  0  0  0  0  0  0  0
  1  7  1  0  0  0  0
  1  2  1  0  0  0  0
  3  1  1  0  0  0  0
  4  5  1  0  0  0  0
  4 13  1  0  0  0  0
  5  9  1  0  0  0  0
  6  5  2  0  0  0  0
  7  8  1  0  0  0  0
  7  6  1  0  0  0  0
  8  4  2  0  0  0  0
 10  6  1  0  0  0  0
 11 17  1  0  0  0  0
 12 18  1  0  0  0  0
 12 11  2  0  0  0  0
 13 12  1  0  0  0  0
 14 13  2  0  0  0  0
 14 15  1  0  0  0  0
 15 16  2  0  0  0  0
 16 11  1  0  0  0  0
 19 15  1  0  0  0  0
 19 20  1  0  0  0  0
 20 21  1  0  0  0  0
 22 20  2  0  0  0  0
 23 22  1  0  0  0  0
 24 23  1  0  0  0  0
 25 27  1  0  0  0  0
 25 23  2  0  0  0  0
 26 25  1  0  0  0  0
 27 19  2  0  0  0  0
 28 30  1  0  0  0  0
 28  1  1  0  0  0  0
 29 28  1  0  0  0  0
 31 28  1  0  0  0  0
 32 31  1  0  0  0  0
 32 41  1  0  0  0  0
 33 32  2  0  0  0  0
 34 35  2  0  0  0  0
 34 33  1  0  0  0  0
 35 40  1  0  0  0  0
 36 37  2  0  0  0  0
 36 35  1  0  0  0  0
 37 38  1  0  0  0  0
 38 46  1  0  0  0  0
 38 39  2  0  0  0  0
 39 47  1  0  0  0  0
 40 39  1  0  0  0  0
 40 31  2  0  0  0  0
 42 33  1  0  0  0  0
 43 34  1  0  0  0  0
 44 36  1  0  0  0  0
 45 37  1  0  0  0  0
 47 48  1  0  0  0  0
M  END
>  <minimizedAffinity>
-6.16880131

>  <minimizedRMSD>
0.481489867

$$$$
