
     RDKit          3D

 23 24  0  0  0  0  0  0  0  0999 V2000
   37.9730   28.8850   43.3718 C   0  0  0  0  0  0  0  0  0  0  0  0
   38.0870   27.4674   43.3130 C   0  0  0  0  0  0  0  0  0  0  0  0
   37.4322   26.8201   42.2515 C   0  0  0  0  0  0  0  0  0  0  0  0
   36.7263   27.5776   41.3390 N   0  0  0  0  0  0  0  0  0  0  0  0
   36.6592   28.9132   41.4535 C   0  0  0  0  0  0  0  0  0  0  0  0
   37.2701   29.5541   42.4495 N   0  0  0  0  0  0  0  0  0  0  0  0
   37.5301   25.3324   42.1580 C   0  0  0  0  0  0  0  0  0  0  0  0
   37.6607   25.0493   40.8076 F   0  0  0  0  0  0  0  0  0  0  0  0
   38.6294   24.8375   42.7902 F   0  0  0  0  0  0  0  0  0  0  0  0
   36.3781   24.7185   42.6388 F   0  0  0  0  0  0  0  0  0  0  0  0
   38.4468   29.4412   44.1537 H   0  0  0  0  0  0  0  0  0  0  0  0
   38.6548   26.9310   44.0586 H   0  0  0  0  0  0  0  0  0  0  0  0
   35.9024   29.6776   40.4676 C   0  0  0  0  0  0  0  0  0  0  0  0
   36.5181   30.6417   39.6960 C   0  0  0  0  0  0  0  0  0  0  0  0
   37.5857   30.8395   39.8207 H   0  0  0  0  0  0  0  0  0  0  0  0
   35.9066   31.4059   38.7539 C   0  0  0  0  0  0  0  0  0  0  0  0
   34.5476   31.2177   38.5323 C   0  0  0  0  0  0  0  0  0  0  0  0
   33.9796   31.7860   37.7977 H   0  0  0  0  0  0  0  0  0  0  0  0
   33.8927   30.2487   39.2968 C   0  0  0  0  0  0  0  0  0  0  0  0
   32.8196   30.0454   39.1760 H   0  0  0  0  0  0  0  0  0  0  0  0
   34.5613   29.4916   40.2490 C   0  0  0  0  0  0  0  0  0  0  0  0
   36.4279   32.1600   38.1624 H   0  0  0  0  0  0  0  0  0  0  0  0
   34.0101   28.7394   40.8297 H   0  0  0  0  0  0  0  0  0  0  0  0
  2  1  2  0
  3  2  1  0
  4  5  1  0
  4  3  2  0
  5  6  2  0
  6  1  1  0
  7  3  1  0
  7 10  1  0
  7  9  1  0
  8  7  1  0
  1 11  1  0
  2 12  1  0
 13 14  2  0
 14 15  1  0
 14 16  1  0
 16 17  2  0
 17 18  1  0
 17 19  1  0
 19 20  1  0
 19 21  2  0
 21 13  1  0
 16 22  1  0
 21 23  1  0
  5 13  1  0
M  ISO  5  11  14  12  14  15  16  18  16  20  16
M  END
>  <DihAtoms>  (1) 
3,4,12,13

>  <DihDeg>  (1) 
179.999499109636

$$$$
