
 OpenBabel03242509293D

 48 52  0  0  0  0  0  0  0  0999 V2000
   36.2040   30.0840   41.1480 C   0  0  0  0  0  0  0  0  0  0  0  0
   35.5980   30.5770   41.9640 H   0  0  0  0  0  0  0  0  0  0  0  0
   36.8070   30.8920   40.6870 H   0  0  0  0  0  0  0  0  0  0  0  0
   38.6620   28.1280   42.7180 C   0  0  0  0  0  0  0  0  0  0  0  0
   37.5650   27.3160   42.8430 C   0  0  0  0  0  0  0  0  0  0  0  0
   36.5000   27.9930   42.2430 C   0  0  0  0  0  0  0  0  0  0  0  0
   37.0390   29.1450   41.8130 N   0  0  0  0  0  0  0  0  0  0  0  0
   38.3010   29.2670   42.0700 N   0  0  0  0  0  0  0  0  0  0  0  0
   37.5370   26.3310   43.3180 H   0  0  0  0  0  0  0  0  0  0  0  0
   35.5110   27.5800   42.1980 H   0  0  0  0  0  0  0  0  0  0  0  0
   41.5800   26.4100   44.2840 C   0  0  0  0  0  0  0  0  0  0  0  0
   40.2750   26.6380   43.8330 C   0  0  0  0  0  0  0  0  0  0  0  0
   40.0020   27.8550   43.1930 C   0  0  0  0  0  0  0  0  0  0  0  0
   40.9940   28.7740   43.0250 N   0  0  0  0  0  0  0  0  0  0  0  0
   42.2510   28.4980   43.4850 C   0  0  0  0  0  0  0  0  0  0  0  0
   42.5330   27.3340   44.1030 N   0  0  0  0  0  0  0  0  0  0  0  0
   41.7830   25.4730   44.7760 H   0  0  0  0  0  0  0  0  0  0  0  0
   39.5320   25.8820   43.9910 H   0  0  0  0  0  0  0  0  0  0  0  0
   43.2820   29.5060   43.2860 C   0  0  0  0  0  0  0  0  0  0  0  0
   44.2830   29.2720   42.3680 C   0  0  0  0  0  0  0  0  0  0  0  0
   44.3690   28.3880   41.7730 H   0  0  0  0  0  0  0  0  0  0  0  0
   45.2160   30.2660   42.2340 C   0  0  0  0  0  3  0  0  0  0  0  0
   45.1680   31.4140   42.9580 C   0  0  0  0  0  0  0  0  0  0  0  0
   45.9620   32.1430   42.7750 H   0  0  0  0  0  0  0  0  0  0  0  0
   44.1580   31.6660   43.8920 C   0  0  0  0  0  0  0  0  0  0  0  0
   44.1470   32.5810   44.4460 H   0  0  0  0  0  0  0  0  0  0  0  0
   43.2380   30.6720   44.0150 C   0  0  0  0  0  3  0  0  0  0  0  0
   35.3010   29.5270   40.0950 C   0  0  0  0  0  0  0  0  0  0  0  0
   34.5980   30.4190   39.9760 H   0  0  0  0  0  0  0  0  0  0  0  0
   34.8220   28.6310   40.4640 H   0  0  0  0  0  0  0  0  0  0  0  0
   35.9110   29.4340   38.7490 C   0  0  0  0  0  0  0  0  0  0  0  0
   37.2270   29.5650   38.4140 C   0  0  0  0  0  0  0  0  0  0  0  0
   37.7400   29.5430   37.1530 C   0  0  0  0  0  0  0  0  0  0  0  0
   36.8870   29.3760   36.0800 C   0  0  0  0  0  0  0  0  0  0  0  0
   35.5320   29.2330   36.3500 C   0  0  0  0  0  0  0  0  0  0  0  0
   34.7410   29.0710   35.2440 C   0  0  0  0  0  0  0  0  0  0  0  0
   33.3920   28.9180   35.3950 C   0  0  0  0  0  0  0  0  0  0  0  0
   32.8560   28.9280   36.6760 C   0  0  0  0  0  0  0  0  0  0  0  0
   33.7030   29.0940   37.7250 C   0  0  0  0  0  0  0  0  0  0  0  0
   35.0490   29.2590   37.6500 C   0  0  0  0  0  0  0  0  0  0  0  0
   37.9090   29.6990   39.2530 H   0  0  0  0  0  0  0  0  0  0  0  0
   38.8090   29.6580   37.0280 H   0  0  0  0  0  0  0  0  0  0  0  0
   37.2810   29.3590   35.0810 H   0  0  0  0  0  0  0  0  0  0  0  0
   35.1440   29.0570   34.2280 H   0  0  0  0  0  0  0  0  0  0  0  0
   32.7690   28.7920   34.5180 H   0  0  0  0  0  0  0  0  0  0  0  0
   31.8060   28.8050   36.7710 H   0  0  0  0  0  0  0  0  0  0  0  0
   33.1040   29.0780   38.9750 O   0  0  0  0  0  0  0  0  0  0  0  0
   32.5820   28.2980   39.3540 H   0  0  0  0  0  0  0  0  0  0  0  0
  1  7  1  0  0  0  0
  1  2  1  0  0  0  0
  3  1  1  0  0  0  0
  4  5  1  0  0  0  0
  4 13  1  0  0  0  0
  5  9  1  0  0  0  0
  6  5  2  0  0  0  0
  7  8  1  0  0  0  0
  7  6  1  0  0  0  0
  8  4  2  0  0  0  0
 10  6  1  0  0  0  0
 11 17  1  0  0  0  0
 12 18  1  0  0  0  0
 12 11  2  0  0  0  0
 13 12  1  0  0  0  0
 14 13  2  0  0  0  0
 14 15  1  0  0  0  0
 15 16  2  0  0  0  0
 16 11  1  0  0  0  0
 19 15  1  0  0  0  0
 19 27  1  0  0  0  0
 20 19  2  0  0  0  0
 21 20  1  0  0  0  0
 22 20  1  0  0  0  0
 22 23  2  0  0  0  0
 23 25  1  0  0  0  0
 24 23  1  0  0  0  0
 25 27  2  0  0  0  0
 25 26  1  0  0  0  0
 28 30  1  0  0  0  0
 28  1  1  0  0  0  0
 29 28  1  0  0  0  0
 31 28  1  0  0  0  0
 32 31  1  0  0  0  0
 32 41  1  0  0  0  0
 33 32  2  0  0  0  0
 34 35  2  0  0  0  0
 34 33  1  0  0  0  0
 35 40  1  0  0  0  0
 36 37  2  0  0  0  0
 36 35  1  0  0  0  0
 37 38  1  0  0  0  0
 38 46  1  0  0  0  0
 38 39  2  0  0  0  0
 39 47  1  0  0  0  0
 40 39  1  0  0  0  0
 40 31  2  0  0  0  0
 42 33  1  0  0  0  0
 43 34  1  0  0  0  0
 44 36  1  0  0  0  0
 45 37  1  0  0  0  0
 47 48  1  0  0  0  0
M  END
>  <minimizedAffinity>
-6.14081192

>  <minimizedRMSD>
0.204659775

$$$$
