REMARK  Name = 
REMARK  2 active torsions:
REMARK  status: ('A' for Active; 'I' for Inactive)
REMARK    1  A    between atoms: C_3  and  C_7
REMARK    2  A    between atoms: C_5  and  C_13
REMARK                            x       y       z     vdW  Elec       q    Type
REMARK                         _______ _______ _______ _____ _____    ______ ____
ROOT
ATOM      1  C   UNL     1      37.973  28.885  43.372  0.00  0.00    +0.000 A 
ATOM      2  C   UNL     1      38.087  27.467  43.313  0.00  0.00    +0.000 A 
ATOM      3  C   UNL     1      37.432  26.820  42.252  0.00  0.00    +0.000 A 
ATOM      4  N   UNL     1      36.726  27.578  41.339  0.00  0.00    +0.000 NA
ATOM      5  C   UNL     1      36.659  28.913  41.453  0.00  0.00    +0.000 A 
ATOM      6  N   UNL     1      37.270  29.554  42.450  0.00  0.00    +0.000 NA
ATOM      7  H   UNL     1      38.447  29.441  44.154  0.00  0.00    +0.000 HD
ATOM      8  H   UNL     1      38.655  26.931  44.059  0.00  0.00    +0.000 HD
ENDROOT
BRANCH   5   9
ATOM      9  C   UNL     1      35.902  29.678  40.468  0.00  0.00    +0.000 A 
ATOM     10  C   UNL     1      36.510  30.154  39.324  0.00  0.00    +0.000 A 
ATOM     11  H   UNL     1      37.571  29.959  39.150  0.00  0.00    +0.000 HD
ATOM     12  C   UNL     1      35.898  30.873  38.348  0.00  0.00    +0.000 A 
ATOM     13  C   UNL     1      34.547  31.165  38.492  0.00  0.00    +0.000 A 
ATOM     14  H   UNL     1      33.979  31.735  37.759  0.00  0.00    +0.000 HD
ATOM     15  C   UNL     1      33.900  30.697  39.639  0.00  0.00    +0.000 A 
ATOM     16  H   UNL     1      32.834  30.890  39.820  0.00  0.00    +0.000 HD
ATOM     17  C   UNL     1      34.569  29.965  40.610  0.00  0.00    +0.000 A 
ENDBRANCH   5   9
BRANCH   3  18
ATOM     18  C   UNL     1      37.530  25.332  42.158  0.00  0.00    +0.000 C 
ATOM     19  F   UNL     1      37.661  25.049  40.808  0.00  0.00    +0.000 F 
ATOM     20  F   UNL     1      38.629  24.837  42.790  0.00  0.00    +0.000 F 
ATOM     21  F   UNL     1      36.378  24.718  42.639  0.00  0.00    +0.000 F 
ENDBRANCH   3  18
TORSDOF 2
