
 OpenBabel03242509043D

 39 42  0  0  1  0  0  0  0  0999 V2000
   37.0810   29.4040   40.7000 N   0  0  1  0  0  0  0  0  0  0  0  0
   35.6120   29.3350   40.4880 C   0  0  0  0  0  0  0  0  0  0  0  0
   35.2640   28.5390   39.2650 C   0  0  0  0  0  0  0  0  0  0  0  0
   36.0980   28.8520   38.2010 O   0  0  0  0  0  0  0  0  0  0  0  0
   36.6180   30.1130   38.4200 C   0  0  0  0  0  0  0  0  0  0  0  0
   37.6110   30.1050   39.6020 C   0  0  1  0  0  0  0  0  0  0  0  0
   35.1730   30.3390   40.3790 H   0  0  0  0  0  0  0  0  0  0  0  0
   35.1970   28.8920   41.4070 H   0  0  0  0  0  0  0  0  0  0  0  0
   34.2080   28.6790   39.0550 H   0  0  0  0  0  0  0  0  0  0  0  0
   35.5040   27.4650   39.5170 H   0  0  0  0  0  0  0  0  0  0  0  0
   37.2110   30.3660   37.4950 H   0  0  0  0  0  0  0  0  0  0  0  0
   35.8790   30.9100   38.5260 H   0  0  0  0  0  0  0  0  0  0  0  0
   38.4510   29.4620   39.2000 H   0  0  0  0  0  0  0  0  0  0  0  0
   37.6740   28.8550   43.1600 C   0  0  1  0  0  0  0  0  0  0  0  0
   38.6800   29.8190   42.6570 C   0  0  0  0  0  0  0  0  0  0  0  0
   37.3720   29.8290   41.9990 C   0  0  1  0  0  0  0  0  0  0  0  0
   37.0640   28.9630   44.0580 H   0  0  0  0  0  0  0  0  0  0  0  0
   38.9480   30.6080   43.4210 H   0  0  0  0  0  0  0  0  0  0  0  0
   39.6080   29.3880   42.2400 H   0  0  0  0  0  0  0  0  0  0  0  0
   36.7170   30.6780   42.3670 H   0  0  0  0  0  0  0  0  0  0  0  0
   39.3780   25.7110   42.3000 C   0  0  0  0  0  0  0  0  0  0  0  0
   38.2920   24.7930   42.1780 C   0  0  0  0  0  0  0  0  0  0  0  0
   36.9780   25.3050   42.3890 C   0  0  0  0  0  0  0  0  0  0  0  0
   36.8210   26.6470   42.6960 N   0  0  0  0  0  0  0  0  0  0  0  0
   37.8930   27.4340   42.7910 C   0  0  0  0  0  0  0  0  0  0  0  0
   39.1590   27.0010   42.6010 N   0  0  0  0  0  0  0  0  0  0  0  0
   40.3590   25.2860   42.1340 H   0  0  0  0  0  0  0  0  0  0  0  0
   38.4230   23.7510   41.9380 H   0  0  0  0  0  0  0  0  0  0  0  0
   36.1150   24.6590   42.3100 H   0  0  0  0  0  0  0  0  0  0  0  0
   39.1790   34.0690   40.1170 C   0  0  0  0  0  0  0  0  0  0  0  0
   37.8250   33.8650   40.0490 C   0  0  0  0  0  0  0  0  0  0  0  0
   37.3310   32.5780   39.8840 C   0  0  0  0  0  0  0  0  0  0  0  0
   38.1330   31.4450   39.7810 C   0  0  0  0  0  0  0  0  0  0  0  0
   39.5110   31.6940   39.8540 C   0  0  0  0  0  0  0  0  0  0  0  0
   40.0070   32.9680   40.0170 C   0  0  0  0  0  0  0  0  0  0  0  0
   40.3770   35.8680   41.5660 H   0  0  0  0  0  0  0  0  0  0  0  0
   39.9060   35.6240   40.3190 S   0  0  0  0  0  0  0  0  0  0  0  0
   41.0740   35.7850   39.3700 O   0  0  0  0  0  0  0  0  0  0  0  0
   38.9100   36.6930   39.9000 O   0  0  0  0  0  0  0  0  0  0  0  0
  1  2  1  6  0  0  0
  1 16  1  0  0  0  0
  2  8  1  0  0  0  0
  3 10  1  0  0  0  0
  3  2  1  0  0  0  0
  4  5  1  0  0  0  0
  4  3  1  0  0  0  0
  5 12  1  0  0  0  0
  5  6  1  0  0  0  0
  6 13  1  6  0  0  0
  6 33  1  0  0  0  0
  6  1  1  0  0  0  0
  7  2  1  0  0  0  0
  9  3  1  0  0  0  0
 11  5  1  0  0  0  0
 14 17  1  1  0  0  0
 15 14  1  0  0  0  0
 15 18  1  0  0  0  0
 16 20  1  1  0  0  0
 16 15  1  0  0  0  0
 16 14  1  0  0  0  0
 19 15  1  0  0  0  0
 21 26  1  0  0  0  0
 22 21  2  0  0  0  0
 22 23  1  0  0  0  0
 23 24  2  0  0  0  0
 24 25  1  0  0  0  0
 25 14  1  0  0  0  0
 26 25  2  0  0  0  0
 27 21  1  0  0  0  0
 28 22  1  0  0  0  0
 29 23  1  0  0  0  0
 30 37  1  0  0  0  0
 31 30  1  0  0  0  0
 32 31  2  0  0  0  0
 33 34  2  0  0  0  0
 33 32  1  0  0  0  0
 34 35  1  0  0  0  0
 35 30  2  0  0  0  0
 37 36  1  0  0  0  0
 38 37  2  0  0  0  0
 39 37  2  0  0  0  0
M  END
>  <minimizedAffinity>
-6.11102295

>  <minimizedRMSD>
2.65939474

$$$$
