
 OpenBabel03242509183D

 36 39  0  0  1  0  0  0  0  0999 V2000
   37.0720   27.2330   41.5070 C   0  0  0  0  0  0  0  0  0  0  0  0
   37.1180   26.2870   42.5060 C   0  0  0  0  0  0  0  0  0  0  0  0
   36.9470   24.9530   42.2320 C   0  0  0  0  0  0  0  0  0  0  0  0
   36.7260   24.5690   40.9240 C   0  0  0  0  0  0  0  0  0  0  0  0
   36.6820   25.4930   39.9260 C   0  0  0  0  0  0  0  0  0  0  0  0
   36.8640   26.8500   40.2600 C   0  0  0  0  0  0  0  0  0  0  0  0
   37.2980   26.6480   43.5330 H   0  0  0  0  0  0  0  0  0  0  0  0
   37.0030   24.2950   43.1070 H   0  0  0  0  0  0  0  0  0  0  0  0
   36.6100   23.4910   40.8800 H   0  0  0  0  0  0  0  0  0  0  0  0
   36.5010   24.9850   38.9800 H   0  0  0  0  0  0  0  0  0  0  0  0
   38.4020   29.4110   41.6320 C   0  0  1  0  0  0  0  0  0  0  0  0
   37.8550   29.1260   42.9750 C   0  0  0  0  0  0  0  0  0  0  0  0
   37.0460   28.6560   41.8590 C   0  0  2  0  0  0  0  0  0  0  0  0
   39.2850   28.8970   41.3540 H   0  0  0  0  0  0  0  0  0  0  0  0
   38.4030   28.4130   43.6030 H   0  0  0  0  0  0  0  0  0  0  0  0
   37.5640   30.0560   43.5380 H   0  0  0  0  0  0  0  0  0  0  0  0
   36.2750   29.2310   41.3200 H   0  0  0  0  0  0  0  0  0  0  0  0
   38.2260   30.7880   41.0430 C   0  0  0  0  0  0  0  0  0  0  0  0
   37.2120   30.9600   40.0540 C   0  0  0  0  0  0  0  0  0  0  0  0
   37.0400   32.2190   39.5180 C   0  0  0  0  0  0  0  0  0  0  0  0
   37.8590   33.2390   39.9700 N   0  0  0  0  0  0  0  0  0  0  0  0
   38.8010   33.0350   40.9030 C   0  0  0  0  0  0  0  0  0  0  0  0
   38.9800   31.7860   41.4410 N   0  0  0  0  0  0  0  0  0  0  0  0
   36.5040   30.3000   39.6270 H   0  0  0  0  0  0  0  0  0  0  0  0
   36.3310   32.5140   38.7740 H   0  0  0  0  0  0  0  0  0  0  0  0
   39.4210   33.8520   41.2330 H   0  0  0  0  0  0  0  0  0  0  0  0
   36.2540   28.8610   36.6010 C   0  0  0  0  0  0  0  0  0  0  0  0
   35.2220   28.5410   37.4880 C   0  0  0  0  0  0  0  0  0  0  0  0
   35.5260   27.8810   38.6660 C   0  0  0  0  0  0  0  0  0  0  0  0
   36.8570   27.5300   38.9740 C   0  0  0  0  0  0  0  0  0  0  0  0
   37.8660   27.8530   38.0860 C   0  0  0  0  0  0  0  0  0  0  0  0
   37.5490   28.5110   36.9180 C   0  0  0  0  0  0  0  0  0  0  0  0
   36.1670   31.0370   35.3070 H   0  0  0  0  0  0  0  0  0  0  0  0
   35.9410   29.6960   35.0940 S   0  0  0  0  0  0  0  0  0  0  0  0
   34.4750   29.5510   34.7610 O   0  0  0  0  0  0  0  0  0  0  0  0
   36.7690   29.1400   33.9780 O   0  0  0  0  0  0  0  0  0  0  0  0
  1 13  1  0  0  0  0
  1  2  1  0  0  0  0
  2  7  1  0  0  0  0
  3  2  2  0  0  0  0
  3  8  1  0  0  0  0
  4  3  1  0  0  0  0
  5  6  1  0  0  0  0
  5  4  2  0  0  0  0
  6  1  2  0  0  0  0
  9  4  1  0  0  0  0
 10  5  1  0  0  0  0
 11 14  1  6  0  0  0
 11 13  1  0  0  0  0
 11 12  1  0  0  0  0
 12 16  1  0  0  0  0
 12 15  1  0  0  0  0
 13 17  1  6  0  0  0
 13 12  1  0  0  0  0
 18 23  1  0  0  0  0
 18 11  1  0  0  0  0
 19 18  2  0  0  0  0
 20 21  2  0  0  0  0
 20 19  1  0  0  0  0
 21 22  1  0  0  0  0
 22 26  1  0  0  0  0
 22 23  2  0  0  0  0
 24 19  1  0  0  0  0
 25 20  1  0  0  0  0
 27 32  2  0  0  0  0
 27 28  1  0  0  0  0
 28 29  2  0  0  0  0
 29 30  1  0  0  0  0
 30  6  1  0  0  0  0
 31 30  2  0  0  0  0
 32 31  1  0  0  0  0
 34 33  1  0  0  0  0
 34 27  1  0  0  0  0
 35 34  2  0  0  0  0
 36 34  2  0  0  0  0
M  END
>  <minimizedAffinity>
-5.77651167

>  <minimizedRMSD>
0.797581553

$$$$
