
 OpenBabel03242509283D

 49 53  0  0  0  0  0  0  0  0999 V2000
   38.4620   28.0900   42.6120 C   0  0  0  0  0  0  0  0  0  0  0  0
   37.3930   27.2310   42.6730 C   0  0  0  0  0  0  0  0  0  0  0  0
   36.3340   27.8800   42.0300 C   0  0  0  0  0  0  0  0  0  0  0  0
   36.8410   29.0520   41.6430 N   0  0  0  0  0  0  0  0  0  0  0  0
   38.0820   29.2120   41.9650 N   0  0  0  0  0  0  0  0  0  0  0  0
   37.3660   26.2350   43.1300 H   0  0  0  0  0  0  0  0  0  0  0  0
   35.3590   27.4150   41.9370 H   0  0  0  0  0  0  0  0  0  0  0  0
   41.4200   26.4200   44.1390 C   0  0  0  0  0  0  0  0  0  0  0  0
   40.1240   26.5800   43.6390 C   0  0  0  0  0  0  0  0  0  0  0  0
   39.7870   27.8550   43.1440 C   0  0  0  0  0  0  0  0  0  0  0  0
   40.7010   28.8570   43.1680 N   0  0  0  0  0  0  0  0  0  0  0  0
   41.9580   28.6260   43.6760 C   0  0  0  0  0  0  0  0  0  0  0  0
   42.3030   27.4270   44.1510 N   0  0  0  0  0  0  0  0  0  0  0  0
   41.6440   25.4150   44.5150 H   0  0  0  0  0  0  0  0  0  0  0  0
   39.4210   25.7620   43.6350 H   0  0  0  0  0  0  0  0  0  0  0  0
   44.6810   31.8500   43.6700 C   0  0  0  0  0  0  0  0  0  0  0  0
   45.0230   30.6760   44.3090 C   0  0  0  0  0  3  0  0  0  0  0  0
   44.1310   29.6210   44.3110 C   0  0  0  0  0  3  0  0  0  0  0  0
   42.9080   29.7330   43.6820 C   0  0  0  0  0  0  0  0  0  0  0  0
   42.5750   30.9110   43.0450 C   0  0  0  0  0  3  0  0  0  0  0  0
   43.4510   31.9980   43.0230 C   0  0  0  0  0  3  0  0  0  0  0  0
   47.0570   32.5950   44.3150 H   0  0  0  0  0  0  0  0  0  0  0  0
   45.9110   33.0960   43.7530 S   0  0  0  0  0  0  0  0  0  0  0  0
   46.3020   33.5610   42.3700 O   0  0  0  0  0  0  0  0  0  0  0  0
   45.4780   34.2930   44.5300 O   0  0  0  0  0  0  0  0  0  0  0  0
   36.0090   29.9750   40.9510 C   0  0  0  0  0  0  0  0  0  0  0  0
   36.6070   30.7980   40.5080 H   0  0  0  0  0  0  0  0  0  0  0  0
   35.3730   30.4660   41.7460 H   0  0  0  0  0  0  0  0  0  0  0  0
   35.1540   29.3970   39.8690 C   0  0  0  0  0  0  0  0  0  0  0  0
   34.7080   28.4730   40.2140 H   0  0  0  0  0  0  0  0  0  0  0  0
   34.4090   30.2580   39.7580 H   0  0  0  0  0  0  0  0  0  0  0  0
   35.7840   29.3630   38.5350 C   0  0  0  0  0  0  0  0  0  0  0  0
   37.1120   29.5010   38.2340 C   0  0  0  0  0  0  0  0  0  0  0  0
   37.6560   29.5320   36.9820 C   0  0  0  0  0  0  0  0  0  0  0  0
   36.8260   29.4180   35.8870 C   0  0  0  0  0  0  0  0  0  0  0  0
   35.4740   29.2740   36.1200 C   0  0  0  0  0  0  0  0  0  0  0  0
   34.6940   29.1690   34.9910 C   0  0  0  0  0  0  0  0  0  0  0  0
   33.3490   29.0250   35.1210 C   0  0  0  0  0  0  0  0  0  0  0  0
   32.7740   28.9820   36.3660 C   0  0  0  0  0  0  0  0  0  0  0  0
   33.6040   29.0920   37.4510 C   0  0  0  0  0  0  0  0  0  0  0  0
   34.9500   29.2430   37.4140 C   0  0  0  0  0  0  0  0  0  0  0  0
   37.7730   29.5930   39.1010 H   0  0  0  0  0  0  0  0  0  0  0  0
   38.7220   29.6460   36.8970 H   0  0  0  0  0  0  0  0  0  0  0  0
   37.2630   29.4450   34.9070 H   0  0  0  0  0  0  0  0  0  0  0  0
   35.1160   29.1960   33.9920 H   0  0  0  0  0  0  0  0  0  0  0  0
   32.7310   28.9430   34.2170 H   0  0  0  0  0  0  0  0  0  0  0  0
   31.7040   28.8660   36.4640 H   0  0  0  0  0  0  0  0  0  0  0  0
   32.9730   29.0240   38.6900 O   0  0  0  0  0  0  0  0  0  0  0  0
   32.2530   29.6820   38.9620 H   0  0  0  0  0  0  0  0  0  0  0  0
  1  2  1  0  0  0  0
  1 10  1  0  0  0  0
  2  6  1  0  0  0  0
  3  2  2  0  0  0  0
  4  5  1  0  0  0  0
  4  3  1  0  0  0  0
  5  1  2  0  0  0  0
  7  3  1  0  0  0  0
  8 13  1  0  0  0  0
  8 14  1  0  0  0  0
  9  8  2  0  0  0  0
 10 11  2  0  0  0  0
 10  9  1  0  0  0  0
 11 12  1  0  0  0  0
 12 19  1  0  0  0  0
 12 13  2  0  0  0  0
 15  9  1  0  0  0  0
 16 23  1  0  0  0  0
 16 17  1  0  0  0  0
 17 18  2  0  0  0  0
 19 18  1  0  0  0  0
 20 19  2  0  0  0  0
 21 20  1  0  0  0  0
 21 16  2  0  0  0  0
 23 22  1  0  0  0  0
 23 25  2  0  0  0  0
 24 23  2  0  0  0  0
 26  4  1  0  0  0  0
 26 28  1  0  0  0  0
 27 26  1  0  0  0  0
 29 30  1  0  0  0  0
 29 26  1  0  0  0  0
 31 29  1  0  0  0  0
 32 29  1  0  0  0  0
 33 32  1  0  0  0  0
 33 42  1  0  0  0  0
 34 33  2  0  0  0  0
 35 36  2  0  0  0  0
 35 34  1  0  0  0  0
 36 41  1  0  0  0  0
 37 38  2  0  0  0  0
 37 36  1  0  0  0  0
 38 39  1  0  0  0  0
 39 47  1  0  0  0  0
 39 40  2  0  0  0  0
 40 48  1  0  0  0  0
 41 40  1  0  0  0  0
 41 32  2  0  0  0  0
 43 34  1  0  0  0  0
 44 35  1  0  0  0  0
 45 37  1  0  0  0  0
 46 38  1  0  0  0  0
 48 49  1  0  0  0  0
M  END
>  <minimizedAffinity>
-6.38679934

>  <minimizedRMSD>
1.04312849

$$$$
