
 OpenBabel03242509283D

 49 53  0  0  0  0  0  0  0  0999 V2000
   38.5040   28.1860   42.6020 C   0  0  0  0  0  0  0  0  0  0  0  0
   37.4590   27.3010   42.6900 C   0  0  0  0  0  0  0  0  0  0  0  0
   36.3740   27.9140   42.0550 C   0  0  0  0  0  0  0  0  0  0  0  0
   36.8450   29.0940   41.6460 N   0  0  0  0  0  0  0  0  0  0  0  0
   38.0860   29.2890   41.9460 N   0  0  0  0  0  0  0  0  0  0  0  0
   37.4640   26.3100   43.1600 H   0  0  0  0  0  0  0  0  0  0  0  0
   35.4100   27.4230   41.9820 H   0  0  0  0  0  0  0  0  0  0  0  0
   41.5120   26.6260   44.1470 C   0  0  0  0  0  0  0  0  0  0  0  0
   40.2050   26.7460   43.6660 C   0  0  0  0  0  0  0  0  0  0  0  0
   39.8420   27.9920   43.1180 C   0  0  0  0  0  0  0  0  0  0  0  0
   40.7440   29.0040   43.0740 N   0  0  0  0  0  0  0  0  0  0  0  0
   42.0140   28.8120   43.5670 C   0  0  0  0  0  0  0  0  0  0  0  0
   42.3830   27.6420   44.0910 N   0  0  0  0  0  0  0  0  0  0  0  0
   41.7560   25.6430   44.5660 H   0  0  0  0  0  0  0  0  0  0  0  0
   39.5110   25.9220   43.7170 H   0  0  0  0  0  0  0  0  0  0  0  0
   44.7500   32.0200   43.3840 C   0  0  0  0  0  0  0  0  0  0  0  0
   43.4530   32.2110   42.9570 C   0  0  0  0  0  3  0  0  0  0  0  0
   42.5580   31.1600   43.0180 C   0  0  0  0  0  3  0  0  0  0  0  0
   42.9510   29.9280   43.4990 C   0  0  0  0  0  0  0  0  0  0  0  0
   44.2510   29.7460   43.9230 C   0  0  0  0  0  3  0  0  0  0  0  0
   45.1820   30.7850   43.8760 C   0  0  0  0  0  3  0  0  0  0  0  0
   45.5240   34.0870   42.0640 H   0  0  0  0  0  0  0  0  0  0  0  0
   45.7680   33.4400   43.2480 S   0  0  0  0  0  0  0  0  0  0  0  0
   45.4460   34.4410   44.3340 O   0  0  0  0  0  0  0  0  0  0  0  0
   47.2230   33.1260   43.3350 O   0  0  0  0  0  0  0  0  0  0  0  0
   35.9790   29.9860   40.9540 C   0  0  0  0  0  0  0  0  0  0  0  0
   36.5480   30.8300   40.5110 H   0  0  0  0  0  0  0  0  0  0  0  0
   35.3270   30.4540   41.7490 H   0  0  0  0  0  0  0  0  0  0  0  0
   35.1450   29.3770   39.8730 C   0  0  0  0  0  0  0  0  0  0  0  0
   34.7220   28.4440   40.2230 H   0  0  0  0  0  0  0  0  0  0  0  0
   34.3780   30.2170   39.7530 H   0  0  0  0  0  0  0  0  0  0  0  0
   35.7810   29.3500   38.5410 C   0  0  0  0  0  0  0  0  0  0  0  0
   37.1110   29.4880   38.2480 C   0  0  0  0  0  0  0  0  0  0  0  0
   37.6600   29.5250   36.9990 C   0  0  0  0  0  0  0  0  0  0  0  0
   36.8360   29.4190   35.8990 C   0  0  0  0  0  0  0  0  0  0  0  0
   35.4820   29.2760   36.1250 C   0  0  0  0  0  0  0  0  0  0  0  0
   34.7080   29.1800   34.9920 C   0  0  0  0  0  0  0  0  0  0  0  0
   33.3620   29.0380   35.1140 C   0  0  0  0  0  0  0  0  0  0  0  0
   32.7800   28.9890   36.3570 C   0  0  0  0  0  0  0  0  0  0  0  0
   33.6050   29.0900   37.4460 C   0  0  0  0  0  0  0  0  0  0  0  0
   34.9520   29.2390   37.4160 C   0  0  0  0  0  0  0  0  0  0  0  0
   37.7680   29.5720   39.1190 H   0  0  0  0  0  0  0  0  0  0  0  0
   38.7280   29.6370   36.9200 H   0  0  0  0  0  0  0  0  0  0  0  0
   37.2770   29.4510   34.9210 H   0  0  0  0  0  0  0  0  0  0  0  0
   35.1340   29.2130   33.9940 H   0  0  0  0  0  0  0  0  0  0  0  0
   32.7470   28.9630   34.2070 H   0  0  0  0  0  0  0  0  0  0  0  0
   31.7090   28.8740   36.4490 H   0  0  0  0  0  0  0  0  0  0  0  0
   32.9690   29.0160   38.6820 O   0  0  0  0  0  0  0  0  0  0  0  0
   32.2490   29.6740   38.9540 H   0  0  0  0  0  0  0  0  0  0  0  0
  1  2  1  0  0  0  0
  1 10  1  0  0  0  0
  2  6  1  0  0  0  0
  3  2  2  0  0  0  0
  4  5  1  0  0  0  0
  4  3  1  0  0  0  0
  5  1  2  0  0  0  0
  7  3  1  0  0  0  0
  8 14  1  0  0  0  0
  9 15  1  0  0  0  0
  9  8  2  0  0  0  0
 10  9  1  0  0  0  0
 11 10  2  0  0  0  0
 11 12  1  0  0  0  0
 12 13  2  0  0  0  0
 13  8  1  0  0  0  0
 16 21  1  0  0  0  0
 17 18  1  0  0  0  0
 17 16  2  0  0  0  0
 18 19  2  0  0  0  0
 19 12  1  0  0  0  0
 19 20  1  0  0  0  0
 21 20  2  0  0  0  0
 22 23  1  0  0  0  0
 23 25  2  0  0  0  0
 23 16  1  0  0  0  0
 23 24  2  0  0  0  0
 26  4  1  0  0  0  0
 26 28  1  0  0  0  0
 27 26  1  0  0  0  0
 29 30  1  0  0  0  0
 29 26  1  0  0  0  0
 31 29  1  0  0  0  0
 32 29  1  0  0  0  0
 33 32  1  0  0  0  0
 33 42  1  0  0  0  0
 34 33  2  0  0  0  0
 35 36  2  0  0  0  0
 35 34  1  0  0  0  0
 36 41  1  0  0  0  0
 37 38  2  0  0  0  0
 37 36  1  0  0  0  0
 38 39  1  0  0  0  0
 39 47  1  0  0  0  0
 39 40  2  0  0  0  0
 40 48  1  0  0  0  0
 41 40  1  0  0  0  0
 41 32  2  0  0  0  0
 43 34  1  0  0  0  0
 44 35  1  0  0  0  0
 45 37  1  0  0  0  0
 46 38  1  0  0  0  0
 48 49  1  0  0  0  0
M  END
>  <minimizedAffinity>
-6.3563633

>  <minimizedRMSD>
0.797032893

$$$$
