
 OpenBabel03242500383D

 32 34  0  0  1  0  0  0  0  0999 V2000
   37.6060   27.2320   40.6710 C   0  0  1  0  0  0  0  0  0  0  0  0
   37.4830   26.9210   42.1640 C   0  0  1  0  0  0  0  0  0  0  0  0
   37.1580   25.4660   42.2030 C   0  0  0  0  0  0  0  0  0  0  0  0
   36.9720   25.0040   40.7740 C   0  0  0  0  0  0  0  0  0  0  0  0
   36.5990   26.3210   40.0750 C   0  0  0  0  0  0  0  0  0  0  0  0
   38.6250   26.9340   40.3530 H   0  0  0  0  0  0  0  0  0  0  0  0
   36.7540   27.5830   42.6530 H   0  0  0  0  0  0  0  0  0  0  0  0
   36.1530   25.3540   42.7000 H   0  0  0  0  0  0  0  0  0  0  0  0
   37.8750   24.8600   42.7760 H   0  0  0  0  0  0  0  0  0  0  0  0
   37.8480   24.5250   40.3350 H   0  0  0  0  0  0  0  0  0  0  0  0
   36.1090   24.3220   40.6710 H   0  0  0  0  0  0  0  0  0  0  0  0
   36.7990   26.1290   39.0010 H   0  0  0  0  0  0  0  0  0  0  0  0
   35.5570   26.4920   40.3120 H   0  0  0  0  0  0  0  0  0  0  0  0
   37.3930   28.6540   40.4340 C   0  0  0  0  0  0  0  0  0  0  0  0
   36.2980   29.2660   41.1110 C   0  0  0  0  0  0  0  0  0  0  0  0
   36.0820   30.6410   40.9020 C   0  0  0  0  0  0  0  0  0  0  0  0
   36.9460   31.3000   40.0570 N   0  0  0  0  0  0  0  0  0  0  0  0
   37.9680   30.6670   39.4440 C   0  0  0  0  0  0  0  0  0  0  0  0
   38.1900   29.3440   39.6320 N   0  0  0  0  0  0  0  0  0  0  0  0
   35.6010   28.7860   41.7790 H   0  0  0  0  0  0  0  0  0  0  0  0
   35.2620   31.1420   41.3980 H   0  0  0  0  0  0  0  0  0  0  0  0
   38.5780   31.2920   38.8030 H   0  0  0  0  0  0  0  0  0  0  0  0
   41.4150   27.2180   43.9070 C   0  0  0  0  0  0  0  0  0  0  0  0
   40.6890   26.0300   43.9070 C   0  0  0  0  0  0  0  0  0  0  0  0
   39.4160   25.9850   43.3280 C   0  0  0  0  0  0  0  0  0  0  0  0
   38.8400   27.1020   42.7430 C   0  0  0  0  0  0  0  0  0  0  0  0
   39.5620   28.2600   42.7500 C   0  0  0  0  0  0  0  0  0  0  0  0
   40.8200   28.3060   43.3220 C   0  0  0  0  0  0  0  0  0  0  0  0
   43.7200   28.3480   44.3140 H   0  0  0  0  0  0  0  0  0  0  0  0
   43.0040   27.2510   44.6360 S   0  0  0  0  0  0  0  0  0  0  0  0
   43.7470   26.0180   44.1610 O   0  0  0  0  0  0  0  0  0  0  0  0
   42.8770   27.1220   46.1250 O   0  0  0  0  0  0  0  0  0  0  0  0
  1  6  1  6  0  0  0
  1  2  1  0  0  0  0
  2  3  1  0  0  0  0
  2  7  1  1  0  0  0
  2 26  1  0  0  0  0
  3  8  1  0  0  0  0
  3  9  1  0  0  0  0
  4  3  1  0  0  0  0
  5 13  1  0  0  0  0
  5  1  1  0  0  0  0
  5  4  1  0  0  0  0
 10  4  1  0  0  0  0
 11  4  1  0  0  0  0
 12  5  1  0  0  0  0
 14  1  1  0  0  0  0
 14 15  1  0  0  0  0
 15 20  1  0  0  0  0
 16 15  2  0  0  0  0
 16 21  1  0  0  0  0
 17 16  1  0  0  0  0
 18 19  1  0  0  0  0
 18 17  2  0  0  0  0
 19 14  2  0  0  0  0
 22 18  1  0  0  0  0
 23 24  1  0  0  0  0
 23 30  1  0  0  0  0
 25 24  2  0  0  0  0
 26 27  2  0  0  0  0
 26 25  1  0  0  0  0
 27 28  1  0  0  0  0
 28 23  2  0  0  0  0
 29 30  1  0  0  0  0
 30 32  2  0  0  0  0
 31 30  2  0  0  0  0
M  END
>  <minimizedAffinity>
-5.24842215

>  <minimizedRMSD>
1.68903255

$$$$
