
 OpenBabel03242506323D

 34 37  0  0  0  0  0  0  0  0999 V2000
   37.9610   30.7190   40.8770 C   0  0  0  0  0  0  0  0  0  0  0  0
   37.2170   31.8530   40.6240 C   0  0  0  0  0  0  0  0  0  0  0  0
   37.7040   32.8310   39.7820 C   0  0  0  0  0  0  0  0  0  0  0  0
   38.9140   32.6430   39.2210 N   0  0  0  0  0  0  0  0  0  0  0  0
   39.6580   31.5460   39.4500 C   0  0  0  0  0  0  0  0  0  0  0  0
   39.1770   30.6040   40.2700 N   0  0  0  0  0  0  0  0  0  0  0  0
   36.2720   31.8470   41.1530 H   0  0  0  0  0  0  0  0  0  0  0  0
   37.0650   33.6910   39.6320 H   0  0  0  0  0  0  0  0  0  0  0  0
   36.6580   28.7000   41.4410 C   0  0  0  0  0  0  0  0  0  0  0  0
   36.6180   27.8800   42.5600 C   0  0  0  0  0  0  0  0  0  0  0  0
   37.4720   28.3030   43.5000 N   0  0  0  0  0  0  0  0  0  0  0  0
   38.0670   29.4080   42.9780 C   0  0  0  0  0  0  0  0  0  0  0  0
   37.5660   29.6400   41.7290 N   0  0  0  0  0  0  0  0  0  0  0  0
   35.9950   26.9990   42.7090 H   0  0  0  0  0  0  0  0  0  0  0  0
   38.8310   30.0100   43.4940 H   0  0  0  0  0  0  0  0  0  0  0  0
   35.5420   27.3830   38.1850 C   0  0  0  0  0  0  0  0  0  0  0  0
   36.3230   27.5580   39.3380 C   0  0  0  0  0  0  0  0  0  0  0  0
   35.8680   28.5180   40.2650 C   0  0  0  0  0  0  0  0  0  0  0  0
   34.7250   29.1980   39.9860 N   0  0  0  0  0  0  0  0  0  0  0  0
   33.9990   28.9930   38.8520 C   0  0  0  0  0  0  0  0  0  0  0  0
   34.4190   28.0820   37.9590 N   0  0  0  0  0  0  0  0  0  0  0  0
   35.9130   26.6400   37.4860 H   0  0  0  0  0  0  0  0  0  0  0  0
   37.2300   27.0030   39.5330 H   0  0  0  0  0  0  0  0  0  0  0  0
   33.1060   29.5970   38.7440 H   0  0  0  0  0  0  0  0  0  0  0  0
   43.3520   31.1930   37.4740 C   0  0  0  0  0  0  0  0  0  0  0  0
   43.3210   31.7780   38.7230 C   0  0  0  0  0  0  0  0  0  0  0  0
   42.1060   31.9090   39.4020 C   0  0  0  0  0  0  0  0  0  0  0  0
   40.9610   31.4390   38.7900 C   0  0  0  0  0  0  0  0  0  0  0  0
   40.9980   30.8550   37.5410 C   0  0  0  0  0  0  0  0  0  0  0  0
   42.2110   30.7280   36.8700 C   0  0  0  0  0  0  0  0  0  0  0  0
   45.6390   30.0320   37.1230 H   0  0  0  0  0  0  0  0  0  0  0  0
   44.8420   31.0050   36.5780 S   0  0  0  0  0  0  0  0  0  0  0  0
   44.5440   30.5450   35.1620 O   0  0  0  0  0  0  0  0  0  0  0  0
   45.5740   32.3150   36.4560 O   0  0  0  0  0  0  0  0  0  0  0  0
  1 13  1  0  0  0  0
  2  1  1  0  0  0  0
  2  7  1  0  0  0  0
  3  2  2  0  0  0  0
  4  5  2  0  0  0  0
  4  3  1  0  0  0  0
  5  6  1  0  0  0  0
  6  1  2  0  0  0  0
  8  3  1  0  0  0  0
  9 13  1  0  0  0  0
  9 10  2  0  0  0  0
 10 14  1  0  0  0  0
 10 11  1  0  0  0  0
 12 15  1  0  0  0  0
 12 11  2  0  0  0  0
 13 12  1  0  0  0  0
 16 17  1  0  0  0  0
 17 23  1  0  0  0  0
 17 18  2  0  0  0  0
 18  9  1  0  0  0  0
 19 18  1  0  0  0  0
 20 19  2  0  0  0  0
 21 16  2  0  0  0  0
 21 20  1  0  0  0  0
 22 16  1  0  0  0  0
 24 20  1  0  0  0  0
 25 26  1  0  0  0  0
 26 27  2  0  0  0  0
 28 27  1  0  0  0  0
 28  5  1  0  0  0  0
 29 28  2  0  0  0  0
 30 25  2  0  0  0  0
 30 29  1  0  0  0  0
 32 31  1  0  0  0  0
 32 25  1  0  0  0  0
 33 32  2  0  0  0  0
 34 32  2  0  0  0  0
M  END
>  <minimizedAffinity>
-5.44298935

>  <minimizedRMSD>
3.00650501

$$$$
