
     RDKit          3D

 53 57  0  0  0  0  0  0  0  0999 V2000
   35.2840   29.4958   40.0732 C   0  0  0  0  0  0  0  0  0  0  0  0
   35.8864   29.4321   38.7267 C   0  0  0  0  0  0  0  0  0  0  0  0
   37.2026   29.5979   38.3917 C   0  0  0  0  0  0  0  0  0  0  0  0
   37.7177   29.5992   37.1283 C   0  0  0  0  0  0  0  0  0  0  0  0
   36.8692   29.4210   36.0558 C   0  0  0  0  0  0  0  0  0  0  0  0
   35.5269   29.2464   36.3253 C   0  0  0  0  0  0  0  0  0  0  0  0
   34.7275   29.0777   35.2183 C   0  0  0  0  0  0  0  0  0  0  0  0
   33.3902   28.8991   35.3826 C   0  0  0  0  0  0  0  0  0  0  0  0
   32.8434   28.8850   36.6416 C   0  0  0  0  0  0  0  0  0  0  0  0
   33.6924   29.0575   37.7028 C   0  0  0  0  0  0  0  0  0  0  0  0
   35.0317   29.2473   37.6298 C   0  0  0  0  0  0  0  0  0  0  0  0
   33.0906   29.0170   38.9579 O   0  0  0  0  0  0  0  0  0  0  0  0
   36.1709   30.0732   41.1291 C   0  0  0  0  0  0  0  0  0  0  0  0
   38.6523   28.1625   42.7187 C   0  0  0  0  0  0  0  0  0  0  0  0
   37.5607   27.3457   42.8726 C   0  0  0  0  0  0  0  0  0  0  0  0
   36.4878   28.0083   42.2671 C   0  0  0  0  0  0  0  0  0  0  0  0
   37.0109   29.1472   41.8076 N   0  0  0  0  0  0  0  0  0  0  0  0
   38.2732   29.2738   42.0518 N   0  0  0  0  0  0  0  0  0  0  0  0
   41.5783   26.5537   44.3684 C   0  0  0  0  0  0  0  0  0  0  0  0
   40.2581   26.7478   43.9505 C   0  0  0  0  0  0  0  0  0  0  0  0
   39.9973   27.9015   43.1839 C   0  0  0  0  0  0  0  0  0  0  0  0
   41.0029   28.7599   42.8852 N   0  0  0  0  0  0  0  0  0  0  0  0
   42.2791   28.5041   43.3311 C   0  0  0  0  0  0  0  0  0  0  0  0
   42.5526   27.4194   44.0581 N   0  0  0  0  0  0  0  0  0  0  0  0
   34.8286   28.5850   40.4398 H   0  0  0  0  0  0  0  0  0  0  0  0
   34.5533   30.3694   39.9646 H   0  0  0  0  0  0  0  0  0  0  0  0
   37.8792   29.7403   39.2405 H   0  0  0  0  0  0  0  0  0  0  0  0
   38.7795   29.7411   37.0154 H   0  0  0  0  0  0  0  0  0  0  0  0
   37.2836   29.4253   35.0655 H   0  0  0  0  0  0  0  0  0  0  0  0
   35.1258   29.0814   34.2088 H   0  0  0  0  0  0  0  0  0  0  0  0
   32.7546   28.7668   34.4974 H   0  0  0  0  0  0  0  0  0  0  0  0
   31.7791   28.7414   36.7681 H   0  0  0  0  0  0  0  0  0  0  0  0
   32.3569   29.6633   39.2221 H   0  0  0  0  0  0  0  0  0  0  0  0
   36.7666   30.8868   40.6659 H   0  0  0  0  0  0  0  0  0  0  0  0
   35.5604   30.5759   41.9356 H   0  0  0  0  0  0  0  0  0  0  0  0
   37.5270   26.3679   43.3692 H   0  0  0  0  0  0  0  0  0  0  0  0
   35.4945   27.5751   42.2469 H   0  0  0  0  0  0  0  0  0  0  0  0
   41.7410   25.6470   44.9611 H   0  0  0  0  0  0  0  0  0  0  0  0
   39.4812   26.0453   44.2055 H   0  0  0  0  0  0  0  0  0  0  0  0
   47.7981   31.8549   42.4510 H   0  0  0  0  0  0  0  0  0  0  0  0
   46.6366   32.3180   41.8893 S   0  0  0  0  0  0  0  0  0  0  0  0
   46.8640   32.2886   40.3955 O   0  0  0  0  0  0  0  0  0  0  0  0
   46.4403   33.7404   42.2911 O   0  0  0  0  0  0  0  0  0  0  0  0
   45.2928   31.2866   42.3387 C   0  0  0  0  0  0  0  0  0  0  0  0
   45.5455   29.9380   42.2033 C   0  0  0  0  0  0  0  0  0  0  0  0
   44.5583   29.0272   42.5284 C   0  0  0  0  0  0  0  0  0  0  0  0
   43.3289   29.4562   42.9849 C   0  0  0  0  0  0  0  0  0  0  0  0
   43.0844   30.8076   43.1175 C   0  0  0  0  0  0  0  0  0  0  0  0
   44.0583   31.7556   42.7983 C   0  0  0  0  0  0  0  0  0  0  0  0
   46.4826   29.5265   41.8526 H   0  0  0  0  0  0  0  0  0  0  0  0
   44.6977   27.9416   42.4424 H   0  0  0  0  0  0  0  0  0  0  0  0
   42.1475   31.2207   43.4682 H   0  0  0  0  0  0  0  0  0  0  0  0
   43.9525   32.8152   42.8714 H   0  0  0  0  0  0  0  0  0  0  0  0
  1 13  1  0
  2  1  1  0
  3  2  2  0
  4  3  1  0
  5  6  1  0
  5  4  2  0
  6 11  2  0
  7  8  2  0
  7  6  1  0
  8  9  1  0
  9 10  2  0
 10 12  1  0
 11 10  1  0
 11  2  1  0
 13 17  1  0
 14 15  1  0
 14 21  1  0
 16 15  2  0
 17 18  1  0
 17 16  1  0
 18 14  2  0
 20 19  2  0
 21 20  1  0
 22 21  2  0
 22 23  1  0
 23 24  2  0
 24 19  1  0
  1 25  1  0
  1 26  1  0
  3 27  1  0
  4 28  1  0
  5 29  1  0
  7 30  1  0
  8 31  1  0
  9 32  1  0
 12 33  1  0
 13 34  1  0
 13 35  1  0
 15 36  1  0
 16 37  1  0
 19 38  1  0
 20 39  1  0
 40 41  1  0
 41 42  2  0
 41 43  2  0
 41 44  1  0
 44 45  2  0
 45 46  1  0
 46 47  2  0
 47 48  1  0
 48 49  2  0
 49 44  1  0
 45 50  1  0
 46 51  1  0
 48 52  1  0
 49 53  1  0
 23 47  1  0
M  ISO  8  25   8  26   8  27  14  28  14  29  14  30  14  31  14  32  14
M  ISO  8  33   3  34   8  35   8  36  14  37  14  38  14  39  14  40  12
M  END
>  <DihAtoms>  (1) 
21,22,46,45

>  <DihDeg>  (1) 
0.0010796782484289009

$$$$
