
 OpenBabel03242506483D

 34 37  0  0  0  0  0  0  0  0999 V2000
   44.5430   26.3500   44.3140 C   0  0  0  0  0  0  0  0  0  0  0  0
   43.3290   26.3760   43.5790 C   0  0  0  0  0  0  0  0  0  0  0  0
   42.1790   26.8860   44.1680 C   0  0  0  0  0  0  0  0  0  0  0  0
   42.2630   27.3520   45.4620 N   0  0  0  0  0  0  0  0  0  0  0  0
   43.4310   27.3120   46.1290 C   0  0  0  0  0  0  0  0  0  0  0  0
   44.5550   26.8250   45.5830 N   0  0  0  0  0  0  0  0  0  0  0  0
   45.4510   25.9580   43.8780 H   0  0  0  0  0  0  0  0  0  0  0  0
   43.9360   24.8780   39.6920 C   0  0  0  0  0  0  0  0  0  0  0  0
   45.0290   25.2910   40.4590 C   0  0  0  0  0  0  0  0  0  0  0  0
   44.7200   25.7740   41.7360 C   0  0  0  0  0  0  0  0  0  0  0  0
   43.4220   25.8490   42.2400 C   0  0  0  0  0  0  0  0  0  0  0  0
   42.3830   25.4240   41.4370 C   0  0  0  0  0  0  0  0  0  0  0  0
   42.6270   24.9380   40.1640 C   0  0  0  0  0  0  0  0  0  0  0  0
   44.3880   25.3660   37.2370 H   0  0  0  0  0  0  0  0  0  0  0  0
   44.3080   24.2720   38.0930 S   0  0  0  0  0  0  0  0  0  0  0  0
   45.6260   23.5660   38.0660 O   0  0  0  0  0  0  0  0  0  0  0  0
   43.1790   23.4280   37.6320 O   0  0  0  0  0  0  0  0  0  0  0  0
   43.4520   27.8380   47.5410 C   0  0  0  0  0  0  0  0  0  0  0  0
   43.4490   29.2200   47.5500 F   0  0  0  0  0  0  0  0  0  0  0  0
   42.2710   27.4640   48.2090 F   0  0  0  0  0  0  0  0  0  0  0  0
   44.5830   27.4200   48.2310 F   0  0  0  0  0  0  0  0  0  0  0  0
   41.0450   26.8860   43.4140 O   0  0  0  0  0  0  0  0  0  0  0  0
   37.0810   29.1120   43.3380 N   0  0  0  0  0  0  0  0  0  0  0  0
   36.9460   27.8620   43.8100 C   0  0  0  0  0  0  0  0  0  0  0  0
   38.1700   27.2840   43.7940 N   0  0  0  0  0  0  0  0  0  0  0  0
   39.0990   28.1570   43.3130 C   0  0  0  0  0  0  0  0  0  0  0  0
   40.4700   28.1000   43.0860 C   0  0  0  0  0  0  0  0  0  0  0  0
   41.0820   29.1910   42.5850 N   0  0  0  0  0  0  0  0  0  0  0  0
   40.3640   30.3010   42.3190 C   0  0  0  0  0  0  0  0  0  0  0  0
   39.0360   30.3910   42.5270 N   0  0  0  0  0  0  0  0  0  0  0  0
   38.3660   29.3220   43.0310 C   0  0  0  0  0  0  0  0  0  0  0  0
   36.3610   29.8650   43.2000 H   0  0  0  0  0  0  0  0  0  0  0  0
   36.0040   27.4450   44.1290 H   0  0  0  0  0  0  0  0  0  0  0  0
   40.9270   31.1280   41.9200 H   0  0  0  0  0  0  0  0  0  0  0  0
  1  6  1  0  0  0  0
  2  3  1  0  0  0  0
  2  1  2  0  0  0  0
  3  4  2  0  0  0  0
  4  5  1  0  0  0  0
  5 18  1  0  0  0  0
  6  5  2  0  0  0  0
  7  1  1  0  0  0  0
  8 13  2  0  0  0  0
  8  9  1  0  0  0  0
  9 10  2  0  0  0  0
 10 11  1  0  0  0  0
 11  2  1  0  0  0  0
 12 11  2  0  0  0  0
 13 12  1  0  0  0  0
 14 15  1  0  0  0  0
 15  8  1  0  0  0  0
 16 15  2  0  0  0  0
 17 15  2  0  0  0  0
 18 19  1  0  0  0  0
 18 20  1  0  0  0  0
 18 21  1  0  0  0  0
 22  3  1  0  0  0  0
 23 24  1  0  0  0  0
 24 33  1  0  0  0  0
 25 24  2  0  0  0  0
 26 25  1  0  0  0  0
 27 26  1  0  0  0  0
 27 22  1  0  0  0  0
 28 27  2  0  0  0  0
 29 30  2  0  0  0  0
 29 28  1  0  0  0  0
 30 31  1  0  0  0  0
 31 26  2  0  0  0  0
 31 23  1  0  0  0  0
 32 23  1  0  0  0  0
 34 29  1  0  0  0  0
M  END
>  <minimizedAffinity>
-5.5287962

>  <minimizedRMSD>
0.220458001

$$$$
