
 OpenBabel03242502563D

 38 42  0  0  1  0  0  0  0  0999 V2000
   39.2020   27.8650   42.9510 C   0  0  0  0  0  0  0  0  0  0  0  0
   38.7680   26.6580   43.3730 N   0  0  0  0  0  0  0  0  0  0  0  0
   39.7390   26.0450   43.9840 O   0  0  0  0  0  0  0  0  0  0  0  0
   40.7900   26.8760   43.9440 C   0  0  0  0  0  0  0  0  0  0  0  0
   40.4910   28.0360   43.3010 N   0  0  0  0  0  0  0  0  0  0  0  0
   37.6090   30.6550   41.1830 C   0  0  0  0  0  0  0  0  0  0  0  0
   36.3700   30.0400   40.9420 C   0  0  0  0  0  0  0  0  0  0  0  0
   36.5270   28.3730   41.6840 S   0  0  0  0  0  0  0  0  0  0  0  0
   38.3080   28.7770   42.2250 C   0  0  0  0  0  0  0  0  0  0  0  0
   38.3710   29.8220   41.8250 N   0  0  0  0  0  0  0  0  0  0  0  0
   35.4890   30.4440   40.4280 H   0  0  0  0  0  0  0  0  0  0  0  0
   39.0180   32.6770   41.1410 C   0  0  0  0  0  0  0  0  0  0  0  0
   37.8770   32.0200   40.7320 C   0  0  0  0  0  0  0  0  0  0  0  0
   36.9660   32.6690   39.8750 C   0  0  0  0  0  0  0  0  0  0  0  0
   37.2930   33.9440   39.5010 N   0  0  0  0  0  0  0  0  0  0  0  0
   38.4490   34.5520   39.9420 C   0  0  0  0  0  0  0  0  0  0  0  0
   39.2960   33.9250   40.7500 N   0  0  0  0  0  0  0  0  0  0  0  0
   39.6900   32.1280   41.8050 H   0  0  0  0  0  0  0  0  0  0  0  0
   36.0780   32.1930   39.5400 H   0  0  0  0  0  0  0  0  0  0  0  0
   38.6620   35.5620   39.6190 H   0  0  0  0  0  0  0  0  0  0  0  0
   42.4600   26.6500   44.6080 S   0  0  0  0  0  0  0  0  0  0  0  0
   43.2600   25.5130   43.4210 C   0  0  2  0  0  0  0  0  0  0  0  0
   44.5310   25.8570   42.7680 C   0  0  0  0  0  0  0  0  0  0  0  0
   43.1930   25.6900   42.0020 C   0  0  2  0  0  0  0  0  0  0  0  0
   43.2190   24.4820   43.8300 H   0  0  0  0  0  0  0  0  0  0  0  0
   45.3040   25.1030   42.6260 H   0  0  0  0  0  0  0  0  0  0  0  0
   44.8980   26.8760   42.9780 H   0  0  0  0  0  0  0  0  0  0  0  0
   43.1490   24.7480   41.3750 H   0  0  0  0  0  0  0  0  0  0  0  0
   42.2540   29.2270   39.7560 C   0  0  0  0  0  0  0  0  0  0  0  0
   43.2970   29.2060   40.6430 C   0  0  0  0  0  0  0  0  0  0  0  0
   43.5780   28.0480   41.3560 C   0  0  0  0  0  0  0  0  0  0  0  0
   42.8650   26.8780   41.2360 C   0  0  0  0  0  0  0  0  0  0  0  0
   41.8240   26.9460   40.3290 C   0  0  0  0  0  0  0  0  0  0  0  0
   41.5300   28.0870   39.6130 C   0  0  0  0  0  0  0  0  0  0  0  0
   42.4100   30.6090   37.5760 H   0  0  0  0  0  0  0  0  0  0  0  0
   41.7770   30.5940   38.7920 S   0  0  0  0  0  0  0  0  0  0  0  0
   40.2870   30.5970   38.5310 O   0  0  0  0  0  0  0  0  0  0  0  0
   42.0910   31.9100   39.4430 O   0  0  0  0  0  0  0  0  0  0  0  0
  1  5  1  0  0  0  0
  1  2  2  0  0  0  0
  2  3  1  0  0  0  0
  4  3  1  0  0  0  0
  4 21  1  0  0  0  0
  5  4  2  0  0  0  0
  6 10  1  0  0  0  0
  7  6  2  0  0  0  0
  7  8  1  0  0  0  0
  8  9  1  0  0  0  0
  9  1  1  0  0  0  0
 10  9  2  0  0  0  0
 11  7  1  0  0  0  0
 12 18  1  0  0  0  0
 13 12  2  0  0  0  0
 13  6  1  0  0  0  0
 14 13  1  0  0  0  0
 15 14  2  0  0  0  0
 15 16  1  0  0  0  0
 16 17  2  0  0  0  0
 17 12  1  0  0  0  0
 19 14  1  0  0  0  0
 20 16  1  0  0  0  0
 22 25  1  1  0  0  0
 22 21  1  0  0  0  0
 23 27  1  0  0  0  0
 23 22  1  0  0  0  0
 24 28  1  6  0  0  0
 24 23  1  0  0  0  0
 24 22  1  0  0  0  0
 26 23  1  0  0  0  0
 29 30  1  0  0  0  0
 30 31  2  0  0  0  0
 32 31  1  0  0  0  0
 32 24  1  0  0  0  0
 33 32  2  0  0  0  0
 34 29  2  0  0  0  0
 34 33  1  0  0  0  0
 35 36  1  0  0  0  0
 36 38  2  0  0  0  0
 36 29  1  0  0  0  0
 37 36  2  0  0  0  0
M  END
>  <minimizedAffinity>
-4.94358683

>  <minimizedRMSD>
2.02087784

$$$$
