REMARK  Name = 
REMARK  7 active torsions:
REMARK  status: ('A' for Active; 'I' for Inactive)
REMARK    1  A    between atoms: C_1  and  C_2
REMARK    2  A    between atoms: C_1  and  C_13
REMARK    3  A    between atoms: C_10  and  O_12
REMARK    4  A    between atoms: C_13  and  N_17
REMARK    5  A    between atoms: C_14  and  C_21
REMARK    6  A    between atoms: C_23  and  C_47
REMARK    7  A    between atoms: S_41  and  C_44
REMARK                            x       y       z     vdW  Elec       q    Type
REMARK                         _______ _______ _______ _____ _____    ______ ____
ROOT
ATOM      1  C   UNL     1      38.652  28.163  42.719  0.00  0.00    +0.000 A 
ATOM      2  C   UNL     1      37.561  27.346  42.873  0.00  0.00    +0.000 A 
ATOM      3  C   UNL     1      36.488  28.008  42.267  0.00  0.00    +0.000 A 
ATOM      4  N   UNL     1      37.011  29.147  41.808  0.00  0.00    +0.000 N 
ATOM      5  N   UNL     1      38.273  29.274  42.052  0.00  0.00    +0.000 NA
ATOM      6  H   UNL     1      37.527  26.368  43.369  0.00  0.00    +0.000 HD
ATOM      7  H   UNL     1      35.495  27.575  42.247  0.00  0.00    +0.000 HD
ENDROOT
BRANCH   1  10
ATOM      8  C   UNL     1      41.578  26.554  44.368  0.00  0.00    +0.000 A 
ATOM      9  C   UNL     1      40.258  26.748  43.950  0.00  0.00    +0.000 A 
ATOM     10  C   UNL     1      39.997  27.901  43.184  0.00  0.00    +0.000 A 
ATOM     11  N   UNL     1      41.003  28.760  42.885  0.00  0.00    +0.000 NA
ATOM     12  C   UNL     1      42.279  28.504  43.331  0.00  0.00    +0.000 A 
ATOM     13  N   UNL     1      42.553  27.419  44.058  0.00  0.00    +0.000 NA
ATOM     14  H   UNL     1      41.741  25.647  44.961  0.00  0.00    +0.000 HD
ATOM     15  H   UNL     1      39.481  26.045  44.206  0.00  0.00    +0.000 HD
BRANCH  12  19
ATOM     16  C   UNL     1      45.341  31.230  42.330  0.00  0.00    +0.000 A 
ATOM     17  C   UNL     1      44.049  31.688  42.478  0.00  0.00    +0.000 A 
ATOM     18  C   UNL     1      43.047  30.795  42.806  0.00  0.00    +0.000 A 
ATOM     19  C   UNL     1      43.329  29.456  42.985  0.00  0.00    +0.000 A 
ATOM     20  C   UNL     1      44.625  29.007  42.835  0.00  0.00    +0.000 A 
ATOM     21  C   UNL     1      45.662  29.881  42.505  0.00  0.00    +0.000 A 
BRANCH  16  23
ATOM     22  H   UNL     1      46.012  33.261  40.903  0.00  0.00    +0.000 HD
ATOM     23  S   UNL     1      46.501  32.476  41.914  0.00  0.00    +0.000 S 
ATOM     24  O   UNL     1      46.733  33.409  43.081  0.00  0.00    +0.000 OA
ATOM     25  O   UNL     1      47.825  31.927  41.502  0.00  0.00    +0.000 OA
ENDBRANCH  16  23
ENDBRANCH  12  19
ENDBRANCH   1  10
BRANCH   4  26
ATOM     26  C   UNL     1      36.171  30.073  41.129  0.00  0.00    +0.000 C 
ATOM     27  H   UNL     1      36.767  30.887  40.666  0.00  0.00    +0.000 HD
ATOM     28  H   UNL     1      35.560  30.576  41.936  0.00  0.00    +0.000 HD
BRANCH  26  29
ATOM     29  C   UNL     1      35.284  29.496  40.073  0.00  0.00    +0.000 C 
ATOM     30  H   UNL     1      34.829  28.585  40.440  0.00  0.00    +0.000 HD
ATOM     31  H   UNL     1      34.553  30.369  39.965  0.00  0.00    +0.000 HD
BRANCH  29  32
ATOM     32  C   UNL     1      35.886  29.432  38.727  0.00  0.00    +0.000 A 
ATOM     33  C   UNL     1      37.203  29.598  38.392  0.00  0.00    +0.000 A 
ATOM     34  C   UNL     1      37.718  29.599  37.128  0.00  0.00    +0.000 A 
ATOM     35  C   UNL     1      36.869  29.421  36.056  0.00  0.00    +0.000 A 
ATOM     36  C   UNL     1      35.527  29.246  36.325  0.00  0.00    +0.000 A 
ATOM     37  C   UNL     1      34.727  29.078  35.218  0.00  0.00    +0.000 A 
ATOM     38  C   UNL     1      33.390  28.899  35.383  0.00  0.00    +0.000 A 
ATOM     39  C   UNL     1      32.843  28.885  36.642  0.00  0.00    +0.000 A 
ATOM     40  C   UNL     1      33.692  29.058  37.703  0.00  0.00    +0.000 A 
ATOM     41  C   UNL     1      35.032  29.247  37.630  0.00  0.00    +0.000 A 
ATOM     42  H   UNL     1      37.879  29.740  39.240  0.00  0.00    +0.000 HD
ATOM     43  H   UNL     1      38.779  29.741  37.015  0.00  0.00    +0.000 HD
ATOM     44  H   UNL     1      37.284  29.425  35.066  0.00  0.00    +0.000 HD
ATOM     45  H   UNL     1      35.126  29.081  34.209  0.00  0.00    +0.000 HD
ATOM     46  H   UNL     1      32.755  28.767  34.497  0.00  0.00    +0.000 HD
ATOM     47  H   UNL     1      31.779  28.741  36.768  0.00  0.00    +0.000 HD
BRANCH  40  48
ATOM     48  O   UNL     1      33.091  29.017  38.958  0.00  0.00    +0.000 OA
ATOM     49  H   UNL     1      32.357  29.663  39.222  0.00  0.00    +0.000 HD
ENDBRANCH  40  48
ENDBRANCH  29  32
ENDBRANCH  26  29
ENDBRANCH   4  26
TORSDOF 7
