
 OpenBabel03242505163D

 39 42  0  0  1  0  0  0  0  0999 V2000
   37.4310   31.1740   40.7040 C   0  0  1  0  0  0  0  0  0  0  0  0
   38.2210   32.4170   40.7740 C   0  0  0  0  0  0  0  0  0  0  0  0
   37.6890   33.1870   39.5700 C   0  0  0  0  0  0  0  0  0  0  0  0
   37.1820   32.1290   38.6020 C   0  0  0  0  0  0  0  0  0  0  0  0
   37.5460   30.8030   39.2320 C   0  0  2  0  0  0  0  0  0  0  0  0
   36.3450   31.3010   40.8850 H   0  0  0  0  0  0  0  0  0  0  0  0
   38.1140   32.9940   41.7120 H   0  0  0  0  0  0  0  0  0  0  0  0
   39.2800   32.1650   40.5570 H   0  0  0  0  0  0  0  0  0  0  0  0
   38.4990   33.7340   39.0410 H   0  0  0  0  0  0  0  0  0  0  0  0
   36.8830   33.8600   39.9160 H   0  0  0  0  0  0  0  0  0  0  0  0
   36.0840   32.2540   38.5330 H   0  0  0  0  0  0  0  0  0  0  0  0
   37.6120   32.2490   37.5880 H   0  0  0  0  0  0  0  0  0  0  0  0
   38.5890   30.6170   39.0360 H   0  0  0  0  0  0  0  0  0  0  0  0
   39.7860   28.9470   42.4780 C   0  0  0  0  0  0  0  0  0  0  0  0
   38.8970   28.2110   43.3450 C   0  0  0  0  0  0  0  0  0  0  0  0
   37.5080   28.4950   43.2860 C   0  0  0  0  0  0  0  0  0  0  0  0
   37.0520   29.4470   42.4240 N   0  0  0  0  0  0  0  0  0  0  0  0
   37.9350   30.1120   41.6280 C   0  0  0  0  0  0  0  0  0  0  0  0
   39.2750   29.8760   41.6450 N   0  0  0  0  0  0  0  0  0  0  0  0
   40.8380   28.7150   42.5380 H   0  0  0  0  0  0  0  0  0  0  0  0
   39.2540   27.4700   44.0160 H   0  0  0  0  0  0  0  0  0  0  0  0
   36.8540   27.9360   43.9410 H   0  0  0  0  0  0  0  0  0  0  0  0
   36.6650   29.7170   38.8400 C   0  0  0  0  0  0  0  0  0  0  0  0
   35.3850   29.5240   38.3610 C   0  0  0  0  0  0  0  0  0  0  0  0
   34.9230   28.2800   38.1190 C   0  0  0  0  0  0  0  0  0  0  0  0
   35.7620   27.1980   38.3620 C   0  0  0  0  0  0  0  0  0  0  0  0
   37.3250   28.0030   38.9810 S   0  0  0  0  0  0  0  0  0  0  0  0
   34.8820   30.4470   38.2320 H   0  0  0  0  0  0  0  0  0  0  0  0
   33.9470   28.0900   37.7520 H   0  0  0  0  0  0  0  0  0  0  0  0
   35.2150   23.0520   37.9630 C   0  0  0  0  0  0  0  0  0  0  0  0
   34.5240   23.9580   37.1530 C   0  0  0  0  0  0  0  0  0  0  0  0
   34.6860   25.3120   37.2650 C   0  0  0  0  0  0  0  0  0  0  0  0
   35.5580   25.8160   38.2050 C   0  0  0  0  0  0  0  0  0  0  0  0
   36.2740   24.9550   39.0390 C   0  0  0  0  0  0  0  0  0  0  0  0
   36.0790   23.5870   38.8910 C   0  0  0  0  0  0  0  0  0  0  0  0
   36.1980   20.7300   37.5610 H   0  0  0  0  0  0  0  0  0  0  0  0
   34.9800   21.3190   37.7890 S   0  0  0  0  0  0  0  0  0  0  0  0
   34.0710   21.0990   36.6090 O   0  0  0  0  0  0  0  0  0  0  0  0
   34.3440   20.8040   39.0530 O   0  0  0  0  0  0  0  0  0  0  0  0
  1  2  1  0  0  0  0
  1  6  1  1  0  0  0
  1 18  1  0  0  0  0
  2  7  1  0  0  0  0
  3 10  1  0  0  0  0
  3  2  1  0  0  0  0
  4  5  1  0  0  0  0
  4  3  1  0  0  0  0
  5 13  1  6  0  0  0
  5  1  1  0  0  0  0
  8  2  1  0  0  0  0
  9  3  1  0  0  0  0
 11  4  1  0  0  0  0
 12  4  1  0  0  0  0
 14 20  1  0  0  0  0
 14 15  1  0  0  0  0
 15 21  1  0  0  0  0
 16 15  2  0  0  0  0
 16 22  1  0  0  0  0
 17 16  1  0  0  0  0
 18 19  1  0  0  0  0
 18 17  2  0  0  0  0
 19 14  2  0  0  0  0
 23 27  1  0  0  0  0
 23  5  1  0  0  0  0
 24 23  2  0  0  0  0
 25 24  1  0  0  0  0
 25 26  2  0  0  0  0
 26 27  1  0  0  0  0
 28 24  1  0  0  0  0
 29 25  1  0  0  0  0
 30 35  1  0  0  0  0
 31 32  1  0  0  0  0
 31 30  2  0  0  0  0
 32 33  2  0  0  0  0
 33 26  1  0  0  0  0
 33 34  1  0  0  0  0
 35 34  2  0  0  0  0
 36 37  1  0  0  0  0
 37 30  1  0  0  0  0
 37 39  2  0  0  0  0
 38 37  2  0  0  0  0
M  END
>  <minimizedAffinity>
-5.03900671

>  <minimizedRMSD>
1.71198785

$$$$
