
 OpenBabel03242508513D

 27 29  0  0  0  0  0  0  0  0999 V2000
   38.6000   30.5960   41.6670 C   0  0  0  0  0  0  0  0  0  0  0  0
   38.6550   29.8170   42.8250 C   0  0  0  0  0  0  0  0  0  0  0  0
   37.6270   28.9750   42.7830 N   0  0  0  0  0  0  0  0  0  0  0  0
   36.8910   29.1430   41.6700 C   0  0  0  0  0  0  0  0  0  0  0  0
   35.7540   28.4840   41.2400 C   0  0  0  0  0  0  0  0  0  0  0  0
   35.2060   28.8820   40.0300 C   0  0  0  0  0  0  0  0  0  0  0  0
   35.7830   29.8970   39.2950 C   0  0  0  0  0  0  0  0  0  0  0  0
   36.9230   30.5550   39.7270 C   0  0  0  0  0  0  0  0  0  0  0  0
   37.4960   30.1780   40.9370 C   0  0  0  0  0  0  0  0  0  0  0  0
   39.4300   29.9480   43.5660 H   0  0  0  0  0  0  0  0  0  0  0  0
   35.3150   27.6890   41.8350 H   0  0  0  0  0  0  0  0  0  0  0  0
   34.3250   28.4110   39.6420 H   0  0  0  0  0  0  0  0  0  0  0  0
   35.3500   30.1970   38.3560 H   0  0  0  0  0  0  0  0  0  0  0  0
   37.3920   31.3600   39.1570 H   0  0  0  0  0  0  0  0  0  0  0  0
   39.8230   33.8680   40.6190 C   0  0  0  0  0  0  0  0  0  0  0  0
   41.2390   33.6780   40.5560 C   0  0  0  0  0  0  0  0  0  0  0  0
   41.7370   32.4180   40.8790 C   0  0  0  0  0  0  0  0  0  0  0  0
   40.8560   31.4580   41.2300 N   0  0  0  0  0  0  0  0  0  0  0  0
   39.5250   31.6550   41.2830 C   0  0  0  0  0  0  0  0  0  0  0  0
   39.0080   32.8580   40.9780 N   0  0  0  0  0  0  0  0  0  0  0  0
   39.3960   34.8370   40.3740 H   0  0  0  0  0  0  0  0  0  0  0  0
   41.8910   34.4920   40.2660 H   0  0  0  0  0  0  0  0  0  0  0  0
   42.7970   32.2130   40.8490 H   0  0  0  0  0  0  0  0  0  0  0  0
   37.3380   27.9930   43.8170 C   0  0  0  0  0  0  0  0  0  0  0  0
   38.5280   27.3490   44.1010 F   0  0  0  0  0  0  0  0  0  0  0  0
   36.3950   27.0620   43.3570 F   0  0  0  0  0  0  0  0  0  0  0  0
   36.8110   28.6050   44.9410 F   0  0  0  0  0  0  0  0  0  0  0  0
  1  2  2  0  0  0  0
  2 10  1  0  0  0  0
  3  2  1  0  0  0  0
  3 24  1  0  0  0  0
  4  3  1  0  0  0  0
  5  4  1  0  0  0  0
  5 11  1  0  0  0  0
  6  5  2  0  0  0  0
  7  8  2  0  0  0  0
  7  6  1  0  0  0  0
  8  9  1  0  0  0  0
  9  1  1  0  0  0  0
  9  4  2  0  0  0  0
 12  6  1  0  0  0  0
 13  7  1  0  0  0  0
 14  8  1  0  0  0  0
 15 20  1  0  0  0  0
 16 15  2  0  0  0  0
 16 17  1  0  0  0  0
 17 18  2  0  0  0  0
 18 19  1  0  0  0  0
 19  1  1  0  0  0  0
 20 19  2  0  0  0  0
 21 15  1  0  0  0  0
 22 16  1  0  0  0  0
 23 17  1  0  0  0  0
 24 25  1  0  0  0  0
 24 27  1  0  0  0  0
 26 24  1  0  0  0  0
M  END
>  <minimizedAffinity>
-5.8570323

>  <minimizedRMSD>
4.62970495

$$$$
