
 OpenBabel03242509293D

 19 20  0  0  0  0  0  0  0  0999 V2000
   37.8800   28.5170   43.6260 C   0  0  0  0  0  0  0  0  0  0  0  0
   38.4210   27.2010   43.6930 C   0  0  0  0  0  0  0  0  0  0  0  0
   38.2650   26.3970   42.5590 C   0  0  0  0  0  0  0  0  0  0  0  0
   37.6080   26.9180   41.4600 N   0  0  0  0  0  0  0  0  0  0  0  0
   37.1220   28.1640   41.4590 C   0  0  0  0  0  0  0  0  0  0  0  0
   37.2600   28.9430   42.5290 N   0  0  0  0  0  0  0  0  0  0  0  0
   38.0160   29.1110   44.5160 H   0  0  0  0  0  0  0  0  0  0  0  0
   38.9240   26.8590   44.5870 H   0  0  0  0  0  0  0  0  0  0  0  0
   36.4500   28.6650   40.3090 N   0  0  0  0  0  0  0  0  0  0  0  0
   35.2120   29.3980   40.3670 C   0  0  0  0  0  2  0  0  0  0  0  0
   34.2930   29.0720   39.2130 C   0  0  0  0  0  2  0  0  0  0  0  0
   34.9710   29.1080   37.9380 N   0  0  0  0  0  0  0  0  0  0  0  0
   34.9550   28.1200   37.5600 H   0  0  0  0  0  0  0  0  0  0  0  0
   36.3660   29.4710   38.0630 C   0  0  0  0  0  2  0  0  0  0  0  0
   36.9940   28.4580   38.9810 C   0  0  0  0  0  2  0  0  0  0  0  0
   38.8140   25.0070   42.5740 C   0  0  0  0  0  0  0  0  0  0  0  0
   39.5630   24.8780   41.4260 F   0  0  0  0  0  0  0  0  0  0  0  0
   39.6410   24.7940   43.6530 F   0  0  0  0  0  0  0  0  0  0  0  0
   37.8030   24.0550   42.5710 F   0  0  0  0  0  0  0  0  0  0  0  0
  1  2  1  0  0  0  0
  1  7  1  0  0  0  0
  2  8  1  0  0  0  0
  3 16  1  0  0  0  0
  3  2  2  0  0  0  0
  4  3  1  0  0  0  0
  5  4  2  0  0  0  0
  5  6  1  0  0  0  0
  6  1  2  0  0  0  0
  9 10  1  0  0  0  0
  9  5  1  0  0  0  0
 11 10  1  0  0  0  0
 12 14  1  0  0  0  0
 12 11  1  0  0  0  0
 13 12  1  0  0  0  0
 14 15  1  0  0  0  0
 15  9  1  0  0  0  0
 16 18  1  0  0  0  0
 17 16  1  0  0  0  0
 19 16  1  0  0  0  0
M  END
>  <minimizedAffinity>
-4.43559599

>  <minimizedRMSD>
1.3293606

$$$$
