
     RDKit          3D

 27 28  0  0  0  0  0  0  0  0999 V2000
   37.9656   28.8844   43.3700 C   0  0  0  0  0  0  0  0  0  0  0  0
   38.0820   27.4659   43.3150 C   0  0  0  0  0  0  0  0  0  0  0  0
   37.4360   26.8206   42.2562 C   0  0  0  0  0  0  0  0  0  0  0  0
   36.7346   27.5852   41.3413 N   0  0  0  0  0  0  0  0  0  0  0  0
   36.6629   28.9155   41.4481 C   0  0  0  0  0  0  0  0  0  0  0  0
   37.2709   29.5466   42.4486 N   0  0  0  0  0  0  0  0  0  0  0  0
   37.5245   25.3328   42.1489 C   0  0  0  0  0  0  0  0  0  0  0  0
   37.6484   25.0524   40.8058 F   0  0  0  0  0  0  0  0  0  0  0  0
   38.6351   24.8381   42.7943 F   0  0  0  0  0  0  0  0  0  0  0  0
   36.3860   24.7133   42.6449 F   0  0  0  0  0  0  0  0  0  0  0  0
   38.4754   29.3505   44.1988 H   0  0  0  0  0  0  0  0  0  0  0  0
   38.6475   26.9319   44.0659 H   0  0  0  0  0  0  0  0  0  0  0  0
   35.9315   29.6689   40.4870 N   0  0  0  0  0  0  0  0  0  0  0  0
   35.0223   30.7298   40.8319 C   0  0  0  0  0  0  0  0  0  0  0  0
   33.8092   30.7684   39.9319 C   0  0  0  0  0  0  0  0  0  0  0  0
   34.1575   30.6855   38.5318 N   0  0  0  0  0  0  0  0  0  0  0  0
   33.7562   29.7741   38.1747 H   0  0  0  0  0  0  0  0  0  0  0  0
   35.5864   30.6105   38.3203 C   0  0  0  0  0  0  0  0  0  0  0  0
   36.0693   29.3978   39.0690 C   0  0  0  0  0  0  0  0  0  0  0  0
   34.6468   30.6393   41.8725 H   0  0  0  0  0  0  0  0  0  0  0  0
   35.5489   31.7225   40.7857 H   0  0  0  0  0  0  0  0  0  0  0  0
   33.2912   31.7316   40.1140 H   0  0  0  0  0  0  0  0  0  0  0  0
   33.0957   29.9805   40.2414 H   0  0  0  0  0  0  0  0  0  0  0  0
   36.1099   31.5138   38.6728 H   0  0  0  0  0  0  0  0  0  0  0  0
   35.7710   30.4490   37.2504 H   0  0  0  0  0  0  0  0  0  0  0  0
   35.3339   28.5851   38.8412 H   0  0  0  0  0  0  0  0  0  0  0  0
   37.0913   29.0955   38.7959 H   0  0  0  0  0  0  0  0  0  0  0  0
  2  1  2  0
  3  2  1  0
  4  5  1  0
  4  3  2  0
  5  6  2  0
  6  1  1  0
  7  3  1  0
  7 10  1  0
  7  9  1  0
  8  7  1  0
  1 11  1  0
  2 12  1  0
 13 14  1  0
 14 15  1  0
 15 16  1  0
 16 17  1  0
 16 18  1  0
 18 19  1  0
 19 13  1  0
 14 20  1  0
 14 21  1  0
 15 22  1  0
 15 23  1  0
 18 24  1  0
 18 25  1  0
 19 26  1  0
 19 27  1  0
  5 13  1  0
M  ISO  3  11  14  12  14  17   5
M  END
>  <DihAtoms>  (1) 
3,4,12,13

>  <DihDeg>  (1) 
2.3640597577603067e-05

$$$$
