
 OpenBabel03242508573D

 23 25  0  0  1  0  0  0  0  0999 V2000
   37.1170   27.7850   42.5510 C   0  0  1  0  0  0  0  0  0  0  0  0
   37.6030   29.0800   43.1140 C   0  0  0  0  0  0  0  0  0  0  0  0
   37.6590   28.9020   41.6390 C   0  0  2  0  0  0  0  0  0  0  0  0
   36.0530   27.5850   42.5030 H   0  0  0  0  0  0  0  0  0  0  0  0
   36.9020   29.8210   43.5260 H   0  0  0  0  0  0  0  0  0  0  0  0
   38.6000   29.1110   43.6140 H   0  0  0  0  0  0  0  0  0  0  0  0
   38.5830   28.6650   41.1130 H   0  0  0  0  0  0  0  0  0  0  0  0
   39.9330   25.6980   43.7250 C   0  0  0  0  0  0  0  0  0  0  0  0
   39.6370   24.4510   43.1190 C   0  0  0  0  0  0  0  0  0  0  0  0
   38.4770   24.3550   42.3110 C   0  0  0  0  0  0  0  0  0  0  0  0
   37.7070   25.4570   42.1550 N   0  0  0  0  0  0  0  0  0  0  0  0
   38.0250   26.6340   42.7520 C   0  0  0  0  0  0  0  0  0  0  0  0
   39.1260   26.7490   43.5290 N   0  0  0  0  0  0  0  0  0  0  0  0
   40.8180   25.7670   44.3420 H   0  0  0  0  0  0  0  0  0  0  0  0
   40.2970   23.6140   43.2880 H   0  0  0  0  0  0  0  0  0  0  0  0
   38.2540   23.4090   41.8500 H   0  0  0  0  0  0  0  0  0  0  0  0
   36.6390   29.4660   40.7790 N   0  0  0  0  0  0  0  0  0  0  0  0
   36.3300   30.8110   41.1410 C   0  0  0  0  0  0  0  0  0  0  0  0
   37.0780   31.8140   40.3070 C   0  0  0  0  0  0  0  0  0  0  0  0
   36.8660   31.6550   38.9030 N   0  0  0  0  0  0  0  0  0  0  0  0
   36.0990   32.2950   38.5840 H   0  0  0  0  0  0  0  0  0  0  0  0
   36.5330   30.3260   38.4800 C   0  0  0  0  0  0  0  0  0  0  0  0
   37.0090   29.2450   39.4200 C   0  0  0  0  0  0  0  0  0  0  0  0
  1  4  1  6  0  0  0
  1 12  1  0  0  0  0
  1  2  1  0  0  0  0
  2  5  1  0  0  0  0
  2  6  1  0  0  0  0
  3  7  1  6  0  0  0
  3  1  1  0  0  0  0
  3  2  1  0  0  0  0
  8 14  1  0  0  0  0
  9 15  1  0  0  0  0
  9  8  2  0  0  0  0
 10  9  1  0  0  0  0
 11 10  2  0  0  0  0
 11 12  1  0  0  0  0
 12 13  2  0  0  0  0
 13  8  1  0  0  0  0
 16 10  1  0  0  0  0
 17 18  1  0  0  0  0
 17  3  1  0  0  0  0
 19 18  1  0  0  0  0
 20 19  1  0  0  0  0
 21 20  1  0  0  0  0
 22 20  1  0  0  0  0
 22 23  1  0  0  0  0
 23 17  1  0  0  0  0
M  END
>  <minimizedAffinity>
-4.54246378

>  <minimizedRMSD>
3.55333996

$$$$
