
 OpenBabel03242509293D

 19 20  0  0  0  0  0  0  0  0999 V2000
   37.5790   28.7330   43.6260 C   0  0  0  0  0  0  0  0  0  0  0  0
   38.0590   27.4010   43.7710 C   0  0  0  0  0  0  0  0  0  0  0  0
   38.5110   26.7630   42.6120 C   0  0  0  0  0  0  0  0  0  0  0  0
   38.4660   27.4520   41.4140 N   0  0  0  0  0  0  0  0  0  0  0  0
   38.0020   28.7040   41.3430 C   0  0  0  0  0  0  0  0  0  0  0  0
   37.5670   29.3270   42.4350 N   0  0  0  0  0  0  0  0  0  0  0  0
   37.2370   29.1970   44.5380 H   0  0  0  0  0  0  0  0  0  0  0  0
   38.0660   26.9230   44.7410 H   0  0  0  0  0  0  0  0  0  0  0  0
   37.9700   29.3820   40.0910 N   0  0  0  0  0  0  0  0  0  0  0  0
   37.2180   30.5860   39.8570 C   0  0  0  0  0  2  0  0  0  0  0  0
   36.6130   30.6310   38.4730 C   0  0  0  0  0  2  0  0  0  0  0  0
   37.5650   30.2890   37.4430 N   0  0  0  0  0  0  0  0  0  0  0  0
   37.2250   29.3880   37.0040 H   0  0  0  0  0  0  0  0  0  0  0  0
   38.8810   30.0090   37.9760 C   0  0  0  0  0  2  0  0  0  0  0  0
   38.7170   28.8780   38.9550 C   0  0  0  0  0  2  0  0  0  0  0  0
   39.0260   25.3640   42.7070 C   0  0  0  0  0  0  0  0  0  0  0  0
   39.8740   25.1940   41.6340 F   0  0  0  0  0  0  0  0  0  0  0  0
   39.7490   25.1600   43.8600 F   0  0  0  0  0  0  0  0  0  0  0  0
   38.0000   24.4320   42.6330 F   0  0  0  0  0  0  0  0  0  0  0  0
  1  2  1  0  0  0  0
  1  7  1  0  0  0  0
  2  8  1  0  0  0  0
  3 16  1  0  0  0  0
  3  2  2  0  0  0  0
  4  3  1  0  0  0  0
  5  4  2  0  0  0  0
  5  6  1  0  0  0  0
  6  1  2  0  0  0  0
  9  5  1  0  0  0  0
 10  9  1  0  0  0  0
 11 10  1  0  0  0  0
 12 14  1  0  0  0  0
 12 11  1  0  0  0  0
 13 12  1  0  0  0  0
 14 15  1  0  0  0  0
 15  9  1  0  0  0  0
 16 18  1  0  0  0  0
 17 16  1  0  0  0  0
 19 16  1  0  0  0  0
M  END
>  <minimizedAffinity>
-4.26081181

>  <minimizedRMSD>
2.17269874

$$$$
