
     RDKit          3D

 54 58  0  0  0  0  0  0  0  0999 V2000
   35.2820   29.4986   40.0773 C   0  0  0  0  0  0  0  0  0  0  0  0
   35.8895   29.4360   38.7269 C   0  0  0  0  0  0  0  0  0  0  0  0
   37.2032   29.5938   38.3993 C   0  0  0  0  0  0  0  0  0  0  0  0
   37.7202   29.5887   37.1359 C   0  0  0  0  0  0  0  0  0  0  0  0
   36.8652   29.4103   36.0595 C   0  0  0  0  0  0  0  0  0  0  0  0
   35.5129   29.2424   36.3295 C   0  0  0  0  0  0  0  0  0  0  0  0
   34.7346   29.0710   35.2240 C   0  0  0  0  0  0  0  0  0  0  0  0
   33.3830   28.8912   35.3822 C   0  0  0  0  0  0  0  0  0  0  0  0
   32.8461   28.8856   36.6474 C   0  0  0  0  0  0  0  0  0  0  0  0
   33.6899   29.0626   37.7004 C   0  0  0  0  0  0  0  0  0  0  0  0
   35.0384   29.2526   37.6239 C   0  0  0  0  0  0  0  0  0  0  0  0
   33.0902   29.0300   38.9569 O   0  0  0  0  0  0  0  0  0  0  0  0
   36.1708   30.0772   41.1317 C   0  0  0  0  0  0  0  0  0  0  0  0
   38.6555   28.1542   42.7091 C   0  0  0  0  0  0  0  0  0  0  0  0
   37.5599   27.3415   42.8667 C   0  0  0  0  0  0  0  0  0  0  0  0
   36.4899   28.0085   42.2681 C   0  0  0  0  0  0  0  0  0  0  0  0
   37.0215   29.1604   41.8013 N   0  0  0  0  0  0  0  0  0  0  0  0
   38.2826   29.2704   42.0450 N   0  0  0  0  0  0  0  0  0  0  0  0
   41.5801   26.5317   44.3589 C   0  0  0  0  0  0  0  0  0  0  0  0
   40.2766   26.7314   43.9220 C   0  0  0  0  0  0  0  0  0  0  0  0
   40.0004   27.9022   43.1677 C   0  0  0  0  0  0  0  0  0  0  0  0
   40.9982   28.7939   42.8896 N   0  0  0  0  0  0  0  0  0  0  0  0
   42.2668   28.5142   43.3660 C   0  0  0  0  0  0  0  0  0  0  0  0
   42.5295   27.4245   44.0689 N   0  0  0  0  0  0  0  0  0  0  0  0
   34.8269   28.5881   40.4370 H   0  0  0  0  0  0  0  0  0  0  0  0
   34.5577   30.3751   39.9640 H   0  0  0  0  0  0  0  0  0  0  0  0
   37.8856   29.7354   39.2336 H   0  0  0  0  0  0  0  0  0  0  0  0
   38.7776   29.7198   36.9535 H   0  0  0  0  0  0  0  0  0  0  0  0
   37.2896   29.4103   35.0642 H   0  0  0  0  0  0  0  0  0  0  0  0
   35.1221   29.0674   34.2071 H   0  0  0  0  0  0  0  0  0  0  0  0
   32.7509   28.7555   34.5117 H   0  0  0  0  0  0  0  0  0  0  0  0
   31.7939   28.7428   36.7452 H   0  0  0  0  0  0  0  0  0  0  0  0
   32.4379   28.3400   39.2537 H   0  0  0  0  0  0  0  0  0  0  0  0
   36.7652   30.8829   40.6421 H   0  0  0  0  0  0  0  0  0  0  0  0
   35.5916   30.6100   41.9255 H   0  0  0  0  0  0  0  0  0  0  0  0
   37.5670   26.3795   43.3640 H   0  0  0  0  0  0  0  0  0  0  0  0
   35.5164   27.5790   42.2573 H   0  0  0  0  0  0  0  0  0  0  0  0
   41.7582   25.6450   44.9221 H   0  0  0  0  0  0  0  0  0  0  0  0
   39.4604   26.0588   44.1161 H   0  0  0  0  0  0  0  0  0  0  0  0
   43.2872   29.4609   43.0631 N   0  0  0  0  0  0  0  0  0  0  0  0
   43.5323   30.5567   43.9792 C   0  0  0  0  0  0  0  0  0  0  0  0
   43.6706   31.8587   43.1801 C   0  0  0  0  0  0  0  0  0  0  0  0
   44.8594   31.6938   42.3990 N   0  0  0  0  0  0  0  0  0  0  0  0
   45.7403   31.6514   42.9307 H   0  0  0  0  0  0  0  0  0  0  0  0
   44.6604   30.6774   41.4236 C   0  0  0  0  0  0  0  0  0  0  0  0
   44.0981   29.3936   41.8890 C   0  0  0  0  0  0  0  0  0  0  0  0
   42.6893   30.6345   44.6958 H   0  0  0  0  0  0  0  0  0  0  0  0
   44.4714   30.3062   44.5103 H   0  0  0  0  0  0  0  0  0  0  0  0
   43.7153   32.7008   43.8980 H   0  0  0  0  0  0  0  0  0  0  0  0
   42.8148   31.9239   42.4872 H   0  0  0  0  0  0  0  0  0  0  0  0
   43.9726   31.1086   40.6470 H   0  0  0  0  0  0  0  0  0  0  0  0
   45.6377   30.5211   40.8925 H   0  0  0  0  0  0  0  0  0  0  0  0
   44.9289   28.6813   42.0790 H   0  0  0  0  0  0  0  0  0  0  0  0
   43.4602   28.9027   41.1006 H   0  0  0  0  0  0  0  0  0  0  0  0
  1 13  1  0
  2  1  1  0
  3  2  2  0
  4  3  1  0
  5  6  1  0
  5  4  2  0
  6 11  2  0
  7  8  2  0
  7  6  1  0
  8  9  1  0
  9 10  2  0
 10 12  1  0
 11 10  1  0
 11  2  1  0
 13 17  1  0
 14 15  1  0
 14 21  1  0
 16 15  2  0
 17 18  1  0
 17 16  1  0
 18 14  2  0
 20 19  2  0
 21 20  1  0
 22 21  2  0
 22 23  1  0
 23 24  2  0
 24 19  1  0
  1 25  1  0
  1 26  1  0
  3 27  1  0
  4 28  1  0
  5 29  1  0
  7 30  1  0
  8 31  1  0
  9 32  1  0
 12 33  1  0
 13 34  1  0
 13 35  1  0
 15 36  1  0
 16 37  1  0
 19 38  1  0
 20 39  1  0
 40 41  1  0
 41 42  1  0
 42 43  1  0
 43 44  1  0
 43 45  1  0
 45 46  1  0
 46 40  1  0
 41 47  1  0
 41 48  1  0
 42 49  1  0
 42 50  1  0
 45 51  1  0
 45 52  1  0
 46 53  1  0
 46 54  1  0
 23 40  1  0
M  ISO  8  25   8  26   8  27  14  28  14  29  14  30  14  31  14  32  14
M  ISO  8  33   3  34   8  35   8  36  14  37  14  38  14  39  14  44   5
M  END
>  <DihAtoms>  (1) 
21,22,39,40

>  <DihDeg>  (1) 
-179.99465329416273

$$$$
