
 OpenBabel03242509153D

 33 36  0  0  1  0  0  0  0  0999 V2000
   36.9930   27.2250   41.5180 C   0  0  0  0  0  0  0  0  0  0  0  0
   37.1390   26.2330   42.4570 C   0  0  0  0  0  0  0  0  0  0  0  0
   36.9960   24.9090   42.1530 C   0  0  0  0  0  0  0  0  0  0  0  0
   36.6950   24.5690   40.8490 C   0  0  0  0  0  0  0  0  0  0  0  0
   36.5490   25.5350   39.8990 C   0  0  0  0  0  0  0  0  0  0  0  0
   36.7070   26.8920   40.2660 C   0  0  0  0  0  0  0  0  0  0  0  0
   37.3800   26.5560   43.4830 H   0  0  0  0  0  0  0  0  0  0  0  0
   37.1340   24.2230   42.9770 H   0  0  0  0  0  0  0  0  0  0  0  0
   36.6100   23.4900   40.7510 H   0  0  0  0  0  0  0  0  0  0  0  0
   36.3200   25.0560   38.9500 H   0  0  0  0  0  0  0  0  0  0  0  0
   38.3450   29.3680   41.8560 C   0  0  1  0  0  0  0  0  0  0  0  0
   37.6250   29.0660   43.1140 C   0  0  0  0  0  0  0  0  0  0  0  0
   36.9530   28.6390   41.8910 C   0  0  2  0  0  0  0  0  0  0  0  0
   39.2460   28.8350   41.6900 H   0  0  0  0  0  0  0  0  0  0  0  0
   38.0890   28.3520   43.8180 H   0  0  0  0  0  0  0  0  0  0  0  0
   37.2980   30.0030   43.6560 H   0  0  0  0  0  0  0  0  0  0  0  0
   36.2720   29.2930   41.2790 H   0  0  0  0  0  0  0  0  0  0  0  0
   38.2610   30.7690   41.2920 C   0  0  0  0  0  0  0  0  0  0  0  0
   37.0770   31.1290   40.5850 C   0  0  0  0  0  0  0  0  0  0  0  0
   36.9980   32.4080   40.0940 C   0  0  0  0  0  0  0  0  0  0  0  0
   38.0490   33.2740   40.3030 N   0  0  0  0  0  0  0  0  0  0  0  0
   39.1590   32.8890   40.9830 C   0  0  0  0  0  0  0  0  0  0  0  0
   39.2450   31.6230   41.4730 N   0  0  0  0  0  0  0  0  0  0  0  0
   36.2140   30.5680   40.3850 H   0  0  0  0  0  0  0  0  0  0  0  0
   36.1560   32.7990   39.5420 H   0  0  0  0  0  0  0  0  0  0  0  0
   39.9480   33.6180   41.1140 H   0  0  0  0  0  0  0  0  0  0  0  0
   36.5540   27.5820   39.0350 N   0  0  0  0  0  0  0  0  0  0  0  0
   35.3140   28.3340   38.7510 C   0  0  0  0  0  0  0  0  0  0  0  0
   35.3630   28.9680   37.4040 C   0  0  0  0  0  0  0  0  0  0  0  0
   36.5340   29.8260   37.3580 N   0  0  0  0  0  0  0  0  0  0  0  0
   36.5580   30.3560   36.4560 H   0  0  0  0  0  0  0  0  0  0  0  0
   37.7520   29.1470   37.6670 C   0  0  0  0  0  0  0  0  0  0  0  0
   37.5270   27.6560   37.9590 C   0  0  0  0  0  0  0  0  0  0  0  0
  1 13  1  0  0  0  0
  1  2  1  0  0  0  0
  2  7  1  0  0  0  0
  3  2  2  0  0  0  0
  3  8  1  0  0  0  0
  4  3  1  0  0  0  0
  5  6  1  0  0  0  0
  5  4  2  0  0  0  0
  6  1  2  0  0  0  0
  9  4  1  0  0  0  0
 10  5  1  0  0  0  0
 11 14  1  6  0  0  0
 11 13  1  0  0  0  0
 11 12  1  0  0  0  0
 12 16  1  0  0  0  0
 12 15  1  0  0  0  0
 13 17  1  6  0  0  0
 13 12  1  0  0  0  0
 18 23  1  0  0  0  0
 18 11  1  0  0  0  0
 19 18  2  0  0  0  0
 20 21  2  0  0  0  0
 20 19  1  0  0  0  0
 21 22  1  0  0  0  0
 22 26  1  0  0  0  0
 22 23  2  0  0  0  0
 24 19  1  0  0  0  0
 25 20  1  0  0  0  0
 27  6  1  0  0  0  0
 28 27  1  0  0  0  0
 29 28  1  0  0  0  0
 30 29  1  0  0  0  0
 30 32  1  0  0  0  0
 31 30  1  0  0  0  0
 32 33  1  0  0  0  0
 33 27  1  0  0  0  0
M  END
>  <minimizedAffinity>
-5.44226217

>  <minimizedRMSD>
0.902879953

$$$$
