
 OpenBabel03242507313D

 23 24  0  0  0  0  0  0  0  0999 V2000
   38.7820   29.5660   42.4190 C   0  0  0  0  0  0  0  0  0  0  0  0
   38.0950   29.3490   41.1790 C   0  0  0  0  0  0  0  0  0  0  0  0
   37.8590   28.0240   40.8960 C   0  0  0  0  0  0  0  0  0  0  0  0
   38.2480   27.0210   41.7280 N   0  0  0  0  0  0  0  0  0  0  0  0
   38.8940   27.3010   42.8860 C   0  0  0  0  0  0  0  0  0  0  0  0
   39.1560   28.5590   43.2230 N   0  0  0  0  0  0  0  0  0  0  0  0
   39.0300   30.5630   42.7600 H   0  0  0  0  0  0  0  0  0  0  0  0
   39.1450   26.4040   43.4530 H   0  0  0  0  0  0  0  0  0  0  0  0
   37.7340   30.4540   40.3850 N   0  0  0  0  0  0  0  0  0  0  0  0
   36.7210   31.3870   40.7300 C   0  0  0  0  0  0  0  0  0  0  0  0
   35.6470   30.8850   41.2980 N   0  0  0  0  0  0  0  0  0  0  0  0
   36.9970   32.7740   40.4130 N   0  0  0  0  0  0  0  0  0  0  0  0
   34.8650   31.4870   41.5940 H   0  0  0  0  0  0  0  0  0  0  0  0
   38.2870   30.5490   39.4790 H   0  0  0  0  0  0  0  0  0  0  0  0
   37.4110   33.4790   41.0620 H   0  0  0  0  0  0  0  0  0  0  0  0
   36.7100   32.9380   39.4260 H   0  0  0  0  0  0  0  0  0  0  0  0
   37.1850   27.7330   39.6890 N   0  0  0  0  0  0  0  0  0  0  0  0
   37.0010   28.4370   38.4360 C   0  0  0  0  0  0  0  0  0  0  0  0
   35.5170   28.2920   38.1430 C   0  0  0  0  0  0  0  0  0  0  0  0
   35.3880   26.9340   37.6100 N   0  0  0  0  0  0  0  0  0  0  0  0
   35.8420   26.9440   36.6530 H   0  0  0  0  0  0  0  0  0  0  0  0
   35.9700   25.9610   38.4680 C   0  0  0  0  0  0  0  0  0  0  0  0
   36.5540   26.4510   39.7480 C   0  0  0  0  0  0  0  0  0  0  0  0
  1  7  1  0  0  0  0
  1  6  1  0  0  0  0
  2  1  2  0  0  0  0
  3  2  1  0  0  0  0
  3  4  2  0  0  0  0
  4  5  1  0  0  0  0
  5  6  2  0  0  0  0
  5  8  1  0  0  0  0
  9 10  1  0  0  0  0
  9  2  1  0  0  0  0
 10 11  2  0  0  0  0
 11 13  1  0  0  0  0
 12 10  1  0  0  0  0
 12 15  1  0  0  0  0
 14  9  1  0  0  0  0
 16 12  1  0  0  0  0
 17 23  1  0  0  0  0
 17  3  1  0  0  0  0
 18 17  1  0  0  0  0
 19 18  1  0  0  0  0
 20 19  1  0  0  0  0
 20 22  1  0  0  0  0
 21 20  1  0  0  0  0
 22 23  1  0  0  0  0
M  END
>  <minimizedAffinity>
-4.67945099

>  <minimizedRMSD>
0.539275885

$$$$
