REMARK  Name = 
REMARK  1 active torsions:
REMARK  status: ('A' for Active; 'I' for Inactive)
REMARK    1  A    between atoms: C_3  and  C_7
REMARK                            x       y       z     vdW  Elec       q    Type
REMARK                         _______ _______ _______ _____ _____    ______ ____
ROOT
ATOM      1  C   UNL     1      37.966  28.884  43.370  0.00  0.00    +0.000 A 
ATOM      2  C   UNL     1      38.082  27.466  43.315  0.00  0.00    +0.000 A 
ATOM      3  C   UNL     1      37.436  26.821  42.256  0.00  0.00    +0.000 A 
ATOM      4  N   UNL     1      36.735  27.585  41.341  0.00  0.00    +0.000 NA
ATOM      5  C   UNL     1      36.663  28.916  41.448  0.00  0.00    +0.000 A 
ATOM      6  N   UNL     1      37.271  29.547  42.449  0.00  0.00    +0.000 NA
ATOM      7  H   UNL     1      38.475  29.351  44.199  0.00  0.00    +0.000 HD
ATOM      8  H   UNL     1      38.648  26.932  44.066  0.00  0.00    +0.000 HD
ATOM      9  N   UNL     1      35.931  29.669  40.487  0.00  0.00    +0.000 N 
ATOM     10  C   UNL     1      34.784  29.160  39.783  0.00  0.00    +0.000 C 
ATOM     11  C   UNL     1      34.723  29.640  38.351  0.00  0.00    +0.000 C 
ATOM     12  N   UNL     1      34.936  31.064  38.237  0.00  0.00    +0.000 NA
ATOM     13  H   UNL     1      35.839  31.193  37.701  0.00  0.00    +0.000 HD
ATOM     14  C   UNL     1      35.131  31.700  39.521  0.00  0.00    +0.000 C 
ATOM     15  C   UNL     1      36.317  31.028  40.158  0.00  0.00    +0.000 C 
ENDROOT
BRANCH   3  16
ATOM     16  C   UNL     1      37.525  25.333  42.149  0.00  0.00    +0.000 C 
ATOM     17  F   UNL     1      37.648  25.052  40.806  0.00  0.00    +0.000 F 
ATOM     18  F   UNL     1      38.635  24.838  42.794  0.00  0.00    +0.000 F 
ATOM     19  F   UNL     1      36.386  24.713  42.645  0.00  0.00    +0.000 F 
ENDBRANCH   3  16
TORSDOF 1
