
 OpenBabel03242509293D

 19 20  0  0  0  0  0  0  0  0999 V2000
   37.5850   28.7300   43.6140 C   0  0  0  0  0  0  0  0  0  0  0  0
   38.1160   27.4180   43.7680 C   0  0  0  0  0  0  0  0  0  0  0  0
   38.4520   26.7330   42.5970 C   0  0  0  0  0  0  0  0  0  0  0  0
   38.2520   27.3580   41.3800 N   0  0  0  0  0  0  0  0  0  0  0  0
   37.7480   28.5950   41.3020 C   0  0  0  0  0  0  0  0  0  0  0  0
   37.4220   29.2620   42.4050 N   0  0  0  0  0  0  0  0  0  0  0  0
   37.3350   29.2320   44.5360 H   0  0  0  0  0  0  0  0  0  0  0  0
   38.2460   26.9910   44.7530 H   0  0  0  0  0  0  0  0  0  0  0  0
   37.5560   29.2060   40.0300 N   0  0  0  0  0  0  0  0  0  0  0  0
   38.5360   29.1750   38.9770 C   0  0  0  0  0  2  0  0  0  0  0  0
   38.5790   30.4630   38.1890 C   0  0  0  0  0  2  0  0  0  0  0  0
   37.2640   30.9150   37.7950 N   0  0  0  0  0  0  0  0  0  0  0  0
   37.0960   31.8290   38.3010 H   0  0  0  0  0  0  0  0  0  0  0  0
   36.2180   30.0150   38.2270 C   0  0  0  0  0  2  0  0  0  0  0  0
   36.3280   29.9130   39.7240 C   0  0  0  0  0  2  0  0  0  0  0  0
   39.0150   25.3520   42.6990 C   0  0  0  0  0  0  0  0  0  0  0  0
   39.8640   25.2030   41.6250 F   0  0  0  0  0  0  0  0  0  0  0  0
   39.7460   25.1810   43.8520 F   0  0  0  0  0  0  0  0  0  0  0  0
   38.0200   24.3860   42.6350 F   0  0  0  0  0  0  0  0  0  0  0  0
  1  2  1  0  0  0  0
  1  7  1  0  0  0  0
  2  8  1  0  0  0  0
  3 16  1  0  0  0  0
  3  2  2  0  0  0  0
  4  3  1  0  0  0  0
  5  4  2  0  0  0  0
  5  6  1  0  0  0  0
  6  1  2  0  0  0  0
  9  5  1  0  0  0  0
 10  9  1  0  0  0  0
 11 10  1  0  0  0  0
 12 11  1  0  0  0  0
 12 14  1  0  0  0  0
 12 13  1  0  0  0  0
 14 15  1  0  0  0  0
 15  9  1  0  0  0  0
 16 18  1  0  0  0  0
 17 16  1  0  0  0  0
 19 16  1  0  0  0  0
M  END
>  <minimizedAffinity>
-4.32570839

>  <minimizedRMSD>
1.83496249

$$$$
