
 OpenBabel03242509293D

 19 20  0  0  0  0  0  0  0  0999 V2000
   39.4130   27.9240   43.2510 C   0  0  0  0  0  0  0  0  0  0  0  0
   38.8940   26.6020   43.1540 C   0  0  0  0  0  0  0  0  0  0  0  0
   37.9860   26.3560   42.1200 C   0  0  0  0  0  0  0  0  0  0  0  0
   37.6510   27.3930   41.2680 N   0  0  0  0  0  0  0  0  0  0  0  0
   38.1740   28.6150   41.4130 C   0  0  0  0  0  0  0  0  0  0  0  0
   39.0390   28.8680   42.3910 N   0  0  0  0  0  0  0  0  0  0  0  0
   40.1100   28.0820   44.0590 H   0  0  0  0  0  0  0  0  0  0  0  0
   39.2010   25.8390   43.8560 H   0  0  0  0  0  0  0  0  0  0  0  0
   37.8040   29.6580   40.5170 N   0  0  0  0  0  0  0  0  0  0  0  0
   37.4270   29.4320   39.1460 C   0  0  0  0  0  2  0  0  0  0  0  0
   37.9210   30.5230   38.2230 C   0  0  0  0  0  2  0  0  0  0  0  0
   37.6410   31.8460   38.7320 N   0  0  0  0  0  0  0  0  0  0  0  0
   38.5760   32.2980   38.9290 H   0  0  0  0  0  0  0  0  0  0  0  0
   36.9300   31.8150   39.9910 C   0  0  0  0  0  2  0  0  0  0  0  0
   37.7900   31.0410   40.9520 C   0  0  0  0  0  2  0  0  0  0  0  0
   37.4100   24.9850   41.9700 C   0  0  0  0  0  0  0  0  0  0  0  0
   37.0440   24.8650   40.6470 F   0  0  0  0  0  0  0  0  0  0  0  0
   38.3360   24.0060   42.2490 F   0  0  0  0  0  0  0  0  0  0  0  0
   36.2910   24.8070   42.7730 F   0  0  0  0  0  0  0  0  0  0  0  0
  1  7  1  0  0  0  0
  2  1  1  0  0  0  0
  2  8  1  0  0  0  0
  3  2  2  0  0  0  0
  4  5  2  0  0  0  0
  4  3  1  0  0  0  0
  5  6  1  0  0  0  0
  6  1  2  0  0  0  0
  9 15  1  0  0  0  0
  9  5  1  0  0  0  0
 10  9  1  0  0  0  0
 11 12  1  0  0  0  0
 11 10  1  0  0  0  0
 12 13  1  0  0  0  0
 12 14  1  0  0  0  0
 14 15  1  0  0  0  0
 16  3  1  0  0  0  0
 16 18  1  0  0  0  0
 16 19  1  0  0  0  0
 17 16  1  0  0  0  0
M  END
>  <minimizedAffinity>
-4.35426855

>  <minimizedRMSD>
1.69010961

$$$$
