
     RDKit          3D

 27 28  0  0  0  0  0  0  0  0999 V2000
   37.9656   28.8844   43.3700 C   0  0  0  0  0  0  0  0  0  0  0  0
   38.0820   27.4659   43.3150 C   0  0  0  0  0  0  0  0  0  0  0  0
   37.4360   26.8206   42.2562 C   0  0  0  0  0  0  0  0  0  0  0  0
   36.7346   27.5852   41.3413 N   0  0  0  0  0  0  0  0  0  0  0  0
   36.6629   28.9155   41.4481 C   0  0  0  0  0  0  0  0  0  0  0  0
   37.2709   29.5466   42.4486 N   0  0  0  0  0  0  0  0  0  0  0  0
   37.5245   25.3328   42.1489 C   0  0  0  0  0  0  0  0  0  0  0  0
   37.6484   25.0524   40.8058 F   0  0  0  0  0  0  0  0  0  0  0  0
   38.6351   24.8381   42.7943 F   0  0  0  0  0  0  0  0  0  0  0  0
   36.3860   24.7133   42.6449 F   0  0  0  0  0  0  0  0  0  0  0  0
   38.4754   29.3505   44.1988 H   0  0  0  0  0  0  0  0  0  0  0  0
   38.6475   26.9319   44.0659 H   0  0  0  0  0  0  0  0  0  0  0  0
   35.9315   29.6689   40.4870 N   0  0  0  0  0  0  0  0  0  0  0  0
   35.7732   29.2674   39.1141 C   0  0  0  0  0  0  0  0  0  0  0  0
   35.7975   30.4399   38.1613 C   0  0  0  0  0  0  0  0  0  0  0  0
   34.9375   31.5188   38.5915 N   0  0  0  0  0  0  0  0  0  0  0  0
   35.5688   32.3400   38.8068 H   0  0  0  0  0  0  0  0  0  0  0  0
   34.2369   31.2124   39.8191 C   0  0  0  0  0  0  0  0  0  0  0  0
   35.2894   30.9167   40.8531 C   0  0  0  0  0  0  0  0  0  0  0  0
   36.5724   28.5707   38.7856 H   0  0  0  0  0  0  0  0  0  0  0  0
   34.8085   28.7043   38.9832 H   0  0  0  0  0  0  0  0  0  0  0  0
   35.4449   30.0743   37.1758 H   0  0  0  0  0  0  0  0  0  0  0  0
   36.8440   30.7652   38.0042 H   0  0  0  0  0  0  0  0  0  0  0  0
   33.5542   30.3544   39.7088 H   0  0  0  0  0  0  0  0  0  0  0  0
   33.6858   32.1070   40.1369 H   0  0  0  0  0  0  0  0  0  0  0  0
   36.0704   31.7090   40.7296 H   0  0  0  0  0  0  0  0  0  0  0  0
   34.8983   30.9025   41.8814 H   0  0  0  0  0  0  0  0  0  0  0  0
  2  1  2  0
  3  2  1  0
  4  5  1  0
  4  3  2  0
  5  6  2  0
  6  1  1  0
  7  3  1  0
  7 10  1  0
  7  9  1  0
  8  7  1  0
  1 11  1  0
  2 12  1  0
 13 14  1  0
 14 15  1  0
 15 16  1  0
 16 17  1  0
 16 18  1  0
 18 19  1  0
 19 13  1  0
 14 20  1  0
 14 21  1  0
 15 22  1  0
 15 23  1  0
 18 24  1  0
 18 25  1  0
 19 26  1  0
 19 27  1  0
  5 13  1  0
M  ISO  3  11  14  12  14  17   5
M  END
>  <DihAtoms>  (1) 
3,4,12,13

>  <DihDeg>  (1) 
2.3640597577603067e-05

$$$$
