
     RDKit          3D

 27 28  0  0  0  0  0  0  0  0999 V2000
   37.9656   28.8844   43.3700 C   0  0  0  0  0  0  0  0  0  0  0  0
   38.0820   27.4659   43.3150 C   0  0  0  0  0  0  0  0  0  0  0  0
   37.4360   26.8206   42.2562 C   0  0  0  0  0  0  0  0  0  0  0  0
   36.7346   27.5852   41.3413 N   0  0  0  0  0  0  0  0  0  0  0  0
   36.6629   28.9155   41.4481 C   0  0  0  0  0  0  0  0  0  0  0  0
   37.2709   29.5466   42.4486 N   0  0  0  0  0  0  0  0  0  0  0  0
   37.5245   25.3328   42.1489 C   0  0  0  0  0  0  0  0  0  0  0  0
   37.6484   25.0524   40.8058 F   0  0  0  0  0  0  0  0  0  0  0  0
   38.6351   24.8381   42.7943 F   0  0  0  0  0  0  0  0  0  0  0  0
   36.3860   24.7133   42.6449 F   0  0  0  0  0  0  0  0  0  0  0  0
   38.4754   29.3505   44.1988 H   0  0  0  0  0  0  0  0  0  0  0  0
   38.6475   26.9319   44.0659 H   0  0  0  0  0  0  0  0  0  0  0  0
   35.9315   29.6689   40.4870 N   0  0  0  0  0  0  0  0  0  0  0  0
   35.5065   29.1406   39.2176 C   0  0  0  0  0  0  0  0  0  0  0  0
   35.5824   30.1647   38.1093 C   0  0  0  0  0  0  0  0  0  0  0  0
   34.9865   31.4274   38.4825 N   0  0  0  0  0  0  0  0  0  0  0  0
   35.7699   32.1383   38.4956 H   0  0  0  0  0  0  0  0  0  0  0  0
   34.4354   31.4057   39.8195 C   0  0  0  0  0  0  0  0  0  0  0  0
   35.5665   31.0484   40.7456 C   0  0  0  0  0  0  0  0  0  0  0  0
   36.1214   28.2741   38.8963 H   0  0  0  0  0  0  0  0  0  0  0  0
   34.4533   28.7530   39.2917 H   0  0  0  0  0  0  0  0  0  0  0  0
   35.0315   29.7538   37.2392 H   0  0  0  0  0  0  0  0  0  0  0  0
   36.6331   30.2705   37.7769 H   0  0  0  0  0  0  0  0  0  0  0  0
   33.6115   30.6811   39.9213 H   0  0  0  0  0  0  0  0  0  0  0  0
   34.0935   32.4181   40.0705 H   0  0  0  0  0  0  0  0  0  0  0  0
   36.4407   31.6627   40.4115 H   0  0  0  0  0  0  0  0  0  0  0  0
   35.3358   31.2309   41.8057 H   0  0  0  0  0  0  0  0  0  0  0  0
  2  1  2  0
  3  2  1  0
  4  5  1  0
  4  3  2  0
  5  6  2  0
  6  1  1  0
  7  3  1  0
  7 10  1  0
  7  9  1  0
  8  7  1  0
  1 11  1  0
  2 12  1  0
 13 14  1  0
 14 15  1  0
 15 16  1  0
 16 17  1  0
 16 18  1  0
 18 19  1  0
 19 13  1  0
 14 20  1  0
 14 21  1  0
 15 22  1  0
 15 23  1  0
 18 24  1  0
 18 25  1  0
 19 26  1  0
 19 27  1  0
  5 13  1  0
M  ISO  3  11  14  12  14  17   5
M  END
>  <DihAtoms>  (1) 
3,4,12,13

>  <DihDeg>  (1) 
2.3640597577603067e-05

$$$$
