
     RDKit          3D

 27 28  0  0  0  0  0  0  0  0999 V2000
   37.9656   28.8844   43.3700 C   0  0  0  0  0  0  0  0  0  0  0  0
   38.0820   27.4659   43.3150 C   0  0  0  0  0  0  0  0  0  0  0  0
   37.4360   26.8206   42.2562 C   0  0  0  0  0  0  0  0  0  0  0  0
   36.7346   27.5852   41.3413 N   0  0  0  0  0  0  0  0  0  0  0  0
   36.6629   28.9155   41.4481 C   0  0  0  0  0  0  0  0  0  0  0  0
   37.2709   29.5466   42.4486 N   0  0  0  0  0  0  0  0  0  0  0  0
   37.5245   25.3328   42.1489 C   0  0  0  0  0  0  0  0  0  0  0  0
   37.6484   25.0524   40.8058 F   0  0  0  0  0  0  0  0  0  0  0  0
   38.6351   24.8381   42.7943 F   0  0  0  0  0  0  0  0  0  0  0  0
   36.3860   24.7133   42.6449 F   0  0  0  0  0  0  0  0  0  0  0  0
   38.4754   29.3505   44.1988 H   0  0  0  0  0  0  0  0  0  0  0  0
   38.6475   26.9319   44.0659 H   0  0  0  0  0  0  0  0  0  0  0  0
   35.9315   29.6689   40.4870 N   0  0  0  0  0  0  0  0  0  0  0  0
   34.5249   29.4916   40.2397 C   0  0  0  0  0  0  0  0  0  0  0  0
   34.1693   29.6479   38.7796 C   0  0  0  0  0  0  0  0  0  0  0  0
   34.7542   30.8320   38.1926 N   0  0  0  0  0  0  0  0  0  0  0  0
   35.4406   30.4978   37.4602 H   0  0  0  0  0  0  0  0  0  0  0  0
   35.5213   31.6018   39.1469 C   0  0  0  0  0  0  0  0  0  0  0  0
   36.5859   30.6839   39.6840 C   0  0  0  0  0  0  0  0  0  0  0  0
   34.1671   28.4881   40.5512 H   0  0  0  0  0  0  0  0  0  0  0  0
   33.9285   30.2271   40.8466 H   0  0  0  0  0  0  0  0  0  0  0  0
   33.0653   29.7252   38.7131 H   0  0  0  0  0  0  0  0  0  0  0  0
   34.4391   28.7233   38.2337 H   0  0  0  0  0  0  0  0  0  0  0  0
   34.8985   31.9908   39.9685 H   0  0  0  0  0  0  0  0  0  0  0  0
   36.0150   32.4240   38.6129 H   0  0  0  0  0  0  0  0  0  0  0  0
   37.0034   30.1468   38.7949 H   0  0  0  0  0  0  0  0  0  0  0  0
   37.3779   31.2112   40.2363 H   0  0  0  0  0  0  0  0  0  0  0  0
  2  1  2  0
  3  2  1  0
  4  5  1  0
  4  3  2  0
  5  6  2  0
  6  1  1  0
  7  3  1  0
  7 10  1  0
  7  9  1  0
  8  7  1  0
  1 11  1  0
  2 12  1  0
 13 14  1  0
 14 15  1  0
 15 16  1  0
 16 17  1  0
 16 18  1  0
 18 19  1  0
 19 13  1  0
 14 20  1  0
 14 21  1  0
 15 22  1  0
 15 23  1  0
 18 24  1  0
 18 25  1  0
 19 26  1  0
 19 27  1  0
  5 13  1  0
M  ISO  3  11  14  12  14  17   5
M  END
>  <DihAtoms>  (1) 
3,4,12,13

>  <DihDeg>  (1) 
2.3640597577603067e-05

$$$$
