
 OpenBabel03242509283D

 49 54  0  0  0  0  0  0  0  0999 V2000
   38.4340   28.1170   42.5960 C   0  0  0  0  0  0  0  0  0  0  0  0
   37.3750   27.2500   42.6740 C   0  0  0  0  0  0  0  0  0  0  0  0
   36.3010   27.8810   42.0380 C   0  0  0  0  0  0  0  0  0  0  0  0
   36.7960   29.0590   41.6350 N   0  0  0  0  0  0  0  0  0  0  0  0
   38.0370   29.2300   41.9440 N   0  0  0  0  0  0  0  0  0  0  0  0
   37.3870   26.2690   43.1440 H   0  0  0  0  0  0  0  0  0  0  0  0
   35.3440   27.3990   41.9650 H   0  0  0  0  0  0  0  0  0  0  0  0
   41.4140   26.5030   44.1450 C   0  0  0  0  0  0  0  0  0  0  0  0
   40.1140   26.6530   43.6520 C   0  0  0  0  0  0  0  0  0  0  0  0
   39.7650   27.9020   43.1190 C   0  0  0  0  0  0  0  0  0  0  0  0
   40.6790   28.9070   43.0990 N   0  0  0  0  0  0  0  0  0  0  0  0
   41.9370   28.6940   43.5980 C   0  0  0  0  0  0  0  0  0  0  0  0
   42.2910   27.5080   44.1110 N   0  0  0  0  0  0  0  0  0  0  0  0
   41.6710   25.5250   44.5560 H   0  0  0  0  0  0  0  0  0  0  0  0
   39.3750   25.8540   43.6640 H   0  0  0  0  0  0  0  0  0  0  0  0
   42.8910   29.7960   43.5580 C   0  0  0  0  0  0  0  0  0  0  0  0
   44.0840   29.8510   44.2500 C   0  0  0  0  0  3  0  0  0  0  0  0
   44.7060   31.0130   43.9760 N   0  0  0  0  0  0  0  0  0  0  0  0
   43.9330   31.6990   43.1240 C   0  0  0  0  0  0  0  0  0  0  0  0
   44.1280   32.9380   42.5480 C   0  0  0  0  0  3  0  0  0  0  0  0
   43.2010   33.4920   41.6770 C   0  0  0  0  0  3  0  0  0  0  0  0
   42.0780   32.7300   41.4220 C   0  0  0  0  0  3  0  0  0  0  0  0
   41.8390   31.4790   41.9780 C   0  0  0  0  0  3  0  0  0  0  0  0
   42.7810   30.9650   42.8370 C   0  0  0  0  0  0  0  0  0  0  0  0
   45.6420   31.3290   44.3660 H   0  0  0  0  0  0  0  0  0  0  0  0
   35.9430   29.9630   40.9440 C   0  0  0  0  0  0  0  0  0  0  0  0
   36.5400   30.7900   40.4970 H   0  0  0  0  0  0  0  0  0  0  0  0
   35.3070   30.4520   41.7300 H   0  0  0  0  0  0  0  0  0  0  0  0
   35.1090   29.3670   39.8540 C   0  0  0  0  0  0  0  0  0  0  0  0
   34.3510   30.2160   39.7350 H   0  0  0  0  0  0  0  0  0  0  0  0
   34.6770   28.4360   40.1950 H   0  0  0  0  0  0  0  0  0  0  0  0
   35.7570   29.3420   38.5260 C   0  0  0  0  0  0  0  0  0  0  0  0
   37.0860   29.4780   38.2420 C   0  0  0  0  0  0  0  0  0  0  0  0
   37.6420   29.5200   36.9970 C   0  0  0  0  0  0  0  0  0  0  0  0
   36.8240   29.4190   35.8900 C   0  0  0  0  0  0  0  0  0  0  0  0
   35.4600   29.2770   36.1070 C   0  0  0  0  0  0  0  0  0  0  0  0
   34.7060   29.1860   34.9660 C   0  0  0  0  0  0  0  0  0  0  0  0
   33.3490   29.0430   35.0760 C   0  0  0  0  0  0  0  0  0  0  0  0
   32.7690   28.9890   36.3220 C   0  0  0  0  0  0  0  0  0  0  0  0
   33.5840   29.0860   37.4160 C   0  0  0  0  0  0  0  0  0  0  0  0
   34.9300   29.2360   37.3920 C   0  0  0  0  0  0  0  0  0  0  0  0
   37.7410   29.5590   39.1090 H   0  0  0  0  0  0  0  0  0  0  0  0
   38.6950   29.6290   36.8830 H   0  0  0  0  0  0  0  0  0  0  0  0
   37.2720   29.4550   34.9070 H   0  0  0  0  0  0  0  0  0  0  0  0
   35.1180   29.2210   33.9710 H   0  0  0  0  0  0  0  0  0  0  0  0
   32.7110   28.9680   34.1960 H   0  0  0  0  0  0  0  0  0  0  0  0
   31.7080   28.8740   36.3930 H   0  0  0  0  0  0  0  0  0  0  0  0
   32.9430   29.0080   38.6460 O   0  0  0  0  0  0  0  0  0  0  0  0
   32.2300   29.6780   38.9370 H   0  0  0  0  0  0  0  0  0  0  0  0
  1  2  1  0  0  0  0
  1 10  1  0  0  0  0
  2  6  1  0  0  0  0
  3  2  2  0  0  0  0
  4  5  1  0  0  0  0
  4  3  1  0  0  0  0
  5  1  2  0  0  0  0
  7  3  1  0  0  0  0
  8 14  1  0  0  0  0
  9 15  1  0  0  0  0
  9  8  2  0  0  0  0
 10  9  1  0  0  0  0
 11 10  2  0  0  0  0
 11 12  1  0  0  0  0
 12 13  2  0  0  0  0
 13  8  1  0  0  0  0
 16 12  1  0  0  0  0
 16 17  2  0  0  0  0
 18 17  1  0  0  0  0
 18 25  1  0  0  0  0
 19 18  1  0  0  0  0
 20 19  2  0  0  0  0
 21 20  1  0  0  0  0
 22 21  2  0  0  0  0
 22 23  1  0  0  0  0
 23 24  2  0  0  0  0
 24 19  1  0  0  0  0
 24 16  1  0  0  0  0
 26  4  1  0  0  0  0
 26 28  1  0  0  0  0
 27 26  1  0  0  0  0
 29 31  1  0  0  0  0
 29 26  1  0  0  0  0
 30 29  1  0  0  0  0
 32 29  1  0  0  0  0
 33 32  1  0  0  0  0
 33 42  1  0  0  0  0
 34 33  2  0  0  0  0
 35 36  2  0  0  0  0
 35 34  1  0  0  0  0
 36 41  1  0  0  0  0
 37 38  2  0  0  0  0
 37 36  1  0  0  0  0
 38 39  1  0  0  0  0
 39 47  1  0  0  0  0
 39 40  2  0  0  0  0
 40 48  1  0  0  0  0
 41 40  1  0  0  0  0
 41 32  2  0  0  0  0
 43 34  1  0  0  0  0
 44 35  1  0  0  0  0
 45 37  1  0  0  0  0
 46 38  1  0  0  0  0
 48 49  1  0  0  0  0
M  END
>  <minimizedAffinity>
-6.51624632

>  <minimizedRMSD>
0.597873926

$$$$
