
 OpenBabel03242508173D

 49 54  0  0  1  0  0  0  0  0999 V2000
   42.9220   35.2800   42.2200 C   0  0  2  0  0  0  0  0  0  0  0  0
   42.3610   34.6200   42.9230 H   0  0  0  0  0  0  0  0  0  0  0  0
   42.7240   36.7140   42.8540 C   0  0  0  0  0  0  0  0  0  0  0  0
   43.4280   37.4000   42.3730 H   0  0  0  0  0  0  0  0  0  0  0  0
   42.8740   36.6120   43.9550 H   0  0  0  0  0  0  0  0  0  0  0  0
   41.6550   36.9370   42.6700 H   0  0  0  0  0  0  0  0  0  0  0  0
   44.3760   35.0010   42.1280 C   0  0  0  0  0  0  0  0  0  0  0  0
   44.9500   35.9160   42.3420 H   0  0  0  0  0  0  0  0  0  0  0  0
   44.5830   34.6200   41.0960 H   0  0  0  0  0  0  0  0  0  0  0  0
   44.6890   33.9780   43.1160 N   0  0  0  0  0  0  0  0  0  0  0  0
   45.5980   34.1320   44.1190 C   0  0  0  0  0  0  0  0  0  0  0  0
   45.6520   33.0060   44.8580 N   0  0  0  0  0  0  0  0  0  0  0  0
   44.7600   32.1460   44.2970 C   0  0  0  0  0  0  0  0  0  0  0  0
   44.1840   32.7710   43.2300 N   0  0  0  0  0  0  0  0  0  0  0  0
   46.1750   35.0360   44.2740 H   0  0  0  0  0  0  0  0  0  0  0  0
   44.3840   30.7690   44.6670 C   0  0  0  0  0  0  0  0  0  0  0  0
   44.1920   29.6580   43.8470 C   0  0  0  0  0  0  0  0  0  0  0  0
   43.8570   28.6280   44.6480 N   0  0  0  0  0  0  0  0  0  0  0  0
   43.8280   29.0360   45.9290 C   0  0  0  0  0  0  0  0  0  0  0  0
   43.5280   28.2740   47.0400 C   0  0  0  0  0  0  0  0  0  0  0  0
   43.5470   28.8740   48.3030 C   0  0  0  0  0  0  0  0  0  0  0  0
   43.8760   30.2150   48.3260 C   0  0  0  0  0  0  0  0  0  0  0  0
   44.1810   30.9950   47.2150 C   0  0  0  0  0  0  0  0  0  0  0  0
   44.1540   30.3760   45.9770 C   0  0  0  0  0  0  0  0  0  0  0  0
   43.6750   27.6970   44.1850 H   0  0  0  0  0  0  0  0  0  0  0  0
   42.3060   35.3810   40.9500 O   0  0  0  0  0  0  0  0  0  0  0  0
   38.8150   35.6080   40.0380 C   0  0  0  0  0  0  0  0  0  0  0  0
   40.1220   36.0550   40.2970 C   0  0  0  0  0  0  0  0  0  0  0  0
   41.0540   35.0660   40.6810 C   0  0  0  0  0  0  0  0  0  0  0  0
   40.6000   33.8310   40.7570 N   0  0  0  0  0  0  0  0  0  0  0  0
   39.3870   33.3760   40.5230 C   0  0  0  0  0  0  0  0  0  0  0  0
   38.5230   34.3200   40.1630 N   0  0  0  0  0  0  0  0  0  0  0  0
   38.1230   36.3840   39.7470 H   0  0  0  0  0  0  0  0  0  0  0  0
   40.4220   37.0780   40.2140 H   0  0  0  0  0  0  0  0  0  0  0  0
   38.7820   32.0560   40.5780 C   0  0  0  0  0  0  0  0  0  0  0  0
   38.7200   31.3070   41.6990 N   0  0  0  0  0  0  0  0  0  0  0  0
   38.1760   30.1020   41.7820 C   0  0  0  0  0  0  0  0  0  0  0  0
   37.6380   29.5280   40.7260 N   0  0  0  0  0  0  0  0  0  0  0  0
   37.6350   30.1730   39.5400 C   0  0  0  0  0  0  0  0  0  0  0  0
   37.0670   29.5740   38.4220 C   0  0  0  0  0  0  0  0  0  0  0  0
   37.0540   30.2060   37.2200 C   0  0  0  0  0  0  0  0  0  0  0  0
   37.6320   31.4900   37.1280 C   0  0  0  0  0  0  0  0  0  0  0  0
   38.1760   32.0210   38.2760 C   0  0  0  0  0  0  0  0  0  0  0  0
   38.2090   31.4250   39.4910 C   0  0  0  0  0  0  0  0  0  0  0  0
   38.1300   29.5060   42.6830 H   0  0  0  0  0  0  0  0  0  0  0  0
   36.6320   28.5880   38.5230 H   0  0  0  0  0  0  0  0  0  0  0  0
   36.6230   29.7780   36.3170 H   0  0  0  0  0  0  0  0  0  0  0  0
   37.6460   32.0290   36.1980 H   0  0  0  0  0  0  0  0  0  0  0  0
   38.6150   33.0170   38.1730 H   0  0  0  0  0  0  0  0  0  0  0  0
  1  3  1  0  0  0  0
  1  2  1  1  0  0  0
  3  5  1  0  0  0  0
  4  3  1  0  0  0  0
  6  3  1  0  0  0  0
  7  1  1  0  0  0  0
  7  8  1  0  0  0  0
  7 10  1  0  0  0  0
  9  7  1  0  0  0  0
 10 14  1  0  0  0  0
 10 11  1  0  0  0  0
 11 15  1  0  0  0  0
 11 12  2  0  0  0  0
 13 16  1  0  0  0  0
 13 12  1  0  0  0  0
 14 13  2  0  0  0  0
 16 24  1  0  0  0  0
 17 18  1  0  0  0  0
 17 16  2  0  0  0  0
 18 19  1  0  0  0  0
 19 24  2  0  0  0  0
 19 20  1  0  0  0  0
 20 21  2  0  0  0  0
 21 22  1  0  0  0  0
 23 22  2  0  0  0  0
 24 23  1  0  0  0  0
 25 18  1  0  0  0  0
 26  1  1  0  0  0  0
 27 32  2  0  0  0  0
 27 28  1  0  0  0  0
 28 29  2  0  0  0  0
 29 30  1  0  0  0  0
 29 26  1  0  0  0  0
 31 35  1  0  0  0  0
 31 30  2  0  0  0  0
 32 31  1  0  0  0  0
 33 27  1  0  0  0  0
 34 28  1  0  0  0  0
 35 36  1  0  0  0  0
 36 37  2  0  0  0  0
 37 45  1  0  0  0  0
 38 37  1  0  0  0  0
 39 38  2  0  0  0  0
 40 46  1  0  0  0  0
 40 39  1  0  0  0  0
 41 40  2  0  0  0  0
 42 41  1  0  0  0  0
 42 43  2  0  0  0  0
 43 44  1  0  0  0  0
 44 39  1  0  0  0  0
 44 35  2  0  0  0  0
 47 41  1  0  0  0  0
 48 42  1  0  0  0  0
 49 43  1  0  0  0  0
M  END
>  <minimizedAffinity>
-7.60740519

>  <minimizedRMSD>
1.50150681

$$$$
