
 OpenBabel03242509283D

 49 54  0  0  0  0  0  0  0  0999 V2000
   38.7570   28.0730   42.7740 C   0  0  0  0  0  0  0  0  0  0  0  0
   37.6460   27.2740   42.8610 C   0  0  0  0  0  0  0  0  0  0  0  0
   36.6050   27.9800   42.2510 C   0  0  0  0  0  0  0  0  0  0  0  0
   37.1660   29.1290   41.8520 N   0  0  0  0  0  0  0  0  0  0  0  0
   38.4210   29.2170   42.1410 N   0  0  0  0  0  0  0  0  0  0  0  0
   37.6040   26.2890   43.3200 H   0  0  0  0  0  0  0  0  0  0  0  0
   35.6180   27.5610   42.1900 H   0  0  0  0  0  0  0  0  0  0  0  0
   41.6800   26.2290   44.1670 C   0  0  0  0  0  0  0  0  0  0  0  0
   40.3850   26.4660   43.6950 C   0  0  0  0  0  0  0  0  0  0  0  0
   40.0810   27.7670   43.2700 C   0  0  0  0  0  0  0  0  0  0  0  0
   41.0300   28.7370   43.3290 N   0  0  0  0  0  0  0  0  0  0  0  0
   42.2810   28.4380   43.8030 C   0  0  0  0  0  0  0  0  0  0  0  0
   42.5930   27.2010   44.2130 N   0  0  0  0  0  0  0  0  0  0  0  0
   41.9030   25.2120   44.4940 H   0  0  0  0  0  0  0  0  0  0  0  0
   39.6180   25.6960   43.6440 H   0  0  0  0  0  0  0  0  0  0  0  0
   43.2740   29.5040   43.8500 C   0  0  0  0  0  0  0  0  0  0  0  0
   43.7490   30.2090   42.7640 C   0  0  0  0  0  3  0  0  0  0  0  0
   44.6530   31.1150   43.1790 N   0  0  0  0  0  0  0  0  0  0  0  0
   44.7640   31.0020   44.5090 C   0  0  0  0  0  0  0  0  0  0  0  0
   45.5550   31.7020   45.3980 C   0  0  0  0  0  3  0  0  0  0  0  0
   45.5320   31.4390   46.7600 C   0  0  0  0  0  3  0  0  0  0  0  0
   44.6730   30.4380   47.1690 C   0  0  0  0  0  3  0  0  0  0  0  0
   43.8590   29.7070   46.3120 C   0  0  0  0  0  3  0  0  0  0  0  0
   43.9110   29.9980   44.9690 C   0  0  0  0  0  0  0  0  0  0  0  0
   45.1850   31.7970   42.5640 H   0  0  0  0  0  0  0  0  0  0  0  0
   36.3610   30.0940   41.1870 C   0  0  0  0  0  0  0  0  0  0  0  0
   37.0050   30.8470   40.6790 H   0  0  0  0  0  0  0  0  0  0  0  0
   35.8250   30.6610   41.9940 H   0  0  0  0  0  0  0  0  0  0  0  0
   35.4070   29.5540   40.1680 C   0  0  0  0  0  0  0  0  0  0  0  0
   34.7130   30.4600   40.0870 H   0  0  0  0  0  0  0  0  0  0  0  0
   34.9270   28.6650   40.5550 H   0  0  0  0  0  0  0  0  0  0  0  0
   35.9550   29.4600   38.7980 C   0  0  0  0  0  0  0  0  0  0  0  0
   37.2560   29.6070   38.4080 C   0  0  0  0  0  0  0  0  0  0  0  0
   37.7170   29.5830   37.1240 C   0  0  0  0  0  0  0  0  0  0  0  0
   36.8220   29.3960   36.0900 C   0  0  0  0  0  0  0  0  0  0  0  0
   35.4820   29.2390   36.4180 C   0  0  0  0  0  0  0  0  0  0  0  0
   34.6480   29.0610   35.3440 C   0  0  0  0  0  0  0  0  0  0  0  0
   33.3070   28.8950   35.5640 C   0  0  0  0  0  0  0  0  0  0  0  0
   32.8220   28.9070   36.8520 C   0  0  0  0  0  0  0  0  0  0  0  0
   33.7130   29.0890   37.8740 C   0  0  0  0  0  0  0  0  0  0  0  0
   35.0500   29.2660   37.7390 C   0  0  0  0  0  0  0  0  0  0  0  0
   37.9700   29.7550   39.2160 H   0  0  0  0  0  0  0  0  0  0  0  0
   38.7560   29.7060   36.9240 H   0  0  0  0  0  0  0  0  0  0  0  0
   37.1950   29.3800   35.0750 H   0  0  0  0  0  0  0  0  0  0  0  0
   34.9840   29.0420   34.3200 H   0  0  0  0  0  0  0  0  0  0  0  0
   32.6080   28.7520   34.7420 H   0  0  0  0  0  0  0  0  0  0  0  0
   31.7740   28.7740   37.0090 H   0  0  0  0  0  0  0  0  0  0  0  0
   33.1680   29.0740   39.1510 O   0  0  0  0  0  0  0  0  0  0  0  0
   32.4610   29.7460   39.4540 H   0  0  0  0  0  0  0  0  0  0  0  0
  1  2  1  0  0  0  0
  1 10  1  0  0  0  0
  2  6  1  0  0  0  0
  3  2  2  0  0  0  0
  4  5  1  0  0  0  0
  4  3  1  0  0  0  0
  5  1  2  0  0  0  0
  7  3  1  0  0  0  0
  8 13  1  0  0  0  0
  8 14  1  0  0  0  0
  9  8  2  0  0  0  0
 10 11  2  0  0  0  0
 10  9  1  0  0  0  0
 11 12  1  0  0  0  0
 12 16  1  0  0  0  0
 12 13  2  0  0  0  0
 15  9  1  0  0  0  0
 16 24  1  0  0  0  0
 17 18  1  0  0  0  0
 17 16  2  0  0  0  0
 18 19  1  0  0  0  0
 19 24  2  0  0  0  0
 19 20  1  0  0  0  0
 20 21  2  0  0  0  0
 21 22  1  0  0  0  0
 23 22  2  0  0  0  0
 24 23  1  0  0  0  0
 25 18  1  0  0  0  0
 26  4  1  0  0  0  0
 26 28  1  0  0  0  0
 27 26  1  0  0  0  0
 29 31  1  0  0  0  0
 29 26  1  0  0  0  0
 30 29  1  0  0  0  0
 32 29  1  0  0  0  0
 33 32  1  0  0  0  0
 33 42  1  0  0  0  0
 34 33  2  0  0  0  0
 35 36  2  0  0  0  0
 35 34  1  0  0  0  0
 36 41  1  0  0  0  0
 37 38  2  0  0  0  0
 37 36  1  0  0  0  0
 38 39  1  0  0  0  0
 39 47  1  0  0  0  0
 39 40  2  0  0  0  0
 40 48  1  0  0  0  0
 41 40  1  0  0  0  0
 41 32  2  0  0  0  0
 43 34  1  0  0  0  0
 44 35  1  0  0  0  0
 45 37  1  0  0  0  0
 46 38  1  0  0  0  0
 48 49  1  0  0  0  0
M  END
>  <minimizedAffinity>
-6.741395

>  <minimizedRMSD>
0.946173906

$$$$
