REMARK  Name = 
REMARK  6 active torsions:
REMARK  status: ('A' for Active; 'I' for Inactive)
REMARK    1  A    between atoms: C_1  and  C_2
REMARK    2  A    between atoms: C_1  and  C_13
REMARK    3  A    between atoms: C_10  and  O_12
REMARK    4  A    between atoms: C_13  and  N_17
REMARK    5  A    between atoms: C_14  and  C_21
REMARK    6  A    between atoms: C_23  and  C_40
REMARK                            x       y       z     vdW  Elec       q    Type
REMARK                         _______ _______ _______ _____ _____    ______ ____
ROOT
ATOM      1  C   UNL     1      38.653  28.162  42.718  0.00  0.00    +0.000 A 
ATOM      2  C   UNL     1      37.560  27.349  42.874  0.00  0.00    +0.000 A 
ATOM      3  C   UNL     1      36.487  28.012  42.270  0.00  0.00    +0.000 A 
ATOM      4  N   UNL     1      37.015  29.153  41.807  0.00  0.00    +0.000 N 
ATOM      5  N   UNL     1      38.276  29.273  42.051  0.00  0.00    +0.000 NA
ATOM      6  H   UNL     1      37.550  26.383  43.373  0.00  0.00    +0.000 HD
ATOM      7  H   UNL     1      35.506  27.574  42.258  0.00  0.00    +0.000 HD
ENDROOT
BRANCH   1  10
ATOM      8  C   UNL     1      41.578  26.551  44.371  0.00  0.00    +0.000 A 
ATOM      9  C   UNL     1      40.261  26.753  43.947  0.00  0.00    +0.000 A 
ATOM     10  C   UNL     1      39.997  27.899  43.183  0.00  0.00    +0.000 A 
ATOM     11  N   UNL     1      41.005  28.759  42.885  0.00  0.00    +0.000 NA
ATOM     12  C   UNL     1      42.275  28.502  43.332  0.00  0.00    +0.000 A 
ATOM     13  N   UNL     1      42.549  27.413  44.062  0.00  0.00    +0.000 NA
ATOM     14  H   UNL     1      41.769  25.655  44.964  0.00  0.00    +0.000 HD
ATOM     15  H   UNL     1      39.447  26.070  44.181  0.00  0.00    +0.000 HD
BRANCH  12  16
ATOM     16  C   UNL     1      43.331  29.448  42.991  0.00  0.00    +0.000 A 
ATOM     17  C   UNL     1      43.538  30.007  41.748  0.00  0.00    +0.000 A 
ATOM     18  N   UNL     1      44.600  30.832  41.800  0.00  0.00    +0.000 N 
ATOM     19  C   UNL     1      45.073  30.811  43.052  0.00  0.00    +0.000 A 
ATOM     20  C   UNL     1      46.142  31.482  43.611  0.00  0.00    +0.000 A 
ATOM     21  C   UNL     1      46.484  31.330  44.946  0.00  0.00    +0.000 A 
ATOM     22  C   UNL     1      45.691  30.468  45.680  0.00  0.00    +0.000 A 
ATOM     23  C   UNL     1      44.606  29.772  45.161  0.00  0.00    +0.000 A 
ATOM     24  C   UNL     1      44.301  29.950  43.833  0.00  0.00    +0.000 A 
ATOM     25  H   UNL     1      44.992  31.400  40.992  0.00  0.00    +0.000 HD
ENDBRANCH  12  16
ENDBRANCH   1  10
BRANCH   4  26
ATOM     26  C   UNL     1      36.172  30.076  41.130  0.00  0.00    +0.000 C 
ATOM     27  H   UNL     1      36.782  30.876  40.653  0.00  0.00    +0.000 HD
ATOM     28  H   UNL     1      35.577  30.596  41.928  0.00  0.00    +0.000 HD
BRANCH  26  29
ATOM     29  C   UNL     1      35.285  29.494  40.074  0.00  0.00    +0.000 C 
ATOM     30  H   UNL     1      34.552  30.366  39.967  0.00  0.00    +0.000 HD
ATOM     31  H   UNL     1      34.834  28.582  40.441  0.00  0.00    +0.000 HD
BRANCH  29  32
ATOM     32  C   UNL     1      35.890  29.431  38.727  0.00  0.00    +0.000 A 
ATOM     33  C   UNL     1      37.204  29.598  38.393  0.00  0.00    +0.000 A 
ATOM     34  C   UNL     1      37.717  29.602  37.129  0.00  0.00    +0.000 A 
ATOM     35  C   UNL     1      36.868  29.425  36.056  0.00  0.00    +0.000 A 
ATOM     36  C   UNL     1      35.517  29.248  36.325  0.00  0.00    +0.000 A 
ATOM     37  C   UNL     1      34.730  29.081  35.215  0.00  0.00    +0.000 A 
ATOM     38  C   UNL     1      33.383  28.898  35.377  0.00  0.00    +0.000 A 
ATOM     39  C   UNL     1      32.846  28.881  36.643  0.00  0.00    +0.000 A 
ATOM     40  C   UNL     1      33.692  29.054  37.704  0.00  0.00    +0.000 A 
ATOM     41  C   UNL     1      35.031  29.247  37.628  0.00  0.00    +0.000 A 
ATOM     42  H   UNL     1      37.883  29.739  39.232  0.00  0.00    +0.000 HD
ATOM     43  H   UNL     1      38.762  29.740  36.974  0.00  0.00    +0.000 HD
ATOM     44  H   UNL     1      37.282  29.431  35.057  0.00  0.00    +0.000 HD
ATOM     45  H   UNL     1      35.108  29.085  34.206  0.00  0.00    +0.000 HD
ATOM     46  H   UNL     1      32.720  28.763  34.524  0.00  0.00    +0.000 HD
ATOM     47  H   UNL     1      31.793  28.735  36.755  0.00  0.00    +0.000 HD
BRANCH  40  48
ATOM     48  O   UNL     1      33.095  29.010  38.957  0.00  0.00    +0.000 OA
ATOM     49  H   UNL     1      32.369  29.669  39.243  0.00  0.00    +0.000 HD
ENDBRANCH  40  48
ENDBRANCH  29  32
ENDBRANCH  26  29
ENDBRANCH   4  26
TORSDOF 6
