
     RDKit          3D

 27 29  0  0  0  0  0  0  0  0999 V2000
   37.9739   28.8789   43.3740 C   0  0  0  0  0  0  0  0  0  0  0  0
   38.0797   27.4662   43.3024 C   0  0  0  0  0  0  0  0  0  0  0  0
   37.4346   26.8215   42.2522 C   0  0  0  0  0  0  0  0  0  0  0  0
   36.7296   27.5784   41.3391 N   0  0  0  0  0  0  0  0  0  0  0  0
   36.6579   28.9089   41.4475 C   0  0  0  0  0  0  0  0  0  0  0  0
   37.2752   29.5509   42.4565 N   0  0  0  0  0  0  0  0  0  0  0  0
   37.5322   25.3419   42.1579 C   0  0  0  0  0  0  0  0  0  0  0  0
   37.6500   25.0508   40.8130 F   0  0  0  0  0  0  0  0  0  0  0  0
   38.6342   24.8450   42.7960 F   0  0  0  0  0  0  0  0  0  0  0  0
   36.3787   24.7125   42.6345 F   0  0  0  0  0  0  0  0  0  0  0  0
   38.4549   29.4275   44.1680 H   0  0  0  0  0  0  0  0  0  0  0  0
   38.6486   26.9175   44.0493 H   0  0  0  0  0  0  0  0  0  0  0  0
   35.9093   29.6982   40.4755 C   0  0  0  0  0  0  0  0  0  0  0  0
   35.9534   31.0413   40.2638 C   0  0  0  0  0  0  0  0  0  0  0  0
   35.1155   31.4052   39.2764 N   0  0  0  0  0  0  0  0  0  0  0  0
   34.5138   30.2716   38.8374 C   0  0  0  0  0  0  0  0  0  0  0  0
   33.5711   30.0901   37.8410 C   0  0  0  0  0  0  0  0  0  0  0  0
   33.0962   28.8244   37.5662 C   0  0  0  0  0  0  0  0  0  0  0  0
   33.5546   27.7140   38.2828 C   0  0  0  0  0  0  0  0  0  0  0  0
   34.5029   27.9113   39.2823 C   0  0  0  0  0  0  0  0  0  0  0  0
   34.9870   29.1834   39.5658 C   0  0  0  0  0  0  0  0  0  0  0  0
   36.5876   31.7151   40.8275 H   0  0  0  0  0  0  0  0  0  0  0  0
   35.0003   32.3945   38.9590 H   0  0  0  0  0  0  0  0  0  0  0  0
   33.1820   30.9168   37.2551 H   0  0  0  0  0  0  0  0  0  0  0  0
   32.3526   28.6247   36.7912 H   0  0  0  0  0  0  0  0  0  0  0  0
   33.2057   26.6939   38.0984 H   0  0  0  0  0  0  0  0  0  0  0  0
   34.8780   27.0674   39.8561 H   0  0  0  0  0  0  0  0  0  0  0  0
  2  1  2  0
  3  2  1  0
  4  5  1  0
  4  3  2  0
  5  6  2  0
  6  1  1  0
  7  3  1  0
  7 10  1  0
  7  9  1  0
  8  7  1  0
  1 11  1  0
  2 12  1  0
 13 14  2  0
 14 15  1  0
 15 16  1  0
 16 17  2  0
 17 18  1  0
 18 19  2  0
 19 20  1  0
 20 21  2  0
 21 13  1  0
 21 16  1  0
 14 22  1  0
 15 23  1  0
 17 24  1  0
 18 25  1  0
 19 26  1  0
 20 27  1  0
  5 13  1  0
M  ISO  2  11  14  12  14
M  END
>  <DihAtoms>  (1) 
3,4,12,13

>  <DihDeg>  (1) 
179.9999779568062

$$$$
