
     RDKit          3D

 27 29  0  0  0  0  0  0  0  0999 V2000
   37.9739   28.8789   43.3740 C   0  0  0  0  0  0  0  0  0  0  0  0
   38.0797   27.4662   43.3024 C   0  0  0  0  0  0  0  0  0  0  0  0
   37.4346   26.8215   42.2522 C   0  0  0  0  0  0  0  0  0  0  0  0
   36.7296   27.5784   41.3391 N   0  0  0  0  0  0  0  0  0  0  0  0
   36.6579   28.9089   41.4475 C   0  0  0  0  0  0  0  0  0  0  0  0
   37.2752   29.5509   42.4565 N   0  0  0  0  0  0  0  0  0  0  0  0
   37.5322   25.3419   42.1579 C   0  0  0  0  0  0  0  0  0  0  0  0
   37.6500   25.0508   40.8130 F   0  0  0  0  0  0  0  0  0  0  0  0
   38.6342   24.8450   42.7960 F   0  0  0  0  0  0  0  0  0  0  0  0
   36.3787   24.7125   42.6345 F   0  0  0  0  0  0  0  0  0  0  0  0
   38.4549   29.4275   44.1680 H   0  0  0  0  0  0  0  0  0  0  0  0
   38.6486   26.9175   44.0493 H   0  0  0  0  0  0  0  0  0  0  0  0
   35.9093   29.6982   40.4755 C   0  0  0  0  0  0  0  0  0  0  0  0
   34.5860   29.6266   40.1681 C   0  0  0  0  0  0  0  0  0  0  0  0
   34.2593   30.5194   39.2165 N   0  0  0  0  0  0  0  0  0  0  0  0
   35.3975   31.1857   38.8991 C   0  0  0  0  0  0  0  0  0  0  0  0
   35.6114   32.2007   37.9836 C   0  0  0  0  0  0  0  0  0  0  0  0
   36.8747   32.7334   37.8304 C   0  0  0  0  0  0  0  0  0  0  0  0
   37.9502   32.2613   38.5901 C   0  0  0  0  0  0  0  0  0  0  0  0
   37.7204   31.2400   39.5073 C   0  0  0  0  0  0  0  0  0  0  0  0
   36.4505   30.6975   39.6682 C   0  0  0  0  0  0  0  0  0  0  0  0
   33.8992   28.9337   40.6394 H   0  0  0  0  0  0  0  0  0  0  0  0
   33.2902   30.6252   38.8392 H   0  0  0  0  0  0  0  0  0  0  0  0
   34.8125   32.6036   37.3690 H   0  0  0  0  0  0  0  0  0  0  0  0
   37.0991   33.5350   37.1230 H   0  0  0  0  0  0  0  0  0  0  0  0
   38.9670   32.6543   38.5012 H   0  0  0  0  0  0  0  0  0  0  0  0
   38.5368   30.8526   40.1120 H   0  0  0  0  0  0  0  0  0  0  0  0
  2  1  2  0
  3  2  1  0
  4  5  1  0
  4  3  2  0
  5  6  2  0
  6  1  1  0
  7  3  1  0
  7 10  1  0
  7  9  1  0
  8  7  1  0
  1 11  1  0
  2 12  1  0
 13 14  2  0
 14 15  1  0
 15 16  1  0
 16 17  2  0
 17 18  1  0
 18 19  2  0
 19 20  1  0
 20 21  2  0
 21 13  1  0
 21 16  1  0
 14 22  1  0
 15 23  1  0
 17 24  1  0
 18 25  1  0
 19 26  1  0
 20 27  1  0
  5 13  1  0
M  ISO  2  11  14  12  14
M  END
>  <DihAtoms>  (1) 
3,4,12,13

>  <DihDeg>  (1) 
179.9999779568062

$$$$
