
 OpenBabel03242506323D

 34 38  0  0  0  0  0  0  0  0999 V2000
   40.5960   29.4380   41.9740 C   0  0  0  0  0  0  0  0  0  0  0  0
   41.0350   30.6440   42.5030 C   0  0  0  0  0  0  0  0  0  0  0  0
   41.6670   31.5710   41.6930 C   0  0  0  0  0  0  0  0  0  0  0  0
   41.8380   31.2690   40.3990 N   0  0  0  0  0  0  0  0  0  0  0  0
   41.4200   30.1080   39.8660 C   0  0  0  0  0  0  0  0  0  0  0  0
   40.8120   29.2160   40.6400 N   0  0  0  0  0  0  0  0  0  0  0  0
   40.8590   30.8040   43.5430 H   0  0  0  0  0  0  0  0  0  0  0  0
   42.0110   32.5110   42.1020 H   0  0  0  0  0  0  0  0  0  0  0  0
   41.6540   29.8760   38.4420 C   0  0  0  0  0  0  0  0  0  0  0  0
   40.7450   29.2360   37.6070 C   0  0  0  0  0  0  0  0  0  0  0  0
   41.3170   29.2170   36.3940 N   0  0  0  0  0  0  0  0  0  0  0  0
   42.5430   29.8040   36.3920 C   0  0  0  0  0  0  0  0  0  0  0  0
   43.5070   30.0390   35.4480 C   0  0  0  0  0  0  0  0  0  0  0  0
   44.6970   30.6920   35.7840 C   0  0  0  0  0  0  0  0  0  0  0  0
   44.9090   31.1110   37.0920 C   0  0  0  0  0  0  0  0  0  0  0  0
   43.9190   30.8690   38.0490 C   0  0  0  0  0  0  0  0  0  0  0  0
   42.7580   30.2240   37.6930 C   0  0  0  0  0  0  0  0  0  0  0  0
   40.8470   28.7870   35.5500 H   0  0  0  0  0  0  0  0  0  0  0  0
   38.6110   28.1440   42.6700 C   0  0  0  0  0  0  0  0  0  0  0  0
   38.4360   27.0670   43.5170 C   0  0  0  0  0  0  0  0  0  0  0  0
   39.6130   26.6740   44.0520 N   0  0  0  0  0  0  0  0  0  0  0  0
   40.5260   27.5130   43.5330 C   0  0  0  0  0  0  0  0  0  0  0  0
   39.9350   28.4060   42.6960 N   0  0  0  0  0  0  0  0  0  0  0  0
   37.4850   26.5960   43.7300 H   0  0  0  0  0  0  0  0  0  0  0  0
   41.5920   27.5260   43.7160 H   0  0  0  0  0  0  0  0  0  0  0  0
   35.6370   28.6000   40.5270 C   0  0  0  0  0  0  0  0  0  0  0  0
   36.6650   27.9660   41.2420 C   0  0  0  0  0  0  0  0  0  0  0  0
   37.5700   28.7990   41.9460 C   0  0  0  0  0  0  0  0  0  0  0  0
   37.3800   30.1460   41.8790 N   0  0  0  0  0  0  0  0  0  0  0  0
   36.3650   30.7140   41.1690 C   0  0  0  0  0  0  0  0  0  0  0  0
   35.5020   29.9460   40.5000 N   0  0  0  0  0  0  0  0  0  0  0  0
   34.9710   27.9160   40.0060 H   0  0  0  0  0  0  0  0  0  0  0  0
   36.7530   26.8910   41.2500 H   0  0  0  0  0  0  0  0  0  0  0  0
   36.2450   31.7850   41.1390 H   0  0  0  0  0  0  0  0  0  0  0  0
  1  2  1  0  0  0  0
  1 23  1  0  0  0  0
  2  7  1  0  0  0  0
  3  8  1  0  0  0  0
  3  2  2  0  0  0  0
  4  3  1  0  0  0  0
  5  4  2  0  0  0  0
  5  6  1  0  0  0  0
  6  1  2  0  0  0  0
  9  5  1  0  0  0  0
 10  9  2  0  0  0  0
 11 10  1  0  0  0  0
 12 11  1  0  0  0  0
 12 17  1  0  0  0  0
 13 14  1  0  0  0  0
 13 12  2  0  0  0  0
 14 15  2  0  0  0  0
 15 16  1  0  0  0  0
 17 16  2  0  0  0  0
 17  9  1  0  0  0  0
 18 11  1  0  0  0  0
 19 23  1  0  0  0  0
 19 20  2  0  0  0  0
 20 24  1  0  0  0  0
 20 21  1  0  0  0  0
 22 25  1  0  0  0  0
 22 21  2  0  0  0  0
 23 22  1  0  0  0  0
 26 27  1  0  0  0  0
 27 33  1  0  0  0  0
 27 28  2  0  0  0  0
 28 19  1  0  0  0  0
 29 28  1  0  0  0  0
 30 29  2  0  0  0  0
 31 26  2  0  0  0  0
 31 30  1  0  0  0  0
 32 26  1  0  0  0  0
 34 30  1  0  0  0  0
M  END
>  <minimizedAffinity>
-5.57971382

>  <minimizedRMSD>
0.362584144

$$$$
