
 OpenBabel03242509283D

 49 54  0  0  0  0  0  0  0  0999 V2000
   38.6070   28.1290   42.6980 C   0  0  0  0  0  0  0  0  0  0  0  0
   37.5130   27.3080   42.7950 C   0  0  0  0  0  0  0  0  0  0  0  0
   36.4540   27.9880   42.1850 C   0  0  0  0  0  0  0  0  0  0  0  0
   36.9910   29.1460   41.7770 N   0  0  0  0  0  0  0  0  0  0  0  0
   38.2440   29.2610   42.0600 N   0  0  0  0  0  0  0  0  0  0  0  0
   37.4930   26.3250   43.2600 H   0  0  0  0  0  0  0  0  0  0  0  0
   35.4760   27.5480   42.1310 H   0  0  0  0  0  0  0  0  0  0  0  0
   41.5110   26.4300   44.3000 C   0  0  0  0  0  0  0  0  0  0  0  0
   40.2060   26.6410   43.8430 C   0  0  0  0  0  0  0  0  0  0  0  0
   39.9380   27.8530   43.1900 C   0  0  0  0  0  0  0  0  0  0  0  0
   40.9310   28.7650   43.0260 N   0  0  0  0  0  0  0  0  0  0  0  0
   42.1900   28.4960   43.4980 C   0  0  0  0  0  0  0  0  0  0  0  0
   42.4670   27.3440   44.1230 N   0  0  0  0  0  0  0  0  0  0  0  0
   41.7050   25.4820   44.8050 H   0  0  0  0  0  0  0  0  0  0  0  0
   39.4040   25.9170   43.9700 H   0  0  0  0  0  0  0  0  0  0  0  0
   43.2300   29.4990   43.3010 C   0  0  0  0  0  0  0  0  0  0  0  0
   43.5300   30.5250   44.1730 C   0  0  0  0  0  3  0  0  0  0  0  0
   44.5430   31.2550   43.6720 N   0  0  0  0  0  0  0  0  0  0  0  0
   44.8940   30.7150   42.4980 C   0  0  0  0  0  0  0  0  0  0  0  0
   45.8730   31.0930   41.6020 C   0  0  0  0  0  3  0  0  0  0  0  0
   46.0920   30.4000   40.4210 C   0  0  0  0  0  3  0  0  0  0  0  0
   45.2720   29.3100   40.1980 C   0  0  0  0  0  3  0  0  0  0  0  0
   44.2750   28.8910   41.0700 C   0  0  0  0  0  3  0  0  0  0  0  0
   44.0900   29.6060   42.2290 C   0  0  0  0  0  0  0  0  0  0  0  0
   44.9850   32.1080   44.1250 H   0  0  0  0  0  0  0  0  0  0  0  0
   36.1630   30.0900   41.1100 C   0  0  0  0  0  0  0  0  0  0  0  0
   36.7860   30.8840   40.6400 H   0  0  0  0  0  0  0  0  0  0  0  0
   35.5780   30.6130   41.9140 H   0  0  0  0  0  0  0  0  0  0  0  0
   35.2650   29.5340   40.0500 C   0  0  0  0  0  0  0  0  0  0  0  0
   34.5640   30.4300   39.9320 H   0  0  0  0  0  0  0  0  0  0  0  0
   34.7790   28.6400   40.4180 H   0  0  0  0  0  0  0  0  0  0  0  0
   35.8780   29.4420   38.7080 C   0  0  0  0  0  0  0  0  0  0  0  0
   37.1980   29.5790   38.3820 C   0  0  0  0  0  0  0  0  0  0  0  0
   37.7200   29.5570   37.1220 C   0  0  0  0  0  0  0  0  0  0  0  0
   36.8760   29.3820   36.0450 C   0  0  0  0  0  0  0  0  0  0  0  0
   35.5200   29.2340   36.3060 C   0  0  0  0  0  0  0  0  0  0  0  0
   34.7380   29.0680   35.1930 C   0  0  0  0  0  0  0  0  0  0  0  0
   33.3860   28.9120   35.3470 C   0  0  0  0  0  0  0  0  0  0  0  0
   32.8400   28.9220   36.6090 C   0  0  0  0  0  0  0  0  0  0  0  0
   33.6810   29.0930   37.6740 C   0  0  0  0  0  0  0  0  0  0  0  0
   35.0240   29.2600   37.6050 C   0  0  0  0  0  0  0  0  0  0  0  0
   37.8730   29.7190   39.2240 H   0  0  0  0  0  0  0  0  0  0  0  0
   38.7690   29.6740   36.9730 H   0  0  0  0  0  0  0  0  0  0  0  0
   37.2970   29.3680   35.0490 H   0  0  0  0  0  0  0  0  0  0  0  0
   35.1230   29.0510   34.1860 H   0  0  0  0  0  0  0  0  0  0  0  0
   32.7270   28.7790   34.4910 H   0  0  0  0  0  0  0  0  0  0  0  0
   31.7840   28.7970   36.7150 H   0  0  0  0  0  0  0  0  0  0  0  0
   33.0740   29.0760   38.9230 O   0  0  0  0  0  0  0  0  0  0  0  0
   32.3590   29.7530   39.1950 H   0  0  0  0  0  0  0  0  0  0  0  0
  1  2  1  0  0  0  0
  1 10  1  0  0  0  0
  2  6  1  0  0  0  0
  3  2  2  0  0  0  0
  4  5  1  0  0  0  0
  4  3  1  0  0  0  0
  5  1  2  0  0  0  0
  7  3  1  0  0  0  0
  8 14  1  0  0  0  0
  9 15  1  0  0  0  0
  9  8  2  0  0  0  0
 10  9  1  0  0  0  0
 11 10  2  0  0  0  0
 11 12  1  0  0  0  0
 12 13  2  0  0  0  0
 13  8  1  0  0  0  0
 16 12  1  0  0  0  0
 16 17  2  0  0  0  0
 18 25  1  0  0  0  0
 18 17  1  0  0  0  0
 19 18  1  0  0  0  0
 20 19  2  0  0  0  0
 21 20  1  0  0  0  0
 22 21  2  0  0  0  0
 22 23  1  0  0  0  0
 23 24  2  0  0  0  0
 24 19  1  0  0  0  0
 24 16  1  0  0  0  0
 26  4  1  0  0  0  0
 26 28  1  0  0  0  0
 27 26  1  0  0  0  0
 29 31  1  0  0  0  0
 29 26  1  0  0  0  0
 30 29  1  0  0  0  0
 32 29  1  0  0  0  0
 33 32  1  0  0  0  0
 33 42  1  0  0  0  0
 34 33  2  0  0  0  0
 35 36  2  0  0  0  0
 35 34  1  0  0  0  0
 36 41  1  0  0  0  0
 37 38  2  0  0  0  0
 37 36  1  0  0  0  0
 38 39  1  0  0  0  0
 39 47  1  0  0  0  0
 39 40  2  0  0  0  0
 40 48  1  0  0  0  0
 41 40  1  0  0  0  0
 41 32  2  0  0  0  0
 43 34  1  0  0  0  0
 44 35  1  0  0  0  0
 45 37  1  0  0  0  0
 46 38  1  0  0  0  0
 48 49  1  0  0  0  0
M  END
>  <minimizedAffinity>
-6.08515453

>  <minimizedRMSD>
0.282934815

$$$$
