
 OpenBabel03242509293D

 49 54  0  0  0  0  0  0  0  0999 V2000
   38.6820   28.1050   42.6670 C   0  0  0  0  0  0  0  0  0  0  0  0
   37.5760   27.3140   42.8390 C   0  0  0  0  0  0  0  0  0  0  0  0
   36.5040   28.0060   42.2660 C   0  0  0  0  0  0  0  0  0  0  0  0
   37.0460   29.1400   41.8020 N   0  0  0  0  0  0  0  0  0  0  0  0
   38.3150   29.2310   42.0190 N   0  0  0  0  0  0  0  0  0  0  0  0
   37.5560   26.3430   43.3290 H   0  0  0  0  0  0  0  0  0  0  0  0
   35.5140   27.5890   42.2710 H   0  0  0  0  0  0  0  0  0  0  0  0
   41.5790   26.5480   44.4180 C   0  0  0  0  0  0  0  0  0  0  0  0
   40.2560   26.7890   44.0350 C   0  0  0  0  0  0  0  0  0  0  0  0
   40.0300   27.8090   43.0990 C   0  0  0  0  0  0  0  0  0  0  0  0
   41.0790   28.5160   42.6040 N   0  0  0  0  0  0  0  0  0  0  0  0
   42.3520   28.2280   43.0220 C   0  0  0  0  0  0  0  0  0  0  0  0
   42.5900   27.2580   43.9140 N   0  0  0  0  0  0  0  0  0  0  0  0
   41.7400   25.7510   45.1460 H   0  0  0  0  0  0  0  0  0  0  0  0
   39.4100   26.2280   44.4260 H   0  0  0  0  0  0  0  0  0  0  0  0
   43.4530   29.0080   42.4670 C   0  0  0  0  0  0  0  0  0  0  0  0
   44.6050   28.4900   41.9150 C   0  0  0  0  0  3  0  0  0  0  0  0
   45.3980   29.4990   41.5060 N   0  0  0  0  0  0  0  0  0  0  0  0
   44.7720   30.6490   41.7890 C   0  0  0  0  0  0  0  0  0  0  0  0
   45.1670   31.9540   41.5680 C   0  0  0  0  0  3  0  0  0  0  0  0
   44.3730   33.0300   41.9350 C   0  0  0  0  0  3  0  0  0  0  0  0
   43.1680   32.7170   42.5310 C   0  0  0  0  0  3  0  0  0  0  0  0
   42.7270   31.4210   42.7730 C   0  0  0  0  0  3  0  0  0  0  0  0
   43.5450   30.3820   42.3950 C   0  0  0  0  0  0  0  0  0  0  0  0
   46.3480   29.4010   41.0440 H   0  0  0  0  0  0  0  0  0  0  0  0
   36.2090   30.0880   41.1530 C   0  0  0  0  0  0  0  0  0  0  0  0
   36.8250   30.8880   40.6830 H   0  0  0  0  0  0  0  0  0  0  0  0
   35.6310   30.6010   41.9680 H   0  0  0  0  0  0  0  0  0  0  0  0
   35.3000   29.5390   40.0980 C   0  0  0  0  0  0  0  0  0  0  0  0
   34.6000   30.4370   39.9900 H   0  0  0  0  0  0  0  0  0  0  0  0
   34.8160   28.6440   40.4660 H   0  0  0  0  0  0  0  0  0  0  0  0
   35.9020   29.4520   38.7510 C   0  0  0  0  0  0  0  0  0  0  0  0
   37.2180   29.5980   38.4130 C   0  0  0  0  0  0  0  0  0  0  0  0
   37.7290   29.5800   37.1480 C   0  0  0  0  0  0  0  0  0  0  0  0
   36.8750   29.4020   36.0780 C   0  0  0  0  0  0  0  0  0  0  0  0
   35.5230   29.2470   36.3520 C   0  0  0  0  0  0  0  0  0  0  0  0
   34.7320   29.0780   35.2450 C   0  0  0  0  0  0  0  0  0  0  0  0
   33.3820   28.9150   35.4110 C   0  0  0  0  0  0  0  0  0  0  0  0
   32.8470   28.9200   36.6780 C   0  0  0  0  0  0  0  0  0  0  0  0
   33.6980   29.0930   37.7350 C   0  0  0  0  0  0  0  0  0  0  0  0
   35.0390   29.2670   37.6550 C   0  0  0  0  0  0  0  0  0  0  0  0
   37.9000   29.7390   39.2490 H   0  0  0  0  0  0  0  0  0  0  0  0
   38.7750   29.7020   36.9900 H   0  0  0  0  0  0  0  0  0  0  0  0
   37.2880   29.3910   35.0790 H   0  0  0  0  0  0  0  0  0  0  0  0
   35.1080   29.0650   34.2350 H   0  0  0  0  0  0  0  0  0  0  0  0
   32.7160   28.7790   34.5600 H   0  0  0  0  0  0  0  0  0  0  0  0
   31.7930   28.7890   36.7930 H   0  0  0  0  0  0  0  0  0  0  0  0
   33.1020   29.0720   38.9900 O   0  0  0  0  0  0  0  0  0  0  0  0
   32.3860   29.7440   39.2690 H   0  0  0  0  0  0  0  0  0  0  0  0
  1  2  1  0  0  0  0
  1 10  1  0  0  0  0
  2  6  1  0  0  0  0
  3  7  1  0  0  0  0
  3  2  2  0  0  0  0
  4  5  1  0  0  0  0
  4  3  1  0  0  0  0
  5  1  2  0  0  0  0
  8 14  1  0  0  0  0
  9  8  1  0  0  0  0
  9 15  1  0  0  0  0
 10  9  2  0  0  0  0
 11 12  2  0  0  0  0
 11 10  1  0  0  0  0
 12 13  1  0  0  0  0
 13  8  2  0  0  0  0
 16 12  1  0  0  0  0
 17 16  2  0  0  0  0
 18 19  1  0  0  0  0
 18 17  1  0  0  0  0
 19 24  1  0  0  0  0
 20 19  2  0  0  0  0
 20 21  1  0  0  0  0
 21 22  2  0  0  0  0
 22 23  1  0  0  0  0
 24 16  1  0  0  0  0
 24 23  2  0  0  0  0
 25 18  1  0  0  0  0
 26  4  1  0  0  0  0
 26 28  1  0  0  0  0
 27 26  1  0  0  0  0
 29 31  1  0  0  0  0
 29 26  1  0  0  0  0
 30 29  1  0  0  0  0
 32 29  1  0  0  0  0
 33 32  1  0  0  0  0
 33 42  1  0  0  0  0
 34 33  2  0  0  0  0
 35 36  2  0  0  0  0
 35 34  1  0  0  0  0
 36 41  1  0  0  0  0
 37 38  2  0  0  0  0
 37 36  1  0  0  0  0
 38 39  1  0  0  0  0
 39 47  1  0  0  0  0
 39 40  2  0  0  0  0
 40 48  1  0  0  0  0
 41 40  1  0  0  0  0
 41 32  2  0  0  0  0
 43 34  1  0  0  0  0
 44 35  1  0  0  0  0
 45 37  1  0  0  0  0
 46 38  1  0  0  0  0
 48 49  1  0  0  0  0
M  END
>  <minimizedAffinity>
-6.20592642

>  <minimizedRMSD>
0.498966128

$$$$
