
 OpenBabel03242500163D

 35 38  0  0  1  0  0  0  0  0999 V2000
   37.5670   29.1050   41.9230 C   0  0  2  0  0  0  0  0  0  0  0  0
   37.4370   28.9180   43.3810 C   0  0  0  0  0  0  0  0  0  0  0  0
   36.8160   27.6140   43.7970 C   0  0  0  0  0  0  0  0  0  0  0  0
   36.8900   26.5260   42.7920 C   0  0  0  0  0  0  0  0  0  0  0  0
   38.1290   26.6770   41.9530 C   0  0  0  0  0  0  0  0  0  0  0  0
   38.1240   27.9320   41.1520 C   0  0  1  0  0  0  0  0  0  0  0  0
   36.5280   29.2520   41.4950 H   0  0  0  0  0  0  0  0  0  0  0  0
   36.6880   29.7050   43.7280 H   0  0  0  0  0  0  0  0  0  0  0  0
   38.3210   29.1340   44.0010 H   0  0  0  0  0  0  0  0  0  0  0  0
   37.3280   27.2560   44.7140 H   0  0  0  0  0  0  0  0  0  0  0  0
   35.7420   27.7220   44.1100 H   0  0  0  0  0  0  0  0  0  0  0  0
   36.8670   25.5280   43.2630 H   0  0  0  0  0  0  0  0  0  0  0  0
   36.0220   26.5820   42.0900 H   0  0  0  0  0  0  0  0  0  0  0  0
   38.9930   26.6290   42.6750 H   0  0  0  0  0  0  0  0  0  0  0  0
   38.1950   25.7810   41.3080 H   0  0  0  0  0  0  0  0  0  0  0  0
   39.2050   28.1580   40.9200 H   0  0  0  0  0  0  0  0  0  0  0  0
   37.4310   27.6960   39.8720 C   0  0  0  0  0  0  0  0  0  0  0  0
   37.8880   26.9730   38.7790 C   0  0  0  0  0  0  0  0  0  0  0  0
   36.9800   26.9710   37.7830 N   0  0  0  0  0  0  0  0  0  0  0  0
   35.9280   27.6810   38.1930 C   0  0  0  0  0  0  0  0  0  0  0  0
   34.7110   28.0440   37.6580 C   0  0  0  0  0  0  0  0  0  0  0  0
   33.7710   28.8150   38.3290 C   0  0  0  0  0  0  0  0  0  0  0  0
   34.0660   29.2530   39.6150 C   0  0  0  0  0  0  0  0  0  0  0  0
   35.2670   28.9020   40.1580 C   0  0  0  0  0  0  0  0  0  0  0  0
   36.1770   28.1340   39.4620 C   0  0  0  0  0  0  0  0  0  0  0  0
   37.0610   26.5070   36.8500 H   0  0  0  0  0  0  0  0  0  0  0  0
   38.3920   30.3050   41.6570 C   0  0  0  0  0  0  0  0  0  0  0  0
   39.6740   30.2690   42.2240 C   0  0  0  0  0  0  0  0  0  0  0  0
   40.5430   31.3500   42.0460 C   0  0  0  0  0  0  0  0  0  0  0  0
   40.0700   32.4060   41.3060 N   0  0  0  0  0  0  0  0  0  0  0  0
   38.8290   32.4140   40.7710 C   0  0  0  0  0  0  0  0  0  0  0  0
   37.9830   31.3610   40.9430 N   0  0  0  0  0  0  0  0  0  0  0  0
   40.2070   29.5370   42.8050 H   0  0  0  0  0  0  0  0  0  0  0  0
   41.5390   31.4830   42.4060 H   0  0  0  0  0  0  0  0  0  0  0  0
   38.5460   33.2940   40.2020 H   0  0  0  0  0  0  0  0  0  0  0  0
  1  7  1  6  0  0  0
  1  2  1  0  0  0  0
  2  8  1  0  0  0  0
  2  3  1  0  0  0  0
  2  9  1  0  0  0  0
  3 11  1  0  0  0  0
  3 10  1  0  0  0  0
  4 12  1  0  0  0  0
  4  3  1  0  0  0  0
  5 14  1  0  0  0  0
  5  4  1  0  0  0  0
  6 16  1  6  0  0  0
  6  1  1  0  0  0  0
  6  5  1  0  0  0  0
 13  4  1  0  0  0  0
 15  5  1  0  0  0  0
 17  6  1  0  0  0  0
 18 17  2  0  0  0  0
 19 20  1  0  0  0  0
 19 18  1  0  0  0  0
 20 25  1  0  0  0  0
 21 20  2  0  0  0  0
 21 22  1  0  0  0  0
 22 23  2  0  0  0  0
 23 24  1  0  0  0  0
 25 17  1  0  0  0  0
 25 24  2  0  0  0  0
 26 19  1  0  0  0  0
 27  1  1  0  0  0  0
 27 28  1  0  0  0  0
 28 33  1  0  0  0  0
 29 28  2  0  0  0  0
 29 34  1  0  0  0  0
 30 29  1  0  0  0  0
 31 32  1  0  0  0  0
 31 30  2  0  0  0  0
 32 27  2  0  0  0  0
 35 31  1  0  0  0  0
M  END
>  <minimizedAffinity>
-5.55727482

>  <minimizedRMSD>
2.53685522

$$$$
