
 OpenBabel03242509283D

 49 54  0  0  0  0  0  0  0  0999 V2000
   38.6990   28.1560   42.7390 C   0  0  0  0  0  0  0  0  0  0  0  0
   37.6240   27.3140   42.8520 C   0  0  0  0  0  0  0  0  0  0  0  0
   36.5460   27.9680   42.2460 C   0  0  0  0  0  0  0  0  0  0  0  0
   37.0550   29.1330   41.8240 N   0  0  0  0  0  0  0  0  0  0  0  0
   38.3080   29.2760   42.0950 N   0  0  0  0  0  0  0  0  0  0  0  0
   37.6280   26.3350   43.3250 H   0  0  0  0  0  0  0  0  0  0  0  0
   35.5760   27.5070   42.2040 H   0  0  0  0  0  0  0  0  0  0  0  0
   41.6620   26.5130   44.2900 C   0  0  0  0  0  0  0  0  0  0  0  0
   40.3500   26.6930   43.8410 C   0  0  0  0  0  0  0  0  0  0  0  0
   40.0410   27.9130   43.2220 C   0  0  0  0  0  0  0  0  0  0  0  0
   41.0020   28.8610   43.0800 N   0  0  0  0  0  0  0  0  0  0  0  0
   42.2700   28.6210   43.5430 C   0  0  0  0  0  0  0  0  0  0  0  0
   42.5870   27.4630   44.1370 N   0  0  0  0  0  0  0  0  0  0  0  0
   41.8880   25.5600   44.7700 H   0  0  0  0  0  0  0  0  0  0  0  0
   39.5730   25.9390   43.9500 H   0  0  0  0  0  0  0  0  0  0  0  0
   43.2750   29.6640   43.3720 C   0  0  0  0  0  0  0  0  0  0  0  0
   43.7310   30.1500   42.1650 C   0  0  0  0  0  3  0  0  0  0  0  0
   44.6550   31.1020   42.3860 N   0  0  0  0  0  0  0  0  0  0  0  0
   44.7980   31.2320   43.7120 C   0  0  0  0  0  0  0  0  0  0  0  0
   45.6180   32.0720   44.4400 C   0  0  0  0  0  3  0  0  0  0  0  0
   45.6260   32.0620   45.8260 C   0  0  0  0  0  3  0  0  0  0  0  0
   44.7660   31.1650   46.4310 C   0  0  0  0  0  3  0  0  0  0  0  0
   43.9240   30.3030   45.7410 C   0  0  0  0  0  3  0  0  0  0  0  0
   43.9450   30.3430   44.3670 C   0  0  0  0  0  0  0  0  0  0  0  0
   45.1780   31.6530   41.6440 H   0  0  0  0  0  0  0  0  0  0  0  0
   36.2020   30.0540   41.1570 C   0  0  0  0  0  0  0  0  0  0  0  0
   36.8050   30.8590   40.6780 H   0  0  0  0  0  0  0  0  0  0  0  0
   35.6100   30.5680   41.9610 H   0  0  0  0  0  0  0  0  0  0  0  0
   35.3110   29.4710   40.1050 C   0  0  0  0  0  0  0  0  0  0  0  0
   34.5850   30.3490   39.9910 H   0  0  0  0  0  0  0  0  0  0  0  0
   34.8520   28.5660   40.4790 H   0  0  0  0  0  0  0  0  0  0  0  0
   35.9150   29.3930   38.7590 C   0  0  0  0  0  0  0  0  0  0  0  0
   37.2350   29.5150   38.4270 C   0  0  0  0  0  0  0  0  0  0  0  0
   37.7500   29.5070   37.1640 C   0  0  0  0  0  0  0  0  0  0  0  0
   36.8970   29.3640   36.0890 C   0  0  0  0  0  0  0  0  0  0  0  0
   35.5410   29.2330   36.3550 C   0  0  0  0  0  0  0  0  0  0  0  0
   34.7500   29.0980   35.2430 C   0  0  0  0  0  0  0  0  0  0  0  0
   33.3970   28.9620   35.4020 C   0  0  0  0  0  0  0  0  0  0  0  0
   32.8580   28.9580   36.6670 C   0  0  0  0  0  0  0  0  0  0  0  0
   33.7070   29.0970   37.7300 C   0  0  0  0  0  0  0  0  0  0  0  0
   35.0520   29.2440   37.6570 C   0  0  0  0  0  0  0  0  0  0  0  0
   37.9170   29.6290   39.2680 H   0  0  0  0  0  0  0  0  0  0  0  0
   38.8000   29.6090   37.0110 H   0  0  0  0  0  0  0  0  0  0  0  0
   37.3130   29.3600   35.0910 H   0  0  0  0  0  0  0  0  0  0  0  0
   35.1300   29.0940   34.2350 H   0  0  0  0  0  0  0  0  0  0  0  0
   32.7310   28.8540   34.5480 H   0  0  0  0  0  0  0  0  0  0  0  0
   31.8000   28.8490   36.7770 H   0  0  0  0  0  0  0  0  0  0  0  0
   33.1070   29.0690   38.9820 O   0  0  0  0  0  0  0  0  0  0  0  0
   32.4040   29.7520   39.2700 H   0  0  0  0  0  0  0  0  0  0  0  0
  1  2  1  0  0  0  0
  1 10  1  0  0  0  0
  2  6  1  0  0  0  0
  3  2  2  0  0  0  0
  4  5  1  0  0  0  0
  4  3  1  0  0  0  0
  5  1  2  0  0  0  0
  7  3  1  0  0  0  0
  8 14  1  0  0  0  0
  9 15  1  0  0  0  0
  9  8  2  0  0  0  0
 10  9  1  0  0  0  0
 11 10  2  0  0  0  0
 11 12  1  0  0  0  0
 12 13  2  0  0  0  0
 13  8  1  0  0  0  0
 16 12  1  0  0  0  0
 16 24  1  0  0  0  0
 17 18  1  0  0  0  0
 17 16  2  0  0  0  0
 18 19  1  0  0  0  0
 19 24  2  0  0  0  0
 19 20  1  0  0  0  0
 20 21  2  0  0  0  0
 21 22  1  0  0  0  0
 23 22  2  0  0  0  0
 24 23  1  0  0  0  0
 25 18  1  0  0  0  0
 26  4  1  0  0  0  0
 26 28  1  0  0  0  0
 27 26  1  0  0  0  0
 29 31  1  0  0  0  0
 29 26  1  0  0  0  0
 30 29  1  0  0  0  0
 32 29  1  0  0  0  0
 33 32  1  0  0  0  0
 33 42  1  0  0  0  0
 34 33  2  0  0  0  0
 35 36  2  0  0  0  0
 35 34  1  0  0  0  0
 36 41  1  0  0  0  0
 37 38  2  0  0  0  0
 37 36  1  0  0  0  0
 38 39  1  0  0  0  0
 39 47  1  0  0  0  0
 39 40  2  0  0  0  0
 40 48  1  0  0  0  0
 41 40  1  0  0  0  0
 41 32  2  0  0  0  0
 43 34  1  0  0  0  0
 44 35  1  0  0  0  0
 45 37  1  0  0  0  0
 46 38  1  0  0  0  0
 48 49  1  0  0  0  0
M  END
>  <minimizedAffinity>
-6.71482515

>  <minimizedRMSD>
0.588552356

$$$$
