
     RDKit          3D

 54 59  0  0  0  0  0  0  0  0999 V2000
   35.2845   29.4942   40.0744 C   0  0  0  0  0  0  0  0  0  0  0  0
   35.8896   29.4310   38.7267 C   0  0  0  0  0  0  0  0  0  0  0  0
   37.2041   29.5983   38.3929 C   0  0  0  0  0  0  0  0  0  0  0  0
   37.7172   29.6022   37.1289 C   0  0  0  0  0  0  0  0  0  0  0  0
   36.8680   29.4254   36.0563 C   0  0  0  0  0  0  0  0  0  0  0  0
   35.5173   29.2479   36.3248 C   0  0  0  0  0  0  0  0  0  0  0  0
   34.7297   29.0809   35.2153 C   0  0  0  0  0  0  0  0  0  0  0  0
   33.3834   28.8975   35.3768 C   0  0  0  0  0  0  0  0  0  0  0  0
   32.8465   28.8813   36.6427 C   0  0  0  0  0  0  0  0  0  0  0  0
   33.6922   29.0536   37.7039 C   0  0  0  0  0  0  0  0  0  0  0  0
   35.0305   29.2468   37.6283 C   0  0  0  0  0  0  0  0  0  0  0  0
   33.0950   29.0098   38.9570 O   0  0  0  0  0  0  0  0  0  0  0  0
   36.1723   30.0756   41.1297 C   0  0  0  0  0  0  0  0  0  0  0  0
   38.6528   28.1623   42.7185 C   0  0  0  0  0  0  0  0  0  0  0  0
   37.5602   27.3495   42.8744 C   0  0  0  0  0  0  0  0  0  0  0  0
   36.4874   28.0125   42.2699 C   0  0  0  0  0  0  0  0  0  0  0  0
   37.0154   29.1534   41.8067 N   0  0  0  0  0  0  0  0  0  0  0  0
   38.2764   29.2734   42.0509 N   0  0  0  0  0  0  0  0  0  0  0  0
   41.5782   26.5509   44.3709 C   0  0  0  0  0  0  0  0  0  0  0  0
   40.2606   26.7534   43.9468 C   0  0  0  0  0  0  0  0  0  0  0  0
   39.9970   27.8993   43.1832 C   0  0  0  0  0  0  0  0  0  0  0  0
   41.0046   28.7588   42.8847 N   0  0  0  0  0  0  0  0  0  0  0  0
   42.2748   28.5017   43.3318 C   0  0  0  0  0  0  0  0  0  0  0  0
   42.5493   27.4135   44.0624 N   0  0  0  0  0  0  0  0  0  0  0  0
   34.5524   30.3657   39.9668 H   0  0  0  0  0  0  0  0  0  0  0  0
   34.8339   28.5819   40.4413 H   0  0  0  0  0  0  0  0  0  0  0  0
   37.8829   29.7394   39.2318 H   0  0  0  0  0  0  0  0  0  0  0  0
   38.7616   29.7403   36.9735 H   0  0  0  0  0  0  0  0  0  0  0  0
   37.2815   29.4315   35.0575 H   0  0  0  0  0  0  0  0  0  0  0  0
   35.1081   29.0846   34.2058 H   0  0  0  0  0  0  0  0  0  0  0  0
   32.7198   28.7630   34.5243 H   0  0  0  0  0  0  0  0  0  0  0  0
   31.7934   28.7355   36.7554 H   0  0  0  0  0  0  0  0  0  0  0  0
   32.3688   29.6690   39.2433 H   0  0  0  0  0  0  0  0  0  0  0  0
   36.7819   30.8762   40.6527 H   0  0  0  0  0  0  0  0  0  0  0  0
   35.5769   30.5958   41.9285 H   0  0  0  0  0  0  0  0  0  0  0  0
   37.5496   26.3832   43.3728 H   0  0  0  0  0  0  0  0  0  0  0  0
   35.5058   27.5743   42.2584 H   0  0  0  0  0  0  0  0  0  0  0  0
   41.7689   25.6548   44.9644 H   0  0  0  0  0  0  0  0  0  0  0  0
   39.4469   26.0696   44.1814 H   0  0  0  0  0  0  0  0  0  0  0  0
   43.3311   29.4478   42.9913 C   0  0  0  0  0  0  0  0  0  0  0  0
   44.1262   29.3926   41.8657 C   0  0  0  0  0  0  0  0  0  0  0  0
   44.9909   30.4241   41.8781 N   0  0  0  0  0  0  0  0  0  0  0  0
   44.7620   31.1353   42.9896 C   0  0  0  0  0  0  0  0  0  0  0  0
   45.3801   32.2778   43.4573 C   0  0  0  0  0  0  0  0  0  0  0  0
   44.9997   32.8794   44.6472 C   0  0  0  0  0  0  0  0  0  0  0  0
   43.9683   32.2674   45.3329 C   0  0  0  0  0  0  0  0  0  0  0  0
   43.3168   31.1179   44.9018 C   0  0  0  0  0  0  0  0  0  0  0  0
   43.7241   30.5525   43.7171 C   0  0  0  0  0  0  0  0  0  0  0  0
   44.0836   28.6465   41.0777 H   0  0  0  0  0  0  0  0  0  0  0  0
   45.7233   30.6365   41.1395 H   0  0  0  0  0  0  0  0  0  0  0  0
   46.1973   32.7819   42.9358 H   0  0  0  0  0  0  0  0  0  0  0  0
   45.4289   33.7619   45.0730 H   0  0  0  0  0  0  0  0  0  0  0  0
   43.6301   32.7051   46.2807 H   0  0  0  0  0  0  0  0  0  0  0  0
   42.5147   30.6612   45.4569 H   0  0  0  0  0  0  0  0  0  0  0  0
  1 13  1  0
  2  1  1  0
  3  2  2  0
  4  3  1  0
  5  6  1  0
  5  4  2  0
  6 11  2  0
  7  8  2  0
  7  6  1  0
  8  9  1  0
  9 10  2  0
 10 12  1  0
 11 10  1  0
 11  2  1  0
 13 17  1  0
 14 15  1  0
 14 21  1  0
 16 15  2  0
 17 18  1  0
 17 16  1  0
 18 14  2  0
 20 19  2  0
 21 20  1  0
 22 21  2  0
 22 23  1  0
 23 24  2  0
 24 19  1  0
  1 25  1  0
  1 26  1  0
  3 27  1  0
  4 28  1  0
  5 29  1  0
  7 30  1  0
  8 31  1  0
  9 32  1  0
 12 33  1  0
 13 34  1  0
 13 35  1  0
 15 36  1  0
 16 37  1  0
 19 38  1  0
 20 39  1  0
 40 41  2  0
 41 42  1  0
 42 43  1  0
 43 44  2  0
 44 45  1  0
 45 46  2  0
 46 47  1  0
 47 48  2  0
 48 40  1  0
 48 43  1  0
 41 49  1  0
 42 50  1  0
 44 51  1  0
 45 52  1  0
 46 53  1  0
 47 54  1  0
 23 40  1  0
M  ISO  8  25   8  26   8  27  14  28  14  29  14  30  14  31  14  32  14
M  ISO  7  33   3  34   8  35   8  36  14  37  14  38  14  39  14
M  END
>  <DihAtoms>  (1) 
21,22,39,40

>  <DihDeg>  (1) 
-179.9978246275706

$$$$
