
 OpenBabel03242508163D

 49 54  0  0  1  0  0  0  0  0999 V2000
   43.1750   34.4580   41.9740 C   0  0  2  0  0  0  0  0  0  0  0  0
   42.5000   34.0690   42.7620 H   0  0  0  0  0  0  0  0  0  0  0  0
   43.4880   35.9210   42.4740 C   0  0  0  0  0  0  0  0  0  0  0  0
   44.1130   36.4280   41.7200 H   0  0  0  0  0  0  0  0  0  0  0  0
   42.5070   36.3870   42.5950 H   0  0  0  0  0  0  0  0  0  0  0  0
   43.9940   35.7570   43.4320 H   0  0  0  0  0  0  0  0  0  0  0  0
   44.4610   33.7480   41.7750 C   0  0  0  0  0  0  0  0  0  0  0  0
   44.3800   33.0210   40.9470 H   0  0  0  0  0  0  0  0  0  0  0  0
   45.2530   34.5020   41.6000 H   0  0  0  0  0  0  0  0  0  0  0  0
   44.7500   33.0060   42.9930 N   0  0  0  0  0  0  0  0  0  0  0  0
   45.9390   33.0380   43.6430 C   0  0  0  0  0  0  0  0  0  0  0  0
   45.8690   32.2350   44.7340 N   0  0  0  0  0  0  0  0  0  0  0  0
   44.6100   31.7030   44.7480 C   0  0  0  0  0  0  0  0  0  0  0  0
   43.9620   32.2000   43.6680 N   0  0  0  0  0  0  0  0  0  0  0  0
   46.8380   33.6050   43.3700 H   0  0  0  0  0  0  0  0  0  0  0  0
   44.2740   30.7960   45.8320 C   0  0  0  0  0  0  0  0  0  0  0  0
   44.4000   31.1890   47.1450 C   0  0  0  0  0  0  0  0  0  0  0  0
   44.0910   30.3560   48.2090 C   0  0  0  0  0  0  0  0  0  0  0  0
   43.6360   29.0790   47.9990 C   0  0  0  0  0  0  0  0  0  0  0  0
   43.4960   28.6480   46.6980 C   0  0  0  0  0  0  0  0  0  0  0  0
   43.0390   27.3650   46.4810 C   0  0  0  0  0  0  0  0  0  0  0  0
   42.8770   26.8750   45.2020 C   0  0  0  0  0  0  0  0  0  0  0  0
   43.1970   27.7340   44.1440 C   0  0  0  0  0  0  0  0  0  0  0  0
   43.6480   29.0040   44.4220 C   0  0  0  0  0  0  0  0  0  0  0  0
   43.8160   29.5120   45.6760 C   0  0  0  0  0  0  0  0  0  0  0  0
   42.4690   34.6580   40.7640 O   0  0  0  0  0  0  0  0  0  0  0  0
   38.9670   35.4010   40.2460 C   0  0  0  0  0  0  0  0  0  0  0  0
   40.3420   35.6580   40.3930 C   0  0  0  0  0  0  0  0  0  0  0  0
   41.1660   34.5300   40.6100 C   0  0  0  0  0  0  0  0  0  0  0  0
   40.5520   33.3610   40.6490 N   0  0  0  0  0  0  0  0  0  0  0  0
   39.2790   33.0800   40.5170 C   0  0  0  0  0  0  0  0  0  0  0  0
   38.5200   34.1500   40.3140 N   0  0  0  0  0  0  0  0  0  0  0  0
   38.3460   36.2730   40.0800 H   0  0  0  0  0  0  0  0  0  0  0  0
   40.7520   36.6530   40.3450 H   0  0  0  0  0  0  0  0  0  0  0  0
   38.5150   31.8430   40.5470 C   0  0  0  0  0  0  0  0  0  0  0  0
   38.2720   31.1380   41.6600 N   0  0  0  0  0  0  0  0  0  0  0  0
   37.5810   30.0090   41.7180 C   0  0  0  0  0  0  0  0  0  0  0  0
   37.0600   29.4770   40.6350 N   0  0  0  0  0  0  0  0  0  0  0  0
   37.2280   30.0860   39.4370 C   0  0  0  0  0  0  0  0  0  0  0  0
   36.6860   29.5360   38.3050 C   0  0  0  0  0  0  0  0  0  0  0  0
   36.8340   30.1250   37.0810 C   0  0  0  0  0  0  0  0  0  0  0  0
   37.5770   31.3400   37.0140 C   0  0  0  0  0  0  0  0  0  0  0  0
   38.0870   31.8240   38.1940 C   0  0  0  0  0  0  0  0  0  0  0  0
   37.9540   31.2580   39.4210 C   0  0  0  0  0  0  0  0  0  0  0  0
   37.4490   29.5250   42.6770 H   0  0  0  0  0  0  0  0  0  0  0  0
   36.1210   28.6080   38.3740 H   0  0  0  0  0  0  0  0  0  0  0  0
   36.4120   29.7040   36.1800 H   0  0  0  0  0  0  0  0  0  0  0  0
   37.7250   31.8460   36.0770 H   0  0  0  0  0  0  0  0  0  0  0  0
   38.6560   32.7600   38.1180 H   0  0  0  0  0  0  0  0  0  0  0  0
  1  3  1  0  0  0  0
  1  2  1  1  0  0  0
  3  5  1  0  0  0  0
  3  6  1  0  0  0  0
  4  3  1  0  0  0  0
  7  1  1  0  0  0  0
  7 10  1  0  0  0  0
  8  7  1  0  0  0  0
  9  7  1  0  0  0  0
 10 11  1  0  0  0  0
 10 14  1  0  0  0  0
 11 12  2  0  0  0  0
 12 13  1  0  0  0  0
 13 16  1  0  0  0  0
 14 13  2  0  0  0  0
 15 11  1  0  0  0  0
 16 17  1  0  0  0  0
 17 18  2  0  0  0  0
 19 18  1  0  0  0  0
 20 19  2  0  0  0  0
 21 20  1  0  0  0  0
 22 21  2  0  0  0  0
 23 24  2  0  0  0  0
 23 22  1  0  0  0  0
 24 25  1  0  0  0  0
 25 16  2  0  0  0  0
 25 20  1  0  0  0  0
 26  1  1  0  0  0  0
 27 32  2  0  0  0  0
 27 28  1  0  0  0  0
 28 29  2  0  0  0  0
 29 30  1  0  0  0  0
 29 26  1  0  0  0  0
 31 35  1  0  0  0  0
 31 30  2  0  0  0  0
 32 31  1  0  0  0  0
 33 27  1  0  0  0  0
 34 28  1  0  0  0  0
 35 36  1  0  0  0  0
 36 37  2  0  0  0  0
 37 45  1  0  0  0  0
 38 37  1  0  0  0  0
 39 38  2  0  0  0  0
 40 46  1  0  0  0  0
 40 39  1  0  0  0  0
 41 40  2  0  0  0  0
 42 41  1  0  0  0  0
 42 43  2  0  0  0  0
 43 44  1  0  0  0  0
 44 39  1  0  0  0  0
 44 35  2  0  0  0  0
 47 41  1  0  0  0  0
 48 42  1  0  0  0  0
 49 43  1  0  0  0  0
M  END
>  <minimizedAffinity>
-7.90786266

>  <minimizedRMSD>
1.47140503

$$$$
