
     RDKit          3D

 56 61  0  0  0  0  0  0  0  0999 V2000
   35.2856   29.4968   40.0769 C   0  0  0  0  0  0  0  0  0  0  0  0
   35.8903   29.4250   38.7213 C   0  0  0  0  0  0  0  0  0  0  0  0
   37.2063   29.5844   38.3959 C   0  0  0  0  0  0  0  0  0  0  0  0
   37.7181   29.5872   37.1298 C   0  0  0  0  0  0  0  0  0  0  0  0
   36.8661   29.4186   36.0592 C   0  0  0  0  0  0  0  0  0  0  0  0
   35.5141   29.2497   36.3287 C   0  0  0  0  0  0  0  0  0  0  0  0
   34.7223   29.0879   35.2158 C   0  0  0  0  0  0  0  0  0  0  0  0
   33.3767   28.9108   35.3791 C   0  0  0  0  0  0  0  0  0  0  0  0
   32.8415   28.8948   36.6456 C   0  0  0  0  0  0  0  0  0  0  0  0
   33.6911   29.0618   37.7096 C   0  0  0  0  0  0  0  0  0  0  0  0
   35.0300   29.2489   37.6252 C   0  0  0  0  0  0  0  0  0  0  0  0
   33.0942   29.0173   38.9598 O   0  0  0  0  0  0  0  0  0  0  0  0
   36.1656   30.0781   41.1352 C   0  0  0  0  0  0  0  0  0  0  0  0
   38.6605   28.1441   42.7010 C   0  0  0  0  0  0  0  0  0  0  0  0
   37.5678   27.3244   42.8576 C   0  0  0  0  0  0  0  0  0  0  0  0
   36.4958   28.0000   42.2623 C   0  0  0  0  0  0  0  0  0  0  0  0
   37.0209   29.1573   41.8007 N   0  0  0  0  0  0  0  0  0  0  0  0
   38.2863   29.2773   42.0390 N   0  0  0  0  0  0  0  0  0  0  0  0
   41.5703   26.5801   44.3960 C   0  0  0  0  0  0  0  0  0  0  0  0
   40.2600   26.7555   43.9476 C   0  0  0  0  0  0  0  0  0  0  0  0
   40.0039   27.8803   43.1640 C   0  0  0  0  0  0  0  0  0  0  0  0
   40.9982   28.7296   42.8747 N   0  0  0  0  0  0  0  0  0  0  0  0
   42.2831   28.5240   43.3366 C   0  0  0  0  0  0  0  0  0  0  0  0
   42.5380   27.4392   44.0966 N   0  0  0  0  0  0  0  0  0  0  0  0
   34.5576   30.3683   39.9525 H   0  0  0  0  0  0  0  0  0  0  0  0
   34.8331   28.5864   40.4404 H   0  0  0  0  0  0  0  0  0  0  0  0
   37.8857   29.7187   39.2303 H   0  0  0  0  0  0  0  0  0  0  0  0
   38.7691   29.7190   36.9734 H   0  0  0  0  0  0  0  0  0  0  0  0
   37.2699   29.4227   35.0563 H   0  0  0  0  0  0  0  0  0  0  0  0
   35.1202   29.0947   34.2104 H   0  0  0  0  0  0  0  0  0  0  0  0
   32.7496   28.7851   34.5004 H   0  0  0  0  0  0  0  0  0  0  0  0
   31.7773   28.7526   36.7703 H   0  0  0  0  0  0  0  0  0  0  0  0
   32.2349   29.5457   39.1191 H   0  0  0  0  0  0  0  0  0  0  0  0
   35.5529   30.5567   41.9343 H   0  0  0  0  0  0  0  0  0  0  0  0
   36.7622   30.9004   40.6792 H   0  0  0  0  0  0  0  0  0  0  0  0
   37.6205   26.3644   43.3559 H   0  0  0  0  0  0  0  0  0  0  0  0
   35.5140   27.5839   42.2407 H   0  0  0  0  0  0  0  0  0  0  0  0
   41.8270   25.7314   45.0035 H   0  0  0  0  0  0  0  0  0  0  0  0
   39.4964   26.0370   44.2099 H   0  0  0  0  0  0  0  0  0  0  0  0
   43.1682   29.5903   42.8809 C   0  0  0  0  0  0  0  0  0  0  0  0
   42.7030   30.7712   42.3615 C   0  0  0  0  0  0  0  0  0  0  0  0
   43.4770   31.7966   41.9229 C   0  0  0  0  0  0  0  0  0  0  0  0
   44.8480   31.7024   41.9783 C   0  0  0  0  0  0  0  0  0  0  0  0
   45.3924   30.5457   42.4880 C   0  0  0  0  0  0  0  0  0  0  0  0
   46.7655   30.4382   42.5496 C   0  0  0  0  0  0  0  0  0  0  0  0
   47.3653   29.3019   43.0514 C   0  0  0  0  0  0  0  0  0  0  0  0
   46.5172   28.2777   43.4887 C   0  0  0  0  0  0  0  0  0  0  0  0
   45.1672   28.4362   43.4052 C   0  0  0  0  0  0  0  0  0  0  0  0
   44.5410   29.5538   42.9113 C   0  0  0  0  0  0  0  0  0  0  0  0
   41.6212   30.9569   42.2693 H   0  0  0  0  0  0  0  0  0  0  0  0
   43.0552   32.7020   41.5240 H   0  0  0  0  0  0  0  0  0  0  0  0
   45.4466   32.5277   41.6250 H   0  0  0  0  0  0  0  0  0  0  0  0
   47.3671   31.2823   42.1881 H   0  0  0  0  0  0  0  0  0  0  0  0
   48.4420   29.3189   43.0555 H   0  0  0  0  0  0  0  0  0  0  0  0
   47.0256   27.4019   43.8760 H   0  0  0  0  0  0  0  0  0  0  0  0
   44.6207   27.6052   43.7618 H   0  0  0  0  0  0  0  0  0  0  0  0
  1 13  1  0
  2  1  1  0
  3  2  2  0
  4  3  1  0
  5  6  1  0
  5  4  2  0
  6 11  2  0
  7  8  2  0
  7  6  1  0
  8  9  1  0
  9 10  2  0
 10 12  1  0
 11 10  1  0
 11  2  1  0
 13 17  1  0
 14 15  1  0
 14 21  1  0
 16 15  2  0
 17 18  1  0
 17 16  1  0
 18 14  2  0
 20 19  2  0
 21 20  1  0
 22 21  2  0
 22 23  1  0
 23 24  2  0
 24 19  1  0
  1 25  1  0
  1 26  1  0
  3 27  1  0
  4 28  1  0
  5 29  1  0
  7 30  1  0
  8 31  1  0
  9 32  1  0
 12 33  1  0
 13 34  1  0
 13 35  1  0
 15 36  1  0
 16 37  1  0
 19 38  1  0
 20 39  1  0
 40 41  2  0
 41 42  1  0
 42 43  2  0
 43 44  1  0
 44 45  2  0
 45 46  1  0
 46 47  2  0
 47 48  1  0
 48 49  2  0
 49 40  1  0
 49 44  1  0
 41 50  1  0
 42 51  1  0
 43 52  1  0
 45 53  1  0
 46 54  1  0
 47 55  1  0
 48 56  1  0
 23 40  1  0
M  ISO  8  25   8  26   8  27  14  28  14  29  14  30  14  31  14  32  14
M  ISO  7  33   3  34   8  35   8  36  14  37  14  38  14  39  14
M  END
>  <DihAtoms>  (1) 
21,22,39,40

>  <DihDeg>  (1) 
-0.2439157505020655

$$$$
