
 OpenBabel03242508463D

 37 41  0  0  1  0  0  0  0  0999 V2000
   37.9170   27.3740   42.7290 C   0  0  2  0  0  0  0  0  0  0  0  0
   39.0100   27.7020   43.6560 C   0  0  0  0  0  0  0  0  0  0  0  0
   39.7500   26.3910   43.8620 C   0  0  0  0  0  0  0  0  0  0  0  0
   39.2940   25.4890   42.7720 C   0  0  0  0  0  0  0  0  0  0  0  0
   38.5280   26.3690   41.7740 C   0  0  1  0  0  0  0  0  0  0  0  0
   37.1210   26.8020   43.2820 H   0  0  0  0  0  0  0  0  0  0  0  0
   39.7720   28.3940   43.2640 H   0  0  0  0  0  0  0  0  0  0  0  0
   38.6000   28.0100   44.6330 H   0  0  0  0  0  0  0  0  0  0  0  0
   39.4970   25.9560   44.8680 H   0  0  0  0  0  0  0  0  0  0  0  0
   40.8430   26.5080   43.8770 H   0  0  0  0  0  0  0  0  0  0  0  0
   40.2060   25.1280   42.2120 H   0  0  0  0  0  0  0  0  0  0  0  0
   38.6960   24.6830   43.1890 H   0  0  0  0  0  0  0  0  0  0  0  0
   39.1710   26.8390   41.0350 H   0  0  0  0  0  0  0  0  0  0  0  0
   37.9270   29.7720   41.8700 C   0  0  0  0  0  0  0  0  0  0  0  0
   37.3150   28.4980   42.0260 C   0  0  0  0  0  0  0  0  0  0  0  0
   36.0640   28.2970   41.4720 C   0  0  0  0  0  0  0  0  0  0  0  0
   35.4690   29.3380   40.7970 N   0  0  0  0  0  0  0  0  0  0  0  0
   36.0880   30.5630   40.6620 C   0  0  0  0  0  0  0  0  0  0  0  0
   37.3380   30.7670   41.2130 N   0  0  0  0  0  0  0  0  0  0  0  0
   38.8860   29.9180   42.2960 H   0  0  0  0  0  0  0  0  0  0  0  0
   35.4750   27.4020   41.5030 H   0  0  0  0  0  0  0  0  0  0  0  0
   35.5680   31.3420   40.1190 H   0  0  0  0  0  0  0  0  0  0  0  0
   37.5390   25.4050   41.2230 C   0  0  0  0  0  0  0  0  0  0  0  0
   36.9160   24.4800   41.9490 N   0  0  0  0  0  0  0  0  0  0  0  0
   36.1360   23.8180   41.1380 O   0  0  0  0  0  0  0  0  0  0  0  0
   36.2450   24.2940   39.9260 C   0  0  0  0  0  0  0  0  0  0  0  0
   37.1180   25.2900   39.9500 N   0  0  0  0  0  0  0  0  0  0  0  0
   35.6450   23.9810   38.6220 C   0  0  0  0  0  0  0  0  0  0  0  0
   36.2060   24.2840   37.4010 C   0  0  0  0  0  0  0  0  0  0  0  0
   35.6410   23.9890   36.1870 C   0  0  0  0  0  0  0  0  0  0  0  0
   34.4280   23.3450   36.1330 C   0  0  0  0  0  0  0  0  0  0  0  0
   33.8160   23.0160   37.3210 C   0  0  0  0  0  0  0  0  0  0  0  0
   32.6070   22.3740   37.2120 C   0  0  0  0  0  0  0  0  0  0  0  0
   31.9260   22.0080   38.3530 C   0  0  0  0  0  0  0  0  0  0  0  0
   32.4950   22.3050   39.5730 C   0  0  0  0  0  0  0  0  0  0  0  0
   33.7110   22.9510   39.6080 C   0  0  0  0  0  0  0  0  0  0  0  0
   34.4370   23.3400   38.5070 C   0  0  0  0  0  0  0  0  0  0  0  0
  1  6  1  1  0  0  0
  1  2  1  0  0  0  0
  2  3  1  0  0  0  0
  2  8  1  0  0  0  0
  3 10  1  0  0  0  0
  3  9  1  0  0  0  0
  4 12  1  0  0  0  0
  4  3  1  0  0  0  0
  5 13  1  6  0  0  0
  5  1  1  0  0  0  0
  5  4  1  0  0  0  0
  7  2  1  0  0  0  0
 11  4  1  0  0  0  0
 14 15  1  0  0  0  0
 14 20  1  0  0  0  0
 15  1  1  0  0  0  0
 16 21  1  0  0  0  0
 16 15  2  0  0  0  0
 17 16  1  0  0  0  0
 18 17  2  0  0  0  0
 18 19  1  0  0  0  0
 19 14  2  0  0  0  0
 22 18  1  0  0  0  0
 23  5  1  0  0  0  0
 23 24  2  0  0  0  0
 25 24  1  0  0  0  0
 26 27  2  0  0  0  0
 26 25  1  0  0  0  0
 27 23  1  0  0  0  0
 28 26  1  0  0  0  0
 29 28  2  0  0  0  0
 30 29  1  0  0  0  0
 31 30  2  0  0  0  0
 31 32  1  0  0  0  0
 32 37  1  0  0  0  0
 33 32  2  0  0  0  0
 33 34  1  0  0  0  0
 34 35  2  0  0  0  0
 35 36  1  0  0  0  0
 37 28  1  0  0  0  0
 37 36  2  0  0  0  0
M  END
>  <minimizedAffinity>
-5.65419912

>  <minimizedRMSD>
0.6776191

$$$$
