
 OpenBabel03242506083D

 44 48  0  0  1  0  0  0  0  0999 V2000
   36.8220   28.0230   41.6890 N   0  0  0  0  0  0  0  0  0  0  0  0
   36.5920   27.1150   42.7780 C   0  0  0  0  0  0  0  0  0  0  0  0
   37.1870   27.8250   43.9920 C   0  0  0  0  0  0  0  0  0  0  0  0
   37.8580   29.0690   43.4590 C   0  0  0  0  0  0  0  0  0  0  0  0
   38.0690   28.6670   42.0110 C   0  0  2  0  0  0  0  0  0  0  0  0
   35.5340   26.8680   42.9440 H   0  0  0  0  0  0  0  0  0  0  0  0
   37.1610   26.1680   42.6310 H   0  0  0  0  0  0  0  0  0  0  0  0
   36.3590   28.1260   44.6820 H   0  0  0  0  0  0  0  0  0  0  0  0
   37.8730   27.1790   44.5630 H   0  0  0  0  0  0  0  0  0  0  0  0
   37.1070   29.9020   43.4720 H   0  0  0  0  0  0  0  0  0  0  0  0
   38.7920   29.3130   43.9830 H   0  0  0  0  0  0  0  0  0  0  0  0
   38.8120   27.8490   42.0960 H   0  0  0  0  0  0  0  0  0  0  0  0
   38.4790   29.7170   41.1600 N   0  0  0  0  0  0  0  0  0  0  0  0
   38.1030   31.0030   41.1470 C   0  0  0  0  0  0  0  0  0  0  0  0
   38.6170   31.9000   40.2250 C   0  0  0  0  0  0  0  0  0  0  0  0
   39.5420   31.5050   39.2820 C   0  0  0  0  0  0  0  0  0  0  0  0
   40.0010   32.3220   38.4550 O   0  0  0  0  0  0  0  0  0  0  0  0
   39.9080   30.1960   39.3150 N   0  0  0  0  0  0  0  0  0  0  0  0
   39.3930   29.3330   40.2270 C   0  0  0  0  0  0  0  0  0  0  0  0
   39.8550   28.1340   40.1110 O   0  0  0  0  0  0  0  0  0  0  0  0
   37.3790   31.2660   41.9040 H   0  0  0  0  0  0  0  0  0  0  0  0
   40.6080   29.8990   38.6000 H   0  0  0  0  0  0  0  0  0  0  0  0
   38.1450   33.3000   40.2640 C   0  0  0  0  0  0  0  0  0  0  0  0
   37.7970   33.5510   39.2320 H   0  0  0  0  0  0  0  0  0  0  0  0
   38.9440   34.0310   40.4850 H   0  0  0  0  0  0  0  0  0  0  0  0
   37.2590   33.4110   40.9130 H   0  0  0  0  0  0  0  0  0  0  0  0
   35.0910   29.2710   40.4480 C   0  0  0  0  0  0  0  0  0  0  0  0
   36.0330   28.2540   40.5590 C   0  0  0  0  0  0  0  0  0  0  0  0
   36.1940   27.4200   39.4390 C   0  0  0  0  0  0  0  0  0  0  0  0
   35.4370   27.6540   38.3460 N   0  0  0  0  0  0  0  0  0  0  0  0
   34.5430   28.6330   38.2600 C   0  0  0  0  0  0  0  0  0  0  0  0
   34.3840   29.4260   39.3160 N   0  0  0  0  0  0  0  0  0  0  0  0
   34.9840   29.9000   41.3210 H   0  0  0  0  0  0  0  0  0  0  0  0
   36.8790   26.6020   39.3850 H   0  0  0  0  0  0  0  0  0  0  0  0
   33.6590   29.0150   37.1630 C   0  0  0  0  0  0  0  0  0  0  0  0
   34.0320   28.9740   35.8140 C   0  0  0  0  0  0  0  0  0  0  0  0
   33.2270   29.3250   34.7630 C   0  0  0  0  0  0  0  0  0  0  0  0
   31.9470   29.7560   35.0150 C   0  0  0  0  0  0  0  0  0  0  0  0
   31.5210   29.8210   36.3000 C   0  0  0  0  0  0  0  0  0  0  0  0
   30.2300   30.2620   36.4820 C   0  0  0  0  0  0  0  0  0  0  0  0
   29.7090   30.3610   37.7520 C   0  0  0  0  0  0  0  0  0  0  0  0
   30.5360   30.0000   38.8170 C   0  0  0  0  0  0  0  0  0  0  0  0
   31.8170   29.5680   38.5540 C   0  0  0  0  0  0  0  0  0  0  0  0
   32.3690   29.4570   37.3200 C   0  0  0  0  0  0  0  0  0  0  0  0
  1  5  1  0  0  0  0
  1  2  1  0  0  0  0
  2  6  1  0  0  0  0
  2  3  1  0  0  0  0
  3  9  1  0  0  0  0
  3  8  1  0  0  0  0
  4 10  1  0  0  0  0
  4 11  1  0  0  0  0
  4  3  1  0  0  0  0
  5 12  1  6  0  0  0
  5  4  1  0  0  0  0
  7  2  1  0  0  0  0
 13  5  1  0  0  0  0
 14 13  1  0  0  0  0
 14 21  1  0  0  0  0
 15 23  1  0  0  0  0
 15 14  2  0  0  0  0
 16 18  1  0  0  0  0
 16 15  1  0  0  0  0
 17 16  2  0  0  0  0
 18 19  1  0  0  0  0
 19 13  1  0  0  0  0
 20 19  2  0  0  0  0
 22 18  1  0  0  0  0
 23 25  1  0  0  0  0
 23 26  1  0  0  0  0
 24 23  1  0  0  0  0
 27 28  1  0  0  0  0
 27 33  1  0  0  0  0
 28  1  1  0  0  0  0
 29 28  2  0  0  0  0
 30 29  1  0  0  0  0
 31 30  2  0  0  0  0
 31 32  1  0  0  0  0
 32 27  2  0  0  0  0
 34 29  1  0  0  0  0
 35 44  1  0  0  0  0
 35 31  1  0  0  0  0
 36 35  2  0  0  0  0
 37 38  2  0  0  0  0
 37 36  1  0  0  0  0
 38 39  1  0  0  0  0
 39 40  2  0  0  0  0
 39 44  1  0  0  0  0
 40 41  1  0  0  0  0
 41 42  2  0  0  0  0
 43 42  1  0  0  0  0
 44 43  2  0  0  0  0
M  END
>  <minimizedAffinity>
-6.65322304

>  <minimizedRMSD>
0.855497181

$$$$
