
 OpenBabel03242509293D

 49 54  0  0  0  0  0  0  0  0999 V2000
   38.4980   28.0820   42.6810 C   0  0  0  0  0  0  0  0  0  0  0  0
   37.4130   27.2630   42.8810 C   0  0  0  0  0  0  0  0  0  0  0  0
   36.3300   27.9110   42.2740 C   0  0  0  0  0  0  0  0  0  0  0  0
   36.8440   29.0520   41.7630 N   0  0  0  0  0  0  0  0  0  0  0  0
   38.1110   29.1870   41.9810 N   0  0  0  0  0  0  0  0  0  0  0  0
   37.4760   26.3220   43.4140 H   0  0  0  0  0  0  0  0  0  0  0  0
   35.3500   27.4900   42.2800 H   0  0  0  0  0  0  0  0  0  0  0  0
   41.4660   26.5090   44.2640 C   0  0  0  0  0  0  0  0  0  0  0  0
   40.1540   26.6620   43.8150 C   0  0  0  0  0  0  0  0  0  0  0  0
   39.8490   27.8420   43.1370 C   0  0  0  0  0  0  0  0  0  0  0  0
   40.8020   28.7630   42.9440 N   0  0  0  0  0  0  0  0  0  0  0  0
   42.0910   28.5780   43.4040 C   0  0  0  0  0  0  0  0  0  0  0  0
   42.3930   27.4400   44.0620 N   0  0  0  0  0  0  0  0  0  0  0  0
   41.7600   25.6200   44.7930 H   0  0  0  0  0  0  0  0  0  0  0  0
   39.4250   25.8850   43.9970 H   0  0  0  0  0  0  0  0  0  0  0  0
   42.9250   29.7250   43.0640 C   0  0  0  0  0  0  0  0  0  0  0  0
   43.2850   30.6800   43.9800 C   0  0  0  0  0  3  0  0  0  0  0  0
   44.0580   31.7660   43.7230 C   0  0  0  0  0  3  0  0  0  0  0  0
   44.5500   31.9810   42.4570 C   0  0  0  0  0  3  0  0  0  0  0  0
   44.2320   31.0660   41.4800 C   0  0  0  0  0  0  0  0  0  0  0  0
   44.7200   31.2690   40.2060 C   0  0  0  0  0  3  0  0  0  0  0  0
   44.4340   30.3830   39.1880 C   0  0  0  0  0  3  0  0  0  0  0  0
   43.6320   29.2810   39.5130 C   0  0  0  0  0  3  0  0  0  0  0  0
   43.1780   29.1290   40.7870 C   0  0  0  0  0  3  0  0  0  0  0  0
   43.4450   29.9930   41.8200 C   0  0  0  0  0  0  0  0  0  0  0  0
   35.9760   29.9440   41.0740 C   0  0  0  0  0  0  0  0  0  0  0  0
   35.3060   30.3790   41.8520 H   0  0  0  0  0  0  0  0  0  0  0  0
   36.5520   30.8000   40.6570 H   0  0  0  0  0  0  0  0  0  0  0  0
   35.1720   29.3400   39.9690 C   0  0  0  0  0  0  0  0  0  0  0  0
   34.4140   30.1820   39.8200 H   0  0  0  0  0  0  0  0  0  0  0  0
   34.7410   28.4060   40.3000 H   0  0  0  0  0  0  0  0  0  0  0  0
   35.8410   29.3120   38.6420 C   0  0  0  0  0  0  0  0  0  0  0  0
   37.1770   29.4330   38.3910 C   0  0  0  0  0  0  0  0  0  0  0  0
   37.7530   29.4790   37.1530 C   0  0  0  0  0  0  0  0  0  0  0  0
   36.9510   29.3990   36.0350 C   0  0  0  0  0  0  0  0  0  0  0  0
   35.5810   29.2720   36.2290 C   0  0  0  0  0  0  0  0  0  0  0  0
   34.8420   29.1980   35.0710 C   0  0  0  0  0  0  0  0  0  0  0  0
   33.4840   29.0680   35.1590 C   0  0  0  0  0  0  0  0  0  0  0  0
   32.8850   29.0100   36.3950 C   0  0  0  0  0  0  0  0  0  0  0  0
   33.6840   29.0890   37.5070 C   0  0  0  0  0  0  0  0  0  0  0  0
   35.0320   29.2260   37.4980 C   0  0  0  0  0  0  0  0  0  0  0  0
   37.8180   29.4990   39.2630 H   0  0  0  0  0  0  0  0  0  0  0  0
   38.8150   29.5760   37.0550 H   0  0  0  0  0  0  0  0  0  0  0  0
   37.4050   29.4370   35.0540 H   0  0  0  0  0  0  0  0  0  0  0  0
   35.2910   29.2390   34.0880 H   0  0  0  0  0  0  0  0  0  0  0  0
   32.8990   29.0120   34.2450 H   0  0  0  0  0  0  0  0  0  0  0  0
   31.8110   28.9060   36.4590 H   0  0  0  0  0  0  0  0  0  0  0  0
   33.0230   29.0060   38.7220 O   0  0  0  0  0  0  0  0  0  0  0  0
   32.1780   29.5610   38.8660 H   0  0  0  0  0  0  0  0  0  0  0  0
  1  2  1  0  0  0  0
  1 10  1  0  0  0  0
  2  6  1  0  0  0  0
  3  7  1  0  0  0  0
  3  2  2  0  0  0  0
  4  5  1  0  0  0  0
  4  3  1  0  0  0  0
  5  1  2  0  0  0  0
  8 14  1  0  0  0  0
  9 15  1  0  0  0  0
  9  8  2  0  0  0  0
 10  9  1  0  0  0  0
 11 10  2  0  0  0  0
 11 12  1  0  0  0  0
 12 13  2  0  0  0  0
 13  8  1  0  0  0  0
 16 12  1  0  0  0  0
 16 17  1  0  0  0  0
 18 17  2  0  0  0  0
 19 18  1  0  0  0  0
 20 25  1  0  0  0  0
 20 19  2  0  0  0  0
 21 20  1  0  0  0  0
 22 23  1  0  0  0  0
 22 21  2  0  0  0  0
 23 24  2  0  0  0  0
 24 25  1  0  0  0  0
 25 16  2  0  0  0  0
 26  4  1  0  0  0  0
 26 27  1  0  0  0  0
 28 26  1  0  0  0  0
 29 31  1  0  0  0  0
 29 26  1  0  0  0  0
 30 29  1  0  0  0  0
 32 29  1  0  0  0  0
 33 32  1  0  0  0  0
 33 42  1  0  0  0  0
 34 33  2  0  0  0  0
 35 36  2  0  0  0  0
 35 34  1  0  0  0  0
 36 41  1  0  0  0  0
 37 38  2  0  0  0  0
 37 36  1  0  0  0  0
 38 39  1  0  0  0  0
 39 47  1  0  0  0  0
 39 40  2  0  0  0  0
 40 48  1  0  0  0  0
 41 40  1  0  0  0  0
 41 32  2  0  0  0  0
 43 34  1  0  0  0  0
 44 35  1  0  0  0  0
 45 37  1  0  0  0  0
 46 38  1  0  0  0  0
 48 49  1  0  0  0  0
M  END
>  <minimizedAffinity>
-6.37069559

>  <minimizedRMSD>
0.321961641

$$$$
