
     RDKit          3D

 29 31  0  0  0  0  0  0  0  0999 V2000
   37.9547   28.8852   43.3625 C   0  0  0  0  0  0  0  0  0  0  0  0
   38.0843   27.4702   43.3125 C   0  0  0  0  0  0  0  0  0  0  0  0
   37.4541   26.8172   42.2662 C   0  0  0  0  0  0  0  0  0  0  0  0
   36.7696   27.5941   41.3836 N   0  0  0  0  0  0  0  0  0  0  0  0
   36.6508   28.9201   41.4342 C   0  0  0  0  0  0  0  0  0  0  0  0
   37.2582   29.5317   42.4403 N   0  0  0  0  0  0  0  0  0  0  0  0
   37.5325   25.3358   42.1400 C   0  0  0  0  0  0  0  0  0  0  0  0
   37.6324   25.0460   40.8069 F   0  0  0  0  0  0  0  0  0  0  0  0
   38.6330   24.8360   42.7916 F   0  0  0  0  0  0  0  0  0  0  0  0
   36.3764   24.7186   42.6351 F   0  0  0  0  0  0  0  0  0  0  0  0
   38.4194   29.4528   44.1488 H   0  0  0  0  0  0  0  0  0  0  0  0
   38.6460   26.9479   44.0559 H   0  0  0  0  0  0  0  0  0  0  0  0
   35.8451   29.4226   40.3290 C   0  0  0  0  0  0  0  0  0  0  0  0
   34.8792   30.3815   40.4938 C   0  0  0  0  0  0  0  0  0  0  0  0
   34.0937   30.8853   39.4810 C   0  0  0  0  0  0  0  0  0  0  0  0
   34.2476   30.4308   38.2020 C   0  0  0  0  0  0  0  0  0  0  0  0
   35.2016   29.4661   37.9671 C   0  0  0  0  0  0  0  0  0  0  0  0
   35.3459   29.0150   36.6743 C   0  0  0  0  0  0  0  0  0  0  0  0
   36.2811   28.0490   36.3715 C   0  0  0  0  0  0  0  0  0  0  0  0
   37.0653   27.5545   37.4200 C   0  0  0  0  0  0  0  0  0  0  0  0
   36.8697   28.0491   38.6897 C   0  0  0  0  0  0  0  0  0  0  0  0
   35.9508   29.0075   39.0239 C   0  0  0  0  0  0  0  0  0  0  0  0
   34.6734   30.8158   41.4834 H   0  0  0  0  0  0  0  0  0  0  0  0
   33.3541   31.6357   39.6732 H   0  0  0  0  0  0  0  0  0  0  0  0
   33.6210   30.8401   37.4245 H   0  0  0  0  0  0  0  0  0  0  0  0
   34.7185   29.4245   35.8935 H   0  0  0  0  0  0  0  0  0  0  0  0
   36.3388   27.7433   35.3374 H   0  0  0  0  0  0  0  0  0  0  0  0
   37.7879   26.7985   37.1463 H   0  0  0  0  0  0  0  0  0  0  0  0
   37.5225   27.5940   39.3946 H   0  0  0  0  0  0  0  0  0  0  0  0
  2  1  2  0
  3  2  1  0
  4  5  1  0
  4  3  2  0
  5  6  2  0
  6  1  1  0
  7  3  1  0
  7 10  1  0
  7  9  1  0
  8  7  1  0
  1 11  1  0
  2 12  1  0
 13 14  2  0
 14 15  1  0
 15 16  2  0
 16 17  1  0
 17 18  2  0
 18 19  1  0
 19 20  2  0
 20 21  1  0
 21 22  2  0
 22 13  1  0
 22 17  1  0
 14 23  1  0
 15 24  1  0
 16 25  1  0
 18 26  1  0
 19 27  1  0
 20 28  1  0
 21 29  1  0
  5 13  1  0
M  ISO  2  11  14  12  14
M  END
>  <DihAtoms>  (1) 
3,4,12,13

>  <DihDeg>  (1) 
1.3277395588830718

$$$$
