
 OpenBabel03242509293D

 49 54  0  0  0  0  0  0  0  0999 V2000
   39.2610   28.3850   42.9350 C   0  0  0  0  0  0  0  0  0  0  0  0
   38.1390   27.5960   43.0270 C   0  0  0  0  0  0  0  0  0  0  0  0
   37.0920   28.3610   42.4990 C   0  0  0  0  0  0  0  0  0  0  0  0
   37.6590   29.5340   42.1380 N   0  0  0  0  0  0  0  0  0  0  0  0
   38.9280   29.5850   42.3770 N   0  0  0  0  0  0  0  0  0  0  0  0
   38.1560   26.5950   43.4390 H   0  0  0  0  0  0  0  0  0  0  0  0
   36.0950   27.9860   42.4480 H   0  0  0  0  0  0  0  0  0  0  0  0
   42.1210   26.5520   44.4350 C   0  0  0  0  0  0  0  0  0  0  0  0
   40.8180   26.8160   44.0100 C   0  0  0  0  0  0  0  0  0  0  0  0
   40.5950   28.0310   43.3650 C   0  0  0  0  0  0  0  0  0  0  0  0
   41.6130   28.8820   43.1800 N   0  0  0  0  0  0  0  0  0  0  0  0
   42.8900   28.5880   43.6150 C   0  0  0  0  0  0  0  0  0  0  0  0
   43.1130   27.4140   44.2410 N   0  0  0  0  0  0  0  0  0  0  0  0
   42.3520   25.6300   44.9380 H   0  0  0  0  0  0  0  0  0  0  0  0
   40.0340   26.0920   44.1840 H   0  0  0  0  0  0  0  0  0  0  0  0
   43.8060   29.6760   43.2900 C   0  0  0  0  0  0  0  0  0  0  0  0
   44.2740   29.8980   42.0200 C   0  0  0  0  0  3  0  0  0  0  0  0
   45.1250   30.8930   41.6590 C   0  0  0  0  0  3  0  0  0  0  0  0
   45.5920   31.7820   42.6000 C   0  0  0  0  0  3  0  0  0  0  0  0
   45.1660   31.6240   43.8990 C   0  0  0  0  0  0  0  0  0  0  0  0
   45.6250   32.5080   44.8520 C   0  0  0  0  0  3  0  0  0  0  0  0
   45.2310   32.3980   46.1690 C   0  0  0  0  0  3  0  0  0  0  0  0
   44.3520   31.3540   46.4830 C   0  0  0  0  0  3  0  0  0  0  0  0
   43.9300   30.5080   45.5020 C   0  0  0  0  0  3  0  0  0  0  0  0
   44.3040   30.5920   44.1830 C   0  0  0  0  0  0  0  0  0  0  0  0
   36.8370   30.5410   41.5600 C   0  0  0  0  0  0  0  0  0  0  0  0
   36.3370   31.0530   42.4150 H   0  0  0  0  0  0  0  0  0  0  0  0
   37.4640   31.3180   41.0690 H   0  0  0  0  0  0  0  0  0  0  0  0
   35.8250   30.0630   40.5710 C   0  0  0  0  0  0  0  0  0  0  0  0
   35.2100   31.0200   40.4700 H   0  0  0  0  0  0  0  0  0  0  0  0
   35.2810   29.2250   40.9820 H   0  0  0  0  0  0  0  0  0  0  0  0
   36.3290   29.8920   39.1830 C   0  0  0  0  0  0  0  0  0  0  0  0
   37.5870   30.1570   38.7250 C   0  0  0  0  0  0  0  0  0  0  0  0
   37.9970   30.0600   37.4260 C   0  0  0  0  0  0  0  0  0  0  0  0
   37.0940   29.6650   36.4630 C   0  0  0  0  0  0  0  0  0  0  0  0
   35.7970   29.3800   36.8710 C   0  0  0  0  0  0  0  0  0  0  0  0
   34.9490   28.9930   35.8590 C   0  0  0  0  0  0  0  0  0  0  0  0
   33.6520   28.6870   36.1620 C   0  0  0  0  0  0  0  0  0  0  0  0
   33.2210   28.7680   37.4650 C   0  0  0  0  0  0  0  0  0  0  0  0
   34.1210   29.1610   38.4220 C   0  0  0  0  0  0  0  0  0  0  0  0
   35.4160   29.4850   38.1960 C   0  0  0  0  0  0  0  0  0  0  0  0
   38.3060   30.4700   39.4740 H   0  0  0  0  0  0  0  0  0  0  0  0
   39.0090   30.2890   37.1610 H   0  0  0  0  0  0  0  0  0  0  0  0
   37.4170   29.5900   35.4330 H   0  0  0  0  0  0  0  0  0  0  0  0
   35.2660   28.9190   34.8270 H   0  0  0  0  0  0  0  0  0  0  0  0
   32.9800   28.3820   35.3630 H   0  0  0  0  0  0  0  0  0  0  0  0
   32.1940   28.5230   37.7000 H   0  0  0  0  0  0  0  0  0  0  0  0
   33.6300   29.2040   39.7180 O   0  0  0  0  0  0  0  0  0  0  0  0
   32.7270   29.6490   39.8920 H   0  0  0  0  0  0  0  0  0  0  0  0
  1  2  1  0  0  0  0
  1 10  1  0  0  0  0
  2  6  1  0  0  0  0
  3  2  2  0  0  0  0
  4  5  1  0  0  0  0
  4  3  1  0  0  0  0
  5  1  2  0  0  0  0
  7  3  1  0  0  0  0
  8 14  1  0  0  0  0
  9 15  1  0  0  0  0
  9  8  2  0  0  0  0
 10  9  1  0  0  0  0
 11 10  2  0  0  0  0
 11 12  1  0  0  0  0
 12 13  2  0  0  0  0
 13  8  1  0  0  0  0
 16 12  1  0  0  0  0
 16 25  1  0  0  0  0
 17 16  2  0  0  0  0
 18 17  1  0  0  0  0
 18 19  2  0  0  0  0
 19 20  1  0  0  0  0
 20 25  2  0  0  0  0
 20 21  1  0  0  0  0
 21 22  2  0  0  0  0
 22 23  1  0  0  0  0
 24 23  2  0  0  0  0
 25 24  1  0  0  0  0
 26  4  1  0  0  0  0
 26 27  1  0  0  0  0
 28 26  1  0  0  0  0
 29 31  1  0  0  0  0
 29 26  1  0  0  0  0
 30 29  1  0  0  0  0
 32 29  1  0  0  0  0
 33 32  1  0  0  0  0
 33 42  1  0  0  0  0
 34 33  2  0  0  0  0
 35 36  2  0  0  0  0
 35 34  1  0  0  0  0
 36 41  1  0  0  0  0
 37 38  2  0  0  0  0
 37 36  1  0  0  0  0
 38 39  1  0  0  0  0
 39 47  1  0  0  0  0
 39 40  2  0  0  0  0
 40 48  1  0  0  0  0
 41 40  1  0  0  0  0
 41 32  2  0  0  0  0
 43 34  1  0  0  0  0
 44 35  1  0  0  0  0
 45 37  1  0  0  0  0
 46 38  1  0  0  0  0
 48 49  1  0  0  0  0
M  END
>  <minimizedAffinity>
-6.76831055

>  <minimizedRMSD>
1.8124311

$$$$
