
 OpenBabel03242509283D

 49 54  0  0  0  0  0  0  0  0999 V2000
   39.4340   27.7990   43.0890 C   0  0  0  0  0  0  0  0  0  0  0  0
   38.2000   27.2310   43.3000 C   0  0  0  0  0  0  0  0  0  0  0  0
   37.2660   28.1680   42.8400 C   0  0  0  0  0  0  0  0  0  0  0  0
   38.0030   29.2110   42.3960 N   0  0  0  0  0  0  0  0  0  0  0  0
   39.2760   29.0320   42.5250 N   0  0  0  0  0  0  0  0  0  0  0  0
   38.0710   26.2500   43.7390 H   0  0  0  0  0  0  0  0  0  0  0  0
   36.2170   27.9820   42.8860 H   0  0  0  0  0  0  0  0  0  0  0  0
   42.2310   25.3790   43.4140 C   0  0  0  0  0  0  0  0  0  0  0  0
   40.9930   25.8990   43.0350 C   0  0  0  0  0  0  0  0  0  0  0  0
   40.7150   27.2120   43.4140 C   0  0  0  0  0  0  0  0  0  0  0  0
   41.6210   27.9100   44.1100 N   0  0  0  0  0  0  0  0  0  0  0  0
   42.8370   27.3620   44.4680 C   0  0  0  0  0  0  0  0  0  0  0  0
   43.1130   26.0920   44.1060 N   0  0  0  0  0  0  0  0  0  0  0  0
   42.5010   24.3720   43.1500 H   0  0  0  0  0  0  0  0  0  0  0  0
   40.2980   25.2920   42.4720 H   0  0  0  0  0  0  0  0  0  0  0  0
   43.6340   28.3280   45.2160 C   0  0  0  0  0  0  0  0  0  0  0  0
   44.4590   29.2400   44.6090 C   0  0  0  0  0  3  0  0  0  0  0  0
   45.2220   30.1610   45.2510 C   0  0  0  0  0  3  0  0  0  0  0  0
   45.2100   30.2330   46.6240 C   0  0  0  0  0  3  0  0  0  0  0  0
   44.4050   29.3510   47.3070 C   0  0  0  0  0  0  0  0  0  0  0  0
   44.3840   29.4130   48.6840 C   0  0  0  0  0  3  0  0  0  0  0  0
   43.5960   28.5520   49.4200 C   0  0  0  0  0  3  0  0  0  0  0  0
   42.8310   27.6250   48.7040 C   0  0  0  0  0  3  0  0  0  0  0  0
   42.8900   27.6060   47.3430 C   0  0  0  0  0  3  0  0  0  0  0  0
   43.6630   28.4490   46.5840 C   0  0  0  0  0  0  0  0  0  0  0  0
   37.3300   30.3440   41.8610 C   0  0  0  0  0  0  0  0  0  0  0  0
   36.9350   30.9070   42.7390 H   0  0  0  0  0  0  0  0  0  0  0  0
   38.0550   31.0280   41.3660 H   0  0  0  0  0  0  0  0  0  0  0  0
   36.2320   30.0480   40.8920 C   0  0  0  0  0  0  0  0  0  0  0  0
   35.7290   31.0730   40.8750 H   0  0  0  0  0  0  0  0  0  0  0  0
   35.6110   29.2530   41.2780 H   0  0  0  0  0  0  0  0  0  0  0  0
   36.6590   29.9070   39.4760 C   0  0  0  0  0  0  0  0  0  0  0  0
   37.8900   30.1850   38.9550 C   0  0  0  0  0  0  0  0  0  0  0  0
   38.2280   30.1170   37.6340 C   0  0  0  0  0  0  0  0  0  0  0  0
   37.2740   29.7410   36.7130 C   0  0  0  0  0  0  0  0  0  0  0  0
   36.0020   29.4440   37.1850 C   0  0  0  0  0  0  0  0  0  0  0  0
   35.1000   29.0760   36.2140 C   0  0  0  0  0  0  0  0  0  0  0  0
   33.8220   28.7610   36.5800 C   0  0  0  0  0  0  0  0  0  0  0  0
   33.4620   28.8140   37.9070 C   0  0  0  0  0  0  0  0  0  0  0  0
   34.4130   29.1880   38.8210 C   0  0  0  0  0  0  0  0  0  0  0  0
   35.6940   29.5200   38.5320 C   0  0  0  0  0  0  0  0  0  0  0  0
   38.6490   30.4830   39.6700 H   0  0  0  0  0  0  0  0  0  0  0  0
   39.2240   30.3540   37.3190 H   0  0  0  0  0  0  0  0  0  0  0  0
   37.5400   29.6880   35.6660 H   0  0  0  0  0  0  0  0  0  0  0  0
   35.3590   29.0260   35.1650 H   0  0  0  0  0  0  0  0  0  0  0  0
   33.1070   28.4730   35.8130 H   0  0  0  0  0  0  0  0  0  0  0  0
   32.4500   28.5620   38.1920 H   0  0  0  0  0  0  0  0  0  0  0  0
   33.9940   29.2030   40.1420 O   0  0  0  0  0  0  0  0  0  0  0  0
   33.1020   29.6410   40.3750 H   0  0  0  0  0  0  0  0  0  0  0  0
  1  2  1  0  0  0  0
  1 10  1  0  0  0  0
  2  6  1  0  0  0  0
  3  7  1  0  0  0  0
  3  2  2  0  0  0  0
  4  5  1  0  0  0  0
  4  3  1  0  0  0  0
  5  1  2  0  0  0  0
  8 13  1  0  0  0  0
  9 10  1  0  0  0  0
  9  8  2  0  0  0  0
 10 11  2  0  0  0  0
 11 12  1  0  0  0  0
 12 16  1  0  0  0  0
 13 12  2  0  0  0  0
 14  8  1  0  0  0  0
 15  9  1  0  0  0  0
 16 25  1  0  0  0  0
 17 16  2  0  0  0  0
 17 18  1  0  0  0  0
 18 19  2  0  0  0  0
 19 20  1  0  0  0  0
 20 21  1  0  0  0  0
 21 22  2  0  0  0  0
 23 22  1  0  0  0  0
 24 23  2  0  0  0  0
 25 20  2  0  0  0  0
 25 24  1  0  0  0  0
 26  4  1  0  0  0  0
 26 27  1  0  0  0  0
 28 26  1  0  0  0  0
 29 31  1  0  0  0  0
 29 26  1  0  0  0  0
 30 29  1  0  0  0  0
 32 29  1  0  0  0  0
 33 32  1  0  0  0  0
 33 42  1  0  0  0  0
 34 33  2  0  0  0  0
 35 36  2  0  0  0  0
 35 34  1  0  0  0  0
 36 41  1  0  0  0  0
 37 38  2  0  0  0  0
 37 36  1  0  0  0  0
 38 39  1  0  0  0  0
 39 47  1  0  0  0  0
 39 40  2  0  0  0  0
 40 48  1  0  0  0  0
 41 40  1  0  0  0  0
 41 32  2  0  0  0  0
 43 34  1  0  0  0  0
 44 35  1  0  0  0  0
 45 37  1  0  0  0  0
 46 38  1  0  0  0  0
 48 49  1  0  0  0  0
M  END
>  <minimizedAffinity>
-8.12664509

>  <minimizedRMSD>
2.74533153

$$$$
