
 OpenBabel03242509103D

 40 45  0  0  1  0  0  0  0  0999 V2000
   36.1470   30.7530   41.0950 C   0  0  0  0  0  0  0  0  0  0  0  0
   36.7030   29.5980   41.6800 C   0  0  0  0  0  0  0  0  0  0  0  0
   38.0920   29.4270   41.6500 C   0  0  0  0  0  0  0  0  0  0  0  0
   38.7970   30.4100   41.0480 N   0  0  0  0  0  0  0  0  0  0  0  0
   38.2680   31.5090   40.4920 C   0  0  0  0  0  0  0  0  0  0  0  0
   36.9280   31.6860   40.5120 N   0  0  0  0  0  0  0  0  0  0  0  0
   35.0630   30.7980   41.1660 H   0  0  0  0  0  0  0  0  0  0  0  0
   36.0980   28.8400   42.1500 H   0  0  0  0  0  0  0  0  0  0  0  0
   38.6570   28.2390   42.2410 C   0  0  0  0  0  0  0  0  0  0  0  0
   39.7080   28.1510   43.1280 C   0  0  0  0  0  0  0  0  0  0  0  0
   39.9110   26.8370   43.4280 N   0  0  0  0  0  0  0  0  0  0  0  0
   39.0380   26.0640   42.7750 C   0  0  0  0  0  0  0  0  0  0  0  0
   38.8070   24.6980   42.7160 C   0  0  0  0  0  0  0  0  0  0  0  0
   37.7920   24.1600   41.9190 C   0  0  0  0  0  0  0  0  0  0  0  0
   37.0320   25.0490   41.1960 C   0  0  0  0  0  0  0  0  0  0  0  0
   37.2490   26.3970   41.2450 C   0  0  0  0  0  0  0  0  0  0  0  0
   38.2600   26.9320   42.0380 C   0  0  0  0  0  0  0  0  0  0  0  0
   40.2840   28.9770   43.5270 H   0  0  0  0  0  0  0  0  0  0  0  0
   40.6320   26.4380   44.0710 H   0  0  0  0  0  0  0  0  0  0  0  0
   39.4250   24.0490   43.2970 H   0  0  0  0  0  0  0  0  0  0  0  0
   37.6020   23.0980   41.8630 H   0  0  0  0  0  0  0  0  0  0  0  0
   36.2250   24.7200   40.5510 H   0  0  0  0  0  0  0  0  0  0  0  0
   36.6560   27.0960   40.6790 H   0  0  0  0  0  0  0  0  0  0  0  0
   39.1280   32.5480   39.8520 C   0  0  1  0  0  0  0  0  0  0  0  0
   39.2110   33.9130   40.5370 C   0  0  0  0  0  0  0  0  0  0  0  0
   40.3780   32.9680   40.5430 C   0  0  2  0  0  0  0  0  0  0  0  0
   39.0140   32.5620   38.7530 H   0  0  0  0  0  0  0  0  0  0  0  0
   39.1190   34.7520   39.8580 H   0  0  0  0  0  0  0  0  0  0  0  0
   38.6200   34.0350   41.4820 H   0  0  0  0  0  0  0  0  0  0  0  0
   40.6420   32.5760   41.5270 H   0  0  0  0  0  0  0  0  0  0  0  0
   41.4750   33.3510   39.5960 C   0  0  0  0  0  0  0  0  0  0  0  0
   41.3420   33.4250   38.2250 C   0  0  0  0  0  0  0  0  0  0  0  0
   42.3980   33.7860   37.4170 C   0  0  0  0  0  0  0  0  0  0  0  0
   43.6310   34.0810   38.0080 C   0  0  0  0  0  0  0  0  0  0  0  0
   43.8160   34.0210   39.3740 C   0  0  0  0  0  0  0  0  0  0  0  0
   45.0290   34.3150   39.9120 C   0  0  0  0  0  0  0  0  0  0  0  0
   45.2240   34.2580   41.2760 C   0  0  0  0  0  0  0  0  0  0  0  0
   44.1650   33.8980   42.0820 C   0  0  0  0  0  0  0  0  0  0  0  0
   42.9480   33.6060   41.5000 C   0  0  0  0  0  0  0  0  0  0  0  0
   42.7240   33.6540   40.1410 C   0  0  0  0  0  0  0  0  0  0  0  0
  1  7  1  0  0  0  0
  1  2  1  0  0  0  0
  2  8  1  0  0  0  0
  3  2  2  0  0  0  0
  3  9  1  0  0  0  0
  4  3  1  0  0  0  0
  5  6  1  0  0  0  0
  5  4  2  0  0  0  0
  6  1  2  0  0  0  0
  9 10  2  0  0  0  0
 10 11  1  0  0  0  0
 10 18  1  0  0  0  0
 11 19  1  0  0  0  0
 12 11  1  0  0  0  0
 13 12  1  0  0  0  0
 13 20  1  0  0  0  0
 14 13  2  0  0  0  0
 15 16  2  0  0  0  0
 15 14  1  0  0  0  0
 16 17  1  0  0  0  0
 17  9  1  0  0  0  0
 17 12  2  0  0  0  0
 21 14  1  0  0  0  0
 22 15  1  0  0  0  0
 23 16  1  0  0  0  0
 24 27  1  6  0  0  0
 24  5  1  0  0  0  0
 24 25  1  0  0  0  0
 24 26  1  0  0  0  0
 25 26  1  0  0  0  0
 25 29  1  0  0  0  0
 26 30  1  1  0  0  0
 28 25  1  0  0  0  0
 31 40  1  0  0  0  0
 31 26  1  0  0  0  0
 32 31  2  0  0  0  0
 33 34  2  0  0  0  0
 33 32  1  0  0  0  0
 34 35  1  0  0  0  0
 35 36  2  0  0  0  0
 35 40  1  0  0  0  0
 36 37  1  0  0  0  0
 37 38  2  0  0  0  0
 39 38  1  0  0  0  0
 40 39  2  0  0  0  0
M  END
>  <minimizedAffinity>
-6.85200214

>  <minimizedRMSD>
0.781301439

$$$$
