
 OpenBabel03242507273D

 29 32  0  0  0  0  0  0  0  0999 V2000
   38.1790   27.4760   43.1230 C   0  0  0  0  0  0  0  0  0  0  0  0
   39.1540   26.6810   43.5860 C   0  0  0  0  0  0  0  0  0  0  0  0
   39.5800   25.5410   42.9870 C   0  0  0  0  0  0  0  0  0  0  0  0
   38.8570   25.2750   41.7740 C   0  0  0  0  0  0  0  0  0  0  0  0
   37.7270   26.6120   41.6630 S   0  0  0  0  0  0  0  0  0  0  0  0
   39.5900   27.0590   44.5340 H   0  0  0  0  0  0  0  0  0  0  0  0
   40.3160   24.9430   43.4050 H   0  0  0  0  0  0  0  0  0  0  0  0
   38.8460   24.1970   40.8070 C   0  0  0  0  0  0  0  0  0  0  0  0
   37.8330   23.2440   40.9730 C   0  0  0  0  0  0  0  0  0  0  0  0
   37.6820   22.1710   40.1420 C   0  0  0  0  0  0  0  0  0  0  0  0
   38.5390   21.9860   39.0860 C   0  0  0  0  0  0  0  0  0  0  0  0
   39.5470   22.9000   38.8840 C   0  0  0  0  0  0  0  0  0  0  0  0
   40.3920   22.7390   37.8090 C   0  0  0  0  0  0  0  0  0  0  0  0
   41.3990   23.6400   37.5340 C   0  0  0  0  0  0  0  0  0  0  0  0
   41.4930   24.7190   38.4230 C   0  0  0  0  0  0  0  0  0  0  0  0
   40.6310   24.8420   39.4830 C   0  0  0  0  0  0  0  0  0  0  0  0
   39.6500   23.9590   39.7510 C   0  0  0  0  0  0  0  0  0  0  0  0
   37.5400   28.7020   43.5410 C   0  0  0  0  0  0  0  0  0  0  0  0
   36.4680   28.5320   43.7120 H   0  0  0  0  0  0  0  0  0  0  0  0
   38.0180   29.0590   44.4720 H   0  0  0  0  0  0  0  0  0  0  0  0
   38.9490   31.2680   41.1220 C   0  0  0  0  0  0  0  0  0  0  0  0
   38.9030   30.3090   42.1600 C   0  0  0  0  0  0  0  0  0  0  0  0
   37.6740   29.7350   42.4500 C   0  0  0  0  0  0  0  0  0  0  0  0
   36.5950   30.1350   41.7150 N   0  0  0  0  0  0  0  0  0  0  0  0
   36.6780   31.0520   40.7350 C   0  0  0  0  0  0  0  0  0  0  0  0
   37.8360   31.6100   40.4420 N   0  0  0  0  0  0  0  0  0  0  0  0
   39.9390   31.6940   40.9260 H   0  0  0  0  0  0  0  0  0  0  0  0
   39.7940   30.0310   42.7070 H   0  0  0  0  0  0  0  0  0  0  0  0
   35.7330   31.2540   40.2550 H   0  0  0  0  0  0  0  0  0  0  0  0
  1 18  1  0  0  0  0
  1  2  2  0  0  0  0
  2  6  1  0  0  0  0
  3  7  1  0  0  0  0
  3  2  1  0  0  0  0
  4  3  2  0  0  0  0
  5  4  1  0  0  0  0
  5  1  1  0  0  0  0
  8  9  1  0  0  0  0
  8  4  1  0  0  0  0
 10  9  2  0  0  0  0
 11 10  1  0  0  0  0
 12 11  2  0  0  0  0
 12 17  1  0  0  0  0
 13 12  1  0  0  0  0
 14 13  2  0  0  0  0
 14 15  1  0  0  0  0
 15 16  2  0  0  0  0
 16 17  1  0  0  0  0
 17  8  2  0  0  0  0
 18 19  1  0  0  0  0
 18 20  1  0  0  0  0
 21 22  1  0  0  0  0
 22 23  2  0  0  0  0
 22 28  1  0  0  0  0
 23 18  1  0  0  0  0
 24 23  1  0  0  0  0
 25 24  2  0  0  0  0
 26 25  1  0  0  0  0
 26 21  2  0  0  0  0
 27 21  1  0  0  0  0
 29 25  1  0  0  0  0
M  END
>  <minimizedAffinity>
-5.03836632

>  <minimizedRMSD>
2.76374364

$$$$
