
     RDKit          3D

 29 31  0  0  0  0  0  0  0  0999 V2000
   37.9547   28.8852   43.3625 C   0  0  0  0  0  0  0  0  0  0  0  0
   38.0843   27.4702   43.3125 C   0  0  0  0  0  0  0  0  0  0  0  0
   37.4541   26.8172   42.2662 C   0  0  0  0  0  0  0  0  0  0  0  0
   36.7696   27.5941   41.3836 N   0  0  0  0  0  0  0  0  0  0  0  0
   36.6508   28.9201   41.4342 C   0  0  0  0  0  0  0  0  0  0  0  0
   37.2582   29.5317   42.4403 N   0  0  0  0  0  0  0  0  0  0  0  0
   37.5325   25.3358   42.1400 C   0  0  0  0  0  0  0  0  0  0  0  0
   37.6324   25.0460   40.8069 F   0  0  0  0  0  0  0  0  0  0  0  0
   38.6330   24.8360   42.7916 F   0  0  0  0  0  0  0  0  0  0  0  0
   36.3764   24.7186   42.6351 F   0  0  0  0  0  0  0  0  0  0  0  0
   38.4194   29.4528   44.1488 H   0  0  0  0  0  0  0  0  0  0  0  0
   38.6460   26.9479   44.0559 H   0  0  0  0  0  0  0  0  0  0  0  0
   35.8451   29.4226   40.3290 C   0  0  0  0  0  0  0  0  0  0  0  0
   36.3842   29.7626   39.1151 C   0  0  0  0  0  0  0  0  0  0  0  0
   35.6638   30.2418   38.0439 C   0  0  0  0  0  0  0  0  0  0  0  0
   34.3118   30.4094   38.1454 C   0  0  0  0  0  0  0  0  0  0  0  0
   33.7064   30.0865   39.3392 C   0  0  0  0  0  0  0  0  0  0  0  0
   32.3437   30.2614   39.4296 C   0  0  0  0  0  0  0  0  0  0  0  0
   31.6762   29.9590   40.5969 C   0  0  0  0  0  0  0  0  0  0  0  0
   32.4332   29.4742   41.6696 C   0  0  0  0  0  0  0  0  0  0  0  0
   33.7924   29.3229   41.5123 C   0  0  0  0  0  0  0  0  0  0  0  0
   34.4853   29.6133   40.3676 C   0  0  0  0  0  0  0  0  0  0  0  0
   37.4638   29.6661   38.9265 H   0  0  0  0  0  0  0  0  0  0  0  0
   36.1434   30.4904   37.1191 H   0  0  0  0  0  0  0  0  0  0  0  0
   33.7679   30.7863   37.2929 H   0  0  0  0  0  0  0  0  0  0  0  0
   31.7968   30.6390   38.5757 H   0  0  0  0  0  0  0  0  0  0  0  0
   30.6086   30.1209   40.5958 H   0  0  0  0  0  0  0  0  0  0  0  0
   31.8774   29.2477   42.5687 H   0  0  0  0  0  0  0  0  0  0  0  0
   34.2521   28.9505   42.3955 H   0  0  0  0  0  0  0  0  0  0  0  0
  2  1  2  0
  3  2  1  0
  4  5  1  0
  4  3  2  0
  5  6  2  0
  6  1  1  0
  7  3  1  0
  7 10  1  0
  7  9  1  0
  8  7  1  0
  1 11  1  0
  2 12  1  0
 13 14  2  0
 14 15  1  0
 15 16  2  0
 16 17  1  0
 17 18  2  0
 18 19  1  0
 19 20  2  0
 20 21  1  0
 21 22  2  0
 22 13  1  0
 22 17  1  0
 14 23  1  0
 15 24  1  0
 16 25  1  0
 18 26  1  0
 19 27  1  0
 20 28  1  0
 21 29  1  0
  5 13  1  0
M  ISO  2  11  14  12  14
M  END
>  <DihAtoms>  (1) 
3,4,12,13

>  <DihDeg>  (1) 
1.3277395588830718

$$$$
