
 OpenBabel03242505063D

 47 51  0  0  1  0  0  0  0  0999 V2000
   38.7040   29.8160   41.0710 C   0  0  0  0  0  0  0  0  0  0  0  0
   38.0820   30.9770   40.5570 C   0  0  0  0  0  0  0  0  0  0  0  0
   36.6980   31.0560   40.6100 C   0  0  0  0  0  0  0  0  0  0  0  0
   36.0380   29.9820   41.1690 N   0  0  0  0  0  0  0  0  0  0  0  0
   36.6660   28.9220   41.6350 C   0  0  0  0  0  0  0  0  0  0  0  0
   38.0120   28.8080   41.6000 N   0  0  0  0  0  0  0  0  0  0  0  0
   40.1220   29.6380   41.0620 N   0  0  0  0  0  0  0  0  0  0  0  0
   41.0680   29.2500   40.2140 C   0  0  0  0  0  0  0  0  0  0  0  0
   42.2470   29.2970   40.8470 N   0  0  0  0  0  0  0  0  0  0  0  0
   42.0330   29.7240   42.1180 C   0  0  0  0  0  0  0  0  0  0  0  0
   40.7090   29.9170   42.1890 N   0  0  0  0  0  0  0  0  0  0  0  0
   36.2140   31.9270   40.2240 H   0  0  0  0  0  0  0  0  0  0  0  0
   36.0970   28.1090   42.0610 H   0  0  0  0  0  0  0  0  0  0  0  0
   40.7860   28.9750   39.2220 H   0  0  0  0  0  0  0  0  0  0  0  0
   42.8830   29.9870   43.3040 C   0  0  0  0  0  0  0  0  0  0  0  0
   43.0340   29.0240   44.3090 C   0  0  0  0  0  0  0  0  0  0  0  0
   43.8080   29.2410   45.4070 C   0  0  0  0  0  0  0  0  0  0  0  0
   44.4790   30.4180   45.5840 C   0  0  0  0  0  0  0  0  0  0  0  0
   44.3560   31.3910   44.6170 C   0  0  0  0  0  0  0  0  0  0  0  0
   45.0310   32.5810   44.7900 C   0  0  0  0  0  0  0  0  0  0  0  0
   44.9480   33.5930   43.8600 C   0  0  0  0  0  0  0  0  0  0  0  0
   44.1520   33.3600   42.7370 C   0  0  0  0  0  0  0  0  0  0  0  0
   43.5010   32.1550   42.6170 C   0  0  0  0  0  0  0  0  0  0  0  0
   43.5640   31.1340   43.5220 C   0  0  0  0  0  0  0  0  0  0  0  0
   38.8930   32.0440   40.0000 C   0  0  0  0  0  0  0  0  0  0  0  0
   38.7210   32.3050   38.9700 H   0  0  0  0  0  0  0  0  0  0  0  0
   39.8980   31.6540   40.2620 H   0  0  0  0  0  0  0  0  0  0  0  0
   38.8930   33.2320   40.9500 C   0  0  0  0  0  0  0  0  0  0  0  0
   37.8650   33.6470   40.8920 H   0  0  0  0  0  0  0  0  0  0  0  0
   39.0550   32.9060   41.9910 H   0  0  0  0  0  0  0  0  0  0  0  0
   39.8050   34.2430   40.5060 N   0  0  0  0  0  0  0  0  0  0  0  0
   39.3590   35.5650   40.7980 C   0  0  0  0  0  0  0  0  0  0  0  0
   40.0350   36.5830   39.9440 C   0  0  0  0  0  0  0  0  0  0  0  0
   41.2080   36.0560   39.3290 N   0  0  0  0  0  0  0  0  0  0  0  0
   41.9540   35.1900   40.1900 C   0  0  0  0  0  0  0  0  0  0  0  0
   41.1630   33.9460   40.5870 C   0  0  2  0  0  0  0  0  0  0  0  0
   38.2670   35.5990   40.6020 H   0  0  0  0  0  0  0  0  0  0  0  0
   39.4860   35.7500   41.8910 H   0  0  0  0  0  0  0  0  0  0  0  0
   39.3580   37.0300   39.1950 H   0  0  0  0  0  0  0  0  0  0  0  0
   40.3540   37.4190   40.6120 H   0  0  0  0  0  0  0  0  0  0  0  0
   41.8200   36.7100   38.8510 H   0  0  0  0  0  0  0  0  0  0  0  0
   42.2160   35.7930   41.0860 H   0  0  0  0  0  0  0  0  0  0  0  0
   42.9180   34.9260   39.7230 H   0  0  0  0  0  0  0  0  0  0  0  0
   41.4870   33.7250   41.5710 H   0  0  0  0  0  0  0  0  0  0  0  0
   41.5480   32.9550   39.5460 C   0  0  0  0  0  0  0  0  0  0  0  0
   42.7220   32.7350   39.2590 O   0  0  0  0  0  0  0  0  0  0  0  0
   41.4520   32.2050   38.7760 H   0  0  0  0  0  0  0  0  0  0  0  0
  1  6  1  0  0  0  0
  2  3  1  0  0  0  0
  2  1  2  0  0  0  0
  3  4  2  0  0  0  0
  4  5  1  0  0  0  0
  5 13  1  0  0  0  0
  6  5  2  0  0  0  0
  7  1  1  0  0  0  0
  7 11  1  0  0  0  0
  8  9  2  0  0  0  0
  8  7  1  0  0  0  0
  9 10  1  0  0  0  0
 10 11  2  0  0  0  0
 10 15  1  0  0  0  0
 12  3  1  0  0  0  0
 14  8  1  0  0  0  0
 15 24  2  0  0  0  0
 15 16  1  0  0  0  0
 16 17  2  0  0  0  0
 17 18  1  0  0  0  0
 19 20  1  0  0  0  0
 19 18  2  0  0  0  0
 21 20  2  0  0  0  0
 22 21  1  0  0  0  0
 23 22  2  0  0  0  0
 23 24  1  0  0  0  0
 24 19  1  0  0  0  0
 25 27  1  0  0  0  0
 25  2  1  0  0  0  0
 25 28  1  0  0  0  0
 26 25  1  0  0  0  0
 28 30  1  0  0  0  0
 29 28  1  0  0  0  0
 31 36  1  0  0  0  0
 31 32  1  0  0  0  0
 31 28  1  0  0  0  0
 32 38  1  0  0  0  0
 33 40  1  0  0  0  0
 33 32  1  0  0  0  0
 34 33  1  0  0  0  0
 34 35  1  0  0  0  0
 35 36  1  0  0  0  0
 35 42  1  0  0  0  0
 36 44  1  1  0  0  0
 37 32  1  0  0  0  0
 39 33  1  0  0  0  0
 41 34  1  0  0  0  0
 43 35  1  0  0  0  0
 45 36  1  0  0  0  0
 46 45  2  0  0  0  0
 47 45  1  0  0  0  0
M  END
>  <minimizedAffinity>
-5.86144972

>  <minimizedRMSD>
1.50758362

$$$$
