
 OpenBabel03242507513D

 41 46  0  0  1  0  0  0  0  0999 V2000
   39.9170   26.5620   43.9690 C   0  0  2  0  0  0  0  0  0  0  0  0
   41.0980   26.1130   43.0940 C   0  0  0  0  0  0  0  0  0  0  0  0
   39.9110   25.2310   43.2710 C   0  0  2  0  0  0  0  0  0  0  0  0
   40.0940   26.6260   45.0700 H   0  0  0  0  0  0  0  0  0  0  0  0
   42.0270   25.8140   43.6200 H   0  0  0  0  0  0  0  0  0  0  0  0
   41.2020   26.5900   42.0980 H   0  0  0  0  0  0  0  0  0  0  0  0
   39.9020   24.3840   43.9970 H   0  0  0  0  0  0  0  0  0  0  0  0
   38.9620   24.9910   42.1520 C   0  0  0  0  0  0  0  0  0  0  0  0
   38.0940   23.9220   42.2260 C   0  0  0  0  0  0  0  0  0  0  0  0
   37.2800   23.7940   41.1210 C   0  0  0  0  0  0  0  0  0  0  0  0
   37.2750   24.5890   40.0490 N   0  0  0  0  0  0  0  0  0  0  0  0
   38.1430   25.6300   40.0150 C   0  0  0  0  0  0  0  0  0  0  0  0
   38.9410   25.7700   41.0740 N   0  0  0  0  0  0  0  0  0  0  0  0
   38.0750   23.2700   43.0680 H   0  0  0  0  0  0  0  0  0  0  0  0
   36.5520   22.9690   41.0860 H   0  0  0  0  0  0  0  0  0  0  0  0
   38.3700   26.6610   39.0020 C   0  0  0  0  0  0  0  0  0  0  0  0
   39.5600   26.7740   38.2890 C   0  0  0  0  0  0  0  0  0  0  0  0
   39.7920   27.7320   37.3380 C   0  0  0  0  0  0  0  0  0  0  0  0
   38.8290   28.6620   37.0300 C   0  0  0  0  0  0  0  0  0  0  0  0
   37.6340   28.5970   37.7040 C   0  0  0  0  0  0  0  0  0  0  0  0
   36.6940   29.5470   37.3680 C   0  0  0  0  0  0  0  0  0  0  0  0
   35.4700   29.5460   38.0030 C   0  0  0  0  0  0  0  0  0  0  0  0
   35.2500   28.5630   38.9700 C   0  0  0  0  0  0  0  0  0  0  0  0
   36.2260   27.6530   39.2520 C   0  0  0  0  0  0  0  0  0  0  0  0
   37.4610   27.6120   38.6480 C   0  0  0  0  0  0  0  0  0  0  0  0
   38.4530   29.4570   42.4470 C   0  0  0  0  0  0  0  0  0  0  0  0
   37.3320   28.9270   43.1110 C   0  0  0  0  0  0  0  0  0  0  0  0
   37.7860   27.7820   43.7480 C   0  0  0  0  0  0  0  0  0  0  0  0
   39.1020   27.6530   43.4690 N   0  0  0  0  0  0  0  0  0  0  0  0
   39.5140   28.6550   42.6860 N   0  0  0  0  0  0  0  0  0  0  0  0
   36.3150   29.2810   43.1580 H   0  0  0  0  0  0  0  0  0  0  0  0
   37.2020   27.0910   44.3710 H   0  0  0  0  0  0  0  0  0  0  0  0
   37.0740   32.0260   40.2220 C   0  0  0  0  0  0  0  0  0  0  0  0
   38.0950   32.9820   40.1730 C   0  0  0  0  0  0  0  0  0  0  0  0
   39.2680   32.7370   40.9170 C   0  0  0  0  0  0  0  0  0  0  0  0
   39.3560   31.5930   41.6420 N   0  0  0  0  0  0  0  0  0  0  0  0
   38.3370   30.6810   41.6630 C   0  0  0  0  0  0  0  0  0  0  0  0
   37.1840   30.9030   40.9460 N   0  0  0  0  0  0  0  0  0  0  0  0
   36.1410   32.1240   39.6890 H   0  0  0  0  0  0  0  0  0  0  0  0
   37.9520   33.8700   39.5750 H   0  0  0  0  0  0  0  0  0  0  0  0
   40.0650   33.4680   40.8890 H   0  0  0  0  0  0  0  0  0  0  0  0
  1  4  1  1  0  0  0
  2  3  1  0  0  0  0
  2  5  1  0  0  0  0
  2  1  1  0  0  0  0
  3  1  1  0  0  0  0
  3  7  1  1  0  0  0
  6  2  1  0  0  0  0
  8  9  1  0  0  0  0
  8  3  1  0  0  0  0
  9 14  1  0  0  0  0
 10  9  2  0  0  0  0
 11 10  1  0  0  0  0
 12 11  2  0  0  0  0
 12 13  1  0  0  0  0
 13  8  2  0  0  0  0
 15 10  1  0  0  0  0
 16 12  1  0  0  0  0
 17 16  2  0  0  0  0
 18 17  1  0  0  0  0
 19 18  2  0  0  0  0
 19 20  1  0  0  0  0
 20 25  1  0  0  0  0
 21 20  2  0  0  0  0
 21 22  1  0  0  0  0
 22 23  2  0  0  0  0
 23 24  1  0  0  0  0
 25 16  1  0  0  0  0
 25 24  2  0  0  0  0
 26 30  2  0  0  0  0
 26 27  1  0  0  0  0
 27 31  1  0  0  0  0
 27 28  2  0  0  0  0
 28 32  1  0  0  0  0
 29 28  1  0  0  0  0
 29  1  1  0  0  0  0
 30 29  1  0  0  0  0
 33 38  1  0  0  0  0
 34 33  2  0  0  0  0
 34 35  1  0  0  0  0
 35 36  2  0  0  0  0
 36 37  1  0  0  0  0
 37 26  1  0  0  0  0
 38 37  2  0  0  0  0
 39 33  1  0  0  0  0
 40 34  1  0  0  0  0
 41 35  1  0  0  0  0
M  END
>  <minimizedAffinity>
-6.51306438

>  <minimizedRMSD>
1.35776603

$$$$
