
 OpenBabel03242509293D

 47 51  0  0  0  0  0  0  0  0999 V2000
   35.9940   30.0060   40.9470 C   0  0  0  0  0  0  0  0  0  0  0  0
   35.3960   30.5440   41.7140 H   0  0  0  0  0  0  0  0  0  0  0  0
   36.6200   30.8000   40.4770 H   0  0  0  0  0  0  0  0  0  0  0  0
   38.4250   28.1010   42.6220 C   0  0  0  0  0  0  0  0  0  0  0  0
   37.3400   27.2560   42.6910 C   0  0  0  0  0  0  0  0  0  0  0  0
   36.2880   27.9080   42.0470 C   0  0  0  0  0  0  0  0  0  0  0  0
   36.8130   29.0780   41.6470 N   0  0  0  0  0  0  0  0  0  0  0  0
   38.0580   29.2230   41.9660 N   0  0  0  0  0  0  0  0  0  0  0  0
   37.3530   26.2880   43.1620 H   0  0  0  0  0  0  0  0  0  0  0  0
   35.3000   27.4860   41.9410 H   0  0  0  0  0  0  0  0  0  0  0  0
   41.3360   26.4270   44.2340 C   0  0  0  0  0  0  0  0  0  0  0  0
   40.0430   26.6090   43.7330 C   0  0  0  0  0  0  0  0  0  0  0  0
   39.7480   27.8540   43.1560 C   0  0  0  0  0  0  0  0  0  0  0  0
   40.6990   28.8310   43.0980 N   0  0  0  0  0  0  0  0  0  0  0  0
   41.9410   28.5750   43.6110 C   0  0  0  0  0  0  0  0  0  0  0  0
   42.2540   27.3930   44.1690 N   0  0  0  0  0  0  0  0  0  0  0  0
   41.5800   25.4700   44.6830 H   0  0  0  0  0  0  0  0  0  0  0  0
   39.2900   25.8320   43.7790 H   0  0  0  0  0  0  0  0  0  0  0  0
   42.9320   29.6590   43.5260 C   0  0  0  0  0  0  0  0  0  0  0  0
   44.2450   29.3760   43.8410 C   0  0  0  0  0  3  0  0  0  0  0  0
   45.2160   30.3760   43.7730 C   0  0  0  0  0  0  0  0  0  0  0  0
   46.2500   30.2150   44.0060 H   0  0  0  0  0  0  0  0  0  0  0  0
   44.7440   31.6080   43.3770 C   0  0  0  0  0  3  0  0  0  0  0  0
   43.4470   31.9440   43.0510 C   0  0  0  0  0  0  0  0  0  0  0  0
   43.2060   32.9540   42.7550 H   0  0  0  0  0  0  0  0  0  0  0  0
   42.5110   30.9070   43.1360 C   0  0  0  0  0  3  0  0  0  0  0  0
   35.1380   29.4220   39.8660 C   0  0  0  0  0  0  0  0  0  0  0  0
   34.6900   28.5060   40.2120 H   0  0  0  0  0  0  0  0  0  0  0  0
   34.4080   30.2910   39.7380 H   0  0  0  0  0  0  0  0  0  0  0  0
   35.7820   29.3700   38.5280 C   0  0  0  0  0  0  0  0  0  0  0  0
   37.1060   29.5070   38.2340 C   0  0  0  0  0  0  0  0  0  0  0  0
   37.6550   29.5330   36.9920 C   0  0  0  0  0  0  0  0  0  0  0  0
   36.8280   29.4150   35.8920 C   0  0  0  0  0  0  0  0  0  0  0  0
   35.4680   29.2710   36.1200 C   0  0  0  0  0  0  0  0  0  0  0  0
   34.7080   29.1610   34.9810 C   0  0  0  0  0  0  0  0  0  0  0  0
   33.3500   29.0110   35.0960 C   0  0  0  0  0  0  0  0  0  0  0  0
   32.7820   28.9720   36.3720 C   0  0  0  0  0  0  0  0  0  0  0  0
   33.6070   29.0880   37.4460 C   0  0  0  0  0  0  0  0  0  0  0  0
   34.9510   29.2450   37.4040 C   0  0  0  0  0  0  0  0  0  0  0  0
   37.7690   29.6020   39.1010 H   0  0  0  0  0  0  0  0  0  0  0  0
   38.7260   29.6460   36.9000 H   0  0  0  0  0  0  0  0  0  0  0  0
   37.2670   29.4380   34.9240 H   0  0  0  0  0  0  0  0  0  0  0  0
   35.1300   29.1870   33.9840 H   0  0  0  0  0  0  0  0  0  0  0  0
   32.7300   28.9250   34.2140 H   0  0  0  0  0  0  0  0  0  0  0  0
   31.7170   28.8500   36.4390 H   0  0  0  0  0  0  0  0  0  0  0  0
   32.9690   29.0230   38.6750 O   0  0  0  0  0  0  0  0  0  0  0  0
   32.3390   28.2260   38.8530 H   0  0  0  0  0  0  0  0  0  0  0  0
  1  7  1  0  0  0  0
  1  2  1  0  0  0  0
  3  1  1  0  0  0  0
  4  5  1  0  0  0  0
  4 13  1  0  0  0  0
  5  9  1  0  0  0  0
  6  5  2  0  0  0  0
  7  8  1  0  0  0  0
  7  6  1  0  0  0  0
  8  4  2  0  0  0  0
 10  6  1  0  0  0  0
 11 17  1  0  0  0  0
 12 18  1  0  0  0  0
 12 11  2  0  0  0  0
 13 12  1  0  0  0  0
 14 13  2  0  0  0  0
 14 15  1  0  0  0  0
 15 16  2  0  0  0  0
 16 11  1  0  0  0  0
 19 15  1  0  0  0  0
 19 20  1  0  0  0  0
 21 20  2  0  0  0  0
 21 22  1  0  0  0  0
 23 21  1  0  0  0  0
 24 26  1  0  0  0  0
 24 23  2  0  0  0  0
 25 24  1  0  0  0  0
 26 19  2  0  0  0  0
 27 28  1  0  0  0  0
 27  1  1  0  0  0  0
 29 27  1  0  0  0  0
 30 27  1  0  0  0  0
 31 30  1  0  0  0  0
 31 40  1  0  0  0  0
 32 31  2  0  0  0  0
 33 34  2  0  0  0  0
 33 32  1  0  0  0  0
 34 39  1  0  0  0  0
 35 36  2  0  0  0  0
 35 34  1  0  0  0  0
 36 37  1  0  0  0  0
 37 45  1  0  0  0  0
 37 38  2  0  0  0  0
 38 46  1  0  0  0  0
 39 38  1  0  0  0  0
 39 30  2  0  0  0  0
 41 32  1  0  0  0  0
 42 33  1  0  0  0  0
 43 35  1  0  0  0  0
 44 36  1  0  0  0  0
 46 47  1  0  0  0  0
M  END
>  <minimizedAffinity>
-6.18943024

>  <minimizedRMSD>
0.493251503

$$$$
