
 OpenBabel03242509113D

 38 42  0  0  1  0  0  0  0  0999 V2000
   36.1820   30.7610   41.1040 C   0  0  0  0  0  0  0  0  0  0  0  0
   36.7780   29.6290   41.6880 C   0  0  0  0  0  0  0  0  0  0  0  0
   38.1650   29.5190   41.6560 C   0  0  0  0  0  0  0  0  0  0  0  0
   38.8540   30.5180   41.0580 N   0  0  0  0  0  0  0  0  0  0  0  0
   38.2690   31.6040   40.4980 C   0  0  0  0  0  0  0  0  0  0  0  0
   36.9230   31.7270   40.5210 N   0  0  0  0  0  0  0  0  0  0  0  0
   35.0970   30.7990   41.1560 H   0  0  0  0  0  0  0  0  0  0  0  0
   36.1870   28.8450   42.1610 H   0  0  0  0  0  0  0  0  0  0  0  0
   38.7890   28.3500   42.2450 C   0  0  0  0  0  0  0  0  0  0  0  0
   39.9170   28.2870   43.0290 C   0  0  0  0  0  0  0  0  0  0  0  0
   40.1610   27.0010   43.3630 N   0  0  0  0  0  0  0  0  0  0  0  0
   39.2230   26.2010   42.8210 C   0  0  0  0  0  0  0  0  0  0  0  0
   38.9920   24.8330   42.8400 C   0  0  0  0  0  0  0  0  0  0  0  0
   37.9200   24.2580   42.1760 C   0  0  0  0  0  0  0  0  0  0  0  0
   37.0920   25.1160   41.4950 C   0  0  0  0  0  0  0  0  0  0  0  0
   37.2970   26.4670   41.4610 C   0  0  0  0  0  0  0  0  0  0  0  0
   38.3640   27.0350   42.1230 C   0  0  0  0  0  0  0  0  0  0  0  0
   40.5360   29.1150   43.3490 H   0  0  0  0  0  0  0  0  0  0  0  0
   40.9390   26.6060   43.9510 H   0  0  0  0  0  0  0  0  0  0  0  0
   39.6470   24.1710   43.3770 H   0  0  0  0  0  0  0  0  0  0  0  0
   37.7460   23.1900   42.1950 H   0  0  0  0  0  0  0  0  0  0  0  0
   36.2410   24.7200   40.9600 H   0  0  0  0  0  0  0  0  0  0  0  0
   36.6110   27.0990   40.9070 H   0  0  0  0  0  0  0  0  0  0  0  0
   39.0920   32.6750   39.8590 C   0  0  1  0  0  0  0  0  0  0  0  0
   39.1960   34.0130   40.5780 C   0  0  0  0  0  0  0  0  0  0  0  0
   40.3610   33.0810   40.5270 C   0  0  2  0  0  0  0  0  0  0  0  0
   39.0320   32.7470   38.7590 H   0  0  0  0  0  0  0  0  0  0  0  0
   38.6380   34.1670   41.5230 H   0  0  0  0  0  0  0  0  0  0  0  0
   39.2780   34.8980   39.9190 H   0  0  0  0  0  0  0  0  0  0  0  0
   40.5880   32.6180   41.5240 H   0  0  0  0  0  0  0  0  0  0  0  0
   41.5580   33.4200   39.7210 C   0  0  0  0  0  0  0  0  0  0  0  0
   41.4330   33.8750   38.4230 C   0  0  0  0  0  0  0  0  0  0  0  0
   42.5320   34.2070   37.6250 C   0  0  0  0  0  0  0  0  0  0  0  0
   42.3270   34.5600   36.6070 H   0  0  0  0  0  0  0  0  0  0  0  0
   43.7960   34.0740   38.1600 C   0  0  0  0  0  0  0  0  0  0  0  0
   43.9560   33.6160   39.4690 C   0  0  0  0  0  0  0  0  0  0  0  0
   44.9460   33.5100   39.8930 H   0  0  0  0  0  0  0  0  0  0  0  0
   42.8500   33.2940   40.2390 C   0  0  0  0  0  0  0  0  0  0  0  0
  1  7  1  0  0  0  0
  1  2  1  0  0  0  0
  2  8  1  0  0  0  0
  3  2  2  0  0  0  0
  3  9  1  0  0  0  0
  4  3  1  0  0  0  0
  5  6  1  0  0  0  0
  5  4  2  0  0  0  0
  6  1  2  0  0  0  0
  9 10  2  0  0  0  0
 10 18  1  0  0  0  0
 10 11  1  0  0  0  0
 11 19  1  0  0  0  0
 12 13  1  0  0  0  0
 12 11  1  0  0  0  0
 13 20  1  0  0  0  0
 14 21  1  0  0  0  0
 14 13  2  0  0  0  0
 15 14  1  0  0  0  0
 16 15  2  0  0  0  0
 16 17  1  0  0  0  0
 17  9  1  0  0  0  0
 17 12  2  0  0  0  0
 22 15  1  0  0  0  0
 23 16  1  0  0  0  0
 24 27  1  6  0  0  0
 24  5  1  0  0  0  0
 24 26  1  0  0  0  0
 24 25  1  0  0  0  0
 25 28  1  0  0  0  0
 26 25  1  0  0  0  0
 26 30  1  1  0  0  0
 29 25  1  0  0  0  0
 31 38  1  0  0  0  0
 31 26  1  0  0  0  0
 32 31  2  0  0  0  0
 33 35  2  0  0  0  0
 33 32  1  0  0  0  0
 34 33  1  0  0  0  0
 35 36  1  0  0  0  0
 36 37  1  0  0  0  0
 36 38  2  0  0  0  0
M  END
>  <minimizedAffinity>
-6.13870525

>  <minimizedRMSD>
0.650056839

$$$$
