
 OpenBabel03242509283D

 47 51  0  0  0  0  0  0  0  0999 V2000
   35.9780   29.9970   40.9440 C   0  0  0  0  0  0  0  0  0  0  0  0
   35.3730   30.5290   41.7100 H   0  0  0  0  0  0  0  0  0  0  0  0
   36.5950   30.7970   40.4740 H   0  0  0  0  0  0  0  0  0  0  0  0
   38.4270   28.1180   42.6190 C   0  0  0  0  0  0  0  0  0  0  0  0
   37.3510   27.2620   42.6890 C   0  0  0  0  0  0  0  0  0  0  0  0
   36.2930   27.9020   42.0450 C   0  0  0  0  0  0  0  0  0  0  0  0
   36.8050   29.0770   41.6440 N   0  0  0  0  0  0  0  0  0  0  0  0
   38.0490   29.2360   41.9630 N   0  0  0  0  0  0  0  0  0  0  0  0
   37.3740   26.2940   43.1600 H   0  0  0  0  0  0  0  0  0  0  0  0
   35.3080   27.4710   41.9390 H   0  0  0  0  0  0  0  0  0  0  0  0
   41.3500   26.4790   44.2470 C   0  0  0  0  0  0  0  0  0  0  0  0
   40.0550   26.6480   43.7460 C   0  0  0  0  0  0  0  0  0  0  0  0
   39.7530   27.8850   43.1540 C   0  0  0  0  0  0  0  0  0  0  0  0
   40.6990   28.8650   43.0820 N   0  0  0  0  0  0  0  0  0  0  0  0
   41.9420   28.6220   43.5950 C   0  0  0  0  0  0  0  0  0  0  0  0
   42.2630   27.4490   44.1680 N   0  0  0  0  0  0  0  0  0  0  0  0
   41.6000   25.5290   44.7070 H   0  0  0  0  0  0  0  0  0  0  0  0
   39.3060   25.8680   43.8040 H   0  0  0  0  0  0  0  0  0  0  0  0
   42.9280   29.7100   43.4940 C   0  0  0  0  0  0  0  0  0  0  0  0
   42.4970   30.9490   43.0690 C   0  0  0  0  0  3  0  0  0  0  0  0
   43.4000   32.0090   42.9590 C   0  0  0  0  0  0  0  0  0  0  0  0
   43.1240   32.9920   42.6350 H   0  0  0  0  0  0  0  0  0  0  0  0
   44.6970   31.6950   43.3040 C   0  0  0  0  0  3  0  0  0  0  0  0
   45.1790   30.4770   43.7330 C   0  0  0  0  0  0  0  0  0  0  0  0
   46.2260   30.3600   43.9730 H   0  0  0  0  0  0  0  0  0  0  0  0
   44.2350   29.4480   43.8260 C   0  0  0  0  0  3  0  0  0  0  0  0
   35.1280   29.4040   39.8620 C   0  0  0  0  0  0  0  0  0  0  0  0
   34.6890   28.4830   40.2080 H   0  0  0  0  0  0  0  0  0  0  0  0
   34.3890   30.2650   39.7340 H   0  0  0  0  0  0  0  0  0  0  0  0
   35.7730   29.3580   38.5240 C   0  0  0  0  0  0  0  0  0  0  0  0
   37.0980   29.4940   38.2330 C   0  0  0  0  0  0  0  0  0  0  0  0
   37.6480   29.5260   36.9910 C   0  0  0  0  0  0  0  0  0  0  0  0
   36.8220   29.4160   35.8900 C   0  0  0  0  0  0  0  0  0  0  0  0
   35.4610   29.2740   36.1150 C   0  0  0  0  0  0  0  0  0  0  0  0
   34.7010   29.1730   34.9750 C   0  0  0  0  0  0  0  0  0  0  0  0
   33.3430   29.0250   35.0880 C   0  0  0  0  0  0  0  0  0  0  0  0
   32.7750   28.9800   36.3640 C   0  0  0  0  0  0  0  0  0  0  0  0
   33.5980   29.0880   37.4390 C   0  0  0  0  0  0  0  0  0  0  0  0
   34.9430   29.2420   37.3990 C   0  0  0  0  0  0  0  0  0  0  0  0
   37.7600   29.5820   39.1010 H   0  0  0  0  0  0  0  0  0  0  0  0
   38.7190   29.6370   36.9010 H   0  0  0  0  0  0  0  0  0  0  0  0
   37.2620   29.4450   34.9220 H   0  0  0  0  0  0  0  0  0  0  0  0
   35.1240   29.2040   33.9780 H   0  0  0  0  0  0  0  0  0  0  0  0
   32.7240   28.9460   34.2050 H   0  0  0  0  0  0  0  0  0  0  0  0
   31.7090   28.8600   36.4290 H   0  0  0  0  0  0  0  0  0  0  0  0
   32.9590   29.0170   38.6660 O   0  0  0  0  0  0  0  0  0  0  0  0
   32.3280   28.2200   38.8390 H   0  0  0  0  0  0  0  0  0  0  0  0
  1  7  1  0  0  0  0
  1  2  1  0  0  0  0
  3  1  1  0  0  0  0
  4  5  1  0  0  0  0
  4 13  1  0  0  0  0
  5  9  1  0  0  0  0
  6  5  2  0  0  0  0
  7  8  1  0  0  0  0
  7  6  1  0  0  0  0
  8  4  2  0  0  0  0
 10  6  1  0  0  0  0
 11 17  1  0  0  0  0
 12 18  1  0  0  0  0
 12 11  2  0  0  0  0
 13 12  1  0  0  0  0
 14 13  2  0  0  0  0
 14 15  1  0  0  0  0
 15 16  2  0  0  0  0
 16 11  1  0  0  0  0
 19 15  1  0  0  0  0
 19 26  1  0  0  0  0
 20 19  2  0  0  0  0
 21 20  1  0  0  0  0
 21 23  2  0  0  0  0
 22 21  1  0  0  0  0
 23 24  1  0  0  0  0
 24 26  2  0  0  0  0
 24 25  1  0  0  0  0
 27 28  1  0  0  0  0
 27  1  1  0  0  0  0
 29 27  1  0  0  0  0
 30 27  1  0  0  0  0
 31 30  1  0  0  0  0
 31 40  1  0  0  0  0
 32 31  2  0  0  0  0
 33 34  2  0  0  0  0
 33 32  1  0  0  0  0
 34 39  1  0  0  0  0
 35 36  2  0  0  0  0
 35 34  1  0  0  0  0
 36 37  1  0  0  0  0
 37 45  1  0  0  0  0
 37 38  2  0  0  0  0
 38 46  1  0  0  0  0
 39 38  1  0  0  0  0
 39 30  2  0  0  0  0
 41 32  1  0  0  0  0
 42 33  1  0  0  0  0
 43 35  1  0  0  0  0
 44 36  1  0  0  0  0
 46 47  1  0  0  0  0
M  END
>  <minimizedAffinity>
-6.1982832

>  <minimizedRMSD>
0.488291591

$$$$
