
 OpenBabel03242509283D

 47 51  0  0  0  0  0  0  0  0999 V2000
   35.9790   29.9980   40.9440 C   0  0  0  0  0  0  0  0  0  0  0  0
   35.3740   30.5300   41.7100 H   0  0  0  0  0  0  0  0  0  0  0  0
   36.5960   30.7980   40.4730 H   0  0  0  0  0  0  0  0  0  0  0  0
   38.4270   28.1180   42.6190 C   0  0  0  0  0  0  0  0  0  0  0  0
   37.3510   27.2630   42.6890 C   0  0  0  0  0  0  0  0  0  0  0  0
   36.2930   27.9030   42.0440 C   0  0  0  0  0  0  0  0  0  0  0  0
   36.8060   29.0780   41.6440 N   0  0  0  0  0  0  0  0  0  0  0  0
   38.0490   29.2360   41.9630 N   0  0  0  0  0  0  0  0  0  0  0  0
   37.3740   26.2950   43.1600 H   0  0  0  0  0  0  0  0  0  0  0  0
   35.3090   27.4720   41.9380 H   0  0  0  0  0  0  0  0  0  0  0  0
   41.3500   26.4800   44.2480 C   0  0  0  0  0  0  0  0  0  0  0  0
   40.0550   26.6490   43.7470 C   0  0  0  0  0  0  0  0  0  0  0  0
   39.7530   27.8850   43.1540 C   0  0  0  0  0  0  0  0  0  0  0  0
   40.6990   28.8650   43.0820 N   0  0  0  0  0  0  0  0  0  0  0  0
   41.9430   28.6220   43.5950 C   0  0  0  0  0  0  0  0  0  0  0  0
   42.2630   27.4490   44.1690 N   0  0  0  0  0  0  0  0  0  0  0  0
   41.6000   25.5300   44.7080 H   0  0  0  0  0  0  0  0  0  0  0  0
   39.3060   25.8690   43.8050 H   0  0  0  0  0  0  0  0  0  0  0  0
   42.9290   29.7100   43.4940 C   0  0  0  0  0  0  0  0  0  0  0  0
   42.4980   30.9500   43.0700 C   0  0  0  0  0  3  0  0  0  0  0  0
   43.4010   32.0080   42.9600 C   0  0  0  0  0  0  0  0  0  0  0  0
   43.1250   32.9930   42.6360 H   0  0  0  0  0  0  0  0  0  0  0  0
   44.6980   31.6940   43.3030 C   0  0  0  0  0  3  0  0  0  0  0  0
   45.1800   30.4770   43.7320 C   0  0  0  0  0  0  0  0  0  0  0  0
   46.2270   30.3590   43.9720 H   0  0  0  0  0  0  0  0  0  0  0  0
   44.2360   29.4480   43.8250 C   0  0  0  0  0  3  0  0  0  0  0  0
   35.1290   29.4050   39.8620 C   0  0  0  0  0  0  0  0  0  0  0  0
   34.6890   28.4840   40.2090 H   0  0  0  0  0  0  0  0  0  0  0  0
   34.3900   30.2660   39.7340 H   0  0  0  0  0  0  0  0  0  0  0  0
   35.7730   29.3590   38.5240 C   0  0  0  0  0  0  0  0  0  0  0  0
   37.0980   29.4950   38.2320 C   0  0  0  0  0  0  0  0  0  0  0  0
   37.6480   29.5270   36.9900 C   0  0  0  0  0  0  0  0  0  0  0  0
   36.8210   29.4170   35.8900 C   0  0  0  0  0  0  0  0  0  0  0  0
   35.4610   29.2740   36.1160 C   0  0  0  0  0  0  0  0  0  0  0  0
   34.7010   29.1720   34.9750 C   0  0  0  0  0  0  0  0  0  0  0  0
   33.3430   29.0240   35.0890 C   0  0  0  0  0  0  0  0  0  0  0  0
   32.7750   28.9790   36.3640 C   0  0  0  0  0  0  0  0  0  0  0  0
   33.5990   29.0880   37.4390 C   0  0  0  0  0  0  0  0  0  0  0  0
   34.9430   29.2420   37.3990 C   0  0  0  0  0  0  0  0  0  0  0  0
   37.7600   29.5840   39.1000 H   0  0  0  0  0  0  0  0  0  0  0  0
   38.7190   29.6380   36.9000 H   0  0  0  0  0  0  0  0  0  0  0  0
   37.2610   29.4450   34.9210 H   0  0  0  0  0  0  0  0  0  0  0  0
   35.1240   29.2030   33.9790 H   0  0  0  0  0  0  0  0  0  0  0  0
   32.7230   28.9450   34.2060 H   0  0  0  0  0  0  0  0  0  0  0  0
   31.7080   28.8590   36.4300 H   0  0  0  0  0  0  0  0  0  0  0  0
   32.9590   29.0170   38.6670 O   0  0  0  0  0  0  0  0  0  0  0  0
   32.3280   28.2200   38.8400 H   0  0  0  0  0  0  0  0  0  0  0  0
  1  7  1  0  0  0  0
  1  2  1  0  0  0  0
  3  1  1  0  0  0  0
  4  5  1  0  0  0  0
  4 13  1  0  0  0  0
  5  9  1  0  0  0  0
  6  5  2  0  0  0  0
  7  8  1  0  0  0  0
  7  6  1  0  0  0  0
  8  4  2  0  0  0  0
 10  6  1  0  0  0  0
 11 17  1  0  0  0  0
 12 18  1  0  0  0  0
 12 11  2  0  0  0  0
 13 12  1  0  0  0  0
 14 13  2  0  0  0  0
 14 15  1  0  0  0  0
 15 16  2  0  0  0  0
 16 11  1  0  0  0  0
 19 15  1  0  0  0  0
 19 26  1  0  0  0  0
 20 19  2  0  0  0  0
 21 20  1  0  0  0  0
 21 23  2  0  0  0  0
 22 21  1  0  0  0  0
 23 24  1  0  0  0  0
 24 26  2  0  0  0  0
 24 25  1  0  0  0  0
 27 28  1  0  0  0  0
 27  1  1  0  0  0  0
 29 27  1  0  0  0  0
 30 27  1  0  0  0  0
 31 30  1  0  0  0  0
 31 40  1  0  0  0  0
 32 31  2  0  0  0  0
 33 34  2  0  0  0  0
 33 32  1  0  0  0  0
 34 39  1  0  0  0  0
 35 36  2  0  0  0  0
 35 34  1  0  0  0  0
 36 37  1  0  0  0  0
 37 45  1  0  0  0  0
 37 38  2  0  0  0  0
 38 46  1  0  0  0  0
 39 38  1  0  0  0  0
 39 30  2  0  0  0  0
 41 32  1  0  0  0  0
 42 33  1  0  0  0  0
 43 35  1  0  0  0  0
 44 36  1  0  0  0  0
 46 47  1  0  0  0  0
M  END
>  <minimizedAffinity>
-6.19845152

>  <minimizedRMSD>
0.521724939

$$$$
