
 OpenBabel03242506363D

 25 27  0  0  0  0  0  0  0  0999 V2000
   37.1050   30.1370   40.4750 C   0  0  0  0  0  0  0  0  0  0  0  0
   37.5270   31.4570   40.5510 C   0  0  0  0  0  0  0  0  0  0  0  0
   37.4700   32.1980   39.3920 C   0  0  0  0  0  0  0  0  0  0  0  0
   37.0280   31.6910   38.2260 N   0  0  0  0  0  0  0  0  0  0  0  0
   36.6190   30.3890   38.1830 C   0  0  0  0  0  0  0  0  0  0  0  0
   36.6630   29.6280   39.3120 N   0  0  0  0  0  0  0  0  0  0  0  0
   37.8760   31.8460   41.4880 H   0  0  0  0  0  0  0  0  0  0  0  0
   37.7990   33.2350   39.4430 H   0  0  0  0  0  0  0  0  0  0  0  0
   38.0340   28.8080   43.7620 C   0  0  0  0  0  0  0  0  0  0  0  0
   37.1910   27.6670   43.8870 C   0  0  0  0  0  0  0  0  0  0  0  0
   36.3330   27.3980   42.8340 C   0  0  0  0  0  0  0  0  0  0  0  0
   36.3310   28.2230   41.7400 N   0  0  0  0  0  0  0  0  0  0  0  0
   37.1330   29.2850   41.6520 C   0  0  0  0  0  0  0  0  0  0  0  0
   37.9760   29.5650   42.6630 N   0  0  0  0  0  0  0  0  0  0  0  0
   38.6770   28.9670   44.6100 H   0  0  0  0  0  0  0  0  0  0  0  0
   37.1300   26.9790   44.6990 H   0  0  0  0  0  0  0  0  0  0  0  0
   35.6320   26.5750   42.7720 H   0  0  0  0  0  0  0  0  0  0  0  0
   36.1290   29.7810   36.9440 C   0  0  0  0  0  0  0  0  0  0  0  0
   34.9780   29.0130   37.0160 C   0  0  0  0  0  0  0  0  0  0  0  0
   34.5360   28.4530   35.8400 C   0  0  0  0  0  0  0  0  0  0  0  0
   33.6320   27.8390   35.8530 H   0  0  0  0  0  0  0  0  0  0  0  0
   35.1730   28.6190   34.6240 C   0  0  0  0  0  0  0  0  0  0  0  0
   36.3170   29.3840   34.5580 C   0  0  0  0  0  0  0  0  0  0  0  0
   36.8930   29.5790   33.6620 H   0  0  0  0  0  0  0  0  0  0  0  0
   36.7670   29.9490   35.7310 C   0  0  0  0  0  0  0  0  0  0  0  0
  1  2  1  0  0  0  0
  1 13  1  0  0  0  0
  2  7  1  0  0  0  0
  3  8  1  0  0  0  0
  3  2  2  0  0  0  0
  4  3  1  0  0  0  0
  5  4  2  0  0  0  0
  5  6  1  0  0  0  0
  6  1  2  0  0  0  0
  9 10  1  0  0  0  0
  9 15  1  0  0  0  0
 10 16  1  0  0  0  0
 11 10  2  0  0  0  0
 12 11  1  0  0  0  0
 13 12  2  0  0  0  0
 13 14  1  0  0  0  0
 14  9  2  0  0  0  0
 17 11  1  0  0  0  0
 18 19  1  0  0  0  0
 18  5  1  0  0  0  0
 20 21  1  0  0  0  0
 20 19  2  0  0  0  0
 22 20  1  0  0  0  0
 23 22  2  0  0  0  0
 23 25  1  0  0  0  0
 24 23  1  0  0  0  0
 25 18  2  0  0  0  0
M  END
>  <minimizedAffinity>
-4.56271887

>  <minimizedRMSD>
1.5221169

$$$$
