
 OpenBabel03242508273D

 23 25  0  0  0  0  0  0  0  0999 V2000
   38.7070   31.7280   40.1550 C   0  0  0  0  0  0  0  0  0  0  0  0
   39.4930   30.9350   39.3580 N   0  0  0  0  0  0  0  0  0  0  0  0
   38.6990   30.1680   38.6240 O   0  0  0  0  0  0  0  0  0  0  0  0
   37.4750   30.4680   38.9470 C   0  0  0  0  0  0  0  0  0  0  0  0
   37.4280   31.4230   39.8830 N   0  0  0  0  0  0  0  0  0  0  0  0
   36.2930   29.8410   38.3580 C   0  0  0  0  0  0  0  0  0  0  0  0
   36.1860   29.6160   37.0010 C   0  0  0  0  0  0  0  0  0  0  0  0
   35.0540   29.0190   36.4660 C   0  0  0  0  0  0  0  0  0  0  0  0
   34.9070   28.8150   35.4110 H   0  0  0  0  0  0  0  0  0  0  0  0
   34.0000   28.6340   37.2880 C   0  0  0  0  0  0  0  0  0  0  0  0
   34.0820   28.8490   38.6660 C   0  0  0  0  0  0  0  0  0  0  0  0
   33.3050   28.5780   39.3790 H   0  0  0  0  0  0  0  0  0  0  0  0
   35.2190   29.4380   39.1270 C   0  0  0  0  0  0  0  0  0  0  0  0
   39.0730   32.6910   41.0910 O   0  0  0  0  0  0  0  0  0  0  0  0
   39.1980   36.1690   39.9960 C   0  0  0  0  0  0  0  0  0  0  0  0
   40.5920   36.2900   39.8130 C   0  0  0  0  0  0  0  0  0  0  0  0
   41.3900   35.1440   40.0870 C   0  0  0  0  0  0  0  0  0  0  0  0
   40.7580   34.0090   40.5060 N   0  0  0  0  0  0  0  0  0  0  0  0
   39.4390   33.9500   40.6620 C   0  0  0  0  0  0  0  0  0  0  0  0
   38.6460   35.0170   40.4120 N   0  0  0  0  0  0  0  0  0  0  0  0
   38.5310   37.0030   39.8060 H   0  0  0  0  0  0  0  0  0  0  0  0
   40.9910   37.2340   39.4790 H   0  0  0  0  0  0  0  0  0  0  0  0
   42.4590   35.2420   39.9450 H   0  0  0  0  0  0  0  0  0  0  0  0
  1 14  1  0  0  0  0
  2  1  2  0  0  0  0
  3  4  1  0  0  0  0
  3  2  1  0  0  0  0
  4  5  2  0  0  0  0
  5  1  1  0  0  0  0
  6  4  1  0  0  0  0
  6 13  1  0  0  0  0
  7  6  2  0  0  0  0
  8  7  1  0  0  0  0
  8 10  2  0  0  0  0
  9  8  1  0  0  0  0
 10 11  1  0  0  0  0
 11 13  2  0  0  0  0
 11 12  1  0  0  0  0
 15 20  1  0  0  0  0
 16 15  2  0  0  0  0
 16 17  1  0  0  0  0
 17 18  2  0  0  0  0
 18 19  1  0  0  0  0
 19 14  1  0  0  0  0
 20 19  2  0  0  0  0
 21 15  1  0  0  0  0
 22 16  1  0  0  0  0
 23 17  1  0  0  0  0
M  END
>  <minimizedAffinity>
-4.81463242

>  <minimizedRMSD>
6.35609055

$$$$
