
 OpenBabel03242509283D

 47 51  0  0  0  0  0  0  0  0999 V2000
   36.1280   30.0650   41.0840 C   0  0  0  0  0  0  0  0  0  0  0  0
   35.5540   30.6060   41.8690 H   0  0  0  0  0  0  0  0  0  0  0  0
   36.7480   30.8560   40.6010 H   0  0  0  0  0  0  0  0  0  0  0  0
   38.5820   28.1290   42.6850 C   0  0  0  0  0  0  0  0  0  0  0  0
   37.4920   27.2940   42.7780 C   0  0  0  0  0  0  0  0  0  0  0  0
   36.4300   27.9590   42.1650 C   0  0  0  0  0  0  0  0  0  0  0  0
   36.9550   29.1260   41.7580 N   0  0  0  0  0  0  0  0  0  0  0  0
   38.2090   29.2580   42.0450 N   0  0  0  0  0  0  0  0  0  0  0  0
   37.5090   26.3230   43.2440 H   0  0  0  0  0  0  0  0  0  0  0  0
   35.4350   27.5470   42.0830 H   0  0  0  0  0  0  0  0  0  0  0  0
   41.5200   26.4170   44.2060 C   0  0  0  0  0  0  0  0  0  0  0  0
   40.2170   26.6140   43.7390 C   0  0  0  0  0  0  0  0  0  0  0  0
   39.9170   27.8680   43.1840 C   0  0  0  0  0  0  0  0  0  0  0  0
   40.8720   28.8390   43.1150 N   0  0  0  0  0  0  0  0  0  0  0  0
   42.1240   28.5690   43.5940 C   0  0  0  0  0  0  0  0  0  0  0  0
   42.4430   27.3780   44.1300 N   0  0  0  0  0  0  0  0  0  0  0  0
   41.7690   25.4530   44.6370 H   0  0  0  0  0  0  0  0  0  0  0  0
   39.4600   25.8410   43.7940 H   0  0  0  0  0  0  0  0  0  0  0  0
   43.1210   29.6470   43.4980 C   0  0  0  0  0  0  0  0  0  0  0  0
   43.6800   30.1320   44.6620 C   0  0  0  0  0  3  0  0  0  0  0  0
   44.6290   31.1540   44.6140 C   0  0  0  0  0  0  0  0  0  0  0  0
   45.0970   31.5700   45.4840 H   0  0  0  0  0  0  0  0  0  0  0  0
   44.9270   31.6010   43.3440 C   0  0  0  0  0  3  0  0  0  0  0  0
   44.4000   31.1540   42.1530 C   0  0  0  0  0  0  0  0  0  0  0  0
   44.7190   31.5900   41.2190 H   0  0  0  0  0  0  0  0  0  0  0  0
   43.4530   30.1280   42.2540 C   0  0  0  0  0  3  0  0  0  0  0  0
   35.2370   29.4950   40.0230 C   0  0  0  0  0  0  0  0  0  0  0  0
   34.7640   28.5980   40.3890 H   0  0  0  0  0  0  0  0  0  0  0  0
   34.5340   30.3850   39.8930 H   0  0  0  0  0  0  0  0  0  0  0  0
   35.8590   29.4030   38.6770 C   0  0  0  0  0  0  0  0  0  0  0  0
   37.1790   29.5290   38.3590 C   0  0  0  0  0  0  0  0  0  0  0  0
   37.7080   29.5190   37.1070 C   0  0  0  0  0  0  0  0  0  0  0  0
   36.8640   29.3700   36.0250 C   0  0  0  0  0  0  0  0  0  0  0  0
   35.5080   29.2350   36.2780 C   0  0  0  0  0  0  0  0  0  0  0  0
   34.7290   29.0940   35.1550 C   0  0  0  0  0  0  0  0  0  0  0  0
   33.3730   28.9500   35.2960 C   0  0  0  0  0  0  0  0  0  0  0  0
   32.8260   28.9480   36.5810 C   0  0  0  0  0  0  0  0  0  0  0  0
   33.6680   29.0940   37.6380 C   0  0  0  0  0  0  0  0  0  0  0  0
   35.0110   29.2480   37.5700 C   0  0  0  0  0  0  0  0  0  0  0  0
   37.8550   29.6480   39.2120 H   0  0  0  0  0  0  0  0  0  0  0  0
   38.7780   29.6270   36.9960 H   0  0  0  0  0  0  0  0  0  0  0  0
   37.2880   29.3650   35.0490 H   0  0  0  0  0  0  0  0  0  0  0  0
   35.1360   29.0900   34.1510 H   0  0  0  0  0  0  0  0  0  0  0  0
   32.7390   28.8400   34.4260 H   0  0  0  0  0  0  0  0  0  0  0  0
   31.7610   28.8300   36.6690 H   0  0  0  0  0  0  0  0  0  0  0  0
   33.0490   29.0650   38.8780 O   0  0  0  0  0  0  0  0  0  0  0  0
   32.4210   28.2740   39.0890 H   0  0  0  0  0  0  0  0  0  0  0  0
  1  7  1  0  0  0  0
  1  2  1  0  0  0  0
  3  1  1  0  0  0  0
  4  5  1  0  0  0  0
  4 13  1  0  0  0  0
  5  9  1  0  0  0  0
  6  5  2  0  0  0  0
  7  8  1  0  0  0  0
  7  6  1  0  0  0  0
  8  4  2  0  0  0  0
 10  6  1  0  0  0  0
 11 17  1  0  0  0  0
 12 18  1  0  0  0  0
 12 11  2  0  0  0  0
 13 12  1  0  0  0  0
 14 13  2  0  0  0  0
 14 15  1  0  0  0  0
 15 16  2  0  0  0  0
 16 11  1  0  0  0  0
 19 15  1  0  0  0  0
 19 20  1  0  0  0  0
 21 20  2  0  0  0  0
 21 22  1  0  0  0  0
 23 21  1  0  0  0  0
 24 26  1  0  0  0  0
 24 23  2  0  0  0  0
 25 24  1  0  0  0  0
 26 19  2  0  0  0  0
 27 28  1  0  0  0  0
 27  1  1  0  0  0  0
 29 27  1  0  0  0  0
 30 27  1  0  0  0  0
 31 30  1  0  0  0  0
 31 40  1  0  0  0  0
 32 31  2  0  0  0  0
 33 34  2  0  0  0  0
 33 32  1  0  0  0  0
 34 39  1  0  0  0  0
 35 36  2  0  0  0  0
 35 34  1  0  0  0  0
 36 37  1  0  0  0  0
 37 45  1  0  0  0  0
 37 38  2  0  0  0  0
 38 46  1  0  0  0  0
 39 38  1  0  0  0  0
 39 30  2  0  0  0  0
 41 32  1  0  0  0  0
 42 33  1  0  0  0  0
 43 35  1  0  0  0  0
 44 36  1  0  0  0  0
 46 47  1  0  0  0  0
M  END
>  <minimizedAffinity>
-6.1160202

>  <minimizedRMSD>
0.390577018

$$$$
