
 OpenBabel03242509283D

 47 51  0  0  0  0  0  0  0  0999 V2000
   36.1900   30.0900   41.1310 C   0  0  0  0  0  0  0  0  0  0  0  0
   35.6280   30.6350   41.9210 H   0  0  0  0  0  0  0  0  0  0  0  0
   36.8140   30.8750   40.6440 H   0  0  0  0  0  0  0  0  0  0  0  0
   38.6410   28.1290   42.7080 C   0  0  0  0  0  0  0  0  0  0  0  0
   37.5400   27.3100   42.8220 C   0  0  0  0  0  0  0  0  0  0  0  0
   36.4790   27.9850   42.2200 C   0  0  0  0  0  0  0  0  0  0  0  0
   37.0140   29.1430   41.7980 N   0  0  0  0  0  0  0  0  0  0  0  0
   38.2740   29.2590   42.0670 N   0  0  0  0  0  0  0  0  0  0  0  0
   37.5500   26.3410   43.2930 H   0  0  0  0  0  0  0  0  0  0  0  0
   35.4780   27.5870   42.1550 H   0  0  0  0  0  0  0  0  0  0  0  0
   41.5600   26.4100   44.2570 C   0  0  0  0  0  0  0  0  0  0  0  0
   40.2520   26.6230   43.8110 C   0  0  0  0  0  0  0  0  0  0  0  0
   39.9790   27.8510   43.1890 C   0  0  0  0  0  0  0  0  0  0  0  0
   40.9640   28.7820   43.0370 N   0  0  0  0  0  0  0  0  0  0  0  0
   42.2190   28.4980   43.5000 C   0  0  0  0  0  0  0  0  0  0  0  0
   42.5120   27.3310   44.1000 N   0  0  0  0  0  0  0  0  0  0  0  0
   41.7880   25.4650   44.7400 H   0  0  0  0  0  0  0  0  0  0  0  0
   39.4710   25.8820   43.9330 H   0  0  0  0  0  0  0  0  0  0  0  0
   43.2480   29.5330   43.3130 C   0  0  0  0  0  0  0  0  0  0  0  0
   44.4710   29.1580   42.7970 C   0  0  0  0  0  3  0  0  0  0  0  0
   45.4740   30.1090   42.6040 C   0  0  0  0  0  0  0  0  0  0  0  0
   46.4430   29.8770   42.2070 H   0  0  0  0  0  0  0  0  0  0  0  0
   45.1260   31.3930   42.9660 C   0  0  0  0  0  3  0  0  0  0  0  0
   43.9210   31.8200   43.4840 C   0  0  0  0  0  0  0  0  0  0  0  0
   43.7750   32.8600   43.7280 H   0  0  0  0  0  0  0  0  0  0  0  0
   42.9490   30.8280   43.6590 C   0  0  0  0  0  3  0  0  0  0  0  0
   35.2870   29.5280   40.0770 C   0  0  0  0  0  0  0  0  0  0  0  0
   34.8060   28.6380   40.4470 H   0  0  0  0  0  0  0  0  0  0  0  0
   34.5930   30.4260   39.9500 H   0  0  0  0  0  0  0  0  0  0  0  0
   35.9000   29.4270   38.7280 C   0  0  0  0  0  0  0  0  0  0  0  0
   37.2160   29.5580   38.3980 C   0  0  0  0  0  0  0  0  0  0  0  0
   37.7360   29.5390   37.1430 C   0  0  0  0  0  0  0  0  0  0  0  0
   36.8850   29.3750   36.0690 C   0  0  0  0  0  0  0  0  0  0  0  0
   35.5310   29.2350   36.3330 C   0  0  0  0  0  0  0  0  0  0  0  0
   34.7450   29.0780   35.2170 C   0  0  0  0  0  0  0  0  0  0  0  0
   33.3910   28.9270   35.3690 C   0  0  0  0  0  0  0  0  0  0  0  0
   32.8540   28.9350   36.6590 C   0  0  0  0  0  0  0  0  0  0  0  0
   33.7020   29.0950   37.7080 C   0  0  0  0  0  0  0  0  0  0  0  0
   35.0440   29.2560   37.6280 C   0  0  0  0  0  0  0  0  0  0  0  0
   37.8980   29.6890   39.2450 H   0  0  0  0  0  0  0  0  0  0  0  0
   38.8050   29.6520   37.0230 H   0  0  0  0  0  0  0  0  0  0  0  0
   37.3020   29.3640   35.0900 H   0  0  0  0  0  0  0  0  0  0  0  0
   35.1440   29.0670   34.2100 H   0  0  0  0  0  0  0  0  0  0  0  0
   32.7520   28.8050   34.5050 H   0  0  0  0  0  0  0  0  0  0  0  0
   31.7910   28.8110   36.7550 H   0  0  0  0  0  0  0  0  0  0  0  0
   33.0930   29.0750   38.9520 O   0  0  0  0  0  0  0  0  0  0  0  0
   32.4720   28.2820   39.1750 H   0  0  0  0  0  0  0  0  0  0  0  0
  1  7  1  0  0  0  0
  1  2  1  0  0  0  0
  3  1  1  0  0  0  0
  4  5  1  0  0  0  0
  4 13  1  0  0  0  0
  5  9  1  0  0  0  0
  6  5  2  0  0  0  0
  7  8  1  0  0  0  0
  7  6  1  0  0  0  0
  8  4  2  0  0  0  0
 10  6  1  0  0  0  0
 11 17  1  0  0  0  0
 12 18  1  0  0  0  0
 12 11  2  0  0  0  0
 13 12  1  0  0  0  0
 14 13  2  0  0  0  0
 14 15  1  0  0  0  0
 15 16  2  0  0  0  0
 16 11  1  0  0  0  0
 19 15  1  0  0  0  0
 19 26  1  0  0  0  0
 20 19  2  0  0  0  0
 21 20  1  0  0  0  0
 21 23  2  0  0  0  0
 22 21  1  0  0  0  0
 23 24  1  0  0  0  0
 24 26  2  0  0  0  0
 24 25  1  0  0  0  0
 27 28  1  0  0  0  0
 27  1  1  0  0  0  0
 29 27  1  0  0  0  0
 30 27  1  0  0  0  0
 31 30  1  0  0  0  0
 31 40  1  0  0  0  0
 32 31  2  0  0  0  0
 33 34  2  0  0  0  0
 33 32  1  0  0  0  0
 34 39  1  0  0  0  0
 35 36  2  0  0  0  0
 35 34  1  0  0  0  0
 36 37  1  0  0  0  0
 37 45  1  0  0  0  0
 37 38  2  0  0  0  0
 38 46  1  0  0  0  0
 39 38  1  0  0  0  0
 39 30  2  0  0  0  0
 41 32  1  0  0  0  0
 42 33  1  0  0  0  0
 43 35  1  0  0  0  0
 44 36  1  0  0  0  0
 46 47  1  0  0  0  0
M  END
>  <minimizedAffinity>
-6.13512373

>  <minimizedRMSD>
0.230721876

$$$$
