
 OpenBabel03242505323D

 26 27  0  0  0  0  0  0  0  0999 V2000
   37.3200   30.0310   40.8370 C   0  0  0  0  0  0  0  0  0  0  0  0
   37.5380   29.4070   42.0680 C   0  0  0  0  0  0  0  0  0  0  0  0
   37.1220   28.0600   42.2490 C   0  0  0  0  0  0  0  0  0  0  0  0
   36.5250   27.4500   41.1860 N   0  0  0  0  0  0  0  0  0  0  0  0
   36.3270   28.0770   40.0050 C   0  0  0  0  0  0  0  0  0  0  0  0
   36.7260   29.3640   39.8360 N   0  0  0  0  0  0  0  0  0  0  0  0
   38.0040   29.9080   42.8750 H   0  0  0  0  0  0  0  0  0  0  0  0
   35.8430   27.5320   39.1930 H   0  0  0  0  0  0  0  0  0  0  0  0
   37.7300   31.4080   40.6080 C   0  0  0  0  0  0  0  0  0  0  0  0
   36.9520   32.1630   39.7490 C   0  0  0  0  0  0  0  0  0  0  0  0
   37.2450   33.4940   39.4530 C   0  0  0  0  0  0  0  0  0  0  0  0
   36.6150   34.0770   38.7690 H   0  0  0  0  0  0  0  0  0  0  0  0
   38.3680   34.0530   40.0580 C   0  0  0  0  0  0  0  0  0  0  0  0
   39.1630   33.3250   40.9170 C   0  0  0  0  0  0  0  0  0  0  0  0
   40.0370   33.7480   41.3940 H   0  0  0  0  0  0  0  0  0  0  0  0
   38.8090   32.0110   41.1640 C   0  0  0  0  0  0  0  0  0  0  0  0
   37.3440   27.3730   43.5460 C   0  0  0  0  0  0  0  0  0  0  0  0
   36.9290   26.3630   43.4990 H   0  0  0  0  0  0  0  0  0  0  0  0
   36.7540   28.1320   44.7020 C   0  0  0  0  0  0  0  0  0  0  0  0
   37.1890   29.1170   44.8540 H   0  0  0  0  0  0  0  0  0  0  0  0
   35.6650   28.1070   44.5970 H   0  0  0  0  0  0  0  0  0  0  0  0
   36.9830   27.5250   45.6180 H   0  0  0  0  0  0  0  0  0  0  0  0
   38.8730   27.2310   43.7190 C   0  0  0  0  0  0  0  0  0  0  0  0
   39.3070   28.2510   43.8270 H   0  0  0  0  0  0  0  0  0  0  0  0
   39.2440   26.8220   42.7740 H   0  0  0  0  0  0  0  0  0  0  0  0
   39.1110   26.6190   44.6020 H   0  0  0  0  0  0  0  0  0  0  0  0
  1  2  1  0  0  0  0
  2  3  2  0  0  0  0
  2  7  1  0  0  0  0
  3 17  1  0  0  0  0
  4  3  1  0  0  0  0
  5  4  2  0  0  0  0
  6  5  1  0  0  0  0
  6  1  2  0  0  0  0
  8  5  1  0  0  0  0
  9  1  1  0  0  0  0
  9 16  1  0  0  0  0
 10  9  2  0  0  0  0
 11 10  1  0  0  0  0
 11 13  2  0  0  0  0
 12 11  1  0  0  0  0
 13 14  1  0  0  0  0
 14 16  2  0  0  0  0
 14 15  1  0  0  0  0
 17 23  1  0  0  0  0
 17 19  1  0  0  0  0
 18 17  1  0  0  0  0
 19 20  1  0  0  0  0
 19 22  1  0  0  0  0
 21 19  1  0  0  0  0
 23 24  1  0  0  0  0
 23 26  1  0  0  0  0
 25 23  1  0  0  0  0
M  END
>  <minimizedAffinity>
-5.00446987

>  <minimizedRMSD>
3.74498129

$$$$
