REMARK  Name = 
REMARK  1 active torsions:
REMARK  status: ('A' for Active; 'I' for Inactive)
REMARK    1  A    between atoms: C_3  and  C_7
REMARK                            x       y       z     vdW  Elec       q    Type
REMARK                         _______ _______ _______ _____ _____    ______ ____
ROOT
ATOM      1  C   UNL     1      37.974  28.885  43.377  0.00  0.00    +0.000 A 
ATOM      2  C   UNL     1      38.083  27.476  43.302  0.00  0.00    +0.000 A 
ATOM      3  C   UNL     1      37.443  26.816  42.255  0.00  0.00    +0.000 A 
ATOM      4  N   UNL     1      36.735  27.573  41.345  0.00  0.00    +0.000 NA
ATOM      5  C   UNL     1      36.655  28.913  41.451  0.00  0.00    +0.000 A 
ATOM      6  N   UNL     1      37.267  29.556  42.453  0.00  0.00    +0.000 NA
ATOM      7  H   UNL     1      38.462  29.421  44.180  0.00  0.00    +0.000 HD
ATOM      8  H   UNL     1      38.654  26.931  44.047  0.00  0.00    +0.000 HD
ATOM      9  N   UNL     1      35.931  29.662  40.516  0.00  0.00    +0.000 N 
ATOM     10  C   UNL     1      35.790  31.096  40.547  0.00  0.00    +0.000 C 
ATOM     11  C   UNL     1      34.330  31.366  40.813  0.00  0.00    +0.000 C 
ATOM     12  C   UNL     1      33.405  30.633  39.899  0.00  0.00    +0.000 C 
ATOM     13  H   UNL     1      32.817  31.392  39.339  0.00  0.00    +0.000 HD
ATOM     14  C   UNL     1      34.054  29.731  38.906  0.00  0.00    +0.000 C 
ATOM     15  C   UNL     1      35.250  28.986  39.407  0.00  0.00    +0.000 C 
ENDROOT
BRANCH   3  16
ATOM     16  C   UNL     1      37.532  25.336  42.141  0.00  0.00    +0.000 C 
ATOM     17  F   UNL     1      37.655  25.049  40.806  0.00  0.00    +0.000 F 
ATOM     18  F   UNL     1      38.620  24.835  42.800  0.00  0.00    +0.000 F 
ATOM     19  F   UNL     1      36.381  24.717  42.644  0.00  0.00    +0.000 F 
ENDBRANCH   3  16
TORSDOF 1
