
 OpenBabel03242509293D

 19 20  0  0  0  0  0  0  0  0999 V2000
   37.3930   28.4030   43.8530 C   0  0  0  0  0  0  0  0  0  0  0  0
   37.2530   27.0630   43.4210 C   0  0  0  0  0  0  0  0  0  0  0  0
   37.3020   26.7980   42.0540 C   0  0  0  0  0  0  0  0  0  0  0  0
   37.4840   27.8600   41.1920 N   0  0  0  0  0  0  0  0  0  0  0  0
   37.6130   29.1220   41.6430 C   0  0  0  0  0  0  0  0  0  0  0  0
   37.5680   29.3860   42.9540 N   0  0  0  0  0  0  0  0  0  0  0  0
   37.3590   28.6350   44.9090 H   0  0  0  0  0  0  0  0  0  0  0  0
   37.1120   26.2670   44.1450 H   0  0  0  0  0  0  0  0  0  0  0  0
   37.7970   30.1840   40.7500 N   0  0  0  0  0  0  0  0  0  0  0  0
   39.0290   30.4690   40.0590 C   0  0  0  0  0  2  0  0  0  0  0  0
   39.5140   31.7910   40.6000 C   0  0  0  0  0  2  0  0  0  0  0  0
   38.4810   32.8680   40.5760 C   0  0  0  0  0  3  0  0  0  0  0  0
   38.8640   33.6850   39.9270 H   0  0  0  0  0  0  0  0  0  0  0  0
   37.1380   32.4690   40.0680 C   0  0  0  0  0  2  0  0  0  0  0  0
   36.6880   31.1000   40.4640 C   0  0  0  0  0  2  0  0  0  0  0  0
   37.1580   25.4030   41.5590 C   0  0  0  0  0  0  0  0  0  0  0  0
   36.4720   25.4730   40.3740 F   0  0  0  0  0  0  0  0  0  0  0  0
   38.3700   24.8120   41.3310 F   0  0  0  0  0  0  0  0  0  0  0  0
   36.4390   24.6140   42.4650 F   0  0  0  0  0  0  0  0  0  0  0  0
  1  7  1  0  0  0  0
  2  1  1  0  0  0  0
  2  8  1  0  0  0  0
  3  2  2  0  0  0  0
  4  5  2  0  0  0  0
  4  3  1  0  0  0  0
  5  6  1  0  0  0  0
  6  1  2  0  0  0  0
  9  5  1  0  0  0  0
 10 11  1  0  0  0  0
 10  9  1  0  0  0  0
 12 11  1  0  0  0  0
 13 12  1  0  0  0  0
 14 15  1  0  0  0  0
 14 12  1  0  0  0  0
 15  9  1  0  0  0  0
 16  3  1  0  0  0  0
 16 19  1  0  0  0  0
 17 16  1  0  0  0  0
 18 16  1  0  0  0  0
M  END
>  <minimizedAffinity>
-4.90374327

>  <minimizedRMSD>
1.87220156

$$$$
