
 OpenBabel03242509293D

 19 20  0  0  0  0  0  0  0  0999 V2000
   37.4850   28.5380   43.7390 C   0  0  0  0  0  0  0  0  0  0  0  0
   37.3420   27.1740   43.3910 C   0  0  0  0  0  0  0  0  0  0  0  0
   37.3120   26.8330   42.0400 C   0  0  0  0  0  0  0  0  0  0  0  0
   37.4240   27.8460   41.1110 N   0  0  0  0  0  0  0  0  0  0  0  0
   37.5590   29.1330   41.4820 C   0  0  0  0  0  0  0  0  0  0  0  0
   37.5890   29.4700   42.7780 N   0  0  0  0  0  0  0  0  0  0  0  0
   37.5110   28.8290   44.7800 H   0  0  0  0  0  0  0  0  0  0  0  0
   37.2580   26.4180   44.1650 H   0  0  0  0  0  0  0  0  0  0  0  0
   37.6710   30.1460   40.5230 N   0  0  0  0  0  0  0  0  0  0  0  0
   38.7170   30.2250   39.5340 C   0  0  0  0  0  2  0  0  0  0  0  0
   39.5200   31.4560   39.8730 C   0  0  0  0  0  2  0  0  0  0  0  0
   38.6910   32.6840   40.0560 C   0  0  0  0  0  3  0  0  0  0  0  0
   39.0180   33.4260   39.2940 H   0  0  0  0  0  0  0  0  0  0  0  0
   37.2200   32.5010   39.9170 C   0  0  0  0  0  2  0  0  0  0  0  0
   36.6810   31.2250   40.4780 C   0  0  0  0  0  2  0  0  0  0  0  0
   37.1620   25.4100   41.6330 C   0  0  0  0  0  0  0  0  0  0  0  0
   36.4900   25.4100   40.4390 F   0  0  0  0  0  0  0  0  0  0  0  0
   38.3710   24.7970   41.4570 F   0  0  0  0  0  0  0  0  0  0  0  0
   36.4270   24.6850   42.5790 F   0  0  0  0  0  0  0  0  0  0  0  0
  1  7  1  0  0  0  0
  2  1  1  0  0  0  0
  2  8  1  0  0  0  0
  3  2  2  0  0  0  0
  4  5  2  0  0  0  0
  4  3  1  0  0  0  0
  5  6  1  0  0  0  0
  6  1  2  0  0  0  0
  9  5  1  0  0  0  0
 10 11  1  0  0  0  0
 10  9  1  0  0  0  0
 11 12  1  0  0  0  0
 13 12  1  0  0  0  0
 14 12  1  0  0  0  0
 14 15  1  0  0  0  0
 15  9  1  0  0  0  0
 16  3  1  0  0  0  0
 16 19  1  0  0  0  0
 17 16  1  0  0  0  0
 18 16  1  0  0  0  0
M  END
>  <minimizedAffinity>
-4.87773466

>  <minimizedRMSD>
1.73230994

$$$$
