
     RDKit          3D

 28 29  0  0  0  0  0  0  0  0999 V2000
   37.9744   28.8846   43.3768 C   0  0  0  0  0  0  0  0  0  0  0  0
   38.0829   27.4757   43.3016 C   0  0  0  0  0  0  0  0  0  0  0  0
   37.4428   26.8159   42.2553 C   0  0  0  0  0  0  0  0  0  0  0  0
   36.7350   27.5728   41.3454 N   0  0  0  0  0  0  0  0  0  0  0  0
   36.6551   28.9126   41.4509 C   0  0  0  0  0  0  0  0  0  0  0  0
   37.2668   29.5563   42.4530 N   0  0  0  0  0  0  0  0  0  0  0  0
   37.5325   25.3362   42.1408 C   0  0  0  0  0  0  0  0  0  0  0  0
   37.6550   25.0492   40.8055 F   0  0  0  0  0  0  0  0  0  0  0  0
   38.6202   24.8348   42.7998 F   0  0  0  0  0  0  0  0  0  0  0  0
   36.3812   24.7169   42.6440 F   0  0  0  0  0  0  0  0  0  0  0  0
   38.4624   29.4214   44.1799 H   0  0  0  0  0  0  0  0  0  0  0  0
   38.6539   26.9314   44.0466 H   0  0  0  0  0  0  0  0  0  0  0  0
   35.9311   29.6616   40.5159 N   0  0  0  0  0  0  0  0  0  0  0  0
   35.7496   29.2929   39.1338 C   0  0  0  0  0  0  0  0  0  0  0  0
   36.4785   30.3360   38.3248 C   0  0  0  0  0  0  0  0  0  0  0  0
   36.1176   31.7392   38.6851 C   0  0  0  0  0  0  0  0  0  0  0  0
   35.6839   32.2168   37.7795 H   0  0  0  0  0  0  0  0  0  0  0  0
   35.1388   31.8926   39.7976 C   0  0  0  0  0  0  0  0  0  0  0  0
   35.2928   30.9177   40.9211 C   0  0  0  0  0  0  0  0  0  0  0  0
   36.1359   28.3115   38.8554 H   0  0  0  0  0  0  0  0  0  0  0  0
   34.6711   29.3291   38.8337 H   0  0  0  0  0  0  0  0  0  0  0  0
   36.3057   30.0850   37.2563 H   0  0  0  0  0  0  0  0  0  0  0  0
   37.5663   30.1629   38.4778 H   0  0  0  0  0  0  0  0  0  0  0  0
   37.0391   32.3196   38.9212 H   0  0  0  0  0  0  0  0  0  0  0  0
   34.0932   31.8882   39.4215 H   0  0  0  0  0  0  0  0  0  0  0  0
   35.2610   32.9174   40.2296 H   0  0  0  0  0  0  0  0  0  0  0  0
   35.8248   31.3359   41.8008 H   0  0  0  0  0  0  0  0  0  0  0  0
   34.2788   30.6071   41.2941 H   0  0  0  0  0  0  0  0  0  0  0  0
  2  1  2  0
  3  2  1  0
  4  5  1  0
  4  3  2  0
  5  6  2  0
  6  1  1  0
  7  3  1  0
  7 10  1  0
  7  9  1  0
  8  7  1  0
  1 11  1  0
  2 12  1  0
 13 14  1  0
 14 15  1  0
 15 16  1  0
 16 17  1  0
 16 18  1  0
 18 19  1  0
 19 13  1  0
 14 20  1  0
 14 21  1  0
 15 22  1  0
 15 23  1  0
 16 24  1  0
 18 25  1  0
 18 26  1  0
 19 27  1  0
 19 28  1  0
  5 13  1  0
M  ISO  3  11  14  12  14  17  15
M  END
>  <DihAtoms>  (1) 
3,4,12,13

>  <DihDeg>  (1) 
-179.99036623504807

$$$$
