
     RDKit          3D

 28 29  0  0  0  0  0  0  0  0999 V2000
   37.9744   28.8846   43.3768 C   0  0  0  0  0  0  0  0  0  0  0  0
   38.0829   27.4757   43.3016 C   0  0  0  0  0  0  0  0  0  0  0  0
   37.4428   26.8159   42.2553 C   0  0  0  0  0  0  0  0  0  0  0  0
   36.7350   27.5728   41.3454 N   0  0  0  0  0  0  0  0  0  0  0  0
   36.6551   28.9126   41.4509 C   0  0  0  0  0  0  0  0  0  0  0  0
   37.2668   29.5563   42.4530 N   0  0  0  0  0  0  0  0  0  0  0  0
   37.5325   25.3362   42.1408 C   0  0  0  0  0  0  0  0  0  0  0  0
   37.6550   25.0492   40.8055 F   0  0  0  0  0  0  0  0  0  0  0  0
   38.6202   24.8348   42.7998 F   0  0  0  0  0  0  0  0  0  0  0  0
   36.3812   24.7169   42.6440 F   0  0  0  0  0  0  0  0  0  0  0  0
   38.4624   29.4214   44.1799 H   0  0  0  0  0  0  0  0  0  0  0  0
   38.6539   26.9314   44.0466 H   0  0  0  0  0  0  0  0  0  0  0  0
   35.9311   29.6616   40.5159 N   0  0  0  0  0  0  0  0  0  0  0  0
   36.0327   31.0909   40.3549 C   0  0  0  0  0  0  0  0  0  0  0  0
   34.6936   31.6525   40.7615 C   0  0  0  0  0  0  0  0  0  0  0  0
   33.5345   30.9945   40.0888 C   0  0  0  0  0  0  0  0  0  0  0  0
   33.0004   31.7741   39.5028 H   0  0  0  0  0  0  0  0  0  0  0  0
   33.8698   29.8755   39.1643 C   0  0  0  0  0  0  0  0  0  0  0  0
   34.9899   28.9920   39.6130 C   0  0  0  0  0  0  0  0  0  0  0  0
   36.8043   31.5768   40.9535 H   0  0  0  0  0  0  0  0  0  0  0  0
   36.2051   31.3760   39.2855 H   0  0  0  0  0  0  0  0  0  0  0  0
   34.7482   32.7501   40.5972 H   0  0  0  0  0  0  0  0  0  0  0  0
   34.6171   31.5408   41.8652 H   0  0  0  0  0  0  0  0  0  0  0  0
   32.8053   30.6373   40.8520 H   0  0  0  0  0  0  0  0  0  0  0  0
   34.0564   30.2437   38.1326 H   0  0  0  0  0  0  0  0  0  0  0  0
   32.9624   29.2303   39.0558 H   0  0  0  0  0  0  0  0  0  0  0  0
   34.6475   28.0422   40.0739 H   0  0  0  0  0  0  0  0  0  0  0  0
   35.6161   28.6960   38.7276 H   0  0  0  0  0  0  0  0  0  0  0  0
  2  1  2  0
  3  2  1  0
  4  5  1  0
  4  3  2  0
  5  6  2  0
  6  1  1  0
  7  3  1  0
  7 10  1  0
  7  9  1  0
  8  7  1  0
  1 11  1  0
  2 12  1  0
 13 14  1  0
 14 15  1  0
 15 16  1  0
 16 17  1  0
 16 18  1  0
 18 19  1  0
 19 13  1  0
 14 20  1  0
 14 21  1  0
 15 22  1  0
 15 23  1  0
 16 24  1  0
 18 25  1  0
 18 26  1  0
 19 27  1  0
 19 28  1  0
  5 13  1  0
M  ISO  3  11  14  12  14  17  15
M  END
>  <DihAtoms>  (1) 
3,4,12,13

>  <DihDeg>  (1) 
-179.99036623504807

$$$$
