
 OpenBabel03242509243D

 46 50  0  0  0  0  0  0  0  0999 V2000
   36.2440   30.0820   41.1800 C   0  0  0  0  0  0  0  0  0  0  0  0
   36.9250   30.8010   40.6790 H   0  0  0  0  0  0  0  0  0  0  0  0
   35.7270   30.6690   41.9610 H   0  0  0  0  0  0  0  0  0  0  0  0
   38.5500   27.9260   42.7360 C   0  0  0  0  0  0  0  0  0  0  0  0
   37.3860   27.2180   42.8990 C   0  0  0  0  0  0  0  0  0  0  0  0
   36.3740   27.9760   42.3160 C   0  0  0  0  0  0  0  0  0  0  0  0
   37.0010   29.0730   41.8480 N   0  0  0  0  0  0  0  0  0  0  0  0
   38.2800   29.0840   42.0750 N   0  0  0  0  0  0  0  0  0  0  0  0
   37.2970   26.2520   43.3950 H   0  0  0  0  0  0  0  0  0  0  0  0
   35.3560   27.6720   42.2910 H   0  0  0  0  0  0  0  0  0  0  0  0
   41.3780   25.9220   44.0890 C   0  0  0  0  0  0  0  0  0  0  0  0
   40.0820   26.2320   43.6730 C   0  0  0  0  0  0  0  0  0  0  0  0
   39.8720   27.5440   43.1800 C   0  0  0  0  0  0  0  0  0  0  0  0
   40.8910   28.4120   43.1330 N   0  0  0  0  0  0  0  0  0  0  0  0
   42.1350   28.0450   43.5560 C   0  0  0  0  0  0  0  0  0  0  0  0
   42.3790   26.8050   44.0320 N   0  0  0  0  0  0  0  0  0  0  0  0
   41.5020   24.9020   44.4610 H   0  0  0  0  0  0  0  0  0  0  0  0
   39.2810   25.5100   43.7230 H   0  0  0  0  0  0  0  0  0  0  0  0
   43.1910   28.9910   43.4920 N   0  0  0  0  0  0  0  0  0  0  0  0
   43.0480   30.1980   42.7010 C   0  0  0  0  0  0  0  0  0  0  0  0
   43.2430   31.4100   43.5690 C   0  0  0  0  0  0  0  0  0  0  0  0
   43.8420   31.0530   44.9130 C   0  0  0  0  0  0  0  0  0  0  0  0
   44.2580   31.9420   45.4070 H   0  0  0  0  0  0  0  0  0  0  0  0
   44.9750   30.0870   44.7050 C   0  0  0  0  0  0  0  0  0  0  0  0
   44.4290   28.7690   44.2130 C   0  0  0  0  0  0  0  0  0  0  0  0
   35.3150   29.5800   40.1160 C   0  0  0  0  0  0  0  0  0  0  0  0
   34.6710   30.5140   39.9990 H   0  0  0  0  0  0  0  0  0  0  0  0
   34.7850   28.7120   40.4710 H   0  0  0  0  0  0  0  0  0  0  0  0
   35.9240   29.4590   38.7630 C   0  0  0  0  0  0  0  0  0  0  0  0
   37.2400   29.5890   38.4290 C   0  0  0  0  0  0  0  0  0  0  0  0
   37.7510   29.5560   37.1720 C   0  0  0  0  0  0  0  0  0  0  0  0
   36.9000   29.3760   36.1030 C   0  0  0  0  0  0  0  0  0  0  0  0
   35.5470   29.2340   36.3730 C   0  0  0  0  0  0  0  0  0  0  0  0
   34.7500   29.0550   35.2580 C   0  0  0  0  0  0  0  0  0  0  0  0
   33.4090   28.8980   35.4300 C   0  0  0  0  0  0  0  0  0  0  0  0
   32.8690   28.9160   36.7000 C   0  0  0  0  0  0  0  0  0  0  0  0
   33.7240   29.1000   37.7600 C   0  0  0  0  0  0  0  0  0  0  0  0
   35.0660   29.2710   37.6710 C   0  0  0  0  0  0  0  0  0  0  0  0
   37.9230   29.7330   39.2650 H   0  0  0  0  0  0  0  0  0  0  0  0
   38.8190   29.6710   37.0390 H   0  0  0  0  0  0  0  0  0  0  0  0
   37.3100   29.3510   35.1020 H   0  0  0  0  0  0  0  0  0  0  0  0
   35.1560   29.0340   34.2540 H   0  0  0  0  0  0  0  0  0  0  0  0
   32.7650   28.7570   34.5720 H   0  0  0  0  0  0  0  0  0  0  0  0
   31.8020   28.7880   36.8270 H   0  0  0  0  0  0  0  0  0  0  0  0
   33.1200   29.0920   39.0100 O   0  0  0  0  0  0  0  0  0  0  0  0
   32.1670   29.3470   39.1810 H   0  0  0  0  0  0  0  0  0  0  0  0
  1  7  1  0  0  0  0
  1  3  1  0  0  0  0
  2  1  1  0  0  0  0
  4  5  1  0  0  0  0
  4 13  1  0  0  0  0
  5  9  1  0  0  0  0
  6  5  2  0  0  0  0
  7  8  1  0  0  0  0
  7  6  1  0  0  0  0
  8  4  2  0  0  0  0
 10  6  1  0  0  0  0
 11 17  1  0  0  0  0
 12 18  1  0  0  0  0
 12 11  2  0  0  0  0
 13 12  1  0  0  0  0
 14 13  2  0  0  0  0
 14 15  1  0  0  0  0
 15 16  2  0  0  0  0
 16 11  1  0  0  0  0
 19 15  1  0  0  0  0
 19 25  1  0  0  0  0
 20 19  1  0  0  0  0
 20 21  1  0  0  0  0
 21 22  1  0  0  0  0
 22 23  1  0  0  0  0
 24 22  1  0  0  0  0
 25 24  1  0  0  0  0
 26 28  1  0  0  0  0
 26  1  1  0  0  0  0
 27 26  1  0  0  0  0
 29 26  1  0  0  0  0
 30 29  1  0  0  0  0
 30 39  1  0  0  0  0
 31 30  2  0  0  0  0
 32 33  2  0  0  0  0
 32 31  1  0  0  0  0
 33 38  1  0  0  0  0
 34 35  2  0  0  0  0
 34 33  1  0  0  0  0
 35 36  1  0  0  0  0
 36 44  1  0  0  0  0
 36 37  2  0  0  0  0
 37 45  1  0  0  0  0
 38 37  1  0  0  0  0
 38 29  2  0  0  0  0
 40 31  1  0  0  0  0
 41 32  1  0  0  0  0
 42 34  1  0  0  0  0
 43 35  1  0  0  0  0
 45 46  1  0  0  0  0
M  END
>  <minimizedAffinity>
-6.49057007

>  <minimizedRMSD>
0.506066084

$$$$
