
     RDKit          3D

 28 29  0  0  0  0  0  0  0  0999 V2000
   37.9744   28.8846   43.3768 C   0  0  0  0  0  0  0  0  0  0  0  0
   38.0829   27.4757   43.3016 C   0  0  0  0  0  0  0  0  0  0  0  0
   37.4428   26.8159   42.2553 C   0  0  0  0  0  0  0  0  0  0  0  0
   36.7350   27.5728   41.3454 N   0  0  0  0  0  0  0  0  0  0  0  0
   36.6551   28.9126   41.4509 C   0  0  0  0  0  0  0  0  0  0  0  0
   37.2668   29.5563   42.4530 N   0  0  0  0  0  0  0  0  0  0  0  0
   37.5325   25.3362   42.1408 C   0  0  0  0  0  0  0  0  0  0  0  0
   37.6550   25.0492   40.8055 F   0  0  0  0  0  0  0  0  0  0  0  0
   38.6202   24.8348   42.7998 F   0  0  0  0  0  0  0  0  0  0  0  0
   36.3812   24.7169   42.6440 F   0  0  0  0  0  0  0  0  0  0  0  0
   38.4624   29.4214   44.1799 H   0  0  0  0  0  0  0  0  0  0  0  0
   38.6539   26.9314   44.0466 H   0  0  0  0  0  0  0  0  0  0  0  0
   35.9311   29.6616   40.5159 N   0  0  0  0  0  0  0  0  0  0  0  0
   35.4862   29.1668   39.2367 C   0  0  0  0  0  0  0  0  0  0  0  0
   36.2459   29.9532   38.1983 C   0  0  0  0  0  0  0  0  0  0  0  0
   36.1774   31.4319   38.3926 C   0  0  0  0  0  0  0  0  0  0  0  0
   35.6966   31.8667   37.4893 H   0  0  0  0  0  0  0  0  0  0  0  0
   35.4153   31.8954   39.5857 C   0  0  0  0  0  0  0  0  0  0  0  0
   35.5749   31.0529   40.8109 C   0  0  0  0  0  0  0  0  0  0  0  0
   35.6606   28.1049   39.0580 H   0  0  0  0  0  0  0  0  0  0  0  0
   34.3954   29.3622   39.0737 H   0  0  0  0  0  0  0  0  0  0  0  0
   35.8757   29.6097   37.2085 H   0  0  0  0  0  0  0  0  0  0  0  0
   37.3011   29.6046   38.2358 H   0  0  0  0  0  0  0  0  0  0  0  0
   37.2063   31.8589   38.4227 H   0  0  0  0  0  0  0  0  0  0  0  0
   34.3385   32.0359   39.3499 H   0  0  0  0  0  0  0  0  0  0  0  0
   35.7669   32.9255   39.8444 H   0  0  0  0  0  0  0  0  0  0  0  0
   36.2942   31.4709   41.5455 H   0  0  0  0  0  0  0  0  0  0  0  0
   34.5915   30.9800   41.3507 H   0  0  0  0  0  0  0  0  0  0  0  0
  2  1  2  0
  3  2  1  0
  4  5  1  0
  4  3  2  0
  5  6  2  0
  6  1  1  0
  7  3  1  0
  7 10  1  0
  7  9  1  0
  8  7  1  0
  1 11  1  0
  2 12  1  0
 13 14  1  0
 14 15  1  0
 15 16  1  0
 16 17  1  0
 16 18  1  0
 18 19  1  0
 19 13  1  0
 14 20  1  0
 14 21  1  0
 15 22  1  0
 15 23  1  0
 16 24  1  0
 18 25  1  0
 18 26  1  0
 19 27  1  0
 19 28  1  0
  5 13  1  0
M  ISO  3  11  14  12  14  17  15
M  END
>  <DihAtoms>  (1) 
3,4,12,13

>  <DihDeg>  (1) 
-179.99036623504807

$$$$
