
 OpenBabel03242507483D

 38 42  0  0  1  0  0  0  0  0999 V2000
   39.8890   26.1910   43.8950 C   0  0  2  0  0  0  0  0  0  0  0  0
   41.0430   25.7840   42.9680 C   0  0  0  0  0  0  0  0  0  0  0  0
   39.8400   24.9180   43.0990 C   0  0  2  0  0  0  0  0  0  0  0  0
   40.0570   26.1080   44.9810 H   0  0  0  0  0  0  0  0  0  0  0  0
   41.9560   25.4270   43.5290 H   0  0  0  0  0  0  0  0  0  0  0  0
   41.2340   26.3640   42.0570 H   0  0  0  0  0  0  0  0  0  0  0  0
   39.8580   24.0030   43.7300 H   0  0  0  0  0  0  0  0  0  0  0  0
   38.8540   24.7910   41.9860 C   0  0  0  0  0  0  0  0  0  0  0  0
   37.5950   24.2870   42.2670 C   0  0  0  0  0  0  0  0  0  0  0  0
   36.7860   24.1960   41.1630 C   0  0  0  0  0  0  0  0  0  0  0  0
   37.0980   24.5400   39.8910 N   0  0  0  0  0  0  0  0  0  0  0  0
   38.3430   25.0220   39.6980 C   0  0  0  0  0  0  0  0  0  0  0  0
   39.1930   25.1410   40.7270 N   0  0  0  0  0  0  0  0  0  0  0  0
   37.2610   23.9910   43.2340 H   0  0  0  0  0  0  0  0  0  0  0  0
   35.7640   23.8090   41.2770 H   0  0  0  0  0  0  0  0  0  0  0  0
   38.7530   25.4060   38.3920 N   0  0  0  0  0  0  0  0  0  0  0  0
   40.0850   25.9290   38.1490 C   0  0  0  0  0  0  0  0  0  0  0  0
   39.8920   27.3550   37.6710 C   0  0  0  0  0  0  0  0  0  0  0  0
   38.7240   27.5070   36.7480 C   0  0  0  0  0  0  0  0  0  0  0  0
   37.7930   27.8630   37.2570 H   0  0  0  0  0  0  0  0  0  0  0  0
   38.3870   26.1560   36.1450 C   0  0  0  0  0  0  0  0  0  0  0  0
   37.8400   25.2810   37.2720 C   0  0  0  0  0  0  0  0  0  0  0  0
   38.4510   29.1900   42.5600 C   0  0  0  0  0  0  0  0  0  0  0  0
   37.3950   28.7300   43.3650 C   0  0  0  0  0  0  0  0  0  0  0  0
   37.8490   27.5540   43.9390 C   0  0  0  0  0  0  0  0  0  0  0  0
   39.1000   27.3400   43.4930 N   0  0  0  0  0  0  0  0  0  0  0  0
   39.4700   28.3180   42.6640 N   0  0  0  0  0  0  0  0  0  0  0  0
   36.4190   29.2070   43.5060 H   0  0  0  0  0  0  0  0  0  0  0  0
   37.2820   26.9370   44.6190 H   0  0  0  0  0  0  0  0  0  0  0  0
   37.0130   31.8030   40.4350 C   0  0  0  0  0  0  0  0  0  0  0  0
   38.0520   32.7540   40.3490 C   0  0  0  0  0  0  0  0  0  0  0  0
   39.2480   32.4700   41.0370 C   0  0  0  0  0  0  0  0  0  0  0  0
   39.3530   31.3200   41.7400 N   0  0  0  0  0  0  0  0  0  0  0  0
   38.3190   30.4220   41.7970 C   0  0  0  0  0  0  0  0  0  0  0  0
   37.1400   30.6710   41.1380 N   0  0  0  0  0  0  0  0  0  0  0  0
   36.1070   32.0560   39.8930 H   0  0  0  0  0  0  0  0  0  0  0  0
   37.9450   33.6690   39.7790 H   0  0  0  0  0  0  0  0  0  0  0  0
   40.0760   33.1600   41.0060 H   0  0  0  0  0  0  0  0  0  0  0  0
  1  4  1  1  0  0  0
  2  3  1  0  0  0  0
  2  5  1  0  0  0  0
  2  1  1  0  0  0  0
  3  7  1  1  0  0  0
  3  1  1  0  0  0  0
  6  2  1  0  0  0  0
  8  9  1  0  0  0  0
  8  3  1  0  0  0  0
  9 14  1  0  0  0  0
 10 15  1  0  0  0  0
 10  9  2  0  0  0  0
 11 10  1  0  0  0  0
 12 11  2  0  0  0  0
 12 13  1  0  0  0  0
 13  8  2  0  0  0  0
 16 12  1  0  0  0  0
 17 16  1  0  0  0  0
 18 17  1  0  0  0  0
 19 20  1  0  0  0  0
 19 18  1  0  0  0  0
 21 19  1  0  0  0  0
 21 22  1  0  0  0  0
 22 16  1  0  0  0  0
 23 27  2  0  0  0  0
 23 24  1  0  0  0  0
 24 28  1  0  0  0  0
 24 25  2  0  0  0  0
 25 29  1  0  0  0  0
 26  1  1  0  0  0  0
 26 25  1  0  0  0  0
 27 26  1  0  0  0  0
 30 35  1  0  0  0  0
 31 30  2  0  0  0  0
 31 32  1  0  0  0  0
 32 33  2  0  0  0  0
 33 34  1  0  0  0  0
 34 23  1  0  0  0  0
 35 34  2  0  0  0  0
 36 30  1  0  0  0  0
 37 31  1  0  0  0  0
 38 32  1  0  0  0  0
M  END
>  <minimizedAffinity>
-5.87504196

>  <minimizedRMSD>
0.0870171636

$$$$
