
 OpenBabel03242509293D

 19 20  0  0  0  0  0  0  0  0999 V2000
   37.7990   28.6800   43.5060 C   0  0  0  0  0  0  0  0  0  0  0  0
   37.7300   27.2910   43.2440 C   0  0  0  0  0  0  0  0  0  0  0  0
   37.2560   26.8730   42.0020 C   0  0  0  0  0  0  0  0  0  0  0  0
   36.8790   27.8370   41.0910 N   0  0  0  0  0  0  0  0  0  0  0  0
   36.9600   29.1510   41.3790 C   0  0  0  0  0  0  0  0  0  0  0  0
   37.4140   29.5620   42.5690 N   0  0  0  0  0  0  0  0  0  0  0  0
   38.1640   29.0300   44.4620 H   0  0  0  0  0  0  0  0  0  0  0  0
   38.0410   26.5750   43.9980 H   0  0  0  0  0  0  0  0  0  0  0  0
   36.5710   30.1130   40.4400 N   0  0  0  0  0  0  0  0  0  0  0  0
   35.7880   29.8390   39.2610 C   0  0  0  0  0  2  0  0  0  0  0  0
   36.6940   30.1080   38.0860 C   0  0  0  0  0  2  0  0  0  0  0  0
   37.3660   31.4410   38.1360 C   0  0  0  0  0  3  0  0  0  0  0  0
   37.0410   32.0120   37.2390 H   0  0  0  0  0  0  0  0  0  0  0  0
   37.0730   32.2700   39.3380 C   0  0  0  0  0  2  0  0  0  0  0  0
   36.9620   31.5140   40.6230 C   0  0  0  0  0  2  0  0  0  0  0  0
   37.1670   25.4220   41.6870 C   0  0  0  0  0  0  0  0  0  0  0  0
   36.5390   25.3190   40.4730 F   0  0  0  0  0  0  0  0  0  0  0  0
   38.4000   24.8400   41.5950 F   0  0  0  0  0  0  0  0  0  0  0  0
   36.4210   24.7370   42.6550 F   0  0  0  0  0  0  0  0  0  0  0  0
  1  7  1  0  0  0  0
  2  1  1  0  0  0  0
  2  8  1  0  0  0  0
  3  2  2  0  0  0  0
  4  5  2  0  0  0  0
  4  3  1  0  0  0  0
  5  6  1  0  0  0  0
  6  1  2  0  0  0  0
  9 15  1  0  0  0  0
  9  5  1  0  0  0  0
 10  9  1  0  0  0  0
 11 12  1  0  0  0  0
 11 10  1  0  0  0  0
 12 14  1  0  0  0  0
 13 12  1  0  0  0  0
 14 15  1  0  0  0  0
 16  3  1  0  0  0  0
 16 19  1  0  0  0  0
 17 16  1  0  0  0  0
 18 16  1  0  0  0  0
M  END
>  <minimizedAffinity>
-5.17526722

>  <minimizedRMSD>
0.901475489

$$$$
