
 OpenBabel03242508133D

 46 50  0  0  1  0  0  0  0  0999 V2000
   38.9440   35.6250   40.1010 C   0  0  0  0  0  0  0  0  0  0  0  0
   40.2740   36.0250   40.3130 C   0  0  0  0  0  0  0  0  0  0  0  0
   41.1900   35.0020   40.6420 C   0  0  0  0  0  0  0  0  0  0  0  0
   40.6990   33.7800   40.7140 N   0  0  0  0  0  0  0  0  0  0  0  0
   39.4640   33.3660   40.5220 C   0  0  0  0  0  0  0  0  0  0  0  0
   38.6170   34.3400   40.2150 N   0  0  0  0  0  0  0  0  0  0  0  0
   38.2650   36.4280   39.8520 H   0  0  0  0  0  0  0  0  0  0  0  0
   40.5620   37.0560   40.2270 H   0  0  0  0  0  0  0  0  0  0  0  0
   38.8230   32.0630   40.5780 C   0  0  0  0  0  0  0  0  0  0  0  0
   38.7370   31.3180   41.7010 N   0  0  0  0  0  0  0  0  0  0  0  0
   38.1630   30.1340   41.7870 C   0  0  0  0  0  0  0  0  0  0  0  0
   37.6050   29.5660   40.7290 N   0  0  0  0  0  0  0  0  0  0  0  0
   37.6220   30.2100   39.5370 C   0  0  0  0  0  0  0  0  0  0  0  0
   37.0430   29.6270   38.4260 C   0  0  0  0  0  0  0  0  0  0  0  0
   37.0500   30.2550   37.2230 C   0  0  0  0  0  0  0  0  0  0  0  0
   37.6620   31.5210   37.1270 C   0  0  0  0  0  0  0  0  0  0  0  0
   38.2180   32.0380   38.2780 C   0  0  0  0  0  0  0  0  0  0  0  0
   38.2330   31.4450   39.4950 C   0  0  0  0  0  0  0  0  0  0  0  0
   38.0950   29.5370   42.6870 H   0  0  0  0  0  0  0  0  0  0  0  0
   36.5810   28.6560   38.5330 H   0  0  0  0  0  0  0  0  0  0  0  0
   36.5840   29.7720   36.3570 H   0  0  0  0  0  0  0  0  0  0  0  0
   37.6700   32.0180   36.1870 H   0  0  0  0  0  0  0  0  0  0  0  0
   38.6880   33.0250   38.1710 H   0  0  0  0  0  0  0  0  0  0  0  0
   42.4620   35.2690   40.8660 O   0  0  0  0  0  0  0  0  0  0  0  0
   43.1160   35.1460   42.1170 C   0  0  2  0  0  0  0  0  0  0  0  0
   42.6010   34.4460   42.8070 H   0  0  0  0  0  0  0  0  0  0  0  0
   42.8470   36.5300   42.8240 C   0  0  0  0  0  0  0  0  0  0  0  0
   43.0170   37.3430   42.0890 H   0  0  0  0  0  0  0  0  0  0  0  0
   43.6430   36.6150   43.5920 H   0  0  0  0  0  0  0  0  0  0  0  0
   41.8290   36.5440   43.2290 H   0  0  0  0  0  0  0  0  0  0  0  0
   44.5830   34.9680   41.9710 C   0  0  0  0  0  0  0  0  0  0  0  0
   44.7960   34.4540   41.0060 H   0  0  0  0  0  0  0  0  0  0  0  0
   45.0750   35.9540   42.0060 H   0  0  0  0  0  0  0  0  0  0  0  0
   45.0380   34.1580   43.0930 N   0  0  0  0  0  0  0  0  0  0  0  0
   46.2390   34.3110   43.7170 C   0  0  0  0  0  0  0  0  0  0  0  0
   46.3550   33.4120   44.7130 N   0  0  0  0  0  0  0  0  0  0  0  0
   45.1950   32.6890   44.6980 C   0  0  0  0  0  0  0  0  0  0  0  0
   44.4080   33.1670   43.6980 N   0  0  0  0  0  0  0  0  0  0  0  0
   46.9680   35.0590   43.4260 H   0  0  0  0  0  0  0  0  0  0  0  0
   44.8130   31.6030   45.5600 N   0  0  0  0  0  0  0  0  0  0  0  0
   45.2740   31.5030   46.9180 C   0  0  0  0  0  0  0  0  0  0  0  0
   44.2770   30.7330   47.7620 C   0  0  0  0  0  0  0  0  0  0  0  0
   43.9530   29.3780   47.2040 C   0  0  0  0  0  0  0  0  0  0  0  0
   42.9190   29.0730   47.5090 H   0  0  0  0  0  0  0  0  0  0  0  0
   44.0730   29.2780   45.7130 C   0  0  0  0  0  0  0  0  0  0  0  0
   43.9420   30.6070   45.0130 C   0  0  0  0  0  0  0  0  0  0  0  0
  1  6  2  0  0  0  0
  1  2  1  0  0  0  0
  2  3  2  0  0  0  0
  3  4  1  0  0  0  0
  3 24  1  0  0  0  0
  5  9  1  0  0  0  0
  5  4  2  0  0  0  0
  6  5  1  0  0  0  0
  7  1  1  0  0  0  0
  8  2  1  0  0  0  0
  9 10  1  0  0  0  0
 10 11  2  0  0  0  0
 11 19  1  0  0  0  0
 12 11  1  0  0  0  0
 13 12  2  0  0  0  0
 14 20  1  0  0  0  0
 14 13  1  0  0  0  0
 15 14  2  0  0  0  0
 16 15  1  0  0  0  0
 16 17  2  0  0  0  0
 17 18  1  0  0  0  0
 18 13  1  0  0  0  0
 18  9  2  0  0  0  0
 21 15  1  0  0  0  0
 22 16  1  0  0  0  0
 23 17  1  0  0  0  0
 24 25  1  0  0  0  0
 25 26  1  1  0  0  0
 25 27  1  0  0  0  0
 27 30  1  0  0  0  0
 27 29  1  0  0  0  0
 28 27  1  0  0  0  0
 31 33  1  0  0  0  0
 31 25  1  0  0  0  0
 31 34  1  0  0  0  0
 32 31  1  0  0  0  0
 34 38  1  0  0  0  0
 34 35  1  0  0  0  0
 35 36  2  0  0  0  0
 37 36  1  0  0  0  0
 37 40  1  0  0  0  0
 38 37  2  0  0  0  0
 39 35  1  0  0  0  0
 40 41  1  0  0  0  0
 41 42  1  0  0  0  0
 43 44  1  0  0  0  0
 43 42  1  0  0  0  0
 45 43  1  0  0  0  0
 46 40  1  0  0  0  0
 46 45  1  0  0  0  0
M  END
>  <minimizedAffinity>
-7.21537924

>  <minimizedRMSD>
0.563587606

$$$$
