
 OpenBabel03242508423D

 34 37  0  0  1  0  0  0  0  0999 V2000
   37.9930   27.3630   42.7460 C   0  0  2  0  0  0  0  0  0  0  0  0
   39.0900   27.6480   43.6820 C   0  0  0  0  0  0  0  0  0  0  0  0
   39.8110   26.3260   43.8390 C   0  0  0  0  0  0  0  0  0  0  0  0
   39.3140   25.4370   42.7540 C   0  0  0  0  0  0  0  0  0  0  0  0
   38.5720   26.3580   41.7750 C   0  0  1  0  0  0  0  0  0  0  0  0
   37.1870   26.7860   43.2810 H   0  0  0  0  0  0  0  0  0  0  0  0
   38.6980   27.9430   44.6810 H   0  0  0  0  0  0  0  0  0  0  0  0
   39.8490   28.3790   43.3310 H   0  0  0  0  0  0  0  0  0  0  0  0
   39.6520   25.9090   44.8750 H   0  0  0  0  0  0  0  0  0  0  0  0
   40.9180   26.4220   43.7130 H   0  0  0  0  0  0  0  0  0  0  0  0
   38.6510   24.6920   43.2120 H   0  0  0  0  0  0  0  0  0  0  0  0
   40.1400   24.9080   42.2420 H   0  0  0  0  0  0  0  0  0  0  0  0
   39.2180   26.7810   41.0080 H   0  0  0  0  0  0  0  0  0  0  0  0
   37.5450   25.4180   41.2130 C   0  0  0  0  0  0  0  0  0  0  0  0
   36.9790   24.4430   41.9180 N   0  0  0  0  0  0  0  0  0  0  0  0
   36.1520   23.8250   41.1080 O   0  0  0  0  0  0  0  0  0  0  0  0
   36.2040   24.4090   39.9230 C   0  0  0  0  0  0  0  0  0  0  0  0
   37.0690   25.4150   39.9430 N   0  0  0  0  0  0  0  0  0  0  0  0
   35.3870   23.9100   38.8720 N   0  0  0  0  0  0  0  0  0  0  0  0
   35.3580   24.4270   37.5160 C   0  0  0  0  0  0  0  0  0  0  0  0
   33.9340   24.8780   37.2770 C   0  0  0  0  0  0  0  0  0  0  0  0
   32.9080   23.8140   37.4930 C   0  0  0  0  0  0  0  0  0  0  0  0
   31.9250   24.3130   37.6250 H   0  0  0  0  0  0  0  0  0  0  0  0
   33.1110   22.9480   38.6860 C   0  0  0  0  0  0  0  0  0  0  0  0
   34.5160   22.7920   39.1300 C   0  0  0  0  0  0  0  0  0  0  0  0
   38.0850   29.7500   41.8700 C   0  0  0  0  0  0  0  0  0  0  0  0
   37.4260   28.5140   42.0710 C   0  0  0  0  0  0  0  0  0  0  0  0
   36.1380   28.3800   41.5660 C   0  0  0  0  0  0  0  0  0  0  0  0
   35.5740   29.4510   40.9050 N   0  0  0  0  0  0  0  0  0  0  0  0
   36.2500   30.6380   40.7320 C   0  0  0  0  0  0  0  0  0  0  0  0
   37.5230   30.7730   41.2280 N   0  0  0  0  0  0  0  0  0  0  0  0
   39.0820   29.8820   42.2610 H   0  0  0  0  0  0  0  0  0  0  0  0
   35.5220   27.4910   41.6420 H   0  0  0  0  0  0  0  0  0  0  0  0
   35.7440   31.4140   40.2150 H   0  0  0  0  0  0  0  0  0  0  0  0
  1  6  1  1  0  0  0
  1  2  1  0  0  0  0
  2  3  1  0  0  0  0
  2  7  1  0  0  0  0
  3  9  1  0  0  0  0
  4 11  1  0  0  0  0
  4  3  1  0  0  0  0
  5 13  1  6  0  0  0
  5  1  1  0  0  0  0
  5  4  1  0  0  0  0
  8  2  1  0  0  0  0
 10  3  1  0  0  0  0
 12  4  1  0  0  0  0
 14  5  1  0  0  0  0
 14 15  2  0  0  0  0
 16 15  1  0  0  0  0
 17 18  2  0  0  0  0
 17 16  1  0  0  0  0
 18 14  1  0  0  0  0
 19 25  1  0  0  0  0
 19 17  1  0  0  0  0
 20 19  1  0  0  0  0
 21 22  1  0  0  0  0
 21 20  1  0  0  0  0
 22 23  1  0  0  0  0
 22 24  1  0  0  0  0
 24 25  1  0  0  0  0
 26 27  1  0  0  0  0
 26 32  1  0  0  0  0
 27  1  1  0  0  0  0
 28 33  1  0  0  0  0
 28 27  2  0  0  0  0
 29 28  1  0  0  0  0
 30 29  2  0  0  0  0
 30 31  1  0  0  0  0
 31 26  2  0  0  0  0
 34 30  1  0  0  0  0
M  END
>  <minimizedAffinity>
-5.44409847

>  <minimizedRMSD>
0.682343483

$$$$
