
 OpenBabel03242508353D

 36 39  0  0  0  0  0  0  0  0999 V2000
   36.7140   31.0640   40.4930 C   0  0  0  0  0  0  0  0  0  0  0  0
   36.5060   31.3650   39.1740 N   0  0  0  0  0  0  0  0  0  0  0  0
   37.4150   32.2430   38.8000 O   0  0  0  0  0  0  0  0  0  0  0  0
   38.1780   32.4930   39.8500 C   0  0  0  0  0  0  0  0  0  0  0  0
   37.7720   31.7850   40.9000 N   0  0  0  0  0  0  0  0  0  0  0  0
   39.2960   33.4210   39.8140 C   0  0  0  0  0  0  0  0  0  0  0  0
   39.2500   34.7750   40.1150 C   0  0  0  0  0  0  0  0  0  0  0  0
   40.5110   35.3120   39.9660 C   0  0  0  0  0  0  0  0  0  0  0  0
   41.2930   34.2520   39.5740 C   0  0  0  0  0  0  0  0  0  0  0  0
   40.5420   33.2010   39.5060 O   0  0  0  0  0  0  0  0  0  0  0  0
   38.3370   35.2870   40.4170 H   0  0  0  0  0  0  0  0  0  0  0  0
   40.7680   36.3470   40.1330 H   0  0  0  0  0  0  0  0  0  0  0  0
   42.6860   34.3010   39.2910 N   0  0  0  0  0  0  0  0  0  0  0  0
   43.1900   34.4030   37.9350 C   0  0  0  0  0  0  0  0  0  0  0  0
   44.1420   33.2670   37.6690 C   0  0  0  0  0  0  0  0  0  0  0  0
   45.0940   32.9620   38.7690 C   0  0  0  0  0  0  0  0  0  0  0  0
   45.4170   31.8900   38.6150 H   0  0  0  0  0  0  0  0  0  0  0  0
   44.4980   33.0110   40.1380 C   0  0  0  0  0  0  0  0  0  0  0  0
   43.6590   34.2490   40.3680 C   0  0  0  0  0  0  0  0  0  0  0  0
   36.0230   30.1920   41.3490 O   0  0  0  0  0  0  0  0  0  0  0  0
   37.9880   27.8780   43.3590 C   0  0  0  0  0  0  0  0  0  0  0  0
   37.8240   26.7190   42.5390 C   0  0  0  0  0  0  0  0  0  0  0  0
   37.0660   26.8340   41.3920 C   0  0  0  0  0  0  0  0  0  0  0  0
   36.5270   28.0400   41.1150 N   0  0  0  0  0  0  0  0  0  0  0  0
   36.6800   29.1100   41.8750 C   0  0  0  0  0  0  0  0  0  0  0  0
   37.4110   29.0460   43.0040 N   0  0  0  0  0  0  0  0  0  0  0  0
   38.5440   27.9570   44.2800 H   0  0  0  0  0  0  0  0  0  0  0  0
   38.3820   25.9360   43.0340 H   0  0  0  0  0  0  0  0  0  0  0  0
   36.9780   25.5920   40.6590 C   0  0  0  0  0  0  0  0  0  0  0  0
   36.0330   25.6450   40.0400 H   0  0  0  0  0  0  0  0  0  0  0  0
   37.7900   25.5970   39.8800 H   0  0  0  0  0  0  0  0  0  0  0  0
   36.9730   24.3550   41.4530 C   0  0  0  0  0  0  0  0  0  0  0  0
   37.3110   24.3750   42.4800 H   0  0  0  0  0  0  0  0  0  0  0  0
   35.9160   23.9420   41.5040 H   0  0  0  0  0  0  0  0  0  0  0  0
   37.9120   23.0150   40.6340 S   0  0  0  0  0  0  0  0  0  0  0  0
   38.3450   22.0620   41.5990 H   0  0  0  0  0  0  0  0  0  0  0  0
  1  5  1  0  0  0  0
  1 20  1  0  0  0  0
  2  1  2  0  0  0  0
  3  2  1  0  0  0  0
  3  4  1  0  0  0  0
  4  5  2  0  0  0  0
  6  4  1  0  0  0  0
  6  7  2  0  0  0  0
  7 11  1  0  0  0  0
  8  7  1  0  0  0  0
  8 12  1  0  0  0  0
  9  8  2  0  0  0  0
 10  9  1  0  0  0  0
 10  6  1  0  0  0  0
 13  9  1  0  0  0  0
 13 19  1  0  0  0  0
 14 13  1  0  0  0  0
 15 14  1  0  0  0  0
 15 16  1  0  0  0  0
 16 18  1  0  0  0  0
 17 16  1  0  0  0  0
 18 19  1  0  0  0  0
 20 25  1  0  0  0  0
 21 27  1  0  0  0  0
 22 28  1  0  0  0  0
 22 21  2  0  0  0  0
 23 22  1  0  0  0  0
 24 23  2  0  0  0  0
 24 25  1  0  0  0  0
 25 26  2  0  0  0  0
 26 21  1  0  0  0  0
 29 23  1  0  0  0  0
 29 32  1  0  0  0  0
 30 29  1  0  0  0  0
 31 29  1  0  0  0  0
 32 34  1  0  0  0  0
 32 33  1  0  0  0  0
 35 32  1  0  0  0  0
 35 36  1  0  0  0  0
M  END
>  <minimizedAffinity>
-5.6099925

>  <minimizedRMSD>
0.794284999

$$$$
