
 OpenBabel03242509303D

 19 20  0  0  0  0  0  0  0  0999 V2000
   37.8920   28.5940   43.5830 C   0  0  0  0  0  0  0  0  0  0  0  0
   38.1610   27.2060   43.5190 C   0  0  0  0  0  0  0  0  0  0  0  0
   37.8950   26.5340   42.3280 C   0  0  0  0  0  0  0  0  0  0  0  0
   37.3820   27.2580   41.2720 N   0  0  0  0  0  0  0  0  0  0  0  0
   37.1400   28.5790   41.3740 C   0  0  0  0  0  0  0  0  0  0  0  0
   37.3930   29.2340   42.5130 N   0  0  0  0  0  0  0  0  0  0  0  0
   38.0900   29.1390   44.4970 H   0  0  0  0  0  0  0  0  0  0  0  0
   38.5650   26.6860   44.3820 H   0  0  0  0  0  0  0  0  0  0  0  0
   36.6190   29.2960   40.2900 N   0  0  0  0  0  0  0  0  0  0  0  0
   35.2550   29.7490   40.1870 C   0  0  0  0  0  2  0  0  0  0  0  0
   34.6460   28.9820   39.0400 C   0  0  0  0  0  2  0  0  0  0  0  0
   35.4530   29.0310   37.7850 C   0  0  0  0  0  3  0  0  0  0  0  0
   34.8240   29.5080   37.0010 H   0  0  0  0  0  0  0  0  0  0  0  0
   36.7350   29.7850   37.8670 C   0  0  0  0  0  2  0  0  0  0  0  0
   37.4830   29.6330   39.1530 C   0  0  0  0  0  2  0  0  0  0  0  0
   38.1620   25.0750   42.2190 C   0  0  0  0  0  0  0  0  0  0  0  0
   38.6620   24.8570   40.9610 F   0  0  0  0  0  0  0  0  0  0  0  0
   39.0830   24.6520   43.1370 F   0  0  0  0  0  0  0  0  0  0  0  0
   36.9890   24.3290   42.3870 F   0  0  0  0  0  0  0  0  0  0  0  0
  1  7  1  0  0  0  0
  2  1  1  0  0  0  0
  2  8  1  0  0  0  0
  3  2  2  0  0  0  0
  4  5  2  0  0  0  0
  4  3  1  0  0  0  0
  5  6  1  0  0  0  0
  6  1  2  0  0  0  0
  9  5  1  0  0  0  0
 10  9  1  0  0  0  0
 11 10  1  0  0  0  0
 12 14  1  0  0  0  0
 12 11  1  0  0  0  0
 13 12  1  0  0  0  0
 14 15  1  0  0  0  0
 15  9  1  0  0  0  0
 16  3  1  0  0  0  0
 16 19  1  0  0  0  0
 16 18  1  0  0  0  0
 17 16  1  0  0  0  0
M  END
>  <minimizedAffinity>
-4.69055462

>  <minimizedRMSD>
0.898533165

$$$$
