
 OpenBabel03242509293D

 19 20  0  0  0  0  0  0  0  0999 V2000
   38.0790   28.5000   43.5530 C   0  0  0  0  0  0  0  0  0  0  0  0
   38.3210   27.1070   43.4990 C   0  0  0  0  0  0  0  0  0  0  0  0
   37.9680   26.4160   42.3420 C   0  0  0  0  0  0  0  0  0  0  0  0
   37.3990   27.1290   41.3070 N   0  0  0  0  0  0  0  0  0  0  0  0
   37.1850   28.4560   41.3970 C   0  0  0  0  0  0  0  0  0  0  0  0
   37.5220   29.1280   42.5040 N   0  0  0  0  0  0  0  0  0  0  0  0
   38.3450   29.0590   44.4400 H   0  0  0  0  0  0  0  0  0  0  0  0
   38.7720   26.5970   44.3450 H   0  0  0  0  0  0  0  0  0  0  0  0
   36.6070   29.1600   40.3340 N   0  0  0  0  0  0  0  0  0  0  0  0
   35.3710   29.8980   40.4160 C   0  0  0  0  0  2  0  0  0  0  0  0
   34.3950   29.1780   39.5190 C   0  0  0  0  0  2  0  0  0  0  0  0
   34.9170   28.9180   38.1460 C   0  0  0  0  0  3  0  0  0  0  0  0
   34.2500   29.4450   37.4280 H   0  0  0  0  0  0  0  0  0  0  0  0
   36.3130   29.3670   37.8860 C   0  0  0  0  0  2  0  0  0  0  0  0
   37.2660   29.1780   39.0250 C   0  0  0  0  0  2  0  0  0  0  0  0
   38.2040   24.9510   42.2460 C   0  0  0  0  0  0  0  0  0  0  0  0
   38.7150   24.7140   40.9960 F   0  0  0  0  0  0  0  0  0  0  0  0
   39.1030   24.5140   43.1780 F   0  0  0  0  0  0  0  0  0  0  0  0
   37.0120   24.2320   42.4040 F   0  0  0  0  0  0  0  0  0  0  0  0
  1  7  1  0  0  0  0
  2  1  1  0  0  0  0
  2  8  1  0  0  0  0
  3  2  2  0  0  0  0
  4  5  2  0  0  0  0
  4  3  1  0  0  0  0
  5  6  1  0  0  0  0
  6  1  2  0  0  0  0
  9 10  1  0  0  0  0
  9  5  1  0  0  0  0
 11 10  1  0  0  0  0
 12 11  1  0  0  0  0
 13 12  1  0  0  0  0
 14 12  1  0  0  0  0
 14 15  1  0  0  0  0
 15  9  1  0  0  0  0
 16  3  1  0  0  0  0
 16 19  1  0  0  0  0
 16 18  1  0  0  0  0
 17 16  1  0  0  0  0
M  END
>  <minimizedAffinity>
-4.65006447

>  <minimizedRMSD>
0.908404291

$$$$
