
 OpenBabel03242507133D

 36 40  0  0  0  0  0  0  0  0999 V2000
   36.8430   28.4430   41.8790 N   0  0  0  0  0  0  0  0  0  0  0  0
   36.3270   27.5050   42.6960 C   0  0  0  0  0  0  0  0  0  0  0  0
   36.9800   27.7170   43.8870 C   0  0  0  0  0  0  0  0  0  0  0  0
   37.8670   28.7580   43.7860 N   0  0  0  0  0  0  0  0  0  0  0  0
   37.7540   29.1860   42.5220 C   0  0  0  0  0  0  0  0  0  0  0  0
   38.5890   30.2770   42.1760 N   0  0  0  0  0  0  0  0  0  0  0  0
   39.8600   30.4080   42.6770 C   0  0  0  0  0  0  0  0  0  0  0  0
   40.4530   31.5380   42.1930 N   0  0  0  0  0  0  0  0  0  0  0  0
   39.5710   32.1340   41.3850 C   0  0  0  0  0  0  0  0  0  0  0  0
   39.6180   33.2910   40.6310 C   0  0  0  0  0  0  0  0  0  0  0  0
   38.5060   33.5750   39.9260 N   0  0  0  0  0  0  0  0  0  0  0  0
   37.4070   32.8180   39.9250 C   0  0  0  0  0  0  0  0  0  0  0  0
   37.3380   31.6850   40.6520 N   0  0  0  0  0  0  0  0  0  0  0  0
   38.4280   31.3680   41.3700 C   0  0  0  0  0  0  0  0  0  0  0  0
   35.5790   26.7610   42.4760 H   0  0  0  0  0  0  0  0  0  0  0  0
   36.7880   27.1080   44.7810 H   0  0  0  0  0  0  0  0  0  0  0  0
   40.4460   29.8070   43.3510 H   0  0  0  0  0  0  0  0  0  0  0  0
   36.6280   33.2220   39.2940 H   0  0  0  0  0  0  0  0  0  0  0  0
   35.2300   29.0700   40.1150 C   0  0  0  0  0  0  0  0  0  0  0  0
   36.4810   28.6270   40.5320 C   0  0  0  0  0  0  0  0  0  0  0  0
   37.4280   28.3530   39.5110 C   0  0  0  0  0  0  0  0  0  0  0  0
   37.0760   28.5310   38.2140 N   0  0  0  0  0  0  0  0  0  0  0  0
   35.8260   28.9710   37.8700 C   0  0  0  0  0  0  0  0  0  0  0  0
   34.9010   29.2400   38.8280 N   0  0  0  0  0  0  0  0  0  0  0  0
   34.5290   29.2710   40.9110 H   0  0  0  0  0  0  0  0  0  0  0  0
   38.4200   28.0050   39.7560 H   0  0  0  0  0  0  0  0  0  0  0  0
   35.4250   29.1680   36.5180 N   0  0  0  0  0  0  0  0  0  0  0  0
   34.1480   28.7130   36.0030 C   0  0  0  0  0  0  0  0  0  0  0  0
   34.4730   27.6210   35.0090 C   0  0  0  0  0  0  0  0  0  0  0  0
   35.5090   28.0220   34.0000 C   0  0  0  0  0  0  0  0  0  0  0  0
   35.0300   28.5410   33.1270 H   0  0  0  0  0  0  0  0  0  0  0  0
   36.6600   28.8070   34.5340 C   0  0  0  0  0  0  0  0  0  0  0  0
   36.2850   29.8460   35.5640 C   0  0  0  0  0  0  0  0  0  0  0  0
   40.7660   34.1280   40.6000 N   0  0  0  0  0  0  0  0  0  0  0  0
   41.0260   34.8220   41.3290 H   0  0  0  0  0  0  0  0  0  0  0  0
   41.5370   34.2140   39.8850 H   0  0  0  0  0  0  0  0  0  0  0  0
  1  5  1  0  0  0  0
  1  2  1  0  0  0  0
  2  3  2  0  0  0  0
  3 16  1  0  0  0  0
  4  3  1  0  0  0  0
  5  4  2  0  0  0  0
  6  5  1  0  0  0  0
  6  7  1  0  0  0  0
  7 17  1  0  0  0  0
  8  7  2  0  0  0  0
  9  8  1  0  0  0  0
 10  9  2  0  0  0  0
 11 10  1  0  0  0  0
 12 11  2  0  0  0  0
 12 13  1  0  0  0  0
 13 14  2  0  0  0  0
 14  9  1  0  0  0  0
 14  6  1  0  0  0  0
 15  2  1  0  0  0  0
 18 12  1  0  0  0  0
 19 20  1  0  0  0  0
 19 25  1  0  0  0  0
 20  1  1  0  0  0  0
 21 26  1  0  0  0  0
 21 20  2  0  0  0  0
 22 21  1  0  0  0  0
 23 22  2  0  0  0  0
 23 24  1  0  0  0  0
 24 19  2  0  0  0  0
 27 23  1  0  0  0  0
 28 27  1  0  0  0  0
 29 28  1  0  0  0  0
 30 32  1  0  0  0  0
 30 29  1  0  0  0  0
 31 30  1  0  0  0  0
 32 33  1  0  0  0  0
 33 27  1  0  0  0  0
 34 10  1  0  0  0  0
 34 35  1  0  0  0  0
 36 34  1  0  0  0  0
M  END
>  <minimizedAffinity>
-6.48413467

>  <minimizedRMSD>
1.40645254

$$$$
