
     RDKit          3D

 28 29  0  0  0  0  0  0  0  0999 V2000
   37.9744   28.8846   43.3768 C   0  0  0  0  0  0  0  0  0  0  0  0
   38.0829   27.4757   43.3016 C   0  0  0  0  0  0  0  0  0  0  0  0
   37.4428   26.8159   42.2553 C   0  0  0  0  0  0  0  0  0  0  0  0
   36.7350   27.5728   41.3454 N   0  0  0  0  0  0  0  0  0  0  0  0
   36.6551   28.9126   41.4509 C   0  0  0  0  0  0  0  0  0  0  0  0
   37.2668   29.5563   42.4530 N   0  0  0  0  0  0  0  0  0  0  0  0
   37.5325   25.3362   42.1408 C   0  0  0  0  0  0  0  0  0  0  0  0
   37.6550   25.0492   40.8055 F   0  0  0  0  0  0  0  0  0  0  0  0
   38.6202   24.8348   42.7998 F   0  0  0  0  0  0  0  0  0  0  0  0
   36.3812   24.7169   42.6440 F   0  0  0  0  0  0  0  0  0  0  0  0
   38.4624   29.4214   44.1799 H   0  0  0  0  0  0  0  0  0  0  0  0
   38.6539   26.9314   44.0466 H   0  0  0  0  0  0  0  0  0  0  0  0
   35.9311   29.6616   40.5159 N   0  0  0  0  0  0  0  0  0  0  0  0
   35.5280   31.0337   40.6999 C   0  0  0  0  0  0  0  0  0  0  0  0
   34.0219   31.0195   40.7745 C   0  0  0  0  0  0  0  0  0  0  0  0
   33.3696   30.2864   39.6493 C   0  0  0  0  0  0  0  0  0  0  0  0
   32.7283   31.0125   39.1034 H   0  0  0  0  0  0  0  0  0  0  0  0
   34.2918   29.6574   38.6628 C   0  0  0  0  0  0  0  0  0  0  0  0
   35.5305   29.0533   39.2435 C   0  0  0  0  0  0  0  0  0  0  0  0
   35.9111   31.5188   41.5987 H   0  0  0  0  0  0  0  0  0  0  0  0
   35.8143   31.6705   39.8241 H   0  0  0  0  0  0  0  0  0  0  0  0
   33.7002   32.0787   40.8708 H   0  0  0  0  0  0  0  0  0  0  0  0
   33.7502   30.5575   41.7488 H   0  0  0  0  0  0  0  0  0  0  0  0
   32.6756   29.5130   40.0517 H   0  0  0  0  0  0  0  0  0  0  0  0
   34.5517   30.3619   37.8438 H   0  0  0  0  0  0  0  0  0  0  0  0
   33.7368   28.8376   38.1416 H   0  0  0  0  0  0  0  0  0  0  0  0
   35.4722   27.9514   39.3626 H   0  0  0  0  0  0  0  0  0  0  0  0
   36.4010   29.2429   38.5580 H   0  0  0  0  0  0  0  0  0  0  0  0
  2  1  2  0
  3  2  1  0
  4  5  1  0
  4  3  2  0
  5  6  2  0
  6  1  1  0
  7  3  1  0
  7 10  1  0
  7  9  1  0
  8  7  1  0
  1 11  1  0
  2 12  1  0
 13 14  1  0
 14 15  1  0
 15 16  1  0
 16 17  1  0
 16 18  1  0
 18 19  1  0
 19 13  1  0
 14 20  1  0
 14 21  1  0
 15 22  1  0
 15 23  1  0
 16 24  1  0
 18 25  1  0
 18 26  1  0
 19 27  1  0
 19 28  1  0
  5 13  1  0
M  ISO  3  11  14  12  14  17  15
M  END
>  <DihAtoms>  (1) 
3,4,12,13

>  <DihDeg>  (1) 
-179.99036623504807

$$$$
