
 OpenBabel03242509243D

 46 50  0  0  0  0  0  0  0  0999 V2000
   36.1180   30.0860   41.0820 C   0  0  0  0  0  0  0  0  0  0  0  0
   36.7380   30.8540   40.5740 H   0  0  0  0  0  0  0  0  0  0  0  0
   35.5540   30.6350   41.8570 H   0  0  0  0  0  0  0  0  0  0  0  0
   38.5870   28.1570   42.6870 C   0  0  0  0  0  0  0  0  0  0  0  0
   37.5020   27.3240   42.7900 C   0  0  0  0  0  0  0  0  0  0  0  0
   36.4360   27.9800   42.1820 C   0  0  0  0  0  0  0  0  0  0  0  0
   36.9560   29.1500   41.7600 N   0  0  0  0  0  0  0  0  0  0  0  0
   38.2160   29.2940   42.0380 N   0  0  0  0  0  0  0  0  0  0  0  0
   37.5010   26.3430   43.2630 H   0  0  0  0  0  0  0  0  0  0  0  0
   35.4590   27.5690   42.1110 H   0  0  0  0  0  0  0  0  0  0  0  0
   41.5190   26.4990   44.2660 C   0  0  0  0  0  0  0  0  0  0  0  0
   40.2110   26.6780   43.8130 C   0  0  0  0  0  0  0  0  0  0  0  0
   39.9250   27.9110   43.1760 C   0  0  0  0  0  0  0  0  0  0  0  0
   40.8890   28.8310   43.0360 N   0  0  0  0  0  0  0  0  0  0  0  0
   42.1490   28.5920   43.5020 C   0  0  0  0  0  0  0  0  0  0  0  0
   42.4640   27.4300   44.1140 N   0  0  0  0  0  0  0  0  0  0  0  0
   41.7020   25.5360   44.7510 H   0  0  0  0  0  0  0  0  0  0  0  0
   39.4560   25.9170   43.9420 H   0  0  0  0  0  0  0  0  0  0  0  0
   43.1450   29.5890   43.3350 N   0  0  0  0  0  0  0  0  0  0  0  0
   44.4710   29.2310   42.8710 C   0  0  0  0  0  2  0  0  0  0  0  0
   44.8020   29.9910   41.6170 C   0  0  0  0  0  2  0  0  0  0  0  0
   43.8320   31.1290   41.3720 C   0  0  0  0  0  3  0  0  0  0  0  0
   44.2440   31.8480   40.6510 H   0  0  0  0  0  0  0  0  0  0  0  0
   43.6050   31.8660   42.6620 C   0  0  0  0  0  2  0  0  0  0  0  0
   42.8560   30.9790   43.6250 C   0  0  0  0  0  2  0  0  0  0  0  0
   35.2360   29.4970   40.0230 C   0  0  0  0  0  0  0  0  0  0  0  0
   34.5230   30.3790   39.8880 H   0  0  0  0  0  0  0  0  0  0  0  0
   34.7710   28.5980   40.3910 H   0  0  0  0  0  0  0  0  0  0  0  0
   35.8590   29.4010   38.6740 C   0  0  0  0  0  0  0  0  0  0  0  0
   37.1800   29.5240   38.3580 C   0  0  0  0  0  0  0  0  0  0  0  0
   37.7050   29.5140   37.1070 C   0  0  0  0  0  0  0  0  0  0  0  0
   36.8650   29.3700   36.0240 C   0  0  0  0  0  0  0  0  0  0  0  0
   35.5070   29.2390   36.2750 C   0  0  0  0  0  0  0  0  0  0  0  0
   34.7200   29.0960   35.1470 C   0  0  0  0  0  0  0  0  0  0  0  0
   33.3760   28.9510   35.3010 C   0  0  0  0  0  0  0  0  0  0  0  0
   32.8220   28.9460   36.5650 C   0  0  0  0  0  0  0  0  0  0  0  0
   33.6670   29.0940   37.6380 C   0  0  0  0  0  0  0  0  0  0  0  0
   35.0110   29.2500   37.5690 C   0  0  0  0  0  0  0  0  0  0  0  0
   37.8550   29.6390   39.2050 H   0  0  0  0  0  0  0  0  0  0  0  0
   38.7760   29.6190   36.9890 H   0  0  0  0  0  0  0  0  0  0  0  0
   37.2860   29.3640   35.0280 H   0  0  0  0  0  0  0  0  0  0  0  0
   35.1380   29.0940   34.1480 H   0  0  0  0  0  0  0  0  0  0  0  0
   32.7400   28.8380   34.4330 H   0  0  0  0  0  0  0  0  0  0  0  0
   31.7520   28.8270   36.6760 H   0  0  0  0  0  0  0  0  0  0  0  0
   33.0480   29.0630   38.8810 O   0  0  0  0  0  0  0  0  0  0  0  0
   32.0960   29.3250   39.0470 H   0  0  0  0  0  0  0  0  0  0  0  0
  1  7  1  0  0  0  0
  1  3  1  0  0  0  0
  2  1  1  0  0  0  0
  4  5  1  0  0  0  0
  4 13  1  0  0  0  0
  5  9  1  0  0  0  0
  6  5  2  0  0  0  0
  7  8  1  0  0  0  0
  7  6  1  0  0  0  0
  8  4  2  0  0  0  0
 10  6  1  0  0  0  0
 11 17  1  0  0  0  0
 12 18  1  0  0  0  0
 12 11  2  0  0  0  0
 13 12  1  0  0  0  0
 14 13  2  0  0  0  0
 14 15  1  0  0  0  0
 15 16  2  0  0  0  0
 16 11  1  0  0  0  0
 19 15  1  0  0  0  0
 19 25  1  0  0  0  0
 20 19  1  0  0  0  0
 21 20  1  0  0  0  0
 22 21  1  0  0  0  0
 22 24  1  0  0  0  0
 23 22  1  0  0  0  0
 24 25  1  0  0  0  0
 26 28  1  0  0  0  0
 26  1  1  0  0  0  0
 27 26  1  0  0  0  0
 29 26  1  0  0  0  0
 30 29  1  0  0  0  0
 30 39  1  0  0  0  0
 31 30  2  0  0  0  0
 32 33  2  0  0  0  0
 32 31  1  0  0  0  0
 33 38  1  0  0  0  0
 34 35  2  0  0  0  0
 34 33  1  0  0  0  0
 35 36  1  0  0  0  0
 36 44  1  0  0  0  0
 36 37  2  0  0  0  0
 37 45  1  0  0  0  0
 38 37  1  0  0  0  0
 38 29  2  0  0  0  0
 40 31  1  0  0  0  0
 41 32  1  0  0  0  0
 42 34  1  0  0  0  0
 43 35  1  0  0  0  0
 45 46  1  0  0  0  0
M  END
>  <minimizedAffinity>
-6.24281216

>  <minimizedRMSD>
0.262601942

$$$$
