REMARK  Name = 
REMARK  5 active torsions:
REMARK  status: ('A' for Active; 'I' for Inactive)
REMARK    1  A    between atoms: C_1  and  C_2
REMARK    2  A    between atoms: C_1  and  C_13
REMARK    3  A    between atoms: C_10  and  O_12
REMARK    4  A    between atoms: C_13  and  N_17
REMARK    5  A    between atoms: C_14  and  C_21
REMARK                            x       y       z     vdW  Elec       q    Type
REMARK                         _______ _______ _______ _____ _____    ______ ____
ROOT
ATOM      1  C   UNL     1      36.170  30.088  41.132  0.00  0.00    +0.000 C 
ATOM      2  H   UNL     1      36.786  30.856  40.619  0.00  0.00    +0.000 HD
ATOM      3  H   UNL     1      35.608  30.639  41.908  0.00  0.00    +0.000 HD
ENDROOT
BRANCH   1   7
ATOM      4  C   UNL     1      38.653  28.162  42.717  0.00  0.00    +0.000 A 
ATOM      5  C   UNL     1      37.561  27.345  42.864  0.00  0.00    +0.000 A 
ATOM      6  C   UNL     1      36.488  28.002  42.268  0.00  0.00    +0.000 A 
ATOM      7  N   UNL     1      37.012  29.156  41.809  0.00  0.00    +0.000 N 
ATOM      8  N   UNL     1      38.281  29.290  42.053  0.00  0.00    +0.000 NA
ATOM      9  H   UNL     1      37.559  26.374  43.358  0.00  0.00    +0.000 HD
ATOM     10  H   UNL     1      35.505  27.602  42.230  0.00  0.00    +0.000 HD
BRANCH   4  13
ATOM     11  C   UNL     1      41.579  26.552  44.357  0.00  0.00    +0.000 A 
ATOM     12  C   UNL     1      40.261  26.741  43.938  0.00  0.00    +0.000 A 
ATOM     13  C   UNL     1      40.000  27.909  43.178  0.00  0.00    +0.000 A 
ATOM     14  N   UNL     1      40.995  28.761  42.898  0.00  0.00    +0.000 NA
ATOM     15  C   UNL     1      42.263  28.516  43.339  0.00  0.00    +0.000 A 
ATOM     16  N   UNL     1      42.555  27.416  44.065  0.00  0.00    +0.000 NA
ATOM     17  H   UNL     1      41.742  25.641  44.939  0.00  0.00    +0.000 HD
ATOM     18  H   UNL     1      39.481  26.036  44.180  0.00  0.00    +0.000 HD
ATOM     19  N   UNL     1      43.292  29.441  43.023  0.00  0.00    +0.000 N 
ATOM     20  C   UNL     1      44.580  28.972  42.551  0.00  0.00    +0.000 C 
ATOM     21  C   UNL     1      44.888  29.573  41.207  0.00  0.00    +0.000 C 
ATOM     22  C   UNL     1      43.957  30.721  40.874  0.00  0.00    +0.000 C 
ATOM     23  H   UNL     1      44.367  31.336  40.062  0.00  0.00    +0.000 HD
ATOM     24  C   UNL     1      43.818  31.606  42.081  0.00  0.00    +0.000 C 
ATOM     25  C   UNL     1      43.075  30.867  43.166  0.00  0.00    +0.000 C 
ENDBRANCH   4  13
ENDBRANCH   1   7
BRANCH   1  26
ATOM     26  C   UNL     1      35.284  29.495  40.078  0.00  0.00    +0.000 C 
ATOM     27  H   UNL     1      34.558  30.367  39.958  0.00  0.00    +0.000 HD
ATOM     28  H   UNL     1      34.836  28.586  40.444  0.00  0.00    +0.000 HD
BRANCH  26  29
ATOM     29  C   UNL     1      35.894  29.418  38.722  0.00  0.00    +0.000 A 
ATOM     30  C   UNL     1      37.207  29.575  38.391  0.00  0.00    +0.000 A 
ATOM     31  C   UNL     1      37.718  29.581  37.133  0.00  0.00    +0.000 A 
ATOM     32  C   UNL     1      36.869  29.418  36.060  0.00  0.00    +0.000 A 
ATOM     33  C   UNL     1      35.518  29.251  36.327  0.00  0.00    +0.000 A 
ATOM     34  C   UNL     1      34.722  29.090  35.208  0.00  0.00    +0.000 A 
ATOM     35  C   UNL     1      33.384  28.910  35.377  0.00  0.00    +0.000 A 
ATOM     36  C   UNL     1      32.845  28.888  36.647  0.00  0.00    +0.000 A 
ATOM     37  C   UNL     1      33.698  29.056  37.711  0.00  0.00    +0.000 A 
ATOM     38  C   UNL     1      35.037  29.247  37.626  0.00  0.00    +0.000 A 
ATOM     39  H   UNL     1      37.889  29.706  39.230  0.00  0.00    +0.000 HD
ATOM     40  H   UNL     1      38.784  29.714  37.003  0.00  0.00    +0.000 HD
ATOM     41  H   UNL     1      37.278  29.425  35.059  0.00  0.00    +0.000 HD
ATOM     42  H   UNL     1      35.128  29.101  34.204  0.00  0.00    +0.000 HD
ATOM     43  H   UNL     1      32.741  28.783  34.516  0.00  0.00    +0.000 HD
ATOM     44  H   UNL     1      31.780  28.742  36.771  0.00  0.00    +0.000 HD
BRANCH  37  45
ATOM     45  O   UNL     1      33.095  29.007  38.961  0.00  0.00    +0.000 OA
ATOM     46  H   UNL     1      32.139  29.244  39.139  0.00  0.00    +0.000 HD
ENDBRANCH  37  45
ENDBRANCH  26  29
ENDBRANCH   1  26
TORSDOF 5
