
     RDKit          3D

 28 29  0  0  0  0  0  0  0  0999 V2000
   37.9744   28.8846   43.3768 C   0  0  0  0  0  0  0  0  0  0  0  0
   38.0829   27.4757   43.3016 C   0  0  0  0  0  0  0  0  0  0  0  0
   37.4428   26.8159   42.2553 C   0  0  0  0  0  0  0  0  0  0  0  0
   36.7350   27.5728   41.3454 N   0  0  0  0  0  0  0  0  0  0  0  0
   36.6551   28.9126   41.4509 C   0  0  0  0  0  0  0  0  0  0  0  0
   37.2668   29.5563   42.4530 N   0  0  0  0  0  0  0  0  0  0  0  0
   37.5325   25.3362   42.1408 C   0  0  0  0  0  0  0  0  0  0  0  0
   37.6550   25.0492   40.8055 F   0  0  0  0  0  0  0  0  0  0  0  0
   38.6202   24.8348   42.7998 F   0  0  0  0  0  0  0  0  0  0  0  0
   36.3812   24.7169   42.6440 F   0  0  0  0  0  0  0  0  0  0  0  0
   38.4624   29.4214   44.1799 H   0  0  0  0  0  0  0  0  0  0  0  0
   38.6539   26.9314   44.0466 H   0  0  0  0  0  0  0  0  0  0  0  0
   35.9311   29.6616   40.5159 N   0  0  0  0  0  0  0  0  0  0  0  0
   36.4821   30.2107   39.3019 C   0  0  0  0  0  0  0  0  0  0  0  0
   36.4314   31.7093   39.4613 C   0  0  0  0  0  0  0  0  0  0  0  0
   35.0921   32.2271   39.8701 C   0  0  0  0  0  0  0  0  0  0  0  0
   34.7381   32.9109   39.0679 H   0  0  0  0  0  0  0  0  0  0  0  0
   34.0384   31.1979   40.0931 C   0  0  0  0  0  0  0  0  0  0  0  0
   34.5083   29.9347   40.7410 C   0  0  0  0  0  0  0  0  0  0  0  0
   37.5113   29.9239   39.0820 H   0  0  0  0  0  0  0  0  0  0  0  0
   35.8598   29.9474   38.4085 H   0  0  0  0  0  0  0  0  0  0  0  0
   36.8124   32.1413   38.5112 H   0  0  0  0  0  0  0  0  0  0  0  0
   37.2004   31.9808   40.2173 H   0  0  0  0  0  0  0  0  0  0  0  0
   35.1914   32.8580   40.7832 H   0  0  0  0  0  0  0  0  0  0  0  0
   33.4883   30.9706   39.1548 H   0  0  0  0  0  0  0  0  0  0  0  0
   33.2558   31.6401   40.7591 H   0  0  0  0  0  0  0  0  0  0  0  0
   34.2901   29.8865   41.8281 H   0  0  0  0  0  0  0  0  0  0  0  0
   33.9800   29.0549   40.2821 H   0  0  0  0  0  0  0  0  0  0  0  0
  2  1  2  0
  3  2  1  0
  4  5  1  0
  4  3  2  0
  5  6  2  0
  6  1  1  0
  7  3  1  0
  7 10  1  0
  7  9  1  0
  8  7  1  0
  1 11  1  0
  2 12  1  0
 13 14  1  0
 14 15  1  0
 15 16  1  0
 16 17  1  0
 16 18  1  0
 18 19  1  0
 19 13  1  0
 14 20  1  0
 14 21  1  0
 15 22  1  0
 15 23  1  0
 16 24  1  0
 18 25  1  0
 18 26  1  0
 19 27  1  0
 19 28  1  0
  5 13  1  0
M  ISO  3  11  14  12  14  17  15
M  END
>  <DihAtoms>  (1) 
3,4,12,13

>  <DihDeg>  (1) 
-179.99036623504807

$$$$
