
 OpenBabel03242501403D

 29 31  0  0  0  0  0  0  0  0999 V2000
   38.7990   29.5770   41.5240 C   0  0  0  0  0  0  0  0  0  0  0  0
   39.6430   29.7480   42.6280 C   0  0  0  0  0  0  0  0  0  0  0  0
   39.9250   31.1060   42.6750 C   0  0  0  0  0  0  0  0  0  0  0  0
   39.2490   31.6740   41.6190 C   0  0  0  0  0  0  0  0  0  0  0  0
   38.6080   30.7610   40.9730 O   0  0  0  0  0  0  0  0  0  0  0  0
   40.0060   28.9820   43.3090 H   0  0  0  0  0  0  0  0  0  0  0  0
   40.5720   31.5070   43.4540 H   0  0  0  0  0  0  0  0  0  0  0  0
   37.8560   27.3240   42.0900 C   0  0  0  0  0  0  0  0  0  0  0  0
   38.2640   28.2760   41.1200 C   0  0  0  0  0  0  0  0  0  0  0  0
   38.1470   27.9500   39.7720 C   0  0  0  0  0  0  0  0  0  0  0  0
   37.6430   26.7230   39.4210 N   0  0  0  0  0  0  0  0  0  0  0  0
   37.2680   25.8500   40.3900 C   0  0  0  0  0  0  0  0  0  0  0  0
   37.3720   26.1440   41.7000 N   0  0  0  0  0  0  0  0  0  0  0  0
   37.9540   27.5960   43.1340 H   0  0  0  0  0  0  0  0  0  0  0  0
   38.4550   28.6670   39.0130 H   0  0  0  0  0  0  0  0  0  0  0  0
   36.7560   24.6010   39.9420 N   0  0  0  0  0  0  0  0  0  0  0  0
   37.2170   23.3860   40.5860 C   0  0  0  0  0  0  0  0  0  0  0  0
   37.0090   22.2350   39.5940 C   0  0  0  0  0  0  0  0  0  0  0  0
   35.6840   22.0830   39.2670 O   0  0  0  0  0  0  0  0  0  0  0  0
   34.9680   23.2450   39.1080 C   0  0  0  0  0  0  0  0  0  0  0  0
   35.7900   24.4710   38.8670 C   0  0  0  0  0  0  0  0  0  0  0  0
   39.3160   33.0720   41.3650 N   0  0  0  0  0  0  0  0  0  0  0  0
   38.4060   33.6430   40.4190 C   0  0  0  0  0  0  0  0  0  0  0  0
   37.1970   33.2180   40.3170 N   0  0  0  0  0  0  0  0  0  0  0  0
   38.8560   34.7180   39.5610 N   0  0  0  0  0  0  0  0  0  0  0  0
   36.8580   32.4550   40.9160 H   0  0  0  0  0  0  0  0  0  0  0  0
   39.9960   33.7390   41.8290 H   0  0  0  0  0  0  0  0  0  0  0  0
   38.1800   35.4810   39.3530 H   0  0  0  0  0  0  0  0  0  0  0  0
   39.8060   34.8070   39.1250 H   0  0  0  0  0  0  0  0  0  0  0  0
  1  2  2  0  0  0  0
  2  3  1  0  0  0  0
  2  6  1  0  0  0  0
  3  7  1  0  0  0  0
  4  3  2  0  0  0  0
  5  1  1  0  0  0  0
  5  4  1  0  0  0  0
  8 14  1  0  0  0  0
  9  1  1  0  0  0  0
  9  8  2  0  0  0  0
 10  9  1  0  0  0  0
 11 10  2  0  0  0  0
 11 12  1  0  0  0  0
 12 13  2  0  0  0  0
 13  8  1  0  0  0  0
 15 10  1  0  0  0  0
 16 12  1  0  0  0  0
 16 17  1  0  0  0  0
 18 17  1  0  0  0  0
 19 18  1  0  0  0  0
 20 19  1  0  0  0  0
 21 20  1  0  0  0  0
 21 16  1  0  0  0  0
 22  4  1  0  0  0  0
 22 27  1  0  0  0  0
 23 22  1  0  0  0  0
 24 23  2  0  0  0  0
 24 26  1  0  0  0  0
 25 23  1  0  0  0  0
 28 25  1  0  0  0  0
 29 25  1  0  0  0  0
M  END
>  <minimizedAffinity>
-5.47462034

>  <minimizedRMSD>
1.64745617

$$$$
