
 OpenBabel03242509203D

 28 30  0  0  0  0  0  0  0  0999 V2000
   39.0550   27.3990   42.8140 C   0  0  0  0  0  0  0  0  0  0  0  0
   38.3230   26.2480   42.7930 C   0  0  0  0  0  0  0  0  0  0  0  0
   37.1060   26.5390   42.2450 C   0  0  0  0  0  0  0  0  0  0  0  0
   37.1510   27.8700   41.9520 N   0  0  0  0  0  0  0  0  0  0  0  0
   38.2930   28.3520   42.2910 N   0  0  0  0  0  0  0  0  0  0  0  0
   38.7060   25.3010   43.1650 H   0  0  0  0  0  0  0  0  0  0  0  0
   36.3560   25.7750   42.1280 H   0  0  0  0  0  0  0  0  0  0  0  0
   42.2470   26.8350   44.6780 C   0  0  0  0  0  0  0  0  0  0  0  0
   40.9430   26.6310   44.2160 C   0  0  0  0  0  0  0  0  0  0  0  0
   40.4000   27.5590   43.3160 C   0  0  0  0  0  0  0  0  0  0  0  0
   41.1500   28.6190   42.9210 N   0  0  0  0  0  0  0  0  0  0  0  0
   42.4140   28.7720   43.4000 C   0  0  0  0  0  0  0  0  0  0  0  0
   42.9530   27.8900   44.2670 N   0  0  0  0  0  0  0  0  0  0  0  0
   42.7130   26.1430   45.3770 H   0  0  0  0  0  0  0  0  0  0  0  0
   40.3770   25.7680   44.5560 H   0  0  0  0  0  0  0  0  0  0  0  0
   42.8870   29.6730   42.9880 H   0  0  0  0  0  0  0  0  0  0  0  0
   36.0200   28.5590   41.3570 C   0  0  0  0  0  0  0  0  0  0  0  0
   35.9030   29.4980   41.8960 H   0  0  0  0  0  0  0  0  0  0  0  0
   35.1240   27.9370   41.6520 H   0  0  0  0  0  0  0  0  0  0  0  0
   36.1090   28.6500   39.8870 C   0  0  0  0  0  0  0  0  0  0  0  0
   35.2570   28.0480   39.4640 H   0  0  0  0  0  0  0  0  0  0  0  0
   37.0210   28.0590   39.5820 H   0  0  0  0  0  0  0  0  0  0  0  0
   36.1270   29.8790   39.2490 N   0  0  0  0  0  0  0  0  0  0  0  0
   36.2690   30.0110   37.8610 C   0  0  0  0  0  0  0  0  0  0  0  0
   37.5720   30.7170   37.4560 C   0  0  0  0  0  0  0  0  0  0  0  0
   37.4360   32.0000   37.9920 O   0  0  0  0  0  0  0  0  0  0  0  0
   37.5880   31.8700   39.3730 C   0  0  0  0  0  0  0  0  0  0  0  0
   36.4680   31.0370   39.9790 C   0  0  0  0  0  0  0  0  0  0  0  0
  1 10  1  0  0  0  0
  2  1  1  0  0  0  0
  2  6  1  0  0  0  0
  3  2  2  0  0  0  0
  4  3  1  0  0  0  0
  4  5  1  0  0  0  0
  5  1  2  0  0  0  0
  7  3  1  0  0  0  0
  8 14  1  0  0  0  0
  9 15  1  0  0  0  0
  9  8  2  0  0  0  0
 10  9  1  0  0  0  0
 11 10  2  0  0  0  0
 11 12  1  0  0  0  0
 12 13  2  0  0  0  0
 13  8  1  0  0  0  0
 16 12  1  0  0  0  0
 17 19  1  0  0  0  0
 17 18  1  0  0  0  0
 17  4  1  0  0  0  0
 20 17  1  0  0  0  0
 21 20  1  0  0  0  0
 22 20  1  0  0  0  0
 23 20  1  0  0  0  0
 23 28  1  0  0  0  0
 24 23  1  0  0  0  0
 25 24  1  0  0  0  0
 25 26  1  0  0  0  0
 26 27  1  0  0  0  0
 27 28  1  0  0  0  0
M  END
>  <minimizedAffinity>
-4.19634247

>  <minimizedRMSD>
2.47600937

$$$$
