
 OpenBabel03242508173D

 28 31  0  0  0  0  0  0  0  0999 V2000
   38.5720   27.3550   43.8900 C   0  0  0  0  0  0  0  0  0  0  0  0
   39.0630   26.3970   43.0050 C   0  0  0  0  0  0  0  0  0  0  0  0
   39.0840   26.7010   41.6500 C   0  0  0  0  0  0  0  0  0  0  0  0
   38.6200   27.9290   41.2640 N   0  0  0  0  0  0  0  0  0  0  0  0
   38.1480   28.8420   42.1440 C   0  0  0  0  0  0  0  0  0  0  0  0
   38.1330   28.5400   43.4500 N   0  0  0  0  0  0  0  0  0  0  0  0
   37.7260   30.0360   41.4970 N   0  0  0  0  0  0  0  0  0  0  0  0
   36.4330   30.2030   41.1190 C   0  0  0  0  0  0  0  0  0  0  0  0
   36.2770   31.4040   40.5300 N   0  0  0  0  0  0  0  0  0  0  0  0
   37.4740   32.0040   40.5330 C   0  0  0  0  0  0  0  0  0  0  0  0
   37.9480   33.2340   40.0790 C   0  0  0  0  0  0  0  0  0  0  0  0
   39.2670   33.5280   40.2520 N   0  0  0  0  0  0  0  0  0  0  0  0
   40.1020   32.6680   40.8400 C   0  0  0  0  0  0  0  0  0  0  0  0
   39.6730   31.4600   41.2960 N   0  0  0  0  0  0  0  0  0  0  0  0
   38.3590   31.1430   41.1360 C   0  0  0  0  0  0  0  0  0  0  0  0
   36.9750   34.0550   39.4750 N   0  0  0  0  0  0  0  0  0  0  0  0
   38.5460   27.1410   44.9480 H   0  0  0  0  0  0  0  0  0  0  0  0
   39.4270   25.4320   43.3210 H   0  0  0  0  0  0  0  0  0  0  0  0
   39.4520   26.0000   40.9180 H   0  0  0  0  0  0  0  0  0  0  0  0
   35.5890   29.5110   41.2400 H   0  0  0  0  0  0  0  0  0  0  0  0
   36.1500   34.4580   39.9630 H   0  0  0  0  0  0  0  0  0  0  0  0
   36.9830   34.3480   38.4660 H   0  0  0  0  0  0  0  0  0  0  0  0
   41.4740   33.0090   41.0040 N   0  0  0  0  0  0  0  0  0  0  0  0
   42.3980   32.1110   41.6320 C   0  0  0  0  0  0  0  0  0  0  0  0
   43.7940   32.6500   41.2980 C   0  0  0  0  0  0  0  0  0  0  0  0
   43.9820   33.9180   41.8370 O   0  0  0  0  0  0  0  0  0  0  0  0
   42.9350   34.7840   41.6060 C   0  0  0  0  0  0  0  0  0  0  0  0
   41.9880   34.2840   40.5380 C   0  0  0  0  0  0  0  0  0  0  0  0
  1 17  1  0  0  0  0
  2 18  1  0  0  0  0
  2  1  2  0  0  0  0
  3  2  1  0  0  0  0
  4  3  2  0  0  0  0
  4  5  1  0  0  0  0
  5  6  2  0  0  0  0
  6  1  1  0  0  0  0
  7  5  1  0  0  0  0
  8 20  1  0  0  0  0
  8  7  1  0  0  0  0
  9 10  1  0  0  0  0
  9  8  2  0  0  0  0
 10 15  1  0  0  0  0
 11 12  1  0  0  0  0
 11 10  2  0  0  0  0
 12 13  2  0  0  0  0
 13 23  1  0  0  0  0
 13 14  1  0  0  0  0
 15 14  2  0  0  0  0
 15  7  1  0  0  0  0
 16 21  1  0  0  0  0
 16 11  1  0  0  0  0
 19  3  1  0  0  0  0
 22 16  1  0  0  0  0
 23 24  1  0  0  0  0
 25 24  1  0  0  0  0
 25 26  1  0  0  0  0
 27 26  1  0  0  0  0
 28 23  1  0  0  0  0
 28 27  1  0  0  0  0
M  END
>  <minimizedAffinity>
-6.44942904

>  <minimizedRMSD>
1.28423667

$$$$
