REMARK  Name = 
REMARK  1 active torsions:
REMARK  status: ('A' for Active; 'I' for Inactive)
REMARK    1  A    between atoms: C_3  and  C_7
REMARK                            x       y       z     vdW  Elec       q    Type
REMARK                         _______ _______ _______ _____ _____    ______ ____
ROOT
ATOM      1  C   UNL     1      37.970  28.883  43.369  0.00  0.00    +0.000 A 
ATOM      2  C   UNL     1      38.082  27.471  43.307  0.00  0.00    +0.000 A 
ATOM      3  C   UNL     1      37.435  26.819  42.254  0.00  0.00    +0.000 A 
ATOM      4  N   UNL     1      36.737  27.582  41.353  0.00  0.00    +0.000 NA
ATOM      5  C   UNL     1      36.658  28.913  41.452  0.00  0.00    +0.000 A 
ATOM      6  N   UNL     1      37.268  29.549  42.447  0.00  0.00    +0.000 NA
ATOM      7  H   UNL     1      38.466  29.398  44.179  0.00  0.00    +0.000 HD
ATOM      8  H   UNL     1      38.663  26.936  44.072  0.00  0.00    +0.000 HD
ATOM      9  N   UNL     1      35.923  29.658  40.493  0.00  0.00    +0.000 N 
ATOM     10  C   UNL     1      36.431  30.878  39.894  0.00  0.00    +0.000 C 
ATOM     11  C   UNL     1      35.507  31.142  38.701  0.00  0.00    +0.000 C 
ATOM     12  O   UNL     1      35.369  30.003  37.923  0.00  0.00    +0.000 OA
ATOM     13  C   UNL     1      34.708  28.975  38.564  0.00  0.00    +0.000 C 
ATOM     14  C   UNL     1      34.607  29.229  40.060  0.00  0.00    +0.000 C 
ENDROOT
BRANCH   3  15
ATOM     15  C   UNL     1      37.531  25.330  42.156  0.00  0.00    +0.000 C 
ATOM     16  F   UNL     1      37.649  25.049  40.804  0.00  0.00    +0.000 F 
ATOM     17  F   UNL     1      38.634  24.838  42.799  0.00  0.00    +0.000 F 
ATOM     18  F   UNL     1      36.381  24.720  42.632  0.00  0.00    +0.000 F 
ENDBRANCH   3  15
TORSDOF 1
