
 OpenBabel03242508353D

 35 38  0  0  0  0  0  0  0  0999 V2000
   37.0780   31.4100   40.5560 C   0  0  0  0  0  0  0  0  0  0  0  0
   36.8290   31.8050   39.2580 N   0  0  0  0  0  0  0  0  0  0  0  0
   37.7960   32.6100   38.8880 O   0  0  0  0  0  0  0  0  0  0  0  0
   38.6330   32.7290   39.9040 C   0  0  0  0  0  0  0  0  0  0  0  0
   38.2190   32.0090   40.9330 N   0  0  0  0  0  0  0  0  0  0  0  0
   39.8340   33.5520   39.8540 C   0  0  0  0  0  0  0  0  0  0  0  0
   39.8910   34.9370   40.0040 C   0  0  0  0  0  0  0  0  0  0  0  0
   41.2000   35.3430   39.8930 C   0  0  0  0  0  0  0  0  0  0  0  0
   41.9020   34.1690   39.6780 C   0  0  0  0  0  0  0  0  0  0  0  0
   41.0750   33.1720   39.6630 O   0  0  0  0  0  0  0  0  0  0  0  0
   39.0130   35.5380   40.1780 H   0  0  0  0  0  0  0  0  0  0  0  0
   41.5530   36.3530   39.9650 H   0  0  0  0  0  0  0  0  0  0  0  0
   43.3060   34.1310   39.5050 N   0  0  0  0  0  0  0  0  0  0  0  0
   44.1230   34.0550   38.3430 C   0  0  0  0  0  0  0  0  0  0  0  0
   45.4160   33.3120   38.5640 C   0  0  0  0  0  0  0  0  0  0  0  0
   46.0000   33.5650   39.7910 O   0  0  0  0  0  0  0  0  0  0  0  0
   45.4190   34.5760   40.5110 C   0  0  0  0  0  0  0  0  0  0  0  0
   43.9780   34.1810   40.7960 C   0  0  0  0  0  0  0  0  0  0  0  0
   36.3400   30.5620   41.3850 O   0  0  0  0  0  0  0  0  0  0  0  0
   38.2110   28.1760   43.3850 C   0  0  0  0  0  0  0  0  0  0  0  0
   37.9410   27.0080   42.6100 C   0  0  0  0  0  0  0  0  0  0  0  0
   37.1510   27.1460   41.4870 C   0  0  0  0  0  0  0  0  0  0  0  0
   36.6800   28.3710   41.1850 N   0  0  0  0  0  0  0  0  0  0  0  0
   36.9360   29.4540   41.9110 C   0  0  0  0  0  0  0  0  0  0  0  0
   37.7100   29.3650   43.0260 N   0  0  0  0  0  0  0  0  0  0  0  0
   38.8040   28.2490   44.2830 H   0  0  0  0  0  0  0  0  0  0  0  0
   38.4610   26.2070   43.1120 H   0  0  0  0  0  0  0  0  0  0  0  0
   36.9490   25.8910   40.7910 C   0  0  0  0  0  0  0  0  0  0  0  0
   35.9470   25.9640   40.2730 H   0  0  0  0  0  0  0  0  0  0  0  0
   37.6660   25.7790   39.9290 H   0  0  0  0  0  0  0  0  0  0  0  0
   36.9560   24.6720   41.6120 C   0  0  0  0  0  0  0  0  0  0  0  0
   37.2780   24.7280   42.6480 H   0  0  0  0  0  0  0  0  0  0  0  0
   35.9090   24.2320   41.6730 H   0  0  0  0  0  0  0  0  0  0  0  0
   37.9300   23.3330   40.8380 S   0  0  0  0  0  0  0  0  0  0  0  0
   39.2810   23.7220   40.7290 H   0  0  0  0  0  0  0  0  0  0  0  0
  1  5  1  0  0  0  0
  1 19  1  0  0  0  0
  2  1  2  0  0  0  0
  3  2  1  0  0  0  0
  3  4  1  0  0  0  0
  4  5  2  0  0  0  0
  6  4  1  0  0  0  0
  6  7  2  0  0  0  0
  7 11  1  0  0  0  0
  8 12  1  0  0  0  0
  8  7  1  0  0  0  0
  9  8  2  0  0  0  0
 10  9  1  0  0  0  0
 10  6  1  0  0  0  0
 13  9  1  0  0  0  0
 13 18  1  0  0  0  0
 14 15  1  0  0  0  0
 14 13  1  0  0  0  0
 15 16  1  0  0  0  0
 16 17  1  0  0  0  0
 17 18  1  0  0  0  0
 19 24  1  0  0  0  0
 20 26  1  0  0  0  0
 21 27  1  0  0  0  0
 21 20  2  0  0  0  0
 22 21  1  0  0  0  0
 23 22  2  0  0  0  0
 23 24  1  0  0  0  0
 24 25  2  0  0  0  0
 25 20  1  0  0  0  0
 28 22  1  0  0  0  0
 28 31  1  0  0  0  0
 29 28  1  0  0  0  0
 30 28  1  0  0  0  0
 31 33  1  0  0  0  0
 31 32  1  0  0  0  0
 34 31  1  0  0  0  0
 35 34  1  0  0  0  0
M  END
>  <minimizedAffinity>
-5.65289497

>  <minimizedRMSD>
1.16092205

$$$$
