
 OpenBabel03242509293D

 18 19  0  0  0  0  0  0  0  0999 V2000
   37.8530   28.5960   43.5470 C   0  0  0  0  0  0  0  0  0  0  0  0
   38.1300   27.2060   43.5200 C   0  0  0  0  0  0  0  0  0  0  0  0
   37.8860   26.5240   42.3240 C   0  0  0  0  0  0  0  0  0  0  0  0
   37.3980   27.2390   41.2610 N   0  0  0  0  0  0  0  0  0  0  0  0
   37.1500   28.5510   41.3330 C   0  0  0  0  0  0  0  0  0  0  0  0
   37.3770   29.2150   42.4620 N   0  0  0  0  0  0  0  0  0  0  0  0
   38.0370   29.1340   44.4660 H   0  0  0  0  0  0  0  0  0  0  0  0
   38.5210   26.7100   44.4190 H   0  0  0  0  0  0  0  0  0  0  0  0
   36.6450   29.2460   40.2030 N   0  0  0  0  0  0  0  0  0  0  0  0
   37.4720   29.5870   39.0610 C   0  0  0  0  0  2  0  0  0  0  0  0
   36.4790   29.9930   37.9670 C   0  0  0  0  0  2  0  0  0  0  0  0
   35.4800   29.0410   37.8300 O   0  0  0  0  0  0  0  0  0  0  0  0
   34.6550   28.9460   38.9320 C   0  0  0  0  0  2  0  0  0  0  0  0
   35.2550   29.6550   40.1360 C   0  0  0  0  0  2  0  0  0  0  0  0
   38.1660   25.0570   42.2580 C   0  0  0  0  0  0  0  0  0  0  0  0
   38.6630   24.8260   40.9840 F   0  0  0  0  0  0  0  0  0  0  0  0
   39.1110   24.6670   43.1680 F   0  0  0  0  0  0  0  0  0  0  0  0
   37.0060   24.3160   42.4170 F   0  0  0  0  0  0  0  0  0  0  0  0
  1  7  1  0  0  0  0
  2  1  1  0  0  0  0
  2  8  1  0  0  0  0
  3  2  2  0  0  0  0
  4  5  2  0  0  0  0
  4  3  1  0  0  0  0
  5  6  1  0  0  0  0
  6  1  2  0  0  0  0
  9  5  1  0  0  0  0
 10  9  1  0  0  0  0
 11 10  1  0  0  0  0
 12 11  1  0  0  0  0
 12 13  1  0  0  0  0
 13 14  1  0  0  0  0
 14  9  1  0  0  0  0
 15  3  1  0  0  0  0
 15 18  1  0  0  0  0
 15 17  1  0  0  0  0
 16 15  1  0  0  0  0
M  END
>  <minimizedAffinity>
-4.40427256

>  <minimizedRMSD>
0.947733223

$$$$
