
 OpenBabel03242508253D

 21 23  0  0  0  0  0  0  0  0999 V2000
   37.0010   31.4900   40.4850 C   0  0  0  0  0  0  0  0  0  0  0  0
   36.9280   31.5760   39.1300 N   0  0  0  0  0  0  0  0  0  0  0  0
   37.7440   32.5180   38.7120 O   0  0  0  0  0  0  0  0  0  0  0  0
   38.3230   33.0200   39.7900 C   0  0  0  0  0  0  0  0  0  0  0  0
   37.8860   32.4070   40.8970 N   0  0  0  0  0  0  0  0  0  0  0  0
   39.2830   34.0720   39.7670 N   0  0  0  0  0  0  0  0  0  0  0  0
   38.9380   35.4110   40.1680 C   0  0  0  0  0  0  0  0  0  0  0  0
   40.0670   36.2650   40.5720 C   0  0  0  0  0  0  0  0  0  0  0  0
   41.3310   35.8510   40.2420 O   0  0  0  0  0  0  0  0  0  0  0  0
   41.5280   34.5000   40.3900 C   0  0  0  0  0  0  0  0  0  0  0  0
   40.6480   33.8370   39.3360 C   0  0  0  0  0  0  0  0  0  0  0  0
   36.3190   30.6380   41.3570 O   0  0  0  0  0  0  0  0  0  0  0  0
   38.6210   28.4950   43.2060 C   0  0  0  0  0  0  0  0  0  0  0  0
   38.0450   27.2410   42.9090 C   0  0  0  0  0  0  0  0  0  0  0  0
   36.8950   27.2410   42.0830 C   0  0  0  0  0  0  0  0  0  0  0  0
   36.4130   28.4360   41.6280 N   0  0  0  0  0  0  0  0  0  0  0  0
   37.0080   29.5910   41.9470 C   0  0  0  0  0  0  0  0  0  0  0  0
   38.1040   29.6300   42.7310 N   0  0  0  0  0  0  0  0  0  0  0  0
   39.5010   28.5400   43.8330 H   0  0  0  0  0  0  0  0  0  0  0  0
   38.4670   26.3300   43.2940 H   0  0  0  0  0  0  0  0  0  0  0  0
   36.4370   26.2760   41.8440 H   0  0  0  0  0  0  0  0  0  0  0  0
  1  5  1  0  0  0  0
  1 12  1  0  0  0  0
  2  1  2  0  0  0  0
  3  2  1  0  0  0  0
  3  4  1  0  0  0  0
  4  5  2  0  0  0  0
  6  4  1  0  0  0  0
  6  7  1  0  0  0  0
  7  8  1  0  0  0  0
  9 10  1  0  0  0  0
  9  8  1  0  0  0  0
 11  6  1  0  0  0  0
 11 10  1  0  0  0  0
 12 17  1  0  0  0  0
 13 19  1  0  0  0  0
 14 13  1  0  0  0  0
 14 20  1  0  0  0  0
 15 14  2  0  0  0  0
 16 17  2  0  0  0  0
 16 15  1  0  0  0  0
 17 18  1  0  0  0  0
 18 13  2  0  0  0  0
 21 15  1  0  0  0  0
M  END
>  <minimizedAffinity>
-5.33738232

>  <minimizedRMSD>
1.35853922

$$$$
