
 OpenBabel03242508323D

 34 37  0  0  0  0  0  0  0  0999 V2000
   38.4060   28.3400   43.2510 C   0  0  0  0  0  0  0  0  0  0  0  0
   38.1470   27.1590   42.5200 C   0  0  0  0  0  0  0  0  0  0  0  0
   37.2660   27.2650   41.4280 C   0  0  0  0  0  0  0  0  0  0  0  0
   36.7440   28.4710   41.1620 N   0  0  0  0  0  0  0  0  0  0  0  0
   37.0030   29.5640   41.8590 C   0  0  0  0  0  0  0  0  0  0  0  0
   37.8500   29.4900   42.9220 N   0  0  0  0  0  0  0  0  0  0  0  0
   39.0580   28.3880   44.1050 H   0  0  0  0  0  0  0  0  0  0  0  0
   38.7050   26.3450   42.9510 H   0  0  0  0  0  0  0  0  0  0  0  0
   37.0500   26.0120   40.7240 C   0  0  0  0  0  0  0  0  0  0  0  0
   37.7340   25.8870   39.8560 H   0  0  0  0  0  0  0  0  0  0  0  0
   36.0210   26.0800   40.2650 H   0  0  0  0  0  0  0  0  0  0  0  0
   37.0230   24.8000   41.5940 C   0  0  0  0  0  0  0  0  0  0  0  0
   36.2480   24.9260   42.3810 H   0  0  0  0  0  0  0  0  0  0  0  0
   38.0000   24.6840   42.1350 H   0  0  0  0  0  0  0  0  0  0  0  0
   36.8090   23.5820   40.8860 N   0  0  0  0  0  0  0  0  0  0  0  0
   35.7930   23.5440   39.9130 C   0  0  0  0  0  0  0  0  0  0  0  0
   36.1520   22.4740   38.8770 C   0  0  0  0  0  0  0  0  0  0  0  0
   37.3570   22.9280   38.3140 O   0  0  0  0  0  0  0  0  0  0  0  0
   38.3570   22.6320   39.2150 C   0  0  0  0  0  0  0  0  0  0  0  0
   37.9850   22.8120   40.6400 C   0  0  0  0  0  0  0  0  0  0  0  0
   36.3450   30.6530   41.3770 O   0  0  0  0  0  0  0  0  0  0  0  0
   36.9880   31.5320   40.5110 C   0  0  0  0  0  0  0  0  0  0  0  0
   36.8570   31.6920   39.1700 N   0  0  0  0  0  0  0  0  0  0  0  0
   37.6680   32.6460   38.7750 O   0  0  0  0  0  0  0  0  0  0  0  0
   38.3050   33.0840   39.8510 C   0  0  0  0  0  0  0  0  0  0  0  0
   37.9020   32.4140   40.9190 N   0  0  0  0  0  0  0  0  0  0  0  0
   39.2950   34.1490   39.8100 C   0  0  0  0  0  0  0  0  0  0  0  0
   39.0820   35.4760   40.2050 C   0  0  0  0  0  0  0  0  0  0  0  0
   40.2300   36.1840   40.0250 C   0  0  0  0  0  0  0  0  0  0  0  0
   41.1350   35.2610   39.5170 C   0  0  0  0  0  0  0  0  0  0  0  0
   40.5300   34.1050   39.4170 O   0  0  0  0  0  0  0  0  0  0  0  0
   38.1190   35.8240   40.5900 H   0  0  0  0  0  0  0  0  0  0  0  0
   40.3060   37.2510   40.2690 H   0  0  0  0  0  0  0  0  0  0  0  0
   42.1440   35.5430   39.2730 H   0  0  0  0  0  0  0  0  0  0  0  0
  1  7  1  0  0  0  0
  2  8  1  0  0  0  0
  2  1  2  0  0  0  0
  3  2  1  0  0  0  0
  4  3  2  0  0  0  0
  4  5  1  0  0  0  0
  5  6  2  0  0  0  0
  6  1  1  0  0  0  0
  9  3  1  0  0  0  0
  9 12  1  0  0  0  0
 10  9  1  0  0  0  0
 11  9  1  0  0  0  0
 12 14  1  0  0  0  0
 12 13  1  0  0  0  0
 15 12  1  0  0  0  0
 16 15  1  0  0  0  0
 17 16  1  0  0  0  0
 18 17  1  0  0  0  0
 18 19  1  0  0  0  0
 19 20  1  0  0  0  0
 20 15  1  0  0  0  0
 21  5  1  0  0  0  0
 22 26  1  0  0  0  0
 22 21  1  0  0  0  0
 23 22  2  0  0  0  0
 24 23  1  0  0  0  0
 24 25  1  0  0  0  0
 25 26  2  0  0  0  0
 27 25  1  0  0  0  0
 27 28  2  0  0  0  0
 28 32  1  0  0  0  0
 29 28  1  0  0  0  0
 29 33  1  0  0  0  0
 30 29  2  0  0  0  0
 31 30  1  0  0  0  0
 31 27  1  0  0  0  0
 34 30  1  0  0  0  0
M  END
>  <minimizedAffinity>
-5.6591959

>  <minimizedRMSD>
0.423850149

$$$$
