
 OpenBabel03242508523D

 35 38  0  0  0  0  0  0  0  0999 V2000
   37.6280   28.1950   41.4300 C   0  0  0  0  0  0  0  0  0  0  0  0
   36.3690   27.9550   40.8630 C   0  0  0  0  0  0  0  0  0  0  0  0
   35.9400   29.1300   40.3680 N   0  0  0  0  0  0  0  0  0  0  0  0
   36.8280   30.1060   40.5750 C   0  0  0  0  0  0  0  0  0  0  0  0
   36.7490   31.4330   40.2190 C   0  0  0  0  0  0  0  0  0  0  0  0
   37.8290   32.2460   40.5590 C   0  0  0  0  0  0  0  0  0  0  0  0
   38.9280   31.7180   41.2310 C   0  0  0  0  0  0  0  0  0  0  0  0
   38.9930   30.3800   41.5840 C   0  0  0  0  0  0  0  0  0  0  0  0
   37.9180   29.5580   41.2470 C   0  0  0  0  0  0  0  0  0  0  0  0
   35.9330   26.9760   40.8800 H   0  0  0  0  0  0  0  0  0  0  0  0
   35.8890   31.8330   39.6960 H   0  0  0  0  0  0  0  0  0  0  0  0
   37.8420   33.2980   40.3130 H   0  0  0  0  0  0  0  0  0  0  0  0
   39.7840   32.3080   41.5140 H   0  0  0  0  0  0  0  0  0  0  0  0
   39.8110   29.9140   42.1010 H   0  0  0  0  0  0  0  0  0  0  0  0
   39.6410   26.6070   44.0430 C   0  0  0  0  0  0  0  0  0  0  0  0
   40.1290   25.4390   43.3910 C   0  0  0  0  0  0  0  0  0  0  0  0
   39.7530   25.2220   42.0570 C   0  0  0  0  0  0  0  0  0  0  0  0
   38.9480   26.1320   41.4670 N   0  0  0  0  0  0  0  0  0  0  0  0
   38.4980   27.2240   42.0940 C   0  0  0  0  0  0  0  0  0  0  0  0
   38.8470   27.4540   43.3750 N   0  0  0  0  0  0  0  0  0  0  0  0
   39.9540   26.7270   45.0520 H   0  0  0  0  0  0  0  0  0  0  0  0
   40.7650   24.7080   43.8400 H   0  0  0  0  0  0  0  0  0  0  0  0
   40.0390   24.4010   41.4490 H   0  0  0  0  0  0  0  0  0  0  0  0
   34.6560   29.1830   39.7190 C   0  0  0  0  0  0  0  0  0  0  0  0
   33.9330   28.5230   40.1930 H   0  0  0  0  0  0  0  0  0  0  0  0
   34.2720   30.2300   39.8960 H   0  0  0  0  0  0  0  0  0  0  0  0
   34.7340   29.0460   38.2260 C   0  0  0  0  0  0  0  0  0  0  0  0
   35.7310   28.6700   37.9300 H   0  0  0  0  0  0  0  0  0  0  0  0
   34.5910   30.0260   37.7380 H   0  0  0  0  0  0  0  0  0  0  0  0
   33.7500   28.1540   37.6560 N   0  0  0  0  0  0  0  0  0  0  0  0
   33.1230   28.9160   36.5660 C   0  0  0  0  0  0  0  0  0  0  0  0
   34.0750   29.0960   35.4040 C   0  0  0  0  0  0  0  0  0  0  0  0
   34.8090   27.9450   35.1440 O   0  0  0  0  0  0  0  0  0  0  0  0
   34.1010   26.8490   35.6870 C   0  0  0  0  0  0  0  0  0  0  0  0
   34.3080   26.9200   37.1850 C   0  0  0  0  0  0  0  0  0  0  0  0
  1 19  1  0  0  0  0
  2 10  1  0  0  0  0
  2  1  2  0  0  0  0
  3  4  1  0  0  0  0
  3  2  1  0  0  0  0
  4  9  1  0  0  0  0
  5  6  1  0  0  0  0
  5  4  2  0  0  0  0
  6  7  2  0  0  0  0
  7 13  1  0  0  0  0
  7  8  1  0  0  0  0
  8 14  1  0  0  0  0
  9  1  1  0  0  0  0
  9  8  2  0  0  0  0
 11  5  1  0  0  0  0
 12  6  1  0  0  0  0
 15 21  1  0  0  0  0
 16 22  1  0  0  0  0
 16 15  1  0  0  0  0
 17 16  2  0  0  0  0
 18 17  1  0  0  0  0
 18 19  2  0  0  0  0
 19 20  1  0  0  0  0
 20 15  2  0  0  0  0
 23 17  1  0  0  0  0
 24 26  1  0  0  0  0
 24 25  1  0  0  0  0
 24  3  1  0  0  0  0
 27 24  1  0  0  0  0
 28 27  1  0  0  0  0
 29 27  1  0  0  0  0
 30 27  1  0  0  0  0
 31 30  1  0  0  0  0
 32 31  1  0  0  0  0
 33 32  1  0  0  0  0
 33 34  1  0  0  0  0
 34 35  1  0  0  0  0
 35 30  1  0  0  0  0
M  END
>  <minimizedAffinity>
-4.76425982

>  <minimizedRMSD>
0.666477203

$$$$
