
 OpenBabel03242509123D

 41 46  0  0  1  0  0  0  0  0999 V2000
   35.9080   30.4990   40.8540 C   0  0  0  0  0  0  0  0  0  0  0  0
   36.4530   29.3590   41.4750 C   0  0  0  0  0  0  0  0  0  0  0  0
   37.8240   29.2410   41.5780 C   0  0  0  0  0  0  0  0  0  0  0  0
   38.5510   30.2640   41.0580 N   0  0  0  0  0  0  0  0  0  0  0  0
   38.0300   31.3550   40.4650 C   0  0  0  0  0  0  0  0  0  0  0  0
   36.6950   31.4640   40.3660 N   0  0  0  0  0  0  0  0  0  0  0  0
   34.8610   30.6940   40.7200 H   0  0  0  0  0  0  0  0  0  0  0  0
   35.6590   28.7300   41.8170 H   0  0  0  0  0  0  0  0  0  0  0  0
   38.3830   28.0740   42.1910 C   0  0  0  0  0  0  0  0  0  0  0  0
   39.3550   28.0180   43.1820 C   0  0  0  0  0  0  0  0  0  0  0  0
   39.6020   26.7240   43.4900 N   0  0  0  0  0  0  0  0  0  0  0  0
   38.8350   25.9130   42.7420 C   0  0  0  0  0  0  0  0  0  0  0  0
   38.6860   24.5450   42.6510 C   0  0  0  0  0  0  0  0  0  0  0  0
   37.7730   23.9640   41.7480 C   0  0  0  0  0  0  0  0  0  0  0  0
   37.0390   24.8290   40.9600 C   0  0  0  0  0  0  0  0  0  0  0  0
   37.1960   26.1830   41.0600 C   0  0  0  0  0  0  0  0  0  0  0  0
   38.0840   26.7480   41.9400 C   0  0  0  0  0  0  0  0  0  0  0  0
   39.8030   28.9250   43.6020 H   0  0  0  0  0  0  0  0  0  0  0  0
   40.3000   26.4160   44.2110 H   0  0  0  0  0  0  0  0  0  0  0  0
   39.3280   23.9740   43.3290 H   0  0  0  0  0  0  0  0  0  0  0  0
   37.7960   22.9030   41.8180 H   0  0  0  0  0  0  0  0  0  0  0  0
   36.3750   24.2730   40.3070 H   0  0  0  0  0  0  0  0  0  0  0  0
   36.5570   26.6690   40.3550 H   0  0  0  0  0  0  0  0  0  0  0  0
   38.9330   32.4420   39.9520 C   0  0  1  0  0  0  0  0  0  0  0  0
   38.9470   33.7520   40.7640 C   0  0  0  0  0  0  0  0  0  0  0  0
   40.1040   32.8250   40.7730 C   0  0  2  0  0  0  0  0  0  0  0  0
   39.0010   32.5560   38.8620 H   0  0  0  0  0  0  0  0  0  0  0  0
   39.0530   34.6560   40.1320 H   0  0  0  0  0  0  0  0  0  0  0  0
   38.2660   33.7830   41.6440 H   0  0  0  0  0  0  0  0  0  0  0  0
   40.2340   32.2260   41.7220 H   0  0  0  0  0  0  0  0  0  0  0  0
   41.3920   33.1740   40.1260 C   0  0  0  0  0  0  0  0  0  0  0  0
   41.9310   34.4090   40.0190 N   0  0  0  0  0  0  0  0  0  0  0  0
   43.0660   34.3280   39.3790 O   0  0  0  0  0  0  0  0  0  0  0  0
   43.3040   33.0660   39.0520 C   0  0  0  0  0  0  0  0  0  0  0  0
   42.2470   32.3400   39.5240 N   0  0  0  0  0  0  0  0  0  0  0  0
   44.2980   32.2960   38.3830 N   0  0  0  0  0  0  0  0  0  0  0  0
   45.5580   31.8490   38.9470 C   0  0  0  0  0  0  0  0  0  0  0  0
   46.2440   30.9970   37.8970 C   0  0  0  0  0  0  0  0  0  0  0  0
   45.4190   29.9520   37.4960 O   0  0  0  0  0  0  0  0  0  0  0  0
   44.1930   30.3690   37.0180 C   0  0  0  0  0  0  0  0  0  0  0  0
   44.0910   31.8860   36.9920 C   0  0  0  0  0  0  0  0  0  0  0  0
  1  2  1  0  0  0  0
  2  3  2  0  0  0  0
  2  8  1  0  0  0  0
  3  9  1  0  0  0  0
  4  3  1  0  0  0  0
  5  4  2  0  0  0  0
  6  5  1  0  0  0  0
  6  1  2  0  0  0  0
  7  1  1  0  0  0  0
  9 10  2  0  0  0  0
 10 11  1  0  0  0  0
 10 18  1  0  0  0  0
 11 19  1  0  0  0  0
 12 11  1  0  0  0  0
 13 12  1  0  0  0  0
 13 20  1  0  0  0  0
 14 21  1  0  0  0  0
 14 13  2  0  0  0  0
 15 16  2  0  0  0  0
 15 14  1  0  0  0  0
 16 17  1  0  0  0  0
 17  9  1  0  0  0  0
 17 12  2  0  0  0  0
 22 15  1  0  0  0  0
 23 16  1  0  0  0  0
 24 27  1  6  0  0  0
 24  5  1  0  0  0  0
 24 25  1  0  0  0  0
 24 26  1  0  0  0  0
 25 26  1  0  0  0  0
 25 29  1  0  0  0  0
 26 30  1  1  0  0  0
 28 25  1  0  0  0  0
 31 26  1  0  0  0  0
 32 31  2  0  0  0  0
 33 32  1  0  0  0  0
 34 33  1  0  0  0  0
 34 35  2  0  0  0  0
 35 31  1  0  0  0  0
 36 37  1  0  0  0  0
 36 34  1  0  0  0  0
 38 37  1  0  0  0  0
 39 38  1  0  0  0  0
 40 39  1  0  0  0  0
 41 40  1  0  0  0  0
 41 36  1  0  0  0  0
M  END
>  <minimizedAffinity>
-6.36757803

>  <minimizedRMSD>
1.74264908

$$$$
