
 OpenBabel03242507403D

 28 29  0  0  0  0  0  0  0  0999 V2000
   37.9960   26.7520   42.7630 C   0  0  0  0  0  0  0  0  0  0  0  0
   37.4780   25.5080   42.3510 C   0  0  0  0  0  0  0  0  0  0  0  0
   36.9700   25.4210   41.0520 C   0  0  0  0  0  0  0  0  0  0  0  0
   37.0000   26.5220   40.2660 N   0  0  0  0  0  0  0  0  0  0  0  0
   37.4960   27.6930   40.6770 C   0  0  0  0  0  0  0  0  0  0  0  0
   37.9970   27.8150   41.9300 N   0  0  0  0  0  0  0  0  0  0  0  0
   36.4260   24.2470   40.5120 N   0  0  0  0  0  0  0  0  0  0  0  0
   37.5360   28.8650   39.8610 N   0  0  0  0  0  0  0  0  0  0  0  0
   37.0180   28.7380   38.6250 C   0  0  0  0  0  0  0  0  0  0  0  0
   36.9650   29.7560   37.6920 C   0  0  0  0  0  0  0  0  0  0  0  0
   37.4910   30.9780   38.0900 C   0  0  0  0  0  0  0  0  0  0  0  0
   37.4840   31.9520   37.3090 O   0  0  0  0  0  0  0  0  0  0  0  0
   38.0030   31.0820   39.3300 N   0  0  0  0  0  0  0  0  0  0  0  0
   38.0370   30.0670   40.2110 C   0  0  0  0  0  0  0  0  0  0  0  0
   38.5070   30.1420   41.3640 O   0  0  0  0  0  0  0  0  0  0  0  0
   38.3910   26.8200   43.7730 H   0  0  0  0  0  0  0  0  0  0  0  0
   37.4560   24.6470   42.9710 H   0  0  0  0  0  0  0  0  0  0  0  0
   37.0510   23.4270   40.3230 H   0  0  0  0  0  0  0  0  0  0  0  0
   35.4110   24.1550   40.2880 H   0  0  0  0  0  0  0  0  0  0  0  0
   36.6000   27.7940   38.2870 H   0  0  0  0  0  0  0  0  0  0  0  0
   36.3780   29.5450   36.3410 C   0  0  0  0  0  0  0  0  0  0  0  0
   37.0430   30.0820   35.6290 H   0  0  0  0  0  0  0  0  0  0  0  0
   35.3420   29.9150   36.3620 H   0  0  0  0  0  0  0  0  0  0  0  0
   36.4520   28.4640   36.1050 H   0  0  0  0  0  0  0  0  0  0  0  0
   38.5700   32.3080   39.8290 C   0  0  0  0  0  0  0  0  0  0  0  0
   39.0510   32.1570   41.2610 C   0  0  0  0  0  0  0  0  0  0  0  0
   39.7780   32.6230   38.9540 C   0  0  0  0  0  0  0  0  0  0  0  0
   37.6790   33.4900   39.7840 C   0  0  0  0  0  0  0  0  0  0  0  0
  1 16  1  0  0  0  0
  2  1  1  0  0  0  0
  2 17  1  0  0  0  0
  3  2  2  0  0  0  0
  4  5  2  0  0  0  0
  4  3  1  0  0  0  0
  5  6  1  0  0  0  0
  6  1  2  0  0  0  0
  7  3  1  0  0  0  0
  8 14  1  0  0  0  0
  8  5  1  0  0  0  0
  9  8  1  0  0  0  0
 10 11  1  0  0  0  0
 10  9  2  0  0  0  0
 11 13  1  0  0  0  0
 12 11  2  0  0  0  0
 13 25  1  0  0  0  0
 13 14  1  0  0  0  0
 14 15  2  0  0  0  0
 18  7  1  0  0  0  0
 19  7  1  0  0  0  0
 20  9  1  0  0  0  0
 21 23  1  0  0  0  0
 21 10  1  0  0  0  0
 22 21  1  0  0  0  0
 24 21  1  0  0  0  0
 25 26  1  0  0  0  0
 27 25  1  0  0  0  0
 28 25  1  0  0  0  0
M  END
>  <minimizedAffinity>
-4.95631075

>  <minimizedRMSD>
1.52472889

$$$$
