
 OpenBabel03242507133D

 35 39  0  0  0  0  0  0  0  0999 V2000
   36.7540   28.3010   42.1950 N   0  0  0  0  0  0  0  0  0  0  0  0
   36.3500   27.4800   43.1810 C   0  0  0  0  0  0  0  0  0  0  0  0
   37.0770   27.8910   44.2790 C   0  0  0  0  0  0  0  0  0  0  0  0
   37.8930   28.9310   43.9540 N   0  0  0  0  0  0  0  0  0  0  0  0
   37.6760   29.1670   42.6610 C   0  0  0  0  0  0  0  0  0  0  0  0
   38.4290   30.2260   42.0910 N   0  0  0  0  0  0  0  0  0  0  0  0
   39.7250   30.4780   42.4660 C   0  0  0  0  0  0  0  0  0  0  0  0
   40.2340   31.5470   41.7760 N   0  0  0  0  0  0  0  0  0  0  0  0
   39.2650   31.9790   40.9640 C   0  0  0  0  0  0  0  0  0  0  0  0
   39.1990   33.0050   40.0510 C   0  0  0  0  0  0  0  0  0  0  0  0
   38.0370   33.1460   39.4010 N   0  0  0  0  0  0  0  0  0  0  0  0
   36.9600   32.3560   39.5910 C   0  0  0  0  0  0  0  0  0  0  0  0
   37.0080   31.3380   40.4870 N   0  0  0  0  0  0  0  0  0  0  0  0
   38.1500   31.1720   41.1510 C   0  0  0  0  0  0  0  0  0  0  0  0
   35.6260   26.6940   43.0990 H   0  0  0  0  0  0  0  0  0  0  0  0
   36.9720   27.4100   45.2580 H   0  0  0  0  0  0  0  0  0  0  0  0
   40.3720   29.9870   43.1820 H   0  0  0  0  0  0  0  0  0  0  0  0
   36.0490   32.5180   39.0360 H   0  0  0  0  0  0  0  0  0  0  0  0
   35.1430   28.9210   40.4420 C   0  0  0  0  0  0  0  0  0  0  0  0
   36.2960   28.2720   40.8830 C   0  0  0  0  0  0  0  0  0  0  0  0
   37.0210   27.5460   39.9030 C   0  0  0  0  0  0  0  0  0  0  0  0
   36.5670   27.5210   38.6240 N   0  0  0  0  0  0  0  0  0  0  0  0
   35.4290   28.1770   38.2550 C   0  0  0  0  0  0  0  0  0  0  0  0
   34.7100   28.8830   39.1660 N   0  0  0  0  0  0  0  0  0  0  0  0
   34.5900   29.4730   41.1830 H   0  0  0  0  0  0  0  0  0  0  0  0
   37.9190   27.0250   40.1870 H   0  0  0  0  0  0  0  0  0  0  0  0
   34.9980   28.1190   36.9010 N   0  0  0  0  0  0  0  0  0  0  0  0
   34.3850   26.8990   36.4170 C   0  0  0  0  0  0  0  0  0  0  0  0
   33.1860   27.3900   35.5930 C   0  0  0  0  0  0  0  0  0  0  0  0
   33.7800   28.0060   34.4860 O   0  0  0  0  0  0  0  0  0  0  0  0
   34.3370   29.2350   34.8100 C   0  0  0  0  0  0  0  0  0  0  0  0
   35.1730   29.2530   36.0400 C   0  0  0  0  0  0  0  0  0  0  0  0
   40.2950   33.8720   39.8030 N   0  0  0  0  0  0  0  0  0  0  0  0
   40.3310   34.3590   38.8870 H   0  0  0  0  0  0  0  0  0  0  0  0
   41.0130   33.9690   40.5740 H   0  0  0  0  0  0  0  0  0  0  0  0
  1  5  1  0  0  0  0
  1  2  1  0  0  0  0
  2  3  2  0  0  0  0
  3 16  1  0  0  0  0
  4  3  1  0  0  0  0
  5  4  2  0  0  0  0
  6  7  1  0  0  0  0
  6  5  1  0  0  0  0
  7 17  1  0  0  0  0
  8  7  2  0  0  0  0
  9 14  1  0  0  0  0
  9  8  1  0  0  0  0
 10  9  2  0  0  0  0
 11 12  2  0  0  0  0
 11 10  1  0  0  0  0
 12 13  1  0  0  0  0
 13 14  2  0  0  0  0
 14  6  1  0  0  0  0
 15  2  1  0  0  0  0
 18 12  1  0  0  0  0
 19 20  1  0  0  0  0
 19 25  1  0  0  0  0
 20  1  1  0  0  0  0
 21 26  1  0  0  0  0
 21 20  2  0  0  0  0
 22 21  1  0  0  0  0
 23 22  2  0  0  0  0
 23 24  1  0  0  0  0
 24 19  2  0  0  0  0
 27 23  1  0  0  0  0
 28 27  1  0  0  0  0
 29 28  1  0  0  0  0
 30 31  1  0  0  0  0
 30 29  1  0  0  0  0
 31 32  1  0  0  0  0
 32 27  1  0  0  0  0
 33 10  1  0  0  0  0
 33 35  1  0  0  0  0
 34 33  1  0  0  0  0
M  END
>  <minimizedAffinity>
-6.24597597

>  <minimizedRMSD>
2.041852

$$$$
