
 OpenBabel03242507523D

 24 26  0  0  0  0  0  0  0  0999 V2000
   37.1750   30.1220   40.4280 C   0  0  0  0  0  0  0  0  0  0  0  0
   37.1790   31.5060   40.5420 C   0  0  0  0  0  0  0  0  0  0  0  0
   37.1770   32.2620   39.3850 C   0  0  0  0  0  0  0  0  0  0  0  0
   37.1690   31.5800   38.1600 C   0  0  0  0  0  0  0  0  0  0  0  0
   37.1650   30.2100   38.0620 C   0  0  0  0  0  0  0  0  0  0  0  0
   37.1680   29.5160   39.2130 N   0  0  0  0  0  0  0  0  0  0  0  0
   37.1850   31.9860   41.5050 H   0  0  0  0  0  0  0  0  0  0  0  0
   37.1790   33.3380   39.4170 H   0  0  0  0  0  0  0  0  0  0  0  0
   37.1660   32.2100   37.2730 H   0  0  0  0  0  0  0  0  0  0  0  0
   37.1580   29.5600   36.7920 N   0  0  0  0  0  0  0  0  0  0  0  0
   38.0050   28.4320   36.4590 C   0  0  0  0  0  0  0  0  0  0  0  0
   37.2400   27.7700   35.3450 C   0  0  0  0  0  0  0  0  0  0  0  0
   36.6610   28.9520   34.5990 C   0  0  0  0  0  0  0  0  0  0  0  0
   36.3050   29.9450   35.6830 C   0  0  0  0  0  0  0  0  0  0  0  0
   35.2420   29.8450   35.9280 H   0  0  0  0  0  0  0  0  0  0  0  0
   38.0590   28.9050   43.7710 C   0  0  0  0  0  0  0  0  0  0  0  0
   37.2140   27.8130   43.9540 C   0  0  0  0  0  0  0  0  0  0  0  0
   36.3270   27.4880   42.9140 C   0  0  0  0  0  0  0  0  0  0  0  0
   36.3580   28.2700   41.7990 N   0  0  0  0  0  0  0  0  0  0  0  0
   37.1790   29.3090   41.6530 C   0  0  0  0  0  0  0  0  0  0  0  0
   38.0250   29.6190   42.6410 N   0  0  0  0  0  0  0  0  0  0  0  0
   38.7520   29.1720   44.5610 H   0  0  0  0  0  0  0  0  0  0  0  0
   37.2170   27.2250   44.8400 H   0  0  0  0  0  0  0  0  0  0  0  0
   35.6380   26.6480   42.9930 H   0  0  0  0  0  0  0  0  0  0  0  0
  1  2  1  0  0  0  0
  1 20  1  0  0  0  0
  2  7  1  0  0  0  0
  3  8  1  0  0  0  0
  3  2  2  0  0  0  0
  4  3  1  0  0  0  0
  5  4  2  0  0  0  0
  5  6  1  0  0  0  0
  6  1  2  0  0  0  0
  9  4  1  0  0  0  0
 10  5  1  0  0  0  0
 11 10  1  0  0  0  0
 12 11  1  0  0  0  0
 13 12  1  0  0  0  0
 13 14  1  0  0  0  0
 14 15  1  0  0  0  0
 14 10  1  0  0  0  0
 16 17  1  0  0  0  0
 16 22  1  0  0  0  0
 17 23  1  0  0  0  0
 18 24  1  0  0  0  0
 18 17  2  0  0  0  0
 19 18  1  0  0  0  0
 20 19  2  0  0  0  0
 20 21  1  0  0  0  0
 21 16  2  0  0  0  0
M  END
>  <minimizedAffinity>
-4.63621616

>  <minimizedRMSD>
0.864109039

$$$$
