
 OpenBabel03242509303D

 18 19  0  0  0  0  0  0  0  0999 V2000
   37.6180   28.4820   43.6910 C   0  0  0  0  0  0  0  0  0  0  0  0
   38.2710   27.2310   43.7720 C   0  0  0  0  0  0  0  0  0  0  0  0
   38.2740   26.4200   42.6200 C   0  0  0  0  0  0  0  0  0  0  0  0
   37.6450   26.8920   41.4960 N   0  0  0  0  0  0  0  0  0  0  0  0
   37.0420   28.0890   41.4780 C   0  0  0  0  0  0  0  0  0  0  0  0
   37.0250   28.8730   42.5520 N   0  0  0  0  0  0  0  0  0  0  0  0
   37.6420   29.0660   44.5920 H   0  0  0  0  0  0  0  0  0  0  0  0
   38.7490   26.9010   44.6690 H   0  0  0  0  0  0  0  0  0  0  0  0
   36.4060   28.5240   40.2810 N   0  0  0  0  0  0  0  0  0  0  0  0
   36.2910   27.8550   38.9990 C   0  0  0  0  0  2  0  0  0  0  0  0
   34.8820   28.1850   38.5020 C   0  0  0  0  0  2  0  0  0  0  0  0
   34.3820   29.2240   39.5010 C   0  0  0  0  0  2  0  0  0  0  0  0
   35.6970   29.7650   40.0270 C   0  0  0  0  0  3  0  0  0  0  0  0
   35.5860   30.3340   40.9690 H   0  0  0  0  0  0  0  0  0  0  0  0
   38.9490   25.0980   42.6670 C   0  0  0  0  0  0  0  0  0  0  0  0
   39.7550   25.0500   41.5590 F   0  0  0  0  0  0  0  0  0  0  0  0
   39.7360   24.9630   43.7880 F   0  0  0  0  0  0  0  0  0  0  0  0
   38.0410   24.0550   42.6270 F   0  0  0  0  0  0  0  0  0  0  0  0
  1  2  1  0  0  0  0
  1  7  1  0  0  0  0
  2  8  1  0  0  0  0
  3 15  1  0  0  0  0
  3  2  2  0  0  0  0
  4  3  1  0  0  0  0
  5  4  2  0  0  0  0
  5  6  1  0  0  0  0
  6  1  2  0  0  0  0
  9  5  1  0  0  0  0
 10  9  1  0  0  0  0
 11 10  1  0  0  0  0
 11 12  1  0  0  0  0
 12 13  1  0  0  0  0
 13  9  1  0  0  0  0
 13 14  1  0  0  0  0
 15 17  1  0  0  0  0
 16 15  1  0  0  0  0
 18 15  1  0  0  0  0
M  END
>  <minimizedAffinity>
-4.38107061

>  <minimizedRMSD>
1.48206806

$$$$
