
     RDKit          3D

 25 26  0  0  0  0  0  0  0  0999 V2000
   37.9755   28.8797   43.3706 C   0  0  0  0  0  0  0  0  0  0  0  0
   38.0846   27.4716   43.3057 C   0  0  0  0  0  0  0  0  0  0  0  0
   37.4308   26.8135   42.2465 C   0  0  0  0  0  0  0  0  0  0  0  0
   36.7308   27.5756   41.3460 N   0  0  0  0  0  0  0  0  0  0  0  0
   36.6617   28.9101   41.4578 C   0  0  0  0  0  0  0  0  0  0  0  0
   37.2700   29.5554   42.4485 N   0  0  0  0  0  0  0  0  0  0  0  0
   37.5226   25.3346   42.1449 C   0  0  0  0  0  0  0  0  0  0  0  0
   37.6554   25.0578   40.8086 F   0  0  0  0  0  0  0  0  0  0  0  0
   38.6254   24.8430   42.8058 F   0  0  0  0  0  0  0  0  0  0  0  0
   36.3892   24.7139   42.6386 F   0  0  0  0  0  0  0  0  0  0  0  0
   38.4894   29.3385   44.1940 H   0  0  0  0  0  0  0  0  0  0  0  0
   38.6410   26.9149   44.0293 H   0  0  0  0  0  0  0  0  0  0  0  0
   35.9201   29.6466   40.4925 N   0  0  0  0  0  0  0  0  0  0  0  0
   35.1802   29.1752   39.3373 C   0  0  0  0  0  0  0  0  0  0  0  0
   33.9297   30.0555   39.2772 C   0  0  0  0  0  0  0  0  0  0  0  0
   34.1921   31.1248   40.3333 C   0  0  0  0  0  0  0  0  0  0  0  0
   35.7065   31.0802   40.4092 C   0  0  1  0  0  0  0  0  0  0  0  0
   36.1092   31.5734   41.3139 H   0  0  0  0  0  0  0  0  0  0  0  0
   34.9528   28.1097   39.3427 H   0  0  0  0  0  0  0  0  0  0  0  0
   35.8050   29.4821   38.4540 H   0  0  0  0  0  0  0  0  0  0  0  0
   33.0276   29.4619   39.5241 H   0  0  0  0  0  0  0  0  0  0  0  0
   33.8274   30.5733   38.3065 H   0  0  0  0  0  0  0  0  0  0  0  0
   33.7956   32.1141   40.0584 H   0  0  0  0  0  0  0  0  0  0  0  0
   33.8390   30.7991   41.3473 H   0  0  0  0  0  0  0  0  0  0  0  0
   36.1853   31.5093   39.4997 H   0  0  0  0  0  0  0  0  0  0  0  0
  2  1  2  0
  3  2  1  0
  4  5  1  0
  4  3  2  0
  5  6  2  0
  6  1  1  0
  7  3  1  0
  7 10  1  0
  7  9  1  0
  8  7  1  0
  1 11  1  0
  2 12  1  0
 13 14  1  0
 14 15  1  0
 15 16  1  0
 16 17  1  0
 17 18  1  1
 17 13  1  0
 14 19  1  0
 14 20  1  0
 15 21  1  0
 15 22  1  0
 16 23  1  0
 16 24  1  0
 17 25  1  0
  5 13  1  0
M  ISO  3  11  14  12  14  18  13
M  END
>  <DihAtoms>  (1) 
3,4,12,13

>  <DihDeg>  (1) 
-179.9986293269953

$$$$
