
 OpenBabel03242507003D

 16 17  0  0  0  0  0  0  0  0999 V2000
   39.4200   27.8360   42.8960 C   0  0  0  0  0  0  0  0  0  0  0  0
   38.3570   27.4480   43.7250 C   0  0  0  0  0  0  0  0  0  0  0  0
   37.1290   28.0750   43.5620 C   0  0  0  0  0  0  0  0  0  0  0  0
   37.0300   29.0330   42.6050 N   0  0  0  0  0  0  0  0  0  0  0  0
   38.0670   29.3970   41.8120 C   0  0  0  0  0  0  0  0  0  0  0  0
   39.2460   28.7970   41.9650 N   0  0  0  0  0  0  0  0  0  0  0  0
   40.3970   27.3780   42.9830 H   0  0  0  0  0  0  0  0  0  0  0  0
   38.5510   26.6690   44.4570 H   0  0  0  0  0  0  0  0  0  0  0  0
   37.8900   30.4120   40.8270 N   0  0  0  0  0  0  0  0  0  0  0  0
   36.7560   31.3480   40.7750 C   0  0  0  0  0  0  0  0  0  0  0  0
   37.2330   32.4620   39.8560 C   0  0  0  0  0  0  0  0  0  0  0  0
   37.9710   31.6120   38.8140 C   0  0  0  0  0  0  0  0  0  0  0  0
   38.7790   30.7030   39.7180 C   0  0  0  0  0  0  0  0  0  0  0  0
   39.6580   31.3300   40.0430 H   0  0  0  0  0  0  0  0  0  0  0  0
   36.1000   27.6820   44.3820 O   0  0  0  0  0  0  0  0  0  0  0  0
   35.7350   28.3050   45.1070 H   0  0  0  0  0  0  0  0  0  0  0  0
  1  7  1  0  0  0  0
  1  2  1  0  0  0  0
  2  8  1  0  0  0  0
  3  2  2  0  0  0  0
  3 15  1  0  0  0  0
  4  3  1  0  0  0  0
  5  6  1  0  0  0  0
  5  4  2  0  0  0  0
  6  1  2  0  0  0  0
  9  5  1  0  0  0  0
 10  9  1  0  0  0  0
 11 10  1  0  0  0  0
 12 13  1  0  0  0  0
 12 11  1  0  0  0  0
 13 14  1  0  0  0  0
 13  9  1  0  0  0  0
 15 16  1  0  0  0  0
M  END
>  <minimizedAffinity>
-4.29066324

>  <minimizedRMSD>
2.16780353

$$$$
