
 OpenBabel03242509293D

 18 19  0  0  0  0  0  0  0  0999 V2000
   37.7780   28.6620   43.4990 C   0  0  0  0  0  0  0  0  0  0  0  0
   38.2670   27.3480   43.6750 C   0  0  0  0  0  0  0  0  0  0  0  0
   38.4580   26.5620   42.5210 C   0  0  0  0  0  0  0  0  0  0  0  0
   38.1590   27.1180   41.3040 N   0  0  0  0  0  0  0  0  0  0  0  0
   37.6980   28.3720   41.1980 C   0  0  0  0  0  0  0  0  0  0  0  0
   37.5090   29.1340   42.2710 N   0  0  0  0  0  0  0  0  0  0  0  0
   37.6490   29.2230   44.4040 H   0  0  0  0  0  0  0  0  0  0  0  0
   38.4880   26.9520   44.6430 H   0  0  0  0  0  0  0  0  0  0  0  0
   37.4050   28.8940   39.9060 N   0  0  0  0  0  0  0  0  0  0  0  0
   36.4640   28.4220   38.9090 C   0  0  0  0  0  2  0  0  0  0  0  0
   35.8680   29.6880   38.2900 C   0  0  0  0  0  2  0  0  0  0  0  0
   36.7170   30.8090   38.8820 C   0  0  0  0  0  2  0  0  0  0  0  0
   37.9790   30.0490   39.2410 C   0  0  0  0  0  3  0  0  0  0  0  0
   38.6320   30.6010   39.9420 H   0  0  0  0  0  0  0  0  0  0  0  0
   38.9700   25.1750   42.6660 C   0  0  0  0  0  0  0  0  0  0  0  0
   39.8000   24.9680   41.5950 F   0  0  0  0  0  0  0  0  0  0  0  0
   39.6980   25.0150   43.8230 F   0  0  0  0  0  0  0  0  0  0  0  0
   37.9460   24.2440   42.6480 F   0  0  0  0  0  0  0  0  0  0  0  0
  1  2  1  0  0  0  0
  1  7  1  0  0  0  0
  2  8  1  0  0  0  0
  3 15  1  0  0  0  0
  3  2  2  0  0  0  0
  4  3  1  0  0  0  0
  5  4  2  0  0  0  0
  5  6  1  0  0  0  0
  6  1  2  0  0  0  0
  9  5  1  0  0  0  0
 10  9  1  0  0  0  0
 11 12  1  0  0  0  0
 11 10  1  0  0  0  0
 12 13  1  0  0  0  0
 13  9  1  0  0  0  0
 13 14  1  0  0  0  0
 15 17  1  0  0  0  0
 16 15  1  0  0  0  0
 18 15  1  0  0  0  0
M  END
>  <minimizedAffinity>
-4.30353403

>  <minimizedRMSD>
1.67391086

$$$$
