
 OpenBabel03242509193D

 22 24  0  0  1  0  0  0  0  0999 V2000
   40.1640   27.3940   43.4620 C   0  0  0  0  0  0  0  0  0  0  0  0
   38.9930   26.7940   43.8560 C   0  0  0  0  0  0  0  0  0  0  0  0
   37.9400   27.6130   43.4690 C   0  0  0  0  0  0  0  0  0  0  0  0
   38.5480   28.6830   42.8540 N   0  0  0  0  0  0  0  0  0  0  0  0
   39.8380   28.5430   42.8570 N   0  0  0  0  0  0  0  0  0  0  0  0
   38.8620   25.8400   44.3820 H   0  0  0  0  0  0  0  0  0  0  0  0
   36.9090   27.4100   43.6380 H   0  0  0  0  0  0  0  0  0  0  0  0
   43.5160   26.7440   44.9590 C   0  0  0  0  0  0  0  0  0  0  0  0
   42.2090   27.2490   44.8120 C   0  0  0  0  0  0  0  0  0  0  0  0
   41.4970   26.9030   43.6540 C   0  0  0  0  0  0  0  0  0  0  0  0
   42.0940   26.1060   42.7400 N   0  0  0  0  0  0  0  0  0  0  0  0
   43.3510   25.6400   42.9160 C   0  0  0  0  0  0  0  0  0  0  0  0
   44.0680   25.9580   44.0300 N   0  0  0  0  0  0  0  0  0  0  0  0
   44.0450   27.0270   45.8640 H   0  0  0  0  0  0  0  0  0  0  0  0
   41.7360   27.8850   45.5440 H   0  0  0  0  0  0  0  0  0  0  0  0
   43.7850   25.0060   42.1580 H   0  0  0  0  0  0  0  0  0  0  0  0
   38.8780   29.8890   40.5970 H   0  0  0  0  0  0  0  0  0  0  0  0
   38.5540   30.5370   41.3540 N   0  0  0  0  0  0  0  0  0  0  0  0
   37.5540   31.4120   40.7520 C   0  0  0  0  0  0  0  0  0  0  0  0
   36.2180   30.7570   40.9600 C   0  0  0  0  0  0  0  0  0  0  0  0
   36.6290   29.3530   41.4330 C   0  0  0  0  0  0  0  0  0  0  0  0
   37.7730   29.7590   42.3120 C   0  0  1  0  0  0  0  0  0  0  0  0
  1 10  1  0  0  0  0
  1  2  1  0  0  0  0
  2  6  1  0  0  0  0
  3  7  1  0  0  0  0
  3  2  2  0  0  0  0
  4  5  1  0  0  0  0
  4  3  1  0  0  0  0
  5  1  2  0  0  0  0
  8 14  1  0  0  0  0
  9  8  1  0  0  0  0
  9 15  1  0  0  0  0
 10  9  2  0  0  0  0
 11 12  2  0  0  0  0
 11 10  1  0  0  0  0
 12 13  1  0  0  0  0
 13  8  2  0  0  0  0
 16 12  1  0  0  0  0
 17 18  1  0  0  0  0
 18 22  1  0  0  0  0
 19 20  1  0  0  0  0
 19 18  1  0  0  0  0
 20 21  1  0  0  0  0
 22 21  1  6  0  0  0
 22  4  1  0  0  0  0
M  END
>  <minimizedAffinity>
-4.18626738

>  <minimizedRMSD>
6.92376328

$$$$
