
 OpenBabel03242509303D

 18 19  0  0  0  0  0  0  0  0999 V2000
   37.6010   28.7750   43.5860 C   0  0  0  0  0  0  0  0  0  0  0  0
   38.0830   27.4540   43.7340 C   0  0  0  0  0  0  0  0  0  0  0  0
   38.4890   26.7720   42.5700 C   0  0  0  0  0  0  0  0  0  0  0  0
   38.3940   27.4290   41.3700 N   0  0  0  0  0  0  0  0  0  0  0  0
   37.9290   28.6840   41.2910 C   0  0  0  0  0  0  0  0  0  0  0  0
   37.5390   29.3490   42.3740 N   0  0  0  0  0  0  0  0  0  0  0  0
   37.3030   29.2540   44.4980 H   0  0  0  0  0  0  0  0  0  0  0  0
   38.1410   26.9780   44.6890 H   0  0  0  0  0  0  0  0  0  0  0  0
   37.8540   29.3130   40.0160 N   0  0  0  0  0  0  0  0  0  0  0  0
   36.7670   29.3300   39.0550 C   0  0  0  0  0  2  0  0  0  0  0  0
   36.7710   30.7430   38.4710 C   0  0  0  0  0  2  0  0  0  0  0  0
   38.0480   31.3610   39.0350 C   0  0  0  0  0  2  0  0  0  0  0  0
   38.8550   30.1120   39.3360 C   0  0  0  0  0  3  0  0  0  0  0  0
   39.7090   30.3020   40.0140 H   0  0  0  0  0  0  0  0  0  0  0  0
   39.0000   25.3820   42.6860 C   0  0  0  0  0  0  0  0  0  0  0  0
   39.8460   25.2040   41.6220 F   0  0  0  0  0  0  0  0  0  0  0  0
   39.7110   25.1920   43.8490 F   0  0  0  0  0  0  0  0  0  0  0  0
   37.9780   24.4520   42.6280 F   0  0  0  0  0  0  0  0  0  0  0  0
  1  2  1  0  0  0  0
  1  7  1  0  0  0  0
  2  8  1  0  0  0  0
  3 15  1  0  0  0  0
  3  2  2  0  0  0  0
  4  3  1  0  0  0  0
  5  4  2  0  0  0  0
  5  6  1  0  0  0  0
  6  1  2  0  0  0  0
  9  5  1  0  0  0  0
 10  9  1  0  0  0  0
 11 12  1  0  0  0  0
 11 10  1  0  0  0  0
 12 13  1  0  0  0  0
 13 14  1  0  0  0  0
 13  9  1  0  0  0  0
 15 17  1  0  0  0  0
 16 15  1  0  0  0  0
 18 15  1  0  0  0  0
M  END
>  <minimizedAffinity>
-4.2138896

>  <minimizedRMSD>
1.81702769

$$$$
