
     RDKit          3D

 52 56  0  0  0  0  0  0  0  0999 V2000
   35.2829   29.5006   40.0778 C   0  0  0  0  0  0  0  0  0  0  0  0
   35.8913   29.4338   38.7279 C   0  0  0  0  0  0  0  0  0  0  0  0
   37.2071   29.5973   38.3923 C   0  0  0  0  0  0  0  0  0  0  0  0
   37.7147   29.5925   37.1276 C   0  0  0  0  0  0  0  0  0  0  0  0
   36.8758   29.4129   36.0676 C   0  0  0  0  0  0  0  0  0  0  0  0
   35.5228   29.2386   36.3235 C   0  0  0  0  0  0  0  0  0  0  0  0
   34.7210   29.0722   35.2244 C   0  0  0  0  0  0  0  0  0  0  0  0
   33.3847   28.8991   35.3690 C   0  0  0  0  0  0  0  0  0  0  0  0
   32.8471   28.8907   36.6463 C   0  0  0  0  0  0  0  0  0  0  0  0
   33.6903   29.0606   37.7049 C   0  0  0  0  0  0  0  0  0  0  0  0
   35.0300   29.2448   37.6284 C   0  0  0  0  0  0  0  0  0  0  0  0
   33.0935   29.0251   38.9520 O   0  0  0  0  0  0  0  0  0  0  0  0
   36.1669   30.0726   41.1353 C   0  0  0  0  0  0  0  0  0  0  0  0
   38.6528   28.1621   42.7162 C   0  0  0  0  0  0  0  0  0  0  0  0
   37.5613   27.3387   42.8664 C   0  0  0  0  0  0  0  0  0  0  0  0
   36.4886   28.0028   42.2632 C   0  0  0  0  0  0  0  0  0  0  0  0
   37.0128   29.1498   41.8083 N   0  0  0  0  0  0  0  0  0  0  0  0
   38.2785   29.2832   42.0525 N   0  0  0  0  0  0  0  0  0  0  0  0
   41.5802   26.5439   44.3601 C   0  0  0  0  0  0  0  0  0  0  0  0
   40.2627   26.7404   43.9380 C   0  0  0  0  0  0  0  0  0  0  0  0
   39.9986   27.9058   43.1799 C   0  0  0  0  0  0  0  0  0  0  0  0
   41.0043   28.7765   42.8918 N   0  0  0  0  0  0  0  0  0  0  0  0
   42.2746   28.5089   43.3456 C   0  0  0  0  0  0  0  0  0  0  0  0
   42.5444   27.4198   44.0592 N   0  0  0  0  0  0  0  0  0  0  0  0
   34.5579   30.3756   39.9605 H   0  0  0  0  0  0  0  0  0  0  0  0
   34.8238   28.5890   40.4365 H   0  0  0  0  0  0  0  0  0  0  0  0
   37.8830   29.7418   39.2308 H   0  0  0  0  0  0  0  0  0  0  0  0
   38.7666   29.7301   36.9838 H   0  0  0  0  0  0  0  0  0  0  0  0
   37.2785   29.4102   35.0628 H   0  0  0  0  0  0  0  0  0  0  0  0
   35.1269   29.0736   34.2138 H   0  0  0  0  0  0  0  0  0  0  0  0
   32.7616   28.7712   34.4938 H   0  0  0  0  0  0  0  0  0  0  0  0
   31.7898   28.7513   36.7550 H   0  0  0  0  0  0  0  0  0  0  0  0
   32.5102   28.2158   39.1826 H   0  0  0  0  0  0  0  0  0  0  0  0
   35.5544   30.5655   41.9408 H   0  0  0  0  0  0  0  0  0  0  0  0
   36.7594   30.9069   40.6849 H   0  0  0  0  0  0  0  0  0  0  0  0
   37.5308   26.3578   43.3588 H   0  0  0  0  0  0  0  0  0  0  0  0
   35.5211   27.5620   42.2488 H   0  0  0  0  0  0  0  0  0  0  0  0
   41.6779   25.6355   44.9258 H   0  0  0  0  0  0  0  0  0  0  0  0
   39.4365   26.0980   44.1313 H   0  0  0  0  0  0  0  0  0  0  0  0
   43.2678   29.4682   43.0017 N   0  0  0  0  0  0  0  0  0  0  0  0
   43.8603   29.6188   41.6887 C   0  0  0  0  0  0  0  0  0  0  0  0
   44.7062   30.8631   41.8045 C   0  0  0  0  0  0  0  0  0  0  0  0
   44.9631   31.0906   43.2571 C   0  0  0  0  0  0  0  0  0  0  0  0
   43.8171   30.4310   43.9466 C   0  0  1  0  0  0  0  0  0  0  0  0
   43.0738   31.2145   44.2369 H   0  0  0  0  0  0  0  0  0  0  0  0
   43.0815   29.7241   40.8855 H   0  0  0  0  0  0  0  0  0  0  0  0
   44.4663   28.6974   41.5030 H   0  0  0  0  0  0  0  0  0  0  0  0
   45.6250   30.7113   41.2137 H   0  0  0  0  0  0  0  0  0  0  0  0
   44.1320   31.6999   41.3298 H   0  0  0  0  0  0  0  0  0  0  0  0
   44.9538   32.1918   43.4323 H   0  0  0  0  0  0  0  0  0  0  0  0
   45.9589   30.7119   43.5646 H   0  0  0  0  0  0  0  0  0  0  0  0
   44.0974   29.9308   44.8984 H   0  0  0  0  0  0  0  0  0  0  0  0
  1 13  1  0
  2  1  1  0
  3  2  2  0
  4  3  1  0
  5  6  1  0
  5  4  2  0
  6 11  2  0
  7  8  2  0
  7  6  1  0
  8  9  1  0
  9 10  2  0
 10 12  1  0
 11 10  1  0
 11  2  1  0
 13 17  1  0
 14 15  1  0
 14 21  1  0
 16 15  2  0
 17 18  1  0
 17 16  1  0
 18 14  2  0
 20 19  2  0
 21 20  1  0
 22 21  2  0
 22 23  1  0
 23 24  2  0
 24 19  1  0
  1 25  1  0
  1 26  1  0
  3 27  1  0
  4 28  1  0
  5 29  1  0
  7 30  1  0
  8 31  1  0
  9 32  1  0
 12 33  1  0
 13 34  1  0
 13 35  1  0
 15 36  1  0
 16 37  1  0
 19 38  1  0
 20 39  1  0
 40 41  1  0
 41 42  1  0
 42 43  1  0
 43 44  1  0
 44 45  1  1
 44 40  1  0
 41 46  1  0
 41 47  1  0
 42 48  1  0
 42 49  1  0
 43 50  1  0
 43 51  1  0
 44 52  1  0
 23 40  1  0
M  ISO  8  25   8  26   8  27  14  28  14  29  14  30  14  31  14  32  14
M  ISO  8  33   3  34   8  35   8  36  14  37  14  38  14  39  14  45  13
M  END
>  <DihAtoms>  (1) 
21,22,39,40

>  <DihDeg>  (1) 
-0.005366331995010181

$$$$
