
 OpenBabel03242501223D

 27 28  0  0  0  0  0  0  0  0999 V2000
   37.2170   27.0510   42.4810 C   0  0  0  0  0  0  0  0  0  0  0  0
   35.2460   29.1270   39.9430 C   0  0  0  0  0  0  0  0  0  0  0  0
   35.7710   28.7300   41.1870 C   0  0  0  0  0  0  0  0  0  0  0  0
   36.5930   27.5920   41.2310 C   0  0  0  0  0  0  0  0  0  0  0  0
   36.8400   26.9300   40.0690 N   0  0  0  0  0  0  0  0  0  0  0  0
   36.3150   27.3480   38.8920 C   0  0  0  0  0  0  0  0  0  0  0  0
   35.5340   28.4230   38.8270 N   0  0  0  0  0  0  0  0  0  0  0  0
   34.6400   30.0200   40.0970 H   0  0  0  0  0  0  0  0  0  0  0  0
   35.6220   29.1970   42.1410 H   0  0  0  0  0  0  0  0  0  0  0  0
   36.5210   26.8110   37.9740 H   0  0  0  0  0  0  0  0  0  0  0  0
   37.2140   25.5450   42.2800 C   0  0  0  0  0  0  0  0  0  0  0  0
   37.2500   24.9700   43.2050 H   0  0  0  0  0  0  0  0  0  0  0  0
   36.1830   25.3230   41.8520 H   0  0  0  0  0  0  0  0  0  0  0  0
   37.9100   25.2730   41.4880 H   0  0  0  0  0  0  0  0  0  0  0  0
   36.4110   27.4400   43.6950 C   0  0  0  0  0  0  0  0  0  0  0  0
   36.5390   28.5160   43.8600 H   0  0  0  0  0  0  0  0  0  0  0  0
   35.3300   27.2890   43.4260 H   0  0  0  0  0  0  0  0  0  0  0  0
   36.7140   26.7980   44.5280 H   0  0  0  0  0  0  0  0  0  0  0  0
   38.6320   27.5170   42.6270 C   0  0  0  0  0  0  0  0  0  0  0  0
   38.9850   27.4460   43.6910 H   0  0  0  0  0  0  0  0  0  0  0  0
   39.2510   26.7070   42.1180 H   0  0  0  0  0  0  0  0  0  0  0  0
   39.0020   28.7310   42.0260 N   0  0  0  0  0  0  0  0  0  0  0  0
   38.9840   29.9380   42.7490 C   0  0  0  0  0  0  0  0  0  0  0  0
   40.3860   30.5480   42.6420 C   0  0  0  0  0  0  0  0  0  0  0  0
   41.2100   29.3170   42.2860 C   0  0  0  0  0  0  0  0  0  0  0  0
   40.2470   28.6440   41.3000 C   0  0  0  0  0  0  0  0  0  0  0  0
   40.5420   27.6090   41.0730 H   0  0  0  0  0  0  0  0  0  0  0  0
  1 19  1  0  0  0  0
  1 15  1  0  0  0  0
  2  8  1  0  0  0  0
  2  3  1  0  0  0  0
  3  4  2  0  0  0  0
  3  9  1  0  0  0  0
  4  1  1  0  0  0  0
  5  4  1  0  0  0  0
  6  5  2  0  0  0  0
  7  6  1  0  0  0  0
  7  2  2  0  0  0  0
 10  6  1  0  0  0  0
 11  1  1  0  0  0  0
 11 12  1  0  0  0  0
 13 11  1  0  0  0  0
 14 11  1  0  0  0  0
 15 16  1  0  0  0  0
 15 18  1  0  0  0  0
 17 15  1  0  0  0  0
 19 20  1  0  0  0  0
 21 19  1  0  0  0  0
 22 19  1  0  0  0  0
 22 23  1  0  0  0  0
 24 23  1  0  0  0  0
 25 24  1  0  0  0  0
 26 22  1  0  0  0  0
 26 25  1  0  0  0  0
 27 26  1  0  0  0  0
M  END
>  <minimizedAffinity>
-3.99784088

>  <minimizedRMSD>
5.09059572

$$$$
