REMARK  Name = 
REMARK  5 active torsions:
REMARK  status: ('A' for Active; 'I' for Inactive)
REMARK    1  A    between atoms: C_1  and  C_2
REMARK    2  A    between atoms: C_1  and  C_13
REMARK    3  A    between atoms: C_10  and  O_12
REMARK    4  A    between atoms: C_13  and  N_17
REMARK    5  A    between atoms: C_14  and  C_21
REMARK                            x       y       z     vdW  Elec       q    Type
REMARK                         _______ _______ _______ _____ _____    ______ ____
ROOT
ATOM      1  C   UNL     1      36.167  30.073  41.135  0.00  0.00    +0.000 C 
ATOM      2  H   UNL     1      35.554  30.566  41.941  0.00  0.00    +0.000 HD
ATOM      3  H   UNL     1      36.759  30.907  40.685  0.00  0.00    +0.000 HD
ENDROOT
BRANCH   1   7
ATOM      4  C   UNL     1      38.653  28.162  42.716  0.00  0.00    +0.000 A 
ATOM      5  C   UNL     1      37.561  27.339  42.866  0.00  0.00    +0.000 A 
ATOM      6  C   UNL     1      36.489  28.003  42.263  0.00  0.00    +0.000 A 
ATOM      7  N   UNL     1      37.013  29.150  41.808  0.00  0.00    +0.000 N 
ATOM      8  N   UNL     1      38.279  29.283  42.053  0.00  0.00    +0.000 NA
ATOM      9  H   UNL     1      37.531  26.358  43.359  0.00  0.00    +0.000 HD
ATOM     10  H   UNL     1      35.521  27.562  42.249  0.00  0.00    +0.000 HD
BRANCH   4  13
ATOM     11  C   UNL     1      41.580  26.544  44.360  0.00  0.00    +0.000 A 
ATOM     12  C   UNL     1      40.263  26.740  43.938  0.00  0.00    +0.000 A 
ATOM     13  C   UNL     1      39.999  27.906  43.180  0.00  0.00    +0.000 A 
ATOM     14  N   UNL     1      41.004  28.776  42.892  0.00  0.00    +0.000 NA
ATOM     15  C   UNL     1      42.275  28.509  43.346  0.00  0.00    +0.000 A 
ATOM     16  N   UNL     1      42.544  27.420  44.059  0.00  0.00    +0.000 NA
ATOM     17  H   UNL     1      41.678  25.636  44.926  0.00  0.00    +0.000 HD
ATOM     18  H   UNL     1      39.437  26.098  44.131  0.00  0.00    +0.000 HD
ATOM     19  N   UNL     1      43.268  29.468  43.002  0.00  0.00    +0.000 N 
ATOM     20  C   UNL     1      43.640  29.833  41.650  0.00  0.00    +0.000 C 
ATOM     21  C   UNL     1      44.589  30.993  41.828  0.00  0.00    +0.000 C 
ATOM     22  C   UNL     1      45.104  30.934  43.227  0.00  0.00    +0.000 C 
ATOM     23  C   UNL     1      44.043  30.212  43.986  0.00  0.00    +0.000 C 
ATOM     24  H   UNL     1      43.423  30.961  44.538  0.00  0.00    +0.000 HD
ENDBRANCH   4  13
ENDBRANCH   1   7
BRANCH   1  25
ATOM     25  C   UNL     1      35.283  29.501  40.078  0.00  0.00    +0.000 C 
ATOM     26  H   UNL     1      34.558  30.376  39.961  0.00  0.00    +0.000 HD
ATOM     27  H   UNL     1      34.824  28.589  40.437  0.00  0.00    +0.000 HD
BRANCH  25  28
ATOM     28  C   UNL     1      35.891  29.434  38.728  0.00  0.00    +0.000 A 
ATOM     29  C   UNL     1      37.207  29.597  38.392  0.00  0.00    +0.000 A 
ATOM     30  C   UNL     1      37.715  29.593  37.128  0.00  0.00    +0.000 A 
ATOM     31  C   UNL     1      36.876  29.413  36.068  0.00  0.00    +0.000 A 
ATOM     32  C   UNL     1      35.523  29.239  36.324  0.00  0.00    +0.000 A 
ATOM     33  C   UNL     1      34.721  29.072  35.224  0.00  0.00    +0.000 A 
ATOM     34  C   UNL     1      33.385  28.899  35.369  0.00  0.00    +0.000 A 
ATOM     35  C   UNL     1      32.847  28.891  36.646  0.00  0.00    +0.000 A 
ATOM     36  C   UNL     1      33.690  29.061  37.705  0.00  0.00    +0.000 A 
ATOM     37  C   UNL     1      35.030  29.245  37.628  0.00  0.00    +0.000 A 
ATOM     38  H   UNL     1      37.883  29.742  39.231  0.00  0.00    +0.000 HD
ATOM     39  H   UNL     1      38.767  29.730  36.984  0.00  0.00    +0.000 HD
ATOM     40  H   UNL     1      37.279  29.410  35.063  0.00  0.00    +0.000 HD
ATOM     41  H   UNL     1      35.127  29.074  34.214  0.00  0.00    +0.000 HD
ATOM     42  H   UNL     1      32.762  28.771  34.494  0.00  0.00    +0.000 HD
ATOM     43  H   UNL     1      31.790  28.751  36.755  0.00  0.00    +0.000 HD
BRANCH  36  44
ATOM     44  O   UNL     1      33.093  29.025  38.952  0.00  0.00    +0.000 OA
ATOM     45  H   UNL     1      32.510  28.216  39.183  0.00  0.00    +0.000 HD
ENDBRANCH  36  44
ENDBRANCH  25  28
ENDBRANCH   1  25
TORSDOF 5
