
 OpenBabel03242509303D

 18 19  0  0  0  0  0  0  0  0999 V2000
   37.9730   28.5300   43.5580 C   0  0  0  0  0  0  0  0  0  0  0  0
   37.8160   27.1540   43.2730 C   0  0  0  0  0  0  0  0  0  0  0  0
   37.3370   26.8020   41.9960 C   0  0  0  0  0  0  0  0  0  0  0  0
   37.0530   27.8110   41.1120 N   0  0  0  0  0  0  0  0  0  0  0  0
   37.2220   29.1000   41.4380 C   0  0  0  0  0  0  0  0  0  0  0  0
   37.6720   29.4590   42.6360 N   0  0  0  0  0  0  0  0  0  0  0  0
   38.3400   28.7510   44.5420 H   0  0  0  0  0  0  0  0  0  0  0  0
   38.0490   26.3990   43.9920 H   0  0  0  0  0  0  0  0  0  0  0  0
   36.9100   30.1030   40.4770 N   0  0  0  0  0  0  0  0  0  0  0  0
   36.4400   31.4610   40.6760 C   0  0  0  0  0  2  0  0  0  0  0  0
   37.1570   32.2910   39.6080 C   0  0  0  0  0  2  0  0  0  0  0  0
   37.8410   31.2430   38.7370 C   0  0  0  0  0  2  0  0  0  0  0  0
   36.9810   30.0280   39.0290 C   0  0  0  0  0  3  0  0  0  0  0  0
   37.4560   29.0770   38.7250 H   0  0  0  0  0  0  0  0  0  0  0  0
   37.1580   25.3670   41.6600 C   0  0  0  0  0  0  0  0  0  0  0  0
   36.4880   25.3420   40.4650 F   0  0  0  0  0  0  0  0  0  0  0  0
   38.3640   24.7230   41.5010 F   0  0  0  0  0  0  0  0  0  0  0  0
   36.4180   24.7010   42.6220 F   0  0  0  0  0  0  0  0  0  0  0  0
  1  7  1  0  0  0  0
  2  1  1  0  0  0  0
  2  8  1  0  0  0  0
  3  2  2  0  0  0  0
  4  5  2  0  0  0  0
  4  3  1  0  0  0  0
  5  6  1  0  0  0  0
  6  1  2  0  0  0  0
  9 10  1  0  0  0  0
  9  5  1  0  0  0  0
 11 10  1  0  0  0  0
 12 13  1  0  0  0  0
 12 11  1  0  0  0  0
 13  9  1  0  0  0  0
 14 13  1  0  0  0  0
 15  3  1  0  0  0  0
 15 18  1  0  0  0  0
 16 15  1  0  0  0  0
 17 15  1  0  0  0  0
M  END
>  <minimizedAffinity>
-4.64081287

>  <minimizedRMSD>
1.05860066

$$$$
