
 OpenBabel03242509293D

 20 20  0  0  0  0  0  0  0  0999 V2000
   37.9030   28.7600   43.5730 C   0  0  0  0  0  0  0  0  0  0  0  0
   37.9480   27.3520   43.4280 C   0  0  0  0  0  0  0  0  0  0  0  0
   37.4290   26.8070   42.2520 C   0  0  0  0  0  0  0  0  0  0  0  0
   36.9090   27.6490   41.3080 N   0  0  0  0  0  0  0  0  0  0  0  0
   36.8860   28.9820   41.4870 C   0  0  0  0  0  0  0  0  0  0  0  0
   37.3840   29.5150   42.6170 N   0  0  0  0  0  0  0  0  0  0  0  0
   38.3180   29.1470   44.5060 H   0  0  0  0  0  0  0  0  0  0  0  0
   38.3650   26.7480   44.1980 H   0  0  0  0  0  0  0  0  0  0  0  0
   36.3330   29.8460   40.4760 N   0  0  0  0  0  0  0  0  0  0  0  0
   36.8980   29.8550   39.1660 C   0  0  0  0  0  0  0  0  0  0  0  0
   37.4870   28.7930   38.7280 N   0  0  0  0  0  0  0  0  0  0  0  0
   36.7870   31.0440   38.3960 N   0  0  0  0  0  0  0  0  0  0  0  0
   35.5220   30.4510   40.7330 H   0  0  0  0  0  0  0  0  0  0  0  0
   37.8880   28.8380   37.7650 H   0  0  0  0  0  0  0  0  0  0  0  0
   36.0440   31.6480   37.9820 H   0  0  0  0  0  0  0  0  0  0  0  0
   37.7920   31.3520   38.2330 H   0  0  0  0  0  0  0  0  0  0  0  0
   37.4630   25.3280   42.0710 C   0  0  0  0  0  0  0  0  0  0  0  0
   37.4460   25.1070   40.7190 F   0  0  0  0  0  0  0  0  0  0  0  0
   38.5990   24.7670   42.5760 F   0  0  0  0  0  0  0  0  0  0  0  0
   36.3470   24.7100   42.6310 F   0  0  0  0  0  0  0  0  0  0  0  0
  1  7  1  0  0  0  0
  2  1  1  0  0  0  0
  2  8  1  0  0  0  0
  3  2  2  0  0  0  0
  4  5  2  0  0  0  0
  4  3  1  0  0  0  0
  5  6  1  0  0  0  0
  6  1  2  0  0  0  0
  9 13  1  0  0  0  0
  9  5  1  0  0  0  0
 10  9  1  0  0  0  0
 11 10  2  0  0  0  0
 12 10  1  0  0  0  0
 14 11  1  0  0  0  0
 15 12  1  0  0  0  0
 16 12  1  0  0  0  0
 17  3  1  0  0  0  0
 17 19  1  0  0  0  0
 17 20  1  0  0  0  0
 18 17  1  0  0  0  0
M  END
>  <minimizedAffinity>
-4.14662647

>  <minimizedRMSD>
0.399735659

$$$$
