REMARK  Name = 
REMARK  5 active torsions:
REMARK  status: ('A' for Active; 'I' for Inactive)
REMARK    1  A    between atoms: C_1  and  C_2
REMARK    2  A    between atoms: C_1  and  C_13
REMARK    3  A    between atoms: C_10  and  O_12
REMARK    4  A    between atoms: C_13  and  N_17
REMARK    5  A    between atoms: C_14  and  C_21
REMARK                            x       y       z     vdW  Elec       q    Type
REMARK                         _______ _______ _______ _____ _____    ______ ____
ROOT
ATOM      1  C   UNL     1      36.167  30.078  41.132  0.00  0.00    +0.000 C 
ATOM      2  H   UNL     1      35.591  30.619  41.910  0.00  0.00    +0.000 HD
ATOM      3  H   UNL     1      36.778  30.865  40.634  0.00  0.00    +0.000 HD
ENDROOT
BRANCH   1   7
ATOM      4  C   UNL     1      38.651  28.165  42.718  0.00  0.00    +0.000 A 
ATOM      5  C   UNL     1      37.561  27.350  42.871  0.00  0.00    +0.000 A 
ATOM      6  C   UNL     1      36.484  28.006  42.271  0.00  0.00    +0.000 A 
ATOM      7  N   UNL     1      37.011  29.153  41.809  0.00  0.00    +0.000 N 
ATOM      8  N   UNL     1      38.279  29.286  42.050  0.00  0.00    +0.000 NA
ATOM      9  H   UNL     1      37.564  26.385  43.369  0.00  0.00    +0.000 HD
ATOM     10  H   UNL     1      35.503  27.589  42.247  0.00  0.00    +0.000 HD
BRANCH   4  13
ATOM     11  C   UNL     1      41.581  26.554  44.367  0.00  0.00    +0.000 A 
ATOM     12  C   UNL     1      40.263  26.758  43.941  0.00  0.00    +0.000 A 
ATOM     13  C   UNL     1      39.998  27.905  43.182  0.00  0.00    +0.000 A 
ATOM     14  N   UNL     1      40.999  28.754  42.893  0.00  0.00    +0.000 NA
ATOM     15  C   UNL     1      42.271  28.509  43.333  0.00  0.00    +0.000 A 
ATOM     16  N   UNL     1      42.549  27.422  44.059  0.00  0.00    +0.000 NA
ATOM     17  H   UNL     1      41.721  25.649  44.950  0.00  0.00    +0.000 HD
ATOM     18  H   UNL     1      39.469  26.045  44.194  0.00  0.00    +0.000 HD
ATOM     19  N   UNL     1      43.293  29.439  42.999  0.00  0.00    +0.000 N 
ATOM     20  C   UNL     1      43.782  30.330  43.994  0.00  0.00    +0.000 C 
ATOM     21  N   UNL     1      42.969  30.663  44.962  0.00  0.00    +0.000 NA
ATOM     22  N   UNL     1      45.117  30.820  43.905  0.00  0.00    +0.000 N 
ATOM     23  H   UNL     1      43.690  29.479  42.036  0.00  0.00    +0.000 HD
ATOM     24  H   UNL     1      43.359  31.318  45.675  0.00  0.00    +0.000 HD
ATOM     25  H   UNL     1      45.872  30.158  44.231  0.00  0.00    +0.000 HD
ATOM     26  H   UNL     1      45.761  31.596  43.645  0.00  0.00    +0.000 HD
ENDBRANCH   4  13
ENDBRANCH   1   7
BRANCH   1  27
ATOM     27  C   UNL     1      35.283  29.489  40.076  0.00  0.00    +0.000 C 
ATOM     28  H   UNL     1      34.553  30.357  39.954  0.00  0.00    +0.000 HD
ATOM     29  H   UNL     1      34.837  28.575  40.441  0.00  0.00    +0.000 HD
BRANCH  27  30
ATOM     30  C   UNL     1      35.893  29.411  38.720  0.00  0.00    +0.000 A 
ATOM     31  C   UNL     1      37.209  29.573  38.392  0.00  0.00    +0.000 A 
ATOM     32  C   UNL     1      37.719  29.582  37.130  0.00  0.00    +0.000 A 
ATOM     33  C   UNL     1      36.872  29.419  36.062  0.00  0.00    +0.000 A 
ATOM     34  C   UNL     1      35.529  29.248  36.324  0.00  0.00    +0.000 A 
ATOM     35  C   UNL     1      34.723  29.097  35.218  0.00  0.00    +0.000 A 
ATOM     36  C   UNL     1      33.380  28.925  35.373  0.00  0.00    +0.000 A 
ATOM     37  C   UNL     1      32.842  28.899  36.645  0.00  0.00    +0.000 A 
ATOM     38  C   UNL     1      33.693  29.054  37.711  0.00  0.00    +0.000 A 
ATOM     39  C   UNL     1      35.032  29.238  37.624  0.00  0.00    +0.000 A 
ATOM     40  H   UNL     1      37.877  29.703  39.247  0.00  0.00    +0.000 HD
ATOM     41  H   UNL     1      38.786  29.720  37.026  0.00  0.00    +0.000 HD
ATOM     42  H   UNL     1      37.277  29.428  35.059  0.00  0.00    +0.000 HD
ATOM     43  H   UNL     1      35.118  29.110  34.207  0.00  0.00    +0.000 HD
ATOM     44  H   UNL     1      32.751  28.809  34.493  0.00  0.00    +0.000 HD
ATOM     45  H   UNL     1      31.776  28.759  36.769  0.00  0.00    +0.000 HD
BRANCH  38  46
ATOM     46  O   UNL     1      33.100  28.998  38.959  0.00  0.00    +0.000 OA
ATOM     47  H   UNL     1      32.670  28.120  39.274  0.00  0.00    +0.000 HD
ENDBRANCH  38  46
ENDBRANCH  27  30
ENDBRANCH   1  27
TORSDOF 5
