
     RDKit          3D

 20 20  0  0  0  0  0  0  0  0999 V2000
   37.9756   28.8821   43.3691 C   0  0  0  0  0  0  0  0  0  0  0  0
   38.0844   27.4719   43.3015 C   0  0  0  0  0  0  0  0  0  0  0  0
   37.4332   26.8237   42.2499 C   0  0  0  0  0  0  0  0  0  0  0  0
   36.7301   27.5735   41.3466 N   0  0  0  0  0  0  0  0  0  0  0  0
   36.6528   28.9121   41.4486 C   0  0  0  0  0  0  0  0  0  0  0  0
   37.2774   29.5445   42.4590 N   0  0  0  0  0  0  0  0  0  0  0  0
   37.5295   25.3398   42.1524 C   0  0  0  0  0  0  0  0  0  0  0  0
   37.6571   25.0510   40.8194 F   0  0  0  0  0  0  0  0  0  0  0  0
   38.6252   24.8446   42.7966 F   0  0  0  0  0  0  0  0  0  0  0  0
   36.3806   24.7119   42.6298 F   0  0  0  0  0  0  0  0  0  0  0  0
   38.4983   29.3508   44.2050 H   0  0  0  0  0  0  0  0  0  0  0  0
   38.6452   26.9426   44.0330 H   0  0  0  0  0  0  0  0  0  0  0  0
   35.9057   29.6778   40.4838 N   0  0  0  0  0  0  0  0  0  0  0  0
   36.3047   31.0134   40.1796 C   0  0  0  0  0  0  0  0  0  0  0  0
   37.5453   31.3455   40.3130 N   0  0  0  0  0  0  0  0  0  0  0  0
   35.3093   31.9255   39.7397 N   0  0  0  0  0  0  0  0  0  0  0  0
   35.0814   29.2287   40.0271 H   0  0  0  0  0  0  0  0  0  0  0  0
   37.7980   32.3312   40.0808 H   0  0  0  0  0  0  0  0  0  0  0  0
   34.6403   32.0410   38.9470 H   0  0  0  0  0  0  0  0  0  0  0  0
   35.2962   32.6870   40.4828 H   0  0  0  0  0  0  0  0  0  0  0  0
  2  1  2  0
  3  2  1  0
  4  5  1  0
  4  3  2  0
  5  6  2  0
  6  1  1  0
  7  3  1  0
  7 10  1  0
  7  9  1  0
  8  7  1  0
  1 11  1  0
  2 12  1  0
 13 14  1  0
 14 15  2  3
 14 16  1  0
 13 17  1  0
 15 18  1  0
 16 19  1  0
 16 20  1  0
  5 13  1  0
M  ISO  2  11  14  12  14
M  END
>  <DihAtoms>  (1) 
3,4,12,13

>  <DihDeg>  (1) 
-179.9980257472712

$$$$
