
 OpenBabel03242509293D

 20 20  0  0  0  0  0  0  0  0999 V2000
   37.3350   28.8280   43.5090 C   0  0  0  0  0  0  0  0  0  0  0  0
   37.3600   27.4140   43.4640 C   0  0  0  0  0  0  0  0  0  0  0  0
   37.5730   26.8100   42.2230 C   0  0  0  0  0  0  0  0  0  0  0  0
   37.7470   27.6040   41.1240 N   0  0  0  0  0  0  0  0  0  0  0  0
   37.7160   28.9460   41.2110 C   0  0  0  0  0  0  0  0  0  0  0  0
   37.5100   29.5360   42.4020 N   0  0  0  0  0  0  0  0  0  0  0  0
   37.1650   29.2620   44.4960 H   0  0  0  0  0  0  0  0  0  0  0  0
   37.2180   26.8480   44.3530 H   0  0  0  0  0  0  0  0  0  0  0  0
   37.9020   29.7610   40.0370 N   0  0  0  0  0  0  0  0  0  0  0  0
   37.0380   30.8720   39.8030 C   0  0  0  0  0  0  0  0  0  0  0  0
   36.4910   31.4660   40.8110 N   0  0  0  0  0  0  0  0  0  0  0  0
   36.8190   31.2790   38.4620 N   0  0  0  0  0  0  0  0  0  0  0  0
   38.6730   29.5120   39.3790 H   0  0  0  0  0  0  0  0  0  0  0  0
   35.8660   32.2750   40.6000 H   0  0  0  0  0  0  0  0  0  0  0  0
   37.3620   31.6460   37.6500 H   0  0  0  0  0  0  0  0  0  0  0  0
   35.7740   31.1440   38.3080 H   0  0  0  0  0  0  0  0  0  0  0  0
   37.6050   25.3220   42.1450 C   0  0  0  0  0  0  0  0  0  0  0  0
   37.7380   25.0100   40.8180 F   0  0  0  0  0  0  0  0  0  0  0  0
   38.6690   24.7870   42.8120 F   0  0  0  0  0  0  0  0  0  0  0  0
   36.4230   24.7520   42.6140 F   0  0  0  0  0  0  0  0  0  0  0  0
  1  7  1  0  0  0  0
  2  1  1  0  0  0  0
  2  8  1  0  0  0  0
  3  2  2  0  0  0  0
  4  5  2  0  0  0  0
  4  3  1  0  0  0  0
  5  6  1  0  0  0  0
  6  1  2  0  0  0  0
  9  5  1  0  0  0  0
 10  9  1  0  0  0  0
 10 11  2  0  0  0  0
 12 10  1  0  0  0  0
 13  9  1  0  0  0  0
 14 11  1  0  0  0  0
 15 12  1  0  0  0  0
 16 12  1  0  0  0  0
 17  3  1  0  0  0  0
 17 20  1  0  0  0  0
 17 19  1  0  0  0  0
 18 17  1  0  0  0  0
M  END
>  <minimizedAffinity>
-4.44364595

>  <minimizedRMSD>
1.39245594

$$$$
