
 OpenBabel03242509223D

 46 49  0  0  0  0  0  0  0  0999 V2000
   35.8920   29.5360   38.5570 C   0  0  0  0  0  0  0  0  0  0  0  0
   37.2200   29.8570   38.4520 C   0  0  0  0  0  0  0  0  0  0  0  0
   37.9320   30.0220   37.2980 C   0  0  0  0  0  0  0  0  0  0  0  0
   37.2830   29.8570   36.0940 C   0  0  0  0  0  0  0  0  0  0  0  0
   35.9340   29.5300   36.1280 C   0  0  0  0  0  0  0  0  0  0  0  0
   35.3390   29.3770   34.9040 C   0  0  0  0  0  0  0  0  0  0  0  0
   34.0230   29.0530   34.8200 C   0  0  0  0  0  0  0  0  0  0  0  0
   33.3230   28.8900   35.9700 C   0  0  0  0  0  0  0  0  0  0  0  0
   33.9380   29.0480   37.1840 C   0  0  0  0  0  0  0  0  0  0  0  0
   35.2520   29.3720   37.3300 C   0  0  0  0  0  0  0  0  0  0  0  0
   37.7790   29.9950   39.3670 H   0  0  0  0  0  0  0  0  0  0  0  0
   38.9780   30.2750   37.3070 H   0  0  0  0  0  0  0  0  0  0  0  0
   37.8380   29.9880   35.1770 H   0  0  0  0  0  0  0  0  0  0  0  0
   35.9080   29.5100   34.0140 H   0  0  0  0  0  0  0  0  0  0  0  0
   33.6060   28.9450   33.8070 H   0  0  0  0  0  0  0  0  0  0  0  0
   32.2850   28.6530   35.7420 H   0  0  0  0  0  0  0  0  0  0  0  0
   33.0930   28.8570   38.2990 N   0  0  0  0  0  0  0  0  0  0  0  0
   31.6940   29.2940   38.2880 C   0  0  0  0  0  0  0  0  0  0  0  0
   30.9820   29.0080   37.1940 N   0  0  0  0  0  0  0  0  0  0  0  0
   30.9860   30.0130   39.3530 N   0  0  0  0  0  0  0  0  0  0  0  0
   32.8730   28.5480   39.2500 H   0  0  0  0  0  0  0  0  0  0  0  0
   30.0140   29.3130   37.1930 H   0  0  0  0  0  0  0  0  0  0  0  0
   30.7980   31.0150   39.5810 H   0  0  0  0  0  0  0  0  0  0  0  0
   30.6620   29.1910   39.9230 H   0  0  0  0  0  0  0  0  0  0  0  0
   35.1150   29.3980   39.7930 C   0  0  0  0  0  0  0  0  0  0  0  0
   34.9380   28.3790   40.1060 H   0  0  0  0  0  0  0  0  0  0  0  0
   34.2730   30.1150   39.6920 H   0  0  0  0  0  0  0  0  0  0  0  0
   35.7760   29.9540   41.0270 C   0  0  0  0  0  0  0  0  0  0  0  0
   36.2720   30.9260   40.8440 H   0  0  0  0  0  0  0  0  0  0  0  0
   35.0150   30.2080   41.8290 H   0  0  0  0  0  0  0  0  0  0  0  0
   38.3250   28.0460   42.5710 C   0  0  0  0  0  0  0  0  0  0  0  0
   37.2800   27.1690   42.6390 C   0  0  0  0  0  0  0  0  0  0  0  0
   36.2030   27.8200   42.0480 C   0  0  0  0  0  0  0  0  0  0  0  0
   36.6660   29.0380   41.6640 N   0  0  0  0  0  0  0  0  0  0  0  0
   37.9050   29.1830   41.9630 N   0  0  0  0  0  0  0  0  0  0  0  0
   37.3180   26.1770   43.0730 H   0  0  0  0  0  0  0  0  0  0  0  0
   35.2480   27.3220   41.9820 H   0  0  0  0  0  0  0  0  0  0  0  0
   41.2580   26.5530   44.3200 C   0  0  0  0  0  0  0  0  0  0  0  0
   39.9470   26.7060   43.8580 C   0  0  0  0  0  0  0  0  0  0  0  0
   39.6720   27.8390   43.0630 C   0  0  0  0  0  0  0  0  0  0  0  0
   40.6530   28.7260   42.7740 N   0  0  0  0  0  0  0  0  0  0  0  0
   41.9160   28.5070   43.2650 C   0  0  0  0  0  0  0  0  0  0  0  0
   42.2070   27.4360   44.0240 N   0  0  0  0  0  0  0  0  0  0  0  0
   41.3950   25.6630   44.9230 H   0  0  0  0  0  0  0  0  0  0  0  0
   39.1310   26.0040   44.0760 H   0  0  0  0  0  0  0  0  0  0  0  0
   42.7080   29.2110   43.0390 H   0  0  0  0  0  0  0  0  0  0  0  0
  1 25  1  0  0  0  0
  2  1  1  0  0  0  0
  2 11  1  0  0  0  0
  3 12  1  0  0  0  0
  3  2  2  0  0  0  0
  4  5  2  0  0  0  0
  4  3  1  0  0  0  0
  5 10  1  0  0  0  0
  6  5  1  0  0  0  0
  7  6  2  0  0  0  0
  7  8  1  0  0  0  0
  8  9  2  0  0  0  0
  9 10  1  0  0  0  0
  9 17  1  0  0  0  0
 10  1  2  0  0  0  0
 13  4  1  0  0  0  0
 14  6  1  0  0  0  0
 15  7  1  0  0  0  0
 16  8  1  0  0  0  0
 17 21  1  0  0  0  0
 18 17  1  0  0  0  0
 18 20  1  0  0  0  0
 19 18  2  0  0  0  0
 20 23  1  0  0  0  0
 20 24  1  0  0  0  0
 22 19  1  0  0  0  0
 25 26  1  0  0  0  0
 25 28  1  0  0  0  0
 27 25  1  0  0  0  0
 28 34  1  0  0  0  0
 28 30  1  0  0  0  0
 29 28  1  0  0  0  0
 31 32  1  0  0  0  0
 31 40  1  0  0  0  0
 32 36  1  0  0  0  0
 33 32  2  0  0  0  0
 34 35  1  0  0  0  0
 34 33  1  0  0  0  0
 35 31  2  0  0  0  0
 37 33  1  0  0  0  0
 38 44  1  0  0  0  0
 39 45  1  0  0  0  0
 39 38  2  0  0  0  0
 40 39  1  0  0  0  0
 41 40  2  0  0  0  0
 41 42  1  0  0  0  0
 42 43  2  0  0  0  0
 43 38  1  0  0  0  0
 46 42  1  0  0  0  0
M  END
>  <minimizedAffinity>
-5.54418707

>  <minimizedRMSD>
0.666595101

$$$$
