
 OpenBabel03242507483D

 39 42  0  0  1  0  0  0  0  0999 V2000
   39.8800   26.1960   43.9310 C   0  0  2  0  0  0  0  0  0  0  0  0
   41.0590   25.8040   43.0310 C   0  0  0  0  0  0  0  0  0  0  0  0
   39.8600   24.9280   43.1250 C   0  0  2  0  0  0  0  0  0  0  0  0
   40.0900   26.1860   45.0120 H   0  0  0  0  0  0  0  0  0  0  0  0
   41.9720   25.4390   43.5710 H   0  0  0  0  0  0  0  0  0  0  0  0
   41.2540   26.3920   42.1220 H   0  0  0  0  0  0  0  0  0  0  0  0
   39.8730   24.0360   43.7990 H   0  0  0  0  0  0  0  0  0  0  0  0
   38.9010   24.7910   42.0100 C   0  0  0  0  0  0  0  0  0  0  0  0
   37.6470   24.2530   42.2430 C   0  0  0  0  0  0  0  0  0  0  0  0
   36.8680   24.1660   41.1150 C   0  0  0  0  0  0  0  0  0  0  0  0
   37.2040   24.5420   39.8630 N   0  0  0  0  0  0  0  0  0  0  0  0
   38.4400   25.0590   39.7010 C   0  0  0  0  0  0  0  0  0  0  0  0
   39.2530   25.1740   40.7570 N   0  0  0  0  0  0  0  0  0  0  0  0
   37.3030   23.9310   43.2010 H   0  0  0  0  0  0  0  0  0  0  0  0
   35.8510   23.7510   41.1910 H   0  0  0  0  0  0  0  0  0  0  0  0
   38.8660   25.4790   38.4100 N   0  0  0  0  0  0  0  0  0  0  0  0
   37.9730   26.2500   37.6020 C   0  0  0  0  0  0  0  0  0  0  0  0
   36.9890   26.8200   38.2130 N   0  0  0  0  0  0  0  0  0  0  0  0
   38.2610   26.3090   36.2150 N   0  0  0  0  0  0  0  0  0  0  0  0
   39.8130   25.2240   38.0640 H   0  0  0  0  0  0  0  0  0  0  0  0
   36.2840   27.4020   37.7210 H   0  0  0  0  0  0  0  0  0  0  0  0
   38.9780   26.7570   35.6010 H   0  0  0  0  0  0  0  0  0  0  0  0
   37.5760   25.7560   35.6320 H   0  0  0  0  0  0  0  0  0  0  0  0
   38.4420   29.1860   42.5760 C   0  0  0  0  0  0  0  0  0  0  0  0
   37.3800   28.7220   43.3680 C   0  0  0  0  0  0  0  0  0  0  0  0
   37.8320   27.5470   43.9500 C   0  0  0  0  0  0  0  0  0  0  0  0
   39.0850   27.3370   43.5240 N   0  0  0  0  0  0  0  0  0  0  0  0
   39.4610   28.3180   42.6970 N   0  0  0  0  0  0  0  0  0  0  0  0
   36.3900   29.1430   43.5330 H   0  0  0  0  0  0  0  0  0  0  0  0
   37.2240   26.9420   44.6310 H   0  0  0  0  0  0  0  0  0  0  0  0
   37.0150   31.7890   40.4420 C   0  0  0  0  0  0  0  0  0  0  0  0
   38.0560   32.7380   40.3490 C   0  0  0  0  0  0  0  0  0  0  0  0
   39.2540   32.4580   41.0360 C   0  0  0  0  0  0  0  0  0  0  0  0
   39.3520   31.3070   41.7450 N   0  0  0  0  0  0  0  0  0  0  0  0
   38.3180   30.4170   41.8070 C   0  0  0  0  0  0  0  0  0  0  0  0
   37.1400   30.6670   41.1460 N   0  0  0  0  0  0  0  0  0  0  0  0
   36.0750   31.9780   39.9200 H   0  0  0  0  0  0  0  0  0  0  0  0
   37.8970   33.6210   39.7690 H   0  0  0  0  0  0  0  0  0  0  0  0
   40.0580   33.1770   40.9730 H   0  0  0  0  0  0  0  0  0  0  0  0
  1  4  1  1  0  0  0
  2  3  1  0  0  0  0
  2  5  1  0  0  0  0
  2  1  1  0  0  0  0
  3  7  1  1  0  0  0
  3  1  1  0  0  0  0
  6  2  1  0  0  0  0
  8  9  1  0  0  0  0
  8  3  1  0  0  0  0
  9 14  1  0  0  0  0
 10 15  1  0  0  0  0
 10  9  2  0  0  0  0
 11 10  1  0  0  0  0
 12 11  2  0  0  0  0
 12 13  1  0  0  0  0
 13  8  2  0  0  0  0
 16 12  1  0  0  0  0
 17 18  2  0  0  0  0
 17 16  1  0  0  0  0
 19 17  1  0  0  0  0
 20 16  1  0  0  0  0
 21 18  1  0  0  0  0
 22 19  1  0  0  0  0
 23 19  1  0  0  0  0
 24 28  2  0  0  0  0
 24 25  1  0  0  0  0
 25 29  1  0  0  0  0
 25 26  2  0  0  0  0
 26 30  1  0  0  0  0
 27  1  1  0  0  0  0
 27 26  1  0  0  0  0
 28 27  1  0  0  0  0
 31 36  1  0  0  0  0
 32 31  2  0  0  0  0
 32 33  1  0  0  0  0
 33 34  2  0  0  0  0
 34 35  1  0  0  0  0
 35 24  1  0  0  0  0
 36 35  2  0  0  0  0
 37 31  1  0  0  0  0
 38 32  1  0  0  0  0
 39 33  1  0  0  0  0
M  END
>  <minimizedAffinity>
-5.6154623

>  <minimizedRMSD>
0.0928532928

$$$$
