
 OpenBabel03242509303D

 20 20  0  0  0  0  0  0  0  0999 V2000
   37.6570   28.8320   43.5350 C   0  0  0  0  0  0  0  0  0  0  0  0
   37.7370   27.4200   43.4610 C   0  0  0  0  0  0  0  0  0  0  0  0
   37.4350   26.8200   42.2370 C   0  0  0  0  0  0  0  0  0  0  0  0
   37.0820   27.6140   41.1810 N   0  0  0  0  0  0  0  0  0  0  0  0
   37.0190   28.9530   41.2960 C   0  0  0  0  0  0  0  0  0  0  0  0
   37.3070   29.5390   42.4710 N   0  0  0  0  0  0  0  0  0  0  0  0
   37.8990   29.2630   44.5080 H   0  0  0  0  0  0  0  0  0  0  0  0
   38.0170   26.8550   44.3160 H   0  0  0  0  0  0  0  0  0  0  0  0
   36.6440   29.7670   40.1680 N   0  0  0  0  0  0  0  0  0  0  0  0
   37.5520   30.7490   39.6720 C   0  0  0  0  0  0  0  0  0  0  0  0
   38.8200   30.5720   39.8310 N   0  0  0  0  0  0  0  0  0  0  0  0
   37.0130   31.8900   39.0190 N   0  0  0  0  0  0  0  0  0  0  0  0
   35.7050   29.6140   39.7370 H   0  0  0  0  0  0  0  0  0  0  0  0
   39.4520   31.3110   39.4550 H   0  0  0  0  0  0  0  0  0  0  0  0
   36.4440   32.1200   38.1740 H   0  0  0  0  0  0  0  0  0  0  0  0
   37.3170   32.7120   39.6220 H   0  0  0  0  0  0  0  0  0  0  0  0
   37.5110   25.3350   42.1280 C   0  0  0  0  0  0  0  0  0  0  0  0
   37.6090   25.0540   40.7910 F   0  0  0  0  0  0  0  0  0  0  0  0
   38.6120   24.8220   42.7490 F   0  0  0  0  0  0  0  0  0  0  0  0
   36.3640   24.7190   42.6240 F   0  0  0  0  0  0  0  0  0  0  0  0
  1  7  1  0  0  0  0
  2  1  1  0  0  0  0
  2  8  1  0  0  0  0
  3  2  2  0  0  0  0
  4  5  2  0  0  0  0
  4  3  1  0  0  0  0
  5  6  1  0  0  0  0
  6  1  2  0  0  0  0
  9  5  1  0  0  0  0
 10 11  2  0  0  0  0
 10  9  1  0  0  0  0
 12 16  1  0  0  0  0
 12 10  1  0  0  0  0
 13  9  1  0  0  0  0
 14 11  1  0  0  0  0
 15 12  1  0  0  0  0
 17  3  1  0  0  0  0
 17 20  1  0  0  0  0
 17 19  1  0  0  0  0
 18 17  1  0  0  0  0
M  END
>  <minimizedAffinity>
-4.19382477

>  <minimizedRMSD>
0.590021014

$$$$
