
 OpenBabel03242507003D

 18 18  0  0  0  0  0  0  0  0999 V2000
   39.0500   28.1760   43.2840 C   0  0  0  0  0  0  0  0  0  0  0  0
   38.4990   26.8840   43.1500 C   0  0  0  0  0  0  0  0  0  0  0  0
   37.2610   26.7320   42.5470 C   0  0  0  0  0  0  0  0  0  0  0  0
   36.6260   27.8450   42.1080 N   0  0  0  0  0  0  0  0  0  0  0  0
   37.1550   29.0820   42.2370 C   0  0  0  0  0  0  0  0  0  0  0  0
   38.3470   29.2370   42.8160 N   0  0  0  0  0  0  0  0  0  0  0  0
   40.0170   28.2970   43.7530 H   0  0  0  0  0  0  0  0  0  0  0  0
   39.0950   26.0560   43.5380 H   0  0  0  0  0  0  0  0  0  0  0  0
   36.4460   30.2360   41.7570 N   0  0  0  0  0  0  0  0  0  0  0  0
   36.8520   30.8990   40.5500 C   0  0  0  0  0  0  0  0  0  0  0  0
   37.3710   30.1290   39.6560 N   0  0  0  0  0  0  0  0  0  0  0  0
   36.6300   32.3130   40.4960 N   0  0  0  0  0  0  0  0  0  0  0  0
   35.6160   30.5800   42.3260 H   0  0  0  0  0  0  0  0  0  0  0  0
   37.6910   30.5270   38.7530 H   0  0  0  0  0  0  0  0  0  0  0  0
   37.4600   32.9690   40.5920 H   0  0  0  0  0  0  0  0  0  0  0  0
   35.7070   32.8160   40.3690 H   0  0  0  0  0  0  0  0  0  0  0  0
   36.7610   25.4620   42.4370 O   0  0  0  0  0  0  0  0  0  0  0  0
   35.8050   25.2180   42.2640 H   0  0  0  0  0  0  0  0  0  0  0  0
  1  7  1  0  0  0  0
  2  1  1  0  0  0  0
  2  8  1  0  0  0  0
  3  2  2  0  0  0  0
  4  5  2  0  0  0  0
  4  3  1  0  0  0  0
  5  6  1  0  0  0  0
  6  1  2  0  0  0  0
  9  5  1  0  0  0  0
  9 13  1  0  0  0  0
 10  9  1  0  0  0  0
 11 10  2  0  0  0  0
 12 10  1  0  0  0  0
 12 15  1  0  0  0  0
 14 11  1  0  0  0  0
 16 12  1  0  0  0  0
 17  3  1  0  0  0  0
 18 17  1  0  0  0  0
M  END
>  <minimizedAffinity>
-4.32389021

>  <minimizedRMSD>
1.09845638

$$$$
