
 OpenBabel03242509293D

 16 16  0  0  0  0  0  0  0  0999 V2000
   38.2190   28.7970   43.3780 C   0  0  0  0  0  0  0  0  0  0  0  0
   38.2790   27.3910   43.2630 C   0  0  0  0  0  0  0  0  0  0  0  0
   37.4690   26.7910   42.2780 C   0  0  0  0  0  0  0  0  0  0  0  0
   36.6670   27.5960   41.4850 N   0  0  0  0  0  0  0  0  0  0  0  0
   36.6600   28.9300   41.6510 C   0  0  0  0  0  0  0  0  0  0  0  0
   37.4160   29.5220   42.5750 N   0  0  0  0  0  0  0  0  0  0  0  0
   38.8570   29.1850   44.1440 H   0  0  0  0  0  0  0  0  0  0  0  0
   38.9150   26.7820   43.8960 H   0  0  0  0  0  0  0  0  0  0  0  0
   37.4950   25.3160   42.1160 C   0  0  0  0  0  0  0  0  0  0  0  0
   37.5800   25.0750   40.7730 F   0  0  0  0  0  0  0  0  0  0  0  0
   38.5940   24.7500   42.7140 F   0  0  0  0  0  0  0  0  0  0  0  0
   36.3390   24.7270   42.6330 F   0  0  0  0  0  0  0  0  0  0  0  0
   35.8180   29.7860   40.8200 C   0  0  0  0  0  0  0  0  0  0  0  0
   36.1420   30.9370   40.4780 O   0  0  0  0  0  0  0  0  0  0  0  0
   34.5770   29.3990   40.3320 O   0  0  0  0  0  0  0  0  0  0  0  0
   33.7420   29.9970   40.4290 H   0  0  0  0  0  0  0  0  0  0  0  0
  1  7  1  0  0  0  0
  2  1  1  0  0  0  0
  2  8  1  0  0  0  0
  3  2  2  0  0  0  0
  4  5  2  0  0  0  0
  4  3  1  0  0  0  0
  5  6  1  0  0  0  0
  6  1  2  0  0  0  0
  9  3  1  0  0  0  0
  9 12  1  0  0  0  0
  9 11  1  0  0  0  0
 10  9  1  0  0  0  0
 13  5  1  0  0  0  0
 14 13  2  0  0  0  0
 15 16  1  0  0  0  0
 15 13  1  0  0  0  0
M  END
>  <minimizedAffinity>
-4.32344437

>  <minimizedRMSD>
0.297113389

$$$$
