
 OpenBabel03242509303D

 16 16  0  0  0  0  0  0  0  0999 V2000
   38.3070   28.6640   43.4310 C   0  0  0  0  0  0  0  0  0  0  0  0
   38.3440   27.2610   43.2810 C   0  0  0  0  0  0  0  0  0  0  0  0
   37.5120   26.6970   42.2920 C   0  0  0  0  0  0  0  0  0  0  0  0
   36.7130   27.5330   41.5300 N   0  0  0  0  0  0  0  0  0  0  0  0
   36.7290   28.8630   41.7280 C   0  0  0  0  0  0  0  0  0  0  0  0
   37.5050   29.4210   42.6560 N   0  0  0  0  0  0  0  0  0  0  0  0
   38.9610   29.0240   44.1970 H   0  0  0  0  0  0  0  0  0  0  0  0
   38.9790   26.6270   43.8900 H   0  0  0  0  0  0  0  0  0  0  0  0
   37.5150   25.2270   42.0940 C   0  0  0  0  0  0  0  0  0  0  0  0
   37.5810   25.0170   40.7450 F   0  0  0  0  0  0  0  0  0  0  0  0
   38.6110   24.6290   42.6650 F   0  0  0  0  0  0  0  0  0  0  0  0
   36.3550   24.6420   42.6100 F   0  0  0  0  0  0  0  0  0  0  0  0
   35.8890   29.7520   40.9290 C   0  0  0  0  0  0  0  0  0  0  0  0
   35.3830   29.4190   39.8430 O   0  0  0  0  0  0  0  0  0  0  0  0
   35.5760   31.0510   41.3020 O   0  0  0  0  0  0  0  0  0  0  0  0
   35.6840   31.8470   40.6530 H   0  0  0  0  0  0  0  0  0  0  0  0
  1  7  1  0  0  0  0
  2  1  1  0  0  0  0
  2  8  1  0  0  0  0
  3  2  2  0  0  0  0
  4  5  2  0  0  0  0
  4  3  1  0  0  0  0
  5  6  1  0  0  0  0
  6  1  2  0  0  0  0
  9  3  1  0  0  0  0
  9 12  1  0  0  0  0
  9 11  1  0  0  0  0
 10  9  1  0  0  0  0
 13 15  1  0  0  0  0
 13  5  1  0  0  0  0
 14 13  2  0  0  0  0
 16 15  1  0  0  0  0
M  END
>  <minimizedAffinity>
-4.61124468

>  <minimizedRMSD>
0.32995069

$$$$
