
 OpenBabel03242507413D

 31 33  0  0  0  0  0  0  0  0999 V2000
   39.2160   27.7010   43.4660 C   0  0  0  0  0  0  0  0  0  0  0  0
   38.6600   26.4150   43.3380 C   0  0  0  0  0  0  0  0  0  0  0  0
   37.8860   26.1760   42.1930 C   0  0  0  0  0  0  0  0  0  0  0  0
   37.7200   27.1690   41.2990 N   0  0  0  0  0  0  0  0  0  0  0  0
   38.2640   28.3890   41.4510 C   0  0  0  0  0  0  0  0  0  0  0  0
   39.0130   28.6590   42.5320 N   0  0  0  0  0  0  0  0  0  0  0  0
   37.2630   24.9440   41.9200 N   0  0  0  0  0  0  0  0  0  0  0  0
   38.0980   29.4510   40.5150 N   0  0  0  0  0  0  0  0  0  0  0  0
   37.3050   29.1940   39.4490 C   0  0  0  0  0  0  0  0  0  0  0  0
   37.0300   30.1020   38.4430 C   0  0  0  0  0  0  0  0  0  0  0  0
   37.6140   31.3430   38.5540 C   0  0  0  0  0  0  0  0  0  0  0  0
   37.4020   32.2140   37.6690 O   0  0  0  0  0  0  0  0  0  0  0  0
   38.4020   31.5750   39.6270 N   0  0  0  0  0  0  0  0  0  0  0  0
   38.6430   30.6700   40.5800 C   0  0  0  0  0  0  0  0  0  0  0  0
   39.3660   30.8840   41.5650 O   0  0  0  0  0  0  0  0  0  0  0  0
   39.8180   27.8830   44.3580 H   0  0  0  0  0  0  0  0  0  0  0  0
   38.7840   25.6220   44.0360 H   0  0  0  0  0  0  0  0  0  0  0  0
   36.2890   24.9650   41.5300 H   0  0  0  0  0  0  0  0  0  0  0  0
   37.7820   24.0440   42.1080 H   0  0  0  0  0  0  0  0  0  0  0  0
   36.8320   28.2100   39.3460 H   0  0  0  0  0  0  0  0  0  0  0  0
   38.9810   32.8590   39.7030 C   0  0  0  0  0  0  0  0  0  0  0  0
   38.3800   33.9830   40.2270 C   0  0  0  0  0  0  0  0  0  0  0  0
   38.9900   35.2210   40.2780 C   0  0  0  0  0  0  0  0  0  0  0  0
   40.2430   35.3610   39.7940 N   0  0  0  0  0  0  0  0  0  0  0  0
   40.8550   34.2580   39.2690 C   0  0  0  0  0  0  0  0  0  0  0  0
   41.8470   34.2470   38.8560 H   0  0  0  0  0  0  0  0  0  0  0  0
   40.2410   33.0790   39.2350 N   0  0  0  0  0  0  0  0  0  0  0  0
   36.1470   29.7250   37.3150 C   0  0  0  0  0  0  0  0  0  0  0  0
   36.6700   29.7060   36.3390 H   0  0  0  0  0  0  0  0  0  0  0  0
   35.3260   30.4740   37.3010 H   0  0  0  0  0  0  0  0  0  0  0  0
   35.6770   28.7540   37.5320 H   0  0  0  0  0  0  0  0  0  0  0  0
  1 16  1  0  0  0  0
  2  1  1  0  0  0  0
  2 17  1  0  0  0  0
  3  2  2  0  0  0  0
  4  5  2  0  0  0  0
  4  3  1  0  0  0  0
  5  6  1  0  0  0  0
  6  1  2  0  0  0  0
  7 19  1  0  0  0  0
  7  3  1  0  0  0  0
  8 14  1  0  0  0  0
  8  5  1  0  0  0  0
  9  8  1  0  0  0  0
 10 11  1  0  0  0  0
 10  9  2  0  0  0  0
 11 13  1  0  0  0  0
 12 11  2  0  0  0  0
 13 21  1  0  0  0  0
 13 14  1  0  0  0  0
 14 15  2  0  0  0  0
 18  7  1  0  0  0  0
 20  9  1  0  0  0  0
 21 22  1  0  0  0  0
 22 23  2  0  0  0  0
 24 23  1  0  0  0  0
 25 24  2  0  0  0  0
 26 25  1  0  0  0  0
 27 25  1  0  0  0  0
 27 21  2  0  0  0  0
 28 31  1  0  0  0  0
 28 10  1  0  0  0  0
 29 28  1  0  0  0  0
 30 28  1  0  0  0  0
M  END
>  <minimizedAffinity>
-5.8746767

>  <minimizedRMSD>
1.48349941

$$$$
