
 OpenBabel03242509193D

 23 25  0  0  0  0  0  0  0  0999 V2000
   40.0710   27.7350   43.2760 C   0  0  0  0  0  0  0  0  0  0  0  0
   39.0710   26.9290   43.7190 C   0  0  0  0  0  0  0  0  0  0  0  0
   37.9150   27.2320   43.0300 C   0  0  0  0  0  0  0  0  0  0  0  0
   38.3040   28.2380   42.1840 N   0  0  0  0  0  0  0  0  0  0  0  0
   39.5560   28.5270   42.3300 N   0  0  0  0  0  0  0  0  0  0  0  0
   39.1900   26.1790   44.4880 H   0  0  0  0  0  0  0  0  0  0  0  0
   36.9450   26.7630   43.1560 H   0  0  0  0  0  0  0  0  0  0  0  0
   43.2360   26.8110   45.0220 C   0  0  0  0  0  0  0  0  0  0  0  0
   41.9000   26.7450   44.6150 C   0  0  0  0  0  0  0  0  0  0  0  0
   41.4460   27.7340   43.7440 C   0  0  0  0  0  0  0  0  0  0  0  0
   42.2940   28.7130   43.3220 N   0  0  0  0  0  0  0  0  0  0  0  0
   43.5910   28.7380   43.7460 C   0  0  0  0  0  0  0  0  0  0  0  0
   44.0600   27.7840   44.5980 N   0  0  0  0  0  0  0  0  0  0  0  0
   43.5530   26.0270   45.6990 H   0  0  0  0  0  0  0  0  0  0  0  0
   41.2290   25.9890   44.9350 H   0  0  0  0  0  0  0  0  0  0  0  0
   44.2030   29.5460   43.3690 H   0  0  0  0  0  0  0  0  0  0  0  0
   37.3870   28.8480   41.2800 C   0  0  0  0  0  0  0  0  0  0  0  0
   36.0490   28.4820   41.3070 C   0  0  0  0  0  0  0  0  0  0  0  0
   35.1870   29.0960   40.4150 C   0  0  0  0  0  0  0  0  0  0  0  0
   35.6310   30.0200   39.5440 N   0  0  0  0  0  0  0  0  0  0  0  0
   36.9380   30.3800   39.5140 C   0  0  0  0  0  0  0  0  0  0  0  0
   37.2350   31.1190   38.8030 H   0  0  0  0  0  0  0  0  0  0  0  0
   37.7300   29.7700   40.3850 N   0  0  0  0  0  0  0  0  0  0  0  0
  1  2  1  0  0  0  0
  1 10  1  0  0  0  0
  2  6  1  0  0  0  0
  3  7  1  0  0  0  0
  3  2  2  0  0  0  0
  4  5  1  0  0  0  0
  4  3  1  0  0  0  0
  5  1  2  0  0  0  0
  8 14  1  0  0  0  0
  9 15  1  0  0  0  0
  9  8  1  0  0  0  0
 10  9  2  0  0  0  0
 11 10  1  0  0  0  0
 11 12  2  0  0  0  0
 12 13  1  0  0  0  0
 13  8  2  0  0  0  0
 16 12  1  0  0  0  0
 17 18  1  0  0  0  0
 17  4  1  0  0  0  0
 19 18  2  0  0  0  0
 20 19  1  0  0  0  0
 21 20  2  0  0  0  0
 21 23  1  0  0  0  0
 22 21  1  0  0  0  0
 23 17  2  0  0  0  0
M  END
>  <minimizedAffinity>
-4.09399509

>  <minimizedRMSD>
7.47528791

$$$$
