
 OpenBabel03242509303D

 16 16  0  0  0  0  0  0  0  0999 V2000
   38.3160   28.6060   43.3940 C   0  0  0  0  0  0  0  0  0  0  0  0
   38.3730   27.2050   43.2320 C   0  0  0  0  0  0  0  0  0  0  0  0
   37.5190   26.6330   42.2670 C   0  0  0  0  0  0  0  0  0  0  0  0
   36.6810   27.4600   41.5370 N   0  0  0  0  0  0  0  0  0  0  0  0
   36.6810   28.7890   41.7440 C   0  0  0  0  0  0  0  0  0  0  0  0
   37.4770   29.3530   42.6500 N   0  0  0  0  0  0  0  0  0  0  0  0
   38.9890   28.9720   44.1410 H   0  0  0  0  0  0  0  0  0  0  0  0
   39.0370   26.5780   43.8170 H   0  0  0  0  0  0  0  0  0  0  0  0
   37.5400   25.1640   42.0590 C   0  0  0  0  0  0  0  0  0  0  0  0
   37.6460   24.9650   40.7100 F   0  0  0  0  0  0  0  0  0  0  0  0
   38.6240   24.5720   42.6570 F   0  0  0  0  0  0  0  0  0  0  0  0
   36.3720   24.5660   42.5370 F   0  0  0  0  0  0  0  0  0  0  0  0
   35.8010   29.6680   40.9790 C   0  0  0  0  0  0  0  0  0  0  0  0
   35.1730   29.2960   39.9730 O   0  0  0  0  0  0  0  0  0  0  0  0
   35.5810   31.0000   41.3000 O   0  0  0  0  0  0  0  0  0  0  0  0
   35.6550   31.7510   40.5940 H   0  0  0  0  0  0  0  0  0  0  0  0
  1  7  1  0  0  0  0
  2  1  1  0  0  0  0
  2  8  1  0  0  0  0
  3  2  2  0  0  0  0
  4  5  2  0  0  0  0
  4  3  1  0  0  0  0
  5  6  1  0  0  0  0
  6  1  2  0  0  0  0
  9  3  1  0  0  0  0
  9 12  1  0  0  0  0
  9 11  1  0  0  0  0
 10  9  1  0  0  0  0
 13 15  1  0  0  0  0
 13  5  1  0  0  0  0
 14 13  2  0  0  0  0
 16 15  1  0  0  0  0
M  END
>  <minimizedAffinity>
-4.60065317

>  <minimizedRMSD>
0.757416666

$$$$
