
 OpenBabel03242507473D

 35 38  0  0  1  0  0  0  0  0999 V2000
   39.8520   26.1860   43.9020 C   0  0  2  0  0  0  0  0  0  0  0  0
   40.9980   25.7650   42.9700 C   0  0  0  0  0  0  0  0  0  0  0  0
   39.7880   24.9110   43.1070 C   0  0  2  0  0  0  0  0  0  0  0  0
   40.0930   26.1480   44.9800 H   0  0  0  0  0  0  0  0  0  0  0  0
   41.1270   26.2810   42.0080 H   0  0  0  0  0  0  0  0  0  0  0  0
   41.9430   25.4480   43.4650 H   0  0  0  0  0  0  0  0  0  0  0  0
   39.7560   24.0140   43.7800 H   0  0  0  0  0  0  0  0  0  0  0  0
   38.7920   24.7850   42.0140 C   0  0  0  0  0  0  0  0  0  0  0  0
   37.5460   24.2460   42.2900 C   0  0  0  0  0  0  0  0  0  0  0  0
   36.7310   24.1670   41.1890 C   0  0  0  0  0  0  0  0  0  0  0  0
   37.0230   24.5460   39.9330 N   0  0  0  0  0  0  0  0  0  0  0  0
   38.2520   25.0630   39.7270 C   0  0  0  0  0  0  0  0  0  0  0  0
   39.1100   25.1750   40.7550 N   0  0  0  0  0  0  0  0  0  0  0  0
   37.2330   23.9190   43.2650 H   0  0  0  0  0  0  0  0  0  0  0  0
   35.7260   23.7560   41.3050 H   0  0  0  0  0  0  0  0  0  0  0  0
   38.7010   25.5160   38.4110 C   0  0  0  0  0  0  0  0  0  0  0  0
   39.9260   25.4430   38.0600 O   0  0  0  0  0  0  0  0  0  0  0  0
   37.8250   26.0460   37.4740 O   0  0  0  0  0  0  0  0  0  0  0  0
   37.9030   25.8000   36.4810 H   0  0  0  0  0  0  0  0  0  0  0  0
   38.4440   29.1980   42.5590 C   0  0  0  0  0  0  0  0  0  0  0  0
   37.3840   28.7500   43.3690 C   0  0  0  0  0  0  0  0  0  0  0  0
   37.8290   27.5710   43.9450 C   0  0  0  0  0  0  0  0  0  0  0  0
   39.0720   27.3410   43.5010 N   0  0  0  0  0  0  0  0  0  0  0  0
   39.4500   28.3150   42.6660 N   0  0  0  0  0  0  0  0  0  0  0  0
   36.4050   29.1770   43.5550 H   0  0  0  0  0  0  0  0  0  0  0  0
   37.2470   26.9680   44.6290 H   0  0  0  0  0  0  0  0  0  0  0  0
   37.0210   31.8090   40.4310 C   0  0  0  0  0  0  0  0  0  0  0  0
   38.0610   32.7580   40.3450 C   0  0  0  0  0  0  0  0  0  0  0  0
   39.2560   32.4690   41.0350 C   0  0  0  0  0  0  0  0  0  0  0  0
   39.3520   31.3170   41.7390 N   0  0  0  0  0  0  0  0  0  0  0  0
   38.3180   30.4290   41.7940 C   0  0  0  0  0  0  0  0  0  0  0  0
   37.1430   30.6810   41.1320 N   0  0  0  0  0  0  0  0  0  0  0  0
   36.0850   32.0070   39.9060 H   0  0  0  0  0  0  0  0  0  0  0  0
   37.9410   33.6690   39.7680 H   0  0  0  0  0  0  0  0  0  0  0  0
   40.0730   33.1840   40.9840 H   0  0  0  0  0  0  0  0  0  0  0  0
  1  4  1  1  0  0  0
  2  3  1  0  0  0  0
  2  6  1  0  0  0  0
  2  1  1  0  0  0  0
  3  7  1  1  0  0  0
  3  1  1  0  0  0  0
  5  2  1  0  0  0  0
  8  9  1  0  0  0  0
  8  3  1  0  0  0  0
  9 14  1  0  0  0  0
 10 15  1  0  0  0  0
 10  9  2  0  0  0  0
 11 10  1  0  0  0  0
 12 11  2  0  0  0  0
 12 13  1  0  0  0  0
 13  8  2  0  0  0  0
 16 12  1  0  0  0  0
 17 16  2  0  0  0  0
 18 16  1  0  0  0  0
 19 18  1  0  0  0  0
 20 24  2  0  0  0  0
 20 21  1  0  0  0  0
 21 25  1  0  0  0  0
 21 22  2  0  0  0  0
 22 26  1  0  0  0  0
 23  1  1  0  0  0  0
 23 22  1  0  0  0  0
 24 23  1  0  0  0  0
 27 32  1  0  0  0  0
 28 27  2  0  0  0  0
 28 29  1  0  0  0  0
 29 30  2  0  0  0  0
 30 31  1  0  0  0  0
 31 20  1  0  0  0  0
 32 31  2  0  0  0  0
 33 27  1  0  0  0  0
 34 28  1  0  0  0  0
 35 29  1  0  0  0  0
M  END
>  <minimizedAffinity>
-5.17250156

>  <minimizedRMSD>
0.0470227823

$$$$
