
 OpenBabel03242508353D

 33 35  0  0  0  0  0  0  0  0999 V2000
   36.4510   30.4870   41.5860 O   0  0  0  0  0  0  0  0  0  0  0  0
   38.4230   28.1020   43.4490 C   0  0  0  0  0  0  0  0  0  0  0  0
   38.1000   26.8940   42.7270 C   0  0  0  0  0  0  0  0  0  0  0  0
   37.2290   27.0750   41.6710 C   0  0  0  0  0  0  0  0  0  0  0  0
   36.7500   28.3020   41.3870 N   0  0  0  0  0  0  0  0  0  0  0  0
   37.0670   29.3860   42.0710 C   0  0  0  0  0  0  0  0  0  0  0  0
   37.9200   29.2890   43.1240 N   0  0  0  0  0  0  0  0  0  0  0  0
   39.0820   28.1940   44.3030 H   0  0  0  0  0  0  0  0  0  0  0  0
   38.6580   26.1190   43.2290 H   0  0  0  0  0  0  0  0  0  0  0  0
   36.9720   25.8360   40.9700 C   0  0  0  0  0  0  0  0  0  0  0  0
   36.0300   25.9250   40.4150 H   0  0  0  0  0  0  0  0  0  0  0  0
   37.7730   25.7330   40.1810 H   0  0  0  0  0  0  0  0  0  0  0  0
   36.9660   24.6020   41.7580 C   0  0  0  0  0  0  0  0  0  0  0  0
   37.5500   24.5660   42.6940 H   0  0  0  0  0  0  0  0  0  0  0  0
   35.9100   24.2750   41.9100 H   0  0  0  0  0  0  0  0  0  0  0  0
   37.8870   23.2950   40.8640 S   0  0  0  0  0  0  0  0  0  0  0  0
   39.1080   23.9060   40.4930 H   0  0  0  0  0  0  0  0  0  0  0  0
   37.0760   31.2590   40.6090 C   0  0  0  0  0  0  0  0  0  0  0  0
   36.7120   31.4800   39.3130 N   0  0  0  0  0  0  0  0  0  0  0  0
   37.5940   32.2730   38.7580 O   0  0  0  0  0  0  0  0  0  0  0  0
   38.5010   32.5510   39.6830 C   0  0  0  0  0  0  0  0  0  0  0  0
   38.1970   31.9390   40.8180 N   0  0  0  0  0  0  0  0  0  0  0  0
   39.6530   33.4100   39.4490 C   0  0  0  0  0  0  0  0  0  0  0  0
   39.9030   34.6410   40.0430 C   0  0  0  0  0  0  0  0  0  0  0  0
   41.0840   35.1450   39.5710 C   0  0  0  0  0  0  0  0  0  0  0  0
   41.5290   34.1840   38.6820 C   0  0  0  0  0  0  0  0  0  0  0  0
   40.6650   33.2180   38.6580 O   0  0  0  0  0  0  0  0  0  0  0  0
   39.2580   35.1400   40.7800 H   0  0  0  0  0  0  0  0  0  0  0  0
   41.5400   36.0660   39.8380 H   0  0  0  0  0  0  0  0  0  0  0  0
   42.7800   34.3080   37.9280 C   0  0  0  0  0  0  0  0  0  0  0  0
   43.8760   34.2780   38.5440 O   0  0  0  0  0  0  0  0  0  0  0  0
   42.7820   34.4580   36.5500 O   0  0  0  0  0  0  0  0  0  0  0  0
   43.6570   34.2350   36.0500 H   0  0  0  0  0  0  0  0  0  0  0  0
  1  6  1  0  0  0  0
  2  8  1  0  0  0  0
  3  9  1  0  0  0  0
  3  2  2  0  0  0  0
  4  3  1  0  0  0  0
  5  4  2  0  0  0  0
  5  6  1  0  0  0  0
  6  7  2  0  0  0  0
  7  2  1  0  0  0  0
 10  4  1  0  0  0  0
 10 13  1  0  0  0  0
 11 10  1  0  0  0  0
 12 10  1  0  0  0  0
 13 15  1  0  0  0  0
 13 14  1  0  0  0  0
 16 13  1  0  0  0  0
 17 16  1  0  0  0  0
 18 22  1  0  0  0  0
 18  1  1  0  0  0  0
 19 18  2  0  0  0  0
 20 19  1  0  0  0  0
 20 21  1  0  0  0  0
 21 22  2  0  0  0  0
 23 21  1  0  0  0  0
 23 24  2  0  0  0  0
 24 28  1  0  0  0  0
 25 29  1  0  0  0  0
 25 24  1  0  0  0  0
 26 25  2  0  0  0  0
 27 26  1  0  0  0  0
 27 23  1  0  0  0  0
 30 31  2  0  0  0  0
 30 26  1  0  0  0  0
 32 30  1  0  0  0  0
 33 32  1  0  0  0  0
M  END
>  <minimizedAffinity>
-6.06088066

>  <minimizedRMSD>
0.986205637

$$$$
