REMARK  Name = 
REMARK  3 active torsions:
REMARK  status: ('A' for Active; 'I' for Inactive)
REMARK    1  A    between atoms: C_3  and  C_7
REMARK    2  A    between atoms: C_5  and  C_13
REMARK    3  A    between atoms: C_13  and  O_15
REMARK                            x       y       z     vdW  Elec       q    Type
REMARK                         _______ _______ _______ _____ _____    ______ ____
ROOT
ATOM      1  C   UNL     1      37.976  28.877  43.375  0.00  0.00    +0.000 A 
ATOM      2  C   UNL     1      38.091  27.471  43.315  0.00  0.00    +0.000 A 
ATOM      3  C   UNL     1      37.436  26.817  42.252  0.00  0.00    +0.000 A 
ATOM      4  N   UNL     1      36.724  27.572  41.334  0.00  0.00    +0.000 NA
ATOM      5  C   UNL     1      36.658  28.910  41.454  0.00  0.00    +0.000 A 
ATOM      6  N   UNL     1      37.267  29.552  42.449  0.00  0.00    +0.000 NA
ATOM      7  H   UNL     1      38.496  29.307  44.205  0.00  0.00    +0.000 HD
ATOM      8  H   UNL     1      38.654  26.901  44.046  0.00  0.00    +0.000 HD
ENDROOT
BRANCH   3   9
ATOM      9  C   UNL     1      37.526  25.340  42.143  0.00  0.00    +0.000 C 
ATOM     10  F   UNL     1      37.663  25.056  40.813  0.00  0.00    +0.000 F 
ATOM     11  F   UNL     1      38.626  24.839  42.794  0.00  0.00    +0.000 F 
ATOM     12  F   UNL     1      36.378  24.722  42.645  0.00  0.00    +0.000 F 
ENDBRANCH   3   9
BRANCH   5  13
ATOM     13  C   UNL     1      35.910  29.714  40.491  0.00  0.00    +0.000 C 
ATOM     14  O   UNL     1      36.429  30.602  39.795  0.00  0.00    +0.000 OA
BRANCH  13  15
ATOM     15  O   UNL     1      34.549  29.563  40.261  0.00  0.00    +0.000 OA
ATOM     16  H   UNL     1      33.905  30.370  40.256  0.00  0.00    +0.000 HD
ENDBRANCH  13  15
ENDBRANCH   5  13
TORSDOF 3
