
 OpenBabel03242509243D

 43 46  0  0  0  0  0  0  0  0999 V2000
   36.1510   30.0960   41.0930 C   0  0  0  0  0  0  0  0  0  0  0  0
   36.7750   30.8980   40.6460 H   0  0  0  0  0  0  0  0  0  0  0  0
   35.5570   30.6140   41.9000 H   0  0  0  0  0  0  0  0  0  0  0  0
   38.5790   28.1240   42.6900 C   0  0  0  0  0  0  0  0  0  0  0  0
   37.4730   27.3170   42.8050 C   0  0  0  0  0  0  0  0  0  0  0  0
   36.4210   28.0050   42.1910 C   0  0  0  0  0  0  0  0  0  0  0  0
   36.9690   29.1460   41.7680 N   0  0  0  0  0  0  0  0  0  0  0  0
   38.2260   29.2500   42.0410 N   0  0  0  0  0  0  0  0  0  0  0  0
   37.4810   26.3530   43.2840 H   0  0  0  0  0  0  0  0  0  0  0  0
   35.4350   27.5730   42.1500 H   0  0  0  0  0  0  0  0  0  0  0  0
   41.4540   26.4260   44.3490 C   0  0  0  0  0  0  0  0  0  0  0  0
   40.1500   26.6550   43.8960 C   0  0  0  0  0  0  0  0  0  0  0  0
   39.9110   27.8370   43.1780 C   0  0  0  0  0  0  0  0  0  0  0  0
   40.9270   28.7080   42.9450 N   0  0  0  0  0  0  0  0  0  0  0  0
   42.1820   28.4230   43.4180 C   0  0  0  0  0  0  0  0  0  0  0  0
   42.4330   27.3000   44.1070 N   0  0  0  0  0  0  0  0  0  0  0  0
   41.7420   25.5630   44.9020 H   0  0  0  0  0  0  0  0  0  0  0  0
   39.3830   25.9460   44.1000 H   0  0  0  0  0  0  0  0  0  0  0  0
   43.2540   29.3790   43.1530 C   0  0  0  0  0  0  0  0  0  0  0  0
   43.3690   30.3730   43.9330 O   0  0  0  0  0  0  0  0  0  0  0  0
   44.1020   29.1950   42.0950 O   0  0  0  0  0  0  0  0  0  0  0  0
   45.0200   29.5840   42.1200 H   0  0  0  0  0  0  0  0  0  0  0  0
   35.2520   29.5440   40.0340 C   0  0  0  0  0  0  0  0  0  0  0  0
   34.7680   28.6470   40.3980 H   0  0  0  0  0  0  0  0  0  0  0  0
   34.5480   30.4390   39.9200 H   0  0  0  0  0  0  0  0  0  0  0  0
   35.8640   29.4590   38.6920 C   0  0  0  0  0  0  0  0  0  0  0  0
   37.1820   29.6040   38.3610 C   0  0  0  0  0  0  0  0  0  0  0  0
   37.7000   29.5790   37.0970 C   0  0  0  0  0  0  0  0  0  0  0  0
   36.8630   29.3950   36.0320 C   0  0  0  0  0  0  0  0  0  0  0  0
   35.5120   29.2390   36.2880 C   0  0  0  0  0  0  0  0  0  0  0  0
   34.7200   29.0620   35.1720 C   0  0  0  0  0  0  0  0  0  0  0  0
   33.3720   28.8990   35.3270 C   0  0  0  0  0  0  0  0  0  0  0  0
   32.8280   28.9120   36.5970 C   0  0  0  0  0  0  0  0  0  0  0  0
   33.6660   29.0900   37.6550 C   0  0  0  0  0  0  0  0  0  0  0  0
   35.0160   29.2660   37.5820 C   0  0  0  0  0  0  0  0  0  0  0  0
   37.8590   29.7530   39.2000 H   0  0  0  0  0  0  0  0  0  0  0  0
   38.7620   29.7050   36.9360 H   0  0  0  0  0  0  0  0  0  0  0  0
   37.2690   29.3770   35.0300 H   0  0  0  0  0  0  0  0  0  0  0  0
   35.1380   29.0480   34.1660 H   0  0  0  0  0  0  0  0  0  0  0  0
   32.7160   28.7600   34.4780 H   0  0  0  0  0  0  0  0  0  0  0  0
   31.7620   28.7810   36.7140 H   0  0  0  0  0  0  0  0  0  0  0  0
   33.0650   29.0770   38.9050 O   0  0  0  0  0  0  0  0  0  0  0  0
   32.1960   29.5370   39.0450 H   0  0  0  0  0  0  0  0  0  0  0  0
  1  7  1  0  0  0  0
  1  3  1  0  0  0  0
  2  1  1  0  0  0  0
  4  5  1  0  0  0  0
  4 13  1  0  0  0  0
  5  9  1  0  0  0  0
  6  5  2  0  0  0  0
  7  8  1  0  0  0  0
  7  6  1  0  0  0  0
  8  4  2  0  0  0  0
 10  6  1  0  0  0  0
 11 17  1  0  0  0  0
 12 18  1  0  0  0  0
 12 11  2  0  0  0  0
 13 12  1  0  0  0  0
 14 13  2  0  0  0  0
 14 15  1  0  0  0  0
 15 16  2  0  0  0  0
 16 11  1  0  0  0  0
 19 15  1  0  0  0  0
 19 20  2  0  0  0  0
 21 22  1  0  0  0  0
 21 19  1  0  0  0  0
 23 24  1  0  0  0  0
 23  1  1  0  0  0  0
 25 23  1  0  0  0  0
 26 23  1  0  0  0  0
 27 26  1  0  0  0  0
 27 36  1  0  0  0  0
 28 27  2  0  0  0  0
 29 30  2  0  0  0  0
 29 28  1  0  0  0  0
 30 35  1  0  0  0  0
 31 32  2  0  0  0  0
 31 30  1  0  0  0  0
 32 33  1  0  0  0  0
 33 41  1  0  0  0  0
 33 34  2  0  0  0  0
 34 42  1  0  0  0  0
 35 34  1  0  0  0  0
 35 26  2  0  0  0  0
 37 28  1  0  0  0  0
 38 29  1  0  0  0  0
 39 31  1  0  0  0  0
 40 32  1  0  0  0  0
 42 43  1  0  0  0  0
M  END
>  <minimizedAffinity>
-5.75678825

>  <minimizedRMSD>
0.113897994

$$$$
