
 OpenBabel03242509303D

 15 15  0  0  0  0  0  0  0  0999 V2000
   38.0130   28.8800   43.3600 C   0  0  0  0  0  0  0  0  0  0  0  0
   38.1250   27.4740   43.2840 C   0  0  0  0  0  0  0  0  0  0  0  0
   37.4280   26.8260   42.2610 C   0  0  0  0  0  0  0  0  0  0  0  0
   36.6850   27.5840   41.3960 N   0  0  0  0  0  0  0  0  0  0  0  0
   36.6010   28.9240   41.4990 C   0  0  0  0  0  0  0  0  0  0  0  0
   37.2600   29.5550   42.4730 N   0  0  0  0  0  0  0  0  0  0  0  0
   38.5740   29.2860   44.1680 H   0  0  0  0  0  0  0  0  0  0  0  0
   38.7230   26.8950   43.9840 H   0  0  0  0  0  0  0  0  0  0  0  0
   37.5170   25.3390   42.1410 C   0  0  0  0  0  0  0  0  0  0  0  0
   37.6340   25.0770   40.7930 F   0  0  0  0  0  0  0  0  0  0  0  0
   38.6220   24.8400   42.7750 F   0  0  0  0  0  0  0  0  0  0  0  0
   36.3740   24.7170   42.6330 F   0  0  0  0  0  0  0  0  0  0  0  0
   35.7760   29.6200   40.5170 C   0  0  0  0  0  0  0  0  0  0  0  0
   36.0760   30.5410   40.0400 H   0  0  0  0  0  0  0  0  0  0  0  0
   34.6620   29.1180   40.2170 O   0  0  0  0  0  0  0  0  0  0  0  0
  1  7  1  0  0  0  0
  2  1  1  0  0  0  0
  2  8  1  0  0  0  0
  3  2  2  0  0  0  0
  4  5  2  0  0  0  0
  4  3  1  0  0  0  0
  5  6  1  0  0  0  0
  6  1  2  0  0  0  0
  9  3  1  0  0  0  0
  9 12  1  0  0  0  0
  9 11  1  0  0  0  0
 10  9  1  0  0  0  0
 13  5  1  0  0  0  0
 14 13  1  0  0  0  0
 15 13  2  0  0  0  0
M  END
>  <minimizedAffinity>
-3.79307246

>  <minimizedRMSD>
0.311777681

$$$$
