
 OpenBabel03242508023D

 24 25  0  0  0  0  0  0  0  0999 V2000
   38.7290   27.6380   42.3590 N   0  0  0  0  0  0  0  0  0  0  0  0
   38.7820   27.0640   43.6760 C   0  0  0  0  0  0  0  0  0  0  0  0
   40.2850   26.9640   43.9590 C   0  0  0  0  0  0  0  0  0  0  0  0
   40.9760   27.3230   42.6760 C   0  0  0  0  0  0  0  0  0  0  0  0
   39.8940   27.1430   41.6480 C   0  0  0  0  0  0  0  0  0  0  0  0
   38.2840   26.0750   43.7340 H   0  0  0  0  0  0  0  0  0  0  0  0
   38.2700   27.7390   44.3910 H   0  0  0  0  0  0  0  0  0  0  0  0
   40.5060   27.6980   44.7460 H   0  0  0  0  0  0  0  0  0  0  0  0
   40.5000   25.9270   44.2940 H   0  0  0  0  0  0  0  0  0  0  0  0
   41.7420   26.5310   42.4710 H   0  0  0  0  0  0  0  0  0  0  0  0
   41.4230   28.3280   42.6810 H   0  0  0  0  0  0  0  0  0  0  0  0
   40.0730   27.6390   40.6960 H   0  0  0  0  0  0  0  0  0  0  0  0
   39.7420   26.0310   41.5560 H   0  0  0  0  0  0  0  0  0  0  0  0
   37.8490   29.8920   41.8360 C   0  0  0  0  0  0  0  0  0  0  0  0
   37.7650   28.4970   41.8400 C   0  0  0  0  0  0  0  0  0  0  0  0
   36.6000   27.9970   41.2560 C   0  0  0  0  0  0  0  0  0  0  0  0
   35.6910   28.8570   40.7560 N   0  0  0  0  0  0  0  0  0  0  0  0
   35.8260   30.1810   40.7800 C   0  0  0  0  0  0  0  0  0  0  0  0
   36.9270   30.7150   41.3320 N   0  0  0  0  0  0  0  0  0  0  0  0
   36.4760   26.9300   41.2300 H   0  0  0  0  0  0  0  0  0  0  0  0
   34.9870   30.6950   40.3290 H   0  0  0  0  0  0  0  0  0  0  0  0
   39.0070   30.5120   42.4140 C   0  0  0  0  0  0  0  0  0  0  0  0
   39.9680   30.0420   42.5540 H   0  0  0  0  0  0  0  0  0  0  0  0
   39.9360   31.1370   42.9210 O   0  0  0  0  0  0  0  0  0  0  0  0
  1  2  1  0  0  0  0
  2  6  1  0  0  0  0
  2  3  1  0  0  0  0
  2  7  1  0  0  0  0
  3  9  1  0  0  0  0
  3  8  1  0  0  0  0
  4 11  1  0  0  0  0
  4  3  1  0  0  0  0
  5  1  1  0  0  0  0
  5  4  1  0  0  0  0
 10  4  1  0  0  0  0
 12  5  1  0  0  0  0
 13  5  1  0  0  0  0
 14 15  1  0  0  0  0
 14 22  1  0  0  0  0
 15  1  1  0  0  0  0
 16 15  2  0  0  0  0
 17 18  2  0  0  0  0
 17 16  1  0  0  0  0
 18 19  1  0  0  0  0
 19 14  2  0  0  0  0
 20 16  1  0  0  0  0
 21 18  1  0  0  0  0
 22 23  1  0  0  0  0
 22 24  2  0  0  0  0
M  END
>  <minimizedAffinity>
-3.55061841

>  <minimizedRMSD>
0.604456246

$$$$
