
 OpenBabel03242506553D

 37 40  0  0  0  0  0  0  0  0999 V2000
   39.7160   32.4550   40.9350 C   0  0  0  0  0  0  0  0  0  0  0  0
   40.8360   31.8950   41.5900 C   0  0  0  0  0  0  0  0  0  0  0  0
   40.8620   30.6090   42.0970 C   0  0  0  0  0  0  0  0  0  0  0  0
   39.7260   29.8190   41.9570 C   0  0  0  0  0  0  0  0  0  0  0  0
   38.6270   30.3150   41.3350 C   0  0  0  0  0  0  0  0  0  0  0  0
   37.5470   29.5080   41.2150 C   0  0  0  0  0  0  0  0  0  0  0  0
   36.3740   29.9650   40.5680 C   0  0  0  0  0  0  0  0  0  0  0  0
   36.4240   31.2810   40.0790 C   0  0  0  0  0  0  0  0  0  0  0  0
   37.5460   32.0400   40.2350 C   0  0  0  0  0  0  0  0  0  0  0  0
   38.6720   31.5880   40.8600 C   0  0  0  0  0  0  0  0  0  0  0  0
   41.7550   32.4760   41.7260 H   0  0  0  0  0  0  0  0  0  0  0  0
   41.7510   30.2370   42.5870 H   0  0  0  0  0  0  0  0  0  0  0  0
   39.7030   28.7880   42.3460 H   0  0  0  0  0  0  0  0  0  0  0  0
   35.4760   29.4360   40.4140 H   0  0  0  0  0  0  0  0  0  0  0  0
   35.5570   31.7130   39.5630 H   0  0  0  0  0  0  0  0  0  0  0  0
   37.5340   33.0590   39.8360 H   0  0  0  0  0  0  0  0  0  0  0  0
   39.8780   33.8000   40.4910 C   0  0  0  0  0  0  0  0  0  0  0  0
   39.0620   34.9240   40.6850 C   0  0  0  0  0  0  0  0  0  0  0  0
   39.3970   36.1840   40.1870 C   0  0  0  0  0  0  0  0  0  0  0  0
   40.5600   36.2680   39.5020 N   0  0  0  0  0  0  0  0  0  0  0  0
   41.3480   35.2190   39.3060 C   0  0  0  0  0  0  0  0  0  0  0  0
   41.0130   34.0170   39.7890 N   0  0  0  0  0  0  0  0  0  0  0  0
   38.1670   34.6860   41.2530 H   0  0  0  0  0  0  0  0  0  0  0  0
   38.7110   36.9630   40.3900 H   0  0  0  0  0  0  0  0  0  0  0  0
   42.2390   35.4390   38.7430 H   0  0  0  0  0  0  0  0  0  0  0  0
   37.3550   28.1520   41.6720 C   0  0  0  0  0  0  0  0  0  0  0  0
   36.7810   27.7160   42.8490 C   0  0  0  0  0  0  0  0  0  0  0  0
   36.6040   26.4000   43.2030 C   0  0  0  0  0  0  0  0  0  0  0  0
   37.0120   25.3960   42.3600 C   0  0  0  0  0  0  0  0  0  0  0  0
   37.5790   25.8440   41.2030 C   0  0  0  0  0  0  0  0  0  0  0  0
   37.7450   27.1350   40.8680 N   0  0  0  0  0  0  0  0  0  0  0  0
   36.4550   28.5260   43.5220 H   0  0  0  0  0  0  0  0  0  0  0  0
   36.1350   26.2340   44.1630 H   0  0  0  0  0  0  0  0  0  0  0  0
   36.8780   24.3790   42.6280 H   0  0  0  0  0  0  0  0  0  0  0  0
   38.0550   24.8630   40.2220 C   0  0  0  0  0  0  0  0  0  0  0  0
   37.7450   24.8220   39.2000 H   0  0  0  0  0  0  0  0  0  0  0  0
   38.8850   23.9490   40.4630 O   0  0  0  0  0  0  0  0  0  0  0  0
  1  2  1  0  0  0  0
  2 11  1  0  0  0  0
  2  3  2  0  0  0  0
  3 12  1  0  0  0  0
  4  3  1  0  0  0  0
  4 13  1  0  0  0  0
  5  4  2  0  0  0  0
  6  5  1  0  0  0  0
  6 26  1  0  0  0  0
  7  6  2  0  0  0  0
  8  9  2  0  0  0  0
  8  7  1  0  0  0  0
  9 10  1  0  0  0  0
 10  1  2  0  0  0  0
 10  5  1  0  0  0  0
 14  7  1  0  0  0  0
 15  8  1  0  0  0  0
 16  9  1  0  0  0  0
 17 18  1  0  0  0  0
 17  1  1  0  0  0  0
 18 23  1  0  0  0  0
 19 24  1  0  0  0  0
 19 18  2  0  0  0  0
 20 19  1  0  0  0  0
 21 20  2  0  0  0  0
 21 22  1  0  0  0  0
 22 17  2  0  0  0  0
 25 21  1  0  0  0  0
 26 27  1  0  0  0  0
 27 28  2  0  0  0  0
 27 32  1  0  0  0  0
 28 33  1  0  0  0  0
 29 34  1  0  0  0  0
 29 28  1  0  0  0  0
 30 29  2  0  0  0  0
 31 30  1  0  0  0  0
 31 26  2  0  0  0  0
 35 37  2  0  0  0  0
 35 30  1  0  0  0  0
 36 35  1  0  0  0  0
M  END
>  <minimizedAffinity>
-6.15784025

>  <minimizedRMSD>
1.29168463

$$$$
