
 OpenBabel03242504143D

 31 33  0  0  0  0  0  0  0  0999 V2000
   37.1190   29.5540   40.0080 C   0  0  0  0  0  0  0  0  0  0  0  0
   36.0460   29.2220   39.1830 C   0  0  0  0  0  0  0  0  0  0  0  0
   36.0750   29.7830   37.9360 C   0  0  0  0  0  0  0  0  0  0  0  0
   37.0290   30.5850   37.4990 N   0  0  0  0  0  0  0  0  0  0  0  0
   38.0480   30.8840   38.3150 C   0  0  0  0  0  0  0  0  0  0  0  0
   38.0840   30.3680   39.5590 N   0  0  0  0  0  0  0  0  0  0  0  0
   35.2560   28.5660   39.5280 H   0  0  0  0  0  0  0  0  0  0  0  0
   35.2530   29.5460   37.2690 H   0  0  0  0  0  0  0  0  0  0  0  0
   38.0960   29.0790   43.5200 C   0  0  0  0  0  0  0  0  0  0  0  0
   37.3060   27.9830   43.8970 C   0  0  0  0  0  0  0  0  0  0  0  0
   36.4500   27.4210   42.9470 C   0  0  0  0  0  0  0  0  0  0  0  0
   36.4220   27.9580   41.7080 N   0  0  0  0  0  0  0  0  0  0  0  0
   37.1950   29.0100   41.3800 C   0  0  0  0  0  0  0  0  0  0  0  0
   38.0340   29.5820   42.2670 N   0  0  0  0  0  0  0  0  0  0  0  0
   38.7750   29.5540   44.2100 H   0  0  0  0  0  0  0  0  0  0  0  0
   37.3570   27.5900   44.8830 H   0  0  0  0  0  0  0  0  0  0  0  0
   35.8240   26.5860   43.1740 H   0  0  0  0  0  0  0  0  0  0  0  0
   39.1930   31.7620   37.9770 C   0  0  0  0  0  0  0  0  0  0  0  0
   38.8900   32.6940   37.4860 H   0  0  0  0  0  0  0  0  0  0  0  0
   39.8420   31.1700   37.2990 H   0  0  0  0  0  0  0  0  0  0  0  0
   40.0000   32.0340   39.2470 C   0  0  0  0  0  0  0  0  0  0  0  0
   39.7270   31.3050   40.0280 H   0  0  0  0  0  0  0  0  0  0  0  0
   41.0800   31.9620   39.0580 H   0  0  0  0  0  0  0  0  0  0  0  0
   39.6640   33.3760   39.7870 C   0  0  0  0  0  0  0  0  0  0  0  0
   38.6980   33.7440   40.6210 N   0  0  0  0  0  0  0  0  0  0  0  0
   38.7780   35.0240   40.8220 O   0  0  0  0  0  0  0  0  0  0  0  0
   39.7600   35.5410   40.1580 C   0  0  0  0  0  0  0  0  0  0  0  0
   40.3110   34.5110   39.5130 N   0  0  0  0  0  0  0  0  0  0  0  0
   40.0840   36.9630   40.1970 C   0  0  0  0  0  0  0  0  0  0  0  0
   41.1110   37.1680   40.4620 H   0  0  0  0  0  0  0  0  0  0  0  0
   39.1930   37.7830   39.9350 O   0  0  0  0  0  0  0  0  0  0  0  0
  1 13  1  0  0  0  0
  2  7  1  0  0  0  0
  2  1  2  0  0  0  0
  3  2  1  0  0  0  0
  4  3  2  0  0  0  0
  4  5  1  0  0  0  0
  5  6  2  0  0  0  0
  6  1  1  0  0  0  0
  8  3  1  0  0  0  0
  9 10  1  0  0  0  0
  9 15  1  0  0  0  0
 10 16  1  0  0  0  0
 11 17  1  0  0  0  0
 11 10  2  0  0  0  0
 12 11  1  0  0  0  0
 13 12  2  0  0  0  0
 13 14  1  0  0  0  0
 14  9  2  0  0  0  0
 18  5  1  0  0  0  0
 18 21  1  0  0  0  0
 19 18  1  0  0  0  0
 20 18  1  0  0  0  0
 21 24  1  0  0  0  0
 21 22  1  0  0  0  0
 23 21  1  0  0  0  0
 24 25  2  0  0  0  0
 25 26  1  0  0  0  0
 27 29  1  0  0  0  0
 27 26  1  0  0  0  0
 28 24  1  0  0  0  0
 28 27  2  0  0  0  0
 29 30  1  0  0  0  0
 31 29  2  0  0  0  0
M  END
>  <minimizedAffinity>
-5.28686571

>  <minimizedRMSD>
0.691330314

$$$$
