
     RDKit          3D

 49 53  0  0  1  0  0  0  0  0999 V2000
   60.6790   55.9920   24.7850 F   0  0  0  0  0  0  0  0  0  0  0  0
   60.4710   57.1940   25.3880 C   0  0  0  0  0  0  0  0  0  0  0  0
   61.3950   57.7430   26.2670 C   0  0  0  0  0  0  0  0  0  0  0  0
   61.0880   58.9670   26.8250 C   0  0  0  0  0  0  0  0  0  0  0  0
   59.9120   59.6210   26.5240 C   0  0  0  0  0  0  0  0  0  0  0  0
   59.0140   59.0540   25.6500 C   0  0  0  0  0  0  0  0  0  0  0  0
   59.2720   57.8120   25.0520 C   0  0  0  0  0  0  0  0  0  0  0  0
   58.3430   57.2250   24.1470 N   0  0  0  0  0  0  0  0  0  0  0  0
   57.9640   57.5370   22.9010 C   0  0  0  0  0  0  0  0  0  0  0  0
   57.0410   56.6690   22.4550 N   0  0  0  0  0  0  0  0  0  0  0  0
   56.8120   55.7750   23.4250 C   0  0  0  0  0  0  0  0  0  0  0  0
   55.9330   54.6920   23.4120 C   0  0  0  0  0  0  0  0  0  0  0  0
   55.9220   53.9670   24.5420 N   0  0  0  0  0  0  0  0  0  0  0  0
   56.7040   54.2780   25.5950 C   0  0  0  0  0  0  0  0  0  0  0  0
   57.5610   55.3420   25.5950 N   0  0  0  0  0  0  0  0  0  0  0  0
   57.6360   56.1360   24.4830 C   0  0  0  0  0  0  0  0  0  0  0  0
   62.5850   56.9440   26.4890 C   0  0  1  0  0  0  0  0  0  0  0  0
   62.7850   56.0230   25.6140 O   0  0  0  0  0  0  0  0  0  0  0  0
   64.9050   57.1850   27.4700 C   0  0  0  0  0  0  0  0  0  0  0  0
   63.5170   57.1200   27.5900 C   0  0  0  0  0  0  0  0  0  0  0  0
   62.9630   57.2340   28.8880 C   0  0  0  0  0  0  0  0  0  0  0  0
   63.8320   57.4000   29.9400 N   0  0  0  0  0  0  0  0  0  0  0  0
   65.1480   57.4540   29.7520 C   0  0  0  0  0  0  0  0  0  0  0  0
   65.6900   57.3490   28.5290 N   0  0  0  0  0  0  0  0  0  0  0  0
   65.6670   60.3270   30.6160 Cl  0  0  0  0  0  0  0  0  0  0  0  0
   66.3410   58.8860   31.3870 C   0  0  0  0  0  0  0  0  0  0  0  0
   66.0300   57.6320   30.9020 C   0  0  0  0  0  0  0  0  0  0  0  0
   66.5730   56.5100   31.5250 C   0  0  0  0  0  0  0  0  0  0  0  0
   67.4120   56.6230   32.6150 C   0  0  0  0  0  0  0  0  0  0  0  0
   67.6750   57.8940   33.0400 C   0  0  0  0  0  0  0  0  0  0  0  0
   67.1860   59.0510   32.4880 C   0  0  0  0  0  0  0  0  0  0  0  0
   65.4580   57.0720   26.1760 N   0  0  0  0  0  0  0  0  0  0  0  0
   61.7974   59.4315   27.5257 H   0  0  0  0  0  0  0  0  0  0  0  0
   59.6920   60.5962   26.9829 H   0  0  0  0  0  0  0  0  0  0  0  0
   58.0784   59.5832   25.4163 H   0  0  0  0  0  0  0  0  0  0  0  0
   58.3548   58.3871   22.3225 H   0  0  0  0  0  0  0  0  0  0  0  0
   54.9168   55.0770   23.2416 H   0  0  0  0  0  0  0  0  0  0  0  0
   56.2793   54.0193   22.6136 H   0  0  0  0  0  0  0  0  0  0  0  0
   56.6497   53.6470   26.4944 H   0  0  0  0  0  0  0  0  0  0  0  0
   58.1427   55.5438   26.4207 H   0  0  0  0  0  0  0  0  0  0  0  0
   61.9985   56.2393   27.0967 H   0  0  0  0  0  0  0  0  0  0  0  0
   62.9711   55.1661   26.0735 H   0  0  0  0  0  0  0  0  0  0  0  0
   61.8757   57.1912   29.0489 H   0  0  0  0  0  0  0  0  0  0  0  0
   66.3269   55.5099   31.1386 H   0  0  0  0  0  0  0  0  0  0  0  0
   67.8433   55.7416   33.1120 H   0  0  0  0  0  0  0  0  0  0  0  0
   68.3426   58.0002   33.9077 H   0  0  0  0  0  0  0  0  0  0  0  0
   67.4423   60.0439   32.8861 H   0  0  0  0  0  0  0  0  0  0  0  0
   66.4789   57.1152   26.0467 H   0  0  0  0  0  0  0  0  0  0  0  0
   64.8405   56.9463   25.3612 H   0  0  0  0  0  0  0  0  0  0  0  0
  1  2  1  0
  2  3  2  0
  3 17  1  0
  3  4  1  0
  5  4  2  0
  6  5  1  0
  7  2  1  0
  7  6  2  0
  8 16  1  0
  8  7  1  0
  9  8  1  0
 10  9  2  0
 10 11  1  0
 11 16  2  0
 12 11  1  0
 12 13  1  0
 13 14  2  0
 14 15  1  0
 16 15  1  0
 17 18  1  0
 17 20  1  0
 19 20  2  0
 19 24  1  0
 20 21  1  0
 21 22  2  0
 23 22  1  0
 23 27  1  0
 24 23  2  0
 25 26  1  0
 26 31  2  0
 27 26  1  0
 27 28  2  0
 28 29  1  0
 29 30  2  0
 31 30  1  0
 32 19  1  0
  4 33  1  0
  5 34  1  0
  6 35  1  0
  9 36  1  0
 12 37  1  0
 12 38  1  0
 14 39  1  0
 15 40  1  0
 17 41  1  1
 18 42  1  0
 21 43  1  0
 28 44  1  0
 29 45  1  0
 30 46  1  0
 31 47  1  0
 32 48  1  0
 32 49  1  0
M  END
>  <Score>  (1) 
-8.00817

>  <Score_dual>  (1) 
-7.12

>  <Choices>  (1) 
[None, 7, ['5-10', 240], 8, ['0-3', 0], 11, ['9-4', 180], 23, ['45-12', 120], 34, ['7-16', 120]]

$$$$
