
     RDKit          3D

 51 54  0  0  1  0  0  0  0  0999 V2000
   67.7770   55.8570   31.8440 Cl  0  0  0  0  0  0  0  0  0  0  0  0
   66.6950   56.9050   32.7220 C   0  0  0  0  0  0  0  0  0  0  0  0
   65.6470   57.4830   32.0520 C   0  0  0  0  0  0  0  0  0  0  0  0
   64.8160   58.3130   32.8140 C   0  0  0  0  0  0  0  0  0  0  0  0
   65.0160   58.5540   34.1570 C   0  0  0  0  0  0  0  0  0  0  0  0
   66.1040   57.9220   34.7400 C   0  0  0  0  0  0  0  0  0  0  0  0
   66.9730   57.0870   34.0620 C   0  0  0  0  0  0  0  0  0  0  0  0
   62.6120   56.6140   26.7810 C   0  0  0  0  0  0  0  0  0  0  0  0
   62.7100   56.8460   28.1480 C   0  0  0  0  0  0  0  0  0  0  0  0
   63.9710   57.1120   28.6950 C   0  0  0  0  0  0  0  0  0  0  0  0
   65.0090   57.1260   27.8620 N   0  0  0  0  0  0  0  0  0  0  0  0
   64.8980   56.8970   26.5290 C   0  0  0  0  0  0  0  0  0  0  0  0
   63.6950   56.6490   26.0450 N   0  0  0  0  0  0  0  0  0  0  0  0
   65.9890   56.9100   25.6410 N   0  0  0  0  0  0  0  0  0  0  0  0
   65.4080   57.2520   30.6390 C   0  0  0  0  0  0  0  0  0  0  0  0
   66.4140   56.9580   29.9220 O   0  0  0  0  0  0  0  0  0  0  0  0
   64.0900   57.3530   30.0920 N   0  0  0  0  0  0  0  0  0  0  0  0
   61.2480   56.3300   26.2100 C   0  0  0  0  0  0  0  0  0  0  0  0
   60.3990   57.3980   26.5030 F   0  0  0  0  0  0  0  0  0  0  0  0
   61.4170   56.0900   24.8590 F   0  0  0  0  0  0  0  0  0  0  0  0
   60.7690   55.2470   26.8670 F   0  0  0  0  0  0  0  0  0  0  0  0
   68.0330   56.5370   34.8520 C   0  0  0  0  0  0  0  0  0  0  0  0
   67.9890   55.6050   35.8460 C   0  0  0  0  0  0  0  0  0  0  0  0
   69.0630   55.1210   36.5640 C   0  0  0  0  0  0  0  0  0  0  0  0
   70.3080   55.5940   36.2860 C   0  0  0  0  0  0  0  0  0  0  0  0
   70.3490   56.5240   35.2940 C   0  0  0  0  0  0  0  0  0  0  0  0
   69.2940   56.9690   34.6190 N   0  0  0  0  0  0  0  0  0  0  0  0
   72.1880   56.5280   33.6250 C   0  0  2  0  0  0  0  0  0  0  0  0
   71.7010   57.1070   34.9180 C   0  0  2  0  0  0  0  0  0  0  0  0
   72.6360   56.8370   35.9010 O   0  0  0  0  0  0  0  0  0  0  0  0
   73.4850   55.8510   35.4870 C   0  0  0  0  0  0  0  0  0  0  0  0
   73.2060   55.5240   34.0580 C   0  0  2  0  0  0  0  0  0  0  0  0
   72.8730   57.5270   32.9330 O   0  0  0  0  0  0  0  0  0  0  0  0
   74.3800   55.5800   33.2950 O   0  0  0  0  0  0  0  0  0  0  0  0
   63.9619   58.7965   32.3172 H   0  0  0  0  0  0  0  0  0  0  0  0
   64.3491   59.2114   34.7341 H   0  0  0  0  0  0  0  0  0  0  0  0
   66.2875   58.0961   35.8105 H   0  0  0  0  0  0  0  0  0  0  0  0
   61.8150   56.8211   28.7870 H   0  0  0  0  0  0  0  0  0  0  0  0
   65.8391   56.7283   24.6383 H   0  0  0  0  0  0  0  0  0  0  0  0
   66.9377   57.1012   25.9935 H   0  0  0  0  0  0  0  0  0  0  0  0
   63.2743   57.5867   30.6759 H   0  0  0  0  0  0  0  0  0  0  0  0
   66.9991   55.1987   36.1008 H   0  0  0  0  0  0  0  0  0  0  0  0
   68.9151   54.3646   37.3489 H   0  0  0  0  0  0  0  0  0  0  0  0
   71.2074   55.2526   36.8194 H   0  0  0  0  0  0  0  0  0  0  0  0
   71.3813   56.1181   32.9996 H   0  0  0  0  0  0  0  0  0  0  0  0
   71.5756   58.1946   34.8110 H   0  0  0  0  0  0  0  0  0  0  0  0
   74.5247   56.1956   35.5883 H   0  0  0  0  0  0  0  0  0  0  0  0
   73.3350   54.9536   36.1052 H   0  0  0  0  0  0  0  0  0  0  0  0
   72.8283   54.4998   33.9224 H   0  0  0  0  0  0  0  0  0  0  0  0
   73.2969   58.1452   33.5798 H   0  0  0  0  0  0  0  0  0  0  0  0
   75.1641   55.6174   33.8982 H   0  0  0  0  0  0  0  0  0  0  0  0
  1  2  1  0
  2  7  2  0
  3  2  1  0
  3  4  2  0
  4  5  1  0
  5  6  2  0
  7  6  1  0
  7 22  1  0
  8  9  2  0
  9 10  1  0
 10 17  1  0
 11 10  2  0
 12 11  1  0
 13 12  2  0
 13  8  1  0
 14 12  1  0
 15  3  1  0
 16 15  2  0
 17 15  1  0
 18 19  1  0
 18  8  1  0
 18 21  1  0
 20 18  1  0
 22 23  2  0
 23 24  1  0
 25 24  2  0
 26 25  1  0
 27 22  1  0
 27 26  2  0
 28 33  1  0
 28 32  1  0
 28 29  1  0
 29 26  1  0
 29 30  1  0
 31 30  1  0
 32 34  1  0
 32 31  1  0
  4 35  1  0
  5 36  1  0
  6 37  1  0
  9 38  1  0
 14 39  1  0
 14 40  1  0
 17 41  1  0
 23 42  1  0
 24 43  1  0
 25 44  1  0
 28 45  1  6
 29 46  1  6
 31 47  1  0
 31 48  1  0
 32 49  1  1
 33 50  1  0
 34 51  1  0
M  END
>  <Score>  (1) 
-7.57942

>  <Score_dual>  (1) 
-8.2

>  <Choices>  (1) 
[None, 6, ['11-12', 45], 12, ['0-2', 0], 12, ['12-6', 75], 17, ['7-3', 330], 28, ['6-14', 240], 37, ['14-13', 0]]

$$$$
