
     RDKit          3D

 53 57  0  0  1  0  0  0  0  0999 V2000
   66.0070   57.5520   30.7370 C   0  0  0  0  0  0  0  0  0  0  0  0
   66.3640   58.7320   31.3710 C   0  0  0  0  0  0  0  0  0  0  0  0
   67.1980   58.3310   32.3750 C   0  0  0  0  0  0  0  0  0  0  0  0
   67.3570   56.9900   32.3760 N   0  0  0  0  0  0  0  0  0  0  0  0
   66.6280   56.5220   31.3730 N   0  0  0  0  0  0  0  0  0  0  0  0
   68.1770   56.3350   33.3240 C   0  0  0  0  0  0  0  0  0  0  0  0
   67.6510   55.6720   34.4020 C   0  0  0  0  0  0  0  0  0  0  0  0
   68.3820   55.0150   35.3620 C   0  0  0  0  0  0  0  0  0  0  0  0
   69.7500   55.0060   35.2540 C   0  0  0  0  0  0  0  0  0  0  0  0
   70.3030   55.6650   34.1780 C   0  0  0  0  0  0  0  0  0  0  0  0
   69.5120   56.2900   33.2760 N   0  0  0  0  0  0  0  0  0  0  0  0
   72.2260   56.9670   33.3970 C   0  0  2  0  0  0  0  0  0  0  0  0
   71.8020   55.6810   34.0240 C   0  0  1  0  0  0  0  0  0  0  0  0
   72.4310   55.3500   35.1950 O   0  0  0  0  0  0  0  0  0  0  0  0
   73.5340   56.1080   35.4960 C   0  0  0  0  0  0  0  0  0  0  0  0
   73.2400   57.5770   35.6130 C   0  0  1  0  0  0  0  0  0  0  0  0
   72.4320   58.0330   34.4420 C   0  0  1  0  0  0  0  0  0  0  0  0
   71.1600   57.3920   32.5860 O   0  0  0  0  0  0  0  0  0  0  0  0
   72.6550   57.9280   36.8370 O   0  0  0  0  0  0  0  0  0  0  0  0
   73.1310   59.0820   33.8030 O   0  0  0  0  0  0  0  0  0  0  0  0
   64.4750   57.1120   27.3690 C   0  0  0  0  0  0  0  0  0  0  0  0
   63.1140   57.2450   27.7340 C   0  0  0  0  0  0  0  0  0  0  0  0
   62.8150   57.4710   29.0730 C   0  0  0  0  0  0  0  0  0  0  0  0
   63.8220   57.5570   29.9860 N   0  0  0  0  0  0  0  0  0  0  0  0
   65.1230   57.4220   29.5880 C   0  0  0  0  0  0  0  0  0  0  0  0
   65.4280   57.2070   28.3160 N   0  0  0  0  0  0  0  0  0  0  0  0
   62.0830   57.1410   26.6910 C   0  0  0  0  0  0  0  0  0  0  0  0
   61.6600   58.1640   25.8650 C   0  0  0  0  0  0  0  0  0  0  0  0
   60.6900   57.9070   24.9430 C   0  0  0  0  0  0  0  0  0  0  0  0
   60.1170   56.6860   24.7990 C   0  0  0  0  0  0  0  0  0  0  0  0
   60.5010   55.6320   25.5960 C   0  0  0  0  0  0  0  0  0  0  0  0
   61.4820   55.9000   26.5260 C   0  0  0  0  0  0  0  0  0  0  0  0
   66.0480   59.7559   31.1224 H   0  0  0  0  0  0  0  0  0  0  0  0
   67.6789   59.0132   33.0915 H   0  0  0  0  0  0  0  0  0  0  0  0
   66.5560   55.6654   34.5070 H   0  0  0  0  0  0  0  0  0  0  0  0
   67.8813   54.5070   36.1994 H   0  0  0  0  0  0  0  0  0  0  0  0
   70.3794   54.4934   35.9964 H   0  0  0  0  0  0  0  0  0  0  0  0
   73.1633   56.8139   32.8420 H   0  0  0  0  0  0  0  0  0  0  0  0
   72.1272   54.8924   33.3295 H   0  0  0  0  0  0  0  0  0  0  0  0
   73.9455   55.7582   36.4543 H   0  0  0  0  0  0  0  0  0  0  0  0
   74.2456   55.9863   34.6661 H   0  0  0  0  0  0  0  0  0  0  0  0
   74.2025   58.1094   35.5981 H   0  0  0  0  0  0  0  0  0  0  0  0
   71.4491   58.3287   34.8377 H   0  0  0  0  0  0  0  0  0  0  0  0
   70.4093   57.6913   33.1578 H   0  0  0  0  0  0  0  0  0  0  0  0
   73.2163   57.5912   37.5797 H   0  0  0  0  0  0  0  0  0  0  0  0
   73.5282   59.6781   34.4863 H   0  0  0  0  0  0  0  0  0  0  0  0
   64.7523   56.9324   26.3198 H   0  0  0  0  0  0  0  0  0  0  0  0
   61.7685   57.5800   29.3939 H   0  0  0  0  0  0  0  0  0  0  0  0
   62.0987   59.1692   25.9500 H   0  0  0  0  0  0  0  0  0  0  0  0
   60.3573   58.7251   24.2872 H   0  0  0  0  0  0  0  0  0  0  0  0
   59.3374   56.5369   24.0374 H   0  0  0  0  0  0  0  0  0  0  0  0
   60.0509   54.6332   25.4965 H   0  0  0  0  0  0  0  0  0  0  0  0
   61.8100   55.0782   27.1795 H   0  0  0  0  0  0  0  0  0  0  0  0
  1  2  1  0
  1  5  2  0
  2  3  2  0
  3  4  1  0
  4  6  1  0
  5  4  1  0
  6  7  2  0
  7  8  1  0
  9  8  2  0
 10  9  1  0
 11  6  1  0
 11 10  2  0
 12 18  1  0
 12 13  1  0
 12 17  1  0
 13 10  1  0
 13 14  1  0
 14 15  1  0
 15 16  1  0
 16 19  1  0
 17 20  1  0
 17 16  1  0
 21 22  2  0
 21 26  1  0
 22 23  1  0
 23 24  2  0
 25 24  1  0
 25  1  1  0
 26 25  2  0
 27 22  1  0
 28 27  2  0
 29 28  1  0
 30 29  2  0
 30 31  1  0
 31 32  2  0
 32 27  1  0
  2 33  1  0
  3 34  1  0
  7 35  1  0
  8 36  1  0
  9 37  1  0
 12 38  1  6
 13 39  1  6
 15 40  1  0
 15 41  1  0
 16 42  1  6
 17 43  1  1
 18 44  1  0
 19 45  1  0
 20 46  1  0
 21 47  1  0
 23 48  1  0
 28 49  1  0
 29 50  1  0
 30 51  1  0
 31 52  1  0
 32 53  1  0
M  END
>  <Score>  (1) 
-7.48464

>  <Score_dual>  (1) 
-7.17

>  <Choices>  (1) 
[None, 7, ['1-28', 0], 14, ['22-9', 195], 26, ['6-5', 135], 35, ['21-21', 285]]

$$$$
