
     RDKit          3D

 48 52  0  0  0  0  0  0  0  0999 V2000
   66.4350   57.4970   31.0060 C   0  0  0  0  0  0  0  0  0  0  0  0
   67.0880   58.6330   31.4220 C   0  0  0  0  0  0  0  0  0  0  0  0
   67.8680   58.2200   32.4660 C   0  0  0  0  0  0  0  0  0  0  0  0
   67.7120   56.8990   32.6900 N   0  0  0  0  0  0  0  0  0  0  0  0
   66.8330   56.4670   31.7900 N   0  0  0  0  0  0  0  0  0  0  0  0
   68.4120   56.2150   33.7230 C   0  0  0  0  0  0  0  0  0  0  0  0
   67.7750   55.3570   34.5810 C   0  0  0  0  0  0  0  0  0  0  0  0
   68.4160   54.6800   35.5860 C   0  0  0  0  0  0  0  0  0  0  0  0
   69.7740   54.8520   35.7700 C   0  0  0  0  0  0  0  0  0  0  0  0
   70.4140   55.7140   34.9090 C   0  0  0  0  0  0  0  0  0  0  0  0
   69.7210   56.3360   33.9540 N   0  0  0  0  0  0  0  0  0  0  0  0
   72.7050   55.5730   34.0070 C   0  0  0  0  0  0  0  0  0  0  0  0
   71.8460   55.9550   35.0300 C   0  0  0  0  0  0  0  0  0  0  0  0
   72.4640   56.5410   36.0890 C   0  0  0  0  0  0  0  0  0  0  0  0
   73.8170   56.7620   36.1870 C   0  0  0  0  0  0  0  0  0  0  0  0
   74.6360   56.3680   35.1500 C   0  0  0  0  0  0  0  0  0  0  0  0
   74.0700   55.7660   34.0460 C   0  0  0  0  0  0  0  0  0  0  0  0
   72.1450   54.9590   32.8740 O   0  0  0  0  0  0  0  0  0  0  0  0
   74.8930   55.3610   32.9830 O   0  0  0  0  0  0  0  0  0  0  0  0
   64.6630   57.0920   27.7490 C   0  0  0  0  0  0  0  0  0  0  0  0
   63.3360   57.3070   28.1940 C   0  0  0  0  0  0  0  0  0  0  0  0
   63.1410   57.5690   29.5440 C   0  0  0  0  0  0  0  0  0  0  0  0
   64.2140   57.6110   30.3810 N   0  0  0  0  0  0  0  0  0  0  0  0
   65.4790   57.3980   29.9140 C   0  0  0  0  0  0  0  0  0  0  0  0
   65.6800   57.1480   28.6360 N   0  0  0  0  0  0  0  0  0  0  0  0
   62.2380   57.2440   27.2230 C   0  0  0  0  0  0  0  0  0  0  0  0
   61.5490   58.3140   26.7080 C   0  0  0  0  0  0  0  0  0  0  0  0
   60.5490   58.1030   25.8100 C   0  0  0  0  0  0  0  0  0  0  0  0
   60.1950   56.8610   25.3920 C   0  0  0  0  0  0  0  0  0  0  0  0
   60.8460   55.7450   25.8700 C   0  0  0  0  0  0  0  0  0  0  0  0
   61.8580   55.9820   26.7810 C   0  0  0  0  0  0  0  0  0  0  0  0
   67.0020   59.6482   31.0072 H   0  0  0  0  0  0  0  0  0  0  0  0
   68.5335   58.8767   33.0455 H   0  0  0  0  0  0  0  0  0  0  0  0
   66.6929   55.2035   34.4568 H   0  0  0  0  0  0  0  0  0  0  0  0
   67.8511   54.0025   36.2432 H   0  0  0  0  0  0  0  0  0  0  0  0
   70.3184   54.3248   36.5673 H   0  0  0  0  0  0  0  0  0  0  0  0
   71.8339   56.8627   36.9313 H   0  0  0  0  0  0  0  0  0  0  0  0
   74.2403   57.2460   37.0795 H   0  0  0  0  0  0  0  0  0  0  0  0
   75.7226   56.5312   35.2025 H   0  0  0  0  0  0  0  0  0  0  0  0
   71.1675   54.8102   32.8239 H   0  0  0  0  0  0  0  0  0  0  0  0
   75.8708   55.5084   33.0301 H   0  0  0  0  0  0  0  0  0  0  0  0
   64.8641   56.8809   26.6884 H   0  0  0  0  0  0  0  0  0  0  0  0
   62.1270   57.7413   29.9341 H   0  0  0  0  0  0  0  0  0  0  0  0
   61.8044   59.3374   27.0201 H   0  0  0  0  0  0  0  0  0  0  0  0
   60.0070   58.9715   25.4076 H   0  0  0  0  0  0  0  0  0  0  0  0
   59.3792   56.7444   24.6634 H   0  0  0  0  0  0  0  0  0  0  0  0
   60.5771   54.7285   25.5468 H   0  0  0  0  0  0  0  0  0  0  0  0
   62.3994   55.1132   27.1835 H   0  0  0  0  0  0  0  0  0  0  0  0
  1  2  1  0
  1  5  2  0
  2  3  2  0
  3  4  1  0
  4  6  1  0
  5  4  1  0
  6 11  1  0
  6  7  2  0
  7  8  1  0
  8  9  2  0
 10 13  1  0
 10  9  1  0
 11 10  2  0
 12 17  2  0
 12 13  1  0
 13 14  2  0
 14 15  1  0
 16 15  2  0
 17 16  1  0
 18 12  1  0
 19 17  1  0
 20 21  2  0
 20 25  1  0
 21 22  1  0
 22 23  2  0
 24 23  1  0
 24  1  1  0
 25 24  2  0
 26 21  1  0
 27 26  2  0
 28 27  1  0
 29 28  2  0
 29 30  1  0
 30 31  2  0
 31 26  1  0
  2 32  1  0
  3 33  1  0
  7 34  1  0
  8 35  1  0
  9 36  1  0
 14 37  1  0
 15 38  1  0
 16 39  1  0
 18 40  1  0
 19 41  1  0
 20 42  1  0
 22 43  1  0
 27 44  1  0
 28 45  1  0
 29 46  1  0
 30 47  1  0
 31 48  1  0
M  END
>  <Score>  (1) 
-7.7352

>  <Score_dual>  (1) 
-7.67

>  <Choices>  (1) 
[None, 7, ['1-28', 0], 14, ['22-9', 195], 26, ['6-5', 135], 35, ['35-23', 255]]

$$$$
