
     RDKit          3D

 53 57  0  0  1  0  0  0  0  0999 V2000
   60.8200   58.0060   25.3570 C   0  0  2  0  0  0  0  0  0  0  0  0
   61.2600   59.4300   25.3700 C   0  0  0  0  0  0  0  0  0  0  0  0
   60.5660   60.1380   24.2070 C   0  0  0  0  0  0  0  0  0  0  0  0
   59.0550   60.0890   24.3630 C   0  0  0  0  0  0  0  0  0  0  0  0
   58.7130   59.2070   25.5340 C   0  0  0  0  0  0  0  0  0  0  0  0
   59.3000   57.8570   25.3050 C   0  0  1  0  0  0  0  0  0  0  0  0
   61.4320   57.2050   26.4500 C   0  0  0  0  0  0  0  0  0  0  0  0
   62.0100   57.9600   27.4950 C   0  0  0  0  0  0  0  0  0  0  0  0
   62.5830   57.2650   28.5210 C   0  0  0  0  0  0  0  0  0  0  0  0
   62.5720   55.8950   28.4890 N   0  0  0  0  0  0  0  0  0  0  0  0
   62.0100   55.2040   27.4740 C   0  0  0  0  0  0  0  0  0  0  0  0
   61.4530   55.8680   26.4760 N   0  0  0  0  0  0  0  0  0  0  0  0
   63.2030   57.9700   29.6200 N   0  0  0  0  0  0  0  0  0  0  0  0
   58.8530   57.3900   24.0020 N   0  0  0  0  0  0  0  0  0  0  0  0
   58.5180   56.0630   23.6970 C   0  0  0  0  0  0  0  0  0  0  0  0
   57.9370   55.0800   24.4570 C   0  0  0  0  0  0  0  0  0  0  0  0
   57.8400   54.0010   23.6920 N   0  0  0  0  0  0  0  0  0  0  0  0
   58.3220   54.2230   22.4760 C   0  0  0  0  0  0  0  0  0  0  0  0
   58.7320   55.5100   22.5200 N   0  0  0  0  0  0  0  0  0  0  0  0
   58.4300   53.5160   21.2310 C   0  0  0  0  0  0  0  0  0  0  0  0
   59.4020   52.5240   21.0710 C   0  0  0  0  0  0  0  0  0  0  0  0
   59.6130   51.7920   19.9410 C   0  0  0  0  0  0  0  0  0  0  0  0
   58.8310   52.0100   18.8370 C   0  0  0  0  0  0  0  0  0  0  0  0
   57.8490   52.9690   18.8950 C   0  0  0  0  0  0  0  0  0  0  0  0
   57.0810   53.2140   17.7800 C   0  0  0  0  0  0  0  0  0  0  0  0
   56.1070   54.1900   17.7820 C   0  0  0  0  0  0  0  0  0  0  0  0
   55.9450   54.9100   18.9720 C   0  0  0  0  0  0  0  0  0  0  0  0
   56.7410   54.6190   20.0510 C   0  0  0  0  0  0  0  0  0  0  0  0
   57.7090   53.6560   20.0740 C   0  0  0  0  0  0  0  0  0  0  0  0
   61.2016   57.5829   24.4161 H   0  0  0  0  0  0  0  0  0  0  0  0
   60.9740   59.9024   26.3213 H   0  0  0  0  0  0  0  0  0  0  0  0
   62.3531   59.4978   25.2670 H   0  0  0  0  0  0  0  0  0  0  0  0
   60.8467   59.6431   23.2656 H   0  0  0  0  0  0  0  0  0  0  0  0
   60.8834   61.1912   24.1983 H   0  0  0  0  0  0  0  0  0  0  0  0
   58.6692   61.1038   24.5402 H   0  0  0  0  0  0  0  0  0  0  0  0
   58.5991   59.6850   23.4470 H   0  0  0  0  0  0  0  0  0  0  0  0
   59.1283   59.6393   26.4563 H   0  0  0  0  0  0  0  0  0  0  0  0
   57.6206   59.1275   25.6359 H   0  0  0  0  0  0  0  0  0  0  0  0
   58.9856   57.1254   26.0639 H   0  0  0  0  0  0  0  0  0  0  0  0
   61.9988   59.0599   27.4825 H   0  0  0  0  0  0  0  0  0  0  0  0
   62.0157   54.1040   27.4777 H   0  0  0  0  0  0  0  0  0  0  0  0
   63.6343   57.4425   30.3924 H   0  0  0  0  0  0  0  0  0  0  0  0
   63.2135   58.9999   29.6308 H   0  0  0  0  0  0  0  0  0  0  0  0
   58.7768   58.0862   23.2468 H   0  0  0  0  0  0  0  0  0  0  0  0
   57.6125   55.1698   25.5042 H   0  0  0  0  0  0  0  0  0  0  0  0
   57.4408   53.1038   24.0027 H   0  0  0  0  0  0  0  0  0  0  0  0
   60.0535   52.3161   21.9326 H   0  0  0  0  0  0  0  0  0  0  0  0
   60.4064   51.0306   19.9153 H   0  0  0  0  0  0  0  0  0  0  0  0
   58.9872   51.4259   17.9181 H   0  0  0  0  0  0  0  0  0  0  0  0
   57.2472   52.6198   16.8694 H   0  0  0  0  0  0  0  0  0  0  0  0
   55.4892   54.3925   16.8947 H   0  0  0  0  0  0  0  0  0  0  0  0
   55.1855   55.7027   19.0412 H   0  0  0  0  0  0  0  0  0  0  0  0
   56.5876   55.2066   20.9681 H   0  0  0  0  0  0  0  0  0  0  0  0
  1  2  1  0
  1  7  1  0
  3  4  1  0
  3  2  1  0
  4  5  1  0
  6  1  1  0
  6  5  1  0
  7 12  1  0
  7  8  2  0
  8  9  1  0
  9 13  1  0
 10  9  2  0
 11 10  1  0
 12 11  2  0
 14  6  1  0
 15 14  1  0
 15 16  2  0
 17 16  1  0
 18 19  2  0
 18 17  1  0
 19 15  1  0
 20 18  1  0
 21 20  2  0
 22 21  1  0
 23 24  1  0
 23 22  2  0
 24 29  2  0
 25 26  2  0
 25 24  1  0
 26 27  1  0
 27 28  2  0
 28 29  1  0
 29 20  1  0
  1 30  1  6
  2 31  1  0
  2 32  1  0
  3 33  1  0
  3 34  1  0
  4 35  1  0
  4 36  1  0
  5 37  1  0
  5 38  1  0
  6 39  1  1
  8 40  1  0
 11 41  1  0
 13 42  1  0
 13 43  1  0
 14 44  1  0
 16 45  1  0
 17 46  1  0
 21 47  1  0
 22 48  1  0
 23 49  1  0
 25 50  1  0
 26 51  1  0
 27 52  1  0
 28 53  1  0
M  END
>  <Score>  (1) 
-7.12595

>  <Score_dual>  (1) 
-7.12

>  <Choices>  (1) 
[None, 8, ['0-3', 0], 7, ['18-25', 45], 27, ['0-4', 0], 29, ['23-13', 345], 36, ['26-24', 135]]

$$$$
