
     RDKit          3D

 49 52  0  0  0  0  0  0  0  0999 V2000
   62.0570   56.0780   26.5630 C   0  0  0  0  0  0  0  0  0  0  0  0
   62.3020   56.3330   27.8970 C   0  0  0  0  0  0  0  0  0  0  0  0
   63.5660   56.7590   28.3290 C   0  0  0  0  0  0  0  0  0  0  0  0
   64.5260   56.9020   27.3550 N   0  0  0  0  0  0  0  0  0  0  0  0
   64.2680   56.6520   26.0830 C   0  0  0  0  0  0  0  0  0  0  0  0
   63.0800   56.2580   25.7110 N   0  0  0  0  0  0  0  0  0  0  0  0
   65.3630   56.8460   25.1960 N   0  0  0  0  0  0  0  0  0  0  0  0
   65.2040   57.1930   30.2160 C   0  0  0  0  0  0  0  0  0  0  0  0
   66.1990   57.0710   29.4900 O   0  0  0  0  0  0  0  0  0  0  0  0
   63.9320   57.0480   29.6440 N   0  0  0  0  0  0  0  0  0  0  0  0
   64.4470   58.1310   32.3380 C   0  0  0  0  0  0  0  0  0  0  0  0
   65.4420   57.4800   31.6240 C   0  0  0  0  0  0  0  0  0  0  0  0
   66.5740   57.1670   32.3460 C   0  0  0  0  0  0  0  0  0  0  0  0
   66.7340   57.4640   33.6660 C   0  0  0  0  0  0  0  0  0  0  0  0
   67.7780   57.2260   34.5050 N   0  0  0  0  0  0  0  0  0  0  0  0
   67.4130   57.7300   35.7120 C   0  0  0  0  0  0  0  0  0  0  0  0
   66.1700   58.2700   35.6260 N   0  0  0  0  0  0  0  0  0  0  0  0
   65.7530   58.1070   34.3670 C   0  0  0  0  0  0  0  0  0  0  0  0
   64.6050   58.4390   33.6920 C   0  0  0  0  0  0  0  0  0  0  0  0
   60.6990   55.6430   26.2430 C   0  0  0  0  0  0  0  0  0  0  0  0
   59.7080   56.6840   26.5050 C   0  0  0  0  0  0  0  0  0  0  0  0
   58.9090   56.9210   23.8080 F   0  0  0  0  0  0  0  0  0  0  0  0
   59.4860   58.0110   24.4160 C   0  0  0  0  0  0  0  0  0  0  0  0
   59.9000   57.9720   25.7240 C   0  0  0  0  0  0  0  0  0  0  0  0
   60.4650   59.0350   26.3270 C   0  0  0  0  0  0  0  0  0  0  0  0
   60.6410   60.1810   25.6480 C   0  0  0  0  0  0  0  0  0  0  0  0
   60.2350   60.2610   24.3210 C   0  0  0  0  0  0  0  0  0  0  0  0
   59.6580   59.1580   23.7270 C   0  0  0  0  0  0  0  0  0  0  0  0
   57.9020   59.8000   22.3020 C   0  0  0  0  0  0  0  0  0  0  0  0
   57.3800   60.1070   23.4490 O   0  0  0  0  0  0  0  0  0  0  0  0
   59.2250   59.2000   22.3580 N   0  0  0  0  0  0  0  0  0  0  0  0
   61.4942   56.2002   28.6317 H   0  0  0  0  0  0  0  0  0  0  0  0
   65.2457   56.6730   24.1874 H   0  0  0  0  0  0  0  0  0  0  0  0
   66.2732   57.1595   25.5623 H   0  0  0  0  0  0  0  0  0  0  0  0
   63.1451   57.1746   30.2964 H   0  0  0  0  0  0  0  0  0  0  0  0
   63.5136   58.4109   31.8277 H   0  0  0  0  0  0  0  0  0  0  0  0
   67.3938   56.6485   31.8273 H   0  0  0  0  0  0  0  0  0  0  0  0
   68.6656   56.7582   34.2720 H   0  0  0  0  0  0  0  0  0  0  0  0
   68.0308   57.7047   36.6218 H   0  0  0  0  0  0  0  0  0  0  0  0
   63.7948   58.9568   34.2263 H   0  0  0  0  0  0  0  0  0  0  0  0
   60.4564   54.7615   26.8546 H   0  0  0  0  0  0  0  0  0  0  0  0
   60.6648   55.4080   25.1689 H   0  0  0  0  0  0  0  0  0  0  0  0
   58.7159   56.2797   26.2555 H   0  0  0  0  0  0  0  0  0  0  0  0
   59.8200   56.9514   27.5661 H   0  0  0  0  0  0  0  0  0  0  0  0
   60.7832   58.9651   27.3777 H   0  0  0  0  0  0  0  0  0  0  0  0
   61.1033   61.0501   26.1389 H   0  0  0  0  0  0  0  0  0  0  0  0
   60.3722   61.1922   23.7518 H   0  0  0  0  0  0  0  0  0  0  0  0
   57.3791   59.9813   21.3514 H   0  0  0  0  0  0  0  0  0  0  0  0
   59.7638   58.8605   21.5484 H   0  0  0  0  0  0  0  0  0  0  0  0
  1  2  2  0
  2  3  1  0
  3 10  1  0
  4  3  2  0
  5  4  1  0
  6  5  2  0
  6  1  1  0
  7  5  1  0
  8 12  1  0
  9  8  2  0
 10  8  1  0
 11 19  2  0
 12 11  1  0
 12 13  2  0
 13 14  1  0
 14 18  2  0
 14 15  1  0
 15 16  1  0
 17 16  2  0
 18 17  1  0
 19 18  1  0
 20 21  1  0
 20  1  1  0
 22 23  1  0
 23 24  2  0
 24 25  1  0
 24 21  1  0
 26 25  2  0
 27 26  1  0
 28 27  2  0
 28 23  1  0
 29 31  1  0
 29 30  2  0
 31 28  1  0
  2 32  1  0
  7 33  1  0
  7 34  1  0
 10 35  1  0
 11 36  1  0
 13 37  1  0
 15 38  1  0
 16 39  1  0
 19 40  1  0
 20 41  1  0
 20 42  1  0
 21 43  1  0
 21 44  1  0
 25 45  1  0
 26 46  1  0
 27 47  1  0
 29 48  1  0
 31 49  1  0
M  END
>  <Score>  (1) 
-7.22549

>  <Score_dual>  (1) 
-7.25

>  <Choices>  (1) 
[None, 6, ['4-11', 165], 15, ['9-14', 300], 25, ['12-4', 15], 29, ['0-2', 0], 29, ['12-4', 165], 34, ['34-8', 210]]

$$$$
