
     RDKit          3D

 52 56  0  0  1  0  0  0  0  0999 V2000
   60.2250   55.8270   24.6800 F   0  0  0  0  0  0  0  0  0  0  0  0
   60.0560   57.0940   25.1710 C   0  0  0  0  0  0  0  0  0  0  0  0
   61.0280   57.6910   25.9520 C   0  0  0  0  0  0  0  0  0  0  0  0
   60.7690   58.9740   26.4040 C   0  0  0  0  0  0  0  0  0  0  0  0
   59.5960   59.6190   26.0870 C   0  0  0  0  0  0  0  0  0  0  0  0
   58.6490   58.9960   25.3070 C   0  0  0  0  0  0  0  0  0  0  0  0
   58.8620   57.7010   24.8250 C   0  0  0  0  0  0  0  0  0  0  0  0
   57.8890   57.0530   24.0200 N   0  0  0  0  0  0  0  0  0  0  0  0
   57.3940   57.3360   22.7940 C   0  0  0  0  0  0  0  0  0  0  0  0
   56.4740   56.4190   22.4400 N   0  0  0  0  0  0  0  0  0  0  0  0
   56.3710   55.5290   23.4460 C   0  0  0  0  0  0  0  0  0  0  0  0
   55.5450   54.4090   23.5210 C   0  0  0  0  0  0  0  0  0  0  0  0
   55.6610   53.7030   24.6580 N   0  0  0  0  0  0  0  0  0  0  0  0
   56.5170   54.0710   25.6350 C   0  0  0  0  0  0  0  0  0  0  0  0
   57.3160   55.1630   25.5530 N   0  0  0  0  0  0  0  0  0  0  0  0
   57.2620   55.9370   24.4310 C   0  0  0  0  0  0  0  0  0  0  0  0
   62.2160   56.8930   26.2080 C   0  0  1  0  0  0  0  0  0  0  0  0
   62.3510   55.8760   25.4290 O   0  0  0  0  0  0  0  0  0  0  0  0
   64.5750   57.2400   27.0390 C   0  0  0  0  0  0  0  0  0  0  0  0
   63.2130   57.1620   27.2420 C   0  0  0  0  0  0  0  0  0  0  0  0
   62.7100   57.3600   28.5600 C   0  0  0  0  0  0  0  0  0  0  0  0
   63.6390   57.6170   29.5480 N   0  0  0  0  0  0  0  0  0  0  0  0
   64.9230   57.6760   29.2870 C   0  0  0  0  0  0  0  0  0  0  0  0
   65.4220   57.4900   28.0330 N   0  0  0  0  0  0  0  0  0  0  0  0
   65.8160   57.9630   30.4650 C   0  0  0  0  0  0  0  0  0  0  0  0
   66.6530   56.7740   30.8190 C   0  0  0  0  0  0  0  0  0  0  0  0
   66.6750   56.6700   32.3240 C   0  0  0  0  0  0  0  0  0  0  0  0
   65.7680   57.7320   32.8700 C   0  0  0  0  0  0  0  0  0  0  0  0
   65.0190   58.3030   31.6870 C   0  0  0  0  0  0  0  0  0  0  0  0
   65.0640   57.0450   25.7440 N   0  0  0  0  0  0  0  0  0  0  0  0
   61.5153   59.4871   27.0283 H   0  0  0  0  0  0  0  0  0  0  0  0
   59.4142   60.6381   26.4590 H   0  0  0  0  0  0  0  0  0  0  0  0
   57.7150   59.5221   25.0602 H   0  0  0  0  0  0  0  0  0  0  0  0
   57.6991   58.1924   22.1748 H   0  0  0  0  0  0  0  0  0  0  0  0
   54.5016   54.7457   23.4313 H   0  0  0  0  0  0  0  0  0  0  0  0
   55.8541   53.7388   22.7053 H   0  0  0  0  0  0  0  0  0  0  0  0
   56.5687   53.4533   26.5437 H   0  0  0  0  0  0  0  0  0  0  0  0
   57.9534   55.4044   26.3252 H   0  0  0  0  0  0  0  0  0  0  0  0
   61.6473   56.2740   26.9175 H   0  0  0  0  0  0  0  0  0  0  0  0
   62.4599   55.0559   25.9728 H   0  0  0  0  0  0  0  0  0  0  0  0
   61.6333   57.3105   28.7797 H   0  0  0  0  0  0  0  0  0  0  0  0
   66.4486   58.8107   30.1631 H   0  0  0  0  0  0  0  0  0  0  0  0
   66.2146   55.8630   30.3855 H   0  0  0  0  0  0  0  0  0  0  0  0
   67.6730   56.8849   30.4223 H   0  0  0  0  0  0  0  0  0  0  0  0
   66.3188   55.6771   32.6358 H   0  0  0  0  0  0  0  0  0  0  0  0
   67.6984   56.8062   32.7037 H   0  0  0  0  0  0  0  0  0  0  0  0
   65.0625   57.2954   33.5923 H   0  0  0  0  0  0  0  0  0  0  0  0
   66.3383   58.5122   33.3953 H   0  0  0  0  0  0  0  0  0  0  0  0
   64.9274   59.3945   31.7878 H   0  0  0  0  0  0  0  0  0  0  0  0
   64.0031   57.8858   31.6243 H   0  0  0  0  0  0  0  0  0  0  0  0
   66.0765   57.0974   25.5625 H   0  0  0  0  0  0  0  0  0  0  0  0
   64.4118   56.8489   24.9713 H   0  0  0  0  0  0  0  0  0  0  0  0
  1  2  1  0
  2  3  2  0
  3 17  1  0
  3  4  1  0
  5  4  2  0
  6  5  1  0
  7  2  1  0
  7  6  2  0
  8 16  1  0
  8  7  1  0
  9  8  1  0
 10  9  2  0
 10 11  1  0
 11 12  1  0
 11 16  2  0
 12 13  1  0
 13 14  2  0
 15 14  1  0
 16 15  1  0
 17 18  1  0
 17 20  1  0
 19 20  2  0
 19 24  1  0
 20 21  1  0
 21 22  2  0
 23 22  1  0
 23 25  1  0
 24 23  2  0
 25 26  1  0
 25 29  1  0
 26 27  1  0
 27 28  1  0
 29 28  1  0
 30 19  1  0
  4 31  1  0
  5 32  1  0
  6 33  1  0
  9 34  1  0
 12 35  1  0
 12 36  1  0
 14 37  1  0
 15 38  1  0
 17 39  1  1
 18 40  1  0
 21 41  1  0
 25 42  1  0
 26 43  1  0
 26 44  1  0
 27 45  1  0
 27 46  1  0
 28 47  1  0
 28 48  1  0
 29 49  1  0
 29 50  1  0
 30 51  1  0
 30 52  1  0
M  END
>  <Score>  (1) 
-7.62162

>  <Score_dual>  (1) 
-7.09

>  <Choices>  (1) 
[None, 7, ['5-10', 240], 8, ['0-3', 0], 11, ['9-4', 180], 23, ['45-12', 120], 34, ['31-24', 90]]

$$$$
