
     RDKit          3D

 45 48  0  0  0  0  0  0  0  0999 V2000
   64.3450   56.9340   27.2610 C   0  0  0  0  0  0  0  0  0  0  0  0
   62.9620   56.9040   27.4880 C   0  0  0  0  0  0  0  0  0  0  0  0
   62.5030   57.3740   28.7260 C   0  0  0  0  0  0  0  0  0  0  0  0
   63.3850   57.8240   29.6270 N   0  0  0  0  0  0  0  0  0  0  0  0
   64.7350   57.8430   29.3810 C   0  0  0  0  0  0  0  0  0  0  0  0
   65.1690   57.3960   28.2050 N   0  0  0  0  0  0  0  0  0  0  0  0
   66.5980   57.4770   30.9340 C   0  0  0  0  0  0  0  0  0  0  0  0
   65.6620   58.3450   30.3990 C   0  0  0  0  0  0  0  0  0  0  0  0
   65.5630   59.6660   30.7850 C   0  0  0  0  0  0  0  0  0  0  0  0
   66.4320   60.1760   31.7520 C   0  0  0  0  0  0  0  0  0  0  0  0
   67.3670   59.2910   32.2790 C   0  0  0  0  0  0  0  0  0  0  0  0
   67.4740   57.9630   31.8990 C   0  0  0  0  0  0  0  0  0  0  0  0
   66.7010   56.1490   30.5490 O   0  0  0  0  0  0  0  0  0  0  0  0
   68.4590   57.1590   32.5000 O   0  0  0  0  0  0  0  0  0  0  0  0
   64.8520   56.4430   25.9620 C   0  0  0  0  0  0  0  0  0  0  0  0
   64.5800   57.3850   24.9780 F   0  0  0  0  0  0  0  0  0  0  0  0
   66.2080   56.1750   26.0990 F   0  0  0  0  0  0  0  0  0  0  0  0
   64.1720   55.2860   25.6710 F   0  0  0  0  0  0  0  0  0  0  0  0
   62.0530   56.4550   26.5960 O   0  0  0  0  0  0  0  0  0  0  0  0
   59.5820   55.0430   25.5480 Cl  0  0  0  0  0  0  0  0  0  0  0  0
   60.0390   56.6730   25.1520 C   0  0  0  0  0  0  0  0  0  0  0  0
   61.2140   57.1020   25.7530 C   0  0  0  0  0  0  0  0  0  0  0  0
   61.6090   58.4130   25.4520 C   0  0  0  0  0  0  0  0  0  0  0  0
   60.8730   59.2290   24.6070 C   0  0  0  0  0  0  0  0  0  0  0  0
   59.7220   58.7280   24.0500 C   0  0  0  0  0  0  0  0  0  0  0  0
   58.7730   59.7540   22.9720 Cl  0  0  0  0  0  0  0  0  0  0  0  0
   59.2830   57.4660   24.3020 C   0  0  0  0  0  0  0  0  0  0  0  0
   58.0650   56.8850   23.7350 C   0  0  0  0  0  0  0  0  0  0  0  0
   58.1120   56.0920   22.6160 C   0  0  0  0  0  0  0  0  0  0  0  0
   56.9690   55.5360   22.0690 C   0  0  0  0  0  0  0  0  0  0  0  0
   55.7980   55.8470   22.7430 C   0  0  0  0  0  0  0  0  0  0  0  0
   55.7260   56.6370   23.8610 C   0  0  0  0  0  0  0  0  0  0  0  0
   56.8770   57.1410   24.3350 N   0  0  0  0  0  0  0  0  0  0  0  0
   61.4272   57.3731   28.9554 H   0  0  0  0  0  0  0  0  0  0  0  0
   64.8006   60.3166   30.3317 H   0  0  0  0  0  0  0  0  0  0  0  0
   66.3798   61.2245   32.0804 H   0  0  0  0  0  0  0  0  0  0  0  0
   68.0628   59.6681   33.0430 H   0  0  0  0  0  0  0  0  0  0  0  0
   66.0872   55.7832   29.8638 H   0  0  0  0  0  0  0  0  0  0  0  0
   69.0631   57.5440   33.1833 H   0  0  0  0  0  0  0  0  0  0  0  0
   62.5328   58.8069   25.9008 H   0  0  0  0  0  0  0  0  0  0  0  0
   61.2035   60.2550   24.3875 H   0  0  0  0  0  0  0  0  0  0  0  0
   59.0841   55.8930   22.1413 H   0  0  0  0  0  0  0  0  0  0  0  0
   56.9879   54.8991   21.1724 H   0  0  0  0  0  0  0  0  0  0  0  0
   54.8584   55.4295   22.3522 H   0  0  0  0  0  0  0  0  0  0  0  0
   54.7640   56.8496   24.3503 H   0  0  0  0  0  0  0  0  0  0  0  0
  1  2  2  0
  1  6  1  0
  2  3  1  0
  3  4  2  0
  5  4  1  0
  5  8  1  0
  6  5  2  0
  7 12  2  0
  8  9  2  0
  8  7  1  0
  9 10  1  0
 10 11  2  0
 12 11  1  0
 12 14  1  0
 13  7  1  0
 15 17  1  0
 15  1  1  0
 16 15  1  0
 18 15  1  0
 19  2  1  0
 21 20  1  0
 21 22  2  0
 22 19  1  0
 23 22  1  0
 24 23  2  0
 25 27  2  0
 25 24  1  0
 26 25  1  0
 27 21  1  0
 28 27  1  0
 28 33  1  0
 29 28  2  0
 30 29  1  0
 30 31  2  0
 31 32  1  0
 32 33  2  0
  3 34  1  0
  9 35  1  0
 10 36  1  0
 11 37  1  0
 13 38  1  0
 14 39  1  0
 23 40  1  0
 24 41  1  0
 29 42  1  0
 30 43  1  0
 31 44  1  0
 32 45  1  0
M  END
>  <Score>  (1) 
-7.93337

>  <Score_dual>  (1) 
-7.09

>  <Choices>  (1) 
[None, 6, ['11-12', 45], 10, ['2-1', 0], 13, ['29-14', 60], 23, ['6-14', 270], 32, ['35-24', 120]]

$$$$
