
     RDKit          3D

 52 55  0  0  1  0  0  0  0  0999 V2000
   69.3520   56.7120   33.3510 C   0  0  0  0  0  0  0  0  0  0  0  0
   68.0620   56.3620   33.7200 C   0  0  0  0  0  0  0  0  0  0  0  0
   68.0050   55.3390   34.6430 C   0  0  0  0  0  0  0  0  0  0  0  0
   69.1120   54.7060   35.1640 C   0  0  0  0  0  0  0  0  0  0  0  0
   70.3650   55.1200   34.7410 C   0  0  0  0  0  0  0  0  0  0  0  0
   70.5010   56.1350   33.8220 C   0  0  0  0  0  0  0  0  0  0  0  0
   65.5380   57.3510   31.2910 C   0  0  0  0  0  0  0  0  0  0  0  0
   64.7820   58.2050   32.0800 C   0  0  0  0  0  0  0  0  0  0  0  0
   65.0480   58.4920   33.3950 C   0  0  0  0  0  0  0  0  0  0  0  0
   66.1420   57.8830   33.9620 C   0  0  0  0  0  0  0  0  0  0  0  0
   66.8900   57.0320   33.1660 C   0  0  0  0  0  0  0  0  0  0  0  0
   66.5960   56.7850   31.8960 N   0  0  0  0  0  0  0  0  0  0  0  0
   61.6530   55.3610   27.1050 C   0  0  0  0  0  0  0  0  0  0  0  0
   62.2990   55.5870   28.3290 C   0  0  0  0  0  0  0  0  0  0  0  0
   63.1130   56.7620   28.4460 C   0  0  0  0  0  0  0  0  0  0  0  0
   63.1880   57.5570   27.3590 N   0  0  0  0  0  0  0  0  0  0  0  0
   62.5570   57.3160   26.1970 C   0  0  0  0  0  0  0  0  0  0  0  0
   61.8060   56.2440   26.0670 N   0  0  0  0  0  0  0  0  0  0  0  0
   65.1600   57.1140   29.8820 C   0  0  0  0  0  0  0  0  0  0  0  0
   66.0450   57.0370   29.0020 O   0  0  0  0  0  0  0  0  0  0  0  0
   63.7610   56.9950   29.6700 N   0  0  0  0  0  0  0  0  0  0  0  0
   69.5150   57.7430   32.4190 O   0  0  0  0  0  0  0  0  0  0  0  0
   71.7410   56.5530   33.3940 O   0  0  0  0  0  0  0  0  0  0  0  0
   73.6820   57.8730   33.6380 C   0  0  1  0  0  0  0  0  0  0  0  0
   72.9040   56.6530   34.1380 C   0  0  2  0  0  0  0  0  0  0  0  0
   73.7220   55.5540   33.7930 O   0  0  0  0  0  0  0  0  0  0  0  0
   75.0490   55.7500   34.0770 C   0  0  0  0  0  0  0  0  0  0  0  0
   75.3100   56.8350   35.0980 C   0  0  2  0  0  0  0  0  0  0  0  0
   74.7280   58.1610   34.6890 C   0  0  1  0  0  0  0  0  0  0  0  0
   74.2850   57.5650   32.4420 O   0  0  0  0  0  0  0  0  0  0  0  0
   76.6860   57.0130   35.1940 O   0  0  0  0  0  0  0  0  0  0  0  0
   75.6940   59.0460   34.2290 O   0  0  0  0  0  0  0  0  0  0  0  0
   67.0133   55.0077   34.9847 H   0  0  0  0  0  0  0  0  0  0  0  0
   69.0041   53.8929   35.8969 H   0  0  0  0  0  0  0  0  0  0  0  0
   71.2632   54.6305   35.1455 H   0  0  0  0  0  0  0  0  0  0  0  0
   63.9071   58.6864   31.6188 H   0  0  0  0  0  0  0  0  0  0  0  0
   64.4125   59.1805   33.9713 H   0  0  0  0  0  0  0  0  0  0  0  0
   66.4140   58.0654   35.0121 H   0  0  0  0  0  0  0  0  0  0  0  0
   61.0201   54.4705   26.9768 H   0  0  0  0  0  0  0  0  0  0  0  0
   62.1853   54.8874   29.1702 H   0  0  0  0  0  0  0  0  0  0  0  0
   62.6686   58.0150   25.3550 H   0  0  0  0  0  0  0  0  0  0  0  0
   63.1588   57.0894   30.5003 H   0  0  0  0  0  0  0  0  0  0  0  0
   70.4238   58.0153   32.1360 H   0  0  0  0  0  0  0  0  0  0  0  0
   73.0288   58.7436   33.4785 H   0  0  0  0  0  0  0  0  0  0  0  0
   72.6650   56.7045   35.2105 H   0  0  0  0  0  0  0  0  0  0  0  0
   75.4624   54.8064   34.4627 H   0  0  0  0  0  0  0  0  0  0  0  0
   75.5284   56.0739   33.1414 H   0  0  0  0  0  0  0  0  0  0  0  0
   74.8463   56.5203   36.0445 H   0  0  0  0  0  0  0  0  0  0  0  0
   74.2786   58.6617   35.5593 H   0  0  0  0  0  0  0  0  0  0  0  0
   75.1531   57.1216   32.6147 H   0  0  0  0  0  0  0  0  0  0  0  0
   76.9486   57.0470   36.1479 H   0  0  0  0  0  0  0  0  0  0  0  0
   76.1516   59.4652   35.0003 H   0  0  0  0  0  0  0  0  0  0  0  0
  1  2  2  0
  1  6  1  0
  2  3  1  0
  3  4  2  0
  5  4  1  0
  6  5  2  0
  7 12  1  0
  7  8  2  0
  8  9  1  0
  9 10  2  0
 11  2  1  0
 11 10  1  0
 12 11  2  0
 13 14  2  0
 14 15  1  0
 15 21  1  0
 16 15  2  0
 17 16  1  0
 18 17  2  0
 18 13  1  0
 19  7  1  0
 20 19  2  0
 21 19  1  0
 22  1  1  0
 23  6  1  0
 24 30  1  0
 24 25  1  0
 24 29  1  0
 25 23  1  0
 26 27  1  0
 26 25  1  0
 27 28  1  0
 28 31  1  0
 29 32  1  0
 29 28  1  0
  3 33  1  0
  4 34  1  0
  5 35  1  0
  8 36  1  0
  9 37  1  0
 10 38  1  0
 13 39  1  0
 14 40  1  0
 17 41  1  0
 21 42  1  0
 22 43  1  0
 24 44  1  6
 25 45  1  1
 27 46  1  0
 27 47  1  0
 28 48  1  1
 29 49  1  1
 30 50  1  0
 31 51  1  0
 32 52  1  0
M  END
>  <Score>  (1) 
-7.35684

>  <Score_dual>  (1) 
-8.0

>  <Choices>  (1) 
[None, 8, ['12-5', 210], 12, ['6-2', 165], 22, ['35-25', 120], 34, ['21-17', 345]]

$$$$
