
     RDKit          3D

 50 54  0  0  0  0  0  0  0  0999 V2000
   62.4890   57.0680   28.0840 C   0  0  0  0  0  0  0  0  0  0  0  0
   62.6770   56.1350   28.9040 O   0  0  0  0  0  0  0  0  0  0  0  0
   63.4140   58.1160   28.3210 N   0  0  0  0  0  0  0  0  0  0  0  0
   60.7910   58.3840   26.7660 C   0  0  0  0  0  0  0  0  0  0  0  0
   61.6000   57.3220   27.0020 C   0  0  0  0  0  0  0  0  0  0  0  0
   61.6220   56.2900   26.0340 C   0  0  0  0  0  0  0  0  0  0  0  0
   60.8630   56.3210   24.8780 C   0  0  0  0  0  0  0  0  0  0  0  0
   60.0470   57.4220   24.6660 C   0  0  0  0  0  0  0  0  0  0  0  0
   60.0290   58.4520   25.6360 C   0  0  0  0  0  0  0  0  0  0  0  0
   59.1840   59.6510   25.4400 C   0  0  0  0  0  0  0  0  0  0  0  0
   57.8190   59.6090   25.5230 C   0  0  0  0  0  0  0  0  0  0  0  0
   57.0010   60.7110   25.3440 C   0  0  0  0  0  0  0  0  0  0  0  0
   57.6320   61.8910   25.0710 N   0  0  0  0  0  0  0  0  0  0  0  0
   58.9860   61.9060   24.9950 C   0  0  0  0  0  0  0  0  0  0  0  0
   59.7680   60.8360   25.1700 N   0  0  0  0  0  0  0  0  0  0  0  0
   60.7340   60.2070   28.6120 N   0  0  0  0  0  0  0  0  0  0  0  0
   60.7710   59.3810   27.7710 C   0  0  0  0  0  0  0  0  0  0  0  0
   65.3620   57.3410   29.4440 C   0  0  0  0  0  0  0  0  0  0  0  0
   64.1190   58.0210   29.6160 C   0  0  0  0  0  0  0  0  0  0  0  0
   63.7920   58.4060   30.8590 C   0  0  0  0  0  0  0  0  0  0  0  0
   64.6510   58.1250   31.8670 N   0  0  0  0  0  0  0  0  0  0  0  0
   65.7910   57.5010   31.7120 C   0  0  0  0  0  0  0  0  0  0  0  0
   66.1570   57.1020   30.4970 N   0  0  0  0  0  0  0  0  0  0  0  0
   66.6140   57.2690   32.8960 C   0  0  0  0  0  0  0  0  0  0  0  0
   66.3290   57.9300   34.0740 C   0  0  0  0  0  0  0  0  0  0  0  0
   67.0900   57.7380   35.2330 C   0  0  0  0  0  0  0  0  0  0  0  0
   68.1440   56.8520   35.1380 C   0  0  0  0  0  0  0  0  0  0  0  0
   68.9250   56.6210   36.2290 N   0  0  0  0  0  0  0  0  0  0  0  0
   69.9670   55.7430   36.1290 C   0  0  0  0  0  0  0  0  0  0  0  0
   70.2540   55.0810   34.9530 C   0  0  0  0  0  0  0  0  0  0  0  0
   69.4800   55.2870   33.8060 C   0  0  0  0  0  0  0  0  0  0  0  0
   68.4430   56.1840   33.9680 C   0  0  0  0  0  0  0  0  0  0  0  0
   67.6720   56.3870   32.8190 C   0  0  0  0  0  0  0  0  0  0  0  0
   65.7220   56.9450   28.1280 N   0  0  0  0  0  0  0  0  0  0  0  0
   63.5802   58.8780   27.6483 H   0  0  0  0  0  0  0  0  0  0  0  0
   62.2739   55.4215   26.2092 H   0  0  0  0  0  0  0  0  0  0  0  0
   60.9054   55.4979   24.1495 H   0  0  0  0  0  0  0  0  0  0  0  0
   59.4256   57.4933   23.7611 H   0  0  0  0  0  0  0  0  0  0  0  0
   57.3436   58.6422   25.7451 H   0  0  0  0  0  0  0  0  0  0  0  0
   55.9057   60.6405   25.4174 H   0  0  0  0  0  0  0  0  0  0  0  0
   59.4751   62.8661   24.7738 H   0  0  0  0  0  0  0  0  0  0  0  0
   62.8487   58.9371   31.0544 H   0  0  0  0  0  0  0  0  0  0  0  0
   65.4792   58.6278   34.1027 H   0  0  0  0  0  0  0  0  0  0  0  0
   66.8601   58.2656   36.1704 H   0  0  0  0  0  0  0  0  0  0  0  0
   70.5959   55.5584   37.0124 H   0  0  0  0  0  0  0  0  0  0  0  0
   71.1026   54.3820   34.9168 H   0  0  0  0  0  0  0  0  0  0  0  0
   69.6812   54.7760   32.8529 H   0  0  0  0  0  0  0  0  0  0  0  0
   67.9023   55.8591   31.8818 H   0  0  0  0  0  0  0  0  0  0  0  0
   66.6113   56.4520   27.9637 H   0  0  0  0  0  0  0  0  0  0  0  0
   65.0937   57.1509   27.3382 H   0  0  0  0  0  0  0  0  0  0  0  0
  1  3  1  0
  1  2  2  0
  3 19  1  0
  4  5  2  0
  4 17  1  0
  5  1  1  0
  6  5  1  0
  7  6  2  0
  8  7  1  0
  8  9  2  0
  9  4  1  0
 10 11  2  0
 10  9  1  0
 12 11  1  0
 13 12  2  0
 14 13  1  0
 14 15  2  0
 15 10  1  0
 17 16  3  0
 18 19  2  0
 18 23  1  0
 19 20  1  0
 20 21  2  0
 22 21  1  0
 22 24  1  0
 23 22  2  0
 24 25  2  0
 25 26  1  0
 27 26  2  0
 27 28  1  0
 29 28  2  0
 30 29  1  0
 31 32  1  0
 31 30  2  0
 32 27  1  0
 33 24  1  0
 33 32  2  0
 34 18  1  0
  3 35  1  0
  6 36  1  0
  7 37  1  0
  8 38  1  0
 11 39  1  0
 12 40  1  0
 14 41  1  0
 20 42  1  0
 25 43  1  0
 26 44  1  0
 29 45  1  0
 30 46  1  0
 31 47  1  0
 33 48  1  0
 34 49  1  0
 34 50  1  0
M  END
>  <Score>  (1) 
-7.86714

>  <Score_dual>  (1) 
-7.49

>  <Choices>  (1) 
[None, 6, ['0-3', 0], 7, ['12-5', 240], 12, ['40-10', 330], 26, ['19-17', 150], 32, ['36-27', 90]]

$$$$
