
     RDKit          3D

 50 55  0  0  0  0  0  0  0  0999 V2000
   58.0740   57.3760   23.3690 C   0  0  0  0  0  0  0  0  0  0  0  0
   57.6120   56.2960   22.7170 C   0  0  0  0  0  0  0  0  0  0  0  0
   56.5300   56.2850   21.8740 C   0  0  0  0  0  0  0  0  0  0  0  0
   55.8330   57.4430   21.6480 C   0  0  0  0  0  0  0  0  0  0  0  0
   56.3040   58.5470   22.3130 C   0  0  0  0  0  0  0  0  0  0  0  0
   57.3800   58.5200   23.1410 N   0  0  0  0  0  0  0  0  0  0  0  0
   55.6640   59.8390   22.1640 C   0  0  0  0  0  0  0  0  0  0  0  0
   55.3500   60.6910   23.2250 C   0  0  0  0  0  0  0  0  0  0  0  0
   54.7500   61.8400   22.7480 C   0  0  0  0  0  0  0  0  0  0  0  0
   54.7130   61.6610   21.3980 N   0  0  0  0  0  0  0  0  0  0  0  0
   55.2420   60.5050   21.0730 N   0  0  0  0  0  0  0  0  0  0  0  0
   54.1940   62.5400   20.3840 C   0  0  0  0  0  0  0  0  0  0  0  0
   53.4330   62.0440   19.3920 N   0  0  0  0  0  0  0  0  0  0  0  0
   52.9480   62.8880   18.4390 C   0  0  0  0  0  0  0  0  0  0  0  0
   53.1950   64.2250   18.4340 N   0  0  0  0  0  0  0  0  0  0  0  0
   53.9560   64.7370   19.4190 C   0  0  0  0  0  0  0  0  0  0  0  0
   54.2400   66.0870   19.4660 C   0  0  0  0  0  0  0  0  0  0  0  0
   55.0180   66.6120   20.4750 C   0  0  0  0  0  0  0  0  0  0  0  0
   55.4990   65.7450   21.4280 C   0  0  0  0  0  0  0  0  0  0  0  0
   55.2550   64.3890   21.4440 C   0  0  0  0  0  0  0  0  0  0  0  0
   54.4690   63.9100   20.4100 C   0  0  0  0  0  0  0  0  0  0  0  0
   61.3100   59.6550   26.1160 F   0  0  0  0  0  0  0  0  0  0  0  0
   60.8170   58.4700   25.6170 C   0  0  0  0  0  0  0  0  0  0  0  0
   61.3800   57.2680   25.9410 C   0  0  0  0  0  0  0  0  0  0  0  0
   60.8510   56.1050   25.4170 C   0  0  0  0  0  0  0  0  0  0  0  0
   59.7520   56.1380   24.5610 C   0  0  0  0  0  0  0  0  0  0  0  0
   59.2120   57.3950   24.2590 C   0  0  0  0  0  0  0  0  0  0  0  0
   59.7390   58.5370   24.7810 C   0  0  0  0  0  0  0  0  0  0  0  0
   63.7400   57.2020   26.1750 C   0  0  0  0  0  0  0  0  0  0  0  0
   62.5070   57.2920   26.8250 C   0  0  0  0  0  0  0  0  0  0  0  0
   62.5230   57.3920   28.1960 C   0  0  0  0  0  0  0  0  0  0  0  0
   63.6900   57.4020   28.8870 N   0  0  0  0  0  0  0  0  0  0  0  0
   64.8700   57.3140   28.2360 C   0  0  0  0  0  0  0  0  0  0  0  0
   64.9000   57.2130   26.8790 N   0  0  0  0  0  0  0  0  0  0  0  0
   58.1435   55.3454   22.8714 H   0  0  0  0  0  0  0  0  0  0  0  0
   56.2231   55.3506   21.3814 H   0  0  0  0  0  0  0  0  0  0  0  0
   54.9589   57.4845   20.9815 H   0  0  0  0  0  0  0  0  0  0  0  0
   55.5511   60.4782   24.2853 H   0  0  0  0  0  0  0  0  0  0  0  0
   54.3855   62.7021   23.3258 H   0  0  0  0  0  0  0  0  0  0  0  0
   52.3265   62.4675   17.6347 H   0  0  0  0  0  0  0  0  0  0  0  0
   53.8398   66.7529   18.6873 H   0  0  0  0  0  0  0  0  0  0  0  0
   55.2464   67.6872   20.5167 H   0  0  0  0  0  0  0  0  0  0  0  0
   56.1214   66.1629   22.2330 H   0  0  0  0  0  0  0  0  0  0  0  0
   55.6584   63.7302   22.2271 H   0  0  0  0  0  0  0  0  0  0  0  0
   61.3042   55.1376   25.6794 H   0  0  0  0  0  0  0  0  0  0  0  0
   59.3261   55.2154   24.1398 H   0  0  0  0  0  0  0  0  0  0  0  0
   59.2970   59.5124   24.5296 H   0  0  0  0  0  0  0  0  0  0  0  0
   63.7711   57.1212   25.0784 H   0  0  0  0  0  0  0  0  0  0  0  0
   61.5714   57.4653   28.7429 H   0  0  0  0  0  0  0  0  0  0  0  0
   65.8113   57.3240   28.8051 H   0  0  0  0  0  0  0  0  0  0  0  0
  1 27  1  0
  2  1  2  0
  3  2  1  0
  4  3  2  0
  4  5  1  0
  5  6  2  0
  6  1  1  0
  7  5  1  0
  7  8  1  0
  9  8  2  0
 10  9  1  0
 11 10  1  0
 11  7  2  0
 12 21  1  0
 12 10  1  0
 13 12  2  0
 14 13  1  0
 15 14  2  0
 15 16  1  0
 16 17  1  0
 16 21  2  0
 17 18  2  0
 18 19  1  0
 19 20  2  0
 21 20  1  0
 23 24  2  0
 23 22  1  0
 24 30  1  0
 25 24  1  0
 26 25  2  0
 27 26  1  0
 27 28  2  0
 28 23  1  0
 29 30  2  0
 29 34  1  0
 30 31  1  0
 31 32  2  0
 33 32  1  0
 34 33  2  0
  2 35  1  0
  3 36  1  0
  4 37  1  0
  8 38  1  0
  9 39  1  0
 14 40  1  0
 17 41  1  0
 18 42  1  0
 19 43  1  0
 20 44  1  0
 25 45  1  0
 26 46  1  0
 28 47  1  0
 29 48  1  0
 31 49  1  0
 33 50  1  0
M  END
>  <Score>  (1) 
-8.45512

>  <Score_dual>  (1) 
-7.71

>  <Choices>  (1) 
[None, 7, ['9-20', 345], 18, ['6-14', 135], 28, ['22-7', 180], 35, ['47-16', 105]]

$$$$
