
     RDKit          3D

 43 47  0  0  0  0  0  0  0  0999 V2000
   64.7850   56.9770   26.7000 C   0  0  0  0  0  0  0  0  0  0  0  0
   63.6130   57.2600   25.9910 C   0  0  0  0  0  0  0  0  0  0  0  0
   62.5020   57.7100   26.6510 C   0  0  0  0  0  0  0  0  0  0  0  0
   62.6170   57.8550   28.0070 N   0  0  0  0  0  0  0  0  0  0  0  0
   63.7350   57.5840   28.6780 C   0  0  0  0  0  0  0  0  0  0  0  0
   64.8230   57.1440   28.0250 N   0  0  0  0  0  0  0  0  0  0  0  0
   65.9750   56.5110   26.0640 N   0  0  0  0  0  0  0  0  0  0  0  0
   61.2000   57.9810   26.1210 C   0  0  0  0  0  0  0  0  0  0  0  0
   60.8530   59.3330   25.9580 C   0  0  0  0  0  0  0  0  0  0  0  0
   59.6590   59.7920   25.4560 C   0  0  0  0  0  0  0  0  0  0  0  0
   58.6950   58.8970   25.0670 C   0  0  0  0  0  0  0  0  0  0  0  0
   58.9660   57.5520   25.1950 C   0  0  0  0  0  0  0  0  0  0  0  0
   58.0400   56.6210   24.7850 C   0  0  0  0  0  0  0  0  0  0  0  0
   58.2750   55.2500   24.8540 C   0  0  0  0  0  0  0  0  0  0  0  0
   59.5200   54.8660   25.3700 C   0  0  0  0  0  0  0  0  0  0  0  0
   60.4100   55.8280   25.7680 C   0  0  0  0  0  0  0  0  0  0  0  0
   60.1770   57.1750   25.7020 C   0  0  0  0  0  0  0  0  0  0  0  0
   63.8310   57.7890   30.4430 S   0  0  0  0  0  0  0  0  0  0  0  0
   65.4530   60.0660   30.7100 C   0  0  0  0  0  0  0  0  0  0  0  0
   65.3010   58.6890   30.8230 C   0  0  0  0  0  0  0  0  0  0  0  0
   66.3480   57.8890   31.2620 C   0  0  0  0  0  0  0  0  0  0  0  0
   67.5740   58.4630   31.5980 C   0  0  0  0  0  0  0  0  0  0  0  0
   68.7420   57.9680   32.0420 N   0  0  0  0  0  0  0  0  0  0  0  0
   69.6510   58.9580   32.2240 C   0  0  0  0  0  0  0  0  0  0  0  0
   68.9950   60.1410   31.8680 C   0  0  0  0  0  0  0  0  0  0  0  0
   67.7110   59.8310   31.4810 C   0  0  0  0  0  0  0  0  0  0  0  0
   66.6860   60.6460   31.0470 C   0  0  0  0  0  0  0  0  0  0  0  0
   63.5843   57.1205   24.9003 H   0  0  0  0  0  0  0  0  0  0  0  0
   65.9916   56.3678   25.0441 H   0  0  0  0  0  0  0  0  0  0  0  0
   66.8170   56.3180   26.6250 H   0  0  0  0  0  0  0  0  0  0  0  0
   61.5980   60.0852   26.2566 H   0  0  0  0  0  0  0  0  0  0  0  0
   59.4769   60.8731   25.3664 H   0  0  0  0  0  0  0  0  0  0  0  0
   57.7320   59.2435   24.6639 H   0  0  0  0  0  0  0  0  0  0  0  0
   57.0767   56.9730   24.3873 H   0  0  0  0  0  0  0  0  0  0  0  0
   57.5283   54.5130   24.5234 H   0  0  0  0  0  0  0  0  0  0  0  0
   59.7804   53.8006   25.4547 H   0  0  0  0  0  0  0  0  0  0  0  0
   61.3789   55.4950   26.1683 H   0  0  0  0  0  0  0  0  0  0  0  0
   64.6187   60.6924   30.3614 H   0  0  0  0  0  0  0  0  0  0  0  0
   66.2101   56.8008   31.3449 H   0  0  0  0  0  0  0  0  0  0  0  0
   68.9227   56.9698   32.2203 H   0  0  0  0  0  0  0  0  0  0  0  0
   70.6873   58.8527   32.5776 H   0  0  0  0  0  0  0  0  0  0  0  0
   69.4321   61.1501   31.8931 H   0  0  0  0  0  0  0  0  0  0  0  0
   66.8327   61.7332   30.9663 H   0  0  0  0  0  0  0  0  0  0  0  0
  1  6  2  0
  2  3  2  0
  2  1  1  0
  3  4  1  0
  4  5  2  0
  5 18  1  0
  6  5  1  0
  7  1  1  0
  8  3  1  0
  9  8  2  0
 10  9  1  0
 11 12  1  0
 11 10  2  0
 12 17  2  0
 13 14  2  0
 13 12  1  0
 14 15  1  0
 15 16  2  0
 17 16  1  0
 17  8  1  0
 18 20  1  0
 19 20  2  0
 19 27  1  0
 20 21  1  0
 21 22  2  0
 22 23  1  0
 23 24  1  0
 25 24  2  0
 26 22  1  0
 26 25  1  0
 27 26  2  0
  2 28  1  0
  7 29  1  0
  7 30  1  0
  9 31  1  0
 10 32  1  0
 11 33  1  0
 13 34  1  0
 14 35  1  0
 15 36  1  0
 16 37  1  0
 19 38  1  0
 21 39  1  0
 23 40  1  0
 24 41  1  0
 25 42  1  0
 27 43  1  0
M  END
>  <Score>  (1) 
-7.29925

>  <Score_dual>  (1) 
-7.61

>  <Choices>  (1) 
[None, 9, ['17-16', 135], 7, ['0-3', 0], 12, ['24-9', 45], 24, ['26-26', 75]]

$$$$
