
     RDKit          3D

 46 50  0  0  0  0  0  0  0  0999 V2000
   58.2710   57.0900   23.7430 C   0  0  0  0  0  0  0  0  0  0  0  0
   57.9170   56.0210   23.0020 C   0  0  0  0  0  0  0  0  0  0  0  0
   56.8470   55.9730   22.1500 C   0  0  0  0  0  0  0  0  0  0  0  0
   56.0390   57.0730   22.0010 C   0  0  0  0  0  0  0  0  0  0  0  0
   56.4020   58.1600   22.7550 C   0  0  0  0  0  0  0  0  0  0  0  0
   57.4700   58.1750   23.5910 N   0  0  0  0  0  0  0  0  0  0  0  0
   61.3170   59.4730   26.6160 F   0  0  0  0  0  0  0  0  0  0  0  0
   60.9160   58.2710   26.0620 C   0  0  0  0  0  0  0  0  0  0  0  0
   61.5630   57.1160   26.3450 C   0  0  0  0  0  0  0  0  0  0  0  0
   61.1200   55.9360   25.7620 C   0  0  0  0  0  0  0  0  0  0  0  0
   60.0240   55.9200   24.8950 C   0  0  0  0  0  0  0  0  0  0  0  0
   59.4020   57.1510   24.6470 C   0  0  0  0  0  0  0  0  0  0  0  0
   59.8360   58.2980   25.2150 C   0  0  0  0  0  0  0  0  0  0  0  0
   63.9200   57.1970   26.5630 C   0  0  0  0  0  0  0  0  0  0  0  0
   62.6800   57.1730   27.2370 C   0  0  0  0  0  0  0  0  0  0  0  0
   62.6900   57.2050   28.5990 C   0  0  0  0  0  0  0  0  0  0  0  0
   63.8770   57.2580   29.2700 N   0  0  0  0  0  0  0  0  0  0  0  0
   65.0560   57.2810   28.6150 C   0  0  0  0  0  0  0  0  0  0  0  0
   65.0780   57.2510   27.2670 N   0  0  0  0  0  0  0  0  0  0  0  0
   55.6450   59.3940   22.6980 C   0  0  0  0  0  0  0  0  0  0  0  0
   54.5280   59.6790   23.4780 C   0  0  0  0  0  0  0  0  0  0  0  0
   54.0320   60.9300   23.1980 C   0  0  0  0  0  0  0  0  0  0  0  0
   54.8710   61.3890   22.2350 N   0  0  0  0  0  0  0  0  0  0  0  0
   55.8000   60.5040   21.9460 N   0  0  0  0  0  0  0  0  0  0  0  0
   56.0570   63.4650   23.9120 Cl  0  0  0  0  0  0  0  0  0  0  0  0
   55.4120   63.6600   22.2930 C   0  0  0  0  0  0  0  0  0  0  0  0
   54.8610   62.6350   21.5470 C   0  0  0  0  0  0  0  0  0  0  0  0
   54.3670   62.8410   20.2760 C   0  0  0  0  0  0  0  0  0  0  0  0
   54.4370   64.1360   19.7480 C   0  0  0  0  0  0  0  0  0  0  0  0
   54.9870   65.1700   20.4880 C   0  0  0  0  0  0  0  0  0  0  0  0
   55.4850   64.9520   21.7730 C   0  0  0  0  0  0  0  0  0  0  0  0
   58.5367   55.1163   23.0889 H   0  0  0  0  0  0  0  0  0  0  0  0
   56.6345   55.0535   21.5848 H   0  0  0  0  0  0  0  0  0  0  0  0
   55.1681   57.0820   21.3291 H   0  0  0  0  0  0  0  0  0  0  0  0
   61.6425   54.9946   25.9872 H   0  0  0  0  0  0  0  0  0  0  0  0
   59.6677   54.9885   24.4309 H   0  0  0  0  0  0  0  0  0  0  0  0
   59.3263   59.2487   24.9996 H   0  0  0  0  0  0  0  0  0  0  0  0
   63.9472   57.1718   25.4636 H   0  0  0  0  0  0  0  0  0  0  0  0
   61.7423   57.1881   29.1571 H   0  0  0  0  0  0  0  0  0  0  0  0
   65.9988   57.3242   29.1800 H   0  0  0  0  0  0  0  0  0  0  0  0
   54.0980   58.9923   24.2219 H   0  0  0  0  0  0  0  0  0  0  0  0
   53.1646   61.4367   23.6462 H   0  0  0  0  0  0  0  0  0  0  0  0
   53.9318   62.0142   19.6954 H   0  0  0  0  0  0  0  0  0  0  0  0
   54.0519   64.3340   18.7368 H   0  0  0  0  0  0  0  0  0  0  0  0
   55.0319   66.1802   20.0551 H   0  0  0  0  0  0  0  0  0  0  0  0
   55.9220   65.7744   22.3583 H   0  0  0  0  0  0  0  0  0  0  0  0
  1 12  1  0
  2  1  2  0
  3  2  1  0
  4  3  2  0
  4  5  1  0
  5  6  2  0
  6  1  1  0
  8  9  2  0
  8  7  1  0
  9 15  1  0
 10  9  1  0
 11 10  2  0
 12 11  1  0
 12 13  2  0
 13  8  1  0
 14 15  2  0
 14 19  1  0
 15 16  1  0
 16 17  2  0
 18 17  1  0
 19 18  2  0
 20  5  1  0
 20 21  1  0
 22 21  2  0
 23 22  1  0
 24 23  1  0
 24 20  2  0
 26 25  1  0
 27 23  1  0
 27 26  2  0
 28 27  1  0
 29 28  2  0
 29 30  1  0
 30 31  2  0
 31 26  1  0
  2 32  1  0
  3 33  1  0
  4 34  1  0
 10 35  1  0
 11 36  1  0
 13 37  1  0
 14 38  1  0
 16 39  1  0
 18 40  1  0
 21 41  1  0
 22 42  1  0
 28 43  1  0
 29 44  1  0
 30 45  1  0
 31 46  1  0
M  END
>  <Score>  (1) 
-7.35692

>  <Score_dual>  (1) 
-7.04

>  <Choices>  (1) 
[None, 7, ['9-20', 345], 18, ['6-14', 135], 28, ['22-7', 180], 35, ['7-7', 315]]

$$$$
