
     RDKit          3D

 41 45  0  0  0  0  0  0  0  0999 V2000
   64.7260   56.9680   26.5630 C   0  0  0  0  0  0  0  0  0  0  0  0
   63.6250   57.2520   25.7460 C   0  0  0  0  0  0  0  0  0  0  0  0
   62.4600   57.7420   26.3110 C   0  0  0  0  0  0  0  0  0  0  0  0
   62.4820   57.9110   27.6410 N   0  0  0  0  0  0  0  0  0  0  0  0
   63.5120   57.6450   28.4190 C   0  0  0  0  0  0  0  0  0  0  0  0
   64.6550   57.1680   27.8920 N   0  0  0  0  0  0  0  0  0  0  0  0
   65.9820   56.4630   26.0770 N   0  0  0  0  0  0  0  0  0  0  0  0
   61.4140   57.9880   25.3380 C   0  0  0  0  0  0  0  0  0  0  0  0
   61.3260   59.1370   24.6490 N   0  0  0  0  0  0  0  0  0  0  0  0
   60.3800   59.4050   23.7430 C   0  0  0  0  0  0  0  0  0  0  0  0
   59.4050   58.5400   23.4250 N   0  0  0  0  0  0  0  0  0  0  0  0
   59.4100   57.3570   24.0660 C   0  0  0  0  0  0  0  0  0  0  0  0
   58.4320   56.4330   23.7770 C   0  0  0  0  0  0  0  0  0  0  0  0
   58.3930   55.2080   24.4050 C   0  0  0  0  0  0  0  0  0  0  0  0
   59.3890   54.9390   25.3500 C   0  0  0  0  0  0  0  0  0  0  0  0
   60.3410   55.8980   25.5980 C   0  0  0  0  0  0  0  0  0  0  0  0
   60.4030   57.1220   24.9910 C   0  0  0  0  0  0  0  0  0  0  0  0
   63.4310   57.9170   30.1750 S   0  0  0  0  0  0  0  0  0  0  0  0
   65.2630   59.9390   30.6940 C   0  0  0  0  0  0  0  0  0  0  0  0
   64.9540   58.5860   30.7290 C   0  0  0  0  0  0  0  0  0  0  0  0
   65.8680   57.6830   31.2270 C   0  0  0  0  0  0  0  0  0  0  0  0
   67.1070   58.1030   31.7010 C   0  0  0  0  0  0  0  0  0  0  0  0
   68.1600   57.4560   32.2300 N   0  0  0  0  0  0  0  0  0  0  0  0
   69.1490   58.3290   32.5440 C   0  0  0  0  0  0  0  0  0  0  0  0
   68.6680   59.6020   32.1830 C   0  0  0  0  0  0  0  0  0  0  0  0
   67.4030   59.4540   31.6600 C   0  0  0  0  0  0  0  0  0  0  0  0
   66.5120   60.3740   31.1700 C   0  0  0  0  0  0  0  0  0  0  0  0
   63.6854   57.0865   24.6602 H   0  0  0  0  0  0  0  0  0  0  0  0
   66.1109   56.2852   25.0707 H   0  0  0  0  0  0  0  0  0  0  0  0
   66.7526   56.2792   26.7353 H   0  0  0  0  0  0  0  0  0  0  0  0
   60.4021   60.3802   23.2346 H   0  0  0  0  0  0  0  0  0  0  0  0
   57.6646   56.6783   23.0280 H   0  0  0  0  0  0  0  0  0  0  0  0
   57.6103   54.4707   24.1730 H   0  0  0  0  0  0  0  0  0  0  0  0
   59.4095   53.9777   25.8844 H   0  0  0  0  0  0  0  0  0  0  0  0
   61.1146   55.6628   26.3438 H   0  0  0  0  0  0  0  0  0  0  0  0
   64.5370   60.6640   30.2974 H   0  0  0  0  0  0  0  0  0  0  0  0
   65.6141   56.6130   31.2502 H   0  0  0  0  0  0  0  0  0  0  0  0
   68.2088   56.4377   32.3766 H   0  0  0  0  0  0  0  0  0  0  0  0
   70.1264   58.0914   32.9893 H   0  0  0  0  0  0  0  0  0  0  0  0
   69.2100   60.5521   32.2989 H   0  0  0  0  0  0  0  0  0  0  0  0
   66.7723   61.4426   31.1496 H   0  0  0  0  0  0  0  0  0  0  0  0
  1  6  2  0
  2  3  2  0
  2  1  1  0
  3  4  1  0
  4  5  2  0
  5 18  1  0
  6  5  1  0
  7  1  1  0
  8  3  1  0
  9  8  2  0
 10  9  1  0
 11 10  2  0
 11 12  1  0
 12 17  2  0
 13 12  1  0
 13 14  2  0
 14 15  1  0
 15 16  2  0
 17  8  1  0
 17 16  1  0
 18 20  1  0
 19 20  2  0
 19 27  1  0
 20 21  1  0
 21 22  2  0
 22 23  1  0
 23 24  1  0
 25 24  2  0
 26 22  1  0
 26 25  1  0
 27 26  2  0
  2 28  1  0
  7 29  1  0
  7 30  1  0
 10 31  1  0
 13 32  1  0
 14 33  1  0
 15 34  1  0
 16 35  1  0
 19 36  1  0
 21 37  1  0
 23 38  1  0
 24 39  1  0
 25 40  1  0
 27 41  1  0
M  END
>  <Score>  (1) 
-7.11652

>  <Score_dual>  (1) 
-7.29

>  <Choices>  (1) 
[None, 9, ['17-16', 135], 7, ['0-3', 0], 12, ['24-9', 45], 24, ['47-22', 180]]

$$$$
