
     RDKit          3D

 46 50  0  0  0  0  0  0  0  0999 V2000
   60.9620   55.8050   25.7200 F   0  0  0  0  0  0  0  0  0  0  0  0
   60.7650   57.0270   25.1650 C   0  0  0  0  0  0  0  0  0  0  0  0
   61.4110   58.1840   25.5570 C   0  0  0  0  0  0  0  0  0  0  0  0
   61.1230   59.3480   24.9180 C   0  0  0  0  0  0  0  0  0  0  0  0
   60.2030   59.3550   23.9040 C   0  0  0  0  0  0  0  0  0  0  0  0
   59.5370   58.2110   23.4860 C   0  0  0  0  0  0  0  0  0  0  0  0
   59.8440   57.0350   24.1490 C   0  0  0  0  0  0  0  0  0  0  0  0
   63.6220   57.5340   26.3430 C   0  0  0  0  0  0  0  0  0  0  0  0
   62.3490   57.9860   26.6440 C   0  0  0  0  0  0  0  0  0  0  0  0
   62.0650   58.2170   27.9880 C   0  0  0  0  0  0  0  0  0  0  0  0
   63.0330   57.9930   28.9240 N   0  0  0  0  0  0  0  0  0  0  0  0
   64.2410   57.5590   28.5870 C   0  0  0  0  0  0  0  0  0  0  0  0
   64.5470   57.3250   27.2870 N   0  0  0  0  0  0  0  0  0  0  0  0
   65.1100   57.3920   29.7700 C   0  0  0  0  0  0  0  0  0  0  0  0
   66.1370   56.5050   29.5200 F   0  0  0  0  0  0  0  0  0  0  0  0
   64.3860   56.9390   30.8540 F   0  0  0  0  0  0  0  0  0  0  0  0
   65.6420   58.6220   30.1410 F   0  0  0  0  0  0  0  0  0  0  0  0
   59.1230   55.8530   23.6810 C   0  0  0  0  0  0  0  0  0  0  0  0
   58.5720   54.7780   24.3300 C   0  0  0  0  0  0  0  0  0  0  0  0
   57.9870   53.9040   23.4610 C   0  0  0  0  0  0  0  0  0  0  0  0
   58.1800   54.4480   22.2610 N   0  0  0  0  0  0  0  0  0  0  0  0
   58.8470   55.5940   22.3830 N   0  0  0  0  0  0  0  0  0  0  0  0
   57.7930   53.9920   20.9710 C   0  0  0  0  0  0  0  0  0  0  0  0
   56.5810   54.4550   20.5090 C   0  0  0  0  0  0  0  0  0  0  0  0
   56.0800   54.0950   19.2760 C   0  0  0  0  0  0  0  0  0  0  0  0
   56.8540   53.2490   18.5240 C   0  0  0  0  0  0  0  0  0  0  0  0
   58.0870   52.7460   18.9350 C   0  0  0  0  0  0  0  0  0  0  0  0
   58.8420   51.8960   18.1540 C   0  0  0  0  0  0  0  0  0  0  0  0
   60.0660   51.4200   18.6050 C   0  0  0  0  0  0  0  0  0  0  0  0
   60.4740   51.8450   19.8620 C   0  0  0  0  0  0  0  0  0  0  0  0
   59.7290   52.6950   20.6510 C   0  0  0  0  0  0  0  0  0  0  0  0
   58.5180   53.1540   20.1810 C   0  0  0  0  0  0  0  0  0  0  0  0
   61.6265   60.2802   25.2139 H   0  0  0  0  0  0  0  0  0  0  0  0
   59.9823   60.3072   23.3994 H   0  0  0  0  0  0  0  0  0  0  0  0
   58.8016   58.2375   22.6684 H   0  0  0  0  0  0  0  0  0  0  0  0
   63.8822   57.3400   25.2920 H   0  0  0  0  0  0  0  0  0  0  0  0
   61.0708   58.5763   28.2920 H   0  0  0  0  0  0  0  0  0  0  0  0
   58.5985   54.6372   25.4206 H   0  0  0  0  0  0  0  0  0  0  0  0
   57.4717   52.9616   23.6983 H   0  0  0  0  0  0  0  0  0  0  0  0
   55.9936   55.1341   21.1444 H   0  0  0  0  0  0  0  0  0  0  0  0
   55.1100   54.4670   18.9144 H   0  0  0  0  0  0  0  0  0  0  0  0
   56.4783   52.9487   17.5347 H   0  0  0  0  0  0  0  0  0  0  0  0
   58.4708   51.5922   17.1641 H   0  0  0  0  0  0  0  0  0  0  0  0
   60.6813   50.7405   17.9970 H   0  0  0  0  0  0  0  0  0  0  0  0
   61.4396   51.4857   20.2475 H   0  0  0  0  0  0  0  0  0  0  0  0
   60.0960   53.0023   21.6414 H   0  0  0  0  0  0  0  0  0  0  0  0
  2  3  2  0
  2  1  1  0
  3  9  1  0
  4  3  1  0
  5  4  2  0
  6  5  1  0
  6  7  2  0
  7  2  1  0
  8  9  2  0
  8 13  1  0
  9 10  1  0
 10 11  2  0
 12 11  1  0
 12 14  1  0
 13 12  2  0
 14 17  1  0
 14 16  1  0
 15 14  1  0
 18  7  1  0
 18 19  1  0
 20 19  2  0
 21 22  1  0
 21 20  1  0
 22 18  2  0
 23 21  1  0
 24 23  2  0
 25 24  1  0
 26 27  1  0
 26 25  2  0
 27 32  2  0
 28 29  2  0
 28 27  1  0
 29 30  1  0
 30 31  2  0
 32 31  1  0
 32 23  1  0
  4 33  1  0
  5 34  1  0
  6 35  1  0
  8 36  1  0
 10 37  1  0
 19 38  1  0
 20 39  1  0
 24 40  1  0
 25 41  1  0
 26 42  1  0
 28 43  1  0
 29 44  1  0
 30 45  1  0
 31 46  1  0
M  END
>  <Score>  (1) 
-7.68777

>  <Score_dual>  (1) 
-7.38

>  <Choices>  (1) 
[None, 9, ['11-12', 75], 11, ['9-14', 120], 22, ['22-6', 15], 29, ['26-17', 240]]

$$$$
