
     RDKit          3D

 51 56  0  0  1  0  0  0  0  0999 V2000
   59.1940   57.6150   24.8850 N   0  0  0  0  0  0  0  0  0  0  0  0
   60.2960   57.8080   25.7480 C   0  0  2  0  0  0  0  0  0  0  0  0
   61.2750   58.8760   25.4110 C   0  0  0  0  0  0  0  0  0  0  0  0
   61.2130   59.4080   24.1400 O   0  0  0  0  0  0  0  0  0  0  0  0
   59.8740   59.5930   23.7450 C   0  0  0  0  0  0  0  0  0  0  0  0
   59.3220   58.2310   23.5760 C   0  0  2  0  0  0  0  0  0  0  0  0
   57.3880   56.9410   22.7330 C   0  0  0  0  0  0  0  0  0  0  0  0
   58.0190   58.1450   22.8770 C   0  0  0  0  0  0  0  0  0  0  0  0
   57.3790   59.2600   22.3160 C   0  0  0  0  0  0  0  0  0  0  0  0
   56.1760   59.1340   21.6540 C   0  0  0  0  0  0  0  0  0  0  0  0
   55.5590   57.8850   21.5260 C   0  0  0  0  0  0  0  0  0  0  0  0
   56.1800   56.7820   22.0750 C   0  0  0  0  0  0  0  0  0  0  0  0
   54.3710   58.1360   20.8060 O   0  0  0  0  0  0  0  0  0  0  0  0
   54.5460   59.3320   20.0490 C   0  0  0  0  0  0  0  0  0  0  0  0
   55.3340   60.0670   21.0070 O   0  0  0  0  0  0  0  0  0  0  0  0
   61.0980   56.1950   26.0110 S   0  0  0  0  0  0  0  0  0  0  0  0
   65.0110   56.6380   25.7730 C   0  0  0  0  0  0  0  0  0  0  0  0
   65.4300   56.9700   27.0650 C   0  0  0  0  0  0  0  0  0  0  0  0
   64.4510   57.0550   28.0340 C   0  0  0  0  0  0  0  0  0  0  0  0
   63.1590   56.8150   27.6770 N   0  0  0  0  0  0  0  0  0  0  0  0
   62.7870   56.5000   26.4320 C   0  0  0  0  0  0  0  0  0  0  0  0
   63.7320   56.4180   25.5020 N   0  0  0  0  0  0  0  0  0  0  0  0
   63.9250   58.1010   30.2460 C   0  0  0  0  0  0  0  0  0  0  0  0
   64.7570   57.3920   29.4180 C   0  0  0  0  0  0  0  0  0  0  0  0
   65.9480   56.9950   29.9790 C   0  0  0  0  0  0  0  0  0  0  0  0
   66.3010   57.2870   31.3020 C   0  0  0  0  0  0  0  0  0  0  0  0
   67.4170   56.9850   32.0230 N   0  0  0  0  0  0  0  0  0  0  0  0
   67.2120   57.5230   33.2560 C   0  0  0  0  0  0  0  0  0  0  0  0
   65.9940   58.1550   33.3170 C   0  0  0  0  0  0  0  0  0  0  0  0
   65.4110   58.0050   32.0720 C   0  0  0  0  0  0  0  0  0  0  0  0
   64.1990   58.4260   31.5520 C   0  0  0  0  0  0  0  0  0  0  0  0
   59.0680   56.6017   24.7500 H   0  0  0  0  0  0  0  0  0  0  0  0
   59.8690   58.2160   26.6760 H   0  0  0  0  0  0  0  0  0  0  0  0
   61.1236   59.7007   26.1230 H   0  0  0  0  0  0  0  0  0  0  0  0
   62.2590   58.3874   25.4668 H   0  0  0  0  0  0  0  0  0  0  0  0
   59.3166   60.1407   24.5192 H   0  0  0  0  0  0  0  0  0  0  0  0
   59.7985   60.1825   22.8194 H   0  0  0  0  0  0  0  0  0  0  0  0
   60.0351   57.7052   22.9241 H   0  0  0  0  0  0  0  0  0  0  0  0
   57.8663   56.0490   23.1637 H   0  0  0  0  0  0  0  0  0  0  0  0
   57.8450   60.2524   22.4057 H   0  0  0  0  0  0  0  0  0  0  0  0
   55.7201   55.7863   21.9908 H   0  0  0  0  0  0  0  0  0  0  0  0
   55.0916   59.1542   19.1105 H   0  0  0  0  0  0  0  0  0  0  0  0
   53.6237   59.8237   19.7060 H   0  0  0  0  0  0  0  0  0  0  0  0
   65.7556   56.5579   24.9673 H   0  0  0  0  0  0  0  0  0  0  0  0
   66.4891   57.1546   27.2979 H   0  0  0  0  0  0  0  0  0  0  0  0
   62.9626   58.4357   29.8317 H   0  0  0  0  0  0  0  0  0  0  0  0
   66.6550   56.4224   29.3607 H   0  0  0  0  0  0  0  0  0  0  0  0
   68.2427   56.4596   31.7020 H   0  0  0  0  0  0  0  0  0  0  0  0
   67.9253   57.4602   34.0910 H   0  0  0  0  0  0  0  0  0  0  0  0
   65.5664   58.6776   34.1853 H   0  0  0  0  0  0  0  0  0  0  0  0
   63.4836   58.9983   32.1608 H   0  0  0  0  0  0  0  0  0  0  0  0
  1  2  1  0
  2 16  1  0
  3  2  1  0
  4  3  1  0
  5  4  1  0
  6  5  1  0
  6  1  1  0
  7  8  2  0
  8  6  1  0
  9  8  1  0
 10  9  2  0
 11 10  1  0
 11 12  2  0
 12  7  1  0
 13 11  1  0
 14 13  1  0
 14 15  1  0
 15 10  1  0
 16 21  1  0
 17 18  2  0
 18 19  1  0
 19 24  1  0
 20 19  2  0
 21 20  1  0
 22 17  1  0
 22 21  2  0
 23 31  2  0
 24 25  2  0
 24 23  1  0
 25 26  1  0
 26 27  1  0
 26 30  2  0
 27 28  1  0
 28 29  2  0
 30 29  1  0
 31 30  1  0
  1 32  1  0
  2 33  1  1
  3 34  1  0
  3 35  1  0
  5 36  1  0
  5 37  1  0
  6 38  1  6
  7 39  1  0
  9 40  1  0
 12 41  1  0
 14 42  1  0
 14 43  1  0
 17 44  1  0
 18 45  1  0
 23 46  1  0
 25 47  1  0
 27 48  1  0
 28 49  1  0
 29 50  1  0
 31 51  1  0
M  END
>  <Score>  (1) 
-7.64099

>  <Score_dual>  (1) 
-7.05

>  <Choices>  (1) 
[None, 9, ['17-16', 135], 10, ['20-4', 30], 23, ['52-13', 240], 36, ['24-7', 150]]

$$$$
