
     RDKit          3D

 47 51  0  0  0  0  0  0  0  0999 V2000
   62.6850   57.4920   28.5670 C   0  0  0  0  0  0  0  0  0  0  0  0
   62.6830   56.0980   28.6150 C   0  0  0  0  0  0  0  0  0  0  0  0
   62.0960   55.2830   27.6430 C   0  0  0  0  0  0  0  0  0  0  0  0
   61.4960   55.8630   26.5950 N   0  0  0  0  0  0  0  0  0  0  0  0
   61.4940   57.1930   26.5400 C   0  0  0  0  0  0  0  0  0  0  0  0
   62.0500   57.9520   27.4610 N   0  0  0  0  0  0  0  0  0  0  0  0
   59.0400   56.3090   25.4010 F   0  0  0  0  0  0  0  0  0  0  0  0
   59.6450   57.4080   24.8750 C   0  0  0  0  0  0  0  0  0  0  0  0
   60.8450   57.8700   25.4050 C   0  0  0  0  0  0  0  0  0  0  0  0
   61.3910   58.9940   24.8090 C   0  0  0  0  0  0  0  0  0  0  0  0
   60.7430   59.5940   23.7450 C   0  0  0  0  0  0  0  0  0  0  0  0
   59.5580   59.1120   23.2450 C   0  0  0  0  0  0  0  0  0  0  0  0
   59.0000   57.9950   23.8250 C   0  0  0  0  0  0  0  0  0  0  0  0
   58.6360   55.5810   22.3810 F   0  0  0  0  0  0  0  0  0  0  0  0
   57.5180   56.3200   22.5770 C   0  0  0  0  0  0  0  0  0  0  0  0
   57.7350   57.4880   23.2830 C   0  0  0  0  0  0  0  0  0  0  0  0
   56.6770   58.3610   23.5670 C   0  0  0  0  0  0  0  0  0  0  0  0
   55.3960   58.0480   23.1340 C   0  0  0  0  0  0  0  0  0  0  0  0
   55.2050   56.8840   22.4350 C   0  0  0  0  0  0  0  0  0  0  0  0
   56.2380   56.0220   22.1520 C   0  0  0  0  0  0  0  0  0  0  0  0
   63.3260   58.2780   29.6310 C   0  0  0  0  0  0  0  0  0  0  0  0
   62.7500   59.3630   29.7900 O   0  0  0  0  0  0  0  0  0  0  0  0
   65.5750   57.2090   29.8610 C   0  0  0  0  0  0  0  0  0  0  0  0
   64.4570   57.8450   30.3760 C   0  0  0  0  0  0  0  0  0  0  0  0
   64.3930   58.1080   31.7860 C   0  0  0  0  0  0  0  0  0  0  0  0
   65.4730   57.6990   32.5410 N   0  0  0  0  0  0  0  0  0  0  0  0
   66.5610   57.0660   31.9530 C   0  0  0  0  0  0  0  0  0  0  0  0
   66.6280   56.8170   30.6380 N   0  0  0  0  0  0  0  0  0  0  0  0
   67.7060   56.6460   32.8080 C   0  0  0  0  0  0  0  0  0  0  0  0
   67.6360   56.7690   34.2740 C   0  0  0  0  0  0  0  0  0  0  0  0
   68.5300   57.7130   33.4540 C   0  0  0  0  0  0  0  0  0  0  0  0
   63.1735   55.6102   29.4703 H   0  0  0  0  0  0  0  0  0  0  0  0
   62.1261   54.1874   27.7367 H   0  0  0  0  0  0  0  0  0  0  0  0
   62.3391   59.4092   25.1814 H   0  0  0  0  0  0  0  0  0  0  0  0
   61.1912   60.4865   23.2839 H   0  0  0  0  0  0  0  0  0  0  0  0
   59.0641   59.6091   22.3971 H   0  0  0  0  0  0  0  0  0  0  0  0
   56.8602   59.2884   24.1294 H   0  0  0  0  0  0  0  0  0  0  0  0
   54.5515   58.7198   23.3472 H   0  0  0  0  0  0  0  0  0  0  0  0
   54.1918   56.6315   22.0892 H   0  0  0  0  0  0  0  0  0  0  0  0
   56.0456   55.0972   21.5884 H   0  0  0  0  0  0  0  0  0  0  0  0
   65.6165   57.0112   28.7797 H   0  0  0  0  0  0  0  0  0  0  0  0
   63.5267   58.6102   32.2413 H   0  0  0  0  0  0  0  0  0  0  0  0
   67.9141   55.7988   32.1380 H   0  0  0  0  0  0  0  0  0  0  0  0
   66.7223   57.1519   34.7522 H   0  0  0  0  0  0  0  0  0  0  0  0
   67.7923   56.0872   35.1230 H   0  0  0  0  0  0  0  0  0  0  0  0
   69.6250   57.6184   33.4982 H   0  0  0  0  0  0  0  0  0  0  0  0
   68.6358   58.8025   33.3449 H   0  0  0  0  0  0  0  0  0  0  0  0
  1  2  2  0
  1 21  1  0
  3  2  1  0
  4  3  2  0
  5  4  1  0
  5  6  2  0
  6  1  1  0
  8  7  1  0
  8  9  2  0
  9  5  1  0
 10  9  1  0
 11 10  2  0
 12 11  1  0
 12 13  2  0
 13  8  1  0
 14 15  1  0
 15 16  2  0
 16 17  1  0
 16 13  1  0
 18 17  2  0
 19 18  1  0
 20 19  2  0
 20 15  1  0
 21 22  2  0
 21 24  1  0
 23 24  2  0
 23 28  1  0
 24 25  1  0
 25 26  2  0
 27 26  1  0
 27 29  1  0
 28 27  2  0
 29 31  1  0
 29 30  1  0
 31 30  1  0
  2 32  1  0
  3 33  1  0
 10 34  1  0
 11 35  1  0
 12 36  1  0
 17 37  1  0
 18 38  1  0
 19 39  1  0
 20 40  1  0
 23 41  1  0
 25 42  1  0
 29 43  1  0
 30 44  1  0
 30 45  1  0
 31 46  1  0
 31 47  1  0
M  END
>  <Score>  (1) 
-7.77436

>  <Score_dual>  (1) 
-7.24

>  <Choices>  (1) 
[None, 9, ['16-25', 0], 10, ['5-9', 285], 18, ['19-4', 180], 26, ['9-17', 0], 36, ['9-15', 60]]

$$$$
