
     RDKit          3D

 49 52  0  0  1  0  0  0  0  0999 V2000
   56.6590   61.9460   27.0570 C   0  0  0  0  0  0  0  0  0  0  0  0
   56.2550   63.3240   27.5110 C   0  0  0  0  0  0  0  0  0  0  0  0
   57.0260   64.4350   27.2000 C   0  0  0  0  0  0  0  0  0  0  0  0
   56.5630   65.6520   27.6670 C   0  0  0  0  0  0  0  0  0  0  0  0
   55.4010   65.7760   28.4010 C   0  0  0  0  0  0  0  0  0  0  0  0
   54.6560   64.6280   28.6900 C   0  0  0  0  0  0  0  0  0  0  0  0
   55.1230   63.4390   28.2260 N   0  0  0  0  0  0  0  0  0  0  0  0
   52.8100   63.3800   29.8120 C   0  0  2  0  0  0  0  0  0  0  0  0
   53.3970   64.7100   29.4790 C   0  0  1  0  0  0  0  0  0  0  0  0
   53.6270   65.4800   30.6160 O   0  0  0  0  0  0  0  0  0  0  0  0
   54.0950   64.7150   31.6790 C   0  0  0  0  0  0  0  0  0  0  0  0
   52.9140   63.9630   32.2520 C   0  0  1  0  0  0  0  0  0  0  0  0
   52.1050   63.3450   31.1420 C   0  0  1  0  0  0  0  0  0  0  0  0
   53.7540   62.3830   29.6680 O   0  0  0  0  0  0  0  0  0  0  0  0
   53.4520   62.9650   33.0950 O   0  0  0  0  0  0  0  0  0  0  0  0
   50.8790   63.9640   31.1250 O   0  0  0  0  0  0  0  0  0  0  0  0
   60.0560   60.4890   27.7560 C   0  0  0  0  0  0  0  0  0  0  0  0
   58.7870   60.6750   27.2170 C   0  0  0  0  0  0  0  0  0  0  0  0
   58.0200   61.7450   27.6340 C   0  0  0  0  0  0  0  0  0  0  0  0
   58.5510   62.5810   28.5690 N   0  0  0  0  0  0  0  0  0  0  0  0
   59.7820   62.3920   29.0850 C   0  0  0  0  0  0  0  0  0  0  0  0
   60.5340   61.3560   28.6870 N   0  0  0  0  0  0  0  0  0  0  0  0
   60.3540   60.2560   24.8510 Cl  0  0  0  0  0  0  0  0  0  0  0  0
   61.0980   59.1430   25.9920 C   0  0  0  0  0  0  0  0  0  0  0  0
   60.8790   59.3640   27.3270 C   0  0  0  0  0  0  0  0  0  0  0  0
   61.4970   58.4450   28.1750 C   0  0  0  0  0  0  0  0  0  0  0  0
   62.2610   57.4060   27.6800 C   0  0  0  0  0  0  0  0  0  0  0  0
   62.4440   57.2380   26.3210 C   0  0  0  0  0  0  0  0  0  0  0  0
   63.4270   55.8980   25.7480 Cl  0  0  0  0  0  0  0  0  0  0  0  0
   61.8500   58.1240   25.4650 C   0  0  0  0  0  0  0  0  0  0  0  0
   55.9587   61.1896   27.4408 H   0  0  0  0  0  0  0  0  0  0  0  0
   56.6512   61.8482   25.9614 H   0  0  0  0  0  0  0  0  0  0  0  0
   57.9537   64.3526   26.6147 H   0  0  0  0  0  0  0  0  0  0  0  0
   57.1451   66.5583   27.4441 H   0  0  0  0  0  0  0  0  0  0  0  0
   55.0658   66.7626   28.7534 H   0  0  0  0  0  0  0  0  0  0  0  0
   52.0099   63.1878   29.0820 H   0  0  0  0  0  0  0  0  0  0  0  0
   52.6356   65.1954   28.8508 H   0  0  0  0  0  0  0  0  0  0  0  0
   54.8563   64.0047   31.3242 H   0  0  0  0  0  0  0  0  0  0  0  0
   54.5549   65.3564   32.4452 H   0  0  0  0  0  0  0  0  0  0  0  0
   52.2416   64.6303   32.8110 H   0  0  0  0  0  0  0  0  0  0  0  0
   51.9680   62.2707   31.3348 H   0  0  0  0  0  0  0  0  0  0  0  0
   54.0466   62.0740   30.5619 H   0  0  0  0  0  0  0  0  0  0  0  0
   53.3134   63.2221   34.0409 H   0  0  0  0  0  0  0  0  0  0  0  0
   50.5741   64.1179   32.0542 H   0  0  0  0  0  0  0  0  0  0  0  0
   58.3972   59.9745   26.4638 H   0  0  0  0  0  0  0  0  0  0  0  0
   60.1721   63.0927   29.8378 H   0  0  0  0  0  0  0  0  0  0  0  0
   61.3731   58.5500   29.2629 H   0  0  0  0  0  0  0  0  0  0  0  0
   62.7318   56.7002   28.3801 H   0  0  0  0  0  0  0  0  0  0  0  0
   61.9727   58.0216   24.3767 H   0  0  0  0  0  0  0  0  0  0  0  0
  1  2  1  0
  1 19  1  0
  2  7  1  0
  3  2  2  0
  3  4  1  0
  4  5  2  0
  5  6  1  0
  7  6  2  0
  8 14  1  0
  8 13  1  0
  9  6  1  0
  9  8  1  0
  9 10  1  0
 10 11  1  0
 11 12  1  0
 12 15  1  0
 13 16  1  0
 13 12  1  0
 17 22  2  0
 18 19  2  0
 18 17  1  0
 19 20  1  0
 20 21  2  0
 22 21  1  0
 23 24  1  0
 24 25  2  0
 25 17  1  0
 25 26  1  0
 27 26  2  0
 28 27  1  0
 29 28  1  0
 30 24  1  0
 30 28  2  0
  1 31  1  0
  1 32  1  0
  3 33  1  0
  4 34  1  0
  5 35  1  0
  8 36  1  6
  9 37  1  6
 11 38  1  0
 11 39  1  0
 12 40  1  1
 13 41  1  1
 14 42  1  0
 15 43  1  0
 16 44  1  0
 18 45  1  0
 21 46  1  0
 26 47  1  0
 27 48  1  0
 30 49  1  0
M  END
>  <Score>  (1) 
-7.95284

>  <Score_dual>  (1) 
-7.36

>  <Choices>  (1) 
[None, 8, ['3-10', 0], 7, ['29-21', 120], 22, ['6-11', 195], 31, ['21-24', 105]]

$$$$
