
     RDKit          3D

 54 58  0  0  1  0  0  0  0  0999 V2000
   56.9920   61.7020   28.4250 Cl  0  0  0  0  0  0  0  0  0  0  0  0
   57.1980   62.1760   26.7360 C   0  0  0  0  0  0  0  0  0  0  0  0
   58.0670   61.5340   25.8590 C   0  0  0  0  0  0  0  0  0  0  0  0
   58.1380   61.9730   24.5700 C   0  0  0  0  0  0  0  0  0  0  0  0
   57.3930   63.0350   24.0540 C   0  0  0  0  0  0  0  0  0  0  0  0
   56.5490   63.6310   24.9750 C   0  0  0  0  0  0  0  0  0  0  0  0
   56.4370   63.2330   26.2860 C   0  0  0  0  0  0  0  0  0  0  0  0
   59.9960   59.8330   25.6560 C   0  0  2  0  0  0  0  0  0  0  0  0
   60.2540   60.6660   26.8340 C   0  0  0  0  0  0  0  0  0  0  0  0
   58.8040   60.3900   26.3580 C   0  0  1  0  0  0  0  0  0  0  0  0
   61.2220   56.2850   25.5320 C   0  0  0  0  0  0  0  0  0  0  0  0
   61.2600   57.6570   25.6280 C   0  0  0  0  0  0  0  0  0  0  0  0
   60.0710   58.3680   25.6390 C   0  0  0  0  0  0  0  0  0  0  0  0
   58.9250   57.6220   25.5500 N   0  0  0  0  0  0  0  0  0  0  0  0
   58.9240   56.2700   25.4550 C   0  0  0  0  0  0  0  0  0  0  0  0
   60.0850   55.5990   25.4480 N   0  0  0  0  0  0  0  0  0  0  0  0
   57.6360   55.5070   25.3510 C   0  0  0  0  0  0  0  0  0  0  0  0
   56.8400   56.0130   24.3460 F   0  0  0  0  0  0  0  0  0  0  0  0
   57.8720   54.1710   25.2030 F   0  0  0  0  0  0  0  0  0  0  0  0
   56.9940   55.6640   26.5660 F   0  0  0  0  0  0  0  0  0  0  0  0
   62.4390   55.6160   25.5700 N   0  0  0  0  0  0  0  0  0  0  0  0
   62.4920   58.3520   25.7160 N   0  0  0  0  0  0  0  0  0  0  0  0
   55.5220   64.0830   27.0740 C   0  0  0  0  0  0  0  0  0  0  0  0
   54.1090   63.6430   27.0930 C   0  0  0  0  0  0  0  0  0  0  0  0
   53.3780   64.1090   28.1150 C   0  0  0  0  0  0  0  0  0  0  0  0
   51.9930   63.7370   28.2050 N   0  0  0  0  0  0  0  0  0  0  0  0
   50.6260   64.1890   28.3230 C   0  0  0  0  0  0  0  0  0  0  0  0
   50.0490   65.2130   28.8160 O   0  0  0  0  0  0  0  0  0  0  0  0
   50.2060   62.9550   27.6280 C   0  0  0  0  0  0  0  0  0  0  0  0
   51.4710   62.3750   28.1960 C   0  0  1  0  0  0  0  0  0  0  0  0
   52.4060   61.4800   26.9240 S   0  0  0  0  0  0  0  0  0  0  0  0
   53.4630   62.7590   26.1160 C   0  0  0  0  0  0  0  0  0  0  0  0
   53.8470   65.0070   29.2040 C   0  0  0  0  0  0  0  0  0  0  0  0
   54.8100   65.7140   29.6040 O   0  0  0  0  0  0  0  0  0  0  0  0
   53.2260   65.4220   30.3480 O   0  0  0  0  0  0  0  0  0  0  0  0
   58.8299   61.4547   23.8899 H   0  0  0  0  0  0  0  0  0  0  0  0
   57.4699   63.3684   23.0086 H   0  0  0  0  0  0  0  0  0  0  0  0
   55.9298   64.4750   24.6371 H   0  0  0  0  0  0  0  0  0  0  0  0
   60.4496   59.8780   24.6549 H   0  0  0  0  0  0  0  0  0  0  0  0
   60.6268   60.2091   27.7626 H   0  0  0  0  0  0  0  0  0  0  0  0
   60.8520   61.5659   27.0404 H   0  0  0  0  0  0  0  0  0  0  0  0
   57.8765   59.9407   26.7425 H   0  0  0  0  0  0  0  0  0  0  0  0
   62.4642   54.5886   25.5018 H   0  0  0  0  0  0  0  0  0  0  0  0
   63.3160   56.1474   25.6664 H   0  0  0  0  0  0  0  0  0  0  0  0
   62.4997   59.3795   25.7872 H   0  0  0  0  0  0  0  0  0  0  0  0
   63.3797   57.8296   25.7087 H   0  0  0  0  0  0  0  0  0  0  0  0
   55.8858   64.1028   28.1119 H   0  0  0  0  0  0  0  0  0  0  0  0
   55.5271   65.0690   26.5864 H   0  0  0  0  0  0  0  0  0  0  0  0
   50.1713   63.0224   26.5306 H   0  0  0  0  0  0  0  0  0  0  0  0
   49.2167   62.4933   27.7629 H   0  0  0  0  0  0  0  0  0  0  0  0
   51.4454   61.7038   29.0671 H   0  0  0  0  0  0  0  0  0  0  0  0
   54.2420   62.2536   25.5263 H   0  0  0  0  0  0  0  0  0  0  0  0
   52.8153   63.3778   25.4775 H   0  0  0  0  0  0  0  0  0  0  0  0
   53.6941   66.0313   30.9722 H   0  0  0  0  0  0  0  0  0  0  0  0
  2  1  1  0
  3 10  1  0
  3  2  2  0
  4  3  1  0
  5  4  2  0
  5  6  1  0
  6  7  2  0
  7  2  1  0
  7 23  1  0
  8 10  1  0
  8  9  1  0
 10  9  1  0
 11 21  1  0
 11 12  2  0
 12 13  1  0
 12 22  1  0
 13  8  1  0
 14 13  2  0
 15 14  1  0
 16 15  2  0
 16 11  1  0
 17 15  1  0
 17 20  1  0
 18 17  1  0
 19 17  1  0
 23 24  1  0
 24 25  2  0
 25 26  1  0
 25 33  1  0
 26 27  1  0
 27 28  2  0
 29 30  1  0
 29 27  1  0
 30 31  1  0
 30 26  1  0
 32 31  1  0
 32 24  1  0
 33 34  2  0
 33 35  1  0
  4 36  1  0
  5 37  1  0
  6 38  1  0
  8 39  1  6
  9 40  1  0
  9 41  1  0
 10 42  1  1
 21 43  1  0
 21 44  1  0
 22 45  1  0
 22 46  1  0
 23 47  1  0
 23 48  1  0
 29 49  1  0
 29 50  1  0
 30 51  1  1
 32 52  1  0
 32 53  1  0
 35 54  1  0
M  END
>  <Score>  (1) 
-7.16711

>  <Score_dual>  (1) 
-7.33

>  <Choices>  (1) 
[None, 6, ['0-3', 0], 7, ['0-3', 0], 9, ['11-12', 330], 12, ['16-22', 225], 23, ['7-16', 60], 29, ['55-13', 180]]

$$$$
