
     RDKit          3D

 50 55  0  0  1  0  0  0  0  0999 V2000
   59.1910   57.6010   24.9030 N   0  0  0  0  0  0  0  0  0  0  0  0
   60.2860   57.7950   25.7740 C   0  0  2  0  0  0  0  0  0  0  0  0
   61.2690   58.8700   25.4340 C   0  0  0  0  0  0  0  0  0  0  0  0
   61.2310   59.3680   24.1580 O   0  0  0  0  0  0  0  0  0  0  0  0
   59.9040   59.5530   23.7360 C   0  0  0  0  0  0  0  0  0  0  0  0
   59.3260   58.1940   23.5890 C   0  0  2  0  0  0  0  0  0  0  0  0
   57.3970   56.9220   22.7360 C   0  0  0  0  0  0  0  0  0  0  0  0
   58.0310   58.1250   22.8930 C   0  0  0  0  0  0  0  0  0  0  0  0
   57.3940   59.2470   22.3430 C   0  0  0  0  0  0  0  0  0  0  0  0
   56.1930   59.1460   21.6780 C   0  0  0  0  0  0  0  0  0  0  0  0
   55.5720   57.9130   21.5330 C   0  0  0  0  0  0  0  0  0  0  0  0
   56.1780   56.7850   22.0670 C   0  0  0  0  0  0  0  0  0  0  0  0
   54.3860   58.1450   20.8200 O   0  0  0  0  0  0  0  0  0  0  0  0
   54.5610   59.3670   20.0750 C   0  0  0  0  0  0  0  0  0  0  0  0
   55.3570   60.0840   21.0430 O   0  0  0  0  0  0  0  0  0  0  0  0
   61.1000   56.1870   26.0490 S   0  0  0  0  0  0  0  0  0  0  0  0
   64.9970   56.6750   25.7770 C   0  0  0  0  0  0  0  0  0  0  0  0
   65.4260   56.9880   27.0700 C   0  0  0  0  0  0  0  0  0  0  0  0
   64.4630   57.0490   28.0560 C   0  0  0  0  0  0  0  0  0  0  0  0
   63.1700   56.8020   27.7160 N   0  0  0  0  0  0  0  0  0  0  0  0
   62.7820   56.5040   26.4720 C   0  0  0  0  0  0  0  0  0  0  0  0
   63.7160   56.4480   25.5280 N   0  0  0  0  0  0  0  0  0  0  0  0
   63.9390   58.0440   30.2940 C   0  0  0  0  0  0  0  0  0  0  0  0
   64.7810   57.3650   29.4410 C   0  0  0  0  0  0  0  0  0  0  0  0
   65.9860   56.9860   29.9840 C   0  0  0  0  0  0  0  0  0  0  0  0
   66.3370   57.2620   31.2950 C   0  0  0  0  0  0  0  0  0  0  0  0
   67.4230   57.0100   32.0500 N   0  0  0  0  0  0  0  0  0  0  0  0
   67.2700   57.4980   33.2940 C   0  0  0  0  0  0  0  0  0  0  0  0
   66.0420   58.0840   33.3360 N   0  0  0  0  0  0  0  0  0  0  0  0
   65.4690   57.9450   32.1230 C   0  0  0  0  0  0  0  0  0  0  0  0
   64.2520   58.3380   31.6060 C   0  0  0  0  0  0  0  0  0  0  0  0
   59.0584   56.5869   24.7812 H   0  0  0  0  0  0  0  0  0  0  0  0
   59.8474   58.1965   26.6995 H   0  0  0  0  0  0  0  0  0  0  0  0
   61.0939   59.7094   26.1230 H   0  0  0  0  0  0  0  0  0  0  0  0
   62.2560   58.3930   25.5247 H   0  0  0  0  0  0  0  0  0  0  0  0
   59.3414   60.1281   24.4862 H   0  0  0  0  0  0  0  0  0  0  0  0
   59.8572   60.1142   22.7911 H   0  0  0  0  0  0  0  0  0  0  0  0
   60.0280   57.6416   22.9471 H   0  0  0  0  0  0  0  0  0  0  0  0
   57.8690   56.0215   23.1559 H   0  0  0  0  0  0  0  0  0  0  0  0
   57.8671   60.2347   22.4459 H   0  0  0  0  0  0  0  0  0  0  0  0
   55.7055   55.7969   21.9652 H   0  0  0  0  0  0  0  0  0  0  0  0
   55.1009   59.2048   19.1305 H   0  0  0  0  0  0  0  0  0  0  0  0
   53.6380   59.8666   19.7458 H   0  0  0  0  0  0  0  0  0  0  0  0
   65.7299   56.6167   24.9588 H   0  0  0  0  0  0  0  0  0  0  0  0
   66.4866   57.1777   27.2920 H   0  0  0  0  0  0  0  0  0  0  0  0
   62.9621   58.3704   29.9079 H   0  0  0  0  0  0  0  0  0  0  0  0
   66.7012   56.4407   29.3506 H   0  0  0  0  0  0  0  0  0  0  0  0
   68.2602   56.5097   31.7187 H   0  0  0  0  0  0  0  0  0  0  0  0
   67.9963   57.4357   34.1177 H   0  0  0  0  0  0  0  0  0  0  0  0
   63.5341   58.8832   32.2364 H   0  0  0  0  0  0  0  0  0  0  0  0
  1  2  1  0
  2 16  1  0
  3  2  1  0
  4  3  1  0
  5  4  1  0
  6  5  1  0
  6  1  1  0
  7  8  2  0
  8  6  1  0
  9  8  1  0
 10  9  2  0
 11 10  1  0
 11 12  2  0
 12  7  1  0
 13 11  1  0
 14 13  1  0
 14 15  1  0
 15 10  1  0
 16 21  1  0
 17 18  2  0
 18 19  1  0
 19 24  1  0
 20 19  2  0
 21 20  1  0
 22 17  1  0
 22 21  2  0
 23 31  2  0
 24 25  2  0
 24 23  1  0
 25 26  1  0
 26 27  1  0
 26 30  2  0
 27 28  1  0
 28 29  2  0
 30 29  1  0
 31 30  1  0
  1 32  1  0
  2 33  1  1
  3 34  1  0
  3 35  1  0
  5 36  1  0
  5 37  1  0
  6 38  1  6
  7 39  1  0
  9 40  1  0
 12 41  1  0
 14 42  1  0
 14 43  1  0
 17 44  1  0
 18 45  1  0
 23 46  1  0
 25 47  1  0
 27 48  1  0
 28 49  1  0
 31 50  1  0
M  END
>  <Score>  (1) 
-7.45912

>  <Score_dual>  (1) 
-7.38

>  <Choices>  (1) 
[None, 9, ['17-16', 135], 10, ['20-4', 30], 23, ['52-13', 240], 36, ['34-25', 150]]

$$$$
