
     RDKit          3D

 52 57  0  0  0  0  0  0  0  0999 V2000
   59.1960   58.5140   23.1160 C   0  0  0  0  0  0  0  0  0  0  0  0
   58.4760   59.7890   25.1900 C   0  0  0  0  0  0  0  0  0  0  0  0
   58.4760   59.6270   23.7920 C   0  0  0  0  0  0  0  0  0  0  0  0
   57.7680   60.5610   23.0550 C   0  0  0  0  0  0  0  0  0  0  0  0
   57.0720   61.6230   23.5920 C   0  0  0  0  0  0  0  0  0  0  0  0
   56.3380   62.6160   23.0470 N   0  0  0  0  0  0  0  0  0  0  0  0
   55.8900   63.3770   24.0320 N   0  0  0  0  0  0  0  0  0  0  0  0
   56.3290   62.8830   25.2270 C   0  0  0  0  0  0  0  0  0  0  0  0
   57.0900   61.7590   24.9750 C   0  0  0  0  0  0  0  0  0  0  0  0
   57.7780   60.8600   25.7650 C   0  0  0  0  0  0  0  0  0  0  0  0
   57.1810   59.9460   27.9020 C   0  0  0  0  0  0  0  0  0  0  0  0
   57.7940   61.0010   27.2160 C   0  0  0  0  0  0  0  0  0  0  0  0
   58.3190   62.0170   27.9860 C   0  0  0  0  0  0  0  0  0  0  0  0
   58.2280   61.9630   29.3610 C   0  0  0  0  0  0  0  0  0  0  0  0
   57.6310   60.9350   30.0460 C   0  0  0  0  0  0  0  0  0  0  0  0
   57.0950   59.9010   29.2700 C   0  0  0  0  0  0  0  0  0  0  0  0
   57.7070   61.1850   31.4140 O   0  0  0  0  0  0  0  0  0  0  0  0
   58.5430   62.3040   31.6100 C   0  0  0  0  0  0  0  0  0  0  0  0
   58.6790   62.8590   30.3150 O   0  0  0  0  0  0  0  0  0  0  0  0
   58.7720   57.1910   23.7640 C   0  0  0  0  0  0  0  0  0  0  0  0
   61.6390   56.3980   25.7660 C   0  0  0  0  0  0  0  0  0  0  0  0
   60.7970   55.3810   26.1410 C   0  0  0  0  0  0  0  0  0  0  0  0
   59.6400   55.5880   25.4200 C   0  0  0  0  0  0  0  0  0  0  0  0
   59.7910   56.6890   24.6460 N   0  0  0  0  0  0  0  0  0  0  0  0
   61.0000   57.1560   24.8720 N   0  0  0  0  0  0  0  0  0  0  0  0
   63.0020   56.6180   26.2590 C   0  0  0  0  0  0  0  0  0  0  0  0
   63.1830   57.0200   27.5760 C   0  0  0  0  0  0  0  0  0  0  0  0
   64.4690   57.2420   28.0900 C   0  0  0  0  0  0  0  0  0  0  0  0
   65.4990   57.0430   27.2270 N   0  0  0  0  0  0  0  0  0  0  0  0
   65.3060   56.6500   25.9440 C   0  0  0  0  0  0  0  0  0  0  0  0
   64.0700   56.4430   25.4750 N   0  0  0  0  0  0  0  0  0  0  0  0
   64.7460   57.6710   29.4810 C   0  0  0  0  0  0  0  0  0  0  0  0
   63.6520   57.3410   30.3070 F   0  0  0  0  0  0  0  0  0  0  0  0
   65.8500   56.9730   29.9170 F   0  0  0  0  0  0  0  0  0  0  0  0
   64.9130   59.0170   29.5290 F   0  0  0  0  0  0  0  0  0  0  0  0
   60.2814   58.6514   23.2304 H   0  0  0  0  0  0  0  0  0  0  0  0
   58.9488   58.5032   22.0442 H   0  0  0  0  0  0  0  0  0  0  0  0
   59.0213   59.0784   25.8285 H   0  0  0  0  0  0  0  0  0  0  0  0
   57.7602   60.4474   21.9609 H   0  0  0  0  0  0  0  0  0  0  0  0
   56.1585   62.7563   22.0425 H   0  0  0  0  0  0  0  0  0  0  0  0
   56.1136   63.3072   26.2188 H   0  0  0  0  0  0  0  0  0  0  0  0
   56.7502   59.1183   27.3194 H   0  0  0  0  0  0  0  0  0  0  0  0
   58.8119   62.8732   27.5022 H   0  0  0  0  0  0  0  0  0  0  0  0
   56.6023   59.0481   29.7597 H   0  0  0  0  0  0  0  0  0  0  0  0
   58.0769   63.0250   32.2977 H   0  0  0  0  0  0  0  0  0  0  0  0
   59.5103   62.0369   32.0605 H   0  0  0  0  0  0  0  0  0  0  0  0
   57.8489   57.3539   24.3395 H   0  0  0  0  0  0  0  0  0  0  0  0
   58.6090   56.4512   22.9664 H   0  0  0  0  0  0  0  0  0  0  0  0
   61.0011   54.5749   26.8611 H   0  0  0  0  0  0  0  0  0  0  0  0
   58.7385   54.9594   25.4661 H   0  0  0  0  0  0  0  0  0  0  0  0
   62.3065   57.1662   28.2244 H   0  0  0  0  0  0  0  0  0  0  0  0
   66.1725   56.5001   25.2831 H   0  0  0  0  0  0  0  0  0  0  0  0
  1 20  1  0
  1  3  1  0
  2 10  2  0
  3  2  1  0
  4  5  1  0
  4  3  2  0
  5  9  2  0
  6  5  1  0
  6  7  1  0
  7  8  2  0
  9  8  1  0
  9 10  1  0
 10 12  1  0
 11 16  2  0
 12 11  1  0
 12 13  2  0
 13 14  1  0
 14 15  2  0
 14 19  1  0
 15 17  1  0
 16 15  1  0
 17 18  1  0
 19 18  1  0
 20 24  1  0
 21 22  1  0
 21 26  1  0
 23 22  2  0
 24 25  1  0
 24 23  1  0
 25 21  2  0
 26 27  2  0
 27 28  1  0
 28 32  1  0
 29 28  2  0
 30 29  1  0
 31 30  2  0
 31 26  1  0
 32 35  1  0
 32 34  1  0
 32 33  1  0
  1 36  1  0
  1 37  1  0
  2 38  1  0
  4 39  1  0
  6 40  1  0
  8 41  1  0
 11 42  1  0
 13 43  1  0
 16 44  1  0
 18 45  1  0
 18 46  1  0
 20 47  1  0
 20 48  1  0
 22 49  1  0
 23 50  1  0
 27 51  1  0
 30 52  1  0
M  END
>  <Score>  (1) 
-7.32641

>  <Score_dual>  (1) 
-7.01

>  <Choices>  (1) 
[None, 8, ['11-12', 225], 10, ['22-7', 165], 19, ['4-2', 345], 25, ['54-8', 165], 38, ['52-17', 165]]

$$$$
