
     RDKit          3D

 55 60  0  0  0  0  0  0  0  0999 V2000
   63.7180   57.0500   27.2220 C   0  0  0  0  0  0  0  0  0  0  0  0
   62.3730   57.4840   27.3440 C   0  0  0  0  0  0  0  0  0  0  0  0
   62.0600   58.1840   28.4760 C   0  0  0  0  0  0  0  0  0  0  0  0
   62.9940   58.4540   29.4430 N   0  0  0  0  0  0  0  0  0  0  0  0
   64.2550   58.0200   29.2800 C   0  0  0  0  0  0  0  0  0  0  0  0
   64.6340   57.3100   28.1660 N   0  0  0  0  0  0  0  0  0  0  0  0
   61.4280   57.1920   26.3290 C   0  0  0  0  0  0  0  0  0  0  0  0
   61.0080   55.9340   25.9720 C   0  0  0  0  0  0  0  0  0  0  0  0
   60.0690   56.0280   24.9310 C   0  0  0  0  0  0  0  0  0  0  0  0
   59.9730   57.3250   24.7170 N   0  0  0  0  0  0  0  0  0  0  0  0
   60.7630   58.0230   25.5270 N   0  0  0  0  0  0  0  0  0  0  0  0
   59.1650   58.0220   23.7700 C   0  0  0  0  0  0  0  0  0  0  0  0
   57.8880   57.7080   23.3170 C   0  0  0  0  0  0  0  0  0  0  0  0
   57.5700   58.7070   22.4100 C   0  0  0  0  0  0  0  0  0  0  0  0
   58.6060   59.5660   22.3320 N   0  0  0  0  0  0  0  0  0  0  0  0
   59.5800   59.1580   23.1560 N   0  0  0  0  0  0  0  0  0  0  0  0
   65.5700   59.5310   30.7110 C   0  0  0  0  0  0  0  0  0  0  0  0
   65.3250   58.2520   30.2460 C   0  0  0  0  0  0  0  0  0  0  0  0
   66.1470   57.2670   30.7550 C   0  0  0  0  0  0  0  0  0  0  0  0
   67.1350   57.5920   31.6670 C   0  0  0  0  0  0  0  0  0  0  0  0
   68.0620   56.8220   32.3070 N   0  0  0  0  0  0  0  0  0  0  0  0
   68.7950   57.6580   33.1020 C   0  0  0  0  0  0  0  0  0  0  0  0
   68.3420   58.9280   32.9670 N   0  0  0  0  0  0  0  0  0  0  0  0
   67.3220   58.8830   32.0840 C   0  0  0  0  0  0  0  0  0  0  0  0
   66.5330   59.9220   31.6150 C   0  0  0  0  0  0  0  0  0  0  0  0
   66.6650   61.2950   31.9930 C   0  0  0  0  0  0  0  0  0  0  0  0
   65.9560   61.7760   32.8780 O   0  0  0  0  0  0  0  0  0  0  0  0
   67.6770   62.1350   31.2940 C   0  0  0  0  0  0  0  0  0  0  0  0
   67.3330   63.5980   31.3470 C   0  0  0  0  0  0  0  0  0  0  0  0
   66.0120   63.9060   30.7200 C   0  0  0  0  0  0  0  0  0  0  0  0
   65.7260   63.0390   29.5300 C   0  0  0  0  0  0  0  0  0  0  0  0
   66.9830   62.4930   28.8980 C   0  0  0  0  0  0  0  0  0  0  0  0
   67.7810   61.6450   29.8490 C   0  0  0  0  0  0  0  0  0  0  0  0
   64.0180   56.4842   26.3277 H   0  0  0  0  0  0  0  0  0  0  0  0
   61.0289   58.5410   28.6151 H   0  0  0  0  0  0  0  0  0  0  0  0
   61.3539   54.9961   26.4310 H   0  0  0  0  0  0  0  0  0  0  0  0
   59.5395   55.2125   24.4166 H   0  0  0  0  0  0  0  0  0  0  0  0
   57.2648   56.8517   23.6143 H   0  0  0  0  0  0  0  0  0  0  0  0
   56.6282   58.7857   21.8471 H   0  0  0  0  0  0  0  0  0  0  0  0
   58.6428   60.4035   21.7335 H   0  0  0  0  0  0  0  0  0  0  0  0
   64.9223   60.3265   30.3139 H   0  0  0  0  0  0  0  0  0  0  0  0
   66.0163   56.2227   30.4352 H   0  0  0  0  0  0  0  0  0  0  0  0
   68.1859   55.8041   32.2095 H   0  0  0  0  0  0  0  0  0  0  0  0
   69.6260   57.3472   33.7523 H   0  0  0  0  0  0  0  0  0  0  0  0
   68.6471   62.0329   31.8024 H   0  0  0  0  0  0  0  0  0  0  0  0
   67.3043   63.9142   32.4002 H   0  0  0  0  0  0  0  0  0  0  0  0
   68.1034   64.1399   30.7787 H   0  0  0  0  0  0  0  0  0  0  0  0
   65.2211   63.7501   31.4685 H   0  0  0  0  0  0  0  0  0  0  0  0
   66.0409   64.9499   30.3743 H   0  0  0  0  0  0  0  0  0  0  0  0
   65.0973   62.1954   29.8510 H   0  0  0  0  0  0  0  0  0  0  0  0
   65.2163   63.6599   28.7785 H   0  0  0  0  0  0  0  0  0  0  0  0
   66.7037   61.8807   28.0279 H   0  0  0  0  0  0  0  0  0  0  0  0
   67.6096   63.3482   28.6046 H   0  0  0  0  0  0  0  0  0  0  0  0
   67.4082   60.6113   29.7987 H   0  0  0  0  0  0  0  0  0  0  0  0
   68.8374   61.7073   29.5487 H   0  0  0  0  0  0  0  0  0  0  0  0
  1  2  2  0
  1  6  1  0
  2  3  1  0
  3  4  2  0
  5  4  1  0
  5 18  1  0
  6  5  2  0
  7  2  1  0
  8  7  1  0
  9  8  2  0
 10  9  1  0
 10 11  1  0
 11  7  2  0
 12 10  1  0
 13 12  1  0
 14 13  2  0
 15 14  1  0
 15 16  1  0
 16 12  2  0
 17 25  2  0
 18 17  1  0
 18 19  2  0
 19 20  1  0
 20 24  2  0
 20 21  1  0
 21 22  1  0
 23 22  2  0
 24 23  1  0
 25 26  1  0
 25 24  1  0
 26 27  2  0
 28 29  1  0
 28 26  1  0
 30 29  1  0
 31 30  1  0
 32 31  1  0
 32 33  1  0
 33 28  1  0
  1 34  1  0
  3 35  1  0
  8 36  1  0
  9 37  1  0
 13 38  1  0
 14 39  1  0
 15 40  1  0
 17 41  1  0
 19 42  1  0
 21 43  1  0
 22 44  1  0
 28 45  1  0
 29 46  1  0
 29 47  1  0
 30 48  1  0
 30 49  1  0
 31 50  1  0
 31 51  1  0
 32 52  1  0
 32 53  1  0
 33 54  1  0
 33 55  1  0
M  END
>  <Score>  (1) 
-7.679

>  <Score_dual>  (1) 
-7.02

>  <Choices>  (1) 
[None, 7, ['22-8', 225], 16, ['22-9', 255], 23, ['34-19', 255], 36, ['5-10', 0], 38, ['18-8', 105]]

$$$$
