
     RDKit          3D

 49 54  0  0  0  0  0  0  0  0999 V2000
   58.3930   57.8770   23.8130 C   0  0  0  0  0  0  0  0  0  0  0  0
   57.8600   56.8760   23.0920 C   0  0  0  0  0  0  0  0  0  0  0  0
   56.7940   57.0020   22.2380 C   0  0  0  0  0  0  0  0  0  0  0  0
   56.1930   58.2290   22.0740 C   0  0  0  0  0  0  0  0  0  0  0  0
   56.7410   59.2470   22.8100 C   0  0  0  0  0  0  0  0  0  0  0  0
   57.7960   59.0840   23.6450 N   0  0  0  0  0  0  0  0  0  0  0  0
   61.2780   59.5440   27.2910 F   0  0  0  0  0  0  0  0  0  0  0  0
   60.9580   58.5290   26.4200 C   0  0  0  0  0  0  0  0  0  0  0  0
   61.6780   57.3660   26.3660 C   0  0  0  0  0  0  0  0  0  0  0  0
   61.3140   56.3810   25.4750 C   0  0  0  0  0  0  0  0  0  0  0  0
   60.2210   56.5480   24.6230 C   0  0  0  0  0  0  0  0  0  0  0  0
   59.5160   57.7550   24.7160 C   0  0  0  0  0  0  0  0  0  0  0  0
   59.8770   58.7290   25.5980 C   0  0  0  0  0  0  0  0  0  0  0  0
   64.0330   57.3320   26.6260 C   0  0  0  0  0  0  0  0  0  0  0  0
   62.7890   57.2520   27.2640 C   0  0  0  0  0  0  0  0  0  0  0  0
   62.7940   57.0780   28.6150 C   0  0  0  0  0  0  0  0  0  0  0  0
   63.9570   56.9890   29.3160 N   0  0  0  0  0  0  0  0  0  0  0  0
   65.1430   57.0690   28.6760 C   0  0  0  0  0  0  0  0  0  0  0  0
   65.1820   57.2400   27.3370 N   0  0  0  0  0  0  0  0  0  0  0  0
   56.2100   60.6000   22.7360 C   0  0  0  0  0  0  0  0  0  0  0  0
   56.1750   61.4970   23.7970 C   0  0  0  0  0  0  0  0  0  0  0  0
   55.6110   62.6860   23.3920 C   0  0  0  0  0  0  0  0  0  0  0  0
   55.3090   62.4880   22.0770 N   0  0  0  0  0  0  0  0  0  0  0  0
   55.6600   61.2780   21.7100 N   0  0  0  0  0  0  0  0  0  0  0  0
   53.6690   62.7470   20.4290 C   0  0  0  0  0  0  0  0  0  0  0  0
   54.7110   63.3420   21.1100 C   0  0  0  0  0  0  0  0  0  0  0  0
   55.1000   64.6400   20.8460 C   0  0  0  0  0  0  0  0  0  0  0  0
   54.4360   65.3680   19.8760 C   0  0  0  0  0  0  0  0  0  0  0  0
   54.6040   66.6250   19.4270 N   0  0  0  0  0  0  0  0  0  0  0  0
   53.6930   66.8410   18.4770 C   0  0  0  0  0  0  0  0  0  0  0  0
   52.9640   65.7130   18.3430 N   0  0  0  0  0  0  0  0  0  0  0  0
   53.3800   64.7620   19.1890 C   0  0  0  0  0  0  0  0  0  0  0  0
   52.9800   63.4560   19.4490 C   0  0  0  0  0  0  0  0  0  0  0  0
   58.3134   55.8790   23.1946 H   0  0  0  0  0  0  0  0  0  0  0  0
   56.4212   56.1261   21.6867 H   0  0  0  0  0  0  0  0  0  0  0  0
   55.3358   58.3815   21.4017 H   0  0  0  0  0  0  0  0  0  0  0  0
   61.8941   55.4473   25.4341 H   0  0  0  0  0  0  0  0  0  0  0  0
   59.9258   55.7651   23.9089 H   0  0  0  0  0  0  0  0  0  0  0  0
   59.3066   59.6681   25.6508 H   0  0  0  0  0  0  0  0  0  0  0  0
   64.0774   57.4710   25.5357 H   0  0  0  0  0  0  0  0  0  0  0  0
   61.8363   57.0078   29.1515 H   0  0  0  0  0  0  0  0  0  0  0  0
   66.0803   56.9947   29.2469 H   0  0  0  0  0  0  0  0  0  0  0  0
   56.5439   61.2877   24.8119 H   0  0  0  0  0  0  0  0  0  0  0  0
   55.4421   63.5914   23.9935 H   0  0  0  0  0  0  0  0  0  0  0  0
   53.3822   61.7107   20.6608 H   0  0  0  0  0  0  0  0  0  0  0  0
   55.9331   65.0923   21.4039 H   0  0  0  0  0  0  0  0  0  0  0  0
   55.3091   67.2992   19.7574 H   0  0  0  0  0  0  0  0  0  0  0  0
   53.5597   67.7713   17.9054 H   0  0  0  0  0  0  0  0  0  0  0  0
   52.1457   62.9976   18.8978 H   0  0  0  0  0  0  0  0  0  0  0  0
  1 12  1  0
  2  1  2  0
  3  2  1  0
  4  3  2  0
  4  5  1  0
  5  6  2  0
  6  1  1  0
  8  7  1  0
  9  8  2  0
  9 15  1  0
 10  9  1  0
 11 12  1  0
 11 10  2  0
 12 13  2  0
 13  8  1  0
 14 15  2  0
 14 19  1  0
 15 16  1  0
 16 17  2  0
 18 17  1  0
 19 18  2  0
 20  5  1  0
 20 21  1  0
 22 21  2  0
 23 22  1  0
 24 23  1  0
 24 20  2  0
 25 26  2  0
 26 23  1  0
 27 26  1  0
 28 27  2  0
 29 28  1  0
 30 29  1  0
 31 30  2  0
 31 32  1  0
 32 33  2  0
 32 28  1  0
 33 25  1  0
  2 34  1  0
  3 35  1  0
  4 36  1  0
 10 37  1  0
 11 38  1  0
 13 39  1  0
 14 40  1  0
 16 41  1  0
 18 42  1  0
 21 43  1  0
 22 44  1  0
 25 45  1  0
 27 46  1  0
 29 47  1  0
 30 48  1  0
 33 49  1  0
M  END
>  <Score>  (1) 
-7.97291

>  <Score_dual>  (1) 
-7.84

>  <Choices>  (1) 
[None, 7, ['9-20', 345], 18, ['6-14', 135], 28, ['22-7', 180], 35, ['34-14', 105]]

$$$$
