
     RDKit          3D

 45 48  0  0  0  0  0  0  0  0999 V2000
   67.7120   55.6630   31.8430 Cl  0  0  0  0  0  0  0  0  0  0  0  0
   66.7090   56.7890   32.7090 C   0  0  0  0  0  0  0  0  0  0  0  0
   65.6970   57.4470   32.0380 C   0  0  0  0  0  0  0  0  0  0  0  0
   64.9330   58.3350   32.7920 C   0  0  0  0  0  0  0  0  0  0  0  0
   65.1450   58.5700   34.1360 C   0  0  0  0  0  0  0  0  0  0  0  0
   66.1830   57.8650   34.7260 C   0  0  0  0  0  0  0  0  0  0  0  0
   66.9950   56.9620   34.0510 C   0  0  0  0  0  0  0  0  0  0  0  0
   62.6110   56.6360   26.7880 C   0  0  0  0  0  0  0  0  0  0  0  0
   62.7390   56.8570   28.1490 C   0  0  0  0  0  0  0  0  0  0  0  0
   63.9990   57.1090   28.6930 C   0  0  0  0  0  0  0  0  0  0  0  0
   65.0370   57.1250   27.8490 N   0  0  0  0  0  0  0  0  0  0  0  0
   64.9030   56.9060   26.5160 C   0  0  0  0  0  0  0  0  0  0  0  0
   63.6930   56.6690   26.0290 N   0  0  0  0  0  0  0  0  0  0  0  0
   65.9860   56.9200   25.6230 N   0  0  0  0  0  0  0  0  0  0  0  0
   65.4490   57.2230   30.6280 C   0  0  0  0  0  0  0  0  0  0  0  0
   66.4470   56.9240   29.9020 O   0  0  0  0  0  0  0  0  0  0  0  0
   64.1300   57.3360   30.0920 N   0  0  0  0  0  0  0  0  0  0  0  0
   61.2530   56.3670   26.2270 C   0  0  0  0  0  0  0  0  0  0  0  0
   60.3980   57.4240   26.5270 F   0  0  0  0  0  0  0  0  0  0  0  0
   61.4000   56.1200   24.8830 F   0  0  0  0  0  0  0  0  0  0  0  0
   60.7800   55.2640   26.8870 F   0  0  0  0  0  0  0  0  0  0  0  0
   68.0080   56.3430   34.8480 C   0  0  0  0  0  0  0  0  0  0  0  0
   67.8860   55.5130   35.9240 C   0  0  0  0  0  0  0  0  0  0  0  0
   68.9060   54.9470   36.6500 C   0  0  0  0  0  0  0  0  0  0  0  0
   70.1890   55.2220   36.2860 C   0  0  0  0  0  0  0  0  0  0  0  0
   70.3190   56.0490   35.2130 C   0  0  0  0  0  0  0  0  0  0  0  0
   69.3030   56.5760   34.5360 N   0  0  0  0  0  0  0  0  0  0  0  0
   71.7280   56.3900   34.7620 C   0  0  0  0  0  0  0  0  0  0  0  0
   72.2140   55.4450   33.6510 C   0  0  0  0  0  0  0  0  0  0  0  0
   71.9650   56.8990   33.3950 C   0  0  0  0  0  0  0  0  0  0  0  0
   64.1181   58.8774   32.2903 H   0  0  0  0  0  0  0  0  0  0  0  0
   64.5250   59.2770   34.7068 H   0  0  0  0  0  0  0  0  0  0  0  0
   66.3758   58.0311   35.7962 H   0  0  0  0  0  0  0  0  0  0  0  0
   61.8514   56.8340   28.7983 H   0  0  0  0  0  0  0  0  0  0  0  0
   65.8286   56.7474   24.6198 H   0  0  0  0  0  0  0  0  0  0  0  0
   66.9381   57.1028   25.9709 H   0  0  0  0  0  0  0  0  0  0  0  0
   63.3198   57.5685   30.6840 H   0  0  0  0  0  0  0  0  0  0  0  0
   66.8619   55.2712   36.2444 H   0  0  0  0  0  0  0  0  0  0  0  0
   68.6915   54.2880   37.5042 H   0  0  0  0  0  0  0  0  0  0  0  0
   71.0563   54.8064   36.8198 H   0  0  0  0  0  0  0  0  0  0  0  0
   72.0575   56.7511   35.7474 H   0  0  0  0  0  0  0  0  0  0  0  0
   73.2415   55.0525   33.6667 H   0  0  0  0  0  0  0  0  0  0  0  0
   71.8657   54.4972   33.2146 H   0  0  0  0  0  0  0  0  0  0  0  0
   72.8149   57.5709   33.2047 H   0  0  0  0  0  0  0  0  0  0  0  0
   71.3525   57.4534   32.6688 H   0  0  0  0  0  0  0  0  0  0  0  0
  1  2  1  0
  2  7  2  0
  3  2  1  0
  3  4  2  0
  4  5  1  0
  5  6  2  0
  7  6  1  0
  7 22  1  0
  8  9  2  0
  9 10  1  0
 10 17  1  0
 11 10  2  0
 12 11  1  0
 13 12  2  0
 13  8  1  0
 14 12  1  0
 15  3  1  0
 16 15  2  0
 17 15  1  0
 18 19  1  0
 18  8  1  0
 18 21  1  0
 20 18  1  0
 22 23  2  0
 23 24  1  0
 25 24  2  0
 26 25  1  0
 27 22  1  0
 27 26  2  0
 28 26  1  0
 29 28  1  0
 30 29  1  0
 30 28  1  0
  4 31  1  0
  5 32  1  0
  6 33  1  0
  9 34  1  0
 14 35  1  0
 14 36  1  0
 17 37  1  0
 23 38  1  0
 24 39  1  0
 25 40  1  0
 28 41  1  0
 29 42  1  0
 29 43  1  0
 30 44  1  0
 30 45  1  0
M  END
>  <Score>  (1) 
-7.03283

>  <Score_dual>  (1) 
-7.69

>  <Choices>  (1) 
[None, 6, ['11-12', 45], 12, ['0-2', 0], 12, ['12-6', 75], 17, ['7-3', 330], 28, ['6-14', 240], 37, ['16-21', 120]]

$$$$
