
     RDKit          3D

 46 50  0  0  0  0  0  0  0  0999 V2000
   62.3270   57.9560   27.7010 C   0  0  0  0  0  0  0  0  0  0  0  0
   62.8130   58.0880   29.0050 C   0  0  0  0  0  0  0  0  0  0  0  0
   64.1020   57.5820   29.2420 C   0  0  0  0  0  0  0  0  0  0  0  0
   64.7870   57.0140   28.2450 N   0  0  0  0  0  0  0  0  0  0  0  0
   64.2730   56.9060   26.9850 C   0  0  0  0  0  0  0  0  0  0  0  0
   63.0520   57.3820   26.7470 N   0  0  0  0  0  0  0  0  0  0  0  0
   64.7350   57.6510   30.5530 C   0  0  0  0  0  0  0  0  0  0  0  0
   64.0690   58.3400   31.5440 C   0  0  0  0  0  0  0  0  0  0  0  0
   64.6070   58.4560   32.8320 C   0  0  0  0  0  0  0  0  0  0  0  0
   65.8230   57.8700   33.1190 C   0  0  0  0  0  0  0  0  0  0  0  0
   66.3470   57.9710   34.3390 N   0  0  0  0  0  0  0  0  0  0  0  0
   67.5310   57.4140   34.6580 C   0  0  0  0  0  0  0  0  0  0  0  0
   68.2280   56.7120   33.6830 C   0  0  0  0  0  0  0  0  0  0  0  0
   67.7150   56.5810   32.3880 C   0  0  0  0  0  0  0  0  0  0  0  0
   66.5020   57.1770   32.1380 C   0  0  0  0  0  0  0  0  0  0  0  0
   65.9460   57.0810   30.8800 C   0  0  0  0  0  0  0  0  0  0  0  0
   65.0230   56.2750   25.8590 C   0  0  0  0  0  0  0  0  0  0  0  0
   64.3560   55.1200   25.4180 F   0  0  0  0  0  0  0  0  0  0  0  0
   65.0670   57.1500   24.7730 F   0  0  0  0  0  0  0  0  0  0  0  0
   66.2880   55.9090   26.1750 F   0  0  0  0  0  0  0  0  0  0  0  0
   61.0500   58.4780   27.5390 O   0  0  0  0  0  0  0  0  0  0  0  0
   59.8810   56.1370   26.0760 Cl  0  0  0  0  0  0  0  0  0  0  0  0
   59.8530   57.7510   25.4660 C   0  0  0  0  0  0  0  0  0  0  0  0
   60.4470   58.6820   26.3010 C   0  0  0  0  0  0  0  0  0  0  0  0
   60.4730   60.0010   25.8970 C   0  0  0  0  0  0  0  0  0  0  0  0
   59.9260   60.4160   24.6940 C   0  0  0  0  0  0  0  0  0  0  0  0
   59.3350   59.4610   23.8750 C   0  0  0  0  0  0  0  0  0  0  0  0
   59.3030   58.1470   24.2660 C   0  0  0  0  0  0  0  0  0  0  0  0
   58.7000   57.1020   23.4530 C   0  0  0  0  0  0  0  0  0  0  0  0
   57.3370   57.0530   23.1680 C   0  0  0  0  0  0  0  0  0  0  0  0
   57.1030   55.9500   22.3860 C   0  0  0  0  0  0  0  0  0  0  0  0
   58.3000   55.3450   22.2030 N   0  0  0  0  0  0  0  0  0  0  0  0
   59.2380   56.0420   22.8430 N   0  0  0  0  0  0  0  0  0  0  0  0
   62.2195   58.5615   29.8009 H   0  0  0  0  0  0  0  0  0  0  0  0
   63.0985   58.8066   31.3194 H   0  0  0  0  0  0  0  0  0  0  0  0
   64.0632   59.0112   33.6105 H   0  0  0  0  0  0  0  0  0  0  0  0
   67.9395   57.5134   35.6745 H   0  0  0  0  0  0  0  0  0  0  0  0
   69.1961   56.2530   33.9323 H   0  0  0  0  0  0  0  0  0  0  0  0
   68.2567   56.0273   31.6070 H   0  0  0  0  0  0  0  0  0  0  0  0
   66.4928   56.5254   30.1039 H   0  0  0  0  0  0  0  0  0  0  0  0
   60.9441   60.7483   26.5524 H   0  0  0  0  0  0  0  0  0  0  0  0
   59.9585   61.4740   24.3945 H   0  0  0  0  0  0  0  0  0  0  0  0
   58.8929   59.7593   22.9130 H   0  0  0  0  0  0  0  0  0  0  0  0
   56.5798   57.7736   23.5105 H   0  0  0  0  0  0  0  0  0  0  0  0
   56.1324   55.6216   21.9860 H   0  0  0  0  0  0  0  0  0  0  0  0
   58.4597   54.4858   21.6578 H   0  0  0  0  0  0  0  0  0  0  0  0
  1  2  2  0
  2  3  1  0
  3  7  1  0
  4  3  2  0
  5  4  1  0
  6  5  2  0
  6  1  1  0
  7 16  1  0
  7  8  2  0
  8  9  1  0
  9 10  2  0
 10 11  1  0
 11 12  2  0
 13 12  1  0
 14 13  2  0
 15 14  1  0
 15 10  1  0
 16 15  2  0
 17 20  1  0
 17  5  1  0
 18 17  1  0
 19 17  1  0
 21  1  1  0
 23 22  1  0
 23 24  2  0
 24 21  1  0
 25 24  1  0
 26 25  2  0
 27 28  2  0
 27 26  1  0
 28 23  1  0
 29 28  1  0
 30 29  1  0
 31 30  2  0
 32 31  1  0
 32 33  1  0
 33 29  2  0
  2 34  1  0
  8 35  1  0
  9 36  1  0
 12 37  1  0
 13 38  1  0
 14 39  1  0
 16 40  1  0
 25 41  1  0
 26 42  1  0
 27 43  1  0
 30 44  1  0
 31 45  1  0
 32 46  1  0
M  END
>  <Score>  (1) 
-7.00916

>  <Score_dual>  (1) 
-7.89

>  <Choices>  (1) 
[None, 6, ['2-1', 0], 10, ['7-10', 345], 20, ['22-7', 330], 27, ['11-13', 330], 30, ['36-26', 150]]

$$$$
