
     RDKit          3D

 46 50  0  0  0  0  0  0  0  0999 V2000
   66.1600   57.5380   30.8040 C   0  0  0  0  0  0  0  0  0  0  0  0
   66.5750   58.7260   31.3810 C   0  0  0  0  0  0  0  0  0  0  0  0
   67.4040   58.3320   32.3990 C   0  0  0  0  0  0  0  0  0  0  0  0
   67.5010   56.9810   32.4550 N   0  0  0  0  0  0  0  0  0  0  0  0
   66.7320   56.5000   31.4690 N   0  0  0  0  0  0  0  0  0  0  0  0
   68.2990   56.3220   33.4200 C   0  0  0  0  0  0  0  0  0  0  0  0
   67.7550   55.4350   34.3120 C   0  0  0  0  0  0  0  0  0  0  0  0
   68.4940   54.7700   35.2710 C   0  0  0  0  0  0  0  0  0  0  0  0
   69.8620   54.9970   35.3540 C   0  0  0  0  0  0  0  0  0  0  0  0
   70.3990   55.8890   34.4550 C   0  0  0  0  0  0  0  0  0  0  0  0
   69.6170   56.4920   33.5570 N   0  0  0  0  0  0  0  0  0  0  0  0
   71.2040   58.3560   35.9850 Cl  0  0  0  0  0  0  0  0  0  0  0  0
   72.3080   57.3010   35.1320 C   0  0  0  0  0  0  0  0  0  0  0  0
   71.8190   56.1930   34.4640 C   0  0  0  0  0  0  0  0  0  0  0  0
   72.7930   55.4550   33.8410 C   0  0  0  0  0  0  0  0  0  0  0  0
   74.1330   55.7610   33.8610 C   0  0  0  0  0  0  0  0  0  0  0  0
   74.5610   56.8760   34.5440 C   0  0  0  0  0  0  0  0  0  0  0  0
   73.6250   57.6520   35.1870 C   0  0  0  0  0  0  0  0  0  0  0  0
   64.5590   57.0950   27.4640 C   0  0  0  0  0  0  0  0  0  0  0  0
   63.1970   57.2380   27.8680 C   0  0  0  0  0  0  0  0  0  0  0  0
   62.9290   57.4680   29.2060 C   0  0  0  0  0  0  0  0  0  0  0  0
   63.9570   57.5500   30.0940 N   0  0  0  0  0  0  0  0  0  0  0  0
   65.2570   57.4080   29.6700 C   0  0  0  0  0  0  0  0  0  0  0  0
   65.5260   57.1900   28.3990 N   0  0  0  0  0  0  0  0  0  0  0  0
   62.1480   57.1340   26.8440 C   0  0  0  0  0  0  0  0  0  0  0  0
   61.6870   58.1580   26.0480 C   0  0  0  0  0  0  0  0  0  0  0  0
   60.7030   57.8940   25.1410 C   0  0  0  0  0  0  0  0  0  0  0  0
   60.1540   56.6590   24.9850 C   0  0  0  0  0  0  0  0  0  0  0  0
   60.5770   55.5970   25.7530 C   0  0  0  0  0  0  0  0  0  0  0  0
   61.5700   55.8730   26.6680 C   0  0  0  0  0  0  0  0  0  0  0  0
   66.3021   59.7509   31.0894 H   0  0  0  0  0  0  0  0  0  0  0  0
   67.9226   59.0217   33.0812 H   0  0  0  0  0  0  0  0  0  0  0  0
   66.6731   55.2426   34.2616 H   0  0  0  0  0  0  0  0  0  0  0  0
   68.0043   54.0679   35.9619 H   0  0  0  0  0  0  0  0  0  0  0  0
   70.4861   54.4877   36.1030 H   0  0  0  0  0  0  0  0  0  0  0  0
   72.4805   54.5571   33.2877 H   0  0  0  0  0  0  0  0  0  0  0  0
   74.8565   55.1202   33.3357 H   0  0  0  0  0  0  0  0  0  0  0  0
   75.6282   57.1410   34.5751 H   0  0  0  0  0  0  0  0  0  0  0  0
   73.9363   58.5494   35.7417 H   0  0  0  0  0  0  0  0  0  0  0  0
   64.8146   56.9108   26.4101 H   0  0  0  0  0  0  0  0  0  0  0  0
   61.8906   57.5839   29.5500 H   0  0  0  0  0  0  0  0  0  0  0  0
   62.1047   59.1713   26.1417 H   0  0  0  0  0  0  0  0  0  0  0  0
   60.3373   58.7158   24.5078 H   0  0  0  0  0  0  0  0  0  0  0  0
   59.3626   56.5069   24.2363 H   0  0  0  0  0  0  0  0  0  0  0  0
   60.1485   54.5899   25.6429 H   0  0  0  0  0  0  0  0  0  0  0  0
   61.9310   55.0485   27.3003 H   0  0  0  0  0  0  0  0  0  0  0  0
  1  2  1  0
  1  5  2  0
  2  3  2  0
  3  4  1  0
  4  6  1  0
  5  4  1  0
  6 11  1  0
  6  7  2  0
  7  8  1  0
  8  9  2  0
 10 14  1  0
 10  9  1  0
 11 10  2  0
 13 18  2  0
 13 12  1  0
 14 13  1  0
 15 16  1  0
 15 14  2  0
 16 17  2  0
 17 18  1  0
 19 20  2  0
 19 24  1  0
 20 21  1  0
 21 22  2  0
 23 22  1  0
 23  1  1  0
 24 23  2  0
 25 20  1  0
 26 25  2  0
 27 26  1  0
 28 27  2  0
 28 29  1  0
 29 30  2  0
 30 25  1  0
  2 31  1  0
  3 32  1  0
  7 33  1  0
  8 34  1  0
  9 35  1  0
 15 36  1  0
 16 37  1  0
 17 38  1  0
 18 39  1  0
 19 40  1  0
 21 41  1  0
 26 42  1  0
 27 43  1  0
 28 44  1  0
 29 45  1  0
 30 46  1  0
M  END
>  <Score>  (1) 
-7.3005

>  <Score_dual>  (1) 
-7.09

>  <Choices>  (1) 
[None, 7, ['1-28', 0], 14, ['22-9', 195], 26, ['6-5', 135], 35, ['7-15', 90]]

$$$$
