
     RDKit          3D

 51 55  0  0  0  0  0  0  0  0999 V2000
   63.7940   58.1170   30.1730 C   0  0  0  0  0  0  0  0  0  0  0  0
   64.9090   57.7810   31.0400 C   0  0  0  0  0  0  0  0  0  0  0  0
   65.8830   56.9150   30.6840 C   0  0  0  0  0  0  0  0  0  0  0  0
   66.9690   56.5710   31.4790 C   0  0  0  0  0  0  0  0  0  0  0  0
   67.0340   57.1850   32.7450 C   0  0  0  0  0  0  0  0  0  0  0  0
   66.0400   58.0600   33.0960 C   0  0  0  0  0  0  0  0  0  0  0  0
   65.0070   58.3560   32.2770 N   0  0  0  0  0  0  0  0  0  0  0  0
   67.7400   60.6790   33.5830 Cl  0  0  0  0  0  0  0  0  0  0  0  0
   66.6170   59.9220   34.6830 C   0  0  0  0  0  0  0  0  0  0  0  0
   65.9420   58.7780   34.3510 C   0  0  0  0  0  0  0  0  0  0  0  0
   65.1220   58.3620   35.3790 C   0  0  0  0  0  0  0  0  0  0  0  0
   64.9600   58.9750   36.6000 C   0  0  0  0  0  0  0  0  0  0  0  0
   65.6710   60.1200   36.8600 C   0  0  0  0  0  0  0  0  0  0  0  0
   66.5050   60.5880   35.8820 C   0  0  0  0  0  0  0  0  0  0  0  0
   62.9360   56.5400   26.9020 C   0  0  0  0  0  0  0  0  0  0  0  0
   62.7760   57.0470   28.2070 C   0  0  0  0  0  0  0  0  0  0  0  0
   63.8920   57.5780   28.8120 C   0  0  0  0  0  0  0  0  0  0  0  0
   65.0490   57.5840   28.1360 N   0  0  0  0  0  0  0  0  0  0  0  0
   65.1710   57.0970   26.9010 C   0  0  0  0  0  0  0  0  0  0  0  0
   64.1170   56.5660   26.2620 N   0  0  0  0  0  0  0  0  0  0  0  0
   61.6650   55.9880   26.3260 C   0  0  0  0  0  0  0  0  0  0  0  0
   61.0530   57.0220   25.4870 C   0  0  0  0  0  0  0  0  0  0  0  0
   61.6640   58.2840   25.4620 C   0  0  0  0  0  0  0  0  0  0  0  0
   61.1740   59.3020   24.6710 C   0  0  0  0  0  0  0  0  0  0  0  0
   60.0690   59.1580   23.8630 C   0  0  0  0  0  0  0  0  0  0  0  0
   59.4440   57.9060   23.8760 C   0  0  0  0  0  0  0  0  0  0  0  0
   58.3150   57.6860   23.0950 C   0  0  0  0  0  0  0  0  0  0  0  0
   57.6610   56.4710   23.0860 C   0  0  0  0  0  0  0  0  0  0  0  0
   58.1960   55.4790   23.9030 C   0  0  0  0  0  0  0  0  0  0  0  0
   59.3040   55.7110   24.6630 C   0  0  0  0  0  0  0  0  0  0  0  0
   59.9530   56.9090   24.6730 C   0  0  0  0  0  0  0  0  0  0  0  0
   62.8737   57.7257   30.6311 H   0  0  0  0  0  0  0  0  0  0  0  0
   63.7962   59.2126   30.0743 H   0  0  0  0  0  0  0  0  0  0  0  0
   65.8107   56.4476   29.6909 H   0  0  0  0  0  0  0  0  0  0  0  0
   67.7353   55.8589   31.1389 H   0  0  0  0  0  0  0  0  0  0  0  0
   67.8626   56.9673   33.4350 H   0  0  0  0  0  0  0  0  0  0  0  0
   64.5377   57.4464   35.2048 H   0  0  0  0  0  0  0  0  0  0  0  0
   64.2751   58.5563   37.3521 H   0  0  0  0  0  0  0  0  0  0  0  0
   65.5734   60.6436   37.8225 H   0  0  0  0  0  0  0  0  0  0  0  0
   67.0903   61.5031   36.0552 H   0  0  0  0  0  0  0  0  0  0  0  0
   61.8028   57.0195   28.7190 H   0  0  0  0  0  0  0  0  0  0  0  0
   66.1491   57.1309   26.3988 H   0  0  0  0  0  0  0  0  0  0  0  0
   61.8876   55.0990   25.7177 H   0  0  0  0  0  0  0  0  0  0  0  0
   60.9768   55.6991   27.1340 H   0  0  0  0  0  0  0  0  0  0  0  0
   62.5517   58.4656   26.0857 H   0  0  0  0  0  0  0  0  0  0  0  0
   61.6898   60.2734   24.6865 H   0  0  0  0  0  0  0  0  0  0  0  0
   59.6966   59.9841   23.2395 H   0  0  0  0  0  0  0  0  0  0  0  0
   57.9323   58.5036   22.4665 H   0  0  0  0  0  0  0  0  0  0  0  0
   56.7677   56.2963   22.4684 H   0  0  0  0  0  0  0  0  0  0  0  0
   57.7161   54.4898   23.9361 H   0  0  0  0  0  0  0  0  0  0  0  0
   59.6900   54.8971   25.2943 H   0  0  0  0  0  0  0  0  0  0  0  0
  1  2  1  0
  2  7  1  0
  3  2  2  0
  3  4  1  0
  4  5  2  0
  5  6  1  0
  6 10  1  0
  7  6  2  0
  8  9  1  0
  9 14  2  0
 10  9  1  0
 10 11  2  0
 11 12  1  0
 12 13  2  0
 14 13  1  0
 15 16  2  0
 16 17  1  0
 17  1  1  0
 18 17  2  0
 19 18  1  0
 20 19  2  0
 20 15  1  0
 21 15  1  0
 22 21  1  0
 23 22  2  0
 24 23  1  0
 25 26  1  0
 25 24  2  0
 26 31  2  0
 27 26  1  0
 28 27  2  0
 28 29  1  0
 29 30  2  0
 30 31  1  0
 31 22  1  0
  1 32  1  0
  1 33  1  0
  3 34  1  0
  4 35  1  0
  5 36  1  0
 11 37  1  0
 12 38  1  0
 13 39  1  0
 14 40  1  0
 16 41  1  0
 19 42  1  0
 21 43  1  0
 21 44  1  0
 23 45  1  0
 24 46  1  0
 25 47  1  0
 27 48  1  0
 28 49  1  0
 29 50  1  0
 30 51  1  0
M  END
>  <Score>  (1) 
-7.86009

>  <Score_dual>  (1) 
-7.31

>  <Choices>  (1) 
[None, 6, ['3-10', 0], 8, ['3-12', 0], 15, ['6-14', 75], 24, ['7-15', 105], 34, ['26-17', 30]]

$$$$
