
     RDKit          3D

 48 52  0  0  0  0  0  0  0  0999 V2000
   61.5980   56.2870   27.0320 C   0  0  0  0  0  0  0  0  0  0  0  0
   61.9750   55.4790   27.9210 O   0  0  0  0  0  0  0  0  0  0  0  0
   62.4540   57.4160   27.0120 N   0  0  0  0  0  0  0  0  0  0  0  0
   59.9170   57.4050   25.5300 C   0  0  0  0  0  0  0  0  0  0  0  0
   60.5560   56.3390   26.0690 C   0  0  0  0  0  0  0  0  0  0  0  0
   60.1790   55.0510   25.6130 C   0  0  0  0  0  0  0  0  0  0  0  0
   59.2030   54.8460   24.6540 C   0  0  0  0  0  0  0  0  0  0  0  0
   58.5710   55.9590   24.1210 C   0  0  0  0  0  0  0  0  0  0  0  0
   58.9500   57.2430   24.5790 C   0  0  0  0  0  0  0  0  0  0  0  0
   58.3130   58.4550   24.0250 C   0  0  0  0  0  0  0  0  0  0  0  0
   57.3000   59.1150   24.6660 C   0  0  0  0  0  0  0  0  0  0  0  0
   56.6790   60.2490   24.1780 C   0  0  0  0  0  0  0  0  0  0  0  0
   57.1300   60.7130   22.9810 N   0  0  0  0  0  0  0  0  0  0  0  0
   58.1400   60.0420   22.3560 C   0  0  0  0  0  0  0  0  0  0  0  0
   58.7300   58.9450   22.8410 N   0  0  0  0  0  0  0  0  0  0  0  0
   60.5910   59.7320   26.4600 N   0  0  0  0  0  0  0  0  0  0  0  0
   60.2950   58.6740   26.0320 C   0  0  0  0  0  0  0  0  0  0  0  0
   64.6900   57.3150   27.8200 C   0  0  0  0  0  0  0  0  0  0  0  0
   63.3310   57.5380   28.1960 C   0  0  0  0  0  0  0  0  0  0  0  0
   63.0800   57.7680   29.4930 C   0  0  0  0  0  0  0  0  0  0  0  0
   64.1180   57.7730   30.3610 N   0  0  0  0  0  0  0  0  0  0  0  0
   65.3660   57.5680   30.0200 C   0  0  0  0  0  0  0  0  0  0  0  0
   65.6600   57.3370   28.7450 N   0  0  0  0  0  0  0  0  0  0  0  0
   67.0170   58.7830   31.4020 C   0  0  0  0  0  0  0  0  0  0  0  0
   66.3820   57.6020   31.0700 C   0  0  0  0  0  0  0  0  0  0  0  0
   66.6950   56.4210   31.7250 C   0  0  0  0  0  0  0  0  0  0  0  0
   67.6670   56.4510   32.7300 C   0  0  0  0  0  0  0  0  0  0  0  0
   68.1120   55.4260   33.4790 N   0  0  0  0  0  0  0  0  0  0  0  0
   69.0470   55.9900   34.2960 C   0  0  0  0  0  0  0  0  0  0  0  0
   69.1370   57.3050   34.0250 N   0  0  0  0  0  0  0  0  0  0  0  0
   68.2820   57.6420   33.0400 C   0  0  0  0  0  0  0  0  0  0  0  0
   67.9870   58.8240   32.4020 C   0  0  0  0  0  0  0  0  0  0  0  0
   64.9650   57.0910   26.4440 N   0  0  0  0  0  0  0  0  0  0  0  0
   62.4644   58.0949   26.2374 H   0  0  0  0  0  0  0  0  0  0  0  0
   60.6859   54.1738   26.0414 H   0  0  0  0  0  0  0  0  0  0  0  0
   58.9366   53.8309   24.3245 H   0  0  0  0  0  0  0  0  0  0  0  0
   57.7889   55.8459   23.3558 H   0  0  0  0  0  0  0  0  0  0  0  0
   56.9577   58.7170   25.6327 H   0  0  0  0  0  0  0  0  0  0  0  0
   55.8663   60.7482   24.7261 H   0  0  0  0  0  0  0  0  0  0  0  0
   58.4923   60.4294   21.3886 H   0  0  0  0  0  0  0  0  0  0  0  0
   62.0531   57.9486   29.8435 H   0  0  0  0  0  0  0  0  0  0  0  0
   66.7524   59.7074   30.8677 H   0  0  0  0  0  0  0  0  0  0  0  0
   66.1897   55.4806   31.4599 H   0  0  0  0  0  0  0  0  0  0  0  0
   67.8145   54.4405   33.4435 H   0  0  0  0  0  0  0  0  0  0  0  0
   69.6347   55.4546   35.0563 H   0  0  0  0  0  0  0  0  0  0  0  0
   68.4951   59.7622   32.6696 H   0  0  0  0  0  0  0  0  0  0  0  0
   65.9328   56.9262   26.1324 H   0  0  0  0  0  0  0  0  0  0  0  0
   64.1965   57.0935   25.7582 H   0  0  0  0  0  0  0  0  0  0  0  0
  1  2  2  0
  3  1  1  0
  3 19  1  0
  4 17  1  0
  4  5  2  0
  5  1  1  0
  6  5  1  0
  7  6  2  0
  8  9  2  0
  8  7  1  0
  9  4  1  0
 10  9  1  0
 10 11  2  0
 12 11  1  0
 13 12  2  0
 14 15  2  0
 14 13  1  0
 15 10  1  0
 17 16  3  0
 18 19  2  0
 18 23  1  0
 19 20  1  0
 20 21  2  0
 22 21  1  0
 22 25  1  0
 23 22  2  0
 24 32  2  0
 25 24  1  0
 25 26  2  0
 26 27  1  0
 27 31  2  0
 27 28  1  0
 28 29  1  0
 30 29  2  0
 31 30  1  0
 32 31  1  0
 33 18  1  0
  3 34  1  0
  6 35  1  0
  7 36  1  0
  8 37  1  0
 11 38  1  0
 12 39  1  0
 14 40  1  0
 20 41  1  0
 24 42  1  0
 26 43  1  0
 28 44  1  0
 29 45  1  0
 32 46  1  0
 33 47  1  0
 33 48  1  0
M  END
>  <Score>  (1) 
-7.07958

>  <Score_dual>  (1) 
-7.07

>  <Choices>  (1) 
[None, 6, ['0-3', 0], 7, ['12-5', 240], 12, ['40-10', 330], 26, ['19-17', 150], 32, ['34-21', 60]]

$$$$
