
     RDKit          3D

 51 56  0  0  0  0  0  0  0  0999 V2000
   61.1410   60.2450   28.1960 F   0  0  0  0  0  0  0  0  0  0  0  0
   60.9560   59.1440   27.3890 C   0  0  0  0  0  0  0  0  0  0  0  0
   61.7380   58.0280   27.4850 C   0  0  0  0  0  0  0  0  0  0  0  0
   61.5080   56.9470   26.6470 C   0  0  0  0  0  0  0  0  0  0  0  0
   60.4960   56.9710   25.7050 C   0  0  0  0  0  0  0  0  0  0  0  0
   59.7220   58.1350   25.6450 C   0  0  0  0  0  0  0  0  0  0  0  0
   59.9270   59.2140   26.4580 C   0  0  0  0  0  0  0  0  0  0  0  0
   63.8670   57.2370   28.2200 C   0  0  0  0  0  0  0  0  0  0  0  0
   62.7790   58.0590   28.4850 C   0  0  0  0  0  0  0  0  0  0  0  0
   62.7860   58.8150   29.6530 C   0  0  0  0  0  0  0  0  0  0  0  0
   63.8570   58.7180   30.4820 N   0  0  0  0  0  0  0  0  0  0  0  0
   64.8920   57.9120   30.1920 C   0  0  0  0  0  0  0  0  0  0  0  0
   64.9140   57.1690   29.0730 N   0  0  0  0  0  0  0  0  0  0  0  0
   66.0120   57.8240   31.0840 N   0  0  0  0  0  0  0  0  0  0  0  0
   66.4680   56.6370   31.5460 C   0  0  0  0  0  0  0  0  0  0  0  0
   67.5340   56.8980   32.3650 N   0  0  0  0  0  0  0  0  0  0  0  0
   67.7000   58.2280   32.3830 C   0  0  0  0  0  0  0  0  0  0  0  0
   68.6290   59.0130   33.0500 C   0  0  0  0  0  0  0  0  0  0  0  0
   68.5690   60.3700   32.8810 N   0  0  0  0  0  0  0  0  0  0  0  0
   67.6210   60.9290   32.0840 C   0  0  0  0  0  0  0  0  0  0  0  0
   66.6940   60.1810   31.4170 N   0  0  0  0  0  0  0  0  0  0  0  0
   66.7460   58.8260   31.5760 C   0  0  0  0  0  0  0  0  0  0  0  0
   59.1080   60.4250   26.3800 C   0  0  0  0  0  0  0  0  0  0  0  0
   59.5140   61.4050   25.4860 C   0  0  0  0  0  0  0  0  0  0  0  0
   58.7440   62.5520   25.4090 C   0  0  0  0  0  0  0  0  0  0  0  0
   57.6170   62.6630   26.2210 C   0  0  0  0  0  0  0  0  0  0  0  0
   57.2370   61.6790   27.0960 C   0  0  0  0  0  0  0  0  0  0  0  0
   56.1010   61.8650   27.8720 C   0  0  0  0  0  0  0  0  0  0  0  0
   55.7150   60.8720   28.7580 C   0  0  0  0  0  0  0  0  0  0  0  0
   56.4880   59.7320   28.8290 C   0  0  0  0  0  0  0  0  0  0  0  0
   57.6160   59.5530   28.0560 C   0  0  0  0  0  0  0  0  0  0  0  0
   58.0040   60.5260   27.1800 C   0  0  0  0  0  0  0  0  0  0  0  0
   60.3000   55.8550   24.8810 N   0  0  0  0  0  0  0  0  0  0  0  0
   62.1431   56.0530   26.7334 H   0  0  0  0  0  0  0  0  0  0  0  0
   58.9080   58.1840   24.9067 H   0  0  0  0  0  0  0  0  0  0  0  0
   63.8770   56.6317   27.3016 H   0  0  0  0  0  0  0  0  0  0  0  0
   61.9425   59.4767   29.8994 H   0  0  0  0  0  0  0  0  0  0  0  0
   66.0578   55.6446   31.3076 H   0  0  0  0  0  0  0  0  0  0  0  0
   68.5132   58.8128   34.1254 H   0  0  0  0  0  0  0  0  0  0  0  0
   69.5952   58.7258   32.6095 H   0  0  0  0  0  0  0  0  0  0  0  0
   67.5997   62.0231   31.9723 H   0  0  0  0  0  0  0  0  0  0  0  0
   65.9826   60.6220   30.8168 H   0  0  0  0  0  0  0  0  0  0  0  0
   60.4117   61.2755   24.8636 H   0  0  0  0  0  0  0  0  0  0  0  0
   59.0171   63.3631   24.7180 H   0  0  0  0  0  0  0  0  0  0  0  0
   57.0081   63.5769   26.1571 H   0  0  0  0  0  0  0  0  0  0  0  0
   55.5135   62.7909   27.7844 H   0  0  0  0  0  0  0  0  0  0  0  0
   54.8193   60.9894   29.3856 H   0  0  0  0  0  0  0  0  0  0  0  0
   56.1938   58.9356   29.5285 H   0  0  0  0  0  0  0  0  0  0  0  0
   58.2029   58.6269   28.1451 H   0  0  0  0  0  0  0  0  0  0  0  0
   59.5494   55.8611   24.1756 H   0  0  0  0  0  0  0  0  0  0  0  0
   60.9065   55.0284   24.9806 H   0  0  0  0  0  0  0  0  0  0  0  0
  2  3  2  0
  2  1  1  0
  3  9  1  0
  4  3  1  0
  5  4  2  0
  6  5  1  0
  6  7  2  0
  7  2  1  0
  8  9  2  0
  8 13  1  0
  9 10  1  0
 10 11  2  0
 12 11  1  0
 12 14  1  0
 13 12  2  0
 14 15  1  0
 14 22  1  0
 15 16  2  0
 16 17  1  0
 17 18  1  0
 19 18  1  0
 20 19  2  0
 21 22  1  0
 21 20  1  0
 22 17  2  0
 23  7  1  0
 23 32  1  0
 24 23  2  0
 25 24  1  0
 25 26  2  0
 26 27  1  0
 27 32  2  0
 27 28  1  0
 28 29  2  0
 29 30  1  0
 31 30  2  0
 32 31  1  0
 33  5  1  0
  4 34  1  0
  6 35  1  0
  8 36  1  0
 10 37  1  0
 15 38  1  0
 18 39  1  0
 18 40  1  0
 20 41  1  0
 21 42  1  0
 24 43  1  0
 25 44  1  0
 26 45  1  0
 28 46  1  0
 29 47  1  0
 30 48  1  0
 31 49  1  0
 33 50  1  0
 33 51  1  0
M  END
>  <Score>  (1) 
-7.57001

>  <Score_dual>  (1) 
-8.15

>  <Choices>  (1) 
[None, 7, ['9-20', 345], 17, ['0-3', 30], 19, ['45-13', 150], 32, ['26-22', 285]]

$$$$
