
     RDKit          3D

 52 56  0  0  0  0  0  0  0  0999 V2000
   60.5080   63.0210   29.0850 C   0  0  0  0  0  0  0  0  0  0  0  0
   60.1070   63.9940   29.9520 C   0  0  0  0  0  0  0  0  0  0  0  0
   60.9770   64.6710   30.7930 C   0  0  0  0  0  0  0  0  0  0  0  0
   62.3090   64.2700   30.6790 C   0  0  0  0  0  0  0  0  0  0  0  0
   62.6980   63.2830   29.7960 C   0  0  0  0  0  0  0  0  0  0  0  0
   61.7900   62.6820   29.0200 N   0  0  0  0  0  0  0  0  0  0  0  0
   64.0990   62.8770   29.6910 C   0  0  0  0  0  0  0  0  0  0  0  0
   64.6850   61.8520   30.3800 C   0  0  0  0  0  0  0  0  0  0  0  0
   66.0150   61.7520   30.0350 C   0  0  0  0  0  0  0  0  0  0  0  0
   66.2080   62.7300   29.1370 N   0  0  0  0  0  0  0  0  0  0  0  0
   65.0890   63.4140   28.9130 N   0  0  0  0  0  0  0  0  0  0  0  0
   67.4870   63.0040   28.4900 C   0  0  0  0  0  0  0  0  0  0  0  0
   67.2490   63.9460   27.3300 C   0  0  0  0  0  0  0  0  0  0  0  0
   68.1690   65.1450   27.4490 C   0  0  0  0  0  0  0  0  0  0  0  0
   68.0920   65.7770   28.6660 O   0  0  0  0  0  0  0  0  0  0  0  0
   68.4030   64.9860   29.7510 C   0  0  0  0  0  0  0  0  0  0  0  0
   68.5080   63.5330   29.4390 C   0  0  0  0  0  0  0  0  0  0  0  0
   59.5200   62.3560   28.2320 C   0  0  0  0  0  0  0  0  0  0  0  0
   58.3040   62.6120   28.4660 O   0  0  0  0  0  0  0  0  0  0  0  0
   60.8350   59.3050   26.5280 C   0  0  0  0  0  0  0  0  0  0  0  0
   60.4270   60.2060   27.5400 C   0  0  0  0  0  0  0  0  0  0  0  0
   59.9300   61.4540   27.1760 C   0  0  0  0  0  0  0  0  0  0  0  0
   59.8570   61.7490   25.8580 N   0  0  0  0  0  0  0  0  0  0  0  0
   60.2590   60.8540   24.9110 C   0  0  0  0  0  0  0  0  0  0  0  0
   60.7350   59.6620   25.2640 N   0  0  0  0  0  0  0  0  0  0  0  0
   61.3580   57.9930   26.9130 C   0  0  0  0  0  0  0  0  0  0  0  0
   61.1880   56.8420   26.2110 C   0  0  0  0  0  0  0  0  0  0  0  0
   61.6990   55.6280   26.6130 C   0  0  0  0  0  0  0  0  0  0  0  0
   62.4230   55.5280   27.7710 C   0  0  0  0  0  0  0  0  0  0  0  0
   62.6200   56.6830   28.5190 C   0  0  0  0  0  0  0  0  0  0  0  0
   62.0940   57.8540   28.0760 C   0  0  0  0  0  0  0  0  0  0  0  0
   59.0390   64.2551   29.9860 H   0  0  0  0  0  0  0  0  0  0  0  0
   60.6463   65.4557   31.4893 H   0  0  0  0  0  0  0  0  0  0  0  0
   63.0693   64.7536   31.3099 H   0  0  0  0  0  0  0  0  0  0  0  0
   64.1703   61.2026   31.1034 H   0  0  0  0  0  0  0  0  0  0  0  0
   66.7546   61.0304   30.4121 H   0  0  0  0  0  0  0  0  0  0  0  0
   67.9050   62.0582   28.1148 H   0  0  0  0  0  0  0  0  0  0  0  0
   66.2027   64.2852   27.3430 H   0  0  0  0  0  0  0  0  0  0  0  0
   67.4551   63.4207   26.3857 H   0  0  0  0  0  0  0  0  0  0  0  0
   69.2044   64.8055   27.2980 H   0  0  0  0  0  0  0  0  0  0  0  0
   67.8525   65.8721   26.6867 H   0  0  0  0  0  0  0  0  0  0  0  0
   69.3685   65.3220   30.1571 H   0  0  0  0  0  0  0  0  0  0  0  0
   67.5766   65.0957   30.4686 H   0  0  0  0  0  0  0  0  0  0  0  0
   68.4137   62.9762   30.3830 H   0  0  0  0  0  0  0  0  0  0  0  0
   69.4798   63.4009   28.9409 H   0  0  0  0  0  0  0  0  0  0  0  0
   60.5017   59.9237   28.6005 H   0  0  0  0  0  0  0  0  0  0  0  0
   60.1893   61.1194   23.8458 H   0  0  0  0  0  0  0  0  0  0  0  0
   60.6130   56.8820   25.2741 H   0  0  0  0  0  0  0  0  0  0  0  0
   61.5243   54.7320   25.9993 H   0  0  0  0  0  0  0  0  0  0  0  0
   62.8362   54.5629   28.0994 H   0  0  0  0  0  0  0  0  0  0  0  0
   63.1940   56.6489   29.4567 H   0  0  0  0  0  0  0  0  0  0  0  0
   62.2651   58.7545   28.6842 H   0  0  0  0  0  0  0  0  0  0  0  0
  1  2  2  0
  2  3  1  0
  4  3  2  0
  5  4  1  0
  6  1  1  0
  6  5  2  0
  7  5  1  0
  7  8  1  0
  9  8  2  0
 10  9  1  0
 11 10  1  0
 11  7  2  0
 12 10  1  0
 12 17  1  0
 13 14  1  0
 13 12  1  0
 14 15  1  0
 15 16  1  0
 17 16  1  0
 18 19  2  0
 18  1  1  0
 20 26  1  0
 20 21  2  0
 22 21  1  0
 22 18  1  0
 23 22  2  0
 24 25  2  0
 24 23  1  0
 25 20  1  0
 26 31  2  0
 27 28  2  0
 27 26  1  0
 28 29  1  0
 29 30  2  0
 31 30  1  0
  2 32  1  0
  3 33  1  0
  4 34  1  0
  8 35  1  0
  9 36  1  0
 12 37  1  0
 13 38  1  0
 13 39  1  0
 14 40  1  0
 14 41  1  0
 16 42  1  0
 16 43  1  0
 17 44  1  0
 17 45  1  0
 21 46  1  0
 24 47  1  0
 27 48  1  0
 28 49  1  0
 29 50  1  0
 30 51  1  0
 31 52  1  0
M  END
>  <Score>  (1) 
-7.76354

>  <Score_dual>  (1) 
-7.22

>  <Choices>  (1) 
[None, 8, ['5-9', 105], 8, ['1-26', 120], 21, ['6-2', 15], 30, ['22-8', 120], 37, ['56-19', 225]]

$$$$
