
     RDKit          3D

 47 51  0  0  1  0  0  0  0  0999 V2000
   60.0390   59.7640   25.5120 C   0  0  2  0  0  0  0  0  0  0  0  0
   60.4120   60.6340   26.6420 C   0  0  0  0  0  0  0  0  0  0  0  0
   58.9280   60.3320   26.3270 C   0  0  1  0  0  0  0  0  0  0  0  0
   57.2590   61.6280   28.5250 Cl  0  0  0  0  0  0  0  0  0  0  0  0
   57.2970   62.0690   26.8180 C   0  0  0  0  0  0  0  0  0  0  0  0
   58.1170   61.4480   25.8810 C   0  0  0  0  0  0  0  0  0  0  0  0
   58.0830   61.8760   24.5890 C   0  0  0  0  0  0  0  0  0  0  0  0
   57.2740   62.9120   24.1210 C   0  0  0  0  0  0  0  0  0  0  0  0
   56.4820   63.4910   25.0980 C   0  0  0  0  0  0  0  0  0  0  0  0
   56.4680   63.1080   26.4130 C   0  0  0  0  0  0  0  0  0  0  0  0
   56.1580   64.9710   27.8630 C   0  0  0  0  0  0  0  0  0  0  0  0
   55.5840   63.8040   27.3450 C   0  0  0  0  0  0  0  0  0  0  0  0
   54.3120   63.4850   27.7720 C   0  0  0  0  0  0  0  0  0  0  0  0
   53.6700   64.3000   28.6650 C   0  0  0  0  0  0  0  0  0  0  0  0
   52.4350   64.1250   29.1730 N   0  0  0  0  0  0  0  0  0  0  0  0
   52.2010   65.1490   30.0030 N   0  0  0  0  0  0  0  0  0  0  0  0
   53.2590   65.9640   30.0310 C   0  0  0  0  0  0  0  0  0  0  0  0
   54.2280   65.4440   29.1750 C   0  0  0  0  0  0  0  0  0  0  0  0
   55.4970   65.7820   28.7630 C   0  0  0  0  0  0  0  0  0  0  0  0
   61.3110   56.2240   25.5420 C   0  0  0  0  0  0  0  0  0  0  0  0
   61.3300   57.5990   25.5980 C   0  0  0  0  0  0  0  0  0  0  0  0
   60.1300   58.2950   25.5550 C   0  0  0  0  0  0  0  0  0  0  0  0
   58.9970   57.5340   25.4530 N   0  0  0  0  0  0  0  0  0  0  0  0
   59.0120   56.1800   25.3970 C   0  0  0  0  0  0  0  0  0  0  0  0
   60.1840   55.5210   25.4420 N   0  0  0  0  0  0  0  0  0  0  0  0
   57.7400   55.3980   25.2720 C   0  0  0  0  0  0  0  0  0  0  0  0
   56.9710   55.8700   24.2250 F   0  0  0  0  0  0  0  0  0  0  0  0
   58.0020   54.0600   25.1460 F   0  0  0  0  0  0  0  0  0  0  0  0
   57.0620   55.5740   26.4580 F   0  0  0  0  0  0  0  0  0  0  0  0
   62.5330   55.5760   25.6410 N   0  0  0  0  0  0  0  0  0  0  0  0
   62.5480   58.3120   25.7000 N   0  0  0  0  0  0  0  0  0  0  0  0
   60.3749   59.7846   24.4647 H   0  0  0  0  0  0  0  0  0  0  0  0
   60.8853   60.2045   27.5373 H   0  0  0  0  0  0  0  0  0  0  0  0
   61.0175   61.5443   26.7630 H   0  0  0  0  0  0  0  0  0  0  0  0
   58.0536   59.8863   26.8238 H   0  0  0  0  0  0  0  0  0  0  0  0
   58.7382   61.3704   23.8644 H   0  0  0  0  0  0  0  0  0  0  0  0
   57.2661   63.2392   23.0708 H   0  0  0  0  0  0  0  0  0  0  0  0
   55.8184   64.3152   24.7975 H   0  0  0  0  0  0  0  0  0  0  0  0
   57.1718   65.2515   27.5413 H   0  0  0  0  0  0  0  0  0  0  0  0
   53.8149   62.5785   27.3962 H   0  0  0  0  0  0  0  0  0  0  0  0
   51.7913   63.3489   28.9624 H   0  0  0  0  0  0  0  0  0  0  0  0
   53.3496   66.8848   30.6259 H   0  0  0  0  0  0  0  0  0  0  0  0
   55.9807   66.6917   29.1482 H   0  0  0  0  0  0  0  0  0  0  0  0
   62.5750   54.5475   25.6048 H   0  0  0  0  0  0  0  0  0  0  0  0
   63.3987   56.1232   25.7507 H   0  0  0  0  0  0  0  0  0  0  0  0
   62.5404   59.3412   25.7406 H   0  0  0  0  0  0  0  0  0  0  0  0
   63.4421   57.8018   25.7336 H   0  0  0  0  0  0  0  0  0  0  0  0
  1 22  1  0
  1  3  1  0
  1  2  1  0
  3  2  1  0
  5  4  1  0
  6  3  1  0
  6  5  2  0
  7  6  1  0
  8  7  2  0
  8  9  1  0
  9 10  2  0
 10  5  1  0
 10 12  1  0
 11 19  2  0
 12 13  2  0
 12 11  1  0
 13 14  1  0
 14 15  1  0
 14 18  2  0
 15 16  1  0
 16 17  2  0
 18 17  1  0
 19 18  1  0
 20 21  2  0
 20 30  1  0
 21 31  1  0
 22 21  1  0
 23 22  2  0
 24 25  2  0
 24 23  1  0
 25 20  1  0
 26 24  1  0
 26 29  1  0
 27 26  1  0
 28 26  1  0
  1 32  1  6
  2 33  1  0
  2 34  1  0
  3 35  1  1
  7 36  1  0
  8 37  1  0
  9 38  1  0
 11 39  1  0
 13 40  1  0
 15 41  1  0
 17 42  1  0
 19 43  1  0
 30 44  1  0
 30 45  1  0
 31 46  1  0
 31 47  1  0
M  END
>  <Score>  (1) 
-7.36453

>  <Score_dual>  (1) 
-7.71

>  <Choices>  (1) 
[None, 6, ['0-3', 0], 7, ['0-3', 0], 9, ['11-12', 330], 12, ['16-22', 225], 23, ['7-16', 60], 29, ['54-7', 240]]

$$$$
