
     RDKit          3D

 58 63  0  0  1  0  0  0  0  0999 V2000
   67.8250   56.0610   31.9120 Cl  0  0  0  0  0  0  0  0  0  0  0  0
   66.6650   57.0400   32.7880 C   0  0  0  0  0  0  0  0  0  0  0  0
   65.5860   57.5420   32.1030 C   0  0  0  0  0  0  0  0  0  0  0  0
   64.6970   58.3160   32.8630 C   0  0  0  0  0  0  0  0  0  0  0  0
   64.8700   58.5730   34.2070 C   0  0  0  0  0  0  0  0  0  0  0  0
   65.9910   58.0170   34.7940 C   0  0  0  0  0  0  0  0  0  0  0  0
   66.9170   57.2450   34.1300 C   0  0  0  0  0  0  0  0  0  0  0  0
   62.6500   56.6040   26.7900 C   0  0  0  0  0  0  0  0  0  0  0  0
   62.7340   56.8460   28.1510 C   0  0  0  0  0  0  0  0  0  0  0  0
   63.9720   57.1230   28.7230 C   0  0  0  0  0  0  0  0  0  0  0  0
   65.0220   57.1400   27.9160 N   0  0  0  0  0  0  0  0  0  0  0  0
   64.9410   56.9030   26.5820 C   0  0  0  0  0  0  0  0  0  0  0  0
   63.7430   56.6420   26.0660 N   0  0  0  0  0  0  0  0  0  0  0  0
   66.0440   56.9160   25.7040 N   0  0  0  0  0  0  0  0  0  0  0  0
   65.3730   57.2950   30.6910 C   0  0  0  0  0  0  0  0  0  0  0  0
   66.3960   57.0090   29.9980 O   0  0  0  0  0  0  0  0  0  0  0  0
   64.0670   57.3720   30.1170 N   0  0  0  0  0  0  0  0  0  0  0  0
   61.2960   56.3080   26.2020 C   0  0  0  0  0  0  0  0  0  0  0  0
   60.4400   57.3750   26.4380 F   0  0  0  0  0  0  0  0  0  0  0  0
   61.4880   56.0260   24.8690 F   0  0  0  0  0  0  0  0  0  0  0  0
   60.8170   55.2270   26.8740 F   0  0  0  0  0  0  0  0  0  0  0  0
   68.0170   56.7620   34.9290 C   0  0  0  0  0  0  0  0  0  0  0  0
   68.1500   55.6130   35.6300 C   0  0  0  0  0  0  0  0  0  0  0  0
   69.2160   55.2060   36.3710 C   0  0  0  0  0  0  0  0  0  0  0  0
   70.2960   56.0320   36.4340 C   0  0  0  0  0  0  0  0  0  0  0  0
   70.1870   57.1940   35.7370 C   0  0  0  0  0  0  0  0  0  0  0  0
   69.1170   57.5400   35.0280 N   0  0  0  0  0  0  0  0  0  0  0  0
   71.3770   58.1660   35.7680 C   0  0  0  0  0  0  0  0  0  0  0  0
   72.6160   57.4850   36.1420 C   0  0  0  0  0  0  0  0  0  0  0  0
   73.2970   56.7060   35.3260 C   0  0  0  0  0  0  0  0  0  0  0  0
   74.4690   56.1200   35.8390 N   0  0  0  0  0  0  0  0  0  0  0  0
   75.7840   55.6140   35.6840 C   0  0  1  0  0  0  0  0  0  0  0  0
   76.5420   55.3730   34.6890 O   0  0  0  0  0  0  0  0  0  0  0  0
   76.0430   55.4330   37.1090 C   0  0  0  0  0  0  0  0  0  0  0  0
   74.5950   55.7750   37.2390 C   0  0  2  0  0  0  0  0  0  0  0  0
   74.4330   57.3370   38.1440 S   0  0  0  0  0  0  0  0  0  0  0  0
   72.8280   57.8950   37.5250 C   0  0  0  0  0  0  0  0  0  0  0  0
   72.9240   56.4100   33.9410 C   0  0  0  0  0  0  0  0  0  0  0  0
   72.1910   55.5700   33.3660 O   0  0  0  0  0  0  0  0  0  0  0  0
   73.4120   57.1400   32.8890 O   0  0  0  0  0  0  0  0  0  0  0  0
   63.8152   58.7405   32.3607 H   0  0  0  0  0  0  0  0  0  0  0  0
   64.1570   59.1851   34.7787 H   0  0  0  0  0  0  0  0  0  0  0  0
   66.1543   58.2044   35.8655 H   0  0  0  0  0  0  0  0  0  0  0  0
   61.8287   56.8195   28.7753 H   0  0  0  0  0  0  0  0  0  0  0  0
   65.9061   56.7266   24.7010 H   0  0  0  0  0  0  0  0  0  0  0  0
   66.9877   57.1149   26.0655 H   0  0  0  0  0  0  0  0  0  0  0  0
   63.2377   57.5965   30.6851 H   0  0  0  0  0  0  0  0  0  0  0  0
   67.2928   54.9244   35.5970 H   0  0  0  0  0  0  0  0  0  0  0  0
   69.2054   54.2422   36.9011 H   0  0  0  0  0  0  0  0  0  0  0  0
   71.1972   55.7762   37.0106 H   0  0  0  0  0  0  0  0  0  0  0  0
   71.5011   58.6110   34.7697 H   0  0  0  0  0  0  0  0  0  0  0  0
   71.1693   58.9418   36.5196 H   0  0  0  0  0  0  0  0  0  0  0  0
   77.4332   55.0897   35.0140 H   0  0  0  0  0  0  0  0  0  0  0  0
   76.3188   54.4131   37.4151 H   0  0  0  0  0  0  0  0  0  0  0  0
   76.8463   55.9476   37.6566 H   0  0  0  0  0  0  0  0  0  0  0  0
   72.7847   58.9926   37.5829 H   0  0  0  0  0  0  0  0  0  0  0  0
   72.0419   57.4385   38.1444 H   0  0  0  0  0  0  0  0  0  0  0  0
   73.1416   56.9160   31.9634 H   0  0  0  0  0  0  0  0  0  0  0  0
  1  2  1  0
  2  7  2  0
  3  2  1  0
  3  4  2  0
  4  5  1  0
  5  6  2  0
  7  6  1  0
  7 22  1  0
  8  9  2  0
  9 10  1  0
 10 17  1  0
 11 10  2  0
 12 11  1  0
 13 12  2  0
 13  8  1  0
 14 12  1  0
 15  3  1  0
 16 15  2  0
 17 15  1  0
 18 19  1  0
 18  8  1  0
 18 21  1  0
 20 18  1  0
 22 27  1  0
 22 23  2  0
 23 24  1  0
 24 25  2  0
 26 28  1  0
 26 25  1  0
 27 26  2  0
 28 29  1  0
 29 37  1  0
 30 31  1  0
 30 29  2  0
 31 35  1  0
 32 33  1  6
 32 31  1  0
 32 34  1  0
 32 35  1  0
 35 34  1  0
 35 36  1  6
 37 36  1  0
 38 30  1  0
 39 38  2  0
 40 38  1  0
  4 41  1  0
  5 42  1  0
  6 43  1  0
  9 44  1  0
 14 45  1  0
 14 46  1  0
 17 47  1  0
 23 48  1  0
 24 49  1  0
 25 50  1  0
 28 51  1  0
 28 52  1  0
 33 53  1  0
 34 54  1  0
 34 55  1  0
 37 56  1  0
 37 57  1  0
 40 58  1  0
M  END
>  <Score>  (1) 
-7.0151

>  <Score_dual>  (1) 
-8.52

>  <Choices>  (1) 
[None, 6, ['11-12', 45], 12, ['0-2', 0], 12, ['12-6', 75], 17, ['7-3', 330], 28, ['6-14', 240], 37, ['55-14', 300]]

$$$$
