
     RDKit          3D

 45 50  0  0  0  0  0  0  0  0999 V2000
   64.4840   57.0100   27.7530 C   0  0  0  0  0  0  0  0  0  0  0  0
   63.1300   57.3490   27.9160 C   0  0  0  0  0  0  0  0  0  0  0  0
   62.7440   57.9350   29.1040 C   0  0  0  0  0  0  0  0  0  0  0  0
   63.6760   58.1680   30.0800 N   0  0  0  0  0  0  0  0  0  0  0  0
   64.9630   57.8340   29.8970 C   0  0  0  0  0  0  0  0  0  0  0  0
   65.3710   57.2570   28.7390 N   0  0  0  0  0  0  0  0  0  0  0  0
   65.9530   58.0820   30.9320 C   0  0  0  0  0  0  0  0  0  0  0  0
   66.2930   59.3730   31.2780 C   0  0  0  0  0  0  0  0  0  0  0  0
   67.2260   59.5760   32.2530 C   0  0  0  0  0  0  0  0  0  0  0  0
   67.8800   58.5730   32.9440 C   0  0  0  0  0  0  0  0  0  0  0  0
   67.5220   57.3130   32.5790 C   0  0  0  0  0  0  0  0  0  0  0  0
   66.5990   57.0720   31.6150 C   0  0  0  0  0  0  0  0  0  0  0  0
   68.3100   55.9520   33.4130 S   0  0  0  0  0  0  0  0  0  0  0  0
   69.4440   56.6570   34.5940 C   0  0  0  0  0  0  0  0  0  0  0  0
   70.1840   55.8270   35.3730 C   0  0  0  0  0  0  0  0  0  0  0  0
   71.0760   56.3040   36.3030 C   0  0  0  0  0  0  0  0  0  0  0  0
   71.1920   57.6580   36.4160 C   0  0  0  0  0  0  0  0  0  0  0  0
   70.4260   58.4740   35.6080 C   0  0  0  0  0  0  0  0  0  0  0  0
   69.5210   58.0270   34.6660 C   0  0  0  0  0  0  0  0  0  0  0  0
   68.8110   58.9730   33.9150 N   0  0  0  0  0  0  0  0  0  0  0  0
   62.1870   57.0890   26.8750 C   0  0  0  0  0  0  0  0  0  0  0  0
   61.7450   55.8490   26.4820 C   0  0  0  0  0  0  0  0  0  0  0  0
   60.8210   55.9790   25.4270 C   0  0  0  0  0  0  0  0  0  0  0  0
   60.7570   57.3040   25.2420 N   0  0  0  0  0  0  0  0  0  0  0  0
   61.5530   57.9550   26.0840 N   0  0  0  0  0  0  0  0  0  0  0  0
   59.9720   58.0300   24.2930 C   0  0  0  0  0  0  0  0  0  0  0  0
   58.7030   57.7670   23.8310 C   0  0  0  0  0  0  0  0  0  0  0  0
   58.4260   58.7830   22.9280 C   0  0  0  0  0  0  0  0  0  0  0  0
   59.5010   59.6150   22.8670 N   0  0  0  0  0  0  0  0  0  0  0  0
   60.4360   59.1510   23.6970 N   0  0  0  0  0  0  0  0  0  0  0  0
   64.8222   56.5411   26.8172 H   0  0  0  0  0  0  0  0  0  0  0  0
   61.6924   58.2138   29.2664 H   0  0  0  0  0  0  0  0  0  0  0  0
   65.8182   60.2281   30.7745 H   0  0  0  0  0  0  0  0  0  0  0  0
   67.4766   60.6162   32.5084 H   0  0  0  0  0  0  0  0  0  0  0  0
   66.3553   56.0283   31.3674 H   0  0  0  0  0  0  0  0  0  0  0  0
   70.0659   54.7396   35.2561 H   0  0  0  0  0  0  0  0  0  0  0  0
   71.6709   55.6230   36.9294 H   0  0  0  0  0  0  0  0  0  0  0  0
   71.8899   58.0961   37.1447 H   0  0  0  0  0  0  0  0  0  0  0  0
   70.5455   59.5614   35.7232 H   0  0  0  0  0  0  0  0  0  0  0  0
   68.9747   59.9768   34.0779 H   0  0  0  0  0  0  0  0  0  0  0  0
   62.0656   54.8950   26.9260 H   0  0  0  0  0  0  0  0  0  0  0  0
   60.2832   55.1859   24.8868 H   0  0  0  0  0  0  0  0  0  0  0  0
   58.0484   56.9304   24.1165 H   0  0  0  0  0  0  0  0  0  0  0  0
   57.4930   58.8970   22.3566 H   0  0  0  0  0  0  0  0  0  0  0  0
   59.5791   60.4582   22.2806 H   0  0  0  0  0  0  0  0  0  0  0  0
  1  2  2  0
  1  6  1  0
  2  3  1  0
  3  4  2  0
  5  4  1  0
  5  7  1  0
  6  5  2  0
  7  8  2  0
  7 12  1  0
  8  9  1  0
  9 10  2  0
 10 20  1  0
 11 10  1  0
 11 13  1  0
 12 11  2  0
 13 14  1  0
 14 19  2  0
 14 15  1  0
 15 16  2  0
 16 17  1  0
 18 17  2  0
 19 18  1  0
 20 19  1  0
 21  2  1  0
 22 21  1  0
 23 22  2  0
 24 23  1  0
 24 25  1  0
 25 21  2  0
 26 24  1  0
 27 26  1  0
 28 27  2  0
 29 28  1  0
 29 30  1  0
 30 26  2  0
  1 31  1  0
  3 32  1  0
  8 33  1  0
  9 34  1  0
 12 35  1  0
 15 36  1  0
 16 37  1  0
 17 38  1  0
 18 39  1  0
 20 40  1  0
 22 41  1  0
 23 42  1  0
 27 43  1  0
 28 44  1  0
 29 45  1  0
M  END
>  <Score>  (1) 
-7.38228

>  <Score_dual>  (1) 
-7.22

>  <Choices>  (1) 
[None, 7, ['22-8', 225], 16, ['22-9', 255], 23, ['60-8', 255]]

$$$$
