
     RDKit          3D

 51 55  0  0  0  0  0  0  0  0999 V2000
   62.5960   57.0850   28.2150 C   0  0  0  0  0  0  0  0  0  0  0  0
   62.8160   56.1030   28.9720 O   0  0  0  0  0  0  0  0  0  0  0  0
   63.5540   58.1050   28.4450 N   0  0  0  0  0  0  0  0  0  0  0  0
   60.8560   58.5080   27.0700 C   0  0  0  0  0  0  0  0  0  0  0  0
   61.6440   57.4120   27.2050 C   0  0  0  0  0  0  0  0  0  0  0  0
   61.5680   56.4240   26.1990 C   0  0  0  0  0  0  0  0  0  0  0  0
   60.7330   56.5280   25.0960 C   0  0  0  0  0  0  0  0  0  0  0  0
   59.9430   57.6630   24.9910 C   0  0  0  0  0  0  0  0  0  0  0  0
   60.0220   58.6520   26.0000 C   0  0  0  0  0  0  0  0  0  0  0  0
   59.2090   59.8820   25.9170 C   0  0  0  0  0  0  0  0  0  0  0  0
   57.9480   59.9700   26.4410 C   0  0  0  0  0  0  0  0  0  0  0  0
   57.1580   61.1040   26.3770 C   0  0  0  0  0  0  0  0  0  0  0  0
   57.7060   62.1850   25.7410 N   0  0  0  0  0  0  0  0  0  0  0  0
   58.9550   62.0730   25.2300 C   0  0  0  0  0  0  0  0  0  0  0  0
   59.7120   60.9700   25.2970 N   0  0  0  0  0  0  0  0  0  0  0  0
   60.9890   60.2530   28.9880 N   0  0  0  0  0  0  0  0  0  0  0  0
   60.9400   59.4610   28.1150 C   0  0  0  0  0  0  0  0  0  0  0  0
   65.5620   57.2520   29.4030 C   0  0  0  0  0  0  0  0  0  0  0  0
   64.3380   57.9300   29.6850 C   0  0  0  0  0  0  0  0  0  0  0  0
   64.0920   58.2400   30.9680 C   0  0  0  0  0  0  0  0  0  0  0  0
   65.0080   57.8920   31.9010 N   0  0  0  0  0  0  0  0  0  0  0  0
   66.1280   57.2680   31.6450 C   0  0  0  0  0  0  0  0  0  0  0  0
   66.3990   56.9530   30.4010 N   0  0  0  0  0  0  0  0  0  0  0  0
   66.9120   57.0250   32.8460 C   0  0  0  0  0  0  0  0  0  0  0  0
   67.6530   55.8640   33.0030 C   0  0  0  0  0  0  0  0  0  0  0  0
   68.4180   55.5590   34.1060 C   0  0  0  0  0  0  0  0  0  0  0  0
   68.4830   56.4320   35.1480 C   0  0  0  0  0  0  0  0  0  0  0  0
   67.7770   57.5880   35.0550 C   0  0  0  0  0  0  0  0  0  0  0  0
   67.8450   58.4700   36.1120 C   0  0  0  0  0  0  0  0  0  0  0  0
   67.1600   59.6650   36.0980 C   0  0  0  0  0  0  0  0  0  0  0  0
   66.3930   59.9410   34.9620 C   0  0  0  0  0  0  0  0  0  0  0  0
   66.3590   59.0340   33.9390 C   0  0  0  0  0  0  0  0  0  0  0  0
   67.0310   57.8360   33.9270 C   0  0  0  0  0  0  0  0  0  0  0  0
   65.8390   56.9470   28.0420 N   0  0  0  0  0  0  0  0  0  0  0  0
   63.6913   58.8989   27.8033 H   0  0  0  0  0  0  0  0  0  0  0  0
   62.2009   55.5294   26.2944 H   0  0  0  0  0  0  0  0  0  0  0  0
   60.6987   55.7379   24.3315 H   0  0  0  0  0  0  0  0  0  0  0  0
   59.2643   57.7927   24.1351 H   0  0  0  0  0  0  0  0  0  0  0  0
   57.5364   59.0831   26.9450 H   0  0  0  0  0  0  0  0  0  0  0  0
   56.1481   61.1350   26.8120 H   0  0  0  0  0  0  0  0  0  0  0  0
   59.3790   62.9522   24.7228 H   0  0  0  0  0  0  0  0  0  0  0  0
   63.1681   58.7642   31.2537 H   0  0  0  0  0  0  0  0  0  0  0  0
   67.6278   55.1305   32.1837 H   0  0  0  0  0  0  0  0  0  0  0  0
   68.9756   54.6116   34.1451 H   0  0  0  0  0  0  0  0  0  0  0  0
   69.0890   56.2079   36.0383 H   0  0  0  0  0  0  0  0  0  0  0  0
   68.4605   58.2137   36.9869 H   0  0  0  0  0  0  0  0  0  0  0  0
   67.2139   60.3693   36.9412 H   0  0  0  0  0  0  0  0  0  0  0  0
   65.8223   60.8788   34.8918 H   0  0  0  0  0  0  0  0  0  0  0  0
   65.7473   59.2826   33.0592 H   0  0  0  0  0  0  0  0  0  0  0  0
   66.7103   56.4585   27.7907 H   0  0  0  0  0  0  0  0  0  0  0  0
   65.1684   57.2146   27.3075 H   0  0  0  0  0  0  0  0  0  0  0  0
  1  3  1  0
  1  2  2  0
  3 19  1  0
  4  5  2  0
  4 17  1  0
  5  1  1  0
  6  5  1  0
  7  6  2  0
  8  7  1  0
  8  9  2  0
  9  4  1  0
 10  9  1  0
 10 11  2  0
 12 11  1  0
 13 12  2  0
 14 15  2  0
 14 13  1  0
 15 10  1  0
 17 16  3  0
 18 19  2  0
 18 23  1  0
 19 20  1  0
 20 21  2  0
 22 21  1  0
 22 24  1  0
 23 22  2  0
 24 25  2  0
 24 33  1  0
 25 26  1  0
 26 27  2  0
 28 27  1  0
 28 29  2  0
 30 29  1  0
 31 30  2  0
 32 31  1  0
 33 32  2  0
 33 28  1  0
 34 18  1  0
  3 35  1  0
  6 36  1  0
  7 37  1  0
  8 38  1  0
 11 39  1  0
 12 40  1  0
 14 41  1  0
 20 42  1  0
 25 43  1  0
 26 44  1  0
 27 45  1  0
 29 46  1  0
 30 47  1  0
 31 48  1  0
 32 49  1  0
 34 50  1  0
 34 51  1  0
M  END
>  <Score>  (1) 
-7.32774

>  <Score_dual>  (1) 
-7.84

>  <Choices>  (1) 
[None, 6, ['0-3', 0], 7, ['12-5', 240], 12, ['40-10', 330], 26, ['19-17', 150], 32, ['26-23', 195]]

$$$$
