
     RDKit          3D

 54 59  0  0  0  0  0  0  0  0999 V2000
   63.3160   56.9620   26.7910 C   0  0  0  0  0  0  0  0  0  0  0  0
   61.9830   57.4740   26.9130 C   0  0  0  0  0  0  0  0  0  0  0  0
   61.6910   58.1750   28.0650 C   0  0  0  0  0  0  0  0  0  0  0  0
   62.6390   58.3630   29.0280 N   0  0  0  0  0  0  0  0  0  0  0  0
   63.8930   57.8520   28.8550 C   0  0  0  0  0  0  0  0  0  0  0  0
   64.2410   57.1530   27.7440 N   0  0  0  0  0  0  0  0  0  0  0  0
   61.0270   57.2550   25.8870 C   0  0  0  0  0  0  0  0  0  0  0  0
   60.5970   56.0250   25.4500 C   0  0  0  0  0  0  0  0  0  0  0  0
   59.6520   56.2060   24.4240 C   0  0  0  0  0  0  0  0  0  0  0  0
   59.5650   57.5270   24.3000 N   0  0  0  0  0  0  0  0  0  0  0  0
   60.3670   58.1470   25.1520 N   0  0  0  0  0  0  0  0  0  0  0  0
   58.7570   58.2770   23.4080 C   0  0  0  0  0  0  0  0  0  0  0  0
   57.4810   58.0080   22.9380 C   0  0  0  0  0  0  0  0  0  0  0  0
   57.1850   59.0820   22.0970 C   0  0  0  0  0  0  0  0  0  0  0  0
   58.2210   59.9270   22.0760 N   0  0  0  0  0  0  0  0  0  0  0  0
   59.1930   59.4520   22.8720 N   0  0  0  0  0  0  0  0  0  0  0  0
   65.3220   59.2730   30.3000 C   0  0  0  0  0  0  0  0  0  0  0  0
   64.9520   58.0220   29.8570 C   0  0  0  0  0  0  0  0  0  0  0  0
   65.6410   56.9570   30.4190 C   0  0  0  0  0  0  0  0  0  0  0  0
   66.6250   57.1840   31.3570 C   0  0  0  0  0  0  0  0  0  0  0  0
   67.4360   56.3400   32.0490 N   0  0  0  0  0  0  0  0  0  0  0  0
   68.2280   57.1050   32.8480 C   0  0  0  0  0  0  0  0  0  0  0  0
   67.9270   58.4140   32.6690 N   0  0  0  0  0  0  0  0  0  0  0  0
   66.9380   58.4490   31.7470 C   0  0  0  0  0  0  0  0  0  0  0  0
   66.2980   59.5590   31.2350 C   0  0  0  0  0  0  0  0  0  0  0  0
   66.5610   60.9340   31.5780 C   0  0  0  0  0  0  0  0  0  0  0  0
   66.4630   61.2970   32.7750 O   0  0  0  0  0  0  0  0  0  0  0  0
   66.9360   62.0850   30.8400 N   0  0  0  0  0  0  0  0  0  0  0  0
   68.1990   61.6620   30.2680 C   0  0  0  0  0  0  0  0  0  0  0  0
   68.7530   62.7750   29.3790 C   0  0  0  0  0  0  0  0  0  0  0  0
   67.7620   63.1460   28.2960 C   0  0  0  0  0  0  0  0  0  0  0  0
   66.4650   63.5100   28.9530 C   0  0  0  0  0  0  0  0  0  0  0  0
   66.5590   63.4380   30.4730 C   0  0  0  0  0  0  0  0  0  0  0  0
   63.5891   56.3952   25.8887 H   0  0  0  0  0  0  0  0  0  0  0  0
   60.6814   58.5874   28.2088 H   0  0  0  0  0  0  0  0  0  0  0  0
   60.9373   55.0544   25.8401 H   0  0  0  0  0  0  0  0  0  0  0  0
   59.1110   55.4345   23.8565 H   0  0  0  0  0  0  0  0  0  0  0  0
   56.8446   57.1425   23.1746 H   0  0  0  0  0  0  0  0  0  0  0  0
   56.2462   59.2128   21.5388 H   0  0  0  0  0  0  0  0  0  0  0  0
   58.2664   60.8026   21.5355 H   0  0  0  0  0  0  0  0  0  0  0  0
   64.7866   60.1301   29.8656 H   0  0  0  0  0  0  0  0  0  0  0  0
   65.4010   55.9275   30.1148 H   0  0  0  0  0  0  0  0  0  0  0  0
   67.4484   55.3123   31.9809 H   0  0  0  0  0  0  0  0  0  0  0  0
   68.9959   56.7195   33.5348 H   0  0  0  0  0  0  0  0  0  0  0  0
   68.9141   61.4477   31.0759 H   0  0  0  0  0  0  0  0  0  0  0  0
   68.0436   60.7545   29.6660 H   0  0  0  0  0  0  0  0  0  0  0  0
   68.9588   63.6610   29.9975 H   0  0  0  0  0  0  0  0  0  0  0  0
   69.6768   62.4162   28.9017 H   0  0  0  0  0  0  0  0  0  0  0  0
   67.6104   62.2907   27.6211 H   0  0  0  0  0  0  0  0  0  0  0  0
   68.1416   63.9947   27.7081 H   0  0  0  0  0  0  0  0  0  0  0  0
   66.1939   64.5354   28.6614 H   0  0  0  0  0  0  0  0  0  0  0  0
   65.7016   62.7897   28.6237 H   0  0  0  0  0  0  0  0  0  0  0  0
   67.3189   64.1471   30.8332 H   0  0  0  0  0  0  0  0  0  0  0  0
   65.5916   63.6994   30.9266 H   0  0  0  0  0  0  0  0  0  0  0  0
  1  2  2  0
  1  6  1  0
  2  3  1  0
  3  4  2  0
  5  4  1  0
  5 18  1  0
  6  5  2  0
  7  2  1  0
  8  7  1  0
  9  8  2  0
 10  9  1  0
 10 11  1  0
 11  7  2  0
 12 10  1  0
 13 12  1  0
 14 13  2  0
 15 14  1  0
 15 16  1  0
 16 12  2  0
 17 25  2  0
 18 17  1  0
 18 19  2  0
 19 20  1  0
 20 24  2  0
 20 21  1  0
 21 22  1  0
 23 22  2  0
 24 23  1  0
 25 26  1  0
 25 24  1  0
 26 27  2  0
 28 26  1  0
 29 28  1  0
 30 29  1  0
 31 32  1  0
 31 30  1  0
 32 33  1  0
 33 28  1  0
  1 34  1  0
  3 35  1  0
  8 36  1  0
  9 37  1  0
 13 38  1  0
 14 39  1  0
 15 40  1  0
 17 41  1  0
 19 42  1  0
 21 43  1  0
 22 44  1  0
 29 45  1  0
 29 46  1  0
 30 47  1  0
 30 48  1  0
 31 49  1  0
 31 50  1  0
 32 51  1  0
 32 52  1  0
 33 53  1  0
 33 54  1  0
M  END
>  <Score>  (1) 
-8.41972

>  <Score_dual>  (1) 
-7.32

>  <Choices>  (1) 
[None, 7, ['22-8', 225], 16, ['22-9', 255], 23, ['34-19', 255], 36, ['5-10', 0], 38, ['8-6', 120]]

$$$$
