
     RDKit          3D

 46 50  0  0  0  0  0  0  0  0999 V2000
   60.6270   62.9730   28.9100 C   0  0  0  0  0  0  0  0  0  0  0  0
   60.2420   64.1020   29.5950 C   0  0  0  0  0  0  0  0  0  0  0  0
   61.1220   64.8230   30.3910 C   0  0  0  0  0  0  0  0  0  0  0  0
   62.4030   64.3190   30.4390 C   0  0  0  0  0  0  0  0  0  0  0  0
   62.7650   63.1780   29.7380 C   0  0  0  0  0  0  0  0  0  0  0  0
   61.8630   62.5340   28.9900 N   0  0  0  0  0  0  0  0  0  0  0  0
   64.1380   62.6570   29.8030 C   0  0  0  0  0  0  0  0  0  0  0  0
   64.5050   61.4700   30.3940 C   0  0  0  0  0  0  0  0  0  0  0  0
   65.8770   61.3000   30.2640 C   0  0  0  0  0  0  0  0  0  0  0  0
   66.2900   62.3860   29.6040 N   0  0  0  0  0  0  0  0  0  0  0  0
   65.2830   63.2090   29.3150 N   0  0  0  0  0  0  0  0  0  0  0  0
   67.6310   62.6850   29.2240 C   0  0  0  0  0  0  0  0  0  0  0  0
   68.7700   62.0770   29.5980 N   0  0  0  0  0  0  0  0  0  0  0  0
   69.8320   62.6810   29.0010 C   0  0  0  0  0  0  0  0  0  0  0  0
   69.3250   63.6850   28.2400 N   0  0  0  0  0  0  0  0  0  0  0  0
   68.0050   63.6700   28.3870 N   0  0  0  0  0  0  0  0  0  0  0  0
   59.6390   62.2750   28.0960 C   0  0  0  0  0  0  0  0  0  0  0  0
   58.4180   62.5310   28.3100 O   0  0  0  0  0  0  0  0  0  0  0  0
   60.9350   59.1400   26.5240 C   0  0  0  0  0  0  0  0  0  0  0  0
   60.5220   60.0890   27.4940 C   0  0  0  0  0  0  0  0  0  0  0  0
   60.0500   61.3290   27.0860 C   0  0  0  0  0  0  0  0  0  0  0  0
   60.0050   61.5740   25.7610 N   0  0  0  0  0  0  0  0  0  0  0  0
   60.4060   60.6450   24.8400 C   0  0  0  0  0  0  0  0  0  0  0  0
   60.8600   59.4540   25.2340 N   0  0  0  0  0  0  0  0  0  0  0  0
   61.4290   57.8400   26.9670 C   0  0  0  0  0  0  0  0  0  0  0  0
   61.1950   56.6630   26.3120 C   0  0  0  0  0  0  0  0  0  0  0  0
   61.6850   55.4570   26.7700 C   0  0  0  0  0  0  0  0  0  0  0  0
   62.4370   55.3920   27.9160 C   0  0  0  0  0  0  0  0  0  0  0  0
   62.6880   56.5720   28.5970 C   0  0  0  0  0  0  0  0  0  0  0  0
   62.1900   57.7430   28.1170 C   0  0  0  0  0  0  0  0  0  0  0  0
   59.2006   64.4456   29.5092 H   0  0  0  0  0  0  0  0  0  0  0  0
   60.8196   65.7266   30.9406 H   0  0  0  0  0  0  0  0  0  0  0  0
   63.1589   64.8349   31.0493 H   0  0  0  0  0  0  0  0  0  0  0  0
   63.8201   60.7671   30.8908 H   0  0  0  0  0  0  0  0  0  0  0  0
   66.4877   60.4589   30.6240 H   0  0  0  0  0  0  0  0  0  0  0  0
   70.5150   63.0878   29.7613 H   0  0  0  0  0  0  0  0  0  0  0  0
   70.4043   61.9677   28.3897 H   0  0  0  0  0  0  0  0  0  0  0  0
   69.5704   63.5349   27.2510 H   0  0  0  0  0  0  0  0  0  0  0  0
   67.3567   64.3227   27.9239 H   0  0  0  0  0  0  0  0  0  0  0  0
   60.5755   59.8434   28.5649 H   0  0  0  0  0  0  0  0  0  0  0  0
   60.3537   60.8818   23.7671 H   0  0  0  0  0  0  0  0  0  0  0  0
   60.5963   56.6778   25.3893 H   0  0  0  0  0  0  0  0  0  0  0  0
   61.4699   54.5356   26.2090 H   0  0  0  0  0  0  0  0  0  0  0  0
   62.8287   54.4318   28.2829 H   0  0  0  0  0  0  0  0  0  0  0  0
   63.2862   56.5619   29.5200 H   0  0  0  0  0  0  0  0  0  0  0  0
   62.4051   58.6657   28.6758 H   0  0  0  0  0  0  0  0  0  0  0  0
  1  6  1  0
  1  2  2  0
  2  3  1  0
  3  4  2  0
  5  7  1  0
  5  4  1  0
  6  5  2  0
  7  8  1  0
  9  8  2  0
 10  9  1  0
 11 10  1  0
 11  7  2  0
 12 13  2  0
 12 10  1  0
 14 13  1  0
 15 16  1  0
 15 14  1  0
 16 12  1  0
 17 18  2  0
 17  1  1  0
 19 25  1  0
 19 20  2  0
 21 20  1  0
 21 17  1  0
 22 21  2  0
 23 24  2  0
 23 22  1  0
 24 19  1  0
 25 30  2  0
 26 27  2  0
 26 25  1  0
 27 28  1  0
 28 29  2  0
 30 29  1  0
  2 31  1  0
  3 32  1  0
  4 33  1  0
  8 34  1  0
  9 35  1  0
 14 36  1  0
 14 37  1  0
 15 38  1  0
 16 39  1  0
 20 40  1  0
 23 41  1  0
 26 42  1  0
 27 43  1  0
 28 44  1  0
 29 45  1  0
 30 46  1  0
M  END
>  <Score>  (1) 
-7.55097

>  <Score_dual>  (1) 
-7.22

>  <Choices>  (1) 
[None, 8, ['5-9', 105], 8, ['1-26', 120], 21, ['6-2', 15], 30, ['22-8', 120], 37, ['57-13', 150]]

$$$$
