
     RDKit          3D

 47 51  0  0  1  0  0  0  0  0999 V2000
   59.3160   60.0380   26.6550 C   0  0  2  0  0  0  0  0  0  0  0  0
   60.7110   60.4830   27.2050 C   0  0  0  0  0  0  0  0  0  0  0  0
   60.5700   59.5690   26.0520 C   0  0  1  0  0  0  0  0  0  0  0  0
   56.2190   63.7270   27.3760 F   0  0  0  0  0  0  0  0  0  0  0  0
   57.0120   62.9750   26.5440 C   0  0  0  0  0  0  0  0  0  0  0  0
   57.7660   61.9250   27.0040 C   0  0  0  0  0  0  0  0  0  0  0  0
   58.5460   61.2090   26.1420 C   0  0  0  0  0  0  0  0  0  0  0  0
   58.5880   61.5380   24.7750 C   0  0  0  0  0  0  0  0  0  0  0  0
   57.7980   62.6190   24.3710 C   0  0  0  0  0  0  0  0  0  0  0  0
   57.0210   63.3370   25.2080 C   0  0  0  0  0  0  0  0  0  0  0  0
   58.4970   62.5180   29.2080 C   0  0  0  0  0  0  0  0  0  0  0  0
   57.6930   61.6550   28.4190 C   0  0  0  0  0  0  0  0  0  0  0  0
   56.9630   60.6950   29.0660 C   0  0  0  0  0  0  0  0  0  0  0  0
   57.0410   60.6140   30.4290 N   0  0  0  0  0  0  0  0  0  0  0  0
   57.8090   61.4430   31.1560 C   0  0  0  0  0  0  0  0  0  0  0  0
   58.5490   62.4060   30.5560 N   0  0  0  0  0  0  0  0  0  0  0  0
   60.9630   58.1500   26.2530 C   0  0  0  0  0  0  0  0  0  0  0  0
   62.0380   57.8650   27.0380 C   0  0  0  0  0  0  0  0  0  0  0  0
   62.4550   56.5550   27.2340 C   0  0  0  0  0  0  0  0  0  0  0  0
   61.7360   55.5900   26.6040 C   0  0  0  0  0  0  0  0  0  0  0  0
   60.6430   55.8780   25.8050 C   0  0  0  0  0  0  0  0  0  0  0  0
   60.2350   57.1970   25.6160 C   0  0  0  0  0  0  0  0  0  0  0  0
   59.8430   58.3270   23.0120 F   0  0  0  0  0  0  0  0  0  0  0  0
   58.8100   57.5850   23.4370 C   0  0  0  0  0  0  0  0  0  0  0  0
   59.1040   57.0790   24.7180 C   0  0  0  0  0  0  0  0  0  0  0  0
   58.1440   56.2740   25.3380 C   0  0  0  0  0  0  0  0  0  0  0  0
   56.9290   55.9800   24.7060 C   0  0  0  0  0  0  0  0  0  0  0  0
   56.6600   56.4850   23.4510 C   0  0  0  0  0  0  0  0  0  0  0  0
   57.6100   57.2770   22.8460 C   0  0  0  0  0  0  0  0  0  0  0  0
   58.4114   59.4866   26.9512 H   0  0  0  0  0  0  0  0  0  0  0  0
   61.0640   61.5143   27.0576 H   0  0  0  0  0  0  0  0  0  0  0  0
   61.2233   60.4563   28.1781 H   0  0  0  0  0  0  0  0  0  0  0  0
   60.9541   59.5823   25.0213 H   0  0  0  0  0  0  0  0  0  0  0  0
   59.2088   60.9754   24.0622 H   0  0  0  0  0  0  0  0  0  0  0  0
   57.8110   62.9005   23.3077 H   0  0  0  0  0  0  0  0  0  0  0  0
   56.4163   64.1798   24.8420 H   0  0  0  0  0  0  0  0  0  0  0  0
   59.0932   63.2978   28.7116 H   0  0  0  0  0  0  0  0  0  0  0  0
   56.3248   60.0008   28.4997 H   0  0  0  0  0  0  0  0  0  0  0  0
   57.8371   61.3385   32.2507 H   0  0  0  0  0  0  0  0  0  0  0  0
   62.5852   58.6856   27.5249 H   0  0  0  0  0  0  0  0  0  0  0  0
   63.3218   56.3116   27.8660 H   0  0  0  0  0  0  0  0  0  0  0  0
   62.0338   54.5391   26.7338 H   0  0  0  0  0  0  0  0  0  0  0  0
   60.0929   55.0604   25.3161 H   0  0  0  0  0  0  0  0  0  0  0  0
   58.3460   55.8646   26.3388 H   0  0  0  0  0  0  0  0  0  0  0  0
   56.1873   55.3446   25.2120 H   0  0  0  0  0  0  0  0  0  0  0  0
   55.7092   56.2604   22.9455 H   0  0  0  0  0  0  0  0  0  0  0  0
   57.3980   57.6807   21.8450 H   0  0  0  0  0  0  0  0  0  0  0  0
  1  2  1  0
  3 17  1  0
  3  1  1  0
  3  2  1  0
  5  6  2  0
  5  4  1  0
  6 12  1  0
  7  1  1  0
  7  6  1  0
  8  7  2  0
  9  8  1  0
  9 10  2  0
 10  5  1  0
 11 16  2  0
 12 13  2  0
 12 11  1  0
 13 14  1  0
 14 15  2  0
 16 15  1  0
 17 18  2  0
 18 19  1  0
 20 19  2  0
 21 20  1  0
 22 21  2  0
 22 17  1  0
 23 24  1  0
 24 25  2  0
 25 26  1  0
 25 22  1  0
 27 26  2  0
 28 27  1  0
 29 24  1  0
 29 28  2  0
  1 30  1  1
  2 31  1  0
  2 32  1  0
  3 33  1  6
  8 34  1  0
  9 35  1  0
 10 36  1  0
 11 37  1  0
 13 38  1  0
 15 39  1  0
 18 40  1  0
 19 41  1  0
 20 42  1  0
 21 43  1  0
 26 44  1  0
 27 45  1  0
 28 46  1  0
 29 47  1  0
M  END
>  <Score>  (1) 
-7.02467

>  <Score_dual>  (1) 
-7.01

>  <Choices>  (1) 
[None, 7, ['9-20', 345], 16, ['16-23', 255], 26, ['1-26', 30], 36, ['9-14', 315]]

$$$$
