
     RDKit          3D

 50 56  0  0  0  0  0  0  0  0999 V2000
   65.5560   59.1870   30.3190 C   0  0  0  0  0  0  0  0  0  0  0  0
   65.1210   57.9350   29.9420 C   0  0  0  0  0  0  0  0  0  0  0  0
   65.7530   56.8710   30.5590 C   0  0  0  0  0  0  0  0  0  0  0  0
   66.7530   57.0830   31.4930 C   0  0  0  0  0  0  0  0  0  0  0  0
   67.5180   56.2420   32.2290 N   0  0  0  0  0  0  0  0  0  0  0  0
   68.3480   57.0100   32.9880 C   0  0  0  0  0  0  0  0  0  0  0  0
   68.1160   58.3290   32.7410 N   0  0  0  0  0  0  0  0  0  0  0  0
   67.1280   58.3510   31.8140 C   0  0  0  0  0  0  0  0  0  0  0  0
   66.5410   59.4780   31.2380 C   0  0  0  0  0  0  0  0  0  0  0  0
   66.2560   61.4020   32.6310 C   0  0  0  0  0  0  0  0  0  0  0  0
   66.9120   60.8520   31.5530 C   0  0  0  0  0  0  0  0  0  0  0  0
   67.8480   61.5760   30.8440 C   0  0  0  0  0  0  0  0  0  0  0  0
   68.0930   62.8730   31.2650 C   0  0  0  0  0  0  0  0  0  0  0  0
   68.9710   63.7370   30.6990 N   0  0  0  0  0  0  0  0  0  0  0  0
   68.8510   64.8570   31.4560 C   0  0  0  0  0  0  0  0  0  0  0  0
   67.9450   64.6940   32.4380 N   0  0  0  0  0  0  0  0  0  0  0  0
   67.4510   63.4490   32.3410 C   0  0  0  0  0  0  0  0  0  0  0  0
   66.5090   62.7060   33.0470 C   0  0  0  0  0  0  0  0  0  0  0  0
   63.4630   56.9440   26.8630 C   0  0  0  0  0  0  0  0  0  0  0  0
   62.1390   57.4140   27.0200 C   0  0  0  0  0  0  0  0  0  0  0  0
   61.8390   58.0710   28.1980 C   0  0  0  0  0  0  0  0  0  0  0  0
   62.7990   58.2440   29.1500 N   0  0  0  0  0  0  0  0  0  0  0  0
   64.0580   57.7730   28.9490 C   0  0  0  0  0  0  0  0  0  0  0  0
   64.3960   57.1220   27.8080 N   0  0  0  0  0  0  0  0  0  0  0  0
   61.1680   57.2100   25.9980 C   0  0  0  0  0  0  0  0  0  0  0  0
   60.6990   55.9900   25.5800 C   0  0  0  0  0  0  0  0  0  0  0  0
   59.7520   56.1780   24.5580 C   0  0  0  0  0  0  0  0  0  0  0  0
   59.6980   57.5030   24.4110 N   0  0  0  0  0  0  0  0  0  0  0  0
   60.5260   58.1070   25.2540 N   0  0  0  0  0  0  0  0  0  0  0  0
   58.9080   58.2750   23.5180 C   0  0  0  0  0  0  0  0  0  0  0  0
   57.6360   58.0530   23.0570 C   0  0  0  0  0  0  0  0  0  0  0  0
   57.3370   59.1060   22.2100 C   0  0  0  0  0  0  0  0  0  0  0  0
   58.4070   59.9270   22.1730 N   0  0  0  0  0  0  0  0  0  0  0  0
   59.3570   59.4220   22.9650 N   0  0  0  0  0  0  0  0  0  0  0  0
   65.0653   60.0446   29.8355 H   0  0  0  0  0  0  0  0  0  0  0  0
   65.4574   55.8425   30.3044 H   0  0  0  0  0  0  0  0  0  0  0  0
   67.4793   55.2128   32.2170 H   0  0  0  0  0  0  0  0  0  0  0  0
   69.0953   56.6222   33.6959 H   0  0  0  0  0  0  0  0  0  0  0  0
   65.5156   60.7977   33.1756 H   0  0  0  0  0  0  0  0  0  0  0  0
   68.3766   61.1426   29.9822 H   0  0  0  0  0  0  0  0  0  0  0  0
   69.5843   63.5804   29.8864 H   0  0  0  0  0  0  0  0  0  0  0  0
   69.4224   65.7818   31.2881 H   0  0  0  0  0  0  0  0  0  0  0  0
   65.9795   63.1373   33.9093 H   0  0  0  0  0  0  0  0  0  0  0  0
   63.7354   56.4163   25.9371 H   0  0  0  0  0  0  0  0  0  0  0  0
   60.8225   58.4555   28.3680 H   0  0  0  0  0  0  0  0  0  0  0  0
   61.0149   55.0161   25.9821 H   0  0  0  0  0  0  0  0  0  0  0  0
   59.1871   55.4112   24.0077 H   0  0  0  0  0  0  0  0  0  0  0  0
   56.9822   57.2054   23.3103 H   0  0  0  0  0  0  0  0  0  0  0  0
   56.3932   59.2484   21.6633 H   0  0  0  0  0  0  0  0  0  0  0  0
   58.4793   60.7968   21.6261 H   0  0  0  0  0  0  0  0  0  0  0  0
  1  9  2  0
  2  1  1  0
  2  3  2  0
  3  4  1  0
  4  8  2  0
  4  5  1  0
  5  6  1  0
  7  6  2  0
  8  7  1  0
  9 11  1  0
  9  8  1  0
 10 18  2  0
 11 10  1  0
 12 13  1  0
 12 11  2  0
 13 17  2  0
 14 13  1  0
 14 15  1  0
 15 16  2  0
 17 16  1  0
 17 18  1  0
 19 20  2  0
 19 24  1  0
 20 21  1  0
 21 22  2  0
 23 22  1  0
 23  2  1  0
 24 23  2  0
 25 20  1  0
 26 25  1  0
 27 26  2  0
 28 27  1  0
 28 29  1  0
 29 25  2  0
 30 28  1  0
 31 30  1  0
 32 31  2  0
 33 32  1  0
 33 34  1  0
 34 30  2  0
  1 35  1  0
  3 36  1  0
  5 37  1  0
  6 38  1  0
 10 39  1  0
 12 40  1  0
 14 41  1  0
 15 42  1  0
 18 43  1  0
 19 44  1  0
 21 45  1  0
 26 46  1  0
 27 47  1  0
 31 48  1  0
 32 49  1  0
 33 50  1  0
M  END
>  <Score>  (1) 
-7.76861

>  <Score_dual>  (1) 
-7.34

>  <Choices>  (1) 
[None, 7, ['22-8', 225], 16, ['22-9', 255], 23, ['34-19', 255], 36, ['34-21', 225]]

$$$$
