
     RDKit          3D

 54 58  0  0  0  0  0  0  0  0999 V2000
   65.2290   58.5950   30.2630 C   0  0  0  0  0  0  0  0  0  0  0  0
   65.5710   60.2020   32.4720 F   0  0  0  0  0  0  0  0  0  0  0  0
   66.1580   59.0030   32.5240 C   0  0  0  0  0  0  0  0  0  0  0  0
   66.0210   58.1620   31.4530 C   0  0  0  0  0  0  0  0  0  0  0  0
   66.6360   56.9170   31.5160 C   0  0  0  0  0  0  0  0  0  0  0  0
   67.3680   56.5360   32.6280 C   0  0  0  0  0  0  0  0  0  0  0  0
   67.5000   57.3840   33.6940 C   0  0  0  0  0  0  0  0  0  0  0  0
   66.8850   58.5870   33.5910 C   0  0  0  0  0  0  0  0  0  0  0  0
   67.0570   59.4460   34.7480 N   0  0  0  0  0  0  0  0  0  0  0  0
   66.1190   59.3670   35.8750 C   0  0  0  0  0  0  0  0  0  0  0  0
   66.7900   59.8790   37.1050 C   0  0  0  0  0  0  0  0  0  0  0  0
   68.1670   59.4930   37.1820 N   0  0  0  0  0  0  0  0  0  0  0  0
   68.9800   59.9120   36.0950 C   0  0  0  0  0  0  0  0  0  0  0  0
   68.0590   60.4420   35.0130 C   0  0  0  0  0  0  0  0  0  0  0  0
   64.1550   57.5740   30.0490 C   0  0  0  0  0  0  0  0  0  0  0  0
   65.1420   57.0370   26.4970 C   0  0  0  0  0  0  0  0  0  0  0  0
   63.8750   56.9480   25.8880 C   0  0  0  0  0  0  0  0  0  0  0  0
   62.7630   57.0670   26.7110 C   0  0  0  0  0  0  0  0  0  0  0  0
   62.9850   57.2600   28.0300 N   0  0  0  0  0  0  0  0  0  0  0  0
   64.2040   57.3410   28.5800 C   0  0  0  0  0  0  0  0  0  0  0  0
   65.2630   57.2300   27.8170 N   0  0  0  0  0  0  0  0  0  0  0  0
   60.6150   58.0910   25.9860 C   0  0  0  0  0  0  0  0  0  0  0  0
   61.4050   56.9900   26.1860 C   0  0  0  0  0  0  0  0  0  0  0  0
   60.8820   55.7530   25.8740 C   0  0  0  0  0  0  0  0  0  0  0  0
   59.5870   55.5980   25.3670 C   0  0  0  0  0  0  0  0  0  0  0  0
   58.8490   54.5380   24.9880 N   0  0  0  0  0  0  0  0  0  0  0  0
   57.6350   54.9480   24.5640 C   0  0  0  0  0  0  0  0  0  0  0  0
   57.6190   56.3330   24.6840 C   0  0  0  0  0  0  0  0  0  0  0  0
   58.8380   56.7410   25.1860 C   0  0  0  0  0  0  0  0  0  0  0  0
   59.3140   58.0220   25.4840 C   0  0  0  0  0  0  0  0  0  0  0  0
   64.7792   59.5815   30.4486 H   0  0  0  0  0  0  0  0  0  0  0  0
   65.8726   58.6760   29.3747 H   0  0  0  0  0  0  0  0  0  0  0  0
   66.5396   56.2227   30.6682 H   0  0  0  0  0  0  0  0  0  0  0  0
   67.8463   55.5458   32.6547 H   0  0  0  0  0  0  0  0  0  0  0  0
   68.0757   57.1035   34.5884 H   0  0  0  0  0  0  0  0  0  0  0  0
   65.2306   59.9784   35.6584 H   0  0  0  0  0  0  0  0  0  0  0  0
   65.8110   58.3222   36.0284 H   0  0  0  0  0  0  0  0  0  0  0  0
   66.7313   60.9774   37.1071 H   0  0  0  0  0  0  0  0  0  0  0  0
   66.2728   59.4436   37.9727 H   0  0  0  0  0  0  0  0  0  0  0  0
   68.5610   59.8925   38.0457 H   0  0  0  0  0  0  0  0  0  0  0  0
   69.6675   60.7050   36.4243 H   0  0  0  0  0  0  0  0  0  0  0  0
   69.5805   59.0724   35.7149 H   0  0  0  0  0  0  0  0  0  0  0  0
   68.6360   60.6422   34.0981 H   0  0  0  0  0  0  0  0  0  0  0  0
   67.5856   61.3787   35.3424 H   0  0  0  0  0  0  0  0  0  0  0  0
   64.3722   56.6492   30.6036 H   0  0  0  0  0  0  0  0  0  0  0  0
   63.1669   57.9028   30.4035 H   0  0  0  0  0  0  0  0  0  0  0  0
   66.0470   56.9465   25.8784 H   0  0  0  0  0  0  0  0  0  0  0  0
   63.7707   56.7906   24.8043 H   0  0  0  0  0  0  0  0  0  0  0  0
   61.0268   59.0805   26.2337 H   0  0  0  0  0  0  0  0  0  0  0  0
   61.5032   54.8585   26.0287 H   0  0  0  0  0  0  0  0  0  0  0  0
   59.1644   53.5579   25.0173 H   0  0  0  0  0  0  0  0  0  0  0  0
   56.8177   54.3107   24.1954 H   0  0  0  0  0  0  0  0  0  0  0  0
   56.7776   56.9917   24.4231 H   0  0  0  0  0  0  0  0  0  0  0  0
   58.6998   58.9218   25.3319 H   0  0  0  0  0  0  0  0  0  0  0  0
  1  4  1  0
  2  3  1  0
  3  8  2  0
  4  5  2  0
  4  3  1  0
  5  6  1  0
  6  7  2  0
  8  7  1  0
  8  9  1  0
  9 14  1  0
  9 10  1  0
 10 11  1  0
 11 12  1  0
 13 12  1  0
 14 13  1  0
 15  1  1  0
 16 21  2  0
 17 16  1  0
 17 18  2  0
 18 19  1  0
 19 20  2  0
 20 15  1  0
 21 20  1  0
 22 23  2  0
 23 18  1  0
 24 23  1  0
 25 24  2  0
 26 25  1  0
 27 28  2  0
 27 26  1  0
 28 29  1  0
 29 25  1  0
 29 30  2  0
 30 22  1  0
  1 31  1  0
  1 32  1  0
  5 33  1  0
  6 34  1  0
  7 35  1  0
 10 36  1  0
 10 37  1  0
 11 38  1  0
 11 39  1  0
 12 40  1  0
 13 41  1  0
 13 42  1  0
 14 43  1  0
 14 44  1  0
 15 45  1  0
 15 46  1  0
 16 47  1  0
 17 48  1  0
 22 49  1  0
 24 50  1  0
 26 51  1  0
 27 52  1  0
 28 53  1  0
 30 54  1  0
M  END
>  <Score>  (1) 
-7.00474

>  <Score_dual>  (1) 
-7.15

>  <Choices>  (1) 
[None, 9, ['4-11', 135], 14, ['9-13', 285], 25, ['15-6', 195], 39, ['24-8', 240]]

$$$$
