
     RDKit          3D

 53 57  0  0  0  0  0  0  0  0999 V2000
   64.8100   57.2440   28.1590 C   0  0  0  0  0  0  0  0  0  0  0  0
   63.5430   57.6480   27.7340 C   0  0  0  0  0  0  0  0  0  0  0  0
   62.7300   58.2960   28.6620 C   0  0  0  0  0  0  0  0  0  0  0  0
   63.2380   58.4890   29.9240 N   0  0  0  0  0  0  0  0  0  0  0  0
   64.4480   58.0880   30.2810 C   0  0  0  0  0  0  0  0  0  0  0  0
   65.2450   57.4620   29.4040 N   0  0  0  0  0  0  0  0  0  0  0  0
   65.6030   56.5920   27.2070 N   0  0  0  0  0  0  0  0  0  0  0  0
   64.8620   58.3620   31.6560 C   0  0  0  0  0  0  0  0  0  0  0  0
   64.0380   58.0890   32.5510 O   0  0  0  0  0  0  0  0  0  0  0  0
   66.2160   58.9240   31.6930 C   0  0  0  0  0  0  0  0  0  0  0  0
   66.4710   60.1940   31.1810 C   0  0  0  0  0  0  0  0  0  0  0  0
   67.7070   60.7670   31.1870 C   0  0  0  0  0  0  0  0  0  0  0  0
   68.7780   60.0860   31.7160 C   0  0  0  0  0  0  0  0  0  0  0  0
   68.5750   58.8160   32.2380 C   0  0  0  0  0  0  0  0  0  0  0  0
   69.6390   58.1370   32.7650 C   0  0  0  0  0  0  0  0  0  0  0  0
   69.4890   56.8580   33.3030 C   0  0  0  0  0  0  0  0  0  0  0  0
   68.1980   56.3490   33.2580 C   0  0  0  0  0  0  0  0  0  0  0  0
   67.1420   57.0390   32.7270 C   0  0  0  0  0  0  0  0  0  0  0  0
   67.3110   58.2780   32.2110 C   0  0  0  0  0  0  0  0  0  0  0  0
   61.4010   58.7450   28.3040 C   0  0  0  0  0  0  0  0  0  0  0  0
   60.9220   58.9050   27.1040 C   0  0  0  0  0  0  0  0  0  0  0  0
   61.4530   58.7130   25.7230 C   0  0  0  0  0  0  0  0  0  0  0  0
   60.3490   58.4990   24.7490 C   0  0  0  0  0  0  0  0  0  0  0  0
   59.9140   59.5520   23.9340 C   0  0  0  0  0  0  0  0  0  0  0  0
   58.8800   59.4600   23.0090 C   0  0  0  0  0  0  0  0  0  0  0  0
   58.2290   58.2570   22.8730 C   0  0  0  0  0  0  0  0  0  0  0  0
   58.6150   57.1870   23.6490 C   0  0  0  0  0  0  0  0  0  0  0  0
   57.9780   55.9550   23.5310 C   0  0  0  0  0  0  0  0  0  0  0  0
   58.3440   54.8610   24.2910 C   0  0  0  0  0  0  0  0  0  0  0  0
   59.3770   55.0200   25.1870 C   0  0  0  0  0  0  0  0  0  0  0  0
   60.0340   56.2440   25.3280 C   0  0  0  0  0  0  0  0  0  0  0  0
   59.6430   57.3140   24.5550 C   0  0  0  0  0  0  0  0  0  0  0  0
   63.1995   57.4619   26.7057 H   0  0  0  0  0  0  0  0  0  0  0  0
   65.2420   56.4374   26.2548 H   0  0  0  0  0  0  0  0  0  0  0  0
   66.5473   56.2669   27.4589 H   0  0  0  0  0  0  0  0  0  0  0  0
   65.6332   60.7623   30.7506 H   0  0  0  0  0  0  0  0  0  0  0  0
   67.8482   61.7745   30.7686 H   0  0  0  0  0  0  0  0  0  0  0  0
   69.7797   60.5404   31.7254 H   0  0  0  0  0  0  0  0  0  0  0  0
   70.6328   58.6085   32.7648 H   0  0  0  0  0  0  0  0  0  0  0  0
   70.3313   56.2948   33.7311 H   0  0  0  0  0  0  0  0  0  0  0  0
   68.0155   55.3447   33.6681 H   0  0  0  0  0  0  0  0  0  0  0  0
   66.1424   56.5799   32.7197 H   0  0  0  0  0  0  0  0  0  0  0  0
   60.7213   58.9764   29.1374 H   0  0  0  0  0  0  0  0  0  0  0  0
   59.8830   59.2661   27.1096 H   0  0  0  0  0  0  0  0  0  0  0  0
   62.0225   59.6072   25.4296 H   0  0  0  0  0  0  0  0  0  0  0  0
   62.1000   57.8234   25.7183 H   0  0  0  0  0  0  0  0  0  0  0  0
   60.4267   60.5202   24.0328 H   0  0  0  0  0  0  0  0  0  0  0  0
   58.5898   60.3292   22.4005 H   0  0  0  0  0  0  0  0  0  0  0  0
   57.4066   58.1500   22.1503 H   0  0  0  0  0  0  0  0  0  0  0  0
   57.1555   55.8490   22.8083 H   0  0  0  0  0  0  0  0  0  0  0  0
   57.8276   53.8957   24.1839 H   0  0  0  0  0  0  0  0  0  0  0  0
   59.6912   54.1655   25.8044 H   0  0  0  0  0  0  0  0  0  0  0  0
   60.8566   56.3523   26.0502 H   0  0  0  0  0  0  0  0  0  0  0  0
  1  6  2  0
  2  1  1  0
  2  3  2  0
  3  4  1  0
  4  5  2  0
  5  8  1  0
  6  5  1  0
  7  1  1  0
  8 10  1  0
  8  9  2  0
 10 19  2  0
 11 12  2  0
 11 10  1  0
 12 13  1  0
 13 14  2  0
 14 15  1  0
 15 16  2  0
 17 16  1  0
 18 17  2  0
 19 14  1  0
 19 18  1  0
 20  3  1  0
 21 20  2  0
 22 21  1  0
 23 22  1  0
 24 23  2  0
 25 24  1  0
 26 25  2  0
 26 27  1  0
 27 32  2  0
 28 27  1  0
 28 29  2  0
 29 30  1  0
 30 31  2  0
 32 23  1  0
 32 31  1  0
  2 33  1  0
  7 34  1  0
  7 35  1  0
 11 36  1  0
 12 37  1  0
 13 38  1  0
 15 39  1  0
 16 40  1  0
 17 41  1  0
 18 42  1  0
 20 43  1  0
 21 44  1  0
 22 45  1  0
 22 46  1  0
 24 47  1  0
 25 48  1  0
 26 49  1  0
 28 50  1  0
 29 51  1  0
 30 52  1  0
 31 53  1  0
M  END
>  <Score>  (1) 
-7.47877

>  <Score_dual>  (1) 
-7.58

>  <Choices>  (1) 
[None, 6, ['0-3', 0], 9, ['5-7', 30], 13, ['26-11', 60], 27, ['42-13', 255], 36, ['26-16', 240]]

$$$$
