
     RDKit          3D

 46 50  0  0  0  0  0  0  0  0999 V2000
   65.9290   57.6600   30.6040 C   0  0  0  0  0  0  0  0  0  0  0  0
   66.1690   58.8330   31.2980 C   0  0  0  0  0  0  0  0  0  0  0  0
   67.0540   58.4740   32.2740 C   0  0  0  0  0  0  0  0  0  0  0  0
   67.3510   57.1530   32.1950 N   0  0  0  0  0  0  0  0  0  0  0  0
   66.6560   56.6640   31.1710 N   0  0  0  0  0  0  0  0  0  0  0  0
   68.2510   56.5300   33.1020 C   0  0  0  0  0  0  0  0  0  0  0  0
   67.8130   55.6550   34.0610 C   0  0  0  0  0  0  0  0  0  0  0  0
   68.6380   55.0290   34.9600 C   0  0  0  0  0  0  0  0  0  0  0  0
   70.0000   55.2770   34.9170 C   0  0  0  0  0  0  0  0  0  0  0  0
   70.4360   56.1560   33.9500 C   0  0  0  0  0  0  0  0  0  0  0  0
   69.5710   56.7340   33.1050 N   0  0  0  0  0  0  0  0  0  0  0  0
   71.8440   56.5060   33.7970 C   0  0  0  0  0  0  0  0  0  0  0  0
   72.8190   55.6090   34.1780 C   0  0  0  0  0  0  0  0  0  0  0  0
   74.1770   55.8240   34.0820 C   0  0  0  0  0  0  0  0  0  0  0  0
   74.6140   57.0320   33.5620 C   0  0  0  0  0  0  0  0  0  0  0  0
   73.6630   57.9530   33.1700 C   0  0  0  0  0  0  0  0  0  0  0  0
   72.3130   57.6960   33.2840 C   0  0  0  0  0  0  0  0  0  0  0  0
   64.3910   57.1220   27.2560 C   0  0  0  0  0  0  0  0  0  0  0  0
   63.0320   57.3230   27.6080 C   0  0  0  0  0  0  0  0  0  0  0  0
   62.7340   57.6220   28.9370 C   0  0  0  0  0  0  0  0  0  0  0  0
   63.7450   57.7120   29.8440 N   0  0  0  0  0  0  0  0  0  0  0  0
   65.0430   57.5090   29.4560 C   0  0  0  0  0  0  0  0  0  0  0  0
   65.3350   57.2260   28.2040 N   0  0  0  0  0  0  0  0  0  0  0  0
   62.0050   57.2070   26.5640 C   0  0  0  0  0  0  0  0  0  0  0  0
   61.5820   58.2290   25.7280 C   0  0  0  0  0  0  0  0  0  0  0  0
   60.6110   57.9530   24.8050 C   0  0  0  0  0  0  0  0  0  0  0  0
   60.0410   56.7140   24.6740 C   0  0  0  0  0  0  0  0  0  0  0  0
   60.4280   55.6690   25.4810 C   0  0  0  0  0  0  0  0  0  0  0  0
   61.4080   55.9580   26.4090 C   0  0  0  0  0  0  0  0  0  0  0  0
   65.7432   59.8291   31.1067 H   0  0  0  0  0  0  0  0  0  0  0  0
   67.4700   59.1634   33.0234 H   0  0  0  0  0  0  0  0  0  0  0  0
   66.7351   55.4419   34.1130 H   0  0  0  0  0  0  0  0  0  0  0  0
   68.2224   54.3372   35.7074 H   0  0  0  0  0  0  0  0  0  0  0  0
   70.6977   54.7968   35.6189 H   0  0  0  0  0  0  0  0  0  0  0  0
   72.4868   54.6453   34.5914 H   0  0  0  0  0  0  0  0  0  0  0  0
   74.8947   55.0574   34.4093 H   0  0  0  0  0  0  0  0  0  0  0  0
   75.6876   57.2508   33.4644 H   0  0  0  0  0  0  0  0  0  0  0  0
   73.9911   58.9177   32.7556 H   0  0  0  0  0  0  0  0  0  0  0  0
   71.5923   58.4601   32.9572 H   0  0  0  0  0  0  0  0  0  0  0  0
   64.6679   56.8837   26.2184 H   0  0  0  0  0  0  0  0  0  0  0  0
   61.6918   57.7836   29.2495 H   0  0  0  0  0  0  0  0  0  0  0  0
   62.0164   59.2366   25.8051 H   0  0  0  0  0  0  0  0  0  0  0  0
   60.2731   58.7607   24.1391 H   0  0  0  0  0  0  0  0  0  0  0  0
   59.2632   56.5525   23.9131 H   0  0  0  0  0  0  0  0  0  0  0  0
   59.9843   54.6664   25.3922 H   0  0  0  0  0  0  0  0  0  0  0  0
   61.7406   55.1458   27.0721 H   0  0  0  0  0  0  0  0  0  0  0  0
  1  5  2  0
  1  2  1  0
  2  3  2  0
  4  3  1  0
  4  6  1  0
  5  4  1  0
  6 11  1  0
  6  7  2  0
  7  8  1  0
  9  8  2  0
 10  9  1  0
 11 10  2  0
 12 10  1  0
 12 13  2  0
 14 13  1  0
 15 14  2  0
 16 17  2  0
 16 15  1  0
 17 12  1  0
 18 19  2  0
 18 23  1  0
 19 20  1  0
 20 21  2  0
 22 21  1  0
 22  1  1  0
 23 22  2  0
 24 19  1  0
 25 24  2  0
 26 25  1  0
 27 26  2  0
 27 28  1  0
 28 29  2  0
 29 24  1  0
  2 30  1  0
  3 31  1  0
  7 32  1  0
  8 33  1  0
  9 34  1  0
 13 35  1  0
 14 36  1  0
 15 37  1  0
 16 38  1  0
 17 39  1  0
 18 40  1  0
 20 41  1  0
 25 42  1  0
 26 43  1  0
 27 44  1  0
 28 45  1  0
 29 46  1  0
M  END
>  <Score>  (1) 
-7.44202

>  <Score_dual>  (1) 
-7.01

>  <Choices>  (1) 
[None, 7, ['1-28', 0], 14, ['22-9', 195], 26, ['6-5', 135], 35, ['1-25', 225]]

$$$$
