
     RDKit          3D

 55 59  0  0  0  0  0  0  0  0999 V2000
   58.7620   57.3260   23.8880 C   0  0  0  0  0  0  0  0  0  0  0  0
   61.6720   56.4250   25.8050 C   0  0  0  0  0  0  0  0  0  0  0  0
   60.8300   55.3950   26.1490 C   0  0  0  0  0  0  0  0  0  0  0  0
   59.6600   55.6410   25.4570 C   0  0  0  0  0  0  0  0  0  0  0  0
   59.8020   56.7780   24.7300 N   0  0  0  0  0  0  0  0  0  0  0  0
   61.0250   57.2400   24.9520 N   0  0  0  0  0  0  0  0  0  0  0  0
   63.0380   56.6180   26.2780 C   0  0  0  0  0  0  0  0  0  0  0  0
   63.2480   57.0140   27.5900 C   0  0  0  0  0  0  0  0  0  0  0  0
   64.5310   57.2120   28.0900 C   0  0  0  0  0  0  0  0  0  0  0  0
   65.5530   56.9890   27.2070 N   0  0  0  0  0  0  0  0  0  0  0  0
   65.3380   56.6060   25.9390 C   0  0  0  0  0  0  0  0  0  0  0  0
   64.0940   56.4220   25.4830 N   0  0  0  0  0  0  0  0  0  0  0  0
   64.8440   57.6340   29.4730 C   0  0  0  0  0  0  0  0  0  0  0  0
   63.7470   57.3800   30.3120 F   0  0  0  0  0  0  0  0  0  0  0  0
   65.9200   56.8970   29.9090 F   0  0  0  0  0  0  0  0  0  0  0  0
   65.0620   58.9880   29.5140 F   0  0  0  0  0  0  0  0  0  0  0  0
   59.2790   58.4840   23.0440 C   0  0  0  0  0  0  0  0  0  0  0  0
   59.2250   60.3150   24.8000 C   0  0  0  0  0  0  0  0  0  0  0  0
   58.7420   59.7580   23.5990 C   0  0  0  0  0  0  0  0  0  0  0  0
   57.7310   60.4530   22.9500 C   0  0  0  0  0  0  0  0  0  0  0  0
   57.1810   61.6330   23.3960 C   0  0  0  0  0  0  0  0  0  0  0  0
   56.2080   62.4360   22.9020 N   0  0  0  0  0  0  0  0  0  0  0  0
   56.0670   63.4570   23.7330 N   0  0  0  0  0  0  0  0  0  0  0  0
   56.9390   63.3200   24.7570 C   0  0  0  0  0  0  0  0  0  0  0  0
   57.6770   62.1620   24.5840 C   0  0  0  0  0  0  0  0  0  0  0  0
   58.6870   61.5060   25.2720 C   0  0  0  0  0  0  0  0  0  0  0  0
   59.1730   62.1130   26.5250 C   0  0  0  0  0  0  0  0  0  0  0  0
   60.3530   61.3320   27.0480 C   0  0  0  0  0  0  0  0  0  0  0  0
   60.8210   61.9820   28.3200 C   0  0  0  0  0  0  0  0  0  0  0  0
   60.1340   63.3020   28.5990 C   0  0  0  0  0  0  0  0  0  0  0  0
   58.6270   63.1610   28.6550 C   0  0  0  0  0  0  0  0  0  0  0  0
   58.1260   62.1880   27.6060 C   0  0  0  0  0  0  0  0  0  0  0  0
   58.3893   56.5354   23.2201 H   0  0  0  0  0  0  0  0  0  0  0  0
   57.9569   57.7035   24.5356 H   0  0  0  0  0  0  0  0  0  0  0  0
   61.0418   54.5562   26.8283 H   0  0  0  0  0  0  0  0  0  0  0  0
   58.7564   55.0145   25.4900 H   0  0  0  0  0  0  0  0  0  0  0  0
   62.3822   57.1749   28.2492 H   0  0  0  0  0  0  0  0  0  0  0  0
   66.1937   56.4416   25.2676 H   0  0  0  0  0  0  0  0  0  0  0  0
   58.9425   58.3627   22.0038 H   0  0  0  0  0  0  0  0  0  0  0  0
   60.3787   58.5007   23.0649 H   0  0  0  0  0  0  0  0  0  0  0  0
   60.0244   59.8092   25.3613 H   0  0  0  0  0  0  0  0  0  0  0  0
   57.3415   60.0304   22.0121 H   0  0  0  0  0  0  0  0  0  0  0  0
   55.6737   62.2801   22.0353 H   0  0  0  0  0  0  0  0  0  0  0  0
   57.0455   64.0209   25.5981 H   0  0  0  0  0  0  0  0  0  0  0  0
   59.4573   63.1454   26.2733 H   0  0  0  0  0  0  0  0  0  0  0  0
   60.0521   60.2934   27.2496 H   0  0  0  0  0  0  0  0  0  0  0  0
   61.1636   61.3256   26.3045 H   0  0  0  0  0  0  0  0  0  0  0  0
   60.6191   61.2982   29.1576 H   0  0  0  0  0  0  0  0  0  0  0  0
   61.8956   62.1884   28.2072 H   0  0  0  0  0  0  0  0  0  0  0  0
   60.4898   63.6895   29.5650 H   0  0  0  0  0  0  0  0  0  0  0  0
   60.3788   63.9909   27.7771 H   0  0  0  0  0  0  0  0  0  0  0  0
   58.3381   62.7943   29.6510 H   0  0  0  0  0  0  0  0  0  0  0  0
   58.1784   64.1458   28.4579 H   0  0  0  0  0  0  0  0  0  0  0  0
   57.1752   62.5461   27.1844 H   0  0  0  0  0  0  0  0  0  0  0  0
   57.9519   61.1958   28.0479 H   0  0  0  0  0  0  0  0  0  0  0  0
  1  5  1  0
  2  3  1  0
  2  7  1  0
  4  3  2  0
  5  6  1  0
  5  4  1  0
  6  2  2  0
  7  8  2  0
  8  9  1  0
  9 13  1  0
 10  9  2  0
 11 10  1  0
 12 11  2  0
 12  7  1  0
 13 16  1  0
 13 15  1  0
 13 14  1  0
 17 19  1  0
 17  1  1  0
 18 26  2  0
 19 18  1  0
 20 21  1  0
 20 19  2  0
 21 25  2  0
 22 21  1  0
 22 23  1  0
 23 24  2  0
 25 24  1  0
 25 26  1  0
 26 27  1  0
 27 28  1  0
 27 32  1  0
 28 29  1  0
 29 30  1  0
 30 31  1  0
 32 31  1  0
  1 33  1  0
  1 34  1  0
  3 35  1  0
  4 36  1  0
  8 37  1  0
 11 38  1  0
 17 39  1  0
 17 40  1  0
 18 41  1  0
 20 42  1  0
 22 43  1  0
 24 44  1  0
 27 45  1  0
 28 46  1  0
 28 47  1  0
 29 48  1  0
 29 49  1  0
 30 50  1  0
 30 51  1  0
 31 52  1  0
 31 53  1  0
 32 54  1  0
 32 55  1  0
M  END
>  <Score>  (1) 
-7.53077

>  <Score_dual>  (1) 
-7.13

>  <Choices>  (1) 
[None, 8, ['11-12', 225], 10, ['22-7', 165], 19, ['4-2', 345], 25, ['54-8', 165], 38, ['18-26', 195]]

$$$$
