
     RDKit          3D

 54 58  0  0  0  0  0  0  0  0999 V2000
   60.6610   63.0790   29.3230 C   0  0  0  0  0  0  0  0  0  0  0  0
   60.3150   64.0430   30.2340 C   0  0  0  0  0  0  0  0  0  0  0  0
   61.2490   64.7250   30.9940 C   0  0  0  0  0  0  0  0  0  0  0  0
   62.5730   64.3570   30.7620 C   0  0  0  0  0  0  0  0  0  0  0  0
   62.9030   63.3770   29.8340 C   0  0  0  0  0  0  0  0  0  0  0  0
   61.9290   62.7690   29.1420 N   0  0  0  0  0  0  0  0  0  0  0  0
   64.2920   63.0070   29.6060 C   0  0  0  0  0  0  0  0  0  0  0  0
   64.9680   62.0310   30.2810 C   0  0  0  0  0  0  0  0  0  0  0  0
   66.2690   61.9420   29.8140 C   0  0  0  0  0  0  0  0  0  0  0  0
   66.3430   62.8750   28.8620 N   0  0  0  0  0  0  0  0  0  0  0  0
   65.1840   63.5120   28.7270 N   0  0  0  0  0  0  0  0  0  0  0  0
   67.5680   63.1330   28.0850 C   0  0  0  0  0  0  0  0  0  0  0  0
   68.7930   63.0930   28.9580 C   0  0  0  0  0  0  0  0  0  0  0  0
   69.9050   63.8900   28.2970 C   0  0  0  0  0  0  0  0  0  0  0  0
   69.5560   65.3430   28.3000 C   0  0  0  0  0  0  0  0  0  0  0  0
   68.1150   65.5950   27.9880 C   0  0  0  0  0  0  0  0  0  0  0  0
   67.4540   64.4170   27.3280 C   0  0  0  0  0  0  0  0  0  0  0  0
   59.6160   62.4050   28.5590 C   0  0  0  0  0  0  0  0  0  0  0  0
   58.4220   62.6060   28.9150 O   0  0  0  0  0  0  0  0  0  0  0  0
   60.7750   59.4200   26.6330 C   0  0  0  0  0  0  0  0  0  0  0  0
   60.4470   60.2780   27.7110 C   0  0  0  0  0  0  0  0  0  0  0  0
   59.9440   61.5480   27.4480 C   0  0  0  0  0  0  0  0  0  0  0  0
   59.7890   61.9080   26.1530 N   0  0  0  0  0  0  0  0  0  0  0  0
   60.1130   61.0610   25.1310 C   0  0  0  0  0  0  0  0  0  0  0  0
   60.5960   59.8420   25.3790 N   0  0  0  0  0  0  0  0  0  0  0  0
   61.3030   58.0910   26.9150 C   0  0  0  0  0  0  0  0  0  0  0  0
   61.1300   56.9910   26.1320 C   0  0  0  0  0  0  0  0  0  0  0  0
   61.6540   55.7580   26.4520 C   0  0  0  0  0  0  0  0  0  0  0  0
   62.3820   55.5720   27.5830 C   0  0  0  0  0  0  0  0  0  0  0  0
   62.5810   56.6770   28.4120 C   0  0  0  0  0  0  0  0  0  0  0  0
   62.0490   57.8760   28.0630 C   0  0  0  0  0  0  0  0  0  0  0  0
   59.2501   64.2847   30.3665 H   0  0  0  0  0  0  0  0  0  0  0  0
   60.9681   65.4978   31.7247 H   0  0  0  0  0  0  0  0  0  0  0  0
   63.3755   64.8540   31.3268 H   0  0  0  0  0  0  0  0  0  0  0  0
   64.5413   61.4063   31.0795 H   0  0  0  0  0  0  0  0  0  0  0  0
   67.0615   61.2577   30.1511 H   0  0  0  0  0  0  0  0  0  0  0  0
   67.6830   62.3257   27.3467 H   0  0  0  0  0  0  0  0  0  0  0  0
   68.5596   63.5315   29.9394 H   0  0  0  0  0  0  0  0  0  0  0  0
   69.1162   62.0503   29.0930 H   0  0  0  0  0  0  0  0  0  0  0  0
   70.0332   63.5472   27.2597 H   0  0  0  0  0  0  0  0  0  0  0  0
   70.8410   63.7398   28.8550 H   0  0  0  0  0  0  0  0  0  0  0  0
   69.7771   65.7552   29.2956 H   0  0  0  0  0  0  0  0  0  0  0  0
   70.1541   65.8283   27.5146 H   0  0  0  0  0  0  0  0  0  0  0  0
   67.5847   65.8173   28.9258 H   0  0  0  0  0  0  0  0  0  0  0  0
   68.0680   66.4409   27.2864 H   0  0  0  0  0  0  0  0  0  0  0  0
   66.3857   64.6483   27.2041 H   0  0  0  0  0  0  0  0  0  0  0  0
   67.9763   64.2622   26.3724 H   0  0  0  0  0  0  0  0  0  0  0  0
   60.5890   59.9425   28.7489 H   0  0  0  0  0  0  0  0  0  0  0  0
   59.9739   61.3883   24.0901 H   0  0  0  0  0  0  0  0  0  0  0  0
   60.5471   57.0910   25.2045 H   0  0  0  0  0  0  0  0  0  0  0  0
   61.4792   54.9067   25.7776 H   0  0  0  0  0  0  0  0  0  0  0  0
   62.7996   54.5865   27.8366 H   0  0  0  0  0  0  0  0  0  0  0  0
   63.1636   56.5772   29.3397 H   0  0  0  0  0  0  0  0  0  0  0  0
   62.2208   58.7309   28.7336 H   0  0  0  0  0  0  0  0  0  0  0  0
  1  2  2  0
  2  3  1  0
  4  3  2  0
  5  4  1  0
  6  1  1  0
  6  5  2  0
  7  5  1  0
  7  8  1  0
  9  8  2  0
 10  9  1  0
 11 10  1  0
 11  7  2  0
 12 10  1  0
 12 13  1  0
 14 15  1  0
 14 13  1  0
 16 15  1  0
 17 16  1  0
 17 12  1  0
 18 19  2  0
 18  1  1  0
 20 26  1  0
 20 21  2  0
 22 21  1  0
 22 18  1  0
 23 22  2  0
 24 25  2  0
 24 23  1  0
 25 20  1  0
 26 31  2  0
 27 28  2  0
 27 26  1  0
 28 29  1  0
 29 30  2  0
 31 30  1  0
  2 32  1  0
  3 33  1  0
  4 34  1  0
  8 35  1  0
  9 36  1  0
 12 37  1  0
 13 38  1  0
 13 39  1  0
 14 40  1  0
 14 41  1  0
 15 42  1  0
 15 43  1  0
 16 44  1  0
 16 45  1  0
 17 46  1  0
 17 47  1  0
 21 48  1  0
 24 49  1  0
 27 50  1  0
 28 51  1  0
 29 52  1  0
 30 53  1  0
 31 54  1  0
M  END
>  <Score>  (1) 
-8.19088

>  <Score_dual>  (1) 
-7.08

>  <Choices>  (1) 
[None, 8, ['5-9', 105], 8, ['1-26', 120], 21, ['6-2', 15], 30, ['22-8', 120], 37, ['18-16', 75]]

$$$$
