
     RDKit          3D

 50 55  0  0  1  0  0  0  0  0999 V2000
   59.1890   57.5980   24.8830 N   0  0  0  0  0  0  0  0  0  0  0  0
   60.2890   57.7890   25.7480 C   0  0  2  0  0  0  0  0  0  0  0  0
   61.2600   58.8640   25.4180 C   0  0  0  0  0  0  0  0  0  0  0  0
   61.2140   59.3820   24.1470 O   0  0  0  0  0  0  0  0  0  0  0  0
   59.8850   59.5620   23.7240 C   0  0  0  0  0  0  0  0  0  0  0  0
   59.3100   58.2040   23.5770 C   0  0  2  0  0  0  0  0  0  0  0  0
   57.3810   56.9270   22.7280 C   0  0  0  0  0  0  0  0  0  0  0  0
   58.0160   58.1290   22.8830 C   0  0  0  0  0  0  0  0  0  0  0  0
   57.3820   59.2520   22.3290 C   0  0  0  0  0  0  0  0  0  0  0  0
   56.1890   59.1530   21.6660 C   0  0  0  0  0  0  0  0  0  0  0  0
   55.5590   57.9190   21.5180 C   0  0  0  0  0  0  0  0  0  0  0  0
   56.1620   56.7900   22.0560 C   0  0  0  0  0  0  0  0  0  0  0  0
   54.3750   58.1330   20.8040 O   0  0  0  0  0  0  0  0  0  0  0  0
   54.5470   59.3650   20.0680 C   0  0  0  0  0  0  0  0  0  0  0  0
   55.3470   60.0780   21.0260 O   0  0  0  0  0  0  0  0  0  0  0  0
   61.1070   56.1830   26.0090 S   0  0  0  0  0  0  0  0  0  0  0  0
   65.0090   56.6480   25.7810 C   0  0  0  0  0  0  0  0  0  0  0  0
   65.4290   56.9790   27.0720 C   0  0  0  0  0  0  0  0  0  0  0  0
   64.4480   57.0570   28.0400 C   0  0  0  0  0  0  0  0  0  0  0  0
   63.1560   56.8130   27.6910 N   0  0  0  0  0  0  0  0  0  0  0  0
   62.7850   56.4970   26.4470 C   0  0  0  0  0  0  0  0  0  0  0  0
   63.7290   56.4220   25.5140 N   0  0  0  0  0  0  0  0  0  0  0  0
   63.9200   58.1030   30.2590 C   0  0  0  0  0  0  0  0  0  0  0  0
   64.7520   57.3930   29.4230 C   0  0  0  0  0  0  0  0  0  0  0  0
   65.9440   57.0020   29.9910 C   0  0  0  0  0  0  0  0  0  0  0  0
   66.2990   57.2860   31.2960 C   0  0  0  0  0  0  0  0  0  0  0  0
   67.3970   57.0010   32.0360 N   0  0  0  0  0  0  0  0  0  0  0  0
   67.2560   57.4950   33.2390 N   0  0  0  0  0  0  0  0  0  0  0  0
   66.0570   58.1230   33.3260 C   0  0  0  0  0  0  0  0  0  0  0  0
   65.4310   57.9990   32.0960 C   0  0  0  0  0  0  0  0  0  0  0  0
   64.2260   58.4110   31.5660 C   0  0  0  0  0  0  0  0  0  0  0  0
   59.0613   56.5844   24.7516 H   0  0  0  0  0  0  0  0  0  0  0  0
   59.8534   58.1838   26.6777 H   0  0  0  0  0  0  0  0  0  0  0  0
   61.0871   59.6932   26.1199 H   0  0  0  0  0  0  0  0  0  0  0  0
   62.2483   58.3871   25.4945 H   0  0  0  0  0  0  0  0  0  0  0  0
   59.3207   60.1359   24.4738 H   0  0  0  0  0  0  0  0  0  0  0  0
   59.8378   60.1216   22.7782 H   0  0  0  0  0  0  0  0  0  0  0  0
   60.0128   57.6599   22.9289 H   0  0  0  0  0  0  0  0  0  0  0  0
   57.8508   56.0270   23.1514 H   0  0  0  0  0  0  0  0  0  0  0  0
   57.8572   60.2389   22.4306 H   0  0  0  0  0  0  0  0  0  0  0  0
   55.6881   55.8024   21.9552 H   0  0  0  0  0  0  0  0  0  0  0  0
   55.0794   59.2091   19.1181 H   0  0  0  0  0  0  0  0  0  0  0  0
   53.6196   59.8663   19.7538 H   0  0  0  0  0  0  0  0  0  0  0  0
   65.7516   56.5736   24.9729 H   0  0  0  0  0  0  0  0  0  0  0  0
   66.4873   57.1678   27.3050 H   0  0  0  0  0  0  0  0  0  0  0  0
   62.9537   58.4445   29.8595 H   0  0  0  0  0  0  0  0  0  0  0  0
   66.6526   56.4323   29.3719 H   0  0  0  0  0  0  0  0  0  0  0  0
   68.2177   56.4755   31.7025 H   0  0  0  0  0  0  0  0  0  0  0  0
   65.6549   58.6370   34.2115 H   0  0  0  0  0  0  0  0  0  0  0  0
   63.5152   58.9810   32.1823 H   0  0  0  0  0  0  0  0  0  0  0  0
  1  2  1  0
  2 16  1  0
  3  2  1  0
  4  3  1  0
  5  4  1  0
  6  5  1  0
  6  1  1  0
  7  8  2  0
  8  6  1  0
  9  8  1  0
 10  9  2  0
 11 10  1  0
 11 12  2  0
 12  7  1  0
 13 11  1  0
 14 13  1  0
 14 15  1  0
 15 10  1  0
 16 21  1  0
 17 18  2  0
 18 19  1  0
 19 24  1  0
 20 19  2  0
 21 20  1  0
 22 17  1  0
 22 21  2  0
 23 31  2  0
 24 25  2  0
 24 23  1  0
 25 26  1  0
 26 27  1  0
 26 30  2  0
 27 28  1  0
 28 29  2  0
 30 29  1  0
 31 30  1  0
  1 32  1  0
  2 33  1  1
  3 34  1  0
  3 35  1  0
  5 36  1  0
  5 37  1  0
  6 38  1  6
  7 39  1  0
  9 40  1  0
 12 41  1  0
 14 42  1  0
 14 43  1  0
 17 44  1  0
 18 45  1  0
 23 46  1  0
 25 47  1  0
 27 48  1  0
 29 49  1  0
 31 50  1  0
M  END
>  <Score>  (1) 
-7.55724

>  <Score_dual>  (1) 
-7.03

>  <Choices>  (1) 
[None, 9, ['17-16', 135], 10, ['20-4', 30], 23, ['52-13', 240], 36, ['54-10', 150]]

$$$$
