GVJ
 OpenBabel10282417163D

 38 41  0  0  0  0  0  0  0  0999 V2000
    1.0931   -0.0438    0.1738 N   0  0  0  0  0  0  0  0  0  0  0  0
    0.5099    1.2303   -0.2861 C   0  0  1  0  0  0  0  0  0  0  0  0
    1.0433    1.6547   -1.6528 C   0  0  0  0  0  0  0  0  0  0  0  0
    0.9715    3.0074   -2.0343 C   0  0  0  0  0  0  0  0  0  0  0  0
    1.4326    3.4348   -3.2784 C   0  0  0  0  0  0  0  0  0  0  0  0
    2.0332    2.5267   -4.1424 C   0  0  0  0  0  0  0  0  0  0  0  0
    2.1489    1.1903   -3.7733 C   0  0  0  0  0  0  0  0  0  0  0  0
    1.6207    0.7500   -2.5593 C   0  0  0  0  0  0  0  0  0  0  0  0
   -1.0145    1.2221   -0.2087 C   0  0  0  0  0  0  0  0  0  0  0  0
   -1.7495    0.0278   -0.1825 C   0  0  0  0  0  0  0  0  0  0  0  0
   -3.1399    0.0376   -0.0783 C   0  0  0  0  0  0  0  0  0  0  0  0
   -3.8463    1.2437   -0.0295 C   0  0  0  0  0  0  0  0  0  0  0  0
   -3.1219    2.4406   -0.0383 C   0  0  0  0  0  0  0  0  0  0  0  0
   -1.7302    2.4308   -0.1416 C   0  0  0  0  0  0  0  0  0  0  0  0
   -5.2980    1.2459   -0.0406 C   0  0  0  0  0  0  0  0  0  0  0  0
   -5.9713    0.5942    0.9461 N   0  0  0  0  0  0  0  0  0  0  0  0
   -7.3184    0.5739    0.8789 C   0  0  0  0  0  0  0  0  0  0  0  0
   -8.1150    1.0983   -0.0761 N   0  0  0  0  0  0  0  0  0  0  0  0
   -7.3902    1.7049   -1.0258 C   0  0  0  0  0  0  0  0  0  0  0  0
   -7.8526    2.3092   -2.1557 N   0  0  0  0  0  0  0  0  0  0  0  0
   -6.7760    2.7860   -2.8486 C   0  0  0  0  0  0  0  0  0  0  0  0
   -5.6448    2.5270   -2.2254 N   0  0  0  0  0  0  0  0  0  0  0  0
   -6.0117    1.8375   -1.0872 C   0  0  0  0  0  0  0  0  0  0  0  0
    0.8639    1.9691    0.4463 H   0  0  0  0  0  0  0  0  0  0  0  0
    0.8080   -0.7729   -0.4749 H   0  0  0  0  0  0  0  0  0  0  0  0
    2.1051    0.0207    0.0981 H   0  0  0  0  0  0  0  0  0  0  0  0
    0.5456    3.7504   -1.3661 H   0  0  0  0  0  0  0  0  0  0  0  0
    1.3277    4.4780   -3.5633 H   0  0  0  0  0  0  0  0  0  0  0  0
    2.4088    2.8595   -5.1049 H   0  0  0  0  0  0  0  0  0  0  0  0
    2.6472    0.4833   -4.4306 H   0  0  0  0  0  0  0  0  0  0  0  0
    1.6823   -0.3111   -2.3378 H   0  0  0  0  0  0  0  0  0  0  0  0
   -1.2553   -0.9368   -0.2331 H   0  0  0  0  0  0  0  0  0  0  0  0
   -3.6716   -0.9109   -0.0564 H   0  0  0  0  0  0  0  0  0  0  0  0
   -3.6421    3.3946    0.0252 H   0  0  0  0  0  0  0  0  0  0  0  0
   -1.2235    3.3903   -0.1779 H   0  0  0  0  0  0  0  0  0  0  0  0
   -7.8227    0.0678    1.6965 H   0  0  0  0  0  0  0  0  0  0  0  0
   -8.8252    2.3683   -2.4283 H   0  0  0  0  0  0  0  0  0  0  0  0
   -6.8708    3.3032   -3.7930 H   0  0  0  0  0  0  0  0  0  0  0  0
  1 25  1  0  0  0  0
  1 26  1  0  0  0  0
  2  1  1  0  0  0  0
  2  3  1  0  0  0  0
  2  9  1  0  0  0  0
  2 24  1  1  0  0  0
  3  4  1  0  0  0  0
  3  8  2  0  0  0  0
  4  5  2  0  0  0  0
  4 27  1  0  0  0  0
  5  6  1  0  0  0  0
  5 28  1  0  0  0  0
  6  7  2  0  0  0  0
  6 29  1  0  0  0  0
  7  8  1  0  0  0  0
  7 30  1  0  0  0  0
  8 31  1  0  0  0  0
  9 10  1  0  0  0  0
  9 14  2  0  0  0  0
 10 11  2  0  0  0  0
 10 32  1  0  0  0  0
 11 12  1  0  0  0  0
 11 33  1  0  0  0  0
 12 13  2  0  0  0  0
 12 15  1  0  0  0  0
 13 14  1  0  0  0  0
 13 34  1  0  0  0  0
 14 35  1  0  0  0  0
 15 16  1  0  0  0  0
 15 23  2  0  0  0  0
 16 17  2  0  0  0  0
 17 18  1  0  0  0  0
 17 36  1  0  0  0  0
 18 19  2  0  0  0  0
 19 20  1  0  0  0  0
 19 23  1  0  0  0  0
 20 21  1  0  0  0  0
 20 37  1  0  0  0  0
 21 22  2  0  0  0  0
 21 38  1  0  0  0  0
 22 23  1  0  0  0  0
M  END
>  <DRUGBANK_ID>
DB07855

>  <COMMON_NAME>
(S)-1-PHENYL-1-[4-(9H-PURIN-6-YL)PHENYL]METHANAMINE

$$$$
