
 OpenBabel10282417123D

 62 66  0  0  1  0  0  0  0  0999 V2000
    0.9682   -0.2052    2.6210 C   0  0  0  0  0  0  0  0  0  0  0  0
   -1.7373    1.1590    2.5661 C   0  0  0  0  0  0  0  0  0  0  0  0
   -2.1569   -0.1241    3.2678 C   0  0  0  0  0  0  0  0  0  0  0  0
    8.0275    1.6154    5.2466 C   0  0  0  0  0  0  0  0  0  0  0  0
    7.9697    4.0272    4.7667 C   0  0  0  0  0  0  0  0  0  0  0  0
    4.4546    0.7608    2.7468 C   0  0  0  0  0  0  0  0  0  0  0  0
    4.3127    3.0522    2.2933 C   0  0  0  0  0  0  0  0  0  0  0  0
    8.5796    1.3885    4.0000 C   0  0  0  0  0  0  0  0  0  0  0  0
    8.5557    3.7913    3.5407 C   0  0  0  0  0  0  0  0  0  0  0  0
    2.6893    5.8498    3.9149 C   0  0  0  0  0  0  0  0  0  0  0  0
    3.5941    0.4808    1.6192 C   0  0  0  0  0  0  0  0  0  0  0  0
    3.2600    2.7797    1.3336 C   0  0  0  0  0  0  0  0  0  0  0  0
    2.8508    4.5361    4.2299 C   0  0  0  0  0  0  0  0  0  0  0  0
   -1.6055    0.7185    1.1250 C   0  0  0  0  0  0  0  0  0  0  0  0
   -1.6611   -1.2705    2.3752 C   0  0  0  0  0  0  0  0  0  0  0  0
    4.1821    6.4313    5.7326 C   0  0  0  0  0  0  0  0  0  0  0  0
    1.1427    0.0396    0.0212 C   0  0  0  0  0  0  0  0  0  0  0  0
    0.4406   -0.6620    1.2508 C   0  0  2  0  0  0  0  0  0  0  0  0
    4.8002    2.0748    3.1936 C   0  0  0  0  0  0  0  0  0  0  0  0
    7.5616    2.9101    5.4870 C   0  0  0  0  0  0  0  0  0  0  0  0
    8.8015    2.4784    3.1626 C   0  0  0  0  0  0  0  0  0  0  0  0
    3.2702    6.8120    4.7428 C   0  0  0  0  0  0  0  0  0  0  0  0
    2.8617    1.4880    1.0121 C   0  0  0  0  0  0  0  0  0  0  0  0
    3.7685    4.1242    5.1759 C   0  0  0  0  0  0  0  0  0  0  0  0
    4.5022    5.0838    5.8897 C   0  0  0  0  0  0  0  0  0  0  0  0
    5.1172    2.3330    4.8144 C   0  0  1  0  0  0  0  0  0  0  0  0
    6.1585    2.9359    5.9991 C   0  0  2  0  0  0  0  0  0  0  0  0
   -1.0510   -0.6447    1.1787 N   0  0  0  0  0  0  0  0  0  0  0  0
    9.2226    2.2847    1.8791 O   0  0  0  0  0  0  0  0  0  0  0  0
    2.8841    8.1039    4.6237 O   0  0  0  0  0  0  0  0  0  0  0  0
    1.7206    1.3461    0.2538 O   0  0  0  0  0  0  0  0  0  0  0  0
    3.8574    2.7630    5.3545 O   0  0  0  0  0  0  0  0  0  0  0  0
    5.7712    4.4993    6.9560 S   0  0  0  0  0  0  0  0  0  0  0  0
    0.6971   -1.7270    1.1376 H   0  0  0  0  0  0  0  0  0  0  0  0
    5.2895    1.2695    5.0506 H   0  0  0  0  0  0  0  0  0  0  0  0
    6.1214    2.2322    6.8503 H   0  0  0  0  0  0  0  0  0  0  0  0
    1.1161    0.8751    2.6466 H   0  0  0  0  0  0  0  0  0  0  0  0
    1.8786   -0.7385    2.8850 H   0  0  0  0  0  0  0  0  0  0  0  0
    0.3276   -0.4152    3.4731 H   0  0  0  0  0  0  0  0  0  0  0  0
   -0.7884    1.5371    2.9567 H   0  0  0  0  0  0  0  0  0  0  0  0
   -2.4505    1.9738    2.6996 H   0  0  0  0  0  0  0  0  0  0  0  0
   -1.7457   -0.1793    4.2820 H   0  0  0  0  0  0  0  0  0  0  0  0
   -3.2468   -0.1579    3.3402 H   0  0  0  0  0  0  0  0  0  0  0  0
    7.6870    0.7781    5.8526 H   0  0  0  0  0  0  0  0  0  0  0  0
    7.6149    5.0272    5.0004 H   0  0  0  0  0  0  0  0  0  0  0  0
    4.7513   -0.1144    3.3217 H   0  0  0  0  0  0  0  0  0  0  0  0
    4.5675    4.1001    2.4170 H   0  0  0  0  0  0  0  0  0  0  0  0
    8.6894    0.3629    3.6724 H   0  0  0  0  0  0  0  0  0  0  0  0
    8.6815    4.6186    2.8578 H   0  0  0  0  0  0  0  0  0  0  0  0
    2.0643    6.1144    3.0684 H   0  0  0  0  0  0  0  0  0  0  0  0
    3.3702   -0.5563    1.3746 H   0  0  0  0  0  0  0  0  0  0  0  0
    2.6734    3.6079    0.9257 H   0  0  0  0  0  0  0  0  0  0  0  0
    2.3297    3.7540    3.6760 H   0  0  0  0  0  0  0  0  0  0  0  0
   -2.6019    0.6718    0.6687 H   0  0  0  0  0  0  0  0  0  0  0  0
   -1.0192    1.4159    0.5219 H   0  0  0  0  0  0  0  0  0  0  0  0
   -0.9669   -1.9378    2.9064 H   0  0  0  0  0  0  0  0  0  0  0  0
   -2.4981   -1.9170    2.0911 H   0  0  0  0  0  0  0  0  0  0  0  0
    4.6016    7.2053    6.3819 H   0  0  0  0  0  0  0  0  0  0  0  0
    1.8927   -0.6117   -0.4428 H   0  0  0  0  0  0  0  0  0  0  0  0
    0.3912    0.1586   -0.7815 H   0  0  0  0  0  0  0  0  0  0  0  0
    9.3783    1.3372    1.7700 H   0  0  0  0  0  0  0  0  0  0  0  0
    2.1277    8.1271    4.0029 H   0  0  0  0  0  0  0  0  0  0  0  0
  1 37  1  0  0  0  0
  1 38  1  0  0  0  0
  1 39  1  0  0  0  0
  2 40  1  0  0  0  0
  2 41  1  0  0  0  0
  3  2  1  0  0  0  0
  3 42  1  0  0  0  0
  3 43  1  0  0  0  0
  4 44  1  0  0  0  0
  5 45  1  0  0  0  0
  6 46  1  0  0  0  0
  7 47  1  0  0  0  0
  8  4  1  0  0  0  0
  8 48  1  0  0  0  0
  9  5  2  0  0  0  0
  9 49  1  0  0  0  0
 10 50  1  0  0  0  0
 11  6  1  0  0  0  0
 11 51  1  0  0  0  0
 12  7  2  0  0  0  0
 12 52  1  0  0  0  0
 13 10  2  0  0  0  0
 13 53  1  0  0  0  0
 14  2  1  0  0  0  0
 14 54  1  0  0  0  0
 14 55  1  0  0  0  0
 15  3  1  0  0  0  0
 15 56  1  0  0  0  0
 15 57  1  0  0  0  0
 16 58  1  0  0  0  0
 17 59  1  0  0  0  0
 17 60  1  0  0  0  0
 18 34  1  6  0  0  0
 18 17  1  0  0  0  0
 18  1  1  0  0  0  0
 19  6  2  0  0  0  0
 19  7  1  0  0  0  0
 20  4  2  0  0  0  0
 20  5  1  0  0  0  0
 21  8  2  0  0  0  0
 21  9  1  0  0  0  0
 22 10  1  0  0  0  0
 22 16  2  0  0  0  0
 23 11  2  0  0  0  0
 23 12  1  0  0  0  0
 24 13  1  0  0  0  0
 25 16  1  0  0  0  0
 25 24  2  0  0  0  0
 26 19  1  0  0  0  0
 26 35  1  1  0  0  0
 27 20  1  0  0  0  0
 27 26  1  0  0  0  0
 27 36  1  1  0  0  0
 28 14  1  0  0  0  0
 28 15  1  0  0  0  0
 28 18  1  0  0  0  0
 29 21  1  0  0  0  0
 29 61  1  0  0  0  0
 30 22  1  0  0  0  0
 30 62  1  0  0  0  0
 31 17  1  0  0  0  0
 31 23  1  0  0  0  0
 32 24  1  0  0  0  0
 32 26  1  0  0  0  0
 33 25  1  0  0  0  0
 33 27  1  0  0  0  0
M  END
>  <DRUGBANK_ID>
DB02615

>  <SECONDARY_ACCESSION_NUMBERS>
EXPT00478; EXPT00338

>  <COMMON_NAME>
Compound 19

$$$$
