
 OpenBabel10282417173D

 45 46  0  0  0  0  0  0  0  0999 V2000
   -0.7851   -2.7411   -0.8386 C   0  0  0  0  0  0  0  0  0  0  0  0
   -1.1784   -2.6788   -2.3056 C   0  0  2  0  0  0  0  0  0  0  0  0
   -0.2970   -3.6407   -3.1945 C   0  0  0  0  0  0  0  0  0  0  0  0
    0.9217   -3.1213   -3.7882 O   0  0  0  0  0  0  0  0  0  0  0  0
    0.9194   -2.2557   -4.8600 C   0  0  0  0  0  0  0  0  0  0  0  0
   -0.0831   -1.3291   -5.1591 C   0  0  0  0  0  0  0  0  0  0  0  0
    0.1778   -0.1400   -5.8399 C   0  0  0  0  0  0  0  0  0  0  0  0
    1.3144   -0.0569   -6.5846 C   0  0  0  0  0  0  0  0  0  0  0  0
    2.2344   -1.1140   -6.5382 C   0  0  0  0  0  0  0  0  0  0  0  0
    2.0590   -2.1751   -5.6256 C   0  0  0  0  0  0  0  0  0  0  0  0
   -0.9175   -1.3399   -2.7384 N   0  0  0  0  0  0  0  0  0  0  0  0
   -1.6184   -0.1093   -2.5008 C   0  0  2  0  0  0  0  0  0  0  0  0
   -1.1026    0.3715   -1.1511 C   0  0  0  0  0  0  0  0  0  0  0  0
   -3.1557   -0.1061   -2.7056 C   0  0  1  0  0  0  0  0  0  0  0  0
   -3.7008    1.1101   -2.1758 O   0  0  0  0  0  0  0  0  0  0  0  0
   -3.6176   -0.2464   -4.1599 C   0  0  0  0  0  0  0  0  0  0  0  0
   -3.7546   -1.5151   -4.7553 C   0  0  0  0  0  0  0  0  0  0  0  0
   -4.2656   -1.6664   -6.0514 C   0  0  0  0  0  0  0  0  0  0  0  0
   -4.6736   -0.5428   -6.7572 C   0  0  0  0  0  0  0  0  0  0  0  0
   -5.2023   -0.6357   -8.0108 O   0  0  0  0  0  0  0  0  0  0  0  0
   -4.5452    0.7219   -6.2002 C   0  0  0  0  0  0  0  0  0  0  0  0
   -3.9748    0.8729   -4.9310 C   0  0  0  0  0  0  0  0  0  0  0  0
   -0.9128   -3.7392   -0.4202 H   0  0  0  0  0  0  0  0  0  0  0  0
   -1.4146   -2.0745   -0.2426 H   0  0  0  0  0  0  0  0  0  0  0  0
    0.2585   -2.4310   -0.7146 H   0  0  0  0  0  0  0  0  0  0  0  0
   -2.2249   -2.9937   -2.4107 H   0  0  0  0  0  0  0  0  0  0  0  0
    0.0334   -4.4603   -2.5390 H   0  0  0  0  0  0  0  0  0  0  0  0
   -0.8815   -4.1094   -3.9921 H   0  0  0  0  0  0  0  0  0  0  0  0
   -1.0840   -1.4425   -4.8094 H   0  0  0  0  0  0  0  0  0  0  0  0
   -0.5585    0.6672   -5.7962 H   0  0  0  0  0  0  0  0  0  0  0  0
    1.4504    0.7896   -7.2545 H   0  0  0  0  0  0  0  0  0  0  0  0
    3.0869   -1.0993   -7.1978 H   0  0  0  0  0  0  0  0  0  0  0  0
    2.8074   -2.9642   -5.5621 H   0  0  0  0  0  0  0  0  0  0  0  0
    0.0917   -1.1825   -2.7507 H   0  0  0  0  0  0  0  0  0  0  0  0
   -1.2215    0.6118   -3.2320 H   0  0  0  0  0  0  0  0  0  0  0  0
   -1.7177   -0.0262   -0.3436 H   0  0  0  0  0  0  0  0  0  0  0  0
   -0.0662    0.0372   -0.9908 H   0  0  0  0  0  0  0  0  0  0  0  0
   -1.0771    1.4593   -1.0889 H   0  0  0  0  0  0  0  0  0  0  0  0
   -3.6078   -0.9201   -2.1290 H   0  0  0  0  0  0  0  0  0  0  0  0
   -3.3757    1.1990   -1.2663 H   0  0  0  0  0  0  0  0  0  0  0  0
   -3.4548   -2.4075   -4.2149 H   0  0  0  0  0  0  0  0  0  0  0  0
   -4.3579   -2.6620   -6.4747 H   0  0  0  0  0  0  0  0  0  0  0  0
   -5.1022   -1.5494   -8.3238 H   0  0  0  0  0  0  0  0  0  0  0  0
   -4.9016    1.5914   -6.7450 H   0  0  0  0  0  0  0  0  0  0  0  0
   -3.8427    1.8767   -4.5332 H   0  0  0  0  0  0  0  0  0  0  0  0
  1 23  1  0  0  0  0
  1 24  1  0  0  0  0
  1 25  1  0  0  0  0
  2 11  1  0  0  0  0
  2 26  1  6  0  0  0
  2  3  1  0  0  0  0
  2  1  1  0  0  0  0
  3  4  1  0  0  0  0
  3 27  1  0  0  0  0
  3 28  1  0  0  0  0
  4  5  1  0  0  0  0
  5  6  2  0  0  0  0
  5 10  1  0  0  0  0
  6  7  1  0  0  0  0
  6 29  1  0  0  0  0
  7  8  2  0  0  0  0
  7 30  1  0  0  0  0
  8  9  1  0  0  0  0
  8 31  1  0  0  0  0
  9 10  2  0  0  0  0
  9 32  1  0  0  0  0
 10 33  1  0  0  0  0
 11 34  1  0  0  0  0
 12 14  1  0  0  0  0
 12 35  1  6  0  0  0
 12 13  1  0  0  0  0
 12 11  1  0  0  0  0
 13 36  1  0  0  0  0
 13 37  1  0  0  0  0
 13 38  1  0  0  0  0
 14 15  1  0  0  0  0
 14 16  1  0  0  0  0
 14 39  1  1  0  0  0
 15 40  1  0  0  0  0
 16 17  2  0  0  0  0
 16 22  1  0  0  0  0
 17 18  1  0  0  0  0
 17 41  1  0  0  0  0
 18 19  2  0  0  0  0
 18 42  1  0  0  0  0
 19 20  1  0  0  0  0
 19 21  1  0  0  0  0
 20 43  1  0  0  0  0
 21 22  2  0  0  0  0
 21 44  1  0  0  0  0
 22 45  1  0  0  0  0
M  END
>  <DRUGBANK_ID>
DB08941

>  <COMMON_NAME>
Isoxsuprine

>  <CAS_NUMBER>
395-28-8

>  <UNII>
R15UI3245N

>  <SYNONYMS>
Isoxsuprine

$$$$
