
 OpenBabel10282417123D

 71 71  0  0  0  0  0  0  0  0999 V2000
   -0.9579    1.2440   -0.2357 O   0  0  0  0  0  0  0  0  0  0  0  0
    0.9222   -2.4302   -0.6644 O   0  0  0  0  0  0  0  0  0  0  0  0
    2.4517    0.0004    0.1245 O   0  0  0  0  0  0  0  0  0  0  0  0
    0.3920    3.7160    0.2365 O   0  0  0  0  0  0  0  0  0  0  0  0
   -3.3022   -3.6853   -1.1159 O   0  0  0  0  0  0  0  0  0  0  0  0
    0.3944   -1.5788   -2.7405 O   0  0  0  0  0  0  0  0  0  0  0  0
   -4.3202   -0.7020    0.4072 O   0  0  0  0  0  0  0  0  0  0  0  0
   -4.0109   -1.6046   -0.6264 N   0  0  0  0  0  0  0  0  0  0  0  0
   -1.1175   -1.2326   -0.2134 C   0  0  2  0  0  0  0  0  0  0  0  0
    0.3775   -1.2888    0.0437 C   0  0  2  0  0  0  0  0  0  0  0  0
    1.1000    0.0328   -0.3288 C   0  0  1  0  0  0  0  0  0  0  0  0
    0.3762    1.2675    0.2212 C   0  0  1  0  0  0  0  0  0  0  0  0
   -1.6597    0.1184    0.2260 C   0  0  0  0  0  0  0  0  0  0  0  0
   -1.9047   -2.4276    0.3810 C   0  0  0  0  0  0  0  0  0  0  0  0
    0.9830    2.5506   -0.3443 C   0  0  0  0  0  0  0  0  0  0  0  0
   -3.1411   -2.6444   -0.4804 C   0  0  0  0  0  0  0  0  0  0  0  0
    0.9421   -2.4236   -2.0244 C   0  0  0  0  0  0  0  0  0  0  0  0
    1.7156   -3.5635   -2.6030 C   0  0  0  0  0  0  0  0  0  0  0  0
    3.1895   -3.4648   -2.2259 C   0  0  0  0  0  0  0  0  0  0  0  0
    3.4086   -3.6441   -0.7209 C   0  0  0  0  0  0  0  0  0  0  0  0
    2.8096   -4.9735   -0.2475 C   0  0  0  0  0  0  0  0  0  0  0  0
    3.5356   -6.1324   -0.9339 C   0  0  0  0  0  0  0  0  0  0  0  0
    5.0255   -6.0772   -0.5842 C   0  0  0  0  0  0  0  0  0  0  0  0
    5.2007   -6.1792    0.9347 C   0  0  0  0  0  0  0  0  0  0  0  0
    4.6193   -7.5064    1.4300 C   0  0  0  0  0  0  0  0  0  0  0  0
    5.3446   -8.6716    0.7505 C   0  0  0  0  0  0  0  0  0  0  0  0
    6.8403   -8.6242    1.0827 C   0  0  0  0  0  0  0  0  0  0  0  0
    7.0622   -8.7515    2.5939 C   0  0  0  0  0  0  0  0  0  0  0  0
    6.4802  -10.0602    3.1298 C   0  0  0  0  0  0  0  0  0  0  0  0
    7.1461  -11.2488    2.4560 C   0  0  0  0  0  0  0  0  0  0  0  0
   -4.7083   -1.6635   -1.3605 H   0  0  0  0  0  0  0  0  0  0  0  0
    2.4419   -0.0067    1.0966 H   0  0  0  0  0  0  0  0  0  0  0  0
   -0.4393    3.8820   -0.2462 H   0  0  0  0  0  0  0  0  0  0  0  0
   -3.6547   -0.8383    1.1009 H   0  0  0  0  0  0  0  0  0  0  0  0
   -1.2691   -1.2901   -1.2934 H   0  0  0  0  0  0  0  0  0  0  0  0
    0.5606   -1.4808    1.1127 H   0  0  0  0  0  0  0  0  0  0  0  0
    1.1257    0.1340   -1.4157 H   0  0  0  0  0  0  0  0  0  0  0  0
    0.3787    1.3048    1.3189 H   0  0  0  0  0  0  0  0  0  0  0  0
   -2.5984    0.2864   -0.2720 H   0  0  0  0  0  0  0  0  0  0  0  0
   -1.7642    0.1558    1.3157 H   0  0  0  0  0  0  0  0  0  0  0  0
   -1.3206   -3.3610    0.3345 H   0  0  0  0  0  0  0  0  0  0  0  0
   -2.1672   -2.2931    1.4353 H   0  0  0  0  0  0  0  0  0  0  0  0
    2.0488    2.5788   -0.1249 H   0  0  0  0  0  0  0  0  0  0  0  0
    0.8260    2.6028   -1.4287 H   0  0  0  0  0  0  0  0  0  0  0  0
    1.2425   -4.5089   -2.3196 H   0  0  0  0  0  0  0  0  0  0  0  0
    1.6220   -3.5123   -3.6921 H   0  0  0  0  0  0  0  0  0  0  0  0
    3.7470   -4.2264   -2.7855 H   0  0  0  0  0  0  0  0  0  0  0  0
    3.6095   -2.5065   -2.5457 H   0  0  0  0  0  0  0  0  0  0  0  0
    4.4750   -3.5638   -0.4928 H   0  0  0  0  0  0  0  0  0  0  0  0
    2.9973   -2.8183   -0.1417 H   0  0  0  0  0  0  0  0  0  0  0  0
    2.8670   -5.0361    0.8434 H   0  0  0  0  0  0  0  0  0  0  0  0
    1.7360   -5.0487   -0.4382 H   0  0  0  0  0  0  0  0  0  0  0  0
    3.0767   -7.0818   -0.6417 H   0  0  0  0  0  0  0  0  0  0  0  0
    3.4079   -6.1130   -2.0197 H   0  0  0  0  0  0  0  0  0  0  0  0
    5.5611   -6.8641   -1.1210 H   0  0  0  0  0  0  0  0  0  0  0  0
    5.5050   -5.1662   -0.9510 H   0  0  0  0  0  0  0  0  0  0  0  0
    6.2566   -6.0660    1.1932 H   0  0  0  0  0  0  0  0  0  0  0  0
    4.7287   -5.3481    1.4665 H   0  0  0  0  0  0  0  0  0  0  0  0
    4.6871   -7.5569    2.5198 H   0  0  0  0  0  0  0  0  0  0  0  0
    3.5438   -7.5808    1.2416 H   0  0  0  0  0  0  0  0  0  0  0  0
    4.8844   -9.6170    1.0482 H   0  0  0  0  0  0  0  0  0  0  0  0
    5.2093   -8.6600   -0.3357 H   0  0  0  0  0  0  0  0  0  0  0  0
    7.3657   -9.4066    0.5304 H   0  0  0  0  0  0  0  0  0  0  0  0
    7.3070   -7.7020    0.7207 H   0  0  0  0  0  0  0  0  0  0  0  0
    8.1319   -8.6897    2.8145 H   0  0  0  0  0  0  0  0  0  0  0  0
    6.6116   -7.9064    3.1290 H   0  0  0  0  0  0  0  0  0  0  0  0
    6.6191  -10.1085    4.2131 H   0  0  0  0  0  0  0  0  0  0  0  0
    5.3959  -10.1068    2.9726 H   0  0  0  0  0  0  0  0  0  0  0  0
    8.2237  -11.2230    2.6422 H   0  0  0  0  0  0  0  0  0  0  0  0
    6.7350  -12.1866    2.8299 H   0  0  0  0  0  0  0  0  0  0  0  0
    6.9926  -11.2480    1.3719 H   0  0  0  0  0  0  0  0  0  0  0  0
  1 12  1  0  0  0  0
  1 13  1  0  0  0  0
  2 17  1  0  0  0  0
  3 32  1  0  0  0  0
  4 15  1  0  0  0  0
  4 33  1  0  0  0  0
  5 16  2  0  0  0  0
  6 17  2  0  0  0  0
  7  8  1  0  0  0  0
  7 34  1  0  0  0  0
  8 16  1  0  0  0  0
  8 31  1  0  0  0  0
  9 10  1  0  0  0  0
  9 13  1  0  0  0  0
  9 35  1  6  0  0  0
  9 14  1  0  0  0  0
 10  2  1  0  0  0  0
 10 11  1  0  0  0  0
 10 36  1  1  0  0  0
 11  3  1  0  0  0  0
 11 12  1  0  0  0  0
 11 37  1  6  0  0  0
 12 38  1  1  0  0  0
 12 15  1  0  0  0  0
 13 39  1  0  0  0  0
 13 40  1  0  0  0  0
 14 16  1  0  0  0  0
 14 41  1  0  0  0  0
 14 42  1  0  0  0  0
 15 43  1  0  0  0  0
 15 44  1  0  0  0  0
 17 18  1  0  0  0  0
 18 19  1  0  0  0  0
 18 45  1  0  0  0  0
 18 46  1  0  0  0  0
 19 20  1  0  0  0  0
 19 47  1  0  0  0  0
 19 48  1  0  0  0  0
 20 21  1  0  0  0  0
 20 49  1  0  0  0  0
 20 50  1  0  0  0  0
 21 22  1  0  0  0  0
 21 51  1  0  0  0  0
 21 52  1  0  0  0  0
 22 23  1  0  0  0  0
 22 53  1  0  0  0  0
 22 54  1  0  0  0  0
 23 24  1  0  0  0  0
 23 55  1  0  0  0  0
 23 56  1  0  0  0  0
 24 25  1  0  0  0  0
 24 57  1  0  0  0  0
 24 58  1  0  0  0  0
 25 26  1  0  0  0  0
 25 59  1  0  0  0  0
 25 60  1  0  0  0  0
 26 27  1  0  0  0  0
 26 61  1  0  0  0  0
 26 62  1  0  0  0  0
 27 28  1  0  0  0  0
 27 63  1  0  0  0  0
 27 64  1  0  0  0  0
 28 29  1  0  0  0  0
 28 65  1  0  0  0  0
 28 66  1  0  0  0  0
 29 30  1  0  0  0  0
 29 67  1  0  0  0  0
 29 68  1  0  0  0  0
 30 69  1  0  0  0  0
 30 70  1  0  0  0  0
 30 71  1  0  0  0  0
M  END
>  <DRUGBANK_ID>
DB01991

>  <SECONDARY_ACCESSION_NUMBERS>
EXPT03132

>  <COMMON_NAME>
TU-514

$$$$
