
 OpenBabel10282417183D

224227  0  0  0  0  0  0  0  0999 V2000
    5.0995   -0.3687   -0.0665 S   0  0  0  0  0  0  0  0  0  0  0  0
    9.4799  -14.3666   -4.9812 O   0  0  0  0  0  0  0  0  0  0  0  0
    4.5398  -12.6327   -3.6345 O   0  0  0  0  0  0  0  0  0  0  0  0
    5.1833  -13.1544   -9.2293 O   0  0  0  0  0  0  0  0  0  0  0  0
    5.4140  -17.6503   -7.2105 O   0  0  0  0  0  0  0  0  0  0  0  0
    8.5380   -9.4874   -7.1774 O   0  0  0  0  0  0  0  0  0  0  0  0
   -1.2530    0.1310   -3.3957 O   0  0  0  0  0  0  0  0  0  0  0  0
    3.6463    0.9768   -6.4541 O   0  0  0  0  0  0  0  0  0  0  0  0
    1.4820   -6.2547   -3.3684 O   0  0  0  0  0  0  0  0  0  0  0  0
    4.6775   -6.3759   -8.8880 O   0  0  0  0  0  0  0  0  0  0  0  0
    7.2692  -17.0978  -10.8900 O   0  0  0  0  0  0  0  0  0  0  0  0
    6.4299   -3.0195   -4.0867 O   0  0  0  0  0  0  0  0  0  0  0  0
    0.9595   -3.4633   -7.2696 O   0  0  0  0  0  0  0  0  0  0  0  0
    6.6344   -7.8530   -3.1104 O   0  0  0  0  0  0  0  0  0  0  0  0
    2.5357  -10.4810   -6.7685 O   0  0  0  0  0  0  0  0  0  0  0  0
    3.5187   -2.7946   -2.0168 O   0  0  0  0  0  0  0  0  0  0  0  0
    4.0615    2.6002   -3.1995 O   0  0  0  0  0  0  0  0  0  0  0  0
    6.2735   -9.9965  -10.3915 O   0  0  0  0  0  0  0  0  0  0  0  0
    8.2529  -11.1215   -3.3738 O   0  0  0  0  0  0  0  0  0  0  0  0
    6.9740  -16.6530   -5.9271 N   0  0  0  0  0  0  0  0  0  0  0  0
    4.6683  -13.6098   -7.0881 N   0  0  0  0  0  0  0  0  0  0  0  0
    8.2757  -14.3389   -6.8241 N   0  0  0  0  0  0  0  0  0  0  0  0
    6.4964  -12.0842   -4.8489 N   0  0  0  0  0  0  0  0  0  0  0  0
    1.7448    0.0638   -5.4925 N   0  0  0  0  0  0  0  0  0  0  0  0
    6.4399  -10.2236   -7.6213 N   0  0  0  0  0  0  0  0  0  0  0  0
    3.1580   -7.3450   -7.0078 N   0  0  0  0  0  0  0  0  0  0  0  0
    0.7357    0.9604   -2.7128 N   0  0  0  0  0  0  0  0  0  0  0  0
    5.0258  -17.2265   -4.5741 N   0  0  0  0  0  0  0  0  0  0  0  0
    4.7185   -3.6008   -5.4431 N   0  0  0  0  0  0  0  0  0  0  0  0
    3.7510   -5.7757   -2.8977 N   0  0  0  0  0  0  0  0  0  0  0  0
    6.4630   -7.5120   -5.4801 N   0  0  0  0  0  0  0  0  0  0  0  0
    3.9910   -1.6088   -3.9620 N   0  0  0  0  0  0  0  0  0  0  0  0
    4.1350  -10.3541   -5.1315 N   0  0  0  0  0  0  0  0  0  0  0  0
    3.4007  -10.7179   -1.3370 N   0  0  0  0  0  0  0  0  0  0  0  0
    1.5837   -3.4308   -5.1429 N   0  0  0  0  0  0  0  0  0  0  0  0
    6.8934  -14.9585  -11.4627 N   0  0  0  0  0  0  0  0  0  0  0  0
    3.1179   -1.9197   -8.5770 N   0  0  0  0  0  0  0  0  0  0  0  0
    2.3410    2.2894   -4.6002 N   0  0  0  0  0  0  0  0  0  0  0  0
    5.2534  -19.3877   -5.5297 N   0  0  0  0  0  0  0  0  0  0  0  0
    4.7964   -3.1561   -9.2757 N   0  0  0  0  0  0  0  0  0  0  0  0
    6.1471  -18.9439   -3.4703 N   0  0  0  0  0  0  0  0  0  0  0  0
    6.7616   -7.9527   -9.6087 N   0  0  0  0  0  0  0  0  0  0  0  0
    8.8650   -9.0622   -4.0606 N   0  0  0  0  0  0  0  0  0  0  0  0
    8.3620  -16.4138   -5.7120 C   0  0  1  0  0  0  0  0  0  0  0  0
    4.8695  -13.7462   -5.6185 C   0  0  1  0  0  0  0  0  0  0  0  0
    8.9044  -17.0662   -6.9454 C   0  0  0  0  0  0  0  0  0  0  0  0
    7.0879  -14.4224   -7.9507 C   0  0  1  0  0  0  0  0  0  0  0  0
    7.7226  -11.6000   -6.1252 C   0  0  1  0  0  0  0  0  0  0  0  0
    7.4922  -12.1960   -7.4451 C   0  0  0  0  0  0  0  0  0  0  0  0
    6.1408  -14.3667   -5.1407 C   0  0  0  0  0  0  0  0  0  0  0  0
    7.8183  -18.0972   -7.3316 C   0  0  0  0  0  0  0  0  0  0  0  0
    8.5229  -12.1356   -8.6111 C   0  0  0  0  0  0  0  0  0  0  0  0
    8.7627  -14.9881   -5.7634 C   0  0  0  0  0  0  0  0  0  0  0  0
    6.4246  -15.6179   -8.3618 C   0  0  0  0  0  0  0  0  0  0  0  0
    5.1866  -12.6452   -4.6859 C   0  0  0  0  0  0  0  0  0  0  0  0
    5.5666  -13.6255   -8.1500 C   0  0  0  0  0  0  0  0  0  0  0  0
    6.3252  -15.0658   -3.8230 C   0  0  0  0  0  0  0  0  0  0  0  0
    6.5801  -17.5038   -6.8653 C   0  0  0  0  0  0  0  0  0  0  0  0
    0.9357   -1.7081   -3.5388 C   0  0  0  0  0  0  0  0  0  0  0  0
    0.5771   -0.6549   -4.6110 C   0  0  1  0  0  0  0  0  0  0  0  0
    7.6680  -10.3352   -7.0026 C   0  0  0  0  0  0  0  0  0  0  0  0
    0.2041   -2.9882   -2.7530 C   0  0  0  0  0  0  0  0  0  0  0  0
    5.6742  -15.9190   -9.6078 C   0  0  0  0  0  0  0  0  0  0  0  0
    9.9343  -12.2763   -8.1072 C   0  0  0  0  0  0  0  0  0  0  0  0
    8.2186  -12.9090   -9.9044 C   0  0  0  0  0  0  0  0  0  0  0  0
    5.2852  -16.1510   -3.5659 C   0  0  0  0  0  0  0  0  0  0  0  0
    2.8002   -7.5565   -5.1590 C   0  0  1  0  0  0  0  0  0  0  0  0
    3.6989   -8.2333   -4.2092 C   0  0  0  0  0  0  0  0  0  0  0  0
    3.2192   -4.0696   -6.4992 C   0  0  1  0  0  0  0  0  0  0  0  0
    5.8749   -7.4793   -6.9804 C   0  0  1  0  0  0  0  0  0  0  0  0
   -0.0467    0.2699   -3.6199 C   0  0  0  0  0  0  0  0  0  0  0  0
    2.8136   -5.3548   -6.0928 C   0  0  0  0  0  0  0  0  0  0  0  0
    3.3825   -9.1878   -3.0348 C   0  0  0  0  0  0  0  0  0  0  0  0
    4.0769   -0.9372   -5.2563 C   0  0  2  0  0  0  0  0  0  0  0  0
   -0.7359   -3.7835   -3.6836 C   0  0  0  0  0  0  0  0  0  0  0  0
    1.0066   -4.0378   -1.6505 C   0  0  0  0  0  0  0  0  0  0  0  0
    3.1686    0.1581   -5.6541 C   0  0  0  0  0  0  0  0  0  0  0  0
    2.6562   -6.4827   -3.6887 C   0  0  0  0  0  0  0  0  0  0  0  0
    5.2095   -4.9208   -3.1340 C   0  0  2  0  0  0  0  0  0  0  0  0
    5.0114   -8.6024   -7.3637 C   0  0  0  0  0  0  0  0  0  0  0  0
    4.5861   -6.9910   -7.8107 C   0  0  0  0  0  0  0  0  0  0  0  0
    4.8932  -10.9602   -7.3558 C   0  0  0  0  0  0  0  0  0  0  0  0
    2.1438   -9.2608   -2.4569 C   0  0  0  0  0  0  0  0  0  0  0  0
    6.6342  -16.0613  -10.7306 C   0  0  0  0  0  0  0  0  0  0  0  0
    2.2323    1.2290   -2.3760 C   0  0  1  0  0  0  0  0  0  0  0  0
    5.5725   -9.6107   -4.3113 C   0  0  2  0  0  0  0  0  0  0  0  0
    3.4915   -1.6658   -6.3308 C   0  0  0  0  0  0  0  0  0  0  0  0
    5.5119   -3.6352   -4.1570 C   0  0  0  0  0  0  0  0  0  0  0  0
    2.2272  -10.0788   -1.3445 C   0  0  0  0  0  0  0  0  0  0  0  0
    4.0536  -10.2283   -2.3912 C   0  0  0  0  0  0  0  0  0  0  0  0
    1.8298   -3.5667   -6.4324 C   0  0  0  0  0  0  0  0  0  0  0  0
    6.1968   -8.2304   -4.2124 C   0  0  0  0  0  0  0  0  0  0  0  0
    1.2217   -5.9909   -6.3825 C   0  0  0  0  0  0  0  0  0  0  0  0
    4.2545   -5.6286   -6.3285 C   0  0  0  0  0  0  0  0  0  0  0  0
    3.0682   -0.0441   -2.0970 C   0  0  0  0  0  0  0  0  0  0  0  0
    3.7135  -10.5937   -6.4225 C   0  0  0  0  0  0  0  0  0  0  0  0
    4.6200   -8.9440   -8.9923 C   0  0  0  0  0  0  0  0  0  0  0  0
    6.8082   -9.8677   -4.8944 C   0  0  0  0  0  0  0  0  0  0  0  0
    5.8123   -5.6238   -4.1839 C   0  0  0  0  0  0  0  0  0  0  0  0
    2.4941   -3.5942   -3.9959 C   0  0  0  0  0  0  0  0  0  0  0  0
    0.9501   -8.6915   -2.8272 C   0  0  0  0  0  0  0  0  0  0  0  0
    3.3335   -2.5976   -3.2180 C   0  0  0  0  0  0  0  0  0  0  0  0
    4.0908   -1.9320   -7.6262 C   0  0  0  0  0  0  0  0  0  0  0  0
    1.1888  -10.2334   -0.4922 C   0  0  0  0  0  0  0  0  0  0  0  0
    2.9398    2.1494   -3.3882 C   0  0  0  0  0  0  0  0  0  0  0  0
    5.4803  -18.5276   -4.4858 C   0  0  0  0  0  0  0  0  0  0  0  0
    4.6889   -0.3822   -1.7707 C   0  0  0  0  0  0  0  0  0  0  0  0
    0.0504   -8.5249   -1.8278 C   0  0  0  0  0  0  0  0  0  0  0  0
    0.1428   -9.3442   -0.7123 C   0  0  0  0  0  0  0  0  0  0  0  0
    5.8767   -8.9715   -9.8537 C   0  0  0  0  0  0  0  0  0  0  0  0
    5.1846   -2.6780   -8.0473 C   0  0  0  0  0  0  0  0  0  0  0  0
    8.0099  -10.1014   -3.9958 C   0  0  0  0  0  0  0  0  0  0  0  0
    3.5494   -2.6819   -9.5358 C   0  0  0  0  0  0  0  0  0  0  0  0
    4.4431    1.2504    0.0269 C   0  0  0  0  0  0  0  0  0  0  0  0
    6.1428  -16.2916   -5.5053 H   0  0  0  0  0  0  0  0  0  0  0  0
    3.7789  -13.1850   -7.3611 H   0  0  0  0  0  0  0  0  0  0  0  0
    8.7232  -13.4538   -6.6168 H   0  0  0  0  0  0  0  0  0  0  0  0
    6.8310  -11.9093   -3.8860 H   0  0  0  0  0  0  0  0  0  0  0  0
    1.3469    0.4927   -6.3384 H   0  0  0  0  0  0  0  0  0  0  0  0
    6.6114   -9.4024   -8.1641 H   0  0  0  0  0  0  0  0  0  0  0  0
    2.4837   -6.9229   -7.6487 H   0  0  0  0  0  0  0  0  0  0  0  0
    0.1419    1.1247   -1.9109 H   0  0  0  0  0  0  0  0  0  0  0  0
    4.5031  -17.0116   -5.4283 H   0  0  0  0  0  0  0  0  0  0  0  0
    5.3247   -2.9302   -5.8934 H   0  0  0  0  0  0  0  0  0  0  0  0
    3.4219   -5.4339   -2.0085 H   0  0  0  0  0  0  0  0  0  0  0  0
    7.2698   -6.9050   -5.3023 H   0  0  0  0  0  0  0  0  0  0  0  0
    4.5450   -0.9647   -3.4905 H   0  0  0  0  0  0  0  0  0  0  0  0
    3.2182  -10.2900   -4.6640 H   0  0  0  0  0  0  0  0  0  0  0  0
    3.7334  -11.5354   -0.8388 H   0  0  0  0  0  0  0  0  0  0  0  0
    0.6412   -3.1127   -5.1001 H   0  0  0  0  0  0  0  0  0  0  0  0
    6.4545  -14.0646  -11.2764 H   0  0  0  0  0  0  0  0  0  0  0  0
    7.7911  -14.9540  -11.9314 H   0  0  0  0  0  0  0  0  0  0  0  0
    1.7460    1.4950   -4.8167 H   0  0  0  0  0  0  0  0  0  0  0  0
    2.9938    2.4274   -5.3843 H   0  0  0  0  0  0  0  0  0  0  0  0
    5.2728   -3.8828   -9.7849 H   0  0  0  0  0  0  0  0  0  0  0  0
    5.8260  -20.2236   -5.6043 H   0  0  0  0  0  0  0  0  0  0  0  0
    5.1461  -19.0037   -6.4796 H   0  0  0  0  0  0  0  0  0  0  0  0
    6.3395  -19.9327   -3.6213 H   0  0  0  0  0  0  0  0  0  0  0  0
    6.4802   -7.0289   -9.2931 H   0  0  0  0  0  0  0  0  0  0  0  0
    7.7501   -8.0848   -9.7922 H   0  0  0  0  0  0  0  0  0  0  0  0
    8.5521   -8.1633   -4.4009 H   0  0  0  0  0  0  0  0  0  0  0  0
    9.6879   -9.1281   -3.4959 H   0  0  0  0  0  0  0  0  0  0  0  0
    8.6357  -16.7998   -4.7404 H   0  0  0  0  0  0  0  0  0  0  0  0
    4.0047  -14.3296   -5.3160 H   0  0  0  0  0  0  0  0  0  0  0  0
    9.8665  -17.4801   -6.7039 H   0  0  0  0  0  0  0  0  0  0  0  0
    9.0960  -16.3362   -7.7547 H   0  0  0  0  0  0  0  0  0  0  0  0
    7.8701  -14.4313   -8.6313 H   0  0  0  0  0  0  0  0  0  0  0  0
    8.6986  -11.7291   -5.6609 H   0  0  0  0  0  0  0  0  0  0  0  0
    6.9509  -12.9007   -6.8815 H   0  0  0  0  0  0  0  0  0  0  0  0
    6.6320  -11.9699   -8.0341 H   0  0  0  0  0  0  0  0  0  0  0  0
    6.3772  -14.7884   -6.0487 H   0  0  0  0  0  0  0  0  0  0  0  0
    7.0568  -13.7904   -5.0714 H   0  0  0  0  0  0  0  0  0  0  0  0
    7.8544  -18.9587   -6.6834 H   0  0  0  0  0  0  0  0  0  0  0  0
    7.6628  -18.2500   -8.3942 H   0  0  0  0  0  0  0  0  0  0  0  0
    8.4088  -11.1237   -9.0222 H   0  0  0  0  0  0  0  0  0  0  0  0
    7.2733  -16.2401   -8.4094 H   0  0  0  0  0  0  0  0  0  0  0  0
    5.6543  -15.6681   -7.6023 H   0  0  0  0  0  0  0  0  0  0  0  0
    7.3566  -15.4280   -3.7444 H   0  0  0  0  0  0  0  0  0  0  0  0
    6.3658  -14.2947   -3.0361 H   0  0  0  0  0  0  0  0  0  0  0  0
    1.7781   -1.8377   -4.1452 H   0  0  0  0  0  0  0  0  0  0  0  0
    1.3807   -1.3110   -2.6742 H   0  0  0  0  0  0  0  0  0  0  0  0
   -0.0948   -1.0755   -5.3756 H   0  0  0  0  0  0  0  0  0  0  0  0
   -0.3963   -2.4376   -2.0355 H   0  0  0  0  0  0  0  0  0  0  0  0
    5.3118  -16.9233   -9.4062 H   0  0  0  0  0  0  0  0  0  0  0  0
    4.7875  -15.3101   -9.7637 H   0  0  0  0  0  0  0  0  0  0  0  0
   10.1626  -13.2429   -7.6618 H   0  0  0  0  0  0  0  0  0  0  0  0
   10.6128  -12.1712   -8.9398 H   0  0  0  0  0  0  0  0  0  0  0  0
   10.1372  -11.5237   -7.3392 H   0  0  0  0  0  0  0  0  0  0  0  0
    7.1562  -12.7987  -10.1155 H   0  0  0  0  0  0  0  0  0  0  0  0
    8.7954  -12.5848  -10.7523 H   0  0  0  0  0  0  0  0  0  0  0  0
    8.4857  -13.9665   -9.9693 H   0  0  0  0  0  0  0  0  0  0  0  0
    5.6148  -16.5916   -2.6332 H   0  0  0  0  0  0  0  0  0  0  0  0
    4.3603  -15.5919   -3.4748 H   0  0  0  0  0  0  0  0  0  0  0  0
    1.9986   -8.2920   -5.2962 H   0  0  0  0  0  0  0  0  0  0  0  0
    4.3353   -8.3896   -5.0228 H   0  0  0  0  0  0  0  0  0  0  0  0
    4.2885   -7.6079   -3.5849 H   0  0  0  0  0  0  0  0  0  0  0  0
    3.3901   -4.1470   -7.5727 H   0  0  0  0  0  0  0  0  0  0  0  0
    6.8273   -7.3888   -7.4862 H   0  0  0  0  0  0  0  0  0  0  0  0
    2.7370   -5.3389   -5.0844 H   0  0  0  0  0  0  0  0  0  0  0  0
    5.1556   -0.7966   -5.3958 H   0  0  0  0  0  0  0  0  0  0  0  0
   -0.2470   -4.4657   -4.3787 H   0  0  0  0  0  0  0  0  0  0  0  0
   -1.3707   -4.4745   -3.1426 H   0  0  0  0  0  0  0  0  0  0  0  0
   -1.3006   -3.0912   -4.3179 H   0  0  0  0  0  0  0  0  0  0  0  0
    1.6927   -3.5898   -0.9233 H   0  0  0  0  0  0  0  0  0  0  0  0
    0.3178   -4.7566   -1.2011 H   0  0  0  0  0  0  0  0  0  0  0  0
    1.7052   -4.7911   -1.9948 H   0  0  0  0  0  0  0  0  0  0  0  0
    5.9534   -5.1598   -2.3594 H   0  0  0  0  0  0  0  0  0  0  0  0
    5.3649   -9.1993   -6.5814 H   0  0  0  0  0  0  0  0  0  0  0  0
    4.0968   -8.7668   -6.8629 H   0  0  0  0  0  0  0  0  0  0  0  0
    5.1879  -11.7056   -6.6949 H   0  0  0  0  0  0  0  0  0  0  0  0
    4.4539  -11.3488   -8.2667 H   0  0  0  0  0  0  0  0  0  0  0  0
    2.1511    1.7696   -1.4468 H   0  0  0  0  0  0  0  0  0  0  0  0
    5.8062  -10.0582   -3.3908 H   0  0  0  0  0  0  0  0  0  0  0  0
    3.3404   -2.4381   -5.6670 H   0  0  0  0  0  0  0  0  0  0  0  0
    2.4176   -1.5816   -6.4874 H   0  0  0  0  0  0  0  0  0  0  0  0
    4.8829  -10.8936   -2.5212 H   0  0  0  0  0  0  0  0  0  0  0  0
    0.9657   -6.1214   -7.4305 H   0  0  0  0  0  0  0  0  0  0  0  0
    0.9369   -6.9294   -5.8874 H   0  0  0  0  0  0  0  0  0  0  0  0
    0.4370   -5.3942   -5.9273 H   0  0  0  0  0  0  0  0  0  0  0  0
    5.2509   -5.2201   -6.1981 H   0  0  0  0  0  0  0  0  0  0  0  0
    4.4836   -6.5501   -5.8336 H   0  0  0  0  0  0  0  0  0  0  0  0
    4.5735   -5.2637   -7.3001 H   0  0  0  0  0  0  0  0  0  0  0  0
    2.8830   -0.3185   -3.1113 H   0  0  0  0  0  0  0  0  0  0  0  0
    2.4885   -0.6879   -1.4278 H   0  0  0  0  0  0  0  0  0  0  0  0
    4.0393   -9.8519   -9.1055 H   0  0  0  0  0  0  0  0  0  0  0  0
    3.8461   -8.2792   -9.3947 H   0  0  0  0  0  0  0  0  0  0  0  0
    6.2523  -10.4780   -5.5413 H   0  0  0  0  0  0  0  0  0  0  0  0
    7.1571   -9.1975   -5.6221 H   0  0  0  0  0  0  0  0  0  0  0  0
    6.5808   -5.3145   -4.9178 H   0  0  0  0  0  0  0  0  0  0  0  0
    5.4975   -6.5773   -4.1231 H   0  0  0  0  0  0  0  0  0  0  0  0
    4.8717   -5.5248   -4.6157 H   0  0  0  0  0  0  0  0  0  0  0  0
    3.3170   -4.2075   -4.1408 H   0  0  0  0  0  0  0  0  0  0  0  0
    1.8795   -4.2407   -3.4801 H   0  0  0  0  0  0  0  0  0  0  0  0
    0.7886   -8.2054   -3.7750 H   0  0  0  0  0  0  0  0  0  0  0  0
    1.2719  -10.9532    0.3000 H   0  0  0  0  0  0  0  0  0  0  0  0
    5.3811    0.1895   -2.4131 H   0  0  0  0  0  0  0  0  0  0  0  0
    5.0569   -1.4147   -1.9704 H   0  0  0  0  0  0  0  0  0  0  0  0
   -0.7168   -7.7823   -1.9932 H   0  0  0  0  0  0  0  0  0  0  0  0
   -0.6671   -9.3347   -0.0126 H   0  0  0  0  0  0  0  0  0  0  0  0
    6.0193   -3.1694   -7.5490 H   0  0  0  0  0  0  0  0  0  0  0  0
    2.9545   -2.9379  -10.3920 H   0  0  0  0  0  0  0  0  0  0  0  0
    4.7269    1.6635    0.9688 H   0  0  0  0  0  0  0  0  0  0  0  0
    4.8228    1.8225   -0.8298 H   0  0  0  0  0  0  0  0  0  0  0  0
    3.3613    1.1609   -0.0289 H   0  0  0  0  0  0  0  0  0  0  0  0
  1107  1  0  0  0  0
  1114  1  0  0  0  0
  2 53  2  0  0  0  0
  3 55  2  0  0  0  0
  4 56  2  0  0  0  0
  5 58  2  0  0  0  0
  6 61  2  0  0  0  0
  7 71  2  0  0  0  0
  8 77  2  0  0  0  0
  9 78  2  0  0  0  0
 10 81  2  0  0  0  0
 11 84  2  0  0  0  0
 12 88  2  0  0  0  0
 13 91  2  0  0  0  0
 14 92  2  0  0  0  0
 15 96  2  0  0  0  0
 16102  2  0  0  0  0
 17105  2  0  0  0  0
 18110  2  0  0  0  0
 19112  2  0  0  0  0
 20 44  1  0  0  0  0
 20 58  1  0  0  0  0
 20115  1  0  0  0  0
 21 56  1  0  0  0  0
 21116  1  0  0  0  0
 22 53  1  0  0  0  0
 22117  1  0  0  0  0
 23 55  1  0  0  0  0
 23118  1  0  0  0  0
 24 77  1  0  0  0  0
 24119  1  0  0  0  0
 25 61  1  0  0  0  0
 25 82  1  0  0  0  0
 25120  1  0  0  0  0
 26 81  1  0  0  0  0
 26121  1  0  0  0  0
 27 71  1  0  0  0  0
 27122  1  0  0  0  0
 28 66  1  0  0  0  0
 28106  1  0  0  0  0
 28123  1  0  0  0  0
 29 88  1  0  0  0  0
 29124  1  0  0  0  0
 30 78  1  0  0  0  0
 30125  1  0  0  0  0
 31 92  1  0  0  0  0
 31126  1  0  0  0  0
 32102  1  0  0  0  0
 32127  1  0  0  0  0
 33 96  1  0  0  0  0
 33128  1  0  0  0  0
 34 89  1  0  0  0  0
 34 90  1  0  0  0  0
 34129  1  0  0  0  0
 35 91  1  0  0  0  0
 35100  1  0  0  0  0
 35130  1  0  0  0  0
 36 84  1  0  0  0  0
 36131  1  0  0  0  0
 36132  1  0  0  0  0
 37103  1  0  0  0  0
 37113  2  0  0  0  0
 38105  1  0  0  0  0
 38133  1  0  0  0  0
 38134  1  0  0  0  0
 39106  1  0  0  0  0
 39136  1  0  0  0  0
 39137  1  0  0  0  0
 40111  1  0  0  0  0
 40113  1  0  0  0  0
 40135  1  0  0  0  0
 41106  2  0  0  0  0
 41138  1  0  0  0  0
 42110  1  0  0  0  0
 42139  1  0  0  0  0
 42140  1  0  0  0  0
 43112  1  0  0  0  0
 43141  1  0  0  0  0
 43142  1  0  0  0  0
 44 46  1  0  0  0  0
 44 53  1  0  0  0  0
 44143  1  1  0  0  0
 45 21  1  0  0  0  0
 45 50  1  0  0  0  0
 45 55  1  0  0  0  0
 45144  1  1  0  0  0
 46 51  1  0  0  0  0
 46145  1  0  0  0  0
 46146  1  0  0  0  0
 47 22  1  0  0  0  0
 47 54  1  0  0  0  0
 47 56  1  0  0  0  0
 47147  1  6  0  0  0
 48 23  1  0  0  0  0
 48 49  1  0  0  0  0
 48 61  1  0  0  0  0
 48148  1  1  0  0  0
 49 52  1  0  0  0  0
 49149  1  0  0  0  0
 49150  1  0  0  0  0
 50 57  1  0  0  0  0
 50151  1  0  0  0  0
 50152  1  0  0  0  0
 51 58  1  0  0  0  0
 51153  1  0  0  0  0
 51154  1  0  0  0  0
 52 64  1  0  0  0  0
 52 65  1  0  0  0  0
 52155  1  0  0  0  0
 54 63  1  0  0  0  0
 54156  1  0  0  0  0
 54157  1  0  0  0  0
 57 66  1  0  0  0  0
 57158  1  0  0  0  0
 57159  1  0  0  0  0
 59 60  1  0  0  0  0
 59 62  1  0  0  0  0
 59160  1  0  0  0  0
 59161  1  0  0  0  0
 60 24  1  0  0  0  0
 60 71  1  0  0  0  0
 60162  1  6  0  0  0
 62 75  1  0  0  0  0
 62 76  1  0  0  0  0
 62163  1  0  0  0  0
 63 84  1  0  0  0  0
 63164  1  0  0  0  0
 63165  1  0  0  0  0
 64166  1  0  0  0  0
 64167  1  0  0  0  0
 64168  1  0  0  0  0
 65169  1  0  0  0  0
 65170  1  0  0  0  0
 65171  1  0  0  0  0
 66172  1  0  0  0  0
 66173  1  0  0  0  0
 67 26  1  0  0  0  0
 67 68  1  0  0  0  0
 67 78  1  0  0  0  0
 67174  1  1  0  0  0
 68 73  1  0  0  0  0
 68175  1  0  0  0  0
 68176  1  0  0  0  0
 69 29  1  0  0  0  0
 69 72  1  0  0  0  0
 69 91  1  0  0  0  0
 69177  1  6  0  0  0
 70 31  1  0  0  0  0
 70 80  1  0  0  0  0
 70 81  1  0  0  0  0
 70178  1  6  0  0  0
 72 93  1  0  0  0  0
 72 94  1  0  0  0  0
 72179  1  0  0  0  0
 73 83  1  0  0  0  0
 73 90  2  0  0  0  0
 74 32  1  0  0  0  0
 74 77  1  0  0  0  0
 74 87  1  0  0  0  0
 74180  1  6  0  0  0
 75181  1  0  0  0  0
 75182  1  0  0  0  0
 75183  1  0  0  0  0
 76184  1  0  0  0  0
 76185  1  0  0  0  0
 76186  1  0  0  0  0
 79 30  1  0  0  0  0
 79 88  1  0  0  0  0
 79 99  1  0  0  0  0
 79187  1  1  0  0  0
 80 97  1  0  0  0  0
 80188  1  0  0  0  0
 80189  1  0  0  0  0
 82 96  1  0  0  0  0
 82190  1  0  0  0  0
 82191  1  0  0  0  0
 83 89  1  0  0  0  0
 83101  2  0  0  0  0
 85105  1  0  0  0  0
 85192  1  1  0  0  0
 85 95  1  0  0  0  0
 85 27  1  0  0  0  0
 86 33  1  0  0  0  0
 86 92  1  0  0  0  0
 86 98  1  0  0  0  0
 86193  1  1  0  0  0
 87103  1  0  0  0  0
 87194  1  0  0  0  0
 87195  1  0  0  0  0
 89104  2  0  0  0  0
 90196  1  0  0  0  0
 93197  1  0  0  0  0
 93198  1  0  0  0  0
 93199  1  0  0  0  0
 94200  1  0  0  0  0
 94201  1  0  0  0  0
 94202  1  0  0  0  0
 95107  1  0  0  0  0
 95203  1  0  0  0  0
 95204  1  0  0  0  0
 97110  1  0  0  0  0
 97205  1  0  0  0  0
 97206  1  0  0  0  0
 98112  1  0  0  0  0
 98207  1  0  0  0  0
 98208  1  0  0  0  0
 99209  1  0  0  0  0
 99210  1  0  0  0  0
 99211  1  0  0  0  0
100102  1  0  0  0  0
100212  1  0  0  0  0
100213  1  0  0  0  0
101108  1  0  0  0  0
101214  1  0  0  0  0
103111  2  0  0  0  0
104109  1  0  0  0  0
104215  1  0  0  0  0
107216  1  0  0  0  0
107217  1  0  0  0  0
108109  2  0  0  0  0
108218  1  0  0  0  0
109219  1  0  0  0  0
111220  1  0  0  0  0
113221  1  0  0  0  0
114222  1  0  0  0  0
114223  1  0  0  0  0
114224  1  0  0  0  0
M  END
>  <DRUGBANK_ID>
DB11724

>  <COMMON_NAME>
Bombesin

>  <CAS_NUMBER>
31362-50-2

>  <UNII>
PX9AZU7QPK

$$$$
