
 OpenBabel10282417213D

 48 50  0  0  0  0  0  0  0  0999 V2000
    0.0012   -1.2821    0.6970 N   0  0  0  0  0  0  0  0  0  0  0  0
    0.0041    1.7422    0.3184 S   0  0  0  0  0  0  0  0  0  0  0  0
    3.5320   -1.0741   -0.4425 C   0  0  0  0  0  0  0  0  0  0  0  0
    3.6411    0.2858   -0.7198 C   0  0  0  0  0  0  0  0  0  0  0  0
    2.5784    1.1446   -0.4495 C   0  0  0  0  0  0  0  0  0  0  0  0
    1.3852    0.6334    0.0685 C   0  0  0  0  0  0  0  0  0  0  0  0
    1.2580   -0.7416    0.3518 C   0  0  0  0  0  0  0  0  0  0  0  0
    2.3512   -1.5850    0.1035 C   0  0  0  0  0  0  0  0  0  0  0  0
   -2.2687   -1.6214   -0.1509 C   0  0  0  0  0  0  0  0  0  0  0  0
   -1.1880   -0.7740    0.1457 C   0  0  0  0  0  0  0  0  0  0  0  0
   -1.3284    0.6145   -0.0793 C   0  0  0  0  0  0  0  0  0  0  0  0
   -2.5437    1.1322   -0.5243 C   0  0  0  0  0  0  0  0  0  0  0  0
   -3.6192    0.2790   -0.7733 C   0  0  0  0  0  0  0  0  0  0  0  0
   -3.4814   -1.0961   -0.5884 C   0  0  0  0  0  0  0  0  0  0  0  0
   -0.0842   -2.1845    1.8534 C   0  0  0  0  0  0  0  0  0  0  0  0
   -0.8353   -1.5974    3.1151 C   0  0  3  0  0  0  0  0  0  0  0  0
   -2.2977   -1.1927    2.8895 C   0  0  0  0  0  0  0  0  0  0  0  0
   -0.7857   -2.6262    4.3395 N   0  3  0  0  0  0  0  0  0  0  0  0
    0.6868   -2.9074    4.7942 C   0  0  0  0  0  0  0  0  0  0  0  0
   -1.5945   -2.0993    5.5440 C   0  0  0  0  0  0  0  0  0  0  0  0
   -1.4256   -3.9693    3.9608 C   0  0  0  0  0  0  0  0  0  0  0  0
    1.4668   -1.6519    5.2171 C   0  0  0  0  0  0  0  0  0  0  0  0
    0.9081   -1.1055    6.4050 O   0  0  0  0  0  0  0  0  0  0  0  0
    4.3486   -1.7462   -0.6953 H   0  0  0  0  0  0  0  0  0  0  0  0
    4.5470    0.6774   -1.1789 H   0  0  0  0  0  0  0  0  0  0  0  0
    2.6657    2.2012   -0.6886 H   0  0  0  0  0  0  0  0  0  0  0  0
    2.2647   -2.6599    0.2329 H   0  0  0  0  0  0  0  0  0  0  0  0
   -2.1822   -2.6969   -0.0180 H   0  0  0  0  0  0  0  0  0  0  0  0
   -2.6642    2.2037   -0.6708 H   0  0  0  0  0  0  0  0  0  0  0  0
   -4.5638    0.6887   -1.1191 H   0  0  0  0  0  0  0  0  0  0  0  0
   -4.3235   -1.7568   -0.7809 H   0  0  0  0  0  0  0  0  0  0  0  0
   -0.5322   -3.1276    1.5309 H   0  0  0  0  0  0  0  0  0  0  0  0
    0.9324   -2.4388    2.1729 H   0  0  0  0  0  0  0  0  0  0  0  0
   -0.3104   -0.7002    3.4592 H   0  0  0  0  0  0  0  0  0  0  0  0
   -2.8864   -2.0184    2.4831 H   0  0  0  0  0  0  0  0  0  0  0  0
   -2.7923   -0.8285    3.7902 H   0  0  0  0  0  0  0  0  0  0  0  0
   -2.3732   -0.3335    2.2278 H   0  0  0  0  0  0  0  0  0  0  0  0
    0.6144   -3.6066    5.6349 H   0  0  0  0  0  0  0  0  0  0  0  0
    1.1902   -3.4197    3.9699 H   0  0  0  0  0  0  0  0  0  0  0  0
   -2.6615   -2.1836    5.3159 H   0  0  0  0  0  0  0  0  0  0  0  0
   -1.3767   -2.7220    6.4147 H   0  0  0  0  0  0  0  0  0  0  0  0
   -1.3485   -1.0499    5.7097 H   0  0  0  0  0  0  0  0  0  0  0  0
   -2.4643   -3.7965    3.6681 H   0  0  0  0  0  0  0  0  0  0  0  0
   -0.8628   -4.4185    3.1416 H   0  0  0  0  0  0  0  0  0  0  0  0
   -1.3917   -4.6244    4.8351 H   0  0  0  0  0  0  0  0  0  0  0  0
    2.5026   -1.9302    5.4366 H   0  0  0  0  0  0  0  0  0  0  0  0
    1.5071   -0.8855    4.4380 H   0  0  0  0  0  0  0  0  0  0  0  0
    0.5350   -0.2299    6.1966 H   0  0  0  0  0  0  0  0  0  0  0  0
  1  7  1  0  0  0  0
  1 10  1  0  0  0  0
  1 15  1  0  0  0  0
  2 11  1  0  0  0  0
  3  4  2  0  0  0  0
  3 24  1  0  0  0  0
  4  5  1  0  0  0  0
  4 25  1  0  0  0  0
  5  6  2  0  0  0  0
  5 26  1  0  0  0  0
  6  7  1  0  0  0  0
  6  2  1  0  0  0  0
  7  8  2  0  0  0  0
  8  3  1  0  0  0  0
  8 27  1  0  0  0  0
  9 10  2  0  0  0  0
  9 28  1  0  0  0  0
 10 11  1  0  0  0  0
 11 12  2  0  0  0  0
 12 13  1  0  0  0  0
 12 29  1  0  0  0  0
 13 14  2  0  0  0  0
 13 30  1  0  0  0  0
 14  9  1  0  0  0  0
 14 31  1  0  0  0  0
 15 16  1  0  0  0  0
 15 32  1  0  0  0  0
 15 33  1  0  0  0  0
 16 17  1  0  0  0  0
 16 18  1  0  0  0  0
 16 34  1  0  0  0  0
 17 35  1  0  0  0  0
 17 36  1  0  0  0  0
 17 37  1  0  0  0  0
 18 19  1  0  0  0  0
 18 20  1  0  0  0  0
 18 21  1  0  0  0  0
 19 22  1  0  0  0  0
 19 38  1  0  0  0  0
 19 39  1  0  0  0  0
 20 40  1  0  0  0  0
 20 41  1  0  0  0  0
 20 42  1  0  0  0  0
 21 43  1  0  0  0  0
 21 44  1  0  0  0  0
 21 45  1  0  0  0  0
 22 23  1  0  0  0  0
 22 46  1  0  0  0  0
 22 47  1  0  0  0  0
 23 48  1  0  0  0  0
M  CHG  1  18   1
M  END
>  <DRUGBANK_ID>
DB13840

>  <COMMON_NAME>
Hydroxyethylpromethazine

>  <CAS_NUMBER>
7647-63-4

>  <UNII>
571559SLAJ

>  <SYNONYMS>
Promethazine hydroxyethyl

$$$$
