683
 OpenBabel10282417103D

 36 39  0  0  0  0  0  0  0  0999 V2000
    0.9592   -0.0640    0.0416 Cl  0  0  0  0  0  0  0  0  0  0  0  0
    4.3855   -5.1179   -0.2032 F   0  0  0  0  0  0  0  0  0  0  0  0
    6.8970    0.0086    0.1935 N   0  0  0  0  0  0  0  0  0  0  0  0
    6.5458   -3.0101    0.0456 N   0  0  0  0  0  0  0  0  0  0  0  0
    9.0087    0.7513    0.1730 N   0  0  0  0  0  0  0  0  0  0  0  0
    5.4803   -0.0378    0.1168 C   0  0  0  0  0  0  0  0  0  0  0  0
    7.6939   -1.0091    0.6767 C   0  0  0  0  0  0  0  0  0  0  0  0
    4.7974   -1.2404   -0.1394 C   0  0  0  0  0  0  0  0  0  0  0  0
    7.1646   -2.3031    1.1517 C   0  0  0  0  0  0  0  0  0  0  0  0
    5.4876   -2.5241   -0.5112 C   0  0  0  0  0  0  0  0  0  0  0  0
    7.7601    1.0557   -0.1289 C   0  0  0  0  0  0  0  0  0  0  0  0
    8.9765   -0.5176    0.6689 C   0  0  0  0  0  0  0  0  0  0  0  0
    4.7440    1.1352    0.3535 C   0  0  0  0  0  0  0  0  0  0  0  0
    3.3872   -1.2331   -0.1561 C   0  0  0  0  0  0  0  0  0  0  0  0
    4.8931   -3.2861   -1.6364 C   0  0  0  0  0  0  0  0  0  0  0  0
    7.3766    2.3098   -0.8350 C   0  0  0  0  0  0  0  0  0  0  0  0
    3.3511    1.1324    0.3101 C   0  0  0  0  0  0  0  0  0  0  0  0
    2.6778   -0.0536    0.0625 C   0  0  0  0  0  0  0  0  0  0  0  0
    4.3119   -4.5312   -1.4064 C   0  0  0  0  0  0  0  0  0  0  0  0
    4.7699   -2.6698   -2.8869 C   0  0  0  0  0  0  0  0  0  0  0  0
    3.5551   -5.1410   -2.4020 C   0  0  0  0  0  0  0  0  0  0  0  0
    3.9362   -3.2385   -3.8492 C   0  0  0  0  0  0  0  0  0  0  0  0
    3.3177   -4.4659   -3.6012 C   0  0  0  0  0  0  0  0  0  0  0  0
    6.4759   -2.1815    1.9974 H   0  0  0  0  0  0  0  0  0  0  0  0
    7.9917   -2.9188    1.5263 H   0  0  0  0  0  0  0  0  0  0  0  0
    9.8764   -1.0174    1.0037 H   0  0  0  0  0  0  0  0  0  0  0  0
    5.2186    2.0634    0.6492 H   0  0  0  0  0  0  0  0  0  0  0  0
    2.8279   -2.1470   -0.3422 H   0  0  0  0  0  0  0  0  0  0  0  0
    6.8449    2.0928   -1.7668 H   0  0  0  0  0  0  0  0  0  0  0  0
    6.7655    2.9636   -0.2112 H   0  0  0  0  0  0  0  0  0  0  0  0
    8.2699    2.8906   -1.0849 H   0  0  0  0  0  0  0  0  0  0  0  0
    2.8068    2.0548    0.4986 H   0  0  0  0  0  0  0  0  0  0  0  0
    5.2892   -1.7388   -3.0988 H   0  0  0  0  0  0  0  0  0  0  0  0
    3.1210   -6.1195   -2.2219 H   0  0  0  0  0  0  0  0  0  0  0  0
    3.7546   -2.7173   -4.7865 H   0  0  0  0  0  0  0  0  0  0  0  0
    2.6475   -4.8953   -4.3423 H   0  0  0  0  0  0  0  0  0  0  0  0
  1 18  1  0  0  0  0
  2 19  1  0  0  0  0
  3  6  1  0  0  0  0
  3  7  1  0  0  0  0
  3 11  1  0  0  0  0
  4  9  1  0  0  0  0
  4 10  2  0  0  0  0
  5 11  2  0  0  0  0
  5 12  1  0  0  0  0
  6  8  2  0  0  0  0
  6 13  1  0  0  0  0
  7  9  1  0  0  0  0
  7 12  2  0  0  0  0
  8 10  1  0  0  0  0
  8 14  1  0  0  0  0
  9 24  1  0  0  0  0
  9 25  1  0  0  0  0
 10 15  1  0  0  0  0
 11 16  1  0  0  0  0
 12 26  1  0  0  0  0
 13 17  2  0  0  0  0
 13 27  1  0  0  0  0
 14 18  2  0  0  0  0
 14 28  1  0  0  0  0
 15 19  1  0  0  0  0
 15 20  2  0  0  0  0
 16 29  1  0  0  0  0
 16 30  1  0  0  0  0
 16 31  1  0  0  0  0
 17 18  1  0  0  0  0
 17 32  1  0  0  0  0
 19 21  2  0  0  0  0
 20 22  1  0  0  0  0
 20 33  1  0  0  0  0
 21 23  1  0  0  0  0
 21 34  1  0  0  0  0
 22 23  2  0  0  0  0
 22 35  1  0  0  0  0
 23 36  1  0  0  0  0
M  END
>  <DRUGBANK_ID>
DB00683

>  <SECONDARY_ACCESSION_NUMBERS>
APRD00680

>  <COMMON_NAME>
Midazolam

>  <CAS_NUMBER>
59467-70-8

>  <UNII>
R60L0SM5BC

>  <SYNONYMS>
Midazolam; Midazolamum

$$$$
