
 OpenBabel10282417233D

 46 48  0  0  0  0  0  0  0  0999 V2000
    0.8882    0.0087    0.0661 C   0  0  0  0  0  0  0  0  0  0  0  0
    0.2910    1.0678    0.9096 C   0  0  0  0  0  0  0  0  0  0  0  0
    0.7133    2.3857    0.8263 C   0  0  0  0  0  0  0  0  0  0  0  0
    0.1378    3.3391    1.6529 C   0  0  0  0  0  0  0  0  0  0  0  0
   -0.8752    2.9896    2.5580 C   0  0  0  0  0  0  0  0  0  0  0  0
   -1.3570    1.6813    2.6700 C   0  0  0  0  0  0  0  0  0  0  0  0
   -0.7336    0.7327    1.8103 C   0  0  0  0  0  0  0  0  0  0  0  0
    0.2439   -0.8324   -0.5415 O   0  0  0  0  0  0  0  0  0  0  0  0
    2.2373    0.0848    0.0200 O   0  0  0  0  0  0  0  0  0  0  0  0
    1.6903    2.8140   -0.0255 O   0  0  0  0  0  0  0  0  0  0  0  0
   -2.4495    1.3525    3.4957 N   0  0  0  0  0  0  0  0  0  0  0  0
   -3.1038    2.2713    4.4822 C   0  0  0  0  0  0  0  0  0  0  0  0
   -4.6012    2.5113    4.2405 C   0  0  0  0  0  0  0  0  0  0  0  0
   -5.1729    3.7814    4.0702 C   0  0  0  0  0  0  0  0  0  0  0  0
   -6.5419    3.9272    3.7921 C   0  0  0  0  0  0  0  0  0  0  0  0
   -7.3717    2.8197    3.6351 C   0  0  0  0  0  0  0  0  0  0  0  0
   -6.8409    1.5581    3.7865 C   0  0  0  0  0  0  0  0  0  0  0  0
   -5.4993    1.4222    4.1333 C   0  0  0  0  0  0  0  0  0  0  0  0
   -4.4971    4.9677    4.1390 O   0  0  0  0  0  0  0  0  0  0  0  0
   -2.8774   -0.0601    3.5014 C   0  0  0  0  0  0  0  0  0  0  0  0
   -3.5469   -0.4441    2.1800 C   0  0  0  0  0  0  0  0  0  0  0  0
   -4.0952    0.4667    1.2470 C   0  0  0  0  0  0  0  0  0  0  0  0
   -4.5567    0.0709    0.0023 C   0  0  0  0  0  0  0  0  0  0  0  0
   -4.4672   -1.2582   -0.3640 C   0  0  0  0  0  0  0  0  0  0  0  0
   -3.9522   -2.1905    0.5350 C   0  0  0  0  0  0  0  0  0  0  0  0
   -3.5164   -1.7955    1.8043 C   0  0  0  0  0  0  0  0  0  0  0  0
   -4.1559    1.8193    1.4131 O   0  0  0  0  0  0  0  0  0  0  0  0
    0.4592    4.3747    1.5924 H   0  0  0  0  0  0  0  0  0  0  0  0
   -1.2841    3.8042    3.1410 H   0  0  0  0  0  0  0  0  0  0  0  0
   -1.0461   -0.3088    1.7845 H   0  0  0  0  0  0  0  0  0  0  0  0
    2.6403    0.6788    0.6880 H   0  0  0  0  0  0  0  0  0  0  0  0
    1.8466    2.1459   -0.7212 H   0  0  0  0  0  0  0  0  0  0  0  0
   -2.9536    1.9065    5.5045 H   0  0  0  0  0  0  0  0  0  0  0  0
   -2.5993    3.2346    4.4675 H   0  0  0  0  0  0  0  0  0  0  0  0
   -6.9630    4.9213    3.6719 H   0  0  0  0  0  0  0  0  0  0  0  0
   -8.4216    2.9349    3.3893 H   0  0  0  0  0  0  0  0  0  0  0  0
   -7.4407    0.6663    3.6201 H   0  0  0  0  0  0  0  0  0  0  0  0
   -5.1974    0.3937    4.2351 H   0  0  0  0  0  0  0  0  0  0  0  0
   -3.5453    4.8428    4.2351 H   0  0  0  0  0  0  0  0  0  0  0  0
   -2.0141   -0.7093    3.7073 H   0  0  0  0  0  0  0  0  0  0  0  0
   -3.5116   -0.2926    4.3615 H   0  0  0  0  0  0  0  0  0  0  0  0
   -4.9350    0.8250   -0.6825 H   0  0  0  0  0  0  0  0  0  0  0  0
   -4.7822   -1.5540   -1.3583 H   0  0  0  0  0  0  0  0  0  0  0  0
   -3.8620   -3.2283    0.2296 H   0  0  0  0  0  0  0  0  0  0  0  0
   -3.0906   -2.5447    2.4685 H   0  0  0  0  0  0  0  0  0  0  0  0
   -3.6251    2.0047    2.2040 H   0  0  0  0  0  0  0  0  0  0  0  0
  1  2  1  0  0  0  0
  1  8  2  0  0  0  0
  1  9  1  0  0  0  0
  2  3  1  0  0  0  0
  2  7  2  0  0  0  0
  3  4  2  0  0  0  0
  3 10  1  0  0  0  0
  4  5  1  0  0  0  0
  4 28  1  0  0  0  0
  5  6  2  0  0  0  0
  5 29  1  0  0  0  0
  6  7  1  0  0  0  0
  6 11  1  0  0  0  0
  7 30  1  0  0  0  0
  9 31  1  0  0  0  0
 10 32  1  0  0  0  0
 11 12  1  0  0  0  0
 11 20  1  0  0  0  0
 12 13  1  0  0  0  0
 12 33  1  0  0  0  0
 12 34  1  0  0  0  0
 13 14  1  0  0  0  0
 13 18  2  0  0  0  0
 14 15  2  0  0  0  0
 14 19  1  0  0  0  0
 15 16  1  0  0  0  0
 15 35  1  0  0  0  0
 16 17  2  0  0  0  0
 16 36  1  0  0  0  0
 17 18  1  0  0  0  0
 17 37  1  0  0  0  0
 18 38  1  0  0  0  0
 19 39  1  0  0  0  0
 20 21  1  0  0  0  0
 20 40  1  0  0  0  0
 20 41  1  0  0  0  0
 21 22  1  0  0  0  0
 21 26  2  0  0  0  0
 22 23  2  0  0  0  0
 22 27  1  0  0  0  0
 23 24  1  0  0  0  0
 23 42  1  0  0  0  0
 24 25  2  0  0  0  0
 24 43  1  0  0  0  0
 25 26  1  0  0  0  0
 25 44  1  0  0  0  0
 26 45  1  0  0  0  0
 27 46  1  0  0  0  0
M  END
>  <DRUGBANK_ID>
DB16760

>  <COMMON_NAME>
Lavendustin b

>  <CAS_NUMBER>
125697-91-8

>  <UNII>
7T53EGQ52Z

$$$$
