
 OpenBabel10282417233D

129130  0  0  1  0  0  0  0  0999 V2000
   -0.6392   -1.3936    0.3380 O   0  0  0  0  0  0  0  0  0  0  0  0
   -1.2340   -1.2680   -0.8557 C   0  0  0  0  0  0  0  0  0  0  0  0
   -1.9007   -2.1663   -1.3337 O   0  0  0  0  0  0  0  0  0  0  0  0
   -0.9893    0.0741   -1.5240 C   0  0  0  0  0  0  0  0  0  0  0  0
   -1.7524    1.2608   -0.9052 C   0  0  0  0  0  0  0  0  0  0  0  0
   -1.2881    1.5231    0.5118 C   0  0  2  0  0  0  0  0  0  0  0  0
   -1.6871    0.4982    1.4923 N   0  0  0  0  0  0  0  0  0  0  0  0
   -1.0786   -0.1314    2.5331 C   0  0  0  0  0  0  0  0  0  0  0  0
   -1.6168   -1.0755    3.1046 O   0  0  0  0  0  0  0  0  0  0  0  0
    0.1620    0.1878    2.8832 N   0  0  0  0  0  0  0  0  0  0  0  0
    0.9989    1.1097    2.2307 C   0  0  1  0  0  0  0  0  0  0  0  0
    1.0850    2.3171    3.1265 C   0  0  0  0  0  0  0  0  0  0  0  0
    1.7411    1.8685    4.3511 C   0  0  0  0  0  0  0  0  0  0  0  0
    2.9535    1.3336    3.7741 C   0  0  0  0  0  0  0  0  0  0  0  0
    3.4223    2.5900    2.8901 C   0  0  0  0  0  0  0  0  0  0  0  0
    4.1319    4.1187    3.3855 N   0  0  0  0  0  0  0  0  0  0  0  0
    5.7539    4.8714    3.3325 C   0  0  0  0  0  0  0  0  0  0  0  0
    5.3128    5.6067    4.3146 O   0  0  0  0  0  0  0  0  0  0  0  0
    7.6059    3.8250    2.8770 C   0  0  0  0  0  0  0  0  0  0  0  0
    7.5278    2.1415    3.4408 C   0  0  0  0  0  0  0  0  0  0  0  0
    6.0316    1.0113    2.8308 C   0  0  0  0  0  0  0  0  0  0  0  0
    5.9175    0.1127    1.7023 C   0  0  0  0  0  0  0  0  0  0  0  0
    7.2760   -0.5850    1.1950 C   0  0  0  0  0  0  0  0  0  0  0  0
    6.9609   -1.8441    1.4283 N   0  0  0  0  0  0  0  0  0  0  0  0
    6.4409   -2.5547    0.4205 C   0  0  0  0  0  0  0  0  0  0  0  0
    6.2384   -3.7203    0.7442 O   0  0  0  0  0  0  0  0  0  0  0  0
    6.3190   -2.0198   -1.1417 C   0  0  0  0  0  0  0  0  0  0  0  0
    5.1401   -1.1143   -1.6809 C   0  0  0  0  0  0  0  0  0  0  0  0
    5.4215    0.6548   -1.8997 C   0  0  0  0  0  0  0  0  0  0  0  0
    4.0217    1.7998   -1.9208 C   0  0  0  0  0  0  0  0  0  0  0  0
    3.8192    3.0507   -0.7085 C   0  0  0  0  0  0  0  0  0  0  0  0
    5.0514    3.0838    0.5991 C   0  0  0  0  0  0  0  0  0  0  0  0
    4.5426    4.3045    1.2815 O   0  0  0  0  0  0  0  0  0  0  0  0
    6.6713    2.0057    0.5939 C   0  0  0  0  0  0  0  0  0  0  0  0
    7.9123    1.1717    1.9440 C   0  0  0  0  0  0  0  0  0  0  0  0
    7.4771    0.1243    3.6956 N   0  0  0  0  0  0  0  0  0  0  0  0
    8.6304    0.2943    4.8658 C   0  0  0  0  0  0  0  0  0  0  0  0
    8.8422    1.8485    5.7787 C   0  0  0  0  0  0  0  0  0  0  0  0
    7.7634    2.4533    6.6493 N   0  0  0  0  0  0  0  0  0  0  0  0
    7.1916    3.9710    7.0833 C   0  0  0  0  0  0  0  0  0  0  0  0
    7.3159    5.6666    6.5147 C   0  0  0  0  0  0  0  0  0  0  0  0
    6.1631    6.3555    6.2627 O   0  0  0  0  0  0  0  0  0  0  0  0
    8.3596    6.1982    6.0831 O   0  0  0  0  0  0  0  0  0  0  0  0
    6.6449    2.2775    5.9287 C   0  0  0  0  0  0  0  0  0  0  0  0
    6.4344    3.4484    4.4556 C   0  0  0  0  0  0  0  0  0  0  0  0
    6.0021    3.2886    2.6094 C   0  0  0  0  0  0  0  0  0  0  0  0
    6.5174    4.5425    1.2634 C   0  0  0  0  0  0  0  0  0  0  0  0
    5.8655    4.5883   -0.4783 C   0  0  0  0  0  0  0  0  0  0  0  0
    5.8362    2.7851   -1.1402 C   0  0  0  0  0  0  0  0  0  0  0  0
    4.6632    1.3305   -0.0342 C   0  0  0  0  0  0  0  0  0  0  0  0
    4.2466    0.0902   -0.2013 O   0  0  0  0  0  0  0  0  0  0  0  0
    3.8403    1.5104    0.8797 O   0  0  0  0  0  0  0  0  0  0  0  0
    7.1901    5.7628    1.6689 C   0  0  0  0  0  0  0  0  0  0  0  0
    7.6723    5.8690    3.2419 C   0  0  0  0  0  0  0  0  0  0  0  0
    7.4319    4.6987    4.5681 C   0  0  0  0  0  0  0  0  0  0  0  0
    8.6170    4.2121    5.1087 O   0  0  0  0  0  0  0  0  0  0  0  0
    5.7022    0.2735    4.7261 C   0  0  0  0  0  0  0  0  0  0  0  0
    4.7134    1.9755    5.3264 C   0  0  0  0  0  0  0  0  0  0  0  0
    3.7045    2.6954    5.0057 O   0  0  0  0  0  0  0  0  0  0  0  0
    4.9012    3.0527    5.9631 O   0  0  0  0  0  0  0  0  0  0  0  0
    6.6531    0.8549   -0.7756 C   0  0  0  0  0  0  0  0  0  0  0  0
    1.9665    0.2244    1.3990 C   0  0  0  0  0  0  0  0  0  0  0  0
    1.9112    0.3818    0.0448 O   0  0  0  0  0  0  0  0  0  0  0  0
    2.6489   -0.6900    1.8490 O   0  0  0  0  0  0  0  0  0  0  0  0
   -1.7601    2.8617    1.0562 C   0  0  0  0  0  0  0  0  0  0  0  0
   -0.8301    3.7719    1.4134 O   0  0  0  0  0  0  0  0  0  0  0  0
   -2.9508    3.0992    1.1986 O   0  0  0  0  0  0  0  0  0  0  0  0
   -1.0675   -2.0728    0.9192 H   0  0  0  0  0  0  0  0  0  0  0  0
    0.0897    0.2647   -1.5707 H   0  0  0  0  0  0  0  0  0  0  0  0
   -1.3026   -0.0145   -2.5668 H   0  0  0  0  0  0  0  0  0  0  0  0
   -1.5154    2.1644   -1.4949 H   0  0  0  0  0  0  0  0  0  0  0  0
   -2.8261    1.1056   -0.9312 H   0  0  0  0  0  0  0  0  0  0  0  0
   -0.2526    1.5256    0.2297 H   0  0  0  0  0  0  0  0  0  0  0  0
   -2.5770    0.0699    1.2796 H   0  0  0  0  0  0  0  0  0  0  0  0
    0.6181   -0.3763    3.6005 H   0  0  0  0  0  0  0  0  0  0  0  0
    0.5789    1.6715    1.4812 H   0  0  0  0  0  0  0  0  0  0  0  0
    1.5198    3.1806    2.5886 H   0  0  0  0  0  0  0  0  0  0  0  0
    0.1855    2.7817    3.4688 H   0  0  0  0  0  0  0  0  0  0  0  0
    1.8679    2.7482    4.9820 H   0  0  0  0  0  0  0  0  0  0  0  0
    1.4074    1.0533    4.9616 H   0  0  0  0  0  0  0  0  0  0  0  0
    3.4536    0.8381    4.6107 H   0  0  0  0  0  0  0  0  0  0  0  0
    3.0443    0.3821    3.3192 H   0  0  0  0  0  0  0  0  0  0  0  0
    4.0771    1.8522    2.6083 H   0  0  0  0  0  0  0  0  0  0  0  0
    2.9971    2.8361    1.9304 H   0  0  0  0  0  0  0  0  0  0  0  0
    3.5396    4.5805    4.0913 H   0  0  0  0  0  0  0  0  0  0  0  0
    7.9519    3.5776    1.8259 H   0  0  0  0  0  0  0  0  0  0  0  0
    8.7080    3.9652    3.1603 H   0  0  0  0  0  0  0  0  0  0  0  0
    8.6100    1.7852    3.4774 H   0  0  0  0  0  0  0  0  0  0  0  0
    7.5831    1.8862    4.3916 H   0  0  0  0  0  0  0  0  0  0  0  0
    5.8982   -0.1095    3.0429 H   0  0  0  0  0  0  0  0  0  0  0  0
    5.2766    1.4345    3.4034 H   0  0  0  0  0  0  0  0  0  0  0  0
    4.9379   -0.3916    1.7046 H   0  0  0  0  0  0  0  0  0  0  0  0
    5.5833    1.0709    1.5542 H   0  0  0  0  0  0  0  0  0  0  0  0
    7.9101   -0.1221    0.3807 H   0  0  0  0  0  0  0  0  0  0  0  0
    8.3221   -0.6302    1.5586 H   0  0  0  0  0  0  0  0  0  0  0  0
    6.8312   -1.9367    2.4440 H   0  0  0  0  0  0  0  0  0  0  0  0
    7.2607   -1.5615   -1.4707 H   0  0  0  0  0  0  0  0  0  0  0  0
    6.2028   -2.9329   -1.7043 H   0  0  0  0  0  0  0  0  0  0  0  0
    4.8349   -1.1239   -2.6979 H   0  0  0  0  0  0  0  0  0  0  0  0
    4.2778   -1.5108   -1.0746 H   0  0  0  0  0  0  0  0  0  0  0  0
    3.0303    1.4438   -2.1398 H   0  0  0  0  0  0  0  0  0  0  0  0
    2.9787    3.6743   -0.4552 H   0  0  0  0  0  0  0  0  0  0  0  0
    3.8458    4.8495    1.6753 H   0  0  0  0  0  0  0  0  0  0  0  0
    8.9833    0.9727    1.6162 H   0  0  0  0  0  0  0  0  0  0  0  0
    8.5448    2.0956    1.9676 H   0  0  0  0  0  0  0  0  0  0  0  0
    8.2977   -0.4737    5.5538 H   0  0  0  0  0  0  0  0  0  0  0  0
    9.5463    0.1494    4.2563 H   0  0  0  0  0  0  0  0  0  0  0  0
    9.7428    1.9494    6.3279 H   0  0  0  0  0  0  0  0  0  0  0  0
    9.1414    2.4503    4.9269 H   0  0  0  0  0  0  0  0  0  0  0  0
    6.1357    3.8485    7.4262 H   0  0  0  0  0  0  0  0  0  0  0  0
    7.9191    3.9507    7.8391 H   0  0  0  0  0  0  0  0  0  0  0  0
    5.4760    5.8064    5.7930 H   0  0  0  0  0  0  0  0  0  0  0  0
    6.5815    1.4874    5.3351 H   0  0  0  0  0  0  0  0  0  0  0  0
    5.8224    1.7697    6.7418 H   0  0  0  0  0  0  0  0  0  0  0  0
    5.1900    2.7461    2.3769 H   0  0  0  0  0  0  0  0  0  0  0  0
    4.7720    4.9724   -0.3925 H   0  0  0  0  0  0  0  0  0  0  0  0
    6.1106    5.4100   -1.1387 H   0  0  0  0  0  0  0  0  0  0  0  0
    5.6745    2.9106   -2.2111 H   0  0  0  0  0  0  0  0  0  0  0  0
    6.9838    2.7902   -1.1451 H   0  0  0  0  0  0  0  0  0  0  0  0
    3.5080    0.0700   -0.8392 H   0  0  0  0  0  0  0  0  0  0  0  0
    7.1631    6.5402    0.9212 H   0  0  0  0  0  0  0  0  0  0  0  0
    8.2187    6.7382    3.4813 H   0  0  0  0  0  0  0  0  0  0  0  0
    8.9941    4.8755    5.6790 H   0  0  0  0  0  0  0  0  0  0  0  0
    4.8541   -0.2810    4.1602 H   0  0  0  0  0  0  0  0  0  0  0  0
    5.7334   -0.4410    5.5469 H   0  0  0  0  0  0  0  0  0  0  0  0
    4.2925    3.3211    4.5096 H   0  0  0  0  0  0  0  0  0  0  0  0
    6.6997   -0.1711   -0.5178 H   0  0  0  0  0  0  0  0  0  0  0  0
    1.5785    1.1607   -0.4215 H   0  0  0  0  0  0  0  0  0  0  0  0
    0.1208    3.5982    1.3442 H   0  0  0  0  0  0  0  0  0  0  0  0
  1  2  1  0  0  0  0
  1 68  1  0  0  0  0
  2  3  2  0  0  0  0
  2  4  1  0  0  0  0
  4  5  1  0  0  0  0
  4 69  1  0  0  0  0
  4 70  1  0  0  0  0
  5 71  1  0  0  0  0
  5 72  1  0  0  0  0
  6 65  1  0  0  0  0
  6 73  1  6  0  0  0
  6  7  1  0  0  0  0
  6  5  1  0  0  0  0
  7  8  1  0  0  0  0
  7 74  1  0  0  0  0
  8  9  2  0  0  0  0
  8 10  1  0  0  0  0
 10 75  1  0  0  0  0
 11 10  1  0  0  0  0
 11 12  1  0  0  0  0
 11 62  1  0  0  0  0
 11 76  1  6  0  0  0
 12 13  1  0  0  0  0
 12 77  1  0  0  0  0
 12 78  1  0  0  0  0
 13 14  1  0  0  0  0
 13 79  1  0  0  0  0
 13 80  1  0  0  0  0
 14 15  1  0  0  0  0
 14 81  1  0  0  0  0
 14 82  1  0  0  0  0
 15 16  1  0  0  0  0
 15 83  1  0  0  0  0
 15 84  1  0  0  0  0
 16 17  1  0  0  0  0
 16 85  1  0  0  0  0
 17 18  2  0  0  0  0
 17 19  1  0  0  0  0
 19 20  1  0  0  0  0
 19 86  1  0  0  0  0
 19 87  1  0  0  0  0
 20 21  1  0  0  0  0
 20 88  1  0  0  0  0
 20 89  1  0  0  0  0
 21 22  1  0  0  0  0
 21 90  1  0  0  0  0
 21 91  1  0  0  0  0
 22 23  1  0  0  0  0
 22 92  1  0  0  0  0
 22 93  1  0  0  0  0
 23 24  1  0  0  0  0
 23 94  1  0  0  0  0
 23 95  1  0  0  0  0
 24 25  1  0  0  0  0
 24 96  1  0  0  0  0
 25 26  2  0  0  0  0
 25 27  1  0  0  0  0
 27 28  1  0  0  0  0
 27 97  1  0  0  0  0
 27 98  1  0  0  0  0
 28 29  1  0  0  0  0
 28 99  1  0  0  0  0
 28100  1  0  0  0  0
 29 30  2  0  0  0  0
 29 61  1  0  0  0  0
 30 31  1  0  0  0  0
 30101  1  0  0  0  0
 31 32  2  0  0  0  0
 31102  1  0  0  0  0
 32 33  1  0  0  0  0
 32 34  1  0  0  0  0
 33103  1  0  0  0  0
 34 35  1  0  0  0  0
 34 61  2  0  0  0  0
 35 36  1  0  0  0  0
 35104  1  0  0  0  0
 35105  1  0  0  0  0
 36 37  1  0  0  0  0
 36 57  1  0  0  0  0
 37 38  1  0  0  0  0
 37106  1  0  0  0  0
 37107  1  0  0  0  0
 38 39  1  0  0  0  0
 38108  1  0  0  0  0
 38109  1  0  0  0  0
 39 40  1  0  0  0  0
 39 44  1  0  0  0  0
 40 41  1  0  0  0  0
 40110  1  0  0  0  0
 40111  1  0  0  0  0
 41 42  1  0  0  0  0
 41 43  2  0  0  0  0
 42112  1  0  0  0  0
 44 45  1  0  0  0  0
 44113  1  0  0  0  0
 44114  1  0  0  0  0
 45 46  2  0  0  0  0
 45 55  1  0  0  0  0
 46 47  1  0  0  0  0
 46115  1  0  0  0  0
 47 48  1  0  0  0  0
 47 53  2  0  0  0  0
 48 49  1  0  0  0  0
 48116  1  0  0  0  0
 48117  1  0  0  0  0
 49 50  1  0  0  0  0
 49118  1  0  0  0  0
 49119  1  0  0  0  0
 50 51  1  0  0  0  0
 50 52  2  0  0  0  0
 51120  1  0  0  0  0
 53 54  1  0  0  0  0
 53121  1  0  0  0  0
 54 55  2  0  0  0  0
 54122  1  0  0  0  0
 55 56  1  0  0  0  0
 56123  1  0  0  0  0
 57 58  1  0  0  0  0
 57124  1  0  0  0  0
 57125  1  0  0  0  0
 58 59  1  0  0  0  0
 58 60  2  0  0  0  0
 59126  1  0  0  0  0
 61127  1  0  0  0  0
 62 63  1  0  0  0  0
 62 64  2  0  0  0  0
 63128  1  0  0  0  0
 65 66  1  0  0  0  0
 65 67  2  0  0  0  0
 66129  1  0  0  0  0
M  END
>  <DRUGBANK_ID>
DB16303

>  <COMMON_NAME>
Gallium-68 PSMA

>  <CAS_NUMBER>
1366302-52-4

>  <UNII>
9AG41L3AOQ

>  <SYNONYMS>
Psma-hbed-cc

$$$$
