
 OpenBabel10282417203D

 25 24  0  0  0  0  0  0  0  0999 V2000
    1.0851   -0.0418   -0.0484 C   0  0  0  0  0  0  0  0  0  0  0  0
    0.6451   -0.2913    1.3857 C   0  0  0  0  0  0  0  0  0  0  0  0
    1.1270    0.8193    2.3217 C   0  0  0  0  0  0  0  0  0  0  0  0
    0.5676    2.2000    1.9534 C   0  0  0  0  0  0  0  0  0  0  0  0
   -0.9670    2.2612    1.9985 C   0  0  0  0  0  0  0  0  0  0  0  0
   -1.5307    1.9393    3.3927 C   0  0  3  0  0  0  0  0  0  0  0  0
   -1.0488    2.9569    4.4257 C   0  0  0  0  0  0  0  0  0  0  0  0
   -2.9923    1.9215    3.3421 N   0  0  0  0  0  0  0  0  0  0  0  0
    0.6745    0.8926   -0.4430 H   0  0  0  0  0  0  0  0  0  0  0  0
    0.7410   -0.8461   -0.7024 H   0  0  0  0  0  0  0  0  0  0  0  0
    2.1764    0.0157   -0.1051 H   0  0  0  0  0  0  0  0  0  0  0  0
   -0.4459   -0.3880    1.4261 H   0  0  0  0  0  0  0  0  0  0  0  0
    1.0455   -1.2516    1.7286 H   0  0  0  0  0  0  0  0  0  0  0  0
    0.8587    0.5624    3.3533 H   0  0  0  0  0  0  0  0  0  0  0  0
    2.2222    0.8607    2.3075 H   0  0  0  0  0  0  0  0  0  0  0  0
    0.9990    2.9525    2.6216 H   0  0  0  0  0  0  0  0  0  0  0  0
    0.9089    2.4941    0.9551 H   0  0  0  0  0  0  0  0  0  0  0  0
   -1.2887    3.2609    1.6808 H   0  0  0  0  0  0  0  0  0  0  0  0
   -1.3870    1.5704    1.2562 H   0  0  0  0  0  0  0  0  0  0  0  0
   -1.2172    0.9387    3.7022 H   0  0  0  0  0  0  0  0  0  0  0  0
   -1.3405    3.9736    4.1412 H   0  0  0  0  0  0  0  0  0  0  0  0
   -1.4566    2.7408    5.4171 H   0  0  0  0  0  0  0  0  0  0  0  0
    0.0413    2.9384    4.5251 H   0  0  0  0  0  0  0  0  0  0  0  0
   -3.3555    1.7212    4.2779 H   0  0  0  0  0  0  0  0  0  0  0  0
   -3.3443    2.8380    3.0895 H   0  0  0  0  0  0  0  0  0  0  0  0
  1  2  1  0  0  0  0
  1  9  1  0  0  0  0
  1 10  1  0  0  0  0
  1 11  1  0  0  0  0
  2  3  1  0  0  0  0
  2 12  1  0  0  0  0
  2 13  1  0  0  0  0
  3  4  1  0  0  0  0
  3 14  1  0  0  0  0
  3 15  1  0  0  0  0
  4  5  1  0  0  0  0
  4 16  1  0  0  0  0
  4 17  1  0  0  0  0
  5  6  1  0  0  0  0
  5 18  1  0  0  0  0
  5 19  1  0  0  0  0
  6  7  1  0  0  0  0
  6  8  1  0  0  0  0
  6 20  1  0  0  0  0
  7 21  1  0  0  0  0
  7 22  1  0  0  0  0
  7 23  1  0  0  0  0
  8 24  1  0  0  0  0
  8 25  1  0  0  0  0
M  END
>  <DRUGBANK_ID>
DB13238

>  <COMMON_NAME>
Tuaminoheptane

>  <CAS_NUMBER>
123-82-0

>  <UNII>
Z0420GYD84

>  <SYNONYMS>
1-Methylhexylamine; 2-Aminoheptane; 2-Heptanamine; 2-Heptylamine; Tuaminoheptane; Tuaminoheptano; Tuaminoheptanum

$$$$
