
 OpenBabel10282417133D

 20 19  0  0  1  0  0  0  0  0999 V2000
   -3.0757    0.2895   -3.3756 O   0  0  0  0  0  0  0  0  0  0  0  0
   -1.8222   -0.0530   -3.9273 C   0  0  0  0  0  0  0  0  0  0  0  0
   -1.1216   -1.2818   -3.3494 C   0  0  2  0  0  0  0  0  0  0  0  0
   -1.4847   -1.4368   -1.9697 O   0  0  0  0  0  0  0  0  0  0  0  0
    0.4183   -1.1810   -3.4978 C   0  0  2  0  0  0  0  0  0  0  0  0
    0.9350   -0.3448   -2.4544 O   0  0  0  0  0  0  0  0  0  0  0  0
    0.9726   -0.7431   -4.8779 C   0  0  0  0  0  0  0  0  0  0  0  0
    1.6201   -1.5434   -5.5777 O   0  0  0  0  0  0  0  0  0  0  0  0
    0.7802    0.7031   -5.3849 C   0  0  0  0  0  0  0  0  0  0  0  0
   -0.4654    1.0894   -5.9249 O   0  0  0  0  0  0  0  0  0  0  0  0
   -3.6821   -0.4456   -3.5490 H   0  0  0  0  0  0  0  0  0  0  0  0
   -1.9806   -0.2526   -4.9895 H   0  0  0  0  0  0  0  0  0  0  0  0
   -1.1987    0.8277   -3.7718 H   0  0  0  0  0  0  0  0  0  0  0  0
   -1.4923   -2.1746   -3.8665 H   0  0  0  0  0  0  0  0  0  0  0  0
   -0.8577   -0.9168   -1.4329 H   0  0  0  0  0  0  0  0  0  0  0  0
    0.8331   -2.1802   -3.2939 H   0  0  0  0  0  0  0  0  0  0  0  0
    0.4424    0.4938   -2.4545 H   0  0  0  0  0  0  0  0  0  0  0  0
    1.0231    1.3932   -4.5704 H   0  0  0  0  0  0  0  0  0  0  0  0
    1.5104    0.8835   -6.1765 H   0  0  0  0  0  0  0  0  0  0  0  0
   -0.7712    0.4044   -6.5455 H   0  0  0  0  0  0  0  0  0  0  0  0
  1  2  1  0  0  0  0
  1 11  1  0  0  0  0
  2 12  1  0  0  0  0
  2 13  1  0  0  0  0
  3 14  1  6  0  0  0
  3  4  1  0  0  0  0
  3  2  1  0  0  0  0
  4 15  1  0  0  0  0
  5  7  1  0  0  0  0
  5 16  1  1  0  0  0
  5  6  1  0  0  0  0
  5  3  1  0  0  0  0
  6 17  1  0  0  0  0
  7  8  2  0  0  0  0
  7  9  1  0  0  0  0
  9 10  1  0  0  0  0
  9 18  1  0  0  0  0
  9 19  1  0  0  0  0
 10 20  1  0  0  0  0
M  END
>  <DRUGBANK_ID>
DB03947

>  <SECONDARY_ACCESSION_NUMBERS>
EXPT03263

>  <COMMON_NAME>
D-Xylulose

>  <CAS_NUMBER>
551-84-8

>  <UNII>
202306UV02

$$$$
