
 OpenBabel10282417183D

 56 60  0  0  0  0  0  0  0  0999 V2000
    2.5248   -0.1152   -0.0048 C   0  0  0  0  0  0  0  0  0  0  0  0
   -6.5875   -2.4045   -4.5762 C   0  0  0  0  0  0  0  0  0  0  0  0
   -7.0238   -1.0640   -4.6357 C   0  0  0  0  0  0  0  0  0  0  0  0
   -6.4543    1.4522   -4.8161 C   0  0  0  0  0  0  0  0  0  0  0  0
   -6.0530    2.4195   -3.6364 C   0  0  0  0  0  0  0  0  0  0  0  0
   -0.6965    2.1648   -3.8273 C   0  0  0  0  0  0  0  0  0  0  0  0
   -1.6720    0.6590   -3.6253 C   0  0  0  0  0  0  0  0  0  0  0  0
   -4.5237    1.3016   -2.0076 C   0  0  0  0  0  0  0  0  0  0  0  0
   -2.6235    2.4152   -4.2829 C   0  0  0  0  0  0  0  0  0  0  0  0
   -5.2413   -2.7343   -4.6330 C   0  0  0  0  0  0  0  0  0  0  0  0
   -3.6085    1.4533   -0.8885 C   0  0  0  0  0  0  0  0  0  0  0  0
   -2.0326    2.4446   -2.2446 C   0  0  0  0  0  0  0  0  0  0  0  0
    0.3978    1.2200    0.0786 C   0  0  0  0  0  0  0  0  0  0  0  0
   -3.3555    4.0603   -3.2873 C   0  0  0  0  0  0  0  0  0  0  0  0
    0.2830   -1.1801    0.0018 C   0  0  0  0  0  0  0  0  0  0  0  0
   -1.6111   -0.0134    0.2883 C   0  0  0  0  0  0  0  0  0  0  0  0
   -1.7753    2.5371    0.1723 C   0  0  0  0  0  0  0  0  0  0  0  0
    1.0435   -0.0138    0.0073 C   0  0  0  0  0  0  0  0  0  0  0  0
   -0.9796    1.2375    0.2374 C   0  0  0  0  0  0  0  0  0  0  0  0
   -3.6590    1.1875   -3.8845 C   0  0  0  0  0  0  0  0  0  0  0  0
   -6.1122   -0.0604   -4.7967 C   0  0  0  0  0  0  0  0  0  0  0  0
   -4.4669    2.7460   -3.4977 C   0  0  0  0  0  0  0  0  0  0  0  0
   -1.5289    3.8569   -3.6625 C   0  0  0  0  0  0  0  0  0  0  0  0
   -3.5052    0.9354   -3.5800 C   0  0  0  0  0  0  0  0  0  0  0  0
   -3.8218    0.3473   -4.8849 C   0  0  0  0  0  0  0  0  0  0  0  0
   -4.8301   -0.5761   -4.9321 C   0  0  0  0  0  0  0  0  0  0  0  0
   -0.6323    5.2134   -4.1322 Cl  0  0  0  0  0  0  0  0  0  0  0  0
   -1.0437   -1.2084    0.0922 N   0  0  0  0  0  0  0  0  0  0  0  0
   -4.3245   -1.8182   -4.8186 N   0  0  0  0  0  0  0  0  0  0  0  0
   -2.7582    2.6084   -0.9661 N   0  0  0  0  0  0  0  0  0  0  0  0
    2.8477   -0.6385    0.9004 H   0  0  0  0  0  0  0  0  0  0  0  0
    2.8519   -0.6660   -0.8894 H   0  0  0  0  0  0  0  0  0  0  0  0
    2.9836    0.8761   -0.0143 H   0  0  0  0  0  0  0  0  0  0  0  0
   -7.3059   -3.2018   -4.5164 H   0  0  0  0  0  0  0  0  0  0  0  0
   -8.0689   -0.8102   -4.5765 H   0  0  0  0  0  0  0  0  0  0  0  0
   -6.0270    1.8861   -5.7226 H   0  0  0  0  0  0  0  0  0  0  0  0
   -7.5463    1.5087   -4.8745 H   0  0  0  0  0  0  0  0  0  0  0  0
   -6.5150    3.3957   -3.6273 H   0  0  0  0  0  0  0  0  0  0  0  0
   -6.5110    1.8907   -2.7644 H   0  0  0  0  0  0  0  0  0  0  0  0
    0.3140    1.9251   -4.1176 H   0  0  0  0  0  0  0  0  0  0  0  0
   -1.4284   -0.4177   -3.4906 H   0  0  0  0  0  0  0  0  0  0  0  0
   -5.2157    0.4771   -1.9785 H   0  0  0  0  0  0  0  0  0  0  0  0
   -5.0466    2.2655   -1.7474 H   0  0  0  0  0  0  0  0  0  0  0  0
   -3.0796    3.2523   -4.9271 H   0  0  0  0  0  0  0  0  0  0  0  0
   -2.0519    2.1177   -5.2009 H   0  0  0  0  0  0  0  0  0  0  0  0
   -4.8526   -3.7401   -4.5776 H   0  0  0  0  0  0  0  0  0  0  0  0
   -4.2245    1.5250    0.0062 H   0  0  0  0  0  0  0  0  0  0  0  0
   -3.1022    0.5426   -1.1249 H   0  0  0  0  0  0  0  0  0  0  0  0
   -1.1733    3.1644   -1.9660 H   0  0  0  0  0  0  0  0  0  0  0  0
   -1.3489    1.5922   -1.9776 H   0  0  0  0  0  0  0  0  0  0  0  0
    0.9594    2.1483    0.0102 H   0  0  0  0  0  0  0  0  0  0  0  0
   -3.9109    4.9281   -2.9541 H   0  0  0  0  0  0  0  0  0  0  0  0
    0.7353   -2.1622   -0.0201 H   0  0  0  0  0  0  0  0  0  0  0  0
   -2.6813   -0.1215    0.4152 H   0  0  0  0  0  0  0  0  0  0  0  0
   -2.3393    2.6691    1.0963 H   0  0  0  0  0  0  0  0  0  0  0  0
   -1.0805    3.3959    0.1183 H   0  0  0  0  0  0  0  0  0  0  0  0
  1 31  1  0  0  0  0
  1 32  1  0  0  0  0
  1 33  1  0  0  0  0
  2 34  1  0  0  0  0
  3  2  2  0  0  0  0
  3 35  1  0  0  0  0
  4 36  1  0  0  0  0
  4 37  1  0  0  0  0
  5  4  1  0  0  0  0
  5 38  1  0  0  0  0
  5 39  1  0  0  0  0
  6 40  1  0  0  0  0
  7  6  1  0  0  0  0
  7 41  1  0  0  0  0
  8 42  1  0  0  0  0
  8 43  1  0  0  0  0
  9 44  1  0  0  0  0
  9 45  1  0  0  0  0
 10  2  1  0  0  0  0
 10 46  1  0  0  0  0
 11  8  1  0  0  0  0
 11 47  1  0  0  0  0
 11 48  1  0  0  0  0
 12  9  1  0  0  0  0
 12 49  1  0  0  0  0
 12 50  1  0  0  0  0
 13 51  1  0  0  0  0
 14 52  1  0  0  0  0
 15 53  1  0  0  0  0
 16 54  1  0  0  0  0
 17 55  1  0  0  0  0
 17 56  1  0  0  0  0
 18  1  1  0  0  0  0
 18 13  2  0  0  0  0
 18 15  1  0  0  0  0
 19 13  1  0  0  0  0
 19 16  2  0  0  0  0
 19 17  1  0  0  0  0
 20  8  1  0  0  0  0
 20  9  1  0  0  0  0
 21  3  1  0  0  0  0
 21  4  1  0  0  0  0
 22  5  1  0  0  0  0
 22 14  2  0  0  0  0
 23  6  2  0  0  0  0
 23 14  1  0  0  0  0
 24  7  2  0  0  0  0
 24 22  1  0  0  0  0
 25 24  1  0  0  0  0
 25 20  2  0  0  0  0
 26 21  2  0  0  0  0
 26 25  1  0  0  0  0
 27 23  1  0  0  0  0
 28 15  2  0  0  0  0
 28 16  1  0  0  0  0
 29 10  2  0  0  0  0
 29 26  1  0  0  0  0
 30 11  1  0  0  0  0
 30 12  1  0  0  0  0
 30 17  1  0  0  0  0
M  END
>  <DRUGBANK_ID>
DB11614

>  <COMMON_NAME>
Rupatadine

>  <CAS_NUMBER>
158876-82-5

>  <UNII>
2AE8M83G3E

>  <SYNONYMS>
Rupatadina; Rupatadine

$$$$
