627
 OpenBabel10282417123D

 15 15  0  0  0  0  0  0  0  0999 V2000
    1.0373   -0.2192    0.0503 N   0  0  0  0  0  0  0  0  0  0  0  0
   -0.9072   -0.9666   -0.8334 O   0  0  0  0  0  0  0  0  0  0  0  0
    1.3221   -2.7376   -3.9518 N   0  0  0  0  0  0  0  0  0  0  0  0
    1.0748   -1.8996   -1.6945 C   0  0  0  0  0  0  0  0  0  0  0  0
    2.1621   -2.6669   -1.2749 C   0  0  0  0  0  0  0  0  0  0  0  0
    0.6834   -1.9823   -3.0234 C   0  0  0  0  0  0  0  0  0  0  0  0
    2.8272   -3.4635   -2.2085 C   0  0  0  0  0  0  0  0  0  0  0  0
    2.3796   -3.4599   -3.5223 C   0  0  0  0  0  0  0  0  0  0  0  0
    0.3152   -1.0168   -0.7921 C   0  0  0  0  0  0  0  0  0  0  0  0
    0.5184    0.4706    0.5813 H   0  0  0  0  0  0  0  0  0  0  0  0
    2.0409   -0.1160   -0.0054 H   0  0  0  0  0  0  0  0  0  0  0  0
    2.4747   -2.6750   -0.2352 H   0  0  0  0  0  0  0  0  0  0  0  0
   -0.1667   -1.4156   -3.3947 H   0  0  0  0  0  0  0  0  0  0  0  0
    3.6732   -4.0796   -1.9223 H   0  0  0  0  0  0  0  0  0  0  0  0
    2.8710   -4.0584   -4.2853 H   0  0  0  0  0  0  0  0  0  0  0  0
  1  9  1  0  0  0  0
  1 10  1  0  0  0  0
  1 11  1  0  0  0  0
  2  9  2  0  0  0  0
  3  6  1  0  0  0  0
  3  8  2  0  0  0  0
  4  5  1  0  0  0  0
  4  6  2  0  0  0  0
  4  9  1  0  0  0  0
  5  7  2  0  0  0  0
  5 12  1  0  0  0  0
  6 13  1  0  0  0  0
  7  8  1  0  0  0  0
  7 14  1  0  0  0  0
  8 15  1  0  0  0  0
M  END
>  <DRUGBANK_ID>
DB02701

>  <SECONDARY_ACCESSION_NUMBERS>
EXPT02307

>  <COMMON_NAME>
Nicotinamide

>  <CAS_NUMBER>
98-92-0

>  <UNII>
25X51I8RD4

>  <SYNONYMS>
3-pyridinecarboxamide; Niacinamide; Nicotinamida; Nicotinamide; Nicotinamidum; Nicotinic acid amide; Nicotinic amide; Î²-pyridinecarboxamide

$$$$
