
 OpenBabel10282417183D

 97102  0  0  1  0  0  0  0  0999 V2000
  -10.7051  -11.9357    1.3379 C   0  0  0  0  0  0  0  0  0  0  0  0
  -12.5570  -11.4948    1.4357 C   0  0  0  0  0  0  0  0  0  0  0  0
  -13.4630  -10.8851    0.3606 C   0  0  0  0  0  0  0  0  0  0  0  0
  -14.0705  -12.6601    1.9306 C   0  0  0  0  0  0  0  0  0  0  0  0
  -11.8804  -10.4552    2.3091 O   0  0  0  0  0  0  0  0  0  0  0  0
  -12.2799   -9.3694    2.9749 C   0  0  0  0  0  0  0  0  0  0  0  0
  -13.3965   -9.0043    3.0949 O   0  0  0  0  0  0  0  0  0  0  0  0
  -11.2061   -8.6821    3.4699 N   0  0  0  0  0  0  0  0  0  0  0  0
   -9.7906   -8.8302    3.2332 C   0  0  1  0  0  0  0  0  0  0  0  0
   -9.0199   -9.1292    4.5503 C   0  0  0  0  0  0  0  0  0  0  0  0
   -8.8199   -7.7890    5.2853 C   0  0  0  0  0  0  0  0  0  0  0  0
   -7.3866   -7.6301    5.7238 C   0  0  0  0  0  0  0  0  0  0  0  0
   -7.0955   -6.2092    6.2672 C   0  0  0  0  0  0  0  0  0  0  0  0
   -5.8188   -5.7116    5.5581 C   0  0  0  0  0  0  0  0  0  0  0  0
   -6.1447   -5.6646    4.0373 C   0  0  0  0  0  0  0  0  0  0  0  0
   -5.7553   -6.4450    3.0034 C   0  0  0  0  0  0  0  0  0  0  0  0
   -6.0513   -6.1713    1.4543 C   0  0  2  0  0  0  0  0  0  0  0  0
   -4.8470   -6.7679    0.8873 C   0  0  0  0  0  0  0  0  0  0  0  0
   -6.0349   -7.0344   -0.0610 C   0  0  1  0  0  0  0  0  0  0  0  0
   -6.9647   -8.1309   -0.1115 N   0  0  0  0  0  0  0  0  0  0  0  0
   -8.2717   -8.1226   -0.4361 C   0  0  0  0  0  0  0  0  0  0  0  0
   -8.9367   -7.1461   -0.7314 O   0  0  0  0  0  0  0  0  0  0  0  0
   -8.7558   -9.5913   -0.3638 C   0  0  2  0  0  0  0  0  0  0  0  0
   -9.3784  -10.0107   -1.7491 C   0  0  0  0  0  0  0  0  0  0  0  0
  -10.6516  -10.6479   -1.2353 C   0  0  2  0  0  0  0  0  0  0  0  0
  -10.9088   -9.5233    0.0493 C   0  0  0  0  0  0  0  0  0  0  0  0
   -9.6577   -9.5009    0.7268 N   0  0  0  0  0  0  0  0  0  0  0  0
   -9.1077   -9.4519    1.9993 C   0  0  0  0  0  0  0  0  0  0  0  0
   -7.8937   -9.7113    2.1124 O   0  0  0  0  0  0  0  0  0  0  0  0
  -10.0908  -12.2212   -1.3355 O   0  0  0  0  0  0  0  0  0  0  0  0
  -10.3296  -13.6343   -1.2772 C   0  0  0  0  0  0  0  0  0  0  0  0
   -9.8635  -14.3172   -2.1997 O   0  0  0  0  0  0  0  0  0  0  0  0
  -11.0506  -14.3103   -0.1404 N   0  0  0  0  0  0  0  0  0  0  0  0
  -10.3542  -15.0187    1.1376 C   0  0  0  0  0  0  0  0  0  0  0  0
  -11.1384  -14.6120    2.4774 C   0  0  0  0  0  0  0  0  0  0  0  0
  -11.1368  -14.7418    3.9035 C   0  0  0  0  0  0  0  0  0  0  0  0
  -11.9299  -13.9509    4.9826 C   0  0  0  0  0  0  0  0  0  0  0  0
  -12.5507  -12.7848    4.7943 C   0  0  0  0  0  0  0  0  0  0  0  0
  -12.4551  -12.5585    3.4973 C   0  0  0  0  0  0  0  0  0  0  0  0
  -11.9906  -13.6220    2.2232 C   0  0  0  0  0  0  0  0  0  0  0  0
  -12.1755  -13.5842    0.3867 C   0  0  0  0  0  0  0  0  0  0  0  0
  -13.2771  -11.4639    3.4092 F   0  0  0  0  0  0  0  0  0  0  0  0
   -5.4512   -6.9486   -1.5881 C   0  0  0  0  0  0  0  0  0  0  0  0
   -5.4563   -5.8848   -2.1927 O   0  0  0  0  0  0  0  0  0  0  0  0
   -5.1116   -8.1760   -2.3656 N   0  0  0  0  0  0  0  0  0  0  0  0
   -4.8234   -9.8564   -2.1525 S   0  0  0  0  0  0  0  0  0  0  0  0
   -5.9244  -10.5015   -2.8413 O   0  0  0  0  0  0  0  0  0  0  0  0
   -3.4583  -10.1394   -2.5303 O   0  0  0  0  0  0  0  0  0  0  0  0
   -5.0242  -10.4820   -0.4489 C   0  0  0  0  0  0  0  0  0  0  0  0
   -4.6788   -9.2652    0.2986 C   0  0  0  0  0  0  0  0  0  0  0  0
   -4.1333  -10.4587    0.8221 C   0  0  0  0  0  0  0  0  0  0  0  0
  -10.4103  -12.9090    1.0717 H   0  0  0  0  0  0  0  0  0  0  0  0
  -10.0739  -12.0115    2.2484 H   0  0  0  0  0  0  0  0  0  0  0  0
  -10.0929  -11.6207    0.5267 H   0  0  0  0  0  0  0  0  0  0  0  0
  -14.1488  -11.6468   -0.0304 H   0  0  0  0  0  0  0  0  0  0  0  0
  -14.0877  -10.1323    0.8426 H   0  0  0  0  0  0  0  0  0  0  0  0
  -13.0175  -10.5021   -0.5361 H   0  0  0  0  0  0  0  0  0  0  0  0
  -13.9621  -13.5427    2.6453 H   0  0  0  0  0  0  0  0  0  0  0  0
  -14.8526  -12.1766    2.5370 H   0  0  0  0  0  0  0  0  0  0  0  0
  -14.4745  -13.2911    1.1370 H   0  0  0  0  0  0  0  0  0  0  0  0
  -11.5198   -7.9254    4.0564 H   0  0  0  0  0  0  0  0  0  0  0  0
   -9.5349   -7.7862    2.9964 H   0  0  0  0  0  0  0  0  0  0  0  0
   -9.5477   -9.8598    5.1795 H   0  0  0  0  0  0  0  0  0  0  0  0
   -8.0380   -9.6014    4.3858 H   0  0  0  0  0  0  0  0  0  0  0  0
   -9.5518   -7.6811    6.0884 H   0  0  0  0  0  0  0  0  0  0  0  0
   -8.9779   -6.9374    4.6138 H   0  0  0  0  0  0  0  0  0  0  0  0
   -7.0648   -8.4406    6.3866 H   0  0  0  0  0  0  0  0  0  0  0  0
   -6.7710   -7.8230    4.8410 H   0  0  0  0  0  0  0  0  0  0  0  0
   -7.1601   -6.2916    7.3622 H   0  0  0  0  0  0  0  0  0  0  0  0
   -7.8234   -5.4083    6.0698 H   0  0  0  0  0  0  0  0  0  0  0  0
   -4.9766   -6.2985    5.9530 H   0  0  0  0  0  0  0  0  0  0  0  0
   -5.5254   -4.6748    5.7722 H   0  0  0  0  0  0  0  0  0  0  0  0
   -6.8619   -4.8900    3.7871 H   0  0  0  0  0  0  0  0  0  0  0  0
   -5.0137   -7.1981    3.3181 H   0  0  0  0  0  0  0  0  0  0  0  0
   -6.4006   -5.1594    1.3421 H   0  0  0  0  0  0  0  0  0  0  0  0
   -4.4259   -7.5417    1.5411 H   0  0  0  0  0  0  0  0  0  0  0  0
   -3.9856   -6.1465    0.7038 H   0  0  0  0  0  0  0  0  0  0  0  0
   -6.6267   -8.9142   -0.6515 H   0  0  0  0  0  0  0  0  0  0  0  0
   -8.0145  -10.3393   -0.0690 H   0  0  0  0  0  0  0  0  0  0  0  0
  -10.0570   -9.4587   -2.4240 H   0  0  0  0  0  0  0  0  0  0  0  0
   -8.7700   -9.2681   -2.2784 H   0  0  0  0  0  0  0  0  0  0  0  0
  -11.5313  -10.7667   -1.8629 H   0  0  0  0  0  0  0  0  0  0  0  0
  -11.8268   -9.5314    0.5856 H   0  0  0  0  0  0  0  0  0  0  0  0
  -11.0290   -8.4672   -0.2380 H   0  0  0  0  0  0  0  0  0  0  0  0
  -10.3464  -16.0885    0.9458 H   0  0  0  0  0  0  0  0  0  0  0  0
   -9.3200  -14.6350    1.1958 H   0  0  0  0  0  0  0  0  0  0  0  0
  -10.5347  -15.4933    4.3818 H   0  0  0  0  0  0  0  0  0  0  0  0
  -12.1212  -14.3132    5.9845 H   0  0  0  0  0  0  0  0  0  0  0  0
  -13.3110  -12.2022    5.3448 H   0  0  0  0  0  0  0  0  0  0  0  0
  -13.1374  -13.8402   -0.0693 H   0  0  0  0  0  0  0  0  0  0  0  0
  -12.0330  -12.6252   -0.1488 H   0  0  0  0  0  0  0  0  0  0  0  0
   -5.0101   -7.9842   -3.3746 H   0  0  0  0  0  0  0  0  0  0  0  0
   -5.9988  -10.9230   -0.3013 H   0  0  0  0  0  0  0  0  0  0  0  0
   -3.9684   -8.5771   -0.1575 H   0  0  0  0  0  0  0  0  0  0  0  0
   -5.4522   -8.9558    0.9847 H   0  0  0  0  0  0  0  0  0  0  0  0
   -4.6161  -10.5539    1.8131 H   0  0  0  0  0  0  0  0  0  0  0  0
   -3.0648  -10.3586    0.8996 H   0  0  0  0  0  0  0  0  0  0  0  0
  1  2  1  0  0  0  0
  1 52  1  0  0  0  0
  1 53  1  0  0  0  0
  1 54  1  0  0  0  0
  2  3  1  0  0  0  0
  2  4  1  0  0  0  0
  2  5  1  0  0  0  0
  3 55  1  0  0  0  0
  3 56  1  0  0  0  0
  3 57  1  0  0  0  0
  4 58  1  0  0  0  0
  4 59  1  0  0  0  0
  4 60  1  0  0  0  0
  5  6  1  0  0  0  0
  6  7  2  0  0  0  0
  6  8  1  0  0  0  0
  8 61  1  0  0  0  0
  9 10  1  0  0  0  0
  9 28  1  0  0  0  0
  9  8  1  0  0  0  0
  9 62  1  6  0  0  0
 10 11  1  0  0  0  0
 10 63  1  0  0  0  0
 10 64  1  0  0  0  0
 11 12  1  0  0  0  0
 11 65  1  0  0  0  0
 11 66  1  0  0  0  0
 12 13  1  0  0  0  0
 12 67  1  0  0  0  0
 12 68  1  0  0  0  0
 13 14  1  0  0  0  0
 13 69  1  0  0  0  0
 13 70  1  0  0  0  0
 14 15  1  0  0  0  0
 14 71  1  0  0  0  0
 14 72  1  0  0  0  0
 15 16  2  0  0  0  0
 15 73  1  0  0  0  0
 16 17  1  0  0  0  0
 16 74  1  0  0  0  0
 17 18  1  0  0  0  0
 17 19  1  0  0  0  0
 17 75  1  1  0  0  0
 18 19  1  0  0  0  0
 18 76  1  0  0  0  0
 18 77  1  0  0  0  0
 19 20  1  0  0  0  0
 19 43  1  6  0  0  0
 20 21  1  0  0  0  0
 20 78  1  0  0  0  0
 21 23  1  0  0  0  0
 21 22  2  0  0  0  0
 23 24  1  0  0  0  0
 23 27  1  0  0  0  0
 23 79  1  1  0  0  0
 24 25  1  0  0  0  0
 24 80  1  0  0  0  0
 24 81  1  0  0  0  0
 25 26  1  0  0  0  0
 25 82  1  6  0  0  0
 25 30  1  0  0  0  0
 26 27  1  0  0  0  0
 26 83  1  0  0  0  0
 26 84  1  0  0  0  0
 27 28  1  0  0  0  0
 28 29  2  0  0  0  0
 30 31  1  0  0  0  0
 31 32  2  0  0  0  0
 31 33  1  0  0  0  0
 33 34  1  0  0  0  0
 33 41  1  0  0  0  0
 34 35  1  0  0  0  0
 34 85  1  0  0  0  0
 34 86  1  0  0  0  0
 35 36  2  0  0  0  0
 35 40  1  0  0  0  0
 36 37  1  0  0  0  0
 36 87  1  0  0  0  0
 37 38  2  0  0  0  0
 37 88  1  0  0  0  0
 38 39  1  0  0  0  0
 38 89  1  0  0  0  0
 39 40  2  0  0  0  0
 39 42  1  0  0  0  0
 40 41  1  0  0  0  0
 41 90  1  0  0  0  0
 41 91  1  0  0  0  0
 43 44  2  0  0  0  0
 43 45  1  0  0  0  0
 45 46  1  0  0  0  0
 45 92  1  0  0  0  0
 46 47  2  0  0  0  0
 46 48  2  0  0  0  0
 46 49  1  0  0  0  0
 49 50  1  0  0  0  0
 49 51  1  0  0  0  0
 49 93  1  0  0  0  0
 50 51  1  0  0  0  0
 50 94  1  0  0  0  0
 50 95  1  0  0  0  0
 51 96  1  0  0  0  0
 51 97  1  0  0  0  0
M  END
>  <DRUGBANK_ID>
DB11779

>  <SECONDARY_ACCESSION_NUMBERS>
DB06038

>  <COMMON_NAME>
Danoprevir

>  <CAS_NUMBER>
850876-88-9

>  <UNII>
911Z9PCQ5F

>  <SYNONYMS>
Danoprevir

$$$$
