
 OpenBabel10282417183D

 48 51  0  0  1  0  0  0  0  0999 V2000
    1.1911   -0.1115   -0.0211 C   0  0  0  0  0  0  0  0  0  0  0  0
    0.4526   -0.3634   -1.6104 S   0  0  0  0  0  0  0  0  0  0  0  0
    1.0999   -1.5161   -2.1857 O   0  0  0  0  0  0  0  0  0  0  0  0
   -1.0022   -0.3251   -1.5008 O   0  0  0  0  0  0  0  0  0  0  0  0
    0.9055    1.1000   -2.5321 C   0  0  0  0  0  0  0  0  0  0  0  0
    1.6984    0.8245   -3.6849 C   0  0  0  0  0  0  0  0  0  0  0  0
    2.0325    1.8138   -4.5849 C   0  0  0  0  0  0  0  0  0  0  0  0
    1.6020    3.1060   -4.3845 C   0  0  0  0  0  0  0  0  0  0  0  0
    0.8485    3.4264   -3.2368 C   0  0  0  0  0  0  0  0  0  0  0  0
    0.4878    2.4567   -2.2688 C   0  0  0  0  0  0  0  0  0  0  0  0
   -0.2666    3.1520   -1.2341 N   0  0  0  0  0  0  0  0  0  0  0  0
   -0.3348    4.5186   -1.6240 C   0  0  0  0  0  0  0  0  0  0  0  0
    0.3091    4.6383   -2.8336 C   0  0  0  0  0  0  0  0  0  0  0  0
    0.2859    5.9920   -3.4334 C   0  0  0  0  0  0  0  0  0  0  0  0
   -0.1636    6.8506   -2.2589 C   0  0  0  0  0  0  0  0  0  0  0  0
   -0.9596    5.9034   -1.2797 C   0  0  2  0  0  0  0  0  0  0  0  0
   -0.7419    6.5817    0.0473 C   0  0  0  0  0  0  0  0  0  0  0  0
   -1.5616    7.7785    0.3935 C   0  0  0  0  0  0  0  0  0  0  0  0
   -2.4708    7.7720    1.2095 O   0  0  0  0  0  0  0  0  0  0  0  0
   -1.1894    8.9109   -0.2001 O   0  0  0  0  0  0  0  0  0  0  0  0
   -0.9031    2.4807   -0.0385 C   0  0  0  0  0  0  0  0  0  0  0  0
   -0.3633    2.8845    1.3331 C   0  0  0  0  0  0  0  0  0  0  0  0
   -0.7036    4.1545    1.6889 C   0  0  0  0  0  0  0  0  0  0  0  0
   -0.0432    4.9138    2.6544 C   0  0  0  0  0  0  0  0  0  0  0  0
    0.6968    4.2469    3.5916 C   0  0  0  0  0  0  0  0  0  0  0  0
    0.7366    2.8607    3.5187 C   0  0  0  0  0  0  0  0  0  0  0  0
    0.2644    2.1848    2.3617 C   0  0  0  0  0  0  0  0  0  0  0  0
    1.4349    5.1231    4.8675 Cl  0  0  0  0  0  0  0  0  0  0  0  0
    2.7583    1.5233   -5.6737 F   0  0  0  0  0  0  0  0  0  0  0  0
    0.7540   -0.8204    0.6845 H   0  0  0  0  0  0  0  0  0  0  0  0
    1.0045    0.8966    0.3062 H   0  0  0  0  0  0  0  0  0  0  0  0
    2.2718   -0.2149   -0.0808 H   0  0  0  0  0  0  0  0  0  0  0  0
    2.0477   -0.1818   -3.9178 H   0  0  0  0  0  0  0  0  0  0  0  0
    1.8512    3.8711   -5.1149 H   0  0  0  0  0  0  0  0  0  0  0  0
   -0.4398    6.0641   -4.2474 H   0  0  0  0  0  0  0  0  0  0  0  0
    1.2703    6.3102   -3.7886 H   0  0  0  0  0  0  0  0  0  0  0  0
   -0.7468    7.7250   -2.5629 H   0  0  0  0  0  0  0  0  0  0  0  0
    0.7402    7.2368   -1.7590 H   0  0  0  0  0  0  0  0  0  0  0  0
   -2.0193    5.9049   -1.5658 H   0  0  0  0  0  0  0  0  0  0  0  0
   -1.2286    5.9930    0.7628 H   0  0  0  0  0  0  0  0  0  0  0  0
    0.3063    6.6674    0.3527 H   0  0  0  0  0  0  0  0  0  0  0  0
   -1.8153    9.5585    0.1884 H   0  0  0  0  0  0  0  0  0  0  0  0
   -1.9809    2.6737   -0.1127 H   0  0  0  0  0  0  0  0  0  0  0  0
   -0.8333    1.4118   -0.1346 H   0  0  0  0  0  0  0  0  0  0  0  0
   -1.5745    4.4793    1.1393 H   0  0  0  0  0  0  0  0  0  0  0  0
   -0.1562    5.9938    2.6978 H   0  0  0  0  0  0  0  0  0  0  0  0
    1.1267    2.3043    4.3652 H   0  0  0  0  0  0  0  0  0  0  0  0
    0.3681    1.1060    2.3466 H   0  0  0  0  0  0  0  0  0  0  0  0
  1  2  1  0  0  0  0
  1 30  1  0  0  0  0
  1 31  1  0  0  0  0
  1 32  1  0  0  0  0
  2  3  2  0  0  0  0
  2  4  2  0  0  0  0
  2  5  1  0  0  0  0
  5  6  1  0  0  0  0
  5 10  2  0  0  0  0
  6  7  2  0  0  0  0
  6 33  1  0  0  0  0
  7  8  1  0  0  0  0
  7 29  1  0  0  0  0
  8  9  2  0  0  0  0
  8 34  1  0  0  0  0
  9 10  1  0  0  0  0
  9 13  1  0  0  0  0
 10 11  1  0  0  0  0
 11 12  1  0  0  0  0
 11 21  1  0  0  0  0
 12 13  2  0  0  0  0
 12 16  1  0  0  0  0
 13 14  1  0  0  0  0
 14 15  1  0  0  0  0
 14 35  1  0  0  0  0
 14 36  1  0  0  0  0
 15 16  1  0  0  0  0
 15 37  1  0  0  0  0
 15 38  1  0  0  0  0
 16 39  1  6  0  0  0
 16 17  1  0  0  0  0
 17 18  1  0  0  0  0
 17 40  1  0  0  0  0
 17 41  1  0  0  0  0
 18 19  2  0  0  0  0
 18 20  1  0  0  0  0
 20 42  1  0  0  0  0
 21 22  1  0  0  0  0
 21 43  1  0  0  0  0
 21 44  1  0  0  0  0
 22 23  2  0  0  0  0
 22 27  1  0  0  0  0
 23 24  1  0  0  0  0
 23 45  1  0  0  0  0
 24 25  2  0  0  0  0
 24 46  1  0  0  0  0
 25 26  1  0  0  0  0
 25 28  1  0  0  0  0
 26 27  2  0  0  0  0
 26 47  1  0  0  0  0
 27 48  1  0  0  0  0
M  END
>  <DRUGBANK_ID>
DB11629

>  <COMMON_NAME>
Laropiprant

>  <CAS_NUMBER>
571170-77-9

>  <UNII>
G7N11T8O78

>  <SYNONYMS>
Laropiprant

$$$$
