
 OpenBabel10282417123D

 28 27  0  0  0  0  0  0  0  0999 V2000
    0.9396   -0.1569    0.1052 C   0  0  0  0  0  0  0  0  0  0  0  0
    0.4740   -0.7552   -1.1587 O   0  0  0  0  0  0  0  0  0  0  0  0
    0.3934   -0.9554    1.2770 C   0  0  0  0  0  0  0  0  0  0  0  0
    0.5842    1.3250    0.3621 C   0  0  0  0  0  0  0  0  0  0  0  0
    1.0507    0.0594   -2.5718 P   0  0  0  0  0  0  0  0  0  0  0  0
    0.2147    1.4243   -2.2199 O   0  0  0  0  0  0  0  0  0  0  0  0
    2.4869    0.1476   -2.0404 O   0  0  0  0  0  0  0  0  0  0  0  0
   -1.1436    1.6183   -2.5843 C   0  0  0  0  0  0  0  0  0  0  0  0
   -1.2741    1.7619   -4.0876 C   0  0  0  0  0  0  0  0  0  0  0  0
   -2.0275    0.5085   -2.0445 C   0  0  0  0  0  0  0  0  0  0  0  0
    1.6607    0.9210   -4.0666 C   0  0  0  0  0  0  0  0  0  0  0  0
    2.0300   -0.2485    0.1458 H   0  0  0  0  0  0  0  0  0  0  0  0
    0.7386   -0.5229    2.2248 H   0  0  0  0  0  0  0  0  0  0  0  0
   -0.7001   -0.9542    1.2743 H   0  0  0  0  0  0  0  0  0  0  0  0
    0.7362   -1.9906    1.2288 H   0  0  0  0  0  0  0  0  0  0  0  0
    0.8533    1.6385    1.3765 H   0  0  0  0  0  0  0  0  0  0  0  0
    1.1352    2.0062   -0.2947 H   0  0  0  0  0  0  0  0  0  0  0  0
   -0.4852    1.5184    0.2382 H   0  0  0  0  0  0  0  0  0  0  0  0
   -1.4408    2.5640   -2.1216 H   0  0  0  0  0  0  0  0  0  0  0  0
   -1.0241    0.8220   -4.5844 H   0  0  0  0  0  0  0  0  0  0  0  0
   -2.2956    2.0260   -4.3768 H   0  0  0  0  0  0  0  0  0  0  0  0
   -0.5938    2.5340   -4.4618 H   0  0  0  0  0  0  0  0  0  0  0  0
   -1.9791    0.4646   -0.9536 H   0  0  0  0  0  0  0  0  0  0  0  0
   -3.0715    0.6656   -2.3327 H   0  0  0  0  0  0  0  0  0  0  0  0
   -1.7091   -0.4673   -2.4183 H   0  0  0  0  0  0  0  0  0  0  0  0
    1.7825    1.9996   -3.9234 H   0  0  0  0  0  0  0  0  0  0  0  0
    2.6405    0.5191   -4.3543 H   0  0  0  0  0  0  0  0  0  0  0  0
    1.0188    0.7294   -4.9275 H   0  0  0  0  0  0  0  0  0  0  0  0
  1  2  1  0  0  0  0
  1  3  1  0  0  0  0
  1  4  1  0  0  0  0
  1 12  1  0  0  0  0
  2  5  1  0  0  0  0
  3 13  1  0  0  0  0
  3 14  1  0  0  0  0
  3 15  1  0  0  0  0
  4 16  1  0  0  0  0
  4 17  1  0  0  0  0
  4 18  1  0  0  0  0
  5  6  1  0  0  0  0
  5  7  2  0  0  0  0
  5 11  1  0  0  0  0
  6  8  1  0  0  0  0
  8  9  1  0  0  0  0
  8 10  1  0  0  0  0
  8 19  1  0  0  0  0
  9 20  1  0  0  0  0
  9 21  1  0  0  0  0
  9 22  1  0  0  0  0
 10 23  1  0  0  0  0
 10 24  1  0  0  0  0
 10 25  1  0  0  0  0
 11 26  1  0  0  0  0
 11 27  1  0  0  0  0
 11 28  1  0  0  0  0
M  END
>  <DRUGBANK_ID>
DB02127

>  <SECONDARY_ACCESSION_NUMBERS>
EXPT01207

>  <COMMON_NAME>
Diisopropyl methylphosphonate

>  <CAS_NUMBER>
1445-75-6

>  <UNII>
56V3OG5DC7

>  <SYNONYMS>
Diisopropyl methanephosphonate; Diisopropyl methylphosphonate; DIMP; Methylphosphonic acid bis(1-methylethyl)ester

$$$$
