
 OpenBabel10282417193D

 73 76  0  0  0  0  0  0  0  0999 V2000
    1.1426    0.0843    0.2564 O   0  0  0  0  0  0  0  0  0  0  0  0
    2.6093    0.0588    0.2259 S   0  0  0  0  0  0  0  0  0  0  0  0
    3.1567    1.7237   -0.1275 C   0  0  0  0  0  0  0  0  0  0  0  0
    2.2643    2.7889   -0.0296 C   0  0  0  0  0  0  0  0  0  0  0  0
    2.7015    4.0814   -0.3247 C   0  0  0  0  0  0  0  0  0  0  0  0
    4.0285    4.3145   -0.7100 C   0  0  0  0  0  0  0  0  0  0  0  0
    4.9519    3.2633   -0.7740 C   0  0  0  0  0  0  0  0  0  0  0  0
    6.2893    3.5356   -1.1990 N   0  0  0  0  0  0  0  0  0  0  0  0
    7.3113    2.5422   -1.2743 C   0  0  0  0  0  0  0  0  0  0  0  0
    7.2070    1.6572   -2.3336 C   0  0  0  0  0  0  0  0  0  0  0  0
    6.1999    1.7743   -3.4369 C   0  0  0  0  0  0  0  0  0  0  0  0
    8.1070    0.6310   -2.2815 C   0  0  0  0  0  0  0  0  0  0  0  0
    9.0150    0.4672   -1.2832 N   0  0  0  0  0  0  0  0  0  0  0  0
    9.1138    1.3663   -0.2933 C   0  0  0  0  0  0  0  0  0  0  0  0
   10.0007    1.1804    0.8563 N   0  0  0  0  0  0  0  0  0  0  0  0
   11.2529    0.4883    1.1082 C   0  0  0  0  0  0  0  0  0  0  0  0
   12.4766    0.7732    0.4661 C   0  0  0  0  0  0  0  0  0  0  0  0
   13.6316   -0.2161    0.4225 C   0  0  0  0  0  0  0  0  0  0  0  0
   13.5524   -1.4843    0.9752 C   0  0  0  0  0  0  0  0  0  0  0  0
   14.1532   -2.6353    0.4335 O   0  0  0  0  0  0  0  0  0  0  0  0
   14.7599   -2.7786   -0.9372 C   0  0  0  0  0  0  0  0  0  0  0  0
   13.9208   -3.1248   -2.2838 C   0  0  0  0  0  0  0  0  0  0  0  0
   12.7258   -2.4244   -2.7773 N   0  0  0  0  0  0  0  0  0  0  0  0
   12.8041   -1.0546   -3.3462 C   0  0  0  0  0  0  0  0  0  0  0  0
   12.7006   -0.1164   -2.2149 C   0  0  0  0  0  0  0  0  0  0  0  0
   11.6956   -0.9737   -1.4148 C   0  0  0  0  0  0  0  0  0  0  0  0
   11.8321   -2.4222   -1.6503 C   0  0  0  0  0  0  0  0  0  0  0  0
   12.4870   -1.6138    1.8862 C   0  0  0  0  0  0  0  0  0  0  0  0
   11.3500   -0.6647    1.9246 C   0  0  0  0  0  0  0  0  0  0  0  0
    8.2677    2.4348   -0.2886 N   0  0  0  0  0  0  0  0  0  0  0  0
    4.4791    1.9559   -0.5353 C   0  0  0  0  0  0  0  0  0  0  0  0
    3.3531   -0.3876    1.3604 O   0  0  0  0  0  0  0  0  0  0  0  0
    3.0877   -0.8877   -1.1050 N   0  0  0  0  0  0  0  0  0  0  0  0
    2.5552   -0.7022   -2.4837 C   0  0  0  0  0  0  0  0  0  0  0  0
    2.9913    0.6490   -2.9972 C   0  0  0  0  0  0  0  0  0  0  0  0
    3.1542   -1.7633   -3.4286 C   0  0  0  0  0  0  0  0  0  0  0  0
    1.0391   -0.7830   -2.5406 C   0  0  0  0  0  0  0  0  0  0  0  0
    1.2265    2.6168    0.2481 H   0  0  0  0  0  0  0  0  0  0  0  0
    2.0068    4.9144   -0.2457 H   0  0  0  0  0  0  0  0  0  0  0  0
    4.3297    5.3269   -0.9720 H   0  0  0  0  0  0  0  0  0  0  0  0
    6.6429    4.3904   -0.7840 H   0  0  0  0  0  0  0  0  0  0  0  0
    6.6411    2.0462   -4.3951 H   0  0  0  0  0  0  0  0  0  0  0  0
    5.7268    0.8018   -3.5691 H   0  0  0  0  0  0  0  0  0  0  0  0
    5.4090    2.5108   -3.2438 H   0  0  0  0  0  0  0  0  0  0  0  0
    8.0993   -0.1415   -3.0506 H   0  0  0  0  0  0  0  0  0  0  0  0
    9.9758    2.0940    1.2962 H   0  0  0  0  0  0  0  0  0  0  0  0
   12.3478    1.4702   -0.3728 H   0  0  0  0  0  0  0  0  0  0  0  0
   14.3701   -0.2053   -0.3716 H   0  0  0  0  0  0  0  0  0  0  0  0
   15.4896   -1.9918   -1.1359 H   0  0  0  0  0  0  0  0  0  0  0  0
   15.3767   -3.6992   -0.8451 H   0  0  0  0  0  0  0  0  0  0  0  0
   14.5979   -3.2272   -3.1412 H   0  0  0  0  0  0  0  0  0  0  0  0
   13.5431   -4.1523   -2.1368 H   0  0  0  0  0  0  0  0  0  0  0  0
   11.8912   -0.8081   -3.9022 H   0  0  0  0  0  0  0  0  0  0  0  0
   13.6684   -0.8263   -3.9720 H   0  0  0  0  0  0  0  0  0  0  0  0
   13.7442    0.0957   -1.9513 H   0  0  0  0  0  0  0  0  0  0  0  0
   12.3448    0.9039   -2.4374 H   0  0  0  0  0  0  0  0  0  0  0  0
   11.7413   -1.0400   -0.3702 H   0  0  0  0  0  0  0  0  0  0  0  0
   10.6892   -0.6655   -1.5704 H   0  0  0  0  0  0  0  0  0  0  0  0
   12.2455   -2.9353   -0.7670 H   0  0  0  0  0  0  0  0  0  0  0  0
   10.8588   -2.9023   -1.7334 H   0  0  0  0  0  0  0  0  0  0  0  0
   12.4003   -2.5393    2.4513 H   0  0  0  0  0  0  0  0  0  0  0  0
   10.4592   -0.9787    2.4636 H   0  0  0  0  0  0  0  0  0  0  0  0
    5.1180    1.0979   -0.7156 H   0  0  0  0  0  0  0  0  0  0  0  0
    4.0674   -1.1700   -1.0134 H   0  0  0  0  0  0  0  0  0  0  0  0
    4.0543    0.6966   -2.8332 H   0  0  0  0  0  0  0  0  0  0  0  0
    2.7822    0.8176   -4.0535 H   0  0  0  0  0  0  0  0  0  0  0  0
    2.5250    1.4673   -2.4563 H   0  0  0  0  0  0  0  0  0  0  0  0
    2.8275   -2.7773   -3.1773 H   0  0  0  0  0  0  0  0  0  0  0  0
    2.8404   -1.5648   -4.4630 H   0  0  0  0  0  0  0  0  0  0  0  0
    4.2513   -1.7537   -3.4229 H   0  0  0  0  0  0  0  0  0  0  0  0
    0.6758   -1.7564   -2.2005 H   0  0  0  0  0  0  0  0  0  0  0  0
    0.5714   -0.0039   -1.9374 H   0  0  0  0  0  0  0  0  0  0  0  0
    0.6878   -0.6062   -3.5621 H   0  0  0  0  0  0  0  0  0  0  0  0
  2  1  2  0  0  0  0
  2 32  2  0  0  0  0
  3  2  1  0  0  0  0
  3  4  1  0  0  0  0
  3 31  2  0  0  0  0
  4 38  1  0  0  0  0
  5  4  2  0  0  0  0
  5 39  1  0  0  0  0
  6  5  1  0  0  0  0
  6 40  1  0  0  0  0
  7  6  2  0  0  0  0
  8  7  1  0  0  0  0
  8 41  1  0  0  0  0
  9  8  1  0  0  0  0
  9 10  1  0  0  0  0
 10 12  2  0  0  0  0
 11 10  1  0  0  0  0
 11 42  1  0  0  0  0
 11 43  1  0  0  0  0
 11 44  1  0  0  0  0
 12 45  1  0  0  0  0
 13 12  1  0  0  0  0
 13 14  2  0  0  0  0
 14 30  1  0  0  0  0
 15 14  1  0  0  0  0
 15 46  1  0  0  0  0
 16 15  1  0  0  0  0
 16 17  1  0  0  0  0
 16 29  2  0  0  0  0
 17 47  1  0  0  0  0
 18 17  2  0  0  0  0
 18 48  1  0  0  0  0
 19 18  1  0  0  0  0
 20 19  1  0  0  0  0
 21 20  1  0  0  0  0
 21 22  1  0  0  0  0
 21 49  1  0  0  0  0
 21 50  1  0  0  0  0
 22 51  1  0  0  0  0
 22 52  1  0  0  0  0
 23 22  1  0  0  0  0
 23 24  1  0  0  0  0
 23 27  1  0  0  0  0
 24 53  1  0  0  0  0
 24 54  1  0  0  0  0
 25 24  1  0  0  0  0
 25 55  1  0  0  0  0
 25 56  1  0  0  0  0
 26 25  1  0  0  0  0
 26 57  1  0  0  0  0
 26 58  1  0  0  0  0
 27 26  1  0  0  0  0
 27 59  1  0  0  0  0
 27 60  1  0  0  0  0
 28 19  2  0  0  0  0
 28 61  1  0  0  0  0
 29 28  1  0  0  0  0
 29 62  1  0  0  0  0
 30  9  2  0  0  0  0
 31  7  1  0  0  0  0
 31 63  1  0  0  0  0
 33  2  1  0  0  0  0
 33 64  1  0  0  0  0
 34 33  1  0  0  0  0
 34 35  1  0  0  0  0
 34 36  1  0  0  0  0
 34 37  1  0  0  0  0
 35 65  1  0  0  0  0
 35 66  1  0  0  0  0
 35 67  1  0  0  0  0
 36 68  1  0  0  0  0
 36 69  1  0  0  0  0
 36 70  1  0  0  0  0
 37 71  1  0  0  0  0
 37 72  1  0  0  0  0
 37 73  1  0  0  0  0
M  END
>  <DRUGBANK_ID>
DB12500

>  <SECONDARY_ACCESSION_NUMBERS>
DB06165

>  <COMMON_NAME>
Fedratinib

>  <CAS_NUMBER>
936091-26-8

>  <UNII>
6L1XP550I6

>  <SYNONYMS>
Fedratinib

$$$$
