
 OpenBabel10282417243D

 60 63  0  0  1  0  0  0  0  0999 V2000
    2.4025    0.3918    0.5698 C   0  0  0  0  0  0  0  0  0  0  0  0
    1.1086    0.3296   -0.2143 C   0  0  2  0  0  0  0  0  0  0  0  0
    0.1026    1.4137    0.2076 C   0  0  0  0  0  0  0  0  0  0  0  0
   -1.3149    1.1453   -0.3772 C   0  0  1  0  0  0  0  0  0  0  0  0
   -1.3516    0.9487   -1.9554 C   0  0  0  0  0  0  0  0  0  0  0  0
   -0.7074   -0.2680   -2.6409 C   0  0  0  0  0  0  0  0  0  0  0  0
    0.4985   -0.0719   -3.2567 N   0  0  0  0  0  0  0  0  0  0  0  0
    1.3035   -1.1461   -3.5182 C   0  0  0  0  0  0  0  0  0  0  0  0
    2.6640   -0.9510   -3.9018 N   0  0  0  0  0  0  0  0  0  0  0  0
    3.0902    0.2385   -4.3872 C   0  0  0  0  0  0  0  0  0  0  0  0
    3.3635    1.3460   -3.5592 C   0  0  0  0  0  0  0  0  0  0  0  0
    3.7231    2.3649   -4.4089 C   0  0  0  0  0  0  0  0  0  0  0  0
    4.1030    3.7677   -4.1477 C   0  0  0  0  0  0  0  0  0  0  0  0
    3.6611    1.8215   -5.6629 N   0  0  0  0  0  0  0  0  0  0  0  0
    3.3599    0.5079   -5.6671 N   0  0  0  0  0  0  0  0  0  0  0  0
    0.8948   -2.4468   -3.2117 C   0  0  0  0  0  0  0  0  0  0  0  0
   -0.3827   -2.6488   -2.6889 C   0  0  0  0  0  0  0  0  0  0  0  0
   -1.2042   -1.5546   -2.4459 C   0  0  0  0  0  0  0  0  0  0  0  0
   -2.3583   -1.7728   -1.8057 F   0  0  0  0  0  0  0  0  0  0  0  0
   -1.8303   -0.1138    0.3377 C   0  0  0  0  0  0  0  0  0  0  0  0
   -0.7380   -1.1420    0.5749 C   0  0  0  0  0  0  0  0  0  0  0  0
    0.4932   -1.0030   -0.1918 N   0  0  0  0  0  0  0  0  0  0  0  0
    1.3459   -2.2021   -0.2342 C   0  0  0  0  0  0  0  0  0  0  0  0
    1.9737   -2.5743    1.0631 C   0  0  0  0  0  0  0  0  0  0  0  0
    3.3533   -2.4298    1.2210 C   0  0  0  0  0  0  0  0  0  0  0  0
    3.8721   -2.3593    2.5015 C   0  0  0  0  0  0  0  0  0  0  0  0
    3.0208   -2.4810    3.6056 C   0  0  0  0  0  0  0  0  0  0  0  0
    1.6640   -2.7363    3.4333 C   0  0  0  0  0  0  0  0  0  0  0  0
    0.5923   -2.8014    4.7745 Cl  0  0  0  0  0  0  0  0  0  0  0  0
    1.1640   -2.8662    2.1591 C   0  0  0  0  0  0  0  0  0  0  0  0
   -0.1292   -3.1796    1.9840 F   0  0  0  0  0  0  0  0  0  0  0  0
   -2.2792    2.2599    0.0840 C   0  0  0  0  0  0  0  0  0  0  0  0
   -2.4487    3.3172   -0.7248 O   0  0  0  0  0  0  0  0  0  0  0  0
   -2.8804    2.2401    1.1656 O   0  0  0  0  0  0  0  0  0  0  0  0
    2.2382    0.0234    1.5844 H   0  0  0  0  0  0  0  0  0  0  0  0
    3.1464   -0.2150    0.0433 H   0  0  0  0  0  0  0  0  0  0  0  0
    2.8379    1.3868    0.6344 H   0  0  0  0  0  0  0  0  0  0  0  0
    1.4146    0.5856   -1.2301 H   0  0  0  0  0  0  0  0  0  0  0  0
    0.0519    1.4206    1.3085 H   0  0  0  0  0  0  0  0  0  0  0  0
    0.4701    2.4060   -0.0772 H   0  0  0  0  0  0  0  0  0  0  0  0
   -2.3993    0.9664   -2.2753 H   0  0  0  0  0  0  0  0  0  0  0  0
   -0.8815    1.8381   -2.3970 H   0  0  0  0  0  0  0  0  0  0  0  0
    2.9666   -1.7400   -4.4603 H   0  0  0  0  0  0  0  0  0  0  0  0
    3.2960    1.3821   -2.4839 H   0  0  0  0  0  0  0  0  0  0  0  0
    5.1184    3.9648   -4.5041 H   0  0  0  0  0  0  0  0  0  0  0  0
    3.4158    4.4593   -4.6444 H   0  0  0  0  0  0  0  0  0  0  0  0
    4.0759    3.9801   -3.0733 H   0  0  0  0  0  0  0  0  0  0  0  0
    3.8356    2.2813   -6.5511 H   0  0  0  0  0  0  0  0  0  0  0  0
    1.5987   -3.2758   -3.2294 H   0  0  0  0  0  0  0  0  0  0  0  0
   -0.6584   -3.6061   -2.2482 H   0  0  0  0  0  0  0  0  0  0  0  0
   -2.2118    0.1027    1.3457 H   0  0  0  0  0  0  0  0  0  0  0  0
   -2.7174   -0.5032   -0.1703 H   0  0  0  0  0  0  0  0  0  0  0  0
   -0.4848   -1.0450    1.6312 H   0  0  0  0  0  0  0  0  0  0  0  0
   -1.1911   -2.1231    0.3943 H   0  0  0  0  0  0  0  0  0  0  0  0
    0.7903   -3.0906   -0.5468 H   0  0  0  0  0  0  0  0  0  0  0  0
    2.1302   -2.0598   -0.9890 H   0  0  0  0  0  0  0  0  0  0  0  0
    3.9892   -2.2272    0.3582 H   0  0  0  0  0  0  0  0  0  0  0  0
    4.9257   -2.1346    2.6304 H   0  0  0  0  0  0  0  0  0  0  0  0
    3.4217   -2.3793    4.6052 H   0  0  0  0  0  0  0  0  0  0  0  0
   -1.9313    3.3558   -1.5459 H   0  0  0  0  0  0  0  0  0  0  0  0
  1 35  1  0  0  0  0
  1 36  1  0  0  0  0
  1 37  1  0  0  0  0
  2  1  1  0  0  0  0
  2  3  1  0  0  0  0
  2 22  1  0  0  0  0
  2 38  1  6  0  0  0
  3 39  1  0  0  0  0
  3 40  1  0  0  0  0
  4  3  1  0  0  0  0
  4 20  1  0  0  0  0
  4 32  1  1  0  0  0
  4  5  1  0  0  0  0
  5  6  1  0  0  0  0
  5 41  1  0  0  0  0
  5 42  1  0  0  0  0
  6  7  2  0  0  0  0
  6 18  1  0  0  0  0
  7  8  1  0  0  0  0
  8  9  1  0  0  0  0
  8 16  2  0  0  0  0
  9 10  1  0  0  0  0
  9 43  1  0  0  0  0
 10 11  1  0  0  0  0
 10 15  2  0  0  0  0
 11 12  2  0  0  0  0
 11 44  1  0  0  0  0
 12 13  1  0  0  0  0
 12 14  1  0  0  0  0
 13 45  1  0  0  0  0
 13 46  1  0  0  0  0
 13 47  1  0  0  0  0
 14 15  1  0  0  0  0
 14 48  1  0  0  0  0
 16 17  1  0  0  0  0
 16 49  1  0  0  0  0
 17 18  2  0  0  0  0
 17 50  1  0  0  0  0
 18 19  1  0  0  0  0
 20 21  1  0  0  0  0
 20 51  1  0  0  0  0
 20 52  1  0  0  0  0
 21 22  1  0  0  0  0
 21 53  1  0  0  0  0
 21 54  1  0  0  0  0
 22 23  1  0  0  0  0
 23 24  1  0  0  0  0
 23 55  1  0  0  0  0
 23 56  1  0  0  0  0
 24 25  2  0  0  0  0
 24 30  1  0  0  0  0
 25 26  1  0  0  0  0
 25 57  1  0  0  0  0
 26 27  2  0  0  0  0
 26 58  1  0  0  0  0
 27 28  1  0  0  0  0
 27 59  1  0  0  0  0
 28 29  1  0  0  0  0
 28 30  2  0  0  0  0
 30 31  1  0  0  0  0
 32 33  1  0  0  0  0
 32 34  2  0  0  0  0
 33 60  1  0  0  0  0
M  END
>  <DRUGBANK_ID>
DB18019

>  <COMMON_NAME>
LY3295668

>  <CAS_NUMBER>
1919888-06-4

>  <UNII>
1WX8O5XV4R

>  <SYNONYMS>
1-((3-chloro-2-fluorophenyl)methyl)-4-((3-fluoro-6-((5-methyl-1h-pyrazol-3-yl)amino)-2-pyridinyl)methyl)-2-methyl-, (2r,4r)-,4-piperidinecarboxylic acid; 4-piperidinecarboxylic acid, 1-((3-chloro-2-fluorophenyl)methyl)-4-((3-fluoro-6-((5-methyl-1h-pyrazol-3-yl)amino)-2-pyridinyl)methyl)-2-methyl-, (2r,4r)-; Aurora a kinase inhibitor ly3295668

$$$$
