1589
 OpenBabel10282417123D

 36 38  0  0  0  0  0  0  0  0999 V2000
    1.0889   -0.0642   -0.0473 Cl  0  0  0  0  0  0  0  0  0  0  0  0
    9.5779    1.0477   -0.3774 S   0  0  0  0  0  0  0  0  0  0  0  0
    9.4791   -1.8114   -0.9403 F   0  0  0  0  0  0  0  0  0  0  0  0
    8.8649   -3.3477    0.4629 F   0  0  0  0  0  0  0  0  0  0  0  0
    7.5664   -2.8089   -1.2006 F   0  0  0  0  0  0  0  0  0  0  0  0
    5.1026    1.7440    2.8636 F   0  0  0  0  0  0  0  0  0  0  0  0
    7.0913   -0.1184   -0.0706 N   0  0  0  0  0  0  0  0  0  0  0  0
    6.5686    2.9142   -0.4832 N   0  0  0  0  0  0  0  0  0  0  0  0
    5.6461   -0.0536   -0.0942 C   0  0  0  0  0  0  0  0  0  0  0  0
    4.9138    1.1491    0.0135 C   0  0  0  0  0  0  0  0  0  0  0  0
    5.5526    2.4894    0.1807 C   0  0  0  0  0  0  0  0  0  0  0  0
    7.7048   -1.2902    0.6250 C   0  0  0  0  0  0  0  0  0  0  0  0
    7.9042    0.9121   -0.5846 C   0  0  0  0  0  0  0  0  0  0  0  0
    7.2136    1.9929   -1.4140 C   0  0  0  0  0  0  0  0  0  0  0  0
    4.9024   -1.2501   -0.1897 C   0  0  0  0  0  0  0  0  0  0  0  0
    3.5023    1.1330    0.0240 C   0  0  0  0  0  0  0  0  0  0  0  0
    4.9644    3.4192    1.1814 C   0  0  0  0  0  0  0  0  0  0  0  0
    8.4188   -2.3038   -0.2773 C   0  0  0  0  0  0  0  0  0  0  0  0
    3.5018   -1.2583   -0.1793 C   0  0  0  0  0  0  0  0  0  0  0  0
    2.8074   -0.0651   -0.0678 C   0  0  0  0  0  0  0  0  0  0  0  0
    4.7551    2.9844    2.4892 C   0  0  0  0  0  0  0  0  0  0  0  0
    4.6258    4.7261    0.8153 C   0  0  0  0  0  0  0  0  0  0  0  0
    4.1864    3.8324    3.4320 C   0  0  0  0  0  0  0  0  0  0  0  0
    4.1273    5.6025    1.7830 C   0  0  0  0  0  0  0  0  0  0  0  0
    3.9067    5.1552    3.0885 C   0  0  0  0  0  0  0  0  0  0  0  0
    8.3907   -0.9097    1.3908 H   0  0  0  0  0  0  0  0  0  0  0  0
    6.9385   -1.8258    1.1991 H   0  0  0  0  0  0  0  0  0  0  0  0
    6.5156    1.5639   -2.1408 H   0  0  0  0  0  0  0  0  0  0  0  0
    7.9534    2.5541   -1.9972 H   0  0  0  0  0  0  0  0  0  0  0  0
    5.3896   -2.2141   -0.3127 H   0  0  0  0  0  0  0  0  0  0  0  0
    2.9357    2.0577    0.1118 H   0  0  0  0  0  0  0  0  0  0  0  0
    2.9656   -2.2006   -0.2676 H   0  0  0  0  0  0  0  0  0  0  0  0
    4.7466    5.0609   -0.2124 H   0  0  0  0  0  0  0  0  0  0  0  0
    3.9765    3.4597    4.4293 H   0  0  0  0  0  0  0  0  0  0  0  0
    3.9104    6.6360    1.5210 H   0  0  0  0  0  0  0  0  0  0  0  0
    3.5211    5.8396    3.8407 H   0  0  0  0  0  0  0  0  0  0  0  0
  1 20  1  0  0  0  0
  2 13  2  0  0  0  0
  3 18  1  0  0  0  0
  4 18  1  0  0  0  0
  5 18  1  0  0  0  0
  6 21  1  0  0  0  0
  7  9  1  0  0  0  0
  7 12  1  0  0  0  0
  7 13  1  0  0  0  0
  8 11  2  0  0  0  0
  8 14  1  0  0  0  0
  9 10  2  0  0  0  0
  9 15  1  0  0  0  0
 10 11  1  0  0  0  0
 10 16  1  0  0  0  0
 11 17  1  0  0  0  0
 12 18  1  0  0  0  0
 12 26  1  0  0  0  0
 12 27  1  0  0  0  0
 13 14  1  0  0  0  0
 14 28  1  0  0  0  0
 14 29  1  0  0  0  0
 15 19  2  0  0  0  0
 15 30  1  0  0  0  0
 16 20  2  0  0  0  0
 16 31  1  0  0  0  0
 17 21  1  0  0  0  0
 17 22  2  0  0  0  0
 19 20  1  0  0  0  0
 19 32  1  0  0  0  0
 21 23  2  0  0  0  0
 22 24  1  0  0  0  0
 22 33  1  0  0  0  0
 23 25  1  0  0  0  0
 23 34  1  0  0  0  0
 24 25  2  0  0  0  0
 24 35  1  0  0  0  0
 25 36  1  0  0  0  0
M  END
>  <DRUGBANK_ID>
DB01589

>  <COMMON_NAME>
Quazepam

>  <CAS_NUMBER>
36735-22-5

>  <UNII>
JF8V0828ZI

>  <SYNONYMS>
Quazepam; Quazepamum

$$$$
