
 OpenBabel10282417183D

 31 31  0  0  0  0  0  0  0  0999 V2000
    0.6763    1.2965   -0.2389 C   0  0  2  0  0  0  0  0  0  0  0  0
    1.3590    0.0185    0.3188 C   0  0  2  0  0  0  0  0  0  0  0  0
    0.6767   -1.2484   -0.2502 C   0  0  0  0  0  0  0  0  0  0  0  0
   -0.8335   -1.2664   -0.0029 C   0  0  0  0  0  0  0  0  0  0  0  0
   -1.5161   -0.0057   -0.5333 C   0  0  1  0  0  0  0  0  0  0  0  0
   -0.8411    1.2748   -0.0198 C   0  0  0  0  0  0  0  0  0  0  0  0
    0.9232    1.4387   -1.6443 O   0  0  0  0  0  0  0  0  0  0  0  0
   -1.5470   -0.0461   -2.0542 C   0  0  0  0  0  0  0  0  0  0  0  0
    1.0314    1.2372    2.6361 C   0  0  0  0  0  0  0  0  0  0  0  0
    1.5526    0.0046    1.8862 C   0  0  0  0  0  0  0  0  0  0  0  0
    1.0376   -1.2393    2.6238 C   0  0  0  0  0  0  0  0  0  0  0  0
    1.1099    2.1994    0.1975 H   0  0  0  0  0  0  0  0  0  0  0  0
    2.3755    0.0012   -0.1077 H   0  0  0  0  0  0  0  0  0  0  0  0
    0.8598   -1.2992   -1.3312 H   0  0  0  0  0  0  0  0  0  0  0  0
    1.1437   -2.1620    0.1315 H   0  0  0  0  0  0  0  0  0  0  0  0
   -1.2688   -2.1647   -0.4555 H   0  0  0  0  0  0  0  0  0  0  0  0
   -1.0747   -1.3512    1.0556 H   0  0  0  0  0  0  0  0  0  0  0  0
   -2.5515   -0.0023   -0.1684 H   0  0  0  0  0  0  0  0  0  0  0  0
   -1.0863    1.3652    1.0382 H   0  0  0  0  0  0  0  0  0  0  0  0
   -1.2975    2.1522   -0.4930 H   0  0  0  0  0  0  0  0  0  0  0  0
    1.8667    1.5713   -1.7829 H   0  0  0  0  0  0  0  0  0  0  0  0
   -2.1169   -0.9124   -2.3962 H   0  0  0  0  0  0  0  0  0  0  0  0
   -1.9960    0.8666   -2.4507 H   0  0  0  0  0  0  0  0  0  0  0  0
   -0.5486   -0.1435   -2.4855 H   0  0  0  0  0  0  0  0  0  0  0  0
   -0.0585    1.2729    2.6440 H   0  0  0  0  0  0  0  0  0  0  0  0
    1.3250    1.2082    3.6885 H   0  0  0  0  0  0  0  0  0  0  0  0
    1.4215    2.1705    2.2233 H   0  0  0  0  0  0  0  0  0  0  0  0
    2.6413    0.0055    2.0391 H   0  0  0  0  0  0  0  0  0  0  0  0
    1.4227   -2.1678    2.1953 H   0  0  0  0  0  0  0  0  0  0  0  0
    1.3382   -1.2223    3.6747 H   0  0  0  0  0  0  0  0  0  0  0  0
   -0.0520   -1.2755    2.6445 H   0  0  0  0  0  0  0  0  0  0  0  0
  1 12  1  1  0  0  0
  1  7  1  0  0  0  0
  2  1  1  0  0  0  0
  2 13  1  6  0  0  0
  2 10  1  0  0  0  0
  3  2  1  0  0  0  0
  3 14  1  0  0  0  0
  3 15  1  0  0  0  0
  4  3  1  0  0  0  0
  4 16  1  0  0  0  0
  4 17  1  0  0  0  0
  5  4  1  0  0  0  0
  5  8  1  0  0  0  0
  5 18  1  1  0  0  0
  6  1  1  0  0  0  0
  6  5  1  0  0  0  0
  6 19  1  0  0  0  0
  6 20  1  0  0  0  0
  7 21  1  0  0  0  0
  8 22  1  0  0  0  0
  8 23  1  0  0  0  0
  8 24  1  0  0  0  0
  9 25  1  0  0  0  0
  9 26  1  0  0  0  0
  9 27  1  0  0  0  0
 10  9  1  0  0  0  0
 10 28  1  0  0  0  0
 11 10  1  0  0  0  0
 11 29  1  0  0  0  0
 11 30  1  0  0  0  0
 11 31  1  0  0  0  0
M  END
>  <DRUGBANK_ID>
DB11344

>  <COMMON_NAME>
(+)-menthol

>  <CAS_NUMBER>
15356-60-2

>  <UNII>
C6B1OE8P3W

>  <SYNONYMS>
(+)-(1S,2R,5S)-menthol; (+)-(1S,3S,4R)-menthol; (1S,2R,5S)-(+)-menthol; (1S,2R,5S)-menthol; D-menthol

$$$$
