
 OpenBabel10282417183D

119124  0  0  1  0  0  0  0  0999 V2000
   -4.0410   -2.1163    5.6672 C   0  0  0  0  0  0  0  0  0  0  0  0
   -4.9289   -2.9932    4.2296 C   0  0  0  0  0  0  0  0  0  0  0  0
   -6.3636   -3.4213    3.4825 C   0  0  0  0  0  0  0  0  0  0  0  0
   -7.9951   -3.7382    3.7666 C   0  0  2  0  0  0  0  0  0  0  0  0
   -8.2045   -3.6085    5.1711 C   0  0  0  0  0  0  0  0  0  0  0  0
   -8.4851   -4.5773    5.8638 O   0  0  0  0  0  0  0  0  0  0  0  0
   -8.0930   -2.1251    5.6047 C   0  0  2  0  0  0  0  0  0  0  0  0
   -7.5475   -2.2730    6.9616 C   0  0  2  0  0  0  0  0  0  0  0  0
   -7.4147   -0.7472    7.1513 C   0  0  0  0  0  0  0  0  0  0  0  0
   -5.9489   -0.4607    6.9332 C   0  0  2  0  0  0  0  0  0  0  0  0
   -5.8863    0.4630    5.6411 C   0  0  2  0  0  0  0  0  0  0  0  0
   -6.6157   -1.1000    5.0224 C   0  0  1  0  0  0  0  0  0  0  0  0
   -6.3176   -0.8726    3.6723 C   0  0  1  0  0  0  0  0  0  0  0  0
   -5.5805   -1.9148    2.1434 C   0  0  1  0  0  0  0  0  0  0  0  0
   -6.8803   -2.7192    1.8882 C   0  0  0  0  0  0  0  0  0  0  0  0
   -7.0889   -3.0341    0.3204 C   0  0  0  0  0  0  0  0  0  0  0  0
   -8.5894   -2.0404    1.7527 C   0  0  0  0  0  0  0  0  0  0  0  0
   -4.3327   -2.8711    2.1624 C   0  0  2  0  0  0  0  0  0  0  0  0
   -3.6707   -2.6597    3.4550 C   0  0  2  0  0  0  0  0  0  0  0  0
   -2.6876   -3.3891    4.2431 O   0  0  0  0  0  0  0  0  0  0  0  0
   -1.3666   -3.0081    4.2984 C   0  0  0  0  0  0  0  0  0  0  0  0
   -0.7143   -2.9176    5.3324 O   0  0  0  0  0  0  0  0  0  0  0  0
   -0.7941   -2.9188    2.9157 C   0  0  1  0  0  0  0  0  0  0  0  0
   -1.2408   -4.2062    2.1309 C   0  0  2  0  0  0  0  0  0  0  0  0
   -1.5287   -3.8984    0.6709 C   0  0  0  0  0  0  0  0  0  0  0  0
   -0.8576   -4.8268   -0.2851 C   0  0  0  0  0  0  0  0  0  0  0  0
   -1.4226   -6.2209   -0.0627 C   0  0  0  0  0  0  0  0  0  0  0  0
   -1.1731   -4.3560   -1.6969 C   0  0  0  0  0  0  0  0  0  0  0  0
   -2.3760   -5.0065    2.6568 N   0  0  0  0  0  0  0  0  0  0  0  0
   -2.4550   -6.1801    3.2931 C   0  0  0  0  0  0  0  0  0  0  0  0
   -3.5311   -6.4950    3.7873 O   0  0  0  0  0  0  0  0  0  0  0  0
   -1.3131   -6.8696    3.2360 O   0  0  0  0  0  0  0  0  0  0  0  0
   -1.3286   -8.2182    3.7150 C   0  0  0  0  0  0  0  0  0  0  0  0
   -1.5806   -8.2218    5.2185 C   0  0  0  0  0  0  0  0  0  0  0  0
   -2.3534   -9.0700    2.9599 C   0  0  0  0  0  0  0  0  0  0  0  0
    0.0674   -8.7854    3.4390 C   0  0  0  0  0  0  0  0  0  0  0  0
   -0.9438   -1.6396    2.3015 O   0  0  0  0  0  0  0  0  0  0  0  0
   -3.4824   -2.4966    1.0992 O   0  0  0  0  0  0  0  0  0  0  0  0
   -4.2954   -2.1177    0.1613 C   0  0  0  0  0  0  0  0  0  0  0  0
   -4.2308   -2.4036   -1.0888 O   0  0  0  0  0  0  0  0  0  0  0  0
   -5.1851   -1.3763    0.7695 O   0  0  0  0  0  0  0  0  0  0  0  0
   -7.6850    0.0410    3.7701 O   0  0  0  0  0  0  0  0  0  0  0  0
   -7.7510    1.4663    3.8184 C   0  0  0  0  0  0  0  0  0  0  0  0
   -8.4607    1.9650    4.6829 O   0  0  0  0  0  0  0  0  0  0  0  0
   -6.9709    2.4177    2.8451 C   0  0  0  0  0  0  0  0  0  0  0  0
   -6.8320    2.3004    1.4154 C   0  0  0  0  0  0  0  0  0  0  0  0
   -5.9215    2.9688    0.6283 C   0  0  0  0  0  0  0  0  0  0  0  0
   -5.4466    4.1193    1.1647 C   0  0  0  0  0  0  0  0  0  0  0  0
   -5.7112    4.4148    2.5104 C   0  0  0  0  0  0  0  0  0  0  0  0
   -6.3195    3.5002    3.3853 C   0  0  0  0  0  0  0  0  0  0  0  0
   -5.8414    1.4796    7.1988 C   0  0  0  0  0  0  0  0  0  0  0  0
   -5.3875    0.3251    7.9175 O   0  0  0  0  0  0  0  0  0  0  0  0
   -4.6561    0.8505    4.3747 O   0  0  0  0  0  0  0  0  0  0  0  0
   -4.8314    0.7614    2.6280 C   0  0  0  0  0  0  0  0  0  0  0  0
   -3.8558    1.0399    1.9296 O   0  0  0  0  0  0  0  0  0  0  0  0
   -6.4507    0.0961    1.7703 C   0  0  0  0  0  0  0  0  0  0  0  0
   -6.3706   -3.1032    6.8157 O   0  0  0  0  0  0  0  0  0  0  0  0
   -9.7191   -1.8501    5.9501 C   0  0  0  0  0  0  0  0  0  0  0  0
   -9.0487   -4.6126    3.1262 O   0  0  0  0  0  0  0  0  0  0  0  0
   -9.1902   -5.0562    1.8358 C   0  0  0  0  0  0  0  0  0  0  0  0
  -10.2224   -5.0675    1.1706 O   0  0  0  0  0  0  0  0  0  0  0  0
   -7.8838   -5.5072    1.3312 C   0  0  0  0  0  0  0  0  0  0  0  0
   -4.1687   -1.0073    5.6701 H   0  0  0  0  0  0  0  0  0  0  0  0
   -2.9705   -1.8226    5.5578 H   0  0  0  0  0  0  0  0  0  0  0  0
   -4.0830   -2.5095    6.6874 H   0  0  0  0  0  0  0  0  0  0  0  0
   -8.4887   -2.7852    3.6039 H   0  0  0  0  0  0  0  0  0  0  0  0
   -8.1508   -2.7823    7.6934 H   0  0  0  0  0  0  0  0  0  0  0  0
   -8.0869   -0.1522    7.7584 H   0  0  0  0  0  0  0  0  0  0  0  0
   -7.9127   -0.2216    6.2796 H   0  0  0  0  0  0  0  0  0  0  0  0
   -5.4477   -1.3834    7.0461 H   0  0  0  0  0  0  0  0  0  0  0  0
   -5.7727   -1.6323    5.1897 H   0  0  0  0  0  0  0  0  0  0  0  0
   -5.9562    0.0638    3.6779 H   0  0  0  0  0  0  0  0  0  0  0  0
   -7.3008   -2.1003   -0.2469 H   0  0  0  0  0  0  0  0  0  0  0  0
   -6.3619   -3.6378   -0.1963 H   0  0  0  0  0  0  0  0  0  0  0  0
   -8.0567   -3.5320    0.1448 H   0  0  0  0  0  0  0  0  0  0  0  0
   -8.8606   -1.1060    2.2325 H   0  0  0  0  0  0  0  0  0  0  0  0
   -9.0205   -1.9715    0.7316 H   0  0  0  0  0  0  0  0  0  0  0  0
   -9.3488   -2.7438    2.0825 H   0  0  0  0  0  0  0  0  0  0  0  0
   -4.6374   -3.9094    1.9730 H   0  0  0  0  0  0  0  0  0  0  0  0
   -3.1693   -1.7127    3.2888 H   0  0  0  0  0  0  0  0  0  0  0  0
    0.2878   -3.0168    3.0300 H   0  0  0  0  0  0  0  0  0  0  0  0
   -0.3958   -4.8820    2.2180 H   0  0  0  0  0  0  0  0  0  0  0  0
   -2.5789   -4.1009    0.4482 H   0  0  0  0  0  0  0  0  0  0  0  0
   -1.2815   -2.8650    0.4045 H   0  0  0  0  0  0  0  0  0  0  0  0
    0.2147   -4.7803   -0.0878 H   0  0  0  0  0  0  0  0  0  0  0  0
   -2.5119   -6.2444   -0.2101 H   0  0  0  0  0  0  0  0  0  0  0  0
   -0.9438   -6.9339   -0.7233 H   0  0  0  0  0  0  0  0  0  0  0  0
   -1.2346   -6.5561    0.9516 H   0  0  0  0  0  0  0  0  0  0  0  0
   -0.8287   -3.3284   -1.8582 H   0  0  0  0  0  0  0  0  0  0  0  0
   -0.6779   -5.0148   -2.4080 H   0  0  0  0  0  0  0  0  0  0  0  0
   -2.2531   -4.3742   -1.8964 H   0  0  0  0  0  0  0  0  0  0  0  0
   -3.2299   -4.5831    2.9505 H   0  0  0  0  0  0  0  0  0  0  0  0
   -2.5608   -7.8077    5.4684 H   0  0  0  0  0  0  0  0  0  0  0  0
   -1.5389   -9.2377    5.6146 H   0  0  0  0  0  0  0  0  0  0  0  0
   -0.8404   -7.5973    5.7308 H   0  0  0  0  0  0  0  0  0  0  0  0
   -2.1588   -9.0550    1.8814 H   0  0  0  0  0  0  0  0  0  0  0  0
   -2.3275  -10.1035    3.3136 H   0  0  0  0  0  0  0  0  0  0  0  0
   -3.3756   -8.7073    3.0942 H   0  0  0  0  0  0  0  0  0  0  0  0
    0.2969   -8.7807    2.3665 H   0  0  0  0  0  0  0  0  0  0  0  0
    0.8437   -8.1864    3.9282 H   0  0  0  0  0  0  0  0  0  0  0  0
    0.1421   -9.8147    3.8021 H   0  0  0  0  0  0  0  0  0  0  0  0
   -1.8306   -1.4631    1.9483 H   0  0  0  0  0  0  0  0  0  0  0  0
   -7.2835    1.5336    0.7924 H   0  0  0  0  0  0  0  0  0  0  0  0
   -5.6833    2.6056   -0.3725 H   0  0  0  0  0  0  0  0  0  0  0  0
   -4.9009    4.7936    0.5203 H   0  0  0  0  0  0  0  0  0  0  0  0
   -5.4552    5.3986    2.8773 H   0  0  0  0  0  0  0  0  0  0  0  0
   -6.3104    3.6682    4.4563 H   0  0  0  0  0  0  0  0  0  0  0  0
   -5.2242    2.2341    7.7051 H   0  0  0  0  0  0  0  0  0  0  0  0
   -6.8547    1.7207    7.5485 H   0  0  0  0  0  0  0  0  0  0  0  0
   -6.9562   -0.7903    2.0854 H   0  0  0  0  0  0  0  0  0  0  0  0
   -7.4881    0.3605    1.9742 H   0  0  0  0  0  0  0  0  0  0  0  0
   -6.5251   -0.1459    0.7112 H   0  0  0  0  0  0  0  0  0  0  0  0
   -6.2508   -3.4548    5.9088 H   0  0  0  0  0  0  0  0  0  0  0  0
   -9.9020   -1.3781    6.9327 H   0  0  0  0  0  0  0  0  0  0  0  0
  -10.3787   -1.3980    5.2010 H   0  0  0  0  0  0  0  0  0  0  0  0
  -10.2315   -2.8292    6.1403 H   0  0  0  0  0  0  0  0  0  0  0  0
   -7.2209   -4.7122    1.5430 H   0  0  0  0  0  0  0  0  0  0  0  0
   -7.4237   -6.2452    1.9615 H   0  0  0  0  0  0  0  0  0  0  0  0
   -7.8489   -5.6082    0.2439 H   0  0  0  0  0  0  0  0  0  0  0  0
  1 63  1  0  0  0  0
  1 64  1  0  0  0  0
  1 65  1  0  0  0  0
  1  2  1  0  0  0  0
  2  3  2  0  0  0  0
  2 19  1  0  0  0  0
  3  4  1  0  0  0  0
  3 15  1  0  0  0  0
  4  5  1  0  0  0  0
  4 59  1  0  0  0  0
  4 66  1  6  0  0  0
  5  7  1  0  0  0  0
  5  6  2  0  0  0  0
  7  8  1  0  0  0  0
  7 12  1  0  0  0  0
  7 58  1  1  0  0  0
  8  9  1  0  0  0  0
  8 67  1  1  0  0  0
  8 57  1  0  0  0  0
  9 10  1  0  0  0  0
  9 68  1  0  0  0  0
  9 69  1  0  0  0  0
 10 11  1  0  0  0  0
 10 52  1  0  0  0  0
 10 70  1  1  0  0  0
 11 51  1  0  0  0  0
 11 53  1  1  0  0  0
 12 11  1  0  0  0  0
 12 13  1  0  0  0  0
 12 71  1  6  0  0  0
 13 14  1  0  0  0  0
 13 72  1  1  0  0  0
 13 42  1  0  0  0  0
 14 15  1  0  0  0  0
 14 18  1  0  0  0  0
 14 41  1  1  0  0  0
 15 16  1  0  0  0  0
 15 17  1  0  0  0  0
 16 73  1  0  0  0  0
 16 74  1  0  0  0  0
 16 75  1  0  0  0  0
 17 76  1  0  0  0  0
 17 77  1  0  0  0  0
 17 78  1  0  0  0  0
 18 19  1  0  0  0  0
 18 38  1  0  0  0  0
 18 79  1  6  0  0  0
 19 80  1  1  0  0  0
 19 20  1  0  0  0  0
 20 21  1  0  0  0  0
 21 22  2  0  0  0  0
 21 23  1  0  0  0  0
 23 37  1  0  0  0  0
 23 81  1  1  0  0  0
 24 29  1  0  0  0  0
 24 82  1  1  0  0  0
 24 25  1  0  0  0  0
 24 23  1  0  0  0  0
 25 26  1  0  0  0  0
 25 83  1  0  0  0  0
 25 84  1  0  0  0  0
 26 27  1  0  0  0  0
 26 28  1  0  0  0  0
 26 85  1  0  0  0  0
 27 86  1  0  0  0  0
 27 87  1  0  0  0  0
 27 88  1  0  0  0  0
 28 89  1  0  0  0  0
 28 90  1  0  0  0  0
 28 91  1  0  0  0  0
 29 30  1  0  0  0  0
 29 92  1  0  0  0  0
 30 31  2  0  0  0  0
 30 32  1  0  0  0  0
 32 33  1  0  0  0  0
 33 34  1  0  0  0  0
 33 35  1  0  0  0  0
 33 36  1  0  0  0  0
 34 93  1  0  0  0  0
 34 94  1  0  0  0  0
 34 95  1  0  0  0  0
 35 96  1  0  0  0  0
 35 97  1  0  0  0  0
 35 98  1  0  0  0  0
 36 99  1  0  0  0  0
 36100  1  0  0  0  0
 36101  1  0  0  0  0
 37102  1  0  0  0  0
 38 39  1  0  0  0  0
 39 41  1  0  0  0  0
 39 40  2  0  0  0  0
 42 43  1  0  0  0  0
 43 44  2  0  0  0  0
 43 45  1  0  0  0  0
 45 46  2  0  0  0  0
 45 50  1  0  0  0  0
 46 47  1  0  0  0  0
 46103  1  0  0  0  0
 47 48  2  0  0  0  0
 47104  1  0  0  0  0
 48 49  1  0  0  0  0
 48105  1  0  0  0  0
 49 50  2  0  0  0  0
 49106  1  0  0  0  0
 50107  1  0  0  0  0
 51 52  1  0  0  0  0
 51108  1  0  0  0  0
 51109  1  0  0  0  0
 53 54  1  0  0  0  0
 54 55  2  0  0  0  0
 54 56  1  0  0  0  0
 56110  1  0  0  0  0
 56111  1  0  0  0  0
 56112  1  0  0  0  0
 57113  1  0  0  0  0
 58114  1  0  0  0  0
 58115  1  0  0  0  0
 58116  1  0  0  0  0
 59 60  1  0  0  0  0
 60 61  2  0  0  0  0
 60 62  1  0  0  0  0
 62117  1  0  0  0  0
 62118  1  0  0  0  0
 62119  1  0  0  0  0
M  END
>  <DRUGBANK_ID>
DB11669

>  <COMMON_NAME>
Ortataxel

>  <CAS_NUMBER>
186348-23-2

>  <UNII>
8H61Y4E29N

>  <SYNONYMS>
Ortataxel

$$$$
