GK1
 OpenBabel10282417163D

 41 44  0  0  0  0  0  0  0  0999 V2000
    1.0058    0.0931    0.0904 O   0  0  0  0  0  0  0  0  0  0  0  0
    2.2329   -0.0251    0.0120 C   0  0  0  0  0  0  0  0  0  0  0  0
    2.9590   -0.6270   -1.0828 C   0  0  0  0  0  0  0  0  0  0  0  0
    4.4065   -1.5005   -0.7984 S   0  0  0  0  0  0  0  0  0  0  0  0
    4.5377   -1.8018   -2.4873 C   0  0  0  0  0  0  0  0  0  0  0  0
    2.5840   -0.5310   -2.3404 N   0  0  0  0  0  0  0  0  0  0  0  0
    3.4877   -1.1937   -3.1484 C   0  0  0  0  0  0  0  0  0  0  0  0
    3.3429   -1.1781   -4.5915 C   0  0  0  0  0  0  0  0  0  0  0  0
    3.2266   -2.3632   -5.3219 C   0  0  0  0  0  0  0  0  0  0  0  0
    3.2947    0.0420   -5.2631 C   0  0  0  0  0  0  0  0  0  0  0  0
    3.1500    0.0714   -6.6509 C   0  0  0  0  0  0  0  0  0  0  0  0
    3.0515   -1.1240   -7.3996 C   0  0  0  0  0  0  0  0  0  0  0  0
    3.0778   -2.3596   -6.7017 C   0  0  0  0  0  0  0  0  0  0  0  0
    2.9686   -3.5516   -7.3079 N   0  0  0  0  0  0  0  0  0  0  0  0
    2.8617   -3.5710   -8.6456 C   0  0  0  0  0  0  0  0  0  0  0  0
    2.8747   -2.4368   -9.4204 C   0  0  0  0  0  0  0  0  0  0  0  0
    2.9288   -1.1765   -8.8113 C   0  0  0  0  0  0  0  0  0  0  0  0
    2.8814   -0.0171   -9.6259 N   0  0  0  0  0  0  0  0  0  0  0  0
    2.5773    0.0423  -11.0053 C   0  0  0  0  0  0  0  0  0  0  0  0
    1.4039   -0.5268  -11.5506 C   0  0  0  0  0  0  0  0  0  0  0  0
    0.3391   -1.1908  -10.7134 C   0  0  0  0  0  0  0  0  0  0  0  0
    3.5186    0.6438  -11.8609 C   0  0  0  0  0  0  0  0  0  0  0  0
    3.3374    0.5933  -13.2407 C   0  0  0  0  0  0  0  0  0  0  0  0
    4.2711    1.0731  -14.1127 O   0  0  0  0  0  0  0  0  0  0  0  0
    2.2012    0.0126  -13.7850 C   0  0  0  0  0  0  0  0  0  0  0  0
    1.2346   -0.5371  -12.9448 C   0  0  0  0  0  0  0  0  0  0  0  0
    2.8555    0.3688    0.8315 H   0  0  0  0  0  0  0  0  0  0  0  0
    5.3670   -2.3604   -2.8999 H   0  0  0  0  0  0  0  0  0  0  0  0
    3.2361   -3.3230   -4.8094 H   0  0  0  0  0  0  0  0  0  0  0  0
    3.3745    0.9767   -4.7118 H   0  0  0  0  0  0  0  0  0  0  0  0
    3.1184    1.0425   -7.1338 H   0  0  0  0  0  0  0  0  0  0  0  0
    2.7557   -4.5479   -9.1069 H   0  0  0  0  0  0  0  0  0  0  0  0
    2.7936   -2.5451  -10.4960 H   0  0  0  0  0  0  0  0  0  0  0  0
    2.8778    0.8852   -9.1688 H   0  0  0  0  0  0  0  0  0  0  0  0
   -0.6407   -0.7494  -10.9063 H   0  0  0  0  0  0  0  0  0  0  0  0
    0.3079   -2.2627  -10.9432 H   0  0  0  0  0  0  0  0  0  0  0  0
    0.5067   -1.0878   -9.6395 H   0  0  0  0  0  0  0  0  0  0  0  0
    4.4181    1.0818  -11.4385 H   0  0  0  0  0  0  0  0  0  0  0  0
    5.0479    1.3759  -13.6152 H   0  0  0  0  0  0  0  0  0  0  0  0
    2.0726   -0.0227  -14.8629 H   0  0  0  0  0  0  0  0  0  0  0  0
    0.3544   -1.0014  -13.3841 H   0  0  0  0  0  0  0  0  0  0  0  0
  1  2  2  0  0  0  0
  2  3  1  0  0  0  0
  2 27  1  0  0  0  0
  3  6  2  0  0  0  0
  4  3  1  0  0  0  0
  4  5  1  0  0  0  0
  5  7  2  0  0  0  0
  5 28  1  0  0  0  0
  6  7  1  0  0  0  0
  7  8  1  0  0  0  0
  8  9  1  0  0  0  0
  9 13  2  0  0  0  0
  9 29  1  0  0  0  0
 10  8  2  0  0  0  0
 10 11  1  0  0  0  0
 10 30  1  0  0  0  0
 11 12  2  0  0  0  0
 11 31  1  0  0  0  0
 12 13  1  0  0  0  0
 12 17  1  0  0  0  0
 13 14  1  0  0  0  0
 14 15  2  0  0  0  0
 15 32  1  0  0  0  0
 16 15  1  0  0  0  0
 16 33  1  0  0  0  0
 17 16  2  0  0  0  0
 18 17  1  0  0  0  0
 18 19  1  0  0  0  0
 18 34  1  0  0  0  0
 19 22  1  0  0  0  0
 20 19  2  0  0  0  0
 20 26  1  0  0  0  0
 21 20  1  0  0  0  0
 21 35  1  0  0  0  0
 21 36  1  0  0  0  0
 21 37  1  0  0  0  0
 22 23  2  0  0  0  0
 22 38  1  0  0  0  0
 23 24  1  0  0  0  0
 24 39  1  0  0  0  0
 25 23  1  0  0  0  0
 25 40  1  0  0  0  0
 26 25  2  0  0  0  0
 26 41  1  0  0  0  0
M  END
>  <DRUGBANK_ID>
DB07832

>  <COMMON_NAME>
4-{4-[(5-hydroxy-2-methylphenyl)amino]quinolin-7-yl}-1,3-thiazole-2-carbaldehyde

$$$$
