MOJ
 OpenBabel10282417173D

 45 48  0  0  0  0  0  0  0  0999 V2000
    2.1934   -0.0449   -0.0135 F   0  0  0  0  0  0  0  0  0  0  0  0
    0.8553   -0.0157    0.0073 C   0  0  0  0  0  0  0  0  0  0  0  0
    0.2041    1.2111    0.0254 C   0  0  0  0  0  0  0  0  0  0  0  0
   -1.1969    1.2879    0.0632 C   0  0  0  0  0  0  0  0  0  0  0  0
   -1.7974    2.6362    0.0910 C   0  0  0  0  0  0  0  0  0  0  0  0
   -2.4560    3.1340    1.2130 C   0  0  0  0  0  0  0  0  0  0  0  0
   -3.2653    4.2188    1.2231 N   0  0  0  0  0  0  0  0  0  0  0  0
   -3.2989    4.9498    0.0965 C   0  0  0  0  0  0  0  0  0  0  0  0
   -2.5150    4.6694   -1.0087 C   0  0  0  0  0  0  0  0  0  0  0  0
   -1.7680    3.4894   -1.0159 C   0  0  0  0  0  0  0  0  0  0  0  0
    0.1461   -1.2047    0.0122 C   0  0  0  0  0  0  0  0  0  0  0  0
   -1.2454   -1.1670    0.0227 C   0  0  0  0  0  0  0  0  0  0  0  0
   -1.9415    0.0655    0.0465 C   0  0  0  0  0  0  0  0  0  0  0  0
   -3.4689   -0.0279   -0.0235 C   0  0  2  0  0  0  0  0  0  0  0  0
   -4.0029    0.6641   -1.2750 C   0  0  0  0  0  0  0  0  0  0  0  0
   -5.4858    0.3968   -1.3495 C   0  0  0  0  0  0  0  0  0  0  0  0
   -6.0733   -0.0782   -2.4136 N   0  0  0  0  0  0  0  0  0  0  0  0
   -5.2091   -0.2193   -3.4957 O   0  0  0  0  0  0  0  0  0  0  0  0
   -6.2767    0.7092   -0.1230 C   0  0  0  0  0  0  0  0  0  0  0  0
   -4.1724    0.5095    1.2213 C   0  0  0  0  0  0  0  0  0  0  0  0
   -5.6468    0.7199    1.1099 C   0  0  0  0  0  0  0  0  0  0  0  0
   -6.2546    1.0870    2.2689 N   0  0  0  0  0  0  0  0  0  0  0  0
   -7.5396    1.4223    2.2041 C   0  0  0  0  0  0  0  0  0  0  0  0
   -8.1608    1.7953    3.3605 N   0  0  0  0  0  0  0  0  0  0  0  0
   -8.2497    1.4022    1.0712 N   0  0  0  0  0  0  0  0  0  0  0  0
   -7.6148    1.0519   -0.0877 C   0  0  0  0  0  0  0  0  0  0  0  0
   -8.4926    1.0562   -1.3004 C   0  0  0  0  0  0  0  0  0  0  0  0
   -3.7562   -1.0891   -0.1029 H   0  0  0  0  0  0  0  0  0  0  0  0
    0.8030    2.1176    0.0122 H   0  0  0  0  0  0  0  0  0  0  0  0
   -2.4392    2.5902    2.1570 H   0  0  0  0  0  0  0  0  0  0  0  0
   -3.9725    5.8013    0.1176 H   0  0  0  0  0  0  0  0  0  0  0  0
   -2.5008    5.3463   -1.8543 H   0  0  0  0  0  0  0  0  0  0  0  0
   -1.1902    3.2278   -1.8986 H   0  0  0  0  0  0  0  0  0  0  0  0
    0.6785   -2.1505   -0.0024 H   0  0  0  0  0  0  0  0  0  0  0  0
   -1.7861   -2.1137   -0.0042 H   0  0  0  0  0  0  0  0  0  0  0  0
   -3.8767    1.7492   -1.2547 H   0  0  0  0  0  0  0  0  0  0  0  0
   -3.4649    0.3008   -2.1560 H   0  0  0  0  0  0  0  0  0  0  0  0
   -5.8201   -0.4827   -4.2106 H   0  0  0  0  0  0  0  0  0  0  0  0
   -3.8888   -0.0329    2.1292 H   0  0  0  0  0  0  0  0  0  0  0  0
   -3.8720    1.5214    1.3772 H   0  0  0  0  0  0  0  0  0  0  0  0
   -7.6235    1.8077    4.2110 H   0  0  0  0  0  0  0  0  0  0  0  0
   -9.1540    1.9437    3.3426 H   0  0  0  0  0  0  0  0  0  0  0  0
   -9.2194    0.2450   -1.2118 H   0  0  0  0  0  0  0  0  0  0  0  0
   -9.0008    2.0178   -1.3961 H   0  0  0  0  0  0  0  0  0  0  0  0
   -7.9730    0.9217   -2.2438 H   0  0  0  0  0  0  0  0  0  0  0  0
  1  2  1  0  0  0  0
  2  3  1  0  0  0  0
  3  4  2  0  0  0  0
  3 29  1  0  0  0  0
  4 13  1  0  0  0  0
  4  5  1  0  0  0  0
  5  6  1  0  0  0  0
  6  7  2  0  0  0  0
  6 30  1  0  0  0  0
  8  7  1  0  0  0  0
  8 31  1  0  0  0  0
  9  8  2  0  0  0  0
  9 32  1  0  0  0  0
 10  5  2  0  0  0  0
 10  9  1  0  0  0  0
 10 33  1  0  0  0  0
 11  2  2  0  0  0  0
 11 12  1  0  0  0  0
 11 34  1  0  0  0  0
 12 13  2  0  0  0  0
 12 35  1  0  0  0  0
 14 13  1  0  0  0  0
 14 15  1  0  0  0  0
 14 28  1  6  0  0  0
 15 16  1  0  0  0  0
 15 36  1  0  0  0  0
 15 37  1  0  0  0  0
 16 17  2  0  0  0  0
 17 18  1  0  0  0  0
 18 38  1  0  0  0  0
 19 16  1  0  0  0  0
 19 26  1  0  0  0  0
 20 14  1  0  0  0  0
 20 21  1  0  0  0  0
 20 39  1  0  0  0  0
 20 40  1  0  0  0  0
 21 19  2  0  0  0  0
 22 21  1  0  0  0  0
 22 23  2  0  0  0  0
 23 25  1  0  0  0  0
 24 23  1  0  0  0  0
 24 41  1  0  0  0  0
 24 42  1  0  0  0  0
 25 26  2  0  0  0  0
 26 27  1  0  0  0  0
 27 43  1  0  0  0  0
 27 44  1  0  0  0  0
 27 45  1  0  0  0  0
M  END
>  <DRUGBANK_ID>
DB08197

>  <COMMON_NAME>
(5E,7S)-2-amino-7-(4-fluoro-2-pyridin-3-ylphenyl)-4-methyl-7,8-dihydroquinazolin-5(6H)-one oxime

$$$$
