
 OpenBabel10282417223D

 36 38  0  0  0  0  0  0  0  0999 V2000
    1.0124    0.0340   -0.0801 C   0  0  0  0  0  0  0  0  0  0  0  0
    0.6067    1.0665   -1.1218 C   0  0  0  0  0  0  0  0  0  0  0  0
    1.0749    0.7444   -2.4477 O   0  0  0  0  0  0  0  0  0  0  0  0
    2.4328    0.7198   -2.6346 C   0  0  0  0  0  0  0  0  0  0  0  0
    3.2533    0.9678   -1.7536 O   0  0  0  0  0  0  0  0  0  0  0  0
    2.8127    0.3616   -4.0038 C   0  0  0  0  0  0  0  0  0  0  0  0
    2.3289    0.9180   -5.1781 C   0  0  0  0  0  0  0  0  0  0  0  0
    1.3174    1.9792   -5.4467 C   0  0  0  0  0  0  0  0  0  0  0  0
    2.0358    3.1563   -5.9021 N   0  0  0  0  0  0  0  0  0  0  0  0
    1.6360    4.4709   -5.4274 C   0  0  0  0  0  0  0  0  0  0  0  0
    3.0172    3.0542   -6.8751 C   0  0  0  0  0  0  0  0  0  0  0  0
    4.0138    3.7626   -6.9375 O   0  0  0  0  0  0  0  0  0  0  0  0
    2.7929    2.0128   -7.9071 C   0  0  0  0  0  0  0  0  0  0  0  0
    2.4814    2.3857   -9.2207 C   0  0  0  0  0  0  0  0  0  0  0  0
    2.1618    4.3798   -9.8006 I   0  0  0  0  0  0  0  0  0  0  0  0
    2.3135    1.3989  -10.1962 C   0  0  0  0  0  0  0  0  0  0  0  0
    2.4899    0.0496   -9.8689 C   0  0  0  0  0  0  0  0  0  0  0  0
    2.8083   -0.3335   -8.5585 C   0  0  0  0  0  0  0  0  0  0  0  0
    2.9214    0.6526   -7.5702 C   0  0  0  0  0  0  0  0  0  0  0  0
    3.0399    0.3109   -6.2024 N   0  0  0  0  0  0  0  0  0  0  0  0
    3.8688   -0.6133   -5.6228 C   0  0  0  0  0  0  0  0  0  0  0  0
    3.7786   -0.5898   -4.3093 N   0  0  0  0  0  0  0  0  0  0  0  0
    0.6579   -0.9608   -0.3653 H   0  0  0  0  0  0  0  0  0  0  0  0
    0.6068    0.2904    0.9031 H   0  0  0  0  0  0  0  0  0  0  0  0
    2.0977   -0.0349    0.0241 H   0  0  0  0  0  0  0  0  0  0  0  0
   -0.4894    1.0926   -1.1707 H   0  0  0  0  0  0  0  0  0  0  0  0
    0.9348    2.0746   -0.8446 H   0  0  0  0  0  0  0  0  0  0  0  0
    0.7511    2.2239   -4.5453 H   0  0  0  0  0  0  0  0  0  0  0  0
    0.6098    1.6617   -6.2208 H   0  0  0  0  0  0  0  0  0  0  0  0
    0.5868    4.6370   -5.6990 H   0  0  0  0  0  0  0  0  0  0  0  0
    1.7414    4.5244   -4.3420 H   0  0  0  0  0  0  0  0  0  0  0  0
    2.2316    5.2619   -5.8948 H   0  0  0  0  0  0  0  0  0  0  0  0
    2.0443    1.6679  -11.2166 H   0  0  0  0  0  0  0  0  0  0  0  0
    2.3508   -0.7035  -10.6440 H   0  0  0  0  0  0  0  0  0  0  0  0
    2.8807   -1.3948   -8.3295 H   0  0  0  0  0  0  0  0  0  0  0  0
    4.5679   -1.2186   -6.1872 H   0  0  0  0  0  0  0  0  0  0  0  0
  1  2  1  0  0  0  0
  1 23  1  0  0  0  0
  1 24  1  0  0  0  0
  1 25  1  0  0  0  0
  2  3  1  0  0  0  0
  2 26  1  0  0  0  0
  2 27  1  0  0  0  0
  3  4  1  0  0  0  0
  4  5  2  0  0  0  0
  4  6  1  0  0  0  0
  6  7  2  0  0  0  0
  6 22  1  0  0  0  0
  7  8  1  0  0  0  0
  7 20  1  0  0  0  0
  8  9  1  0  0  0  0
  8 28  1  0  0  0  0
  8 29  1  0  0  0  0
  9 10  1  0  0  0  0
  9 11  1  0  0  0  0
 10 30  1  0  0  0  0
 10 31  1  0  0  0  0
 10 32  1  0  0  0  0
 11 12  2  0  0  0  0
 11 13  1  0  0  0  0
 13 14  2  0  0  0  0
 13 19  1  0  0  0  0
 14 15  1  0  0  0  0
 14 16  1  0  0  0  0
 16 17  2  0  0  0  0
 16 33  1  0  0  0  0
 17 18  1  0  0  0  0
 17 34  1  0  0  0  0
 18 19  2  0  0  0  0
 18 35  1  0  0  0  0
 19 20  1  0  0  0  0
 20 21  1  0  0  0  0
 21 22  2  0  0  0  0
 21 36  1  0  0  0  0
M  END
>  <DRUGBANK_ID>
DB14971

>  <COMMON_NAME>
Iomazenil

>  <CAS_NUMBER>
127985-21-1

>  <UNII>
7DVX185FLQ

$$$$
