
 OpenBabel10282417193D

 37 38  0  0  0  0  0  0  0  0999 V2000
    0.9022    0.1467    0.0129 C   0  0  0  0  0  0  0  0  0  0  0  0
    2.9773   -6.8606   -4.3349 C   0  0  0  0  0  0  0  0  0  0  0  0
    3.0159   -8.3764   -4.2853 C   0  0  0  0  0  0  0  0  0  0  0  0
    2.1342   -6.3108   -3.1936 C   0  0  0  0  0  0  0  0  0  0  0  0
    3.6544   -8.8506   -2.9909 C   0  0  0  0  0  0  0  0  0  0  0  0
    0.5013   -4.5791   -1.1472 C   0  0  0  0  0  0  0  0  0  0  0  0
    2.5770   -3.7890   -0.2082 C   0  0  0  0  0  0  0  0  0  0  0  0
    0.0912   -3.2689   -1.3578 C   0  0  0  0  0  0  0  0  0  0  0  0
    2.1676   -2.4747   -0.4293 C   0  0  0  0  0  0  0  0  0  0  0  0
    2.3102   -6.2034   -0.6659 C   0  0  0  0  0  0  0  0  0  0  0  0
    0.3958   -0.7610   -1.1119 C   0  0  3  0  0  0  0  0  0  0  0  0
    1.7697   -4.8442   -0.6259 C   0  0  0  0  0  0  0  0  0  0  0  0
    0.9018   -2.1922   -0.9707 C   0  0  0  0  0  0  0  0  0  0  0  0
    2.4721   -6.8664   -1.8308 C   0  0  0  0  0  0  0  0  0  0  0  0
    3.0103   -8.2616   -1.7533 C   0  0  0  0  0  0  0  0  0  0  0  0
   -1.1260   -0.6812   -1.1313 C   0  0  0  0  0  0  0  0  0  0  0  0
    3.0078   -8.8860   -0.6924 O   0  0  0  0  0  0  0  0  0  0  0  0
   -1.8152   -0.3175   -2.0769 O   0  0  0  0  0  0  0  0  0  0  0  0
   -1.7079   -1.1475   -0.0050 O   0  0  0  0  0  0  0  0  0  0  0  0
    2.5917   -6.6377    0.2907 H   0  0  0  0  0  0  0  0  0  0  0  0
    0.5955   -0.2391    0.9928 H   0  0  0  0  0  0  0  0  0  0  0  0
    0.5100    1.1618   -0.0903 H   0  0  0  0  0  0  0  0  0  0  0  0
    1.9939    0.2236    0.0159 H   0  0  0  0  0  0  0  0  0  0  0  0
    2.5493   -6.5311   -5.2891 H   0  0  0  0  0  0  0  0  0  0  0  0
    3.9942   -6.4534   -4.2814 H   0  0  0  0  0  0  0  0  0  0  0  0
    1.9966   -8.7739   -4.3684 H   0  0  0  0  0  0  0  0  0  0  0  0
    3.5842   -8.7591   -5.1399 H   0  0  0  0  0  0  0  0  0  0  0  0
    1.0786   -6.5305   -3.3995 H   0  0  0  0  0  0  0  0  0  0  0  0
    2.2472   -5.2206   -3.2158 H   0  0  0  0  0  0  0  0  0  0  0  0
    3.5675   -9.9409   -2.9360 H   0  0  0  0  0  0  0  0  0  0  0  0
    4.7185   -8.5900   -2.9707 H   0  0  0  0  0  0  0  0  0  0  0  0
   -0.1627   -5.3903   -1.4347 H   0  0  0  0  0  0  0  0  0  0  0  0
    3.5376   -3.9730    0.2662 H   0  0  0  0  0  0  0  0  0  0  0  0
   -0.8800   -3.1099   -1.8210 H   0  0  0  0  0  0  0  0  0  0  0  0
    2.8635   -1.6818   -0.1683 H   0  0  0  0  0  0  0  0  0  0  0  0
    0.7564   -0.3682   -2.0726 H   0  0  0  0  0  0  0  0  0  0  0  0
   -2.6704   -1.1586   -0.1829 H   0  0  0  0  0  0  0  0  0  0  0  0
  1 21  1  0  0  0  0
  1 22  1  0  0  0  0
  1 23  1  0  0  0  0
  2 24  1  0  0  0  0
  2 25  1  0  0  0  0
  3  2  1  0  0  0  0
  3 26  1  0  0  0  0
  3 27  1  0  0  0  0
  4  2  1  0  0  0  0
  4 28  1  0  0  0  0
  4 29  1  0  0  0  0
  5  3  1  0  0  0  0
  5 30  1  0  0  0  0
  5 31  1  0  0  0  0
  6 32  1  0  0  0  0
  7 33  1  0  0  0  0
  8  6  1  0  0  0  0
  8 34  1  0  0  0  0
  9  7  2  0  0  0  0
  9 35  1  0  0  0  0
 11  1  1  0  0  0  0
 11 36  1  0  0  0  0
 12  6  2  0  0  0  0
 12  7  1  0  0  0  0
 12 10  1  0  0  0  0
 13  8  2  0  0  0  0
 13  9  1  0  0  0  0
 13 11  1  0  0  0  0
 14  4  1  0  0  0  0
 14 10  2  0  0  0  0
 15  5  1  0  0  0  0
 15 14  1  0  0  0  0
 16 11  1  0  0  0  0
 17 15  2  0  0  0  0
 18 16  2  0  0  0  0
 19 16  1  0  0  0  0
 19 37  1  0  0  0  0
 20 10  1  0  0  0  0
M  END
>  <DRUGBANK_ID>
DB12150

>  <COMMON_NAME>
Pelubiprofen

>  <CAS_NUMBER>
69956-77-0

>  <UNII>
1619C79FVJ

>  <SYNONYMS>
Pelubiprofen

$$$$
