
 OpenBabel10282417243D

 55 59  0  0  1  0  0  0  0  0999 V2000
    0.3909   -0.0192    0.0508 O   0  0  0  0  0  0  0  0  0  0  0  0
    0.3158    1.4048    0.1633 C   0  0  0  0  0  0  0  0  0  0  0  0
    1.0746    1.8898    1.4020 C   0  0  0  0  0  0  0  0  0  0  0  0
    0.2819    1.6029    2.7210 C   0  0  0  0  0  0  0  0  0  0  0  0
    0.5475    3.0456    3.1778 C   0  0  0  0  0  0  0  0  0  0  0  0
    0.8512    3.4026    1.7118 C   0  0  0  0  0  0  0  0  0  0  0  0
    2.5043    1.5326    1.4147 N   0  0  0  0  0  0  0  0  0  0  0  0
    3.1206    0.6887    0.4341 C   0  0  0  0  0  0  0  0  0  0  0  0
    3.1447    1.1179   -0.8726 N   0  0  0  0  0  0  0  0  0  0  0  0
    3.3171    0.2367   -1.8945 C   0  0  0  0  0  0  0  0  0  0  0  0
    3.4469   -1.0813   -1.6674 N   0  0  0  0  0  0  0  0  0  0  0  0
    3.5140   -1.4807   -0.3670 C   0  0  0  0  0  0  0  0  0  0  0  0
    3.7258   -2.9271    0.0149 C   0  0  0  0  0  0  0  0  0  0  0  0
    3.1290   -3.1178    1.4092 C   0  0  0  0  0  0  0  0  0  0  0  0
    3.2081   -1.4987    2.2734 S   0  3  1  0  0  0  0  0  0  0  0  0
    4.6123   -1.4174    2.9715 O   0  5  0  0  0  0  0  0  0  0  0  0
    3.3675   -0.6384    0.7162 C   0  0  0  0  0  0  0  0  0  0  0  0
    3.2757    0.6990   -3.2020 N   0  0  0  0  0  0  0  0  0  0  0  0
    2.3987    0.1664   -4.2362 C   0  0  0  0  0  0  0  0  0  0  0  0
    3.2123   -0.3807   -5.4193 C   0  0  0  0  0  0  0  0  0  0  0  0
    4.2483    0.6309   -5.9550 C   0  0  3  0  0  0  0  0  0  0  0  0
    5.0429    1.2488   -4.7788 C   0  0  0  0  0  0  0  0  0  0  0  0
    4.1521    1.7702   -3.6385 C   0  0  0  0  0  0  0  0  0  0  0  0
    5.1630   -0.0147   -7.0017 C   0  0  0  0  0  0  0  0  0  0  0  0
    4.5970   -0.5694   -8.0980 N   0  0  0  0  0  0  0  0  0  0  0  0
    5.4390   -1.1332   -9.0055 C   0  0  0  0  0  0  0  0  0  0  0  0
    6.8071   -1.1558   -8.8721 C   0  0  0  0  0  0  0  0  0  0  0  0
    7.8397   -1.8726  -10.0320 Cl  0  0  0  0  0  0  0  0  0  0  0  0
    7.2878   -0.5556   -7.7356 C   0  0  0  0  0  0  0  0  0  0  0  0
    6.4976    0.0194   -6.7982 N   0  0  0  0  0  0  0  0  0  0  0  0
    1.1549   -0.1753   -0.5332 H   0  0  0  0  0  0  0  0  0  0  0  0
    0.7041    1.8738   -0.7465 H   0  0  0  0  0  0  0  0  0  0  0  0
   -0.7465    1.6520    0.2246 H   0  0  0  0  0  0  0  0  0  0  0  0
   -0.7946    1.4350    2.5569 H   0  0  0  0  0  0  0  0  0  0  0  0
    0.6304    0.8213    3.3993 H   0  0  0  0  0  0  0  0  0  0  0  0
   -0.3085    3.5723    3.6166 H   0  0  0  0  0  0  0  0  0  0  0  0
    1.3983    3.1426    3.8591 H   0  0  0  0  0  0  0  0  0  0  0  0
    1.6917    4.0864    1.5705 H   0  0  0  0  0  0  0  0  0  0  0  0
   -0.0217    3.8282    1.1980 H   0  0  0  0  0  0  0  0  0  0  0  0
    2.9219    1.4366    2.3387 H   0  0  0  0  0  0  0  0  0  0  0  0
    3.2643   -3.6175   -0.6983 H   0  0  0  0  0  0  0  0  0  0  0  0
    4.8022   -3.1313    0.0442 H   0  0  0  0  0  0  0  0  0  0  0  0
    2.0741   -3.4105    1.3591 H   0  0  0  0  0  0  0  0  0  0  0  0
    3.6652   -3.8761    1.9909 H   0  0  0  0  0  0  0  0  0  0  0  0
    1.7783    0.9944   -4.6150 H   0  0  0  0  0  0  0  0  0  0  0  0
    1.6975   -0.5867   -3.8626 H   0  0  0  0  0  0  0  0  0  0  0  0
    2.5246   -0.6609   -6.2298 H   0  0  0  0  0  0  0  0  0  0  0  0
    3.7222   -1.2989   -5.1075 H   0  0  0  0  0  0  0  0  0  0  0  0
    3.7153    1.4424   -6.4725 H   0  0  0  0  0  0  0  0  0  0  0  0
    5.7175    0.4879   -4.3657 H   0  0  0  0  0  0  0  0  0  0  0  0
    5.6714    2.0670   -5.1521 H   0  0  0  0  0  0  0  0  0  0  0  0
    4.7822    2.1556   -2.8303 H   0  0  0  0  0  0  0  0  0  0  0  0
    3.5492    2.6097   -4.0097 H   0  0  0  0  0  0  0  0  0  0  0  0
    4.9574   -1.5816   -9.8710 H   0  0  0  0  0  0  0  0  0  0  0  0
    8.3528   -0.5126   -7.5266 H   0  0  0  0  0  0  0  0  0  0  0  0
  1  2  1  0  0  0  0
  1 31  1  0  0  0  0
  2  3  1  0  0  0  0
  2 32  1  0  0  0  0
  2 33  1  0  0  0  0
  3  4  1  0  0  0  0
  3  6  1  0  0  0  0
  3  7  1  0  0  0  0
  4  5  1  0  0  0  0
  4 34  1  0  0  0  0
  4 35  1  0  0  0  0
  5  6  1  0  0  0  0
  5 36  1  0  0  0  0
  5 37  1  0  0  0  0
  6 38  1  0  0  0  0
  6 39  1  0  0  0  0
  7  8  1  0  0  0  0
  7 40  1  0  0  0  0
  8  9  2  0  0  0  0
  8 17  1  0  0  0  0
  9 10  1  0  0  0  0
 10 11  2  0  0  0  0
 10 18  1  0  0  0  0
 11 12  1  0  0  0  0
 12 13  1  0  0  0  0
 12 17  2  0  0  0  0
 13 14  1  0  0  0  0
 13 41  1  0  0  0  0
 13 42  1  0  0  0  0
 14 43  1  0  0  0  0
 14 44  1  0  0  0  0
 15 14  1  0  0  0  0
 15 16  1  1  0  0  0
 15 17  1  0  0  0  0
 18 19  1  0  0  0  0
 18 23  1  0  0  0  0
 19 20  1  0  0  0  0
 19 45  1  0  0  0  0
 19 46  1  0  0  0  0
 20 21  1  0  0  0  0
 20 47  1  0  0  0  0
 20 48  1  0  0  0  0
 21 22  1  0  0  0  0
 21 24  1  0  0  0  0
 21 49  1  0  0  0  0
 22 23  1  0  0  0  0
 22 50  1  0  0  0  0
 22 51  1  0  0  0  0
 23 52  1  0  0  0  0
 23 53  1  0  0  0  0
 24 25  2  0  0  0  0
 24 30  1  0  0  0  0
 25 26  1  0  0  0  0
 26 27  2  0  0  0  0
 26 54  1  0  0  0  0
 27 28  1  0  0  0  0
 27 29  1  0  0  0  0
 29 30  2  0  0  0  0
 29 55  1  0  0  0  0
M  CHG  2  15   1  16  -1
M  END
>  <DRUGBANK_ID>
DB18237

>  <COMMON_NAME>
Nerandomilast

>  <CAS_NUMBER>
1423719-30-5

>  <UNII>
I5DGT51IB8

>  <SYNONYMS>
BI-1015550

$$$$
