4MF
 OpenBabel10282417163D

 40 42  0  0  0  0  0  0  0  0999 V2000
    0.9626   -0.0506   -0.0777 O   0  0  0  0  0  0  0  0  0  0  0  0
   -0.0753    0.4768   -2.0580 O   0  0  0  0  0  0  0  0  0  0  0  0
    0.3860    1.3894   -0.8437 P   0  0  0  0  0  0  0  0  0  0  0  0
   -0.1240    1.7016    0.5258 O   0  0  0  0  0  0  0  0  0  0  0  0
   -0.1907    2.8294   -1.6097 O   0  0  0  0  0  0  0  0  0  0  0  0
   -1.1708    3.4698   -0.7386 C   0  0  0  0  0  0  0  0  0  0  0  0
   -2.4712    2.6481   -0.3178 C   0  0  2  0  0  0  0  0  0  0  0  0
   -2.5533    1.3172    0.4969 C   0  0  1  0  0  0  0  0  0  0  0  0
   -3.8211    1.2162    1.1766 O   0  0  0  0  0  0  0  0  0  0  0  0
   -2.5296    0.2200   -0.5445 C   0  0  0  0  0  0  0  0  0  0  0  0
   -3.1723    0.8980   -1.7544 C   0  0  1  0  0  0  0  0  0  0  0  0
   -3.1762    2.3275   -1.5405 O   0  0  0  0  0  0  0  0  0  0  0  0
   -2.6531    0.5355   -3.0796 N   0  0  0  0  0  0  0  0  0  0  0  0
   -2.1302    1.3556   -4.0764 C   0  0  0  0  0  0  0  0  0  0  0  0
   -1.9149    2.7433   -4.1402 C   0  0  0  0  0  0  0  0  0  0  0  0
   -1.3164    3.2940   -5.2718 C   0  0  0  0  0  0  0  0  0  0  0  0
   -0.9623    2.4917   -6.3464 C   0  0  0  0  0  0  0  0  0  0  0  0
   -1.1827    1.1034   -6.3173 C   0  0  0  0  0  0  0  0  0  0  0  0
   -0.7972    0.2703   -7.5082 C   0  0  0  0  0  0  0  0  0  0  0  0
   -1.7690    0.5354   -5.1566 C   0  0  0  0  0  0  0  0  0  0  0  0
   -2.1162   -0.7946   -4.7940 C   0  0  0  0  0  0  0  0  0  0  0  0
   -2.6510   -0.7696   -3.5405 C   0  0  0  0  0  0  0  0  0  0  0  0
   -3.0816    3.3800    0.2247 H   0  0  0  0  0  0  0  0  0  0  0  0
   -1.8650    1.1709    1.3288 H   0  0  0  0  0  0  0  0  0  0  0  0
   -4.2269    0.6072   -1.7776 H   0  0  0  0  0  0  0  0  0  0  0  0
    1.9311   -0.0425   -0.0108 H   0  0  0  0  0  0  0  0  0  0  0  0
    0.5956    0.4502   -2.7700 H   0  0  0  0  0  0  0  0  0  0  0  0
   -0.6388    3.8568    0.1446 H   0  0  0  0  0  0  0  0  0  0  0  0
   -1.4906    4.3670   -1.2788 H   0  0  0  0  0  0  0  0  0  0  0  0
   -4.5195    1.4098    0.5348 H   0  0  0  0  0  0  0  0  0  0  0  0
   -1.5365   -0.1573   -0.7413 H   0  0  0  0  0  0  0  0  0  0  0  0
   -3.0651   -0.6843   -0.2432 H   0  0  0  0  0  0  0  0  0  0  0  0
   -2.1846    3.3999   -3.3245 H   0  0  0  0  0  0  0  0  0  0  0  0
   -1.1339    4.3653   -5.3068 H   0  0  0  0  0  0  0  0  0  0  0  0
   -0.5167    2.9584   -7.2220 H   0  0  0  0  0  0  0  0  0  0  0  0
   -0.0513   -0.4751   -7.2155 H   0  0  0  0  0  0  0  0  0  0  0  0
   -1.6797   -0.2411   -7.9051 H   0  0  0  0  0  0  0  0  0  0  0  0
   -0.3702    0.8801   -8.3109 H   0  0  0  0  0  0  0  0  0  0  0  0
   -1.9760   -1.6797   -5.4106 H   0  0  0  0  0  0  0  0  0  0  0  0
   -3.0211   -1.5784   -2.9131 H   0  0  0  0  0  0  0  0  0  0  0  0
  1  3  1  0  0  0  0
  1 26  1  0  0  0  0
  2  3  1  0  0  0  0
  2 27  1  0  0  0  0
  3  4  2  0  0  0  0
  3  5  1  0  0  0  0
  5  6  1  0  0  0  0
  6 28  1  0  0  0  0
  6 29  1  0  0  0  0
  7  6  1  0  0  0  0
  7  8  1  0  0  0  0
  7 12  1  0  0  0  0
  7 23  1  1  0  0  0
  8 10  1  0  0  0  0
  8  9  1  0  0  0  0
  8 24  1  1  0  0  0
  9 30  1  0  0  0  0
 10 11  1  0  0  0  0
 10 31  1  0  0  0  0
 10 32  1  0  0  0  0
 11 12  1  0  0  0  0
 11 25  1  1  0  0  0
 11 13  1  0  0  0  0
 13 22  1  0  0  0  0
 13 14  1  0  0  0  0
 14 20  1  0  0  0  0
 14 15  2  0  0  0  0
 15 16  1  0  0  0  0
 15 33  1  0  0  0  0
 16 17  2  0  0  0  0
 16 34  1  0  0  0  0
 17 18  1  0  0  0  0
 17 35  1  0  0  0  0
 18 19  1  0  0  0  0
 18 20  2  0  0  0  0
 19 36  1  0  0  0  0
 19 37  1  0  0  0  0
 19 38  1  0  0  0  0
 20 21  1  0  0  0  0
 21 22  2  0  0  0  0
 21 39  1  0  0  0  0
 22 40  1  0  0  0  0
M  END
>  <DRUGBANK_ID>
DB07116

>  <COMMON_NAME>
1-(2-DEOXY-5-O-PHOSPHONO-BETA-D-ERYTHRO-PENTOFURANOSYL)-4-METHYL-1H-INDOLE

$$$$
