
 OpenBabel10282417113D

 42 42  0  0  0  0  0  0  0  0999 V2000
    1.8963    1.1944    0.0361 C   0  0  0  0  0  0  0  0  0  0  0  0
    2.3707   -0.1531    0.1109 C   0  0  0  0  0  0  0  0  0  0  0  0
    0.4961    1.3717   -0.0453 C   0  0  0  0  0  0  0  0  0  0  0  0
    2.6782    2.5042    0.0880 C   0  0  0  0  0  0  0  0  0  0  0  0
    1.5067   -1.2246   -0.0348 C   0  0  0  0  0  0  0  0  0  0  0  0
   -0.3665    0.2684   -0.0519 C   0  0  0  0  0  0  0  0  0  0  0  0
    0.1375   -1.0392   -0.0694 C   0  0  0  0  0  0  0  0  0  0  0  0
    2.0665    3.5882   -0.0026 O   0  0  0  0  0  0  0  0  0  0  0  0
    4.0383    2.6182    0.2253 N   0  0  0  0  0  0  0  0  0  0  0  0
   -0.6384   -2.1828    0.0063 N   0  0  0  0  0  0  0  0  0  0  0  0
   -2.0737    0.5376   -0.0116 Cl  0  0  0  0  0  0  0  0  0  0  0  0
    3.5893   -0.5009    0.6359 O   0  0  0  0  0  0  0  0  0  0  0  0
    6.8725    2.2850   -1.3938 N   0  0  0  0  0  0  0  0  0  0  0  0
    5.0279    1.5802    0.0822 C   0  0  0  0  0  0  0  0  0  0  0  0
    5.8536    1.2939   -1.1640 C   0  0  0  0  0  0  0  0  0  0  0  0
    7.7020    1.9390   -2.5434 C   0  0  0  0  0  0  0  0  0  0  0  0
    6.3058    3.6330   -1.4251 C   0  0  0  0  0  0  0  0  0  0  0  0
    4.3399   -1.6318    0.1807 C   0  0  0  0  0  0  0  0  0  0  0  0
    6.9919    1.8857   -3.8901 C   0  0  0  0  0  0  0  0  0  0  0  0
    5.1337    3.8613   -2.3905 C   0  0  0  0  0  0  0  0  0  0  0  0
    0.0645    2.3759   -0.0422 H   0  0  0  0  0  0  0  0  0  0  0  0
    1.9024   -2.2314    0.0202 H   0  0  0  0  0  0  0  0  0  0  0  0
    4.3278    3.5778    0.3623 H   0  0  0  0  0  0  0  0  0  0  0  0
   -1.6449   -2.1146   -0.0273 H   0  0  0  0  0  0  0  0  0  0  0  0
   -0.1941   -3.0909   -0.0304 H   0  0  0  0  0  0  0  0  0  0  0  0
    5.5034    1.3281    1.0340 H   0  0  0  0  0  0  0  0  0  0  0  0
    4.3590    0.8564   -0.2385 H   0  0  0  0  0  0  0  0  0  0  0  0
    6.3010    0.2910   -1.0570 H   0  0  0  0  0  0  0  0  0  0  0  0
    5.1630    1.1650   -2.0123 H   0  0  0  0  0  0  0  0  0  0  0  0
    8.5184    2.6648   -2.5827 H   0  0  0  0  0  0  0  0  0  0  0  0
    8.1780    0.9650   -2.3622 H   0  0  0  0  0  0  0  0  0  0  0  0
    5.9979    3.8770   -0.4051 H   0  0  0  0  0  0  0  0  0  0  0  0
    7.1003    4.3589   -1.5940 H   0  0  0  0  0  0  0  0  0  0  0  0
    4.2370   -2.3880    0.9545 H   0  0  0  0  0  0  0  0  0  0  0  0
    4.0980   -2.0226   -0.8171 H   0  0  0  0  0  0  0  0  0  0  0  0
    5.3997   -1.3454    0.1571 H   0  0  0  0  0  0  0  0  0  0  0  0
    6.6898    2.8778   -4.2120 H   0  0  0  0  0  0  0  0  0  0  0  0
    7.6643    1.5292   -4.6693 H   0  0  0  0  0  0  0  0  0  0  0  0
    6.1092    1.2378   -3.8790 H   0  0  0  0  0  0  0  0  0  0  0  0
    4.4310    3.0221   -2.4641 H   0  0  0  0  0  0  0  0  0  0  0  0
    4.5496    4.7353   -2.1027 H   0  0  0  0  0  0  0  0  0  0  0  0
    5.4942    4.0637   -3.3945 H   0  0  0  0  0  0  0  0  0  0  0  0
  2  1  1  0  0  0  0
  3  1  2  0  0  0  0
  3 21  1  0  0  0  0
  4  1  1  0  0  0  0
  5  2  2  0  0  0  0
  5 22  1  0  0  0  0
  6  3  1  0  0  0  0
  7  5  1  0  0  0  0
  7  6  2  0  0  0  0
  8  4  2  0  0  0  0
  9  4  1  0  0  0  0
  9 23  1  0  0  0  0
 10  7  1  0  0  0  0
 10 24  1  0  0  0  0
 10 25  1  0  0  0  0
 11  6  1  0  0  0  0
 12  2  1  0  0  0  0
 14  9  1  0  0  0  0
 14 26  1  0  0  0  0
 14 27  1  0  0  0  0
 15 13  1  0  0  0  0
 15 14  1  0  0  0  0
 15 28  1  0  0  0  0
 15 29  1  0  0  0  0
 16 13  1  0  0  0  0
 16 30  1  0  0  0  0
 16 31  1  0  0  0  0
 17 13  1  0  0  0  0
 17 32  1  0  0  0  0
 17 33  1  0  0  0  0
 18 12  1  0  0  0  0
 18 34  1  0  0  0  0
 18 35  1  0  0  0  0
 18 36  1  0  0  0  0
 19 16  1  0  0  0  0
 19 37  1  0  0  0  0
 19 38  1  0  0  0  0
 19 39  1  0  0  0  0
 20 17  1  0  0  0  0
 20 40  1  0  0  0  0
 20 41  1  0  0  0  0
 20 42  1  0  0  0  0
M  END
>  <DRUGBANK_ID>
DB01233

>  <SECONDARY_ACCESSION_NUMBERS>
APRD00665

>  <COMMON_NAME>
Metoclopramide

>  <CAS_NUMBER>
364-62-5

>  <UNII>
L4YEB44I46

>  <SYNONYMS>
2-methoxy-4-amino-5-chloro-N,N-(dimethylaminoethyl)benzamide; 2-methoxy-5-chloroprocainamide; 4-amino-5-chloro-2-methoxy-N-(Î²-diethylaminoethyl)benzamide; 4-amino-5-chloro-N-(2-(diethylamino)ethyl)-o-anisamide; Metoclopramida; Metoclopramide; Metoclopramidum

$$$$
