
 OpenBabel10282417143D

 31 32  0  0  1  0  0  0  0  0999 V2000
    3.9738   -7.3898   -1.2595 C   0  0  0  0  0  0  0  0  0  0  0  0
    3.3485   -6.7510   -0.0613 C   0  0  0  0  0  0  0  0  0  0  0  0
    2.8604   -7.6108    0.8722 C   0  0  0  0  0  0  0  0  0  0  0  0
    2.9001   -8.9853    0.7553 N   0  0  0  0  0  0  0  0  0  0  0  0
    3.3172   -5.3563    0.0172 N   0  0  0  0  0  0  0  0  0  0  0  0
    2.3075   -7.0625    2.0141 N   0  0  0  0  0  0  0  0  0  0  0  0
    3.9896   -8.7525   -1.2795 N   0  0  0  0  0  0  0  0  0  0  0  0
    3.4558   -9.5095   -0.2886 C   0  0  0  0  0  0  0  0  0  0  0  0
    2.7482   -4.8341    1.0693 C   0  0  0  0  0  0  0  0  0  0  0  0
    2.1113   -5.6449    2.1958 C   0  0  0  0  0  0  0  0  0  0  0  0
    4.4623   -6.7456   -2.1894 O   0  0  0  0  0  0  0  0  0  0  0  0
    3.5376  -10.8507   -0.4535 N   0  0  0  0  0  0  0  0  0  0  0  0
    2.5835   -3.3061    1.1964 C   0  0  1  0  0  0  0  0  0  0  0  0
    3.8333   -2.4035    1.2601 C   0  0  2  0  0  0  0  0  0  0  0  0
    1.7331   -2.8798    0.1274 O   0  0  0  0  0  0  0  0  0  0  0  0
    3.8289   -1.4325    0.1908 O   0  0  0  0  0  0  0  0  0  0  0  0
    5.1738   -3.1281    1.2408 C   0  0  0  0  0  0  0  0  0  0  0  0
    6.2295   -2.1645    1.2653 O   0  0  0  0  0  0  0  0  0  0  0  0
    1.8626   -7.7253    2.6378 H   0  0  0  0  0  0  0  0  0  0  0  0
    4.4202   -9.1750   -2.0837 H   0  0  0  0  0  0  0  0  0  0  0  0
    1.0433   -5.4052    2.2136 H   0  0  0  0  0  0  0  0  0  0  0  0
    2.5654   -5.3276    3.1391 H   0  0  0  0  0  0  0  0  0  0  0  0
    3.1505  -11.4506    0.2644 H   0  0  0  0  0  0  0  0  0  0  0  0
    3.9654  -11.2936   -1.2530 H   0  0  0  0  0  0  0  0  0  0  0  0
    2.0203   -3.1292    2.1206 H   0  0  0  0  0  0  0  0  0  0  0  0
    3.7895   -1.8037    2.1797 H   0  0  0  0  0  0  0  0  0  0  0  0
    2.2861   -2.9719   -0.6776 H   0  0  0  0  0  0  0  0  0  0  0  0
    3.0621   -0.8516    0.3648 H   0  0  0  0  0  0  0  0  0  0  0  0
    5.2780   -3.7714    2.1181 H   0  0  0  0  0  0  0  0  0  0  0  0
    5.3030   -3.7154    0.3295 H   0  0  0  0  0  0  0  0  0  0  0  0
    6.0660   -1.5986    0.4831 H   0  0  0  0  0  0  0  0  0  0  0  0
  1  2  1  0  0  0  0
  1  7  1  0  0  0  0
  2  3  2  0  0  0  0
  4  3  1  0  0  0  0
  5  2  1  0  0  0  0
  6  3  1  0  0  0  0
  6 19  1  0  0  0  0
  7 20  1  0  0  0  0
  8  4  2  0  0  0  0
  8  7  1  0  0  0  0
  9  5  2  0  0  0  0
 10  9  1  0  0  0  0
 10  6  1  0  0  0  0
 10 21  1  0  0  0  0
 10 22  1  0  0  0  0
 11  1  2  0  0  0  0
 12  8  1  0  0  0  0
 12 23  1  0  0  0  0
 12 24  1  0  0  0  0
 13  9  1  0  0  0  0
 13 15  1  0  0  0  0
 13 25  1  1  0  0  0
 14 17  1  0  0  0  0
 14 26  1  1  0  0  0
 14 16  1  0  0  0  0
 14 13  1  0  0  0  0
 15 27  1  0  0  0  0
 16 28  1  0  0  0  0
 17 18  1  0  0  0  0
 17 29  1  0  0  0  0
 17 30  1  0  0  0  0
 18 31  1  0  0  0  0
M  END
>  <DRUGBANK_ID>
DB04425

>  <SECONDARY_ACCESSION_NUMBERS>
EXPT02386

>  <COMMON_NAME>
7,8-Dihydroneopterin

$$$$
