215
 OpenBabel10282417103D

 45 47  0  0  1  0  0  0  0  0999 V2000
    2.2458    0.4437   -0.0942 F   0  0  0  0  0  0  0  0  0  0  0  0
   -4.1086    0.8373   -1.2008 O   0  0  0  0  0  0  0  0  0  0  0  0
   -1.1604   -3.0531    0.3978 N   0  0  0  0  0  0  0  0  0  0  0  0
   -6.5986    4.9012    4.0831 N   0  0  0  0  0  0  0  0  0  0  0  0
   -3.5041    0.2918    0.0113 C   0  0  3  0  0  0  0  0  0  0  0  0
   -3.9694   -1.3040   -0.0375 C   0  0  0  0  0  0  0  0  0  0  0  0
   -4.1680    1.0704    1.1406 C   0  0  0  0  0  0  0  0  0  0  0  0
   -4.9183    2.0919    0.5804 C   0  0  0  0  0  0  0  0  0  0  0  0
   -3.3500   -2.3615   -1.0837 C   0  0  0  0  0  0  0  0  0  0  0  0
   -2.0002    0.6812   -0.0788 C   0  0  0  0  0  0  0  0  0  0  0  0
   -4.9190    1.9799   -0.8913 C   0  0  0  0  0  0  0  0  0  0  0  0
   -1.7980   -2.6936   -1.0765 C   0  0  0  0  0  0  0  0  0  0  0  0
   -4.0353    1.0229    2.5260 C   0  0  0  0  0  0  0  0  0  0  0  0
   -5.5361    3.0840    1.3289 C   0  0  0  0  0  0  0  0  0  0  0  0
   -1.2509    1.8137    0.0011 C   0  0  0  0  0  0  0  0  0  0  0  0
   -1.1440   -0.3196   -0.3190 C   0  0  0  0  0  0  0  0  0  0  0  0
   -4.6607    2.0218    3.3100 C   0  0  0  0  0  0  0  0  0  0  0  0
   -5.4098    3.0503    2.7124 C   0  0  0  0  0  0  0  0  0  0  0  0
    0.2058    1.7590    0.0072 C   0  0  0  0  0  0  0  0  0  0  0  0
    0.2060   -0.4299   -0.6530 C   0  0  0  0  0  0  0  0  0  0  0  0
    0.9270    0.6042   -0.2493 C   0  0  0  0  0  0  0  0  0  0  0  0
    0.3227   -3.0535    0.5012 C   0  0  0  0  0  0  0  0  0  0  0  0
   -1.5784   -2.3528    1.6948 C   0  0  0  0  0  0  0  0  0  0  0  0
   -6.0628    4.0786    3.5002 C   0  0  0  0  0  0  0  0  0  0  0  0
   -3.8890   -1.7327    0.9532 H   0  0  0  0  0  0  0  0  0  0  0  0
   -5.0649   -1.3561   -0.1834 H   0  0  0  0  0  0  0  0  0  0  0  0
   -3.8172   -3.3411   -0.9492 H   0  0  0  0  0  0  0  0  0  0  0  0
   -3.6622   -2.0057   -2.0833 H   0  0  0  0  0  0  0  0  0  0  0  0
   -5.9376    1.8089   -1.2465 H   0  0  0  0  0  0  0  0  0  0  0  0
   -4.4777    2.8671   -1.3494 H   0  0  0  0  0  0  0  0  0  0  0  0
   -1.4253   -3.3899   -1.8451 H   0  0  0  0  0  0  0  0  0  0  0  0
   -1.4443   -1.8212   -1.6834 H   0  0  0  0  0  0  0  0  0  0  0  0
   -3.4362    0.2605    3.0170 H   0  0  0  0  0  0  0  0  0  0  0  0
   -6.0938    3.8709    0.8277 H   0  0  0  0  0  0  0  0  0  0  0  0
   -1.7697    2.7469    0.1009 H   0  0  0  0  0  0  0  0  0  0  0  0
   -1.7096   -1.1375   -0.0213 H   0  0  0  0  0  0  0  0  0  0  0  0
   -4.5477    2.0053    4.3941 H   0  0  0  0  0  0  0  0  0  0  0  0
    0.7971    2.6392    0.1639 H   0  0  0  0  0  0  0  0  0  0  0  0
    0.6967   -1.3354   -0.9917 H   0  0  0  0  0  0  0  0  0  0  0  0
    0.7565   -2.0900    0.8206 H   0  0  0  0  0  0  0  0  0  0  0  0
    0.6678   -3.6669    1.3395 H   0  0  0  0  0  0  0  0  0  0  0  0
    0.8035   -3.3906   -0.4165 H   0  0  0  0  0  0  0  0  0  0  0  0
   -1.3664   -1.2691    1.8165 H   0  0  0  0  0  0  0  0  0  0  0  0
   -2.6207   -2.5046    1.9373 H   0  0  0  0  0  0  0  0  0  0  0  0
   -1.0376   -2.7413    2.5677 H   0  0  0  0  0  0  0  0  0  0  0  0
  1 21  1  0  0  0  0
  2  5  1  0  0  0  0
  2 11  1  0  0  0  0
  3 12  1  0  0  0  0
  3 22  1  0  0  0  0
  3 23  1  0  0  0  0
  4 24  3  0  0  0  0
  5  6  1  0  0  0  0
  5  7  1  0  0  0  0
  5 10  1  0  0  0  0
  6  9  1  0  0  0  0
  6 25  1  0  0  0  0
  6 26  1  0  0  0  0
  7  8  2  0  0  0  0
  7 13  1  0  0  0  0
  8 11  1  0  0  0  0
  8 14  1  0  0  0  0
  9 12  1  0  0  0  0
  9 27  1  0  0  0  0
  9 28  1  0  0  0  0
 10 15  2  0  0  0  0
 10 16  1  0  0  0  0
 11 29  1  0  0  0  0
 11 30  1  0  0  0  0
 12 31  1  0  0  0  0
 12 32  1  0  0  0  0
 13 17  2  0  0  0  0
 13 33  1  0  0  0  0
 14 18  2  0  0  0  0
 14 34  1  0  0  0  0
 15 19  1  0  0  0  0
 15 35  1  0  0  0  0
 16 20  2  0  0  0  0
 16 36  1  0  0  0  0
 17 18  1  0  0  0  0
 17 37  1  0  0  0  0
 18 24  1  0  0  0  0
 19 21  2  0  0  0  0
 19 38  1  0  0  0  0
 20 21  1  0  0  0  0
 20 39  1  0  0  0  0
 22 40  1  0  0  0  0
 22 41  1  0  0  0  0
 22 42  1  0  0  0  0
 23 43  1  0  0  0  0
 23 44  1  0  0  0  0
 23 45  1  0  0  0  0
M  END
>  <DRUGBANK_ID>
DB00215

>  <SECONDARY_ACCESSION_NUMBERS>
APRD00147

>  <COMMON_NAME>
Citalopram

>  <CAS_NUMBER>
59729-33-8

>  <UNII>
0DHU5B8D6V

>  <SYNONYMS>
Citalopram; Citalopramum; Nitalapram

$$$$
