
 OpenBabel10282417203D

 38 40  0  0  0  0  0  0  0  0999 V2000
   -1.0584    0.3340   -0.8548 C   0  0  0  0  0  0  0  0  0  0  0  0
   -0.7283   -1.2034   -0.5816 C   0  0  0  0  0  0  0  0  0  0  0  0
   -0.2307    1.5170   -0.2904 C   0  0  0  0  0  0  0  0  0  0  0  0
    0.7533   -1.3380   -0.5971 C   0  0  0  0  0  0  0  0  0  0  0  0
    1.2041    1.2309   -0.5035 C   0  0  0  0  0  0  0  0  0  0  0  0
   -2.4348   -0.5264    1.3188 C   0  0  0  0  0  0  0  0  0  0  0  0
   -1.8093    1.6840    2.7561 C   0  0  0  0  0  0  0  0  0  0  0  0
    0.5247   -1.2712    2.1137 C   0  0  0  0  0  0  0  0  0  0  0  0
   -1.1060   -0.5884    2.0617 C   0  0  0  0  0  0  0  0  0  0  0  0
    1.4551   -0.0929    0.1831 C   0  0  0  0  0  0  0  0  0  0  0  0
   -0.9006    0.6013    2.6925 C   0  0  0  0  0  0  0  0  0  0  0  0
   -3.2951    0.7081    1.1829 C   0  0  0  0  0  0  0  0  0  0  0  0
   -2.9262    1.8234    1.9042 C   0  0  0  0  0  0  0  0  0  0  0  0
    0.5502    0.6712    2.8500 C   0  0  0  0  0  0  0  0  0  0  0  0
   -4.4084    0.9090   -0.2013 Cl  0  0  0  0  0  0  0  0  0  0  0  0
   -3.3748    4.2456    0.4132 N   0  0  0  0  0  0  0  0  0  0  0  0
    1.2102   -0.0588    1.8017 N   0  0  0  0  0  0  0  0  0  0  0  0
    0.8918    0.6254    4.0367 O   0  0  0  0  0  0  0  0  0  0  0  0
   -5.1468    3.2573    1.9077 O   0  0  0  0  0  0  0  0  0  0  0  0
   -3.0348    4.2351    2.8613 O   0  0  0  0  0  0  0  0  0  0  0  0
   -3.7405    3.4150    1.8510 S   0  0  0  0  0  0  0  0  0  0  0  0
   -1.1377    0.4124   -1.9345 H   0  0  0  0  0  0  0  0  0  0  0  0
   -2.0341    0.6563   -0.5927 H   0  0  0  0  0  0  0  0  0  0  0  0
   -0.9526   -1.7935    0.3264 H   0  0  0  0  0  0  0  0  0  0  0  0
   -1.3357   -1.8651   -1.2191 H   0  0  0  0  0  0  0  0  0  0  0  0
   -0.5615    2.4774   -0.6972 H   0  0  0  0  0  0  0  0  0  0  0  0
   -0.3309    1.7259    0.7679 H   0  0  0  0  0  0  0  0  0  0  0  0
    1.0286   -2.3129   -0.1540 H   0  0  0  0  0  0  0  0  0  0  0  0
    1.0015   -1.4294   -1.6514 H   0  0  0  0  0  0  0  0  0  0  0  0
    1.8413    2.0020   -0.0657 H   0  0  0  0  0  0  0  0  0  0  0  0
    1.3718    1.1919   -1.5864 H   0  0  0  0  0  0  0  0  0  0  0  0
   -2.7450   -1.2233    0.5167 H   0  0  0  0  0  0  0  0  0  0  0  0
   -1.5617    2.4829    3.4354 H   0  0  0  0  0  0  0  0  0  0  0  0
    0.8602   -1.5705    3.1266 H   0  0  0  0  0  0  0  0  0  0  0  0
    1.3288   -1.7982    1.5461 H   0  0  0  0  0  0  0  0  0  0  0  0
    2.5167   -0.3207    0.0453 H   0  0  0  0  0  0  0  0  0  0  0  0
   -3.8821    5.1453    0.4601 H   0  0  0  0  0  0  0  0  0  0  0  0
   -2.3883    4.4683    0.2838 H   0  0  0  0  0  0  0  0  0  0  0  0
  1 22  1  0  0  0  0
  1 23  1  0  0  0  0
  2  1  1  0  0  0  0
  2 24  1  0  0  0  0
  2 25  1  0  0  0  0
  3  1  1  0  0  0  0
  3 26  1  0  0  0  0
  3 27  1  0  0  0  0
  4  2  1  0  0  0  0
  4 28  1  0  0  0  0
  4 29  1  0  0  0  0
  5  3  1  0  0  0  0
  5 30  1  0  0  0  0
  5 31  1  0  0  0  0
  6 32  1  0  0  0  0
  7 33  1  0  0  0  0
  8 34  1  0  0  0  0
  8 35  1  0  0  0  0
  9  6  2  0  0  0  0
  9  8  1  0  0  0  0
 10  4  1  0  0  0  0
 10  5  1  0  0  0  0
 10 36  1  0  0  0  0
 11  7  2  0  0  0  0
 11  9  1  0  0  0  0
 12  6  1  0  0  0  0
 13  7  1  0  0  0  0
 13 12  2  0  0  0  0
 14 11  1  0  0  0  0
 15 12  1  0  0  0  0
 16 37  1  0  0  0  0
 16 38  1  0  0  0  0
 17  8  1  0  0  0  0
 17 10  1  0  0  0  0
 17 14  1  0  0  0  0
 18 14  2  0  0  0  0
 21 13  1  0  0  0  0
 21 16  1  0  0  0  0
 21 19  2  0  0  0  0
 21 20  2  0  0  0  0
M  END
>  <DRUGBANK_ID>
DB13617

>  <COMMON_NAME>
Clorexolone

>  <CAS_NUMBER>
2127-01-7

>  <UNII>
Q2PLT3FS05

>  <SYNONYMS>
Clorexolone

$$$$
