
 OpenBabel10282417163D

 37 37  0  0  1  0  0  0  0  0999 V2000
    0.8932   -0.3680    0.3797 C   0  0  0  0  0  0  0  0  0  0  0  0
    4.6938    2.7073    0.0922 C   0  0  0  0  0  0  0  0  0  0  0  0
    3.6839    3.4167    3.1452 C   0  0  0  0  0  0  0  0  0  0  0  0
    0.2042   -1.0092   -0.5713 C   0  0  0  0  0  0  0  0  0  0  0  0
   -1.2567   -0.7883   -0.7685 C   0  0  0  0  0  0  0  0  0  0  0  0
    2.4915    4.5561    0.4848 C   0  0  0  0  0  0  0  0  0  0  0  0
   -1.1113    3.0470   -1.9121 C   0  0  0  0  0  0  0  0  0  0  0  0
    3.3199    2.1344    0.4475 C   0  0  2  0  0  0  0  0  0  0  0  0
    3.5669    1.9348    2.9900 C   0  0  0  0  0  0  0  0  0  0  0  0
    2.0743    3.0822    0.3456 C   0  0  2  0  0  0  0  0  0  0  0  0
   -0.5694    1.8259   -1.9371 C   0  0  0  0  0  0  0  0  0  0  0  0
    1.3384    3.0045   -1.0100 C   0  0  1  0  0  0  0  0  0  0  0  0
   -1.3243    0.7794   -2.6842 C   0  0  0  0  0  0  0  0  0  0  0  0
    0.6966    1.7284   -1.3413 N   0  0  0  0  0  0  0  0  0  0  0  0
    1.7392    5.5125    0.6564 O   0  0  0  0  0  0  0  0  0  0  0  0
    3.6150    1.2024    3.9616 O   0  0  0  0  0  0  0  0  0  0  0  0
   -1.7957    1.0396   -3.7868 O   0  0  0  0  0  0  0  0  0  0  0  0
   -1.5025   -0.4486   -2.1417 O   0  0  0  0  0  0  0  0  0  0  0  0
    3.3992    1.4344    1.7380 O   0  0  0  0  0  0  0  0  0  0  0  0
   -0.1170    4.1840   -1.0915 S   0  0  0  0  0  0  0  0  0  0  0  0
    3.1776    1.3148   -0.2673 H   0  0  0  0  0  0  0  0  0  0  0  0
    1.4003    2.8258    1.1766 H   0  0  0  0  0  0  0  0  0  0  0  0
    2.0348    3.2578   -1.8139 H   0  0  0  0  0  0  0  0  0  0  0  0
    0.3998    0.3628    1.0196 H   0  0  0  0  0  0  0  0  0  0  0  0
    1.9736   -0.4167    0.4021 H   0  0  0  0  0  0  0  0  0  0  0  0
    5.0756    3.3963    0.8493 H   0  0  0  0  0  0  0  0  0  0  0  0
    5.4499    1.9182    0.0414 H   0  0  0  0  0  0  0  0  0  0  0  0
    4.6523    3.2276   -0.8680 H   0  0  0  0  0  0  0  0  0  0  0  0
    2.8454    3.8200    3.7136 H   0  0  0  0  0  0  0  0  0  0  0  0
    4.6543    3.6950    3.5547 H   0  0  0  0  0  0  0  0  0  0  0  0
    3.6564    3.9047    2.2007 H   0  0  0  0  0  0  0  0  0  0  0  0
    0.7237   -1.6196   -1.3054 H   0  0  0  0  0  0  0  0  0  0  0  0
   -1.7679   -1.7381   -0.5735 H   0  0  0  0  0  0  0  0  0  0  0  0
   -1.6939   -0.0408   -0.0962 H   0  0  0  0  0  0  0  0  0  0  0  0
    3.5613    4.7895    0.4397 H   0  0  0  0  0  0  0  0  0  0  0  0
   -2.0445    3.3439   -2.3655 H   0  0  0  0  0  0  0  0  0  0  0  0
    1.2694    0.9601   -1.6810 H   0  0  0  0  0  0  0  0  0  0  0  0
  1 24  1  0  0  0  0
  1 25  1  0  0  0  0
  2 26  1  0  0  0  0
  2 27  1  0  0  0  0
  2 28  1  0  0  0  0
  3 29  1  0  0  0  0
  3 30  1  0  0  0  0
  3 31  1  0  0  0  0
  4  1  2  0  0  0  0
  4 32  1  0  0  0  0
  5  4  1  0  0  0  0
  5 33  1  0  0  0  0
  5 34  1  0  0  0  0
  6 35  1  0  0  0  0
  7 36  1  0  0  0  0
  8  2  1  0  0  0  0
  8 21  1  6  0  0  0
  9  3  1  0  0  0  0
 10 22  1  1  0  0  0
 10  8  1  0  0  0  0
 10  6  1  0  0  0  0
 11  7  2  0  0  0  0
 12 10  1  0  0  0  0
 12 23  1  6  0  0  0
 13 11  1  0  0  0  0
 14 11  1  0  0  0  0
 14 12  1  0  0  0  0
 14 37  1  0  0  0  0
 15  6  2  0  0  0  0
 16  9  2  0  0  0  0
 17 13  2  0  0  0  0
 18  5  1  0  0  0  0
 18 13  1  0  0  0  0
 19  8  1  0  0  0  0
 19  9  1  0  0  0  0
 20  7  1  0  0  0  0
 20 12  1  0  0  0  0
M  END
>  <DRUGBANK_ID>
DB06904

>  <COMMON_NAME>
(5S,6S)-6-[(R)ACETOXYETH-2-YL]-PENEM-3-CARBOXYLATEPROPANE

$$$$
