
 OpenBabel10282417243D

 41 43  0  0  1  0  0  0  0  0999 V2000
    0.9251    0.1781   -0.1808 N   0  0  0  0  0  0  0  0  0  0  0  0
    0.2397    1.2591    0.2814 C   0  0  0  0  0  0  0  0  0  0  0  0
   -0.8030    1.1655    1.0584 N   0  0  0  0  0  0  0  0  0  0  0  0
   -1.4360    2.3516    1.3416 C   0  0  0  0  0  0  0  0  0  0  0  0
   -2.5371    2.5351    2.1605 N   0  0  0  0  0  0  0  0  0  0  0  0
   -3.2485    1.5695    2.9476 C   0  0  2  0  0  0  0  0  0  0  0  0
   -4.6124    1.4891    2.4849 O   0  0  0  0  0  0  0  0  0  0  0  0
   -5.5109    1.4493    3.6249 C   0  0  2  0  0  0  0  0  0  0  0  0
   -6.3914    2.7158    3.6729 C   0  0  0  0  0  0  0  0  0  0  0  0
   -5.9511    3.6893    4.6143 O   0  0  0  0  0  0  0  0  0  0  0  0
   -4.6362    1.2329    4.8596 C   0  0  1  0  0  0  0  0  0  0  0  0
   -4.4623   -0.1675    5.1385 O   0  0  0  0  0  0  0  0  0  0  0  0
   -3.3088    1.8673    4.4575 C   0  0  1  0  0  0  0  0  0  0  0  0
   -2.2057    1.3138    5.1775 O   0  0  0  0  0  0  0  0  0  0  0  0
   -2.8930    3.9014    2.1409 C   0  0  0  0  0  0  0  0  0  0  0  0
   -3.7888    4.4484    2.7705 O   0  0  0  0  0  0  0  0  0  0  0  0
   -1.9917    4.5133    1.2551 N   0  0  0  0  0  0  0  0  0  0  0  0
   -1.9763    5.9227    0.9726 C   0  0  0  0  0  0  0  0  0  0  0  0
   -3.2746    6.3244    0.3311 C   0  0  0  0  0  0  0  0  0  0  0  0
   -4.1084    7.2267    0.8679 C   0  0  0  0  0  0  0  0  0  0  0  0
   -1.1121    3.5496    0.8340 C   0  0  0  0  0  0  0  0  0  0  0  0
    0.0571    3.6485   -0.0353 C   0  0  0  0  0  0  0  0  0  0  0  0
    0.4258    4.6764   -0.5875 O   0  0  0  0  0  0  0  0  0  0  0  0
    0.7115    2.4543   -0.1946 N   0  0  0  0  0  0  0  0  0  0  0  0
    0.5218   -0.7256    0.0383 H   0  0  0  0  0  0  0  0  0  0  0  0
    1.9357    0.1889   -0.0846 H   0  0  0  0  0  0  0  0  0  0  0  0
   -2.7969    0.5849    2.7832 H   0  0  0  0  0  0  0  0  0  0  0  0
   -6.1670    0.5921    3.4342 H   0  0  0  0  0  0  0  0  0  0  0  0
   -6.4421    3.2004    2.6922 H   0  0  0  0  0  0  0  0  0  0  0  0
   -7.4132    2.4418    3.9597 H   0  0  0  0  0  0  0  0  0  0  0  0
   -6.0754    3.3504    5.5149 H   0  0  0  0  0  0  0  0  0  0  0  0
   -5.0533    1.6558    5.7766 H   0  0  0  0  0  0  0  0  0  0  0  0
   -4.1588   -0.6173    4.3336 H   0  0  0  0  0  0  0  0  0  0  0  0
   -3.3323    2.9406    4.6671 H   0  0  0  0  0  0  0  0  0  0  0  0
   -2.3033    0.3449    5.1507 H   0  0  0  0  0  0  0  0  0  0  0  0
   -1.8286    6.4507    1.9213 H   0  0  0  0  0  0  0  0  0  0  0  0
   -1.1553    6.1872    0.3053 H   0  0  0  0  0  0  0  0  0  0  0  0
   -3.5496    5.8323   -0.5985 H   0  0  0  0  0  0  0  0  0  0  0  0
   -5.0541    7.4736    0.3982 H   0  0  0  0  0  0  0  0  0  0  0  0
   -3.8781    7.7105    1.8132 H   0  0  0  0  0  0  0  0  0  0  0  0
    1.4743    2.4612   -0.8526 H   0  0  0  0  0  0  0  0  0  0  0  0
  1  2  1  0  0  0  0
  1 25  1  0  0  0  0
  1 26  1  0  0  0  0
  2  3  2  0  0  0  0
  2 24  1  0  0  0  0
  3  4  1  0  0  0  0
  4  5  1  0  0  0  0
  4 21  2  0  0  0  0
  5 15  1  0  0  0  0
  6  5  1  0  0  0  0
  6  7  1  0  0  0  0
  6 27  1  6  0  0  0
  8  7  1  0  0  0  0
  8 28  1  6  0  0  0
  8  9  1  0  0  0  0
  9 10  1  0  0  0  0
  9 29  1  0  0  0  0
  9 30  1  0  0  0  0
 10 31  1  0  0  0  0
 11  8  1  0  0  0  0
 11 12  1  0  0  0  0
 11 13  1  0  0  0  0
 11 32  1  1  0  0  0
 12 33  1  0  0  0  0
 13  6  1  0  0  0  0
 13 14  1  0  0  0  0
 13 34  1  1  0  0  0
 14 35  1  0  0  0  0
 15 16  2  0  0  0  0
 15 17  1  0  0  0  0
 17 18  1  0  0  0  0
 17 21  1  0  0  0  0
 18 19  1  0  0  0  0
 18 36  1  0  0  0  0
 18 37  1  0  0  0  0
 19 20  2  0  0  0  0
 19 38  1  0  0  0  0
 20 39  1  0  0  0  0
 20 40  1  0  0  0  0
 21 22  1  0  0  0  0
 22 23  2  0  0  0  0
 22 24  1  0  0  0  0
 24 41  1  0  0  0  0
M  END
>  <DRUGBANK_ID>
DB17589

>  <COMMON_NAME>
Loxoribine

>  <CAS_NUMBER>
121288-39-9

>  <UNII>
9CAS0V66OI

>  <SYNONYMS>
7-Allyl-7,8-dihydro-8-oxoguanosine

$$$$
