
 OpenBabel10282417223D

 36 37  0  0  0  0  0  0  0  0999 V2000
    0.9469    0.0371    0.0375 C   0  0  0  0  0  0  0  0  0  0  0  0
    0.4289   -0.2545    1.4570 C   0  0  0  0  0  0  0  0  0  0  0  0
    0.9027    0.8933    2.3803 C   0  0  0  0  0  0  0  0  0  0  0  0
   -1.1135   -0.2425    1.4615 C   0  0  0  0  0  0  0  0  0  0  0  0
    0.9054   -1.6310    1.9366 C   0  0  0  0  0  0  0  0  0  0  0  0
    1.6814   -1.7677    3.0901 C   0  0  0  0  0  0  0  0  0  0  0  0
    2.0317   -3.0181    3.5861 C   0  0  0  0  0  0  0  0  0  0  0  0
    1.5896   -4.1834    2.9584 C   0  0  0  0  0  0  0  0  0  0  0  0
    1.8750   -5.4633    3.3914 O   0  0  0  0  0  0  0  0  0  0  0  0
    2.6599   -5.6004    4.5176 C   0  0  0  0  0  0  0  0  0  0  0  0
    2.1840   -5.1809    5.7593 C   0  0  0  0  0  0  0  0  0  0  0  0
    3.0361   -5.2626    6.8564 C   0  0  0  0  0  0  0  0  0  0  0  0
    4.3135   -5.7913    6.7160 C   0  0  0  0  0  0  0  0  0  0  0  0
    5.1206   -5.9869    7.8243 N   0  0  0  0  0  0  0  0  0  0  0  0
    4.6610   -6.2508    5.4406 C   0  0  0  0  0  0  0  0  0  0  0  0
    3.8731   -6.1563    4.3400 N   0  0  0  0  0  0  0  0  0  0  0  0
    0.8240   -4.0717    1.8002 C   0  0  0  0  0  0  0  0  0  0  0  0
    0.5184   -2.8106    1.2704 C   0  0  0  0  0  0  0  0  0  0  0  0
    0.6077    1.0211   -0.3075 H   0  0  0  0  0  0  0  0  0  0  0  0
    0.5938   -0.7006   -0.6911 H   0  0  0  0  0  0  0  0  0  0  0  0
    2.0428    0.0324    0.0069 H   0  0  0  0  0  0  0  0  0  0  0  0
    0.5313    1.8658    2.0429 H   0  0  0  0  0  0  0  0  0  0  0  0
    0.5440    0.7510    3.4080 H   0  0  0  0  0  0  0  0  0  0  0  0
    1.9978    0.9555    2.4111 H   0  0  0  0  0  0  0  0  0  0  0  0
   -1.5338   -0.9901    0.7794 H   0  0  0  0  0  0  0  0  0  0  0  0
   -1.5033   -0.4609    2.4635 H   0  0  0  0  0  0  0  0  0  0  0  0
   -1.5041    0.7332    1.1543 H   0  0  0  0  0  0  0  0  0  0  0  0
    2.0364   -0.9101    3.6545 H   0  0  0  0  0  0  0  0  0  0  0  0
    2.6427   -3.0310    4.4792 H   0  0  0  0  0  0  0  0  0  0  0  0
    1.1977   -4.7455    5.8515 H   0  0  0  0  0  0  0  0  0  0  0  0
    2.6916   -4.8960    7.8208 H   0  0  0  0  0  0  0  0  0  0  0  0
    6.0857   -6.2638    7.7049 H   0  0  0  0  0  0  0  0  0  0  0  0
    4.8795   -5.5270    8.6961 H   0  0  0  0  0  0  0  0  0  0  0  0
    5.6248   -6.7159    5.2640 H   0  0  0  0  0  0  0  0  0  0  0  0
    0.4554   -4.9646    1.2981 H   0  0  0  0  0  0  0  0  0  0  0  0
   -0.0444   -2.7615    0.3413 H   0  0  0  0  0  0  0  0  0  0  0  0
  1  2  1  0  0  0  0
  1 19  1  0  0  0  0
  1 20  1  0  0  0  0
  1 21  1  0  0  0  0
  2  3  1  0  0  0  0
  2  4  1  0  0  0  0
  2  5  1  0  0  0  0
  3 22  1  0  0  0  0
  3 23  1  0  0  0  0
  3 24  1  0  0  0  0
  4 25  1  0  0  0  0
  4 26  1  0  0  0  0
  4 27  1  0  0  0  0
  5  6  2  0  0  0  0
  5 18  1  0  0  0  0
  6  7  1  0  0  0  0
  6 28  1  0  0  0  0
  7  8  2  0  0  0  0
  7 29  1  0  0  0  0
  8  9  1  0  0  0  0
  8 17  1  0  0  0  0
  9 10  1  0  0  0  0
 10 11  2  0  0  0  0
 10 16  1  0  0  0  0
 11 12  1  0  0  0  0
 11 30  1  0  0  0  0
 12 13  2  0  0  0  0
 12 31  1  0  0  0  0
 13 14  1  0  0  0  0
 13 15  1  0  0  0  0
 14 32  1  0  0  0  0
 14 33  1  0  0  0  0
 15 16  2  0  0  0  0
 15 34  1  0  0  0  0
 17 18  2  0  0  0  0
 17 35  1  0  0  0  0
 18 36  1  0  0  0  0
M  END
>  <DRUGBANK_ID>
DB15279

>  <COMMON_NAME>
CB-103

>  <CAS_NUMBER>
218457-67-1

>  <UNII>
Q5BB91JL0V

>  <SYNONYMS>
3-PYRIDINAMINE, 6-(4-(1,1-DIMETHYLETHYL)PHENOXY)-; 6-(4-(1,1-Dimethylethyl)phenoxy)-3-pyridinamine

$$$$
