
 OpenBabel10282417233D

 68 71  0  0  0  0  0  0  0  0999 V2000
    0.9590    0.0367    0.0821 C   0  0  0  0  0  0  0  0  0  0  0  0
    0.4258    0.2074   -1.3412 C   0  0  0  0  0  0  0  0  0  0  0  0
    1.0408   -0.8075   -2.3188 C   0  0  0  0  0  0  0  0  0  0  0  0
   -1.1084    0.2346   -1.3454 C   0  0  0  0  0  0  0  0  0  0  0  0
   -1.8413   -0.9576   -1.3160 C   0  0  0  0  0  0  0  0  0  0  0  0
   -1.3011   -2.2087   -1.1385 O   0  0  0  0  0  0  0  0  0  0  0  0
   -3.2233   -0.9730   -1.4659 C   0  0  0  0  0  0  0  0  0  0  0  0
   -3.8111   -2.2119   -1.4839 O   0  0  0  0  0  0  0  0  0  0  0  0
   -3.9553    0.2063   -1.5874 C   0  0  0  0  0  0  0  0  0  0  0  0
   -5.4351    0.0684   -1.8081 C   0  0  0  0  0  0  0  0  0  0  0  0
   -6.0532   -0.9950   -1.8608 O   0  0  0  0  0  0  0  0  0  0  0  0
   -3.2719    1.4738   -1.5011 C   0  0  0  0  0  0  0  0  0  0  0  0
   -3.9065    2.7575   -1.5156 C   0  0  0  0  0  0  0  0  0  0  0  0
   -5.2802    2.7844   -1.5761 O   0  0  0  0  0  0  0  0  0  0  0  0
   -3.2226    3.9953   -1.3955 C   0  0  0  0  0  0  0  0  0  0  0  0
   -1.8321    3.9681   -1.2519 C   0  0  0  0  0  0  0  0  0  0  0  0
   -0.9804    5.2130   -1.1334 C   0  0  0  0  0  0  0  0  0  0  0  0
   -1.1791    2.7273   -1.2644 C   0  0  0  0  0  0  0  0  0  0  0  0
   -1.8398    1.4727   -1.3768 C   0  0  0  0  0  0  0  0  0  0  0  0
   -3.9609    5.2791   -1.4038 C   0  0  0  0  0  0  0  0  0  0  0  0
   -4.9054    5.5904   -0.3910 C   0  0  0  0  0  0  0  0  0  0  0  0
   -5.1570    4.6369    0.5678 O   0  0  0  0  0  0  0  0  0  0  0  0
   -5.6752    6.7981   -0.3393 C   0  0  0  0  0  0  0  0  0  0  0  0
   -5.4366    7.7523   -1.3888 C   0  0  0  0  0  0  0  0  0  0  0  0
   -4.4751    7.4173   -2.3819 C   0  0  0  0  0  0  0  0  0  0  0  0
   -3.7619    6.2116   -2.4246 C   0  0  0  0  0  0  0  0  0  0  0  0
   -2.7783    6.0171   -3.5576 C   0  0  0  0  0  0  0  0  0  0  0  0
   -6.1659    8.9930   -1.4316 C   0  0  0  0  0  0  0  0  0  0  0  0
   -5.8477   10.0871   -2.4583 C   0  0  0  0  0  0  0  0  0  0  0  0
   -6.9970   10.3231   -3.4434 C   0  0  0  0  0  0  0  0  0  0  0  0
   -5.3681   11.3750   -1.7756 C   0  0  0  0  0  0  0  0  0  0  0  0
   -7.1712    9.1966   -0.4757 C   0  0  0  0  0  0  0  0  0  0  0  0
   -8.0150   10.2811   -0.4210 O   0  0  0  0  0  0  0  0  0  0  0  0
   -7.4014    8.2873    0.5514 C   0  0  0  0  0  0  0  0  0  0  0  0
   -8.3851    8.6292    1.4447 O   0  0  0  0  0  0  0  0  0  0  0  0
   -6.6621    7.1122    0.6650 C   0  0  0  0  0  0  0  0  0  0  0  0
   -6.9432    6.2468    1.8611 C   0  0  0  0  0  0  0  0  0  0  0  0
   -7.7907    6.4739    2.7248 O   0  0  0  0  0  0  0  0  0  0  0  0
    0.6373   -0.9070    0.5310 H   0  0  0  0  0  0  0  0  0  0  0  0
    0.6041    0.8438    0.7336 H   0  0  0  0  0  0  0  0  0  0  0  0
    2.0535    0.0562    0.0928 H   0  0  0  0  0  0  0  0  0  0  0  0
    0.8131    1.1584   -1.7188 H   0  0  0  0  0  0  0  0  0  0  0  0
    0.8436   -1.8505   -2.0711 H   0  0  0  0  0  0  0  0  0  0  0  0
    0.6617   -0.6371   -3.3324 H   0  0  0  0  0  0  0  0  0  0  0  0
    2.1306   -0.7086   -2.3369 H   0  0  0  0  0  0  0  0  0  0  0  0
   -0.4380   -2.1352   -0.7051 H   0  0  0  0  0  0  0  0  0  0  0  0
   -3.0803   -2.8542   -1.4023 H   0  0  0  0  0  0  0  0  0  0  0  0
   -6.0360    0.9614   -1.9598 H   0  0  0  0  0  0  0  0  0  0  0  0
   -5.6496    3.6816   -1.6346 H   0  0  0  0  0  0  0  0  0  0  0  0
   -0.3794    5.1915   -0.2224 H   0  0  0  0  0  0  0  0  0  0  0  0
   -0.3215    5.2913   -2.0066 H   0  0  0  0  0  0  0  0  0  0  0  0
   -1.5598    6.1379   -1.0867 H   0  0  0  0  0  0  0  0  0  0  0  0
   -0.0973    2.7795   -1.1605 H   0  0  0  0  0  0  0  0  0  0  0  0
   -4.5749    3.8611    0.5062 H   0  0  0  0  0  0  0  0  0  0  0  0
   -4.2483    8.0979   -3.1978 H   0  0  0  0  0  0  0  0  0  0  0  0
   -3.2760    6.1000   -4.5259 H   0  0  0  0  0  0  0  0  0  0  0  0
   -1.9850    6.7710   -3.4875 H   0  0  0  0  0  0  0  0  0  0  0  0
   -2.2926    5.0389   -3.5539 H   0  0  0  0  0  0  0  0  0  0  0  0
   -5.0017    9.8061   -3.0865 H   0  0  0  0  0  0  0  0  0  0  0  0
   -7.9113   10.6908   -2.9763 H   0  0  0  0  0  0  0  0  0  0  0  0
   -6.7095   11.0652   -4.1949 H   0  0  0  0  0  0  0  0  0  0  0  0
   -7.2574    9.3932   -3.9605 H   0  0  0  0  0  0  0  0  0  0  0  0
   -4.4870   11.1741   -1.1543 H   0  0  0  0  0  0  0  0  0  0  0  0
   -5.0900   12.1258   -2.5218 H   0  0  0  0  0  0  0  0  0  0  0  0
   -6.1199   11.8279   -1.1270 H   0  0  0  0  0  0  0  0  0  0  0  0
   -7.8390   10.9016   -1.1387 H   0  0  0  0  0  0  0  0  0  0  0  0
   -8.7334    9.4888    1.1392 H   0  0  0  0  0  0  0  0  0  0  0  0
   -6.3504    5.3496    2.0195 H   0  0  0  0  0  0  0  0  0  0  0  0
  1  2  1  0  0  0  0
  1 39  1  0  0  0  0
  1 40  1  0  0  0  0
  1 41  1  0  0  0  0
  2  3  1  0  0  0  0
  2  4  1  0  0  0  0
  2 42  1  0  0  0  0
  3 43  1  0  0  0  0
  3 44  1  0  0  0  0
  3 45  1  0  0  0  0
  4  5  2  0  0  0  0
  4 19  1  0  0  0  0
  5  6  1  0  0  0  0
  5  7  1  0  0  0  0
  6 46  1  0  0  0  0
  7  8  1  0  0  0  0
  7  9  2  0  0  0  0
  8 47  1  0  0  0  0
  9 10  1  0  0  0  0
  9 12  1  0  0  0  0
 10 11  2  0  0  0  0
 10 48  1  0  0  0  0
 12 13  2  0  0  0  0
 12 19  1  0  0  0  0
 13 14  1  0  0  0  0
 13 15  1  0  0  0  0
 14 49  1  0  0  0  0
 15 16  2  0  0  0  0
 15 20  1  0  0  0  0
 16 17  1  0  0  0  0
 16 18  1  0  0  0  0
 17 50  1  0  0  0  0
 17 51  1  0  0  0  0
 17 52  1  0  0  0  0
 18 19  2  0  0  0  0
 18 53  1  0  0  0  0
 20 21  2  0  0  0  0
 20 26  1  0  0  0  0
 21 22  1  0  0  0  0
 21 23  1  0  0  0  0
 22 54  1  0  0  0  0
 23 24  2  0  0  0  0
 23 36  1  0  0  0  0
 24 25  1  0  0  0  0
 24 28  1  0  0  0  0
 25 26  2  0  0  0  0
 25 55  1  0  0  0  0
 26 27  1  0  0  0  0
 27 56  1  0  0  0  0
 27 57  1  0  0  0  0
 27 58  1  0  0  0  0
 28 29  1  0  0  0  0
 28 32  2  0  0  0  0
 29 30  1  0  0  0  0
 29 31  1  0  0  0  0
 29 59  1  0  0  0  0
 30 60  1  0  0  0  0
 30 61  1  0  0  0  0
 30 62  1  0  0  0  0
 31 63  1  0  0  0  0
 31 64  1  0  0  0  0
 31 65  1  0  0  0  0
 32 33  1  0  0  0  0
 32 34  1  0  0  0  0
 33 66  1  0  0  0  0
 34 35  1  0  0  0  0
 34 36  2  0  0  0  0
 35 67  1  0  0  0  0
 36 37  1  0  0  0  0
 37 38  2  0  0  0  0
 37 68  1  0  0  0  0
M  END
>  <DRUGBANK_ID>
DB17379

>  <COMMON_NAME>
(R)-Gossypol

>  <CAS_NUMBER>
90141-22-3

>  <UNII>
8DY2X8LXW4

>  <SYNONYMS>
(-)-Gossypol; (r)-2,2'-bis(8-formyl-1,6,7-trihydroxy-5-isopropyl-3-methylnaphthalene); Gossypol r-form; Gossypol, (r)-; Gossypol, r-; R-(-)-gossypol

$$$$
