
 OpenBabel10282417123D

 17 17  0  0  0  0  0  0  0  0999 V2000
    0.9293    0.1600    0.0131 C   0  0  0  0  0  0  0  0  0  0  0  0
    0.4911   -0.7254   -1.1167 C   0  0  0  0  0  0  0  0  0  0  0  0
    0.8868   -2.0705   -1.1741 C   0  0  0  0  0  0  0  0  0  0  0  0
    1.8779   -2.5730   -0.3141 N   0  0  0  0  0  0  0  0  0  0  0  0
    0.4428   -2.8639   -2.2414 C   0  0  0  0  0  0  0  0  0  0  0  0
   -0.5138   -2.3834   -3.1405 C   0  0  0  0  0  0  0  0  0  0  0  0
   -0.8935   -1.0505   -3.0938 C   0  0  0  0  0  0  0  0  0  0  0  0
   -0.3635   -0.2213   -2.1084 C   0  0  0  0  0  0  0  0  0  0  0  0
   -0.6863    1.0772   -2.1232 F   0  0  0  0  0  0  0  0  0  0  0  0
    0.5504   -0.2479    0.9579 H   0  0  0  0  0  0  0  0  0  0  0  0
    0.5427    1.1783   -0.0799 H   0  0  0  0  0  0  0  0  0  0  0  0
    2.0211    0.2131    0.0557 H   0  0  0  0  0  0  0  0  0  0  0  0
    1.8989   -3.5841   -0.2448 H   0  0  0  0  0  0  0  0  0  0  0  0
    1.8866   -2.1321    0.6008 H   0  0  0  0  0  0  0  0  0  0  0  0
    0.8271   -3.8709   -2.3704 H   0  0  0  0  0  0  0  0  0  0  0  0
   -0.9408   -3.0497   -3.8863 H   0  0  0  0  0  0  0  0  0  0  0  0
   -1.5861   -0.6408   -3.8232 H   0  0  0  0  0  0  0  0  0  0  0  0
  1  2  1  0  0  0  0
  1 10  1  0  0  0  0
  1 11  1  0  0  0  0
  1 12  1  0  0  0  0
  2  3  2  0  0  0  0
  2  8  1  0  0  0  0
  3  4  1  0  0  0  0
  3  5  1  0  0  0  0
  4 13  1  0  0  0  0
  4 14  1  0  0  0  0
  5  6  2  0  0  0  0
  5 15  1  0  0  0  0
  6  7  1  0  0  0  0
  6 16  1  0  0  0  0
  7  8  2  0  0  0  0
  7 17  1  0  0  0  0
  8  9  1  0  0  0  0
M  END
>  <DRUGBANK_ID>
DB01986

>  <SECONDARY_ACCESSION_NUMBERS>
EXPT01445

>  <COMMON_NAME>
3-Fluoro-2-Methyl-Aniline

>  <UNII>
W95WMY5PM6

$$$$
