
 OpenBabel10282417203D

 41 41  0  0  0  0  0  0  0  0999 V2000
   -0.7275    1.2150   -0.0763 N   0  0  0  0  0  0  0  0  0  0  0  0
   -1.3488    0.0672   -0.0528 C   0  0  0  0  0  0  0  0  0  0  0  0
   -0.6208   -1.0802   -0.0492 N   0  0  0  0  0  0  0  0  0  0  0  0
    0.7405   -1.1069   -0.0149 C   0  0  0  0  0  0  0  0  0  0  0  0
    1.4039    0.0113   -0.0028 N   0  0  0  0  0  0  0  0  0  0  0  0
    0.6511    1.1554   -0.0337 C   0  0  0  0  0  0  0  0  0  0  0  0
    1.3499    2.2624   -0.0018 N   0  0  0  0  0  0  0  0  0  0  0  0
    1.3809   -2.3395    0.0350 N   0  0  0  0  0  0  0  0  0  0  0  0
   -2.7399   -0.0110    0.0099 N   0  0  0  0  0  0  0  0  0  0  0  0
    0.6850    3.4263   -0.0480 N   0  0  0  0  0  0  0  0  0  0  0  0
    2.8615   -2.3829    0.0143 C   0  0  0  0  0  0  0  0  0  0  0  0
    0.7116   -3.6415    0.0185 C   0  0  0  0  0  0  0  0  0  0  0  0
   -0.1018   -3.8574    1.2894 C   0  0  0  0  0  0  0  0  0  0  0  0
    3.4288   -3.0667    1.2521 C   0  0  0  0  0  0  0  0  0  0  0  0
   -3.5571   -1.2323   -0.0046 C   0  0  0  0  0  0  0  0  0  0  0  0
   -3.5105    1.2532   -0.0114 C   0  0  0  0  0  0  0  0  0  0  0  0
   -3.2669    2.0776    1.2491 C   0  0  0  0  0  0  0  0  0  0  0  0
   -4.4455   -1.3456    1.2307 C   0  0  0  0  0  0  0  0  0  0  0  0
   -1.0979   -1.9458   -0.1783 H   0  0  0  0  0  0  0  0  0  0  0  0
   -0.3267    3.4222    0.0175 H   0  0  0  0  0  0  0  0  0  0  0  0
    1.2080    4.2871    0.0349 H   0  0  0  0  0  0  0  0  0  0  0  0
    3.2021   -2.9027   -0.8895 H   0  0  0  0  0  0  0  0  0  0  0  0
    3.3005   -1.3799   -0.0358 H   0  0  0  0  0  0  0  0  0  0  0  0
    0.0816   -3.7301   -0.8737 H   0  0  0  0  0  0  0  0  0  0  0  0
    1.4403   -4.4584   -0.0613 H   0  0  0  0  0  0  0  0  0  0  0  0
   -0.8892   -3.1120    1.4216 H   0  0  0  0  0  0  0  0  0  0  0  0
   -0.5910   -4.8348    1.2672 H   0  0  0  0  0  0  0  0  0  0  0  0
    0.5358   -3.8003    2.1764 H   0  0  0  0  0  0  0  0  0  0  0  0
    3.1426   -4.1216    1.3029 H   0  0  0  0  0  0  0  0  0  0  0  0
    4.5232   -3.0296    1.2386 H   0  0  0  0  0  0  0  0  0  0  0  0
    3.0785   -2.5776    2.1659 H   0  0  0  0  0  0  0  0  0  0  0  0
   -4.1807   -1.2462   -0.9074 H   0  0  0  0  0  0  0  0  0  0  0  0
   -2.9542   -2.1417   -0.0491 H   0  0  0  0  0  0  0  0  0  0  0  0
   -3.2558    1.8296   -0.9083 H   0  0  0  0  0  0  0  0  0  0  0  0
   -4.5875    1.0578   -0.0879 H   0  0  0  0  0  0  0  0  0  0  0  0
   -2.2219    2.3769    1.3575 H   0  0  0  0  0  0  0  0  0  0  0  0
   -3.8559    2.9986    1.2240 H   0  0  0  0  0  0  0  0  0  0  0  0
   -3.5341    1.5128    2.1472 H   0  0  0  0  0  0  0  0  0  0  0  0
   -5.1961   -0.5502    1.2727 H   0  0  0  0  0  0  0  0  0  0  0  0
   -4.9883   -2.2970    1.2217 H   0  0  0  0  0  0  0  0  0  0  0  0
   -3.8511   -1.2969    2.1479 H   0  0  0  0  0  0  0  0  0  0  0  0
  1  2  2  0  0  0  0
  1  6  1  0  0  0  0
  2  9  1  0  0  0  0
  2  3  1  0  0  0  0
  3  4  1  0  0  0  0
  3 19  1  0  0  0  0
  4  5  2  0  0  0  0
  4  8  1  0  0  0  0
  5  6  1  0  0  0  0
  6  7  2  0  0  0  0
  7 10  1  0  0  0  0
  8 11  1  0  0  0  0
  8 12  1  0  0  0  0
  9 15  1  0  0  0  0
  9 16  1  0  0  0  0
 10 20  1  0  0  0  0
 10 21  1  0  0  0  0
 11 14  1  0  0  0  0
 11 22  1  0  0  0  0
 11 23  1  0  0  0  0
 12 13  1  0  0  0  0
 12 24  1  0  0  0  0
 12 25  1  0  0  0  0
 13 26  1  0  0  0  0
 13 27  1  0  0  0  0
 13 28  1  0  0  0  0
 14 29  1  0  0  0  0
 14 30  1  0  0  0  0
 14 31  1  0  0  0  0
 15 18  1  0  0  0  0
 15 32  1  0  0  0  0
 15 33  1  0  0  0  0
 16 17  1  0  0  0  0
 16 34  1  0  0  0  0
 16 35  1  0  0  0  0
 17 36  1  0  0  0  0
 17 37  1  0  0  0  0
 17 38  1  0  0  0  0
 18 39  1  0  0  0  0
 18 40  1  0  0  0  0
 18 41  1  0  0  0  0
M  END
>  <DRUGBANK_ID>
DB13272

>  <COMMON_NAME>
Meladrazine

>  <CAS_NUMBER>
13957-36-3

>  <UNII>
2V6Z0JG2X0

>  <SYNONYMS>
Meladrazina; Meladrazine; MÃ©ladrazine; Meladrazinum

$$$$
