
 OpenBabel10282417153D

 52 54  0  0  1  0  0  0  0  0999 V2000
    0.9824   -0.0313    0.0533 O   0  0  0  0  0  0  0  0  0  0  0  0
   -3.5683    5.6368    0.8267 N   0  0  0  0  0  0  0  0  0  0  0  0
    0.5145    3.3545    1.6715 N   0  0  0  0  0  0  0  0  0  0  0  0
   -1.3870    4.5351    1.1097 N   0  0  0  0  0  0  0  0  0  0  0  0
   -4.7006    4.6209    2.4403 N   0  0  0  0  0  0  0  0  0  0  0  0
   -1.4680    2.8576    2.8409 N   0  0  0  0  0  0  0  0  0  0  0  0
   -3.3093    2.4846    4.2437 N   0  0  0  0  0  0  0  0  0  0  0  0
   -3.3500    6.5590   -0.2802 C   0  0  0  0  0  0  0  0  0  0  0  0
    1.0527    2.0017    1.4705 C   0  0  2  0  0  0  0  0  0  0  0  0
   -2.6780    4.7559    1.4017 C   0  0  0  0  0  0  0  0  0  0  0  0
   -3.4160    4.1260    2.3960 C   0  0  0  0  0  0  0  0  0  0  0  0
    2.6131    2.0343    1.4745 C   0  0  0  0  0  0  0  0  0  0  0  0
   -2.7584    3.1484    3.1664 C   0  0  0  0  0  0  0  0  0  0  0  0
   -0.8396    3.5534    1.8677 C   0  0  0  0  0  0  0  0  0  0  0  0
   -4.7646    5.5112    1.4820 C   0  0  0  0  0  0  0  0  0  0  0  0
   -4.2713    6.2361   -1.4630 C   0  0  0  0  0  0  0  0  0  0  0  0
   -3.5694    8.0117    0.1583 C   0  0  0  0  0  0  0  0  0  0  0  0
    0.5616    1.3342    0.1601 C   0  0  0  0  0  0  0  0  0  0  0  0
    3.2420    3.4188    1.4173 C   0  0  0  0  0  0  0  0  0  0  0  0
   -4.6987    2.5813    4.6470 C   0  0  0  0  0  0  0  0  0  0  0  0
   -5.4712    1.2921    4.4644 C   0  0  0  0  0  0  0  0  0  0  0  0
   -6.8323    1.2606    4.8217 C   0  0  0  0  0  0  0  0  0  0  0  0
   -4.8969    0.1324    3.9284 C   0  0  0  0  0  0  0  0  0  0  0  0
   -7.5879    0.0976    4.6580 C   0  0  0  0  0  0  0  0  0  0  0  0
   -5.6508   -1.0298    3.7696 C   0  0  0  0  0  0  0  0  0  0  0  0
   -6.9941   -1.0485    4.1354 C   0  0  0  0  0  0  0  0  0  0  0  0
    1.9518   -0.0646   -0.0064 H   0  0  0  0  0  0  0  0  0  0  0  0
    0.8306    4.0617    1.0201 H   0  0  0  0  0  0  0  0  0  0  0  0
   -2.7130    1.7995    4.6841 H   0  0  0  0  0  0  0  0  0  0  0  0
   -2.3096    6.4405   -0.6018 H   0  0  0  0  0  0  0  0  0  0  0  0
    0.7522    1.3524    2.3036 H   0  0  0  0  0  0  0  0  0  0  0  0
    2.9740    1.5169    2.3721 H   0  0  0  0  0  0  0  0  0  0  0  0
    3.0269    1.4678    0.6316 H   0  0  0  0  0  0  0  0  0  0  0  0
   -5.6450    6.0838    1.2298 H   0  0  0  0  0  0  0  0  0  0  0  0
   -5.3293    6.3465   -1.1945 H   0  0  0  0  0  0  0  0  0  0  0  0
   -4.0771    6.9119   -2.3025 H   0  0  0  0  0  0  0  0  0  0  0  0
   -4.1257    5.2079   -1.8094 H   0  0  0  0  0  0  0  0  0  0  0  0
   -2.9131    8.2760    0.9935 H   0  0  0  0  0  0  0  0  0  0  0  0
   -3.3694    8.7016   -0.6681 H   0  0  0  0  0  0  0  0  0  0  0  0
   -4.6028    8.1843    0.4840 H   0  0  0  0  0  0  0  0  0  0  0  0
    0.9256    1.8735   -0.7221 H   0  0  0  0  0  0  0  0  0  0  0  0
   -0.5305    1.3223    0.1136 H   0  0  0  0  0  0  0  0  0  0  0  0
    2.9507    4.0145    2.2873 H   0  0  0  0  0  0  0  0  0  0  0  0
    4.3331    3.3460    1.4106 H   0  0  0  0  0  0  0  0  0  0  0  0
    2.9395    3.9421    0.5040 H   0  0  0  0  0  0  0  0  0  0  0  0
   -4.7262    2.8610    5.7065 H   0  0  0  0  0  0  0  0  0  0  0  0
   -5.2563    3.3569    4.1253 H   0  0  0  0  0  0  0  0  0  0  0  0
   -7.3165    2.1517    5.2184 H   0  0  0  0  0  0  0  0  0  0  0  0
   -3.8570    0.1237    3.6128 H   0  0  0  0  0  0  0  0  0  0  0  0
   -8.6396    0.0870    4.9325 H   0  0  0  0  0  0  0  0  0  0  0  0
   -5.1837   -1.9167    3.3513 H   0  0  0  0  0  0  0  0  0  0  0  0
   -7.5775   -1.9552    4.0049 H   0  0  0  0  0  0  0  0  0  0  0  0
  1 18  1  0  0  0  0
  1 27  1  0  0  0  0
  2  8  1  0  0  0  0
  2 10  1  0  0  0  0
  2 15  1  0  0  0  0
  3 14  1  0  0  0  0
  3 28  1  0  0  0  0
  4 10  2  0  0  0  0
  4 14  1  0  0  0  0
  5 11  1  0  0  0  0
  5 15  2  0  0  0  0
  6 13  1  0  0  0  0
  6 14  2  0  0  0  0
  7 13  1  0  0  0  0
  7 20  1  0  0  0  0
  7 29  1  0  0  0  0
  8 16  1  0  0  0  0
  8 17  1  0  0  0  0
  8 30  1  0  0  0  0
  9 18  1  0  0  0  0
  9 31  1  1  0  0  0
  9 12  1  0  0  0  0
  9  3  1  0  0  0  0
 10 11  1  0  0  0  0
 11 13  2  0  0  0  0
 12 19  1  0  0  0  0
 12 32  1  0  0  0  0
 12 33  1  0  0  0  0
 15 34  1  0  0  0  0
 16 35  1  0  0  0  0
 16 36  1  0  0  0  0
 16 37  1  0  0  0  0
 17 38  1  0  0  0  0
 17 39  1  0  0  0  0
 17 40  1  0  0  0  0
 18 41  1  0  0  0  0
 18 42  1  0  0  0  0
 19 43  1  0  0  0  0
 19 44  1  0  0  0  0
 19 45  1  0  0  0  0
 20 21  1  0  0  0  0
 20 46  1  0  0  0  0
 20 47  1  0  0  0  0
 21 22  2  0  0  0  0
 21 23  1  0  0  0  0
 22 24  1  0  0  0  0
 22 48  1  0  0  0  0
 23 25  2  0  0  0  0
 23 49  1  0  0  0  0
 24 26  2  0  0  0  0
 24 50  1  0  0  0  0
 25 26  1  0  0  0  0
 25 51  1  0  0  0  0
 26 52  1  0  0  0  0
M  END
>  <DRUGBANK_ID>
DB06195

>  <COMMON_NAME>
Seliciclib

>  <CAS_NUMBER>
186692-46-6

>  <UNII>
0ES1C2KQ94

>  <SYNONYMS>
2-(R)-(1-ethyl-2-hydroxyethylamino)-6-benzylamino-9-isopropylpurine; R-roscovitine; Seliciclib

$$$$
