
 OpenBabel10282417213D

 43 44  0  0  0  0  0  0  0  0999 V2000
    0.9098    0.0152   -0.1666 C   0  0  0  0  0  0  0  0  0  0  0  0
    0.4499   -0.9059    0.9622 C   0  0  3  0  0  0  0  0  0  0  0  0
    1.0061   -0.5792    2.2471 O   0  0  0  0  0  0  0  0  0  0  0  0
    2.3243   -0.5632    2.5386 C   0  0  0  0  0  0  0  0  0  0  0  0
    3.3304   -0.9625    1.4962 C   0  0  0  0  0  0  0  0  0  0  0  0
    2.7105   -0.2075    3.6513 O   0  0  0  0  0  0  0  0  0  0  0  0
   -1.0018   -0.9070    0.9873 O   0  0  0  0  0  0  0  0  0  0  0  0
   -1.6356    0.2639    1.2807 C   0  0  0  0  0  0  0  0  0  0  0  0
   -1.0695    1.3246    1.5454 O   0  0  0  0  0  0  0  0  0  0  0  0
   -3.1562    0.1490    1.2364 C   0  0  3  0  0  0  0  0  0  0  0  0
   -3.6793   -0.2206   -0.1517 C   0  0  0  0  0  0  0  0  0  0  0  0
   -3.6506   -0.8191    2.2844 C   0  0  0  0  0  0  0  0  0  0  0  0
   -3.4174   -2.1902    2.1112 C   0  0  0  0  0  0  0  0  0  0  0  0
   -3.7128   -3.0879    3.1151 C   0  0  0  0  0  0  0  0  0  0  0  0
   -3.3960   -4.3764    2.9210 F   0  0  0  0  0  0  0  0  0  0  0  0
   -4.2807   -2.6566    4.3097 C   0  0  0  0  0  0  0  0  0  0  0  0
   -4.5670   -1.2855    4.4650 C   0  0  0  0  0  0  0  0  0  0  0  0
   -4.2549   -0.3689    3.4624 C   0  0  0  0  0  0  0  0  0  0  0  0
   -4.5073   -3.5786    5.4150 C   0  0  0  0  0  0  0  0  0  0  0  0
   -3.4442   -4.3249    5.9467 C   0  0  0  0  0  0  0  0  0  0  0  0
   -3.6187   -5.0710    7.1078 C   0  0  0  0  0  0  0  0  0  0  0  0
   -4.8551   -5.0695    7.7496 C   0  0  0  0  0  0  0  0  0  0  0  0
   -5.9237   -4.3506    7.2167 C   0  0  0  0  0  0  0  0  0  0  0  0
   -5.7641   -3.6504    6.0263 C   0  0  0  0  0  0  0  0  0  0  0  0
    0.5837    1.0419   -0.0014 H   0  0  0  0  0  0  0  0  0  0  0  0
    0.4915   -0.3246   -1.1170 H   0  0  0  0  0  0  0  0  0  0  0  0
    1.9885    0.0947   -0.2766 H   0  0  0  0  0  0  0  0  0  0  0  0
    0.7269   -1.9464    0.7463 H   0  0  0  0  0  0  0  0  0  0  0  0
    3.9027   -0.0744    1.2063 H   0  0  0  0  0  0  0  0  0  0  0  0
    4.0010   -1.7185    1.9089 H   0  0  0  0  0  0  0  0  0  0  0  0
    2.9035   -1.4194    0.6065 H   0  0  0  0  0  0  0  0  0  0  0  0
   -3.5449    1.1513    1.4667 H   0  0  0  0  0  0  0  0  0  0  0  0
   -3.3464   -1.2130   -0.4732 H   0  0  0  0  0  0  0  0  0  0  0  0
   -4.7765   -0.2298   -0.1559 H   0  0  0  0  0  0  0  0  0  0  0  0
   -3.3357    0.4918   -0.9059 H   0  0  0  0  0  0  0  0  0  0  0  0
   -2.9492   -2.5778    1.2129 H   0  0  0  0  0  0  0  0  0  0  0  0
   -4.9914   -0.9211    5.4003 H   0  0  0  0  0  0  0  0  0  0  0  0
   -4.4567    0.6884    3.6303 H   0  0  0  0  0  0  0  0  0  0  0  0
   -2.4650   -4.3011    5.4705 H   0  0  0  0  0  0  0  0  0  0  0  0
   -2.7808   -5.6215    7.5253 H   0  0  0  0  0  0  0  0  0  0  0  0
   -4.9875   -5.6304    8.6693 H   0  0  0  0  0  0  0  0  0  0  0  0
   -6.8754   -4.3123    7.7373 H   0  0  0  0  0  0  0  0  0  0  0  0
   -6.6143   -3.1343    5.5848 H   0  0  0  0  0  0  0  0  0  0  0  0
  1  2  1  0  0  0  0
  1 25  1  0  0  0  0
  1 26  1  0  0  0  0
  1 27  1  0  0  0  0
  2  3  1  0  0  0  0
  2  7  1  0  0  0  0
  2 28  1  0  0  0  0
  3  4  1  0  0  0  0
  4  5  1  0  0  0  0
  4  6  2  0  0  0  0
  5 29  1  0  0  0  0
  5 30  1  0  0  0  0
  5 31  1  0  0  0  0
  7  8  1  0  0  0  0
  8  9  2  0  0  0  0
  8 10  1  0  0  0  0
 10 11  1  0  0  0  0
 10 12  1  0  0  0  0
 10 32  1  0  0  0  0
 11 33  1  0  0  0  0
 11 34  1  0  0  0  0
 11 35  1  0  0  0  0
 12 13  2  0  0  0  0
 12 18  1  0  0  0  0
 13 14  1  0  0  0  0
 13 36  1  0  0  0  0
 14 15  1  0  0  0  0
 14 16  2  0  0  0  0
 16 17  1  0  0  0  0
 16 19  1  0  0  0  0
 17 18  2  0  0  0  0
 17 37  1  0  0  0  0
 18 38  1  0  0  0  0
 19 20  2  0  0  0  0
 19 24  1  0  0  0  0
 20 21  1  0  0  0  0
 20 39  1  0  0  0  0
 21 22  2  0  0  0  0
 21 40  1  0  0  0  0
 22 23  1  0  0  0  0
 22 41  1  0  0  0  0
 23 24  2  0  0  0  0
 23 42  1  0  0  0  0
 24 43  1  0  0  0  0
M  END
>  <DRUGBANK_ID>
DB14938

>  <COMMON_NAME>
Flurbiprofen axetil

>  <CAS_NUMBER>
91503-79-6

>  <UNII>
I0OU31PUI5

>  <SYNONYMS>
Flurbiprofen axetil

$$$$
