
 OpenBabel10282417173D

 35 36  0  0  0  0  0  0  0  0999 V2000
    0.9577    0.0489    0.0336 S   0  0  0  0  0  0  0  0  0  0  0  0
    0.5549   -0.5294   -1.2379 O   0  0  0  0  0  0  0  0  0  0  0  0
    0.5539   -0.5617    1.2854 O   0  0  0  0  0  0  0  0  0  0  0  0
   -1.8547    8.5458    1.8966 O   0  0  0  0  0  0  0  0  0  0  0  0
   -0.0832    7.2482    2.3938 O   0  0  0  0  0  0  0  0  0  0  0  0
   -1.1586    5.6502    0.0483 N   0  0  0  0  0  0  0  0  0  0  0  0
    6.9208    0.0573   -0.0216 N   0  0  0  0  0  0  0  0  0  0  0  0
    0.3386    1.7171    0.0374 C   0  0  0  0  0  0  0  0  0  0  0  0
    2.7350    0.0748    0.0570 C   0  0  0  0  0  0  0  0  0  0  0  0
    0.6447    2.5931   -1.0074 C   0  0  0  0  0  0  0  0  0  0  0  0
   -0.4414    2.1473    1.1016 C   0  0  0  0  0  0  0  0  0  0  0  0
   -0.6090    4.3772    0.1048 C   0  0  0  0  0  0  0  0  0  0  0  0
    0.1875    3.9183   -0.9578 C   0  0  0  0  0  0  0  0  0  0  0  0
   -0.9129    3.4594    1.1190 C   0  0  0  0  0  0  0  0  0  0  0  0
    3.4431    1.2763    0.0820 C   0  0  0  0  0  0  0  0  0  0  0  0
    3.4201   -1.1421    0.0481 C   0  0  0  0  0  0  0  0  0  0  0  0
    4.8377    1.2606    0.0636 C   0  0  0  0  0  0  0  0  0  0  0  0
    4.8198   -1.1431    0.0555 C   0  0  0  0  0  0  0  0  0  0  0  0
    5.5401    0.0556    0.0759 C   0  0  0  0  0  0  0  0  0  0  0  0
   -1.9242    6.2441    1.1466 C   0  0  0  0  0  0  0  0  0  0  0  0
   -1.1815    7.3704    1.8588 C   0  0  0  0  0  0  0  0  0  0  0  0
   -0.7327    6.2992   -0.6075 H   0  0  0  0  0  0  0  0  0  0  0  0
    7.4333   -0.8054    0.1059 H   0  0  0  0  0  0  0  0  0  0  0  0
    7.4290    0.9232    0.1073 H   0  0  0  0  0  0  0  0  0  0  0  0
   -2.7213    8.5506    1.4475 H   0  0  0  0  0  0  0  0  0  0  0  0
    1.2535    2.2642   -1.8474 H   0  0  0  0  0  0  0  0  0  0  0  0
   -0.7032    1.4834    1.9220 H   0  0  0  0  0  0  0  0  0  0  0  0
    0.4610    4.5907   -1.7692 H   0  0  0  0  0  0  0  0  0  0  0  0
   -1.5316    3.7253    1.9665 H   0  0  0  0  0  0  0  0  0  0  0  0
    2.9534    2.2419    0.1141 H   0  0  0  0  0  0  0  0  0  0  0  0
    2.8784   -2.0859    0.0363 H   0  0  0  0  0  0  0  0  0  0  0  0
    5.3713    2.2075    0.0495 H   0  0  0  0  0  0  0  0  0  0  0  0
    5.3477   -2.0933    0.0488 H   0  0  0  0  0  0  0  0  0  0  0  0
   -2.8642    6.6147    0.7270 H   0  0  0  0  0  0  0  0  0  0  0  0
   -2.2184    5.5407    1.9271 H   0  0  0  0  0  0  0  0  0  0  0  0
  1  2  2  0  0  0  0
  1  3  2  0  0  0  0
  1  8  1  0  0  0  0
  1  9  1  0  0  0  0
  4 21  1  0  0  0  0
  4 25  1  0  0  0  0
  5 21  2  0  0  0  0
  6 12  1  0  0  0  0
  6 20  1  0  0  0  0
  6 22  1  0  0  0  0
  7 19  1  0  0  0  0
  7 23  1  0  0  0  0
  7 24  1  0  0  0  0
  8 10  2  0  0  0  0
  8 11  1  0  0  0  0
  9 15  2  0  0  0  0
  9 16  1  0  0  0  0
 10 13  1  0  0  0  0
 10 26  1  0  0  0  0
 11 14  2  0  0  0  0
 11 27  1  0  0  0  0
 12 13  2  0  0  0  0
 12 14  1  0  0  0  0
 13 28  1  0  0  0  0
 14 29  1  0  0  0  0
 15 17  1  0  0  0  0
 15 30  1  0  0  0  0
 16 18  2  0  0  0  0
 16 31  1  0  0  0  0
 17 19  2  0  0  0  0
 17 32  1  0  0  0  0
 18 19  1  0  0  0  0
 18 33  1  0  0  0  0
 20 21  1  0  0  0  0
 20 34  1  0  0  0  0
 20 35  1  0  0  0  0
M  END
>  <DRUGBANK_ID>
DB08926

>  <COMMON_NAME>
Acediasulfone

>  <CAS_NUMBER>
80-03-5

>  <UNII>
30YP2YHH8W

>  <SYNONYMS>
Acediasulfone; Acediasulfonum

$$$$
