
 OpenBabel10282417143D

 23 25  0  0  0  0  0  0  0  0999 V2000
    0.9060   -0.0289    0.0182 S   0  0  0  0  0  0  0  0  0  0  0  0
    2.8034   -0.0289    0.0182 P   0  0  0  0  0  0  0  0  0  0  0  0
    2.8039    0.4455   -1.6864 N   0  0  0  0  0  0  0  0  0  0  0  0
    3.3708    1.5623   -2.4395 C   0  0  0  0  0  0  0  0  0  0  0  0
    1.9021    1.4523   -2.3248 C   0  0  0  0  0  0  0  0  0  0  0  0
    2.9370    1.3516    1.0665 N   0  0  0  0  0  0  0  0  0  0  0  0
    2.1551    2.5988    0.9810 C   0  0  0  0  0  0  0  0  0  0  0  0
    3.6392    2.6039    0.8229 C   0  0  0  0  0  0  0  0  0  0  0  0
    4.5834   -0.0289    0.0182 N   0  0  0  0  0  0  0  0  0  0  0  0
    5.5919    0.5704   -0.8252 C   0  0  0  0  0  0  0  0  0  0  0  0
    5.2831   -0.8979   -0.9316 C   0  0  0  0  0  0  0  0  0  0  0  0
    3.8012    2.4364   -1.9882 H   0  0  0  0  0  0  0  0  0  0  0  0
    3.8095    1.3025   -3.3966 H   0  0  0  0  0  0  0  0  0  0  0  0
    1.3595    1.1553   -3.2107 H   0  0  0  0  0  0  0  0  0  0  0  0
    1.4224    2.2247   -1.7464 H   0  0  0  0  0  0  0  0  0  0  0  0
    1.5417    2.8168    0.1219 H   0  0  0  0  0  0  0  0  0  0  0  0
    1.7362    2.9723    1.9080 H   0  0  0  0  0  0  0  0  0  0  0  0
    4.2072    3.0243    1.6429 H   0  0  0  0  0  0  0  0  0  0  0  0
    4.0600    2.8078   -0.1410 H   0  0  0  0  0  0  0  0  0  0  0  0
    5.4446    1.1303   -1.7307 H   0  0  0  0  0  0  0  0  0  0  0  0
    6.4902    0.8900   -0.3095 H   0  0  0  0  0  0  0  0  0  0  0  0
    6.0715   -1.5524   -0.5861 H   0  0  0  0  0  0  0  0  0  0  0  0
    4.7377   -1.2402   -1.8033 H   0  0  0  0  0  0  0  0  0  0  0  0
  1  2  2  0  0  0  0
  2  3  1  0  0  0  0
  2  6  1  0  0  0  0
  2  9  1  0  0  0  0
  3  4  1  0  0  0  0
  3  5  1  0  0  0  0
  4  5  1  0  0  0  0
  4 12  1  0  0  0  0
  4 13  1  0  0  0  0
  5 14  1  0  0  0  0
  5 15  1  0  0  0  0
  6  7  1  0  0  0  0
  6  8  1  0  0  0  0
  7  8  1  0  0  0  0
  7 16  1  0  0  0  0
  7 17  1  0  0  0  0
  8 18  1  0  0  0  0
  8 19  1  0  0  0  0
  9 10  1  0  0  0  0
  9 11  1  0  0  0  0
 10 11  1  0  0  0  0
 10 20  1  0  0  0  0
 10 21  1  0  0  0  0
 11 22  1  0  0  0  0
 11 23  1  0  0  0  0
M  END
>  <DRUGBANK_ID>
DB04572

>  <COMMON_NAME>
Thiotepa

>  <CAS_NUMBER>
52-24-4

>  <UNII>
905Z5W3GKH

>  <SYNONYMS>
Thiotepa

$$$$
