
 OpenBabel10282417193D

 54 58  0  0  1  0  0  0  0  0999 V2000
    1.1523   -0.0779    0.5843 C   0  0  0  0  0  0  0  0  0  0  0  0
    0.4494    1.2028    0.9454 C   0  0  0  0  0  0  0  0  0  0  0  0
    0.8566    2.3005   -0.0280 C   0  0  0  0  0  0  0  0  0  0  0  0
    0.3184    2.2144   -1.4222 N   0  0  0  0  0  0  0  0  0  0  0  0
    0.0308    1.0495   -2.2217 C   0  0  0  0  0  0  0  0  0  0  0  0
   -0.4453    1.1548   -3.4853 C   0  0  0  0  0  0  0  0  0  0  0  0
   -0.8188    2.4100   -4.0119 C   0  0  0  0  0  0  0  0  0  0  0  0
   -1.5831    2.4567   -4.9886 O   0  0  0  0  0  0  0  0  0  0  0  0
   -0.3183    3.5347   -3.3444 N   0  0  0  0  0  0  0  0  0  0  0  0
    0.1822    3.4993   -2.0323 C   0  0  0  0  0  0  0  0  0  0  0  0
    0.4572    4.5457   -1.4297 O   0  0  0  0  0  0  0  0  0  0  0  0
   -0.5062    4.8586   -3.9752 C   0  0  0  0  0  0  0  0  0  0  0  0
    0.3899    5.0753   -5.2113 C   0  0  0  0  0  0  0  0  0  0  0  0
    0.1706    4.0460   -6.3067 C   0  0  0  0  0  0  0  0  0  0  0  0
   -0.5665   -0.1392   -4.0289 N   0  0  0  0  0  0  0  0  0  0  0  0
   -0.2514   -1.0744   -3.0535 C   0  0  0  0  0  0  0  0  0  0  0  0
    0.0234   -0.3229   -1.9682 N   0  0  0  0  0  0  0  0  0  0  0  0
    0.0031   -2.6889   -3.0276 C   0  0  3  0  0  0  0  0  0  0  0  0
   -0.7943   -3.3279   -1.8451 C   0  0  0  0  0  0  0  0  0  0  0  0
   -0.3876   -4.8093   -1.8764 C   0  0  2  0  0  0  0  0  0  0  0  0
    1.1451   -4.9674   -1.6855 C   0  0  0  0  0  0  0  0  0  0  0  0
    1.9515   -4.1297   -2.7064 C   0  0  2  0  0  0  0  0  0  0  0  0
    1.5128   -2.6878   -2.6343 C   0  0  0  0  0  0  0  0  0  0  0  0
    1.5193   -4.4505   -4.1268 C   0  0  0  0  0  0  0  0  0  0  0  0
    0.0225   -4.0087   -4.0884 C   0  0  3  0  0  0  0  0  0  0  0  0
   -0.7434   -5.1490   -3.3131 C   0  0  0  0  0  0  0  0  0  0  0  0
    1.0837   -0.1669   -0.4606 H   0  0  0  0  0  0  0  0  0  0  0  0
    0.6757   -0.9775    0.9714 H   0  0  0  0  0  0  0  0  0  0  0  0
    2.2394   -0.0636    0.6555 H   0  0  0  0  0  0  0  0  0  0  0  0
   -0.6404    1.1016    0.8949 H   0  0  0  0  0  0  0  0  0  0  0  0
    0.7097    1.4601    1.9804 H   0  0  0  0  0  0  0  0  0  0  0  0
    0.5214    3.2462    0.4378 H   0  0  0  0  0  0  0  0  0  0  0  0
    1.9523    2.4076   -0.0696 H   0  0  0  0  0  0  0  0  0  0  0  0
   -1.5623    4.9611   -4.2520 H   0  0  0  0  0  0  0  0  0  0  0  0
   -0.2979    5.6819   -3.2754 H   0  0  0  0  0  0  0  0  0  0  0  0
    0.1931    6.0701   -5.6307 H   0  0  0  0  0  0  0  0  0  0  0  0
    1.4429    5.0522   -4.9099 H   0  0  0  0  0  0  0  0  0  0  0  0
   -0.8905    4.0044   -6.5769 H   0  0  0  0  0  0  0  0  0  0  0  0
    0.7364    4.2614   -7.2119 H   0  0  0  0  0  0  0  0  0  0  0  0
    0.5161    3.0632   -5.9728 H   0  0  0  0  0  0  0  0  0  0  0  0
   -0.8763   -0.3144   -4.9727 H   0  0  0  0  0  0  0  0  0  0  0  0
   -0.5681   -2.8875   -0.8720 H   0  0  0  0  0  0  0  0  0  0  0  0
   -1.8779   -3.2346   -2.0136 H   0  0  0  0  0  0  0  0  0  0  0  0
   -0.9431   -5.4162   -1.1518 H   0  0  0  0  0  0  0  0  0  0  0  0
    1.4101   -4.6527   -0.6706 H   0  0  0  0  0  0  0  0  0  0  0  0
    1.4237   -6.0226   -1.7953 H   0  0  0  0  0  0  0  0  0  0  0  0
    3.0306   -4.2209   -2.5563 H   0  0  0  0  0  0  0  0  0  0  0  0
    2.0639   -2.0836   -3.3702 H   0  0  0  0  0  0  0  0  0  0  0  0
    1.6917   -2.2621   -1.6453 H   0  0  0  0  0  0  0  0  0  0  0  0
    1.7497   -5.4971   -4.3751 H   0  0  0  0  0  0  0  0  0  0  0  0
    2.0424   -3.8288   -4.8644 H   0  0  0  0  0  0  0  0  0  0  0  0
   -0.3656   -4.0101   -5.1117 H   0  0  0  0  0  0  0  0  0  0  0  0
   -0.4842   -6.1961   -3.5441 H   0  0  0  0  0  0  0  0  0  0  0  0
   -1.8228   -5.0549   -3.4902 H   0  0  0  0  0  0  0  0  0  0  0  0
  1  2  1  0  0  0  0
  1 27  1  0  0  0  0
  1 28  1  0  0  0  0
  1 29  1  0  0  0  0
  2  3  1  0  0  0  0
  2 30  1  0  0  0  0
  2 31  1  0  0  0  0
  3  4  1  0  0  0  0
  3 32  1  0  0  0  0
  3 33  1  0  0  0  0
  4  5  1  0  0  0  0
  4 10  1  0  0  0  0
  5  6  2  0  0  0  0
  5 17  1  0  0  0  0
  6  7  1  0  0  0  0
  6 15  1  0  0  0  0
  7  8  2  0  0  0  0
  7  9  1  0  0  0  0
  9 10  1  0  0  0  0
  9 12  1  0  0  0  0
 10 11  2  0  0  0  0
 12 13  1  0  0  0  0
 12 34  1  0  0  0  0
 12 35  1  0  0  0  0
 13 14  1  0  0  0  0
 13 36  1  0  0  0  0
 13 37  1  0  0  0  0
 14 38  1  0  0  0  0
 14 39  1  0  0  0  0
 14 40  1  0  0  0  0
 15 16  1  0  0  0  0
 15 41  1  0  0  0  0
 16 17  2  0  0  0  0
 16 18  1  0  0  0  0
 18 19  1  0  0  0  0
 18 23  1  0  0  0  0
 18 25  1  0  0  0  0
 19 20  1  0  0  0  0
 19 42  1  0  0  0  0
 19 43  1  0  0  0  0
 20 21  1  0  0  0  0
 20 26  1  0  0  0  0
 20 44  1  1  0  0  0
 21 45  1  0  0  0  0
 21 46  1  0  0  0  0
 22 21  1  0  0  0  0
 22 23  1  0  0  0  0
 22 24  1  0  0  0  0
 22 47  1  1  0  0  0
 23 48  1  0  0  0  0
 23 49  1  0  0  0  0
 24 25  1  0  0  0  0
 24 50  1  0  0  0  0
 24 51  1  0  0  0  0
 25 26  1  0  0  0  0
 25 52  1  0  0  0  0
 26 53  1  0  0  0  0
 26 54  1  0  0  0  0
M  END
>  <DRUGBANK_ID>
DB12670

>  <SECONDARY_ACCESSION_NUMBERS>
DB05360

>  <COMMON_NAME>
Rolofylline

>  <CAS_NUMBER>
136199-02-5

>  <UNII>
7805S5HIHX

>  <SYNONYMS>
Rolofylline

$$$$
