
 OpenBabel10282417123D

 24 24  0  0  0  0  0  0  0  0999 V2000
   -1.0864   -0.5781    0.0245 C   0  0  0  0  0  0  0  0  0  0  0  0
    0.2888   -1.1682   -0.0040 C   0  0  0  0  0  0  0  0  0  0  0  0
    1.2018   -0.2825   -0.0231 N   0  3  0  0  0  0  0  0  0  0  0  0
    0.5485    1.0566    0.0566 C   0  0  2  0  0  0  0  0  0  0  0  0
   -0.8658    0.7666    0.0319 N   0  0  0  0  0  0  0  0  0  0  0  0
    2.6502   -0.5149    0.0032 C   0  0  0  0  0  0  0  0  0  0  0  0
    2.9965   -1.2617    1.2675 C   0  0  0  0  0  0  0  0  0  0  0  0
    3.5707   -2.4685    1.1018 O   0  0  0  0  0  0  0  0  0  0  0  0
    2.7252   -0.8199    2.3746 O   0  0  0  0  0  0  0  0  0  0  0  0
    0.9507    1.9395   -1.1762 C   0  0  0  0  0  0  0  0  0  0  0  0
    0.2960    3.2606   -1.1317 N   0  0  0  0  0  0  0  0  0  0  0  0
    0.7753    1.7872    1.2388 O   0  0  0  0  0  0  0  0  0  0  0  0
   -2.0949   -1.2389   -0.0139 O   0  0  0  0  0  0  0  0  0  0  0  0
    0.5881   -2.4463   -0.0490 O   0  0  0  0  0  0  0  0  0  0  0  0
   -1.6144    1.4474    0.0818 H   0  0  0  0  0  0  0  0  0  0  0  0
    2.9181   -1.0771   -0.8953 H   0  0  0  0  0  0  0  0  0  0  0  0
    3.1763    0.4432   -0.0000 H   0  0  0  0  0  0  0  0  0  0  0  0
    3.7332   -2.8281    0.2075 H   0  0  0  0  0  0  0  0  0  0  0  0
    2.0319    2.1210   -1.1634 H   0  0  0  0  0  0  0  0  0  0  0  0
    0.7056    1.4429   -2.1223 H   0  0  0  0  0  0  0  0  0  0  0  0
    0.6041    3.8329   -1.9265 H   0  0  0  0  0  0  0  0  0  0  0  0
   -0.7166    3.1831   -1.2527 H   0  0  0  0  0  0  0  0  0  0  0  0
    0.5221    2.7130    1.0384 H   0  0  0  0  0  0  0  0  0  0  0  0
   -0.2115   -3.0143    0.0227 H   0  0  0  0  0  0  0  0  0  0  0  0
  1  2  1  0  0  0  0
  1  5  1  0  0  0  0
  1 13  2  0  0  0  0
  2  3  2  0  0  0  0
  2 14  1  0  0  0  0
  3  4  1  0  0  0  0
  3  6  1  0  0  0  0
  4  5  1  0  0  0  0
  4 10  1  0  0  0  0
  4 12  1  1  0  0  0
  5 15  1  0  0  0  0
  6  7  1  0  0  0  0
  6 16  1  0  0  0  0
  6 17  1  0  0  0  0
  7  8  1  0  0  0  0
  7  9  2  0  0  0  0
  8 18  1  0  0  0  0
 10 11  1  0  0  0  0
 10 19  1  0  0  0  0
 10 20  1  0  0  0  0
 11 21  1  0  0  0  0
 11 22  1  0  0  0  0
 12 23  1  0  0  0  0
 14 24  1  0  0  0  0
M  CHG  1   3   1
M  END
>  <DRUGBANK_ID>
DB01797

>  <SECONDARY_ACCESSION_NUMBERS>
EXPT01014

>  <COMMON_NAME>
(2R)-2-(aminomethyl)-2,4-dihydroxy-5-oxo-3-(2-oxoethyl)-2,5-dihydro-1H-imidazol-3-ium

$$$$
