
 OpenBabel10282417193D

 49 51  0  0  1  0  0  0  0  0999 V2000
    1.0320    0.0378    0.1300 C   0  0  0  0  0  0  0  0  0  0  0  0
    0.5246   -0.0654   -1.3021 C   0  0  1  0  0  0  0  0  0  0  0  0
    1.1083   -1.4100   -1.8273 C   0  0  0  0  0  0  0  0  0  0  0  0
    0.9037   -2.4213   -0.9554 F   0  0  0  0  0  0  0  0  0  0  0  0
    0.5953   -1.8388   -2.9838 F   0  0  0  0  0  0  0  0  0  0  0  0
    2.4503   -1.2886   -2.0043 F   0  0  0  0  0  0  0  0  0  0  0  0
   -0.9575    0.1501   -1.3805 N   0  0  0  0  0  0  0  0  0  0  0  0
   -1.6809    1.1257   -2.1304 C   0  0  0  0  0  0  0  0  0  0  0  0
   -1.3862    1.5100   -3.3966 C   0  0  0  0  0  0  0  0  0  0  0  0
   -2.1111    2.6977   -3.9678 C   0  0  0  0  0  0  0  0  0  0  0  0
   -3.1104    3.3185   -3.3952 N   0  0  0  0  0  0  0  0  0  0  0  0
   -3.4964    2.8213   -2.2066 C   0  0  0  0  0  0  0  0  0  0  0  0
   -2.8260    1.7695   -1.5406 N   0  0  0  0  0  0  0  0  0  0  0  0
   -3.4507    1.5377   -0.3512 N   0  0  0  0  0  0  0  0  0  0  0  0
   -4.4597    2.4147   -0.3846 C   0  0  0  0  0  0  0  0  0  0  0  0
   -4.5273    3.2141   -1.4736 N   0  0  0  0  0  0  0  0  0  0  0  0
   -1.6337    3.3922   -5.4863 Cl  0  0  0  0  0  0  0  0  0  0  0  0
   -0.2527    0.9474   -4.1213 C   0  0  0  0  0  0  0  0  0  0  0  0
    0.9296    1.6203   -3.9386 C   0  0  0  0  0  0  0  0  0  0  0  0
    2.1501    1.0561   -4.2947 C   0  0  0  0  0  0  0  0  0  0  0  0
    2.2073   -0.0828   -5.0703 C   0  0  0  0  0  0  0  0  0  0  0  0
    1.0264   -0.8067   -5.2168 C   0  0  0  0  0  0  0  0  0  0  0  0
   -0.1927   -0.3011   -4.7174 C   0  0  0  0  0  0  0  0  0  0  0  0
   -1.2447   -1.1257   -4.6010 F   0  0  0  0  0  0  0  0  0  0  0  0
    3.3395   -0.5581   -5.6619 O   0  0  0  0  0  0  0  0  0  0  0  0
    4.4585    0.3262   -5.9018 C   0  0  0  0  0  0  0  0  0  0  0  0
    4.2365    1.4332   -6.9587 C   0  0  0  0  0  0  0  0  0  0  0  0
    3.3310    2.5987   -6.5489 C   0  0  0  0  0  0  0  0  0  0  0  0
    3.9039    3.3800   -5.4385 N   0  0  0  0  0  0  0  0  0  0  0  0
    2.8694    4.1523   -4.7630 C   0  0  0  0  0  0  0  0  0  0  0  0
    0.8951    2.7700   -3.2412 F   0  0  0  0  0  0  0  0  0  0  0  0
    0.7095   -0.8323    0.7069 H   0  0  0  0  0  0  0  0  0  0  0  0
    0.6871    0.9441    0.6268 H   0  0  0  0  0  0  0  0  0  0  0  0
    2.1319    0.0456    0.1238 H   0  0  0  0  0  0  0  0  0  0  0  0
    1.0205    0.7730   -1.7864 H   0  0  0  0  0  0  0  0  0  0  0  0
   -1.5431   -0.5430   -0.9145 H   0  0  0  0  0  0  0  0  0  0  0  0
   -5.1877    2.4840    0.4164 H   0  0  0  0  0  0  0  0  0  0  0  0
    3.0470    1.5605   -3.9835 H   0  0  0  0  0  0  0  0  0  0  0  0
    1.0731   -1.8400   -5.5518 H   0  0  0  0  0  0  0  0  0  0  0  0
    4.8801    0.7049   -4.9633 H   0  0  0  0  0  0  0  0  0  0  0  0
    5.2441   -0.3256   -6.3105 H   0  0  0  0  0  0  0  0  0  0  0  0
    5.2075    1.8591   -7.2415 H   0  0  0  0  0  0  0  0  0  0  0  0
    3.8126    0.9718   -7.8584 H   0  0  0  0  0  0  0  0  0  0  0  0
    3.1579    3.2784   -7.3863 H   0  0  0  0  0  0  0  0  0  0  0  0
    2.3363    2.1911   -6.3528 H   0  0  0  0  0  0  0  0  0  0  0  0
    4.3713    2.7800   -4.7618 H   0  0  0  0  0  0  0  0  0  0  0  0
    1.9799    3.5577   -4.6904 H   0  0  0  0  0  0  0  0  0  0  0  0
    3.1555    4.4177   -3.7375 H   0  0  0  0  0  0  0  0  0  0  0  0
    2.5398    5.0266   -5.3185 H   0  0  0  0  0  0  0  0  0  0  0  0
  1 32  1  0  0  0  0
  1 33  1  0  0  0  0
  1 34  1  0  0  0  0
  2  1  1  0  0  0  0
  2  3  1  0  0  0  0
  2  7  1  0  0  0  0
  2 35  1  6  0  0  0
  3  4  1  0  0  0  0
  3  5  1  0  0  0  0
  3  6  1  0  0  0  0
  7  8  1  0  0  0  0
  7 36  1  0  0  0  0
  8  9  2  0  0  0  0
  8 13  1  0  0  0  0
  9 10  1  0  0  0  0
  9 18  1  0  0  0  0
 10 11  2  0  0  0  0
 10 17  1  0  0  0  0
 11 12  1  0  0  0  0
 12 13  1  0  0  0  0
 12 16  2  0  0  0  0
 13 14  1  0  0  0  0
 14 15  2  0  0  0  0
 15 16  1  0  0  0  0
 15 37  1  0  0  0  0
 18 19  2  0  0  0  0
 18 23  1  0  0  0  0
 19 20  1  0  0  0  0
 19 31  1  0  0  0  0
 20 21  2  0  0  0  0
 20 38  1  0  0  0  0
 21 22  1  0  0  0  0
 21 25  1  0  0  0  0
 22 23  2  0  0  0  0
 22 39  1  0  0  0  0
 23 24  1  0  0  0  0
 25 26  1  0  0  0  0
 26 27  1  0  0  0  0
 26 40  1  0  0  0  0
 26 41  1  0  0  0  0
 27 28  1  0  0  0  0
 27 42  1  0  0  0  0
 27 43  1  0  0  0  0
 28 29  1  0  0  0  0
 28 44  1  0  0  0  0
 28 45  1  0  0  0  0
 29 30  1  0  0  0  0
 29 46  1  0  0  0  0
 30 47  1  0  0  0  0
 30 48  1  0  0  0  0
 30 49  1  0  0  0  0
M  END
>  <DRUGBANK_ID>
DB12533

>  <COMMON_NAME>
Cevipabulin

>  <CAS_NUMBER>
849550-05-6

>  <UNII>
P14M0DWS2J

>  <SYNONYMS>
Cevipabulin

$$$$
