
 OpenBabel10282417233D

 27 27  0  0  1  0  0  0  0  0999 V2000
    0.8086   -0.4116    0.2808 C   0  0  0  0  0  0  0  0  0  0  0  0
    0.6012   -1.3282   -0.7853 O   0  0  0  0  0  0  0  0  0  0  0  0
    1.2476   -1.0118   -2.0374 C   0  0  1  0  0  0  0  0  0  0  0  0
    0.7614    0.3307   -2.6942 C   0  0  0  0  0  0  0  0  0  0  0  0
    1.2111    1.6498   -2.0731 C   0  0  0  0  0  0  0  0  0  0  0  0
    0.6392    2.8683   -2.4192 C   0  0  0  0  0  0  0  0  0  0  0  0
    0.9089    4.0126   -1.6353 C   0  0  0  0  0  0  0  0  0  0  0  0
    1.6858    3.9508   -0.4699 C   0  0  0  0  0  0  0  0  0  0  0  0
    1.7460    4.9834    0.4594 N   0  0  0  0  0  0  0  0  0  0  0  0
    2.2414    2.7465   -0.1369 C   0  0  0  0  0  0  0  0  0  0  0  0
    2.1235    1.6940   -1.0186 C   0  0  0  0  0  0  0  0  0  0  0  0
    2.8047   -1.2129   -2.1910 C   0  0  0  0  0  0  0  0  0  0  0  0
    3.1994   -2.2524   -2.9511 O   0  0  0  0  0  0  0  0  0  0  0  0
    3.6928   -0.5173   -1.6949 O   0  0  0  0  0  0  0  0  0  0  0  0
    0.3150   -0.6915    1.2127 H   0  0  0  0  0  0  0  0  0  0  0  0
    0.3557    0.5501    0.0337 H   0  0  0  0  0  0  0  0  0  0  0  0
    1.8736   -0.3756    0.5197 H   0  0  0  0  0  0  0  0  0  0  0  0
    0.8230   -1.7920   -2.6880 H   0  0  0  0  0  0  0  0  0  0  0  0
    1.0425    0.3327   -3.7552 H   0  0  0  0  0  0  0  0  0  0  0  0
   -0.3424    0.3175   -2.6631 H   0  0  0  0  0  0  0  0  0  0  0  0
   -0.0360    2.9440   -3.2687 H   0  0  0  0  0  0  0  0  0  0  0  0
    0.4773    4.9616   -1.9305 H   0  0  0  0  0  0  0  0  0  0  0  0
    2.4850    4.8826    1.1520 H   0  0  0  0  0  0  0  0  0  0  0  0
    1.6644    5.9136    0.0730 H   0  0  0  0  0  0  0  0  0  0  0  0
    2.7692    2.5698    0.7968 H   0  0  0  0  0  0  0  0  0  0  0  0
    2.6845    0.8468   -0.6903 H   0  0  0  0  0  0  0  0  0  0  0  0
    2.5031   -2.8408   -3.2829 H   0  0  0  0  0  0  0  0  0  0  0  0
  1  2  1  0  0  0  0
  1 15  1  0  0  0  0
  1 16  1  0  0  0  0
  1 17  1  0  0  0  0
  3  2  1  0  0  0  0
  3  4  1  0  0  0  0
  3 12  1  0  0  0  0
  3 18  1  6  0  0  0
  4  5  1  0  0  0  0
  4 19  1  0  0  0  0
  4 20  1  0  0  0  0
  5  6  2  0  0  0  0
  5 11  1  0  0  0  0
  6  7  1  0  0  0  0
  6 21  1  0  0  0  0
  7  8  2  0  0  0  0
  7 22  1  0  0  0  0
  8  9  1  0  0  0  0
  8 10  1  0  0  0  0
  9 23  1  0  0  0  0
  9 24  1  0  0  0  0
 10 11  2  0  0  0  0
 10 25  1  0  0  0  0
 11 26  1  0  0  0  0
 12 13  1  0  0  0  0
 12 14  2  0  0  0  0
 13 27  1  0  0  0  0
M  END
>  <DRUGBANK_ID>
DB16109

>  <COMMON_NAME>
GED-0507-34-Levo

>  <CAS_NUMBER>
921195-93-9

>  <UNII>
Y4H78S56YZ

$$$$
