EI1
 OpenBabel10282417163D

 33 35  0  0  0  0  0  0  0  0999 V2000
    0.8676   -0.1588    0.1430 C   0  0  0  0  0  0  0  0  0  0  0  0
    0.4467    1.1437    0.7770 C   0  0  0  0  0  0  0  0  0  0  0  0
    0.8699    2.4394    0.1391 C   0  0  0  0  0  0  0  0  0  0  0  0
    0.4775    3.7068    0.5175 C   0  0  0  0  0  0  0  0  0  0  0  0
   -0.4223    4.0165    1.5472 C   0  0  0  0  0  0  0  0  0  0  0  0
   -0.6529    5.4002    1.6450 C   0  0  0  0  0  0  0  0  0  0  0  0
   -1.5161    5.7966    2.6381 O   0  0  0  0  0  0  0  0  0  0  0  0
   -0.0590    6.3715    0.7921 C   0  0  0  0  0  0  0  0  0  0  0  0
    0.8607    6.0268   -0.2319 C   0  0  0  0  0  0  0  0  0  0  0  0
    1.1374    4.6493   -0.3360 C   0  0  0  0  0  0  0  0  0  0  0  0
    1.9938    3.9882   -1.1365 N   0  0  0  0  0  0  0  0  0  0  0  0
    1.8031    2.6607   -0.8821 N   0  0  0  0  0  0  0  0  0  0  0  0
    2.4725    1.7225   -1.7223 C   0  0  0  0  0  0  0  0  0  0  0  0
    3.8720    1.6937   -1.7877 C   0  0  0  0  0  0  0  0  0  0  0  0
    4.5072    0.7841   -2.6486 C   0  0  0  0  0  0  0  0  0  0  0  0
    3.7541   -0.1379   -3.3703 C   0  0  0  0  0  0  0  0  0  0  0  0
    4.4048   -0.9958   -4.2077 O   0  0  0  0  0  0  0  0  0  0  0  0
    2.3711   -0.1626   -3.2553 C   0  0  0  0  0  0  0  0  0  0  0  0
    1.7310    0.8284   -2.5048 C   0  0  0  0  0  0  0  0  0  0  0  0
    0.3703   -0.2855   -0.8189 H   0  0  0  0  0  0  0  0  0  0  0  0
    0.5499   -1.0163    0.7395 H   0  0  0  0  0  0  0  0  0  0  0  0
    1.9538   -0.2223    0.0333 H   0  0  0  0  0  0  0  0  0  0  0  0
   -0.6506    1.1420    0.8241 H   0  0  0  0  0  0  0  0  0  0  0  0
    0.8008    1.1450    1.8157 H   0  0  0  0  0  0  0  0  0  0  0  0
   -0.8946    3.3063    2.2103 H   0  0  0  0  0  0  0  0  0  0  0  0
   -1.6006    6.7644    2.6265 H   0  0  0  0  0  0  0  0  0  0  0  0
   -0.3048    7.4238    0.9235 H   0  0  0  0  0  0  0  0  0  0  0  0
    1.3141    6.7650   -0.8796 H   0  0  0  0  0  0  0  0  0  0  0  0
    4.4782    2.3447   -1.1624 H   0  0  0  0  0  0  0  0  0  0  0  0
    5.5892    0.7895   -2.7556 H   0  0  0  0  0  0  0  0  0  0  0  0
    3.7456   -1.4610   -4.7504 H   0  0  0  0  0  0  0  0  0  0  0  0
    1.7790   -0.9347   -3.7370 H   0  0  0  0  0  0  0  0  0  0  0  0
    0.6456    0.8783   -2.5191 H   0  0  0  0  0  0  0  0  0  0  0  0
  1  2  1  0  0  0  0
  1 20  1  0  0  0  0
  1 21  1  0  0  0  0
  1 22  1  0  0  0  0
  2  3  1  0  0  0  0
  2 23  1  0  0  0  0
  2 24  1  0  0  0  0
  3 12  1  0  0  0  0
  3  4  2  0  0  0  0
  4 10  1  0  0  0  0
  4  5  1  0  0  0  0
  5  6  2  0  0  0  0
  5 25  1  0  0  0  0
  6  8  1  0  0  0  0
  6  7  1  0  0  0  0
  7 26  1  0  0  0  0
  8  9  2  0  0  0  0
  8 27  1  0  0  0  0
  9 10  1  0  0  0  0
  9 28  1  0  0  0  0
 10 11  2  0  0  0  0
 11 12  1  0  0  0  0
 12 13  1  0  0  0  0
 13 14  2  0  0  0  0
 13 19  1  0  0  0  0
 14 15  1  0  0  0  0
 14 29  1  0  0  0  0
 15 16  2  0  0  0  0
 15 30  1  0  0  0  0
 16 17  1  0  0  0  0
 16 18  1  0  0  0  0
 17 31  1  0  0  0  0
 18 19  2  0  0  0  0
 18 32  1  0  0  0  0
 19 33  1  0  0  0  0
M  END
>  <DRUGBANK_ID>
DB07712

>  <COMMON_NAME>
3-ETHYL-2-(4-HYDROXYPHENYL)-2H-INDAZOL-5-OL

$$$$
