
 OpenBabel10282417223D

 54 57  0  0  1  0  0  0  0  0999 V2000
    0.9560   -0.5946    0.3270 C   0  0  0  0  0  0  0  0  0  0  0  0
   -0.1416   -0.7102   -0.8297 C   0  0  2  0  0  0  0  0  0  0  0  0
   -0.8365    0.9368   -1.7917 C   0  0  0  0  0  0  0  0  0  0  0  0
   -1.0790    0.9520   -0.4849 C   0  0  1  0  0  0  0  0  0  0  0  0
    0.6119    1.4896   -1.0585 C   0  0  2  0  0  0  0  0  0  0  0  0
    0.9611    2.9438   -1.3512 C   0  0  0  0  0  0  0  0  0  0  0  0
    2.4817    2.9641   -1.6258 C   0  0  0  0  0  0  0  0  0  0  0  0
    2.9990    2.0490   -2.7432 C   0  0  0  0  0  0  0  0  0  0  0  0
    3.6679    2.5164   -3.8090 C   0  0  0  0  0  0  0  0  0  0  0  0
    4.2232    1.6288   -4.8702 C   0  0  0  0  0  0  0  0  0  0  0  0
    4.6750    2.0907   -5.9105 O   0  0  0  0  0  0  0  0  0  0  0  0
    4.1040    0.1687   -4.7363 C   0  0  0  0  0  0  0  0  0  0  0  0
    3.1375   -0.1790   -3.8940 C   0  0  0  0  0  0  0  0  0  0  0  0
    2.7106    0.5702   -2.6466 C   0  0  1  0  0  0  0  0  0  0  0  0
    3.5289   -0.0417   -1.4694 C   0  0  0  0  0  0  0  0  0  0  0  0
    1.2075    0.4668   -2.4889 C   0  0  0  0  0  0  0  0  0  0  0  0
    0.3877   -0.4234   -3.2479 C   0  0  0  0  0  0  0  0  0  0  0  0
   -1.2092   -0.8904   -2.9918 C   0  0  0  0  0  0  0  0  0  0  0  0
   -1.8899   -0.4765   -1.2839 C   0  0  1  0  0  0  0  0  0  0  0  0
   -3.3840   -0.4496   -1.2749 C   0  0  0  0  0  0  0  0  0  0  0  0
   -1.3394   -1.4555   -0.3330 C   0  0  2  0  0  0  0  0  0  0  0  0
   -1.7164   -1.1479    0.9974 O   0  0  0  0  0  0  0  0  0  0  0  0
   -1.6754   -2.9131   -0.7206 C   0  0  0  0  0  0  0  0  0  0  0  0
   -1.8855   -3.3182   -1.8681 O   0  0  0  0  0  0  0  0  0  0  0  0
   -1.8491   -3.9111    0.3948 C   0  0  0  0  0  0  0  0  0  0  0  0
   -0.6795   -4.6678    0.6247 O   0  0  0  0  0  0  0  0  0  0  0  0
    0.6694    0.0824    1.1356 H   0  0  0  0  0  0  0  0  0  0  0  0
    1.6684   -0.1624   -0.3189 H   0  0  0  0  0  0  0  0  0  0  0  0
    1.8073   -1.1964    0.6723 H   0  0  0  0  0  0  0  0  0  0  0  0
    0.3789   -1.4596   -1.4594 H   0  0  0  0  0  0  0  0  0  0  0  0
   -1.1709    2.0203   -1.7010 H   0  0  0  0  0  0  0  0  0  0  0  0
   -1.4761    0.9843   -2.7116 H   0  0  0  0  0  0  0  0  0  0  0  0
   -1.7317    1.6965    0.0002 H   0  0  0  0  0  0  0  0  0  0  0  0
    1.2097    1.4402   -0.1487 H   0  0  0  0  0  0  0  0  0  0  0  0
    0.7353    3.5172   -0.4394 H   0  0  0  0  0  0  0  0  0  0  0  0
    0.3894    3.3762   -2.1737 H   0  0  0  0  0  0  0  0  0  0  0  0
    2.9882    2.6636   -0.6953 H   0  0  0  0  0  0  0  0  0  0  0  0
    2.7744    3.9984   -1.8027 H   0  0  0  0  0  0  0  0  0  0  0  0
    3.8120    3.5724   -3.9640 H   0  0  0  0  0  0  0  0  0  0  0  0
    4.2444   -0.4132   -5.6423 H   0  0  0  0  0  0  0  0  0  0  0  0
    2.3954   -0.6891   -4.4961 H   0  0  0  0  0  0  0  0  0  0  0  0
    3.4035    0.5191   -0.5324 H   0  0  0  0  0  0  0  0  0  0  0  0
    3.2524   -1.0890   -1.2700 H   0  0  0  0  0  0  0  0  0  0  0  0
    4.6076   -0.0312   -1.6442 H   0  0  0  0  0  0  0  0  0  0  0  0
    0.7865   -1.1628   -3.9342 H   0  0  0  0  0  0  0  0  0  0  0  0
   -1.8314   -0.4089   -3.7670 H   0  0  0  0  0  0  0  0  0  0  0  0
   -1.2615   -1.9439   -3.2308 H   0  0  0  0  0  0  0  0  0  0  0  0
   -3.7575   -1.4386   -1.5508 H   0  0  0  0  0  0  0  0  0  0  0  0
   -3.7281   -0.2022   -0.2700 H   0  0  0  0  0  0  0  0  0  0  0  0
   -3.7428    0.2839   -1.9936 H   0  0  0  0  0  0  0  0  0  0  0  0
   -1.0539   -0.5842    1.4273 H   0  0  0  0  0  0  0  0  0  0  0  0
   -2.1738   -3.4206    1.3113 H   0  0  0  0  0  0  0  0  0  0  0  0
   -2.6634   -4.5788    0.0896 H   0  0  0  0  0  0  0  0  0  0  0  0
   -0.5214   -5.1816   -0.1890 H   0  0  0  0  0  0  0  0  0  0  0  0
  1 27  1  0  0  0  0
  1 28  1  0  0  0  0
  1 29  1  0  0  0  0
  2  1  1  0  0  0  0
  2  3  1  0  0  0  0
  2 30  1  6  0  0  0
  3 31  1  0  0  0  0
  3 32  1  0  0  0  0
  4  3  1  0  0  0  0
  4  5  1  0  0  0  0
  4 19  1  0  0  0  0
  4 33  1  6  0  0  0
  5  6  1  0  0  0  0
  5 16  1  0  0  0  0
  5 34  1  1  0  0  0
  6  7  1  0  0  0  0
  6 35  1  0  0  0  0
  6 36  1  0  0  0  0
  7  8  1  0  0  0  0
  7 37  1  0  0  0  0
  7 38  1  0  0  0  0
  8  9  2  0  0  0  0
  9 10  1  0  0  0  0
  9 39  1  0  0  0  0
 10 11  2  0  0  0  0
 10 12  1  0  0  0  0
 12 13  2  0  0  0  0
 12 40  1  0  0  0  0
 13 41  1  0  0  0  0
 14 13  1  0  0  0  0
 14  8  1  0  0  0  0
 14 15  1  1  0  0  0
 14 16  1  0  0  0  0
 15 42  1  0  0  0  0
 15 43  1  0  0  0  0
 15 44  1  0  0  0  0
 16 17  2  0  0  0  0
 17 18  1  0  0  0  0
 17 45  1  0  0  0  0
 18 46  1  0  0  0  0
 18 47  1  0  0  0  0
 19 18  1  0  0  0  0
 19 20  1  6  0  0  0
 19 21  1  0  0  0  0
 20 48  1  0  0  0  0
 20 49  1  0  0  0  0
 20 50  1  0  0  0  0
 21  2  1  0  0  0  0
 21 23  1  6  0  0  0
 21 22  1  0  0  0  0
 22 51  1  0  0  0  0
 23 24  2  0  0  0  0
 23 25  1  0  0  0  0
 25 26  1  0  0  0  0
 25 52  1  0  0  0  0
 25 53  1  0  0  0  0
 26 54  1  0  0  0  0
M  END
>  <DRUGBANK_ID>
DB15114

>  <COMMON_NAME>
Vamorolone

>  <CAS_NUMBER>
13209-41-1

>  <UNII>
8XP29XMB43

>  <SYNONYMS>
Vamorolone

$$$$
