
 OpenBabel10282417193D

 95100  0  0  1  0  0  0  0  0999 V2000
    0.5731    0.8663    0.0987 C   0  0  0  0  0  0  0  0  0  0  0  0
    0.3646    0.9459    1.6604 O   0  0  0  0  0  0  0  0  0  0  0  0
    0.7886    0.1039    2.7921 C   0  0  0  0  0  0  0  0  0  0  0  0
    2.1376   -0.3498    2.9900 C   0  0  0  0  0  0  0  0  0  0  0  0
    2.5814   -1.5549    3.6767 C   0  0  0  0  0  0  0  0  0  0  0  0
    1.6304   -2.1710    4.4902 C   0  0  0  0  0  0  0  0  0  0  0  0
    0.2953   -1.6310    4.5258 C   0  0  0  0  0  0  0  0  0  0  0  0
   -0.1742   -0.5617    3.6246 C   0  0  0  0  0  0  0  0  0  0  0  0
   -1.6692   -0.3361    3.3330 C   0  0  0  0  0  0  0  0  0  0  0  0
   -2.5370   -1.4331    2.8761 N   0  0  0  0  0  0  0  0  0  0  0  0
   -3.9218   -1.0346    2.5615 C   0  0  0  0  0  0  0  0  0  0  0  0
   -4.0428   -0.1552    1.3364 C   0  0  1  0  0  0  0  0  0  0  0  0
   -3.5447   -0.7340    0.0286 C   0  0  0  0  0  0  0  0  0  0  0  0
   -3.1211    0.1897   -0.9328 C   0  0  0  0  0  0  0  0  0  0  0  0
   -2.7643   -0.2216   -2.2214 C   0  0  0  0  0  0  0  0  0  0  0  0
   -2.7897   -1.5694   -2.5634 C   0  0  0  0  0  0  0  0  0  0  0  0
   -3.1743   -2.5034   -1.6300 C   0  0  0  0  0  0  0  0  0  0  0  0
   -3.5506   -2.0931   -0.3443 C   0  0  0  0  0  0  0  0  0  0  0  0
   -4.0628   -3.1696    0.4695 C   0  0  0  0  0  0  0  0  0  0  0  0
   -4.7788   -4.1030   -0.1527 C   0  0  0  0  0  0  0  0  0  0  0  0
   -3.9841   -4.7427   -1.2135 C   0  0  0  0  0  0  0  0  0  0  0  0
   -4.0019   -5.9588   -1.3483 O   0  0  0  0  0  0  0  0  0  0  0  0
   -3.2658   -3.8675   -1.9715 N   0  0  0  0  0  0  0  0  0  0  0  0
   -2.5103   -2.0134   -3.8200 O   0  0  0  0  0  0  0  0  0  0  0  0
   -5.4046    0.2450    1.2026 O   0  0  0  0  0  0  0  0  0  0  0  0
    2.0567   -3.6580    5.3275 Cl  0  0  0  0  0  0  0  0  0  0  0  0
    3.8784   -2.2074    3.4662 N   0  0  0  0  0  0  0  0  0  0  0  0
    4.9191   -1.9245    2.6021 C   0  0  0  0  0  0  0  0  0  0  0  0
    6.0106   -2.4939    2.6990 O   0  0  0  0  0  0  0  0  0  0  0  0
    4.7142   -0.9421    1.4935 C   0  0  0  0  0  0  0  0  0  0  0  0
    3.7777   -1.5458    0.4075 C   0  0  0  0  0  0  0  0  0  0  0  0
    2.5555   -2.2546    0.8829 N   0  0  0  0  0  0  0  0  0  0  0  0
    1.3904   -1.5657    0.4439 C   0  0  0  0  0  0  0  0  0  0  0  0
    0.0723   -1.9472    1.1005 C   0  0  0  0  0  0  0  0  0  0  0  0
   -0.3115   -3.3748    1.0644 C   0  0  3  0  0  0  0  0  0  0  0  0
    0.9923   -4.1178    1.3232 C   0  0  0  0  0  0  0  0  0  0  0  0
    2.2565   -3.6270    0.5535 C   0  0  0  0  0  0  0  0  0  0  0  0
   -1.3980   -3.6443    2.0654 O   0  0  0  0  0  0  0  0  0  0  0  0
   -1.2400   -3.9980    3.3930 C   0  0  0  0  0  0  0  0  0  0  0  0
   -0.1775   -4.4294    3.8802 O   0  0  0  0  0  0  0  0  0  0  0  0
   -2.3176   -3.8353    4.2433 N   0  0  0  0  0  0  0  0  0  0  0  0
   -3.5998   -4.2785    3.9173 C   0  0  0  0  0  0  0  0  0  0  0  0
   -3.6372   -5.2746    2.9423 C   0  0  0  0  0  0  0  0  0  0  0  0
   -4.8305   -5.6587    2.3899 C   0  0  0  0  0  0  0  0  0  0  0  0
   -5.9993   -5.0332    2.8041 C   0  0  0  0  0  0  0  0  0  0  0  0
   -5.9881   -4.1787    3.9123 C   0  0  0  0  0  0  0  0  0  0  0  0
   -4.7772   -3.7703    4.5108 C   0  0  0  0  0  0  0  0  0  0  0  0
   -4.8017   -2.8311    5.6616 C   0  0  0  0  0  0  0  0  0  0  0  0
   -4.1154   -1.6111    5.7054 C   0  0  0  0  0  0  0  0  0  0  0  0
   -4.0498   -0.7711    6.8112 C   0  0  0  0  0  0  0  0  0  0  0  0
   -4.7356   -1.1384    7.9440 C   0  0  0  0  0  0  0  0  0  0  0  0
   -5.5078   -2.3002    7.9244 C   0  0  0  0  0  0  0  0  0  0  0  0
   -5.5114   -3.1532    6.8122 C   0  0  0  0  0  0  0  0  0  0  0  0
    0.1721    1.7243   -0.4545 H   0  0  0  0  0  0  0  0  0  0  0  0
    0.0050    0.0440   -0.3973 H   0  0  0  0  0  0  0  0  0  0  0  0
    1.6330    0.8161   -0.2327 H   0  0  0  0  0  0  0  0  0  0  0  0
    2.8214    0.1544    2.3578 H   0  0  0  0  0  0  0  0  0  0  0  0
   -0.4315   -2.1754    5.1307 H   0  0  0  0  0  0  0  0  0  0  0  0
   -2.1063    0.0478    4.2467 H   0  0  0  0  0  0  0  0  0  0  0  0
   -1.7149    0.4138    2.5524 H   0  0  0  0  0  0  0  0  0  0  0  0
   -2.1599   -1.9428    2.0744 H   0  0  0  0  0  0  0  0  0  0  0  0
   -4.6196   -1.8756    2.4740 H   0  0  0  0  0  0  0  0  0  0  0  0
   -4.4029   -0.5148    3.3851 H   0  0  0  0  0  0  0  0  0  0  0  0
   -3.4832    0.7536    1.5768 H   0  0  0  0  0  0  0  0  0  0  0  0
   -3.1040    1.2486   -0.6754 H   0  0  0  0  0  0  0  0  0  0  0  0
   -2.4988    0.5351   -2.9480 H   0  0  0  0  0  0  0  0  0  0  0  0
   -3.9378   -3.1993    1.5261 H   0  0  0  0  0  0  0  0  0  0  0  0
   -5.4642   -4.7629    0.3295 H   0  0  0  0  0  0  0  0  0  0  0  0
   -2.8668   -4.2055   -2.8338 H   0  0  0  0  0  0  0  0  0  0  0  0
   -2.3544   -1.2448   -4.3880 H   0  0  0  0  0  0  0  0  0  0  0  0
   -5.9202   -0.5665    1.0563 H   0  0  0  0  0  0  0  0  0  0  0  0
    4.0359   -3.1033    3.9381 H   0  0  0  0  0  0  0  0  0  0  0  0
    4.4671    0.0209    1.9466 H   0  0  0  0  0  0  0  0  0  0  0  0
    5.6666   -0.6661    1.0252 H   0  0  0  0  0  0  0  0  0  0  0  0
    3.5223   -0.6808   -0.2331 H   0  0  0  0  0  0  0  0  0  0  0  0
    4.3484   -2.2156   -0.2311 H   0  0  0  0  0  0  0  0  0  0  0  0
    1.3209   -1.5319   -0.6394 H   0  0  0  0  0  0  0  0  0  0  0  0
    1.7000   -0.6182    0.8038 H   0  0  0  0  0  0  0  0  0  0  0  0
   -0.7390   -1.2379    0.9039 H   0  0  0  0  0  0  0  0  0  0  0  0
    0.2521   -1.9262    2.1419 H   0  0  0  0  0  0  0  0  0  0  0  0
   -0.7467   -3.5086    0.0732 H   0  0  0  0  0  0  0  0  0  0  0  0
    1.2523   -3.9958    2.3744 H   0  0  0  0  0  0  0  0  0  0  0  0
    0.7847   -5.1631    1.1432 H   0  0  0  0  0  0  0  0  0  0  0  0
    3.1012   -4.2278    0.8654 H   0  0  0  0  0  0  0  0  0  0  0  0
    2.0655   -3.6877   -0.5187 H   0  0  0  0  0  0  0  0  0  0  0  0
   -2.1468   -3.6722    5.2278 H   0  0  0  0  0  0  0  0  0  0  0  0
   -2.7213   -5.6845    2.5223 H   0  0  0  0  0  0  0  0  0  0  0  0
   -4.7786   -6.3043    1.5154 H   0  0  0  0  0  0  0  0  0  0  0  0
   -6.9070   -5.1646    2.2201 H   0  0  0  0  0  0  0  0  0  0  0  0
   -6.9449   -3.8115    4.2777 H   0  0  0  0  0  0  0  0  0  0  0  0
   -3.5561   -1.2702    4.8706 H   0  0  0  0  0  0  0  0  0  0  0  0
   -3.4504    0.1362    6.7665 H   0  0  0  0  0  0  0  0  0  0  0  0
   -4.6578   -0.5270    8.8357 H   0  0  0  0  0  0  0  0  0  0  0  0
   -6.1037   -2.5600    8.7909 H   0  0  0  0  0  0  0  0  0  0  0  0
   -6.0422   -4.0997    6.8599 H   0  0  0  0  0  0  0  0  0  0  0  0
  1  2  1  0  0  0  0
  1 54  1  0  0  0  0
  1 55  1  0  0  0  0
  1 56  1  0  0  0  0
  2  3  1  0  0  0  0
  3  4  2  0  0  0  0
  3  8  1  0  0  0  0
  4  5  1  0  0  0  0
  4 57  1  0  0  0  0
  5  6  2  0  0  0  0
  5 27  1  0  0  0  0
  6  7  1  0  0  0  0
  6 26  1  0  0  0  0
  7  8  2  0  0  0  0
  7 58  1  0  0  0  0
  8  9  1  0  0  0  0
  9 10  1  0  0  0  0
  9 59  1  0  0  0  0
  9 60  1  0  0  0  0
 10 11  1  0  0  0  0
 10 61  1  0  0  0  0
 11 12  1  0  0  0  0
 11 62  1  0  0  0  0
 11 63  1  0  0  0  0
 12 13  1  0  0  0  0
 12 25  1  0  0  0  0
 12 64  1  1  0  0  0
 13 14  1  0  0  0  0
 13 18  2  0  0  0  0
 14 15  2  0  0  0  0
 14 65  1  0  0  0  0
 15 16  1  0  0  0  0
 15 66  1  0  0  0  0
 16 17  2  0  0  0  0
 16 24  1  0  0  0  0
 17 18  1  0  0  0  0
 17 23  1  0  0  0  0
 18 19  1  0  0  0  0
 19 20  2  0  0  0  0
 19 67  1  0  0  0  0
 20 21  1  0  0  0  0
 20 68  1  0  0  0  0
 21 22  2  0  0  0  0
 21 23  1  0  0  0  0
 23 69  1  0  0  0  0
 24 70  1  0  0  0  0
 25 71  1  0  0  0  0
 27 28  1  0  0  0  0
 27 72  1  0  0  0  0
 28 29  2  0  0  0  0
 28 30  1  0  0  0  0
 30 31  1  0  0  0  0
 30 73  1  0  0  0  0
 30 74  1  0  0  0  0
 31 32  1  0  0  0  0
 31 75  1  0  0  0  0
 31 76  1  0  0  0  0
 32 33  1  0  0  0  0
 32 37  1  0  0  0  0
 33 34  1  0  0  0  0
 33 77  1  0  0  0  0
 33 78  1  0  0  0  0
 34 35  1  0  0  0  0
 34 79  1  0  0  0  0
 34 80  1  0  0  0  0
 35 36  1  0  0  0  0
 35 38  1  0  0  0  0
 35 81  1  0  0  0  0
 36 37  1  0  0  0  0
 36 82  1  0  0  0  0
 36 83  1  0  0  0  0
 37 84  1  0  0  0  0
 37 85  1  0  0  0  0
 38 39  1  0  0  0  0
 39 40  2  0  0  0  0
 39 41  1  0  0  0  0
 41 42  1  0  0  0  0
 41 86  1  0  0  0  0
 42 43  2  0  0  0  0
 42 47  1  0  0  0  0
 43 44  1  0  0  0  0
 43 87  1  0  0  0  0
 44 45  2  0  0  0  0
 44 88  1  0  0  0  0
 45 46  1  0  0  0  0
 45 89  1  0  0  0  0
 46 47  2  0  0  0  0
 46 90  1  0  0  0  0
 47 48  1  0  0  0  0
 48 49  2  0  0  0  0
 48 53  1  0  0  0  0
 49 50  1  0  0  0  0
 49 91  1  0  0  0  0
 50 51  2  0  0  0  0
 50 92  1  0  0  0  0
 51 52  1  0  0  0  0
 51 93  1  0  0  0  0
 52 53  2  0  0  0  0
 52 94  1  0  0  0  0
 53 95  1  0  0  0  0
M  END
>  <DRUGBANK_ID>
DB12526

>  <COMMON_NAME>
Batefenterol

>  <CAS_NUMBER>
743461-65-6

>  <UNII>
1IAT42T80T

>  <SYNONYMS>
Batefenterol

$$$$
