1084
 OpenBabel10282417113D

 48 50  0  0  1  0  0  0  0  0999 V2000
    0.7091    0.3857    0.2737 O   0  0  0  0  0  0  0  0  0  0  0  0
    2.7731    3.2375   -3.4299 N   0  0  0  0  0  0  0  0  0  0  0  0
    0.7003    5.1648   -4.7827 N   0  0  0  0  0  0  0  0  0  0  0  0
    2.5637    1.0832   -2.3632 N   0  0  0  0  0  0  0  0  0  0  0  0
    4.6093    1.9415   -2.5623 N   0  0  0  0  0  0  0  0  0  0  0  0
    3.1622    3.5046   -4.8140 C   0  0  0  0  0  0  0  0  0  0  0  0
    1.9665    4.2833   -2.7905 C   0  0  0  0  0  0  0  0  0  0  0  0
    1.9726    3.1319   -5.7007 C   0  0  0  0  0  0  0  0  0  0  0  0
    0.5898    4.4429   -3.5000 C   0  0  0  0  0  0  0  0  0  0  0  0
    0.9921    4.2919   -5.9320 C   0  0  0  0  0  0  0  0  0  0  0  0
    3.3197    2.1813   -2.7763 C   0  0  0  0  0  0  0  0  0  0  0  0
    3.4474    0.0543   -2.0293 C   0  0  0  0  0  0  0  0  0  0  0  0
    1.1224    1.1622   -2.1143 C   0  0  0  0  0  0  0  0  0  0  0  0
    4.6873    0.6918   -1.9948 C   0  0  0  0  0  0  0  0  0  0  0  0
   -0.4886    5.9764   -5.0432 C   0  0  0  0  0  0  0  0  0  0  0  0
    0.4580    0.1560   -1.1529 C   0  0  0  0  0  0  0  0  0  0  0  0
    3.3060   -1.2720   -1.5637 C   0  0  0  0  0  0  0  0  0  0  0  0
    5.7787    0.0253   -1.3884 C   0  0  0  0  0  0  0  0  0  0  0  0
    4.3290   -1.7934   -0.7539 C   0  0  0  0  0  0  0  0  0  0  0  0
    5.5650   -1.1753   -0.6943 C   0  0  0  0  0  0  0  0  0  0  0  0
    2.0970    0.3354    0.5664 C   0  0  0  0  0  0  0  0  0  0  0  0
    2.7219    0.3452    1.9354 C   0  0  0  0  0  0  0  0  0  0  0  0
    3.4448    4.5559   -4.9565 H   0  0  0  0  0  0  0  0  0  0  0  0
    4.0366    2.9076   -5.0983 H   0  0  0  0  0  0  0  0  0  0  0  0
    1.8051    4.0765   -1.7267 H   0  0  0  0  0  0  0  0  0  0  0  0
    2.4982    5.2451   -2.8226 H   0  0  0  0  0  0  0  0  0  0  0  0
    2.3349    2.7864   -6.6749 H   0  0  0  0  0  0  0  0  0  0  0  0
    1.4254    2.2859   -5.2624 H   0  0  0  0  0  0  0  0  0  0  0  0
   -0.0560    5.0044   -2.8137 H   0  0  0  0  0  0  0  0  0  0  0  0
    0.1016    3.4717   -3.6465 H   0  0  0  0  0  0  0  0  0  0  0  0
    1.3954    4.9198   -6.7375 H   0  0  0  0  0  0  0  0  0  0  0  0
    0.0622    3.8549   -6.3224 H   0  0  0  0  0  0  0  0  0  0  0  0
    0.6502    1.1220   -3.1022 H   0  0  0  0  0  0  0  0  0  0  0  0
    0.9225    2.1435   -1.6749 H   0  0  0  0  0  0  0  0  0  0  0  0
   -1.3928    5.3630   -5.1255 H   0  0  0  0  0  0  0  0  0  0  0  0
   -0.6386    6.7051   -4.2382 H   0  0  0  0  0  0  0  0  0  0  0  0
   -0.3740    6.5555   -5.9665 H   0  0  0  0  0  0  0  0  0  0  0  0
    0.6697   -0.8721   -1.4549 H   0  0  0  0  0  0  0  0  0  0  0  0
   -0.6288    0.2359   -1.2749 H   0  0  0  0  0  0  0  0  0  0  0  0
    2.3511   -1.7842   -1.5217 H   0  0  0  0  0  0  0  0  0  0  0  0
    6.7589    0.4859   -1.3723 H   0  0  0  0  0  0  0  0  0  0  0  0
    4.1091   -2.6355   -0.0938 H   0  0  0  0  0  0  0  0  0  0  0  0
    6.3534   -1.6197   -0.0903 H   0  0  0  0  0  0  0  0  0  0  0  0
    2.3667   -0.6580    0.2727 H   0  0  0  0  0  0  0  0  0  0  0  0
    2.5813    1.1568    0.0436 H   0  0  0  0  0  0  0  0  0  0  0  0
    2.4532   -0.5540    2.4925 H   0  0  0  0  0  0  0  0  0  0  0  0
    3.8154    0.3030    1.7817 H   0  0  0  0  0  0  0  0  0  0  0  0
    2.4917    1.2435    2.4994 H   0  0  0  0  0  0  0  0  0  0  0  0
  1 16  1  0  0  0  0
  1 21  1  0  0  0  0
  2  6  1  0  0  0  0
  2  7  1  0  0  0  0
  2 11  1  0  0  0  0
  3  9  1  0  0  0  0
  3 10  1  0  0  0  0
  3 15  1  0  0  0  0
  4 11  1  0  0  0  0
  4 12  1  0  0  0  0
  4 13  1  0  0  0  0
  5 11  2  0  0  0  0
  5 14  1  0  0  0  0
  6  8  1  0  0  0  0
  6 23  1  0  0  0  0
  6 24  1  0  0  0  0
  7  9  1  0  0  0  0
  7 25  1  0  0  0  0
  7 26  1  0  0  0  0
  8 10  1  0  0  0  0
  8 27  1  0  0  0  0
  8 28  1  0  0  0  0
  9 29  1  0  0  0  0
  9 30  1  0  0  0  0
 10 31  1  0  0  0  0
 10 32  1  0  0  0  0
 12 14  1  0  0  0  0
 12 17  2  0  0  0  0
 13 16  1  0  0  0  0
 13 33  1  0  0  0  0
 13 34  1  0  0  0  0
 14 18  2  0  0  0  0
 15 35  1  0  0  0  0
 15 36  1  0  0  0  0
 15 37  1  0  0  0  0
 16 38  1  0  0  0  0
 16 39  1  0  0  0  0
 17 19  1  0  0  0  0
 17 40  1  0  0  0  0
 18 20  1  0  0  0  0
 18 41  1  0  0  0  0
 19 20  2  0  0  0  0
 19 42  1  0  0  0  0
 20 43  1  0  0  0  0
 21 22  1  0  0  0  0
 21 44  1  0  0  0  0
 21 45  1  0  0  0  0
 22 46  1  0  0  0  0
 22 47  1  0  0  0  0
 22 48  1  0  0  0  0
M  END
>  <DRUGBANK_ID>
DB01084

>  <SECONDARY_ACCESSION_NUMBERS>
APRD00946

>  <COMMON_NAME>
Emedastine

>  <CAS_NUMBER>
87233-61-2

>  <UNII>
9J1H7Y9OJV

>  <SYNONYMS>
1-(2-Ethoxy-ethyl)-2-(4-methyl-[1,4]diazepan-1-yl)-1H-benzoimidazole; 1-(2-ethoxyethyl)-2-(hexahydro-4-methyl-1H-1,4-diazepin-1-yl)benzimidazole; 1-[2-(ethoxy)ethyl]-2-(4-methyl-1-homopiperazinyl)benzimidazole; Emedastina; Emedastine; Emedastinum

$$$$
