
 OpenBabel10282417183D

 29 28  0  0  0  0  0  0  0  0999 V2000
   -1.0062    1.8011    0.9727 C   0  0  0  0  0  0  0  0  0  0  0  0
    1.6739   -2.8593    0.6178 C   0  0  0  0  0  0  0  0  0  0  0  0
   -0.0651    0.6999    1.4172 C   0  0  2  0  0  0  0  0  0  0  0  0
    2.2754   -1.7124    1.4829 C   0  0  2  0  0  0  0  0  0  0  0  0
    0.8333    0.1483    0.3201 C   0  0  2  0  0  0  0  0  0  0  0  0
    2.1860   -0.2345    0.9812 C   0  0  2  0  0  0  0  0  0  0  0  0
   -0.9442    2.3954   -0.1105 O   0  0  0  0  0  0  0  0  0  0  0  0
   -0.7778   -0.3991    1.9824 O   0  0  0  0  0  0  0  0  0  0  0  0
    3.6703   -2.0091    1.6957 O   0  0  0  0  0  0  0  0  0  0  0  0
    1.0459    1.0408   -0.7578 O   0  0  0  0  0  0  0  0  0  0  0  0
    3.2838    0.0439    0.1204 O   0  0  0  0  0  0  0  0  0  0  0  0
    3.9820   -1.6786   -1.2656 O   0  0  0  0  0  0  0  0  0  0  0  0
    2.5025   -2.7157   -2.8789 O   0  0  0  0  0  0  0  0  0  0  0  0
    2.3604   -0.4173   -2.4933 O   0  0  0  0  0  0  0  0  0  0  0  0
    2.3576   -3.1118   -0.6259 O   0  0  0  0  0  0  0  0  0  0  0  0
    2.3591   -1.6899   -1.6114 P   0  0  0  0  0  0  0  0  0  0  0  0
    0.5398    1.1393    2.2170 H   0  0  0  0  0  0  0  0  0  0  0  0
    1.7836   -1.7385    2.4617 H   0  0  0  0  0  0  0  0  0  0  0  0
    0.3580   -0.7299   -0.1286 H   0  0  0  0  0  0  0  0  0  0  0  0
    2.4147    0.4414    1.8101 H   0  0  0  0  0  0  0  0  0  0  0  0
   -1.7654    2.0824    1.7086 H   0  0  0  0  0  0  0  0  0  0  0  0
    1.7448   -3.7913    1.1885 H   0  0  0  0  0  0  0  0  0  0  0  0
    0.6123   -2.7032    0.4082 H   0  0  0  0  0  0  0  0  0  0  0  0
   -1.3659   -0.7570    1.2910 H   0  0  0  0  0  0  0  0  0  0  0  0
    4.0296   -2.4532    0.8965 H   0  0  0  0  0  0  0  0  0  0  0  0
    0.1970    1.4020   -1.0904 H   0  0  0  0  0  0  0  0  0  0  0  0
    3.8504   -0.7472    0.2061 H   0  0  0  0  0  0  0  0  0  0  0  0
    4.3176   -0.7814   -1.5016 H   0  0  0  0  0  0  0  0  0  0  0  0
    2.4847   -3.6387   -2.5768 H   0  0  0  0  0  0  0  0  0  0  0  0
  1 21  1  0  0  0  0
  2 22  1  0  0  0  0
  2 23  1  0  0  0  0
  3  8  1  0  0  0  0
  3 17  1  1  0  0  0
  3  5  1  0  0  0  0
  3  1  1  0  0  0  0
  4  2  1  0  0  0  0
  4  9  1  0  0  0  0
  4 18  1  1  0  0  0
  5 19  1  6  0  0  0
  5 10  1  0  0  0  0
  5  6  1  0  0  0  0
  6  4  1  0  0  0  0
  6 11  1  0  0  0  0
  6 20  1  1  0  0  0
  7  1  2  0  0  0  0
  8 24  1  0  0  0  0
  9 25  1  0  0  0  0
 10 26  1  0  0  0  0
 11 27  1  0  0  0  0
 12 28  1  0  0  0  0
 13 29  1  0  0  0  0
 15  2  1  0  0  0  0
 16 12  1  0  0  0  0
 16 13  1  0  0  0  0
 16 14  2  0  0  0  0
 16 15  1  0  0  0  0
M  END
>  <DRUGBANK_ID>
DB11848

>  <COMMON_NAME>
Mannose 6-phosphate

>  <CAS_NUMBER>
3672-15-9

>  <UNII>
U2S53JF879

>  <SYNONYMS>
Juvidex

$$$$
