
 OpenBabel10282417133D

 82 83  0  0  0  0  0  0  0  0999 V2000
    0.9936    0.0553    0.0011 O   0  0  0  0  0  0  0  0  0  0  0  0
    1.0667    0.0447   -5.0551 O   0  0  0  0  0  0  0  0  0  0  0  0
    1.5667    2.1988    4.1650 O   0  0  0  0  0  0  0  0  0  0  0  0
    6.0895    2.2972   -6.5247 O   0  0  0  0  0  0  0  0  0  0  0  0
    1.5947   -0.0039    4.1287 O   0  0  0  0  0  0  0  0  0  0  0  0
    6.0416    0.0880   -6.4560 O   0  0  0  0  0  0  0  0  0  0  0  0
    6.1790    0.0321   -2.4141 O   0  0  0  0  0  0  0  0  0  0  0  0
    2.2873    1.1197    2.2305 N   0  0  0  0  0  0  0  0  0  0  0  0
    4.0573    1.1967   -6.1547 N   0  0  0  0  0  0  0  0  0  0  0  0
    2.9503    0.0304   -0.9837 N   0  0  0  0  0  0  0  0  0  0  0  0
    2.9190    0.0756   -3.8375 N   0  0  0  0  0  0  0  0  0  0  0  0
    4.3067    0.0679   -1.2023 N   0  0  0  0  0  0  0  0  0  0  0  0
    4.2814    0.0285   -3.5864 N   0  0  0  0  0  0  0  0  0  0  0  0
    3.0214   -2.5792    1.3453 C   0  0  0  0  0  0  0  0  0  0  0  0
    2.9157   -2.5137   -6.3834 C   0  0  0  0  0  0  0  0  0  0  0  0
    2.6171   -1.3513    2.1428 C   0  0  0  0  0  0  0  0  0  0  0  0
    3.8137   -1.2906   -6.4518 C   0  0  0  0  0  0  0  0  0  0  0  0
    2.8784   -0.0007    1.5001 C   0  0  1  0  0  0  0  0  0  0  0  0
    3.1339    0.0609   -6.2913 C   0  0  1  0  0  0  0  0  0  0  0  0
    4.5197   -2.5906    1.0906 C   0  0  0  0  0  0  0  0  0  0  0  0
    2.6126   -3.8060    2.1547 C   0  0  0  0  0  0  0  0  0  0  0  0
    1.9230   -2.4985   -7.5329 C   0  0  0  0  0  0  0  0  0  0  0  0
    3.8238   -3.7400   -6.4456 C   0  0  0  0  0  0  0  0  0  0  0  0
    2.2191    0.0323    0.1491 C   0  0  0  0  0  0  0  0  0  0  0  0
    2.2978    0.0873   -5.0423 C   0  0  0  0  0  0  0  0  0  0  0  0
    1.7746    1.0297    3.5126 C   0  0  0  0  0  0  0  0  0  0  0  0
    5.4229    1.1290   -6.3743 C   0  0  0  0  0  0  0  0  0  0  0  0
    4.9452    0.0385   -2.4039 C   0  0  0  0  0  0  0  0  0  0  0  0
    1.9533    3.4767    3.6636 C   0  0  0  0  0  0  0  0  0  0  0  0
    5.4713    3.5818   -6.5915 C   0  0  0  0  0  0  0  0  0  0  0  0
    3.4515    3.6600    3.5286 C   0  0  0  0  0  0  0  0  0  0  0  0
    4.5759    3.7680   -7.8000 C   0  0  0  0  0  0  0  0  0  0  0  0
    3.9584    4.9526    3.3968 C   0  0  0  0  0  0  0  0  0  0  0  0
    3.9963    2.6888   -8.4924 C   0  0  0  0  0  0  0  0  0  0  0  0
    4.3731    2.5939    3.5269 C   0  0  0  0  0  0  0  0  0  0  0  0
    4.1881    5.0501   -8.1783 C   0  0  0  0  0  0  0  0  0  0  0  0
    5.3348    5.1530    3.2675 C   0  0  0  0  0  0  0  0  0  0  0  0
    2.9252    2.8371   -9.3531 C   0  0  0  0  0  0  0  0  0  0  0  0
    5.7354    2.7847    3.3700 C   0  0  0  0  0  0  0  0  0  0  0  0
    3.1591    5.2150   -9.1105 C   0  0  0  0  0  0  0  0  0  0  0  0
    6.2171    4.0711    3.2310 C   0  0  0  0  0  0  0  0  0  0  0  0
    2.5213    4.1120   -9.6847 C   0  0  0  0  0  0  0  0  0  0  0  0
    2.5029    2.0248    1.8420 H   0  0  0  0  0  0  0  0  0  0  0  0
    3.5887    2.0925   -6.1430 H   0  0  0  0  0  0  0  0  0  0  0  0
    2.3019    0.0135   -1.7253 H   0  0  0  0  0  0  0  0  0  0  0  0
    2.2093   -0.0168   -3.1574 H   0  0  0  0  0  0  0  0  0  0  0  0
    4.9543    0.0686   -0.4232 H   0  0  0  0  0  0  0  0  0  0  0  0
    4.9207    0.0399   -4.3799 H   0  0  0  0  0  0  0  0  0  0  0  0
    2.4778   -2.5955    0.3933 H   0  0  0  0  0  0  0  0  0  0  0  0
    2.3785   -2.5348   -5.4274 H   0  0  0  0  0  0  0  0  0  0  0  0
    3.1517   -1.3760    3.1012 H   0  0  0  0  0  0  0  0  0  0  0  0
    1.5406   -1.4377    2.3415 H   0  0  0  0  0  0  0  0  0  0  0  0
    4.3471   -1.2912   -7.4105 H   0  0  0  0  0  0  0  0  0  0  0  0
    4.5594   -1.4308   -5.6654 H   0  0  0  0  0  0  0  0  0  0  0  0
    3.9510    0.1984    1.4110 H   0  0  0  0  0  0  0  0  0  0  0  0
    2.4605    0.2760   -7.1322 H   0  0  0  0  0  0  0  0  0  0  0  0
    5.0773   -2.5729    2.0322 H   0  0  0  0  0  0  0  0  0  0  0  0
    4.8056   -3.4750    0.5188 H   0  0  0  0  0  0  0  0  0  0  0  0
    4.8369   -1.7213    0.5201 H   0  0  0  0  0  0  0  0  0  0  0  0
    1.5356   -3.7971    2.3590 H   0  0  0  0  0  0  0  0  0  0  0  0
    2.8527   -4.7201    1.6089 H   0  0  0  0  0  0  0  0  0  0  0  0
    3.1331   -3.8252    3.1191 H   0  0  0  0  0  0  0  0  0  0  0  0
    2.4494   -2.4589   -8.4925 H   0  0  0  0  0  0  0  0  0  0  0  0
    1.2968   -3.3921   -7.5098 H   0  0  0  0  0  0  0  0  0  0  0  0
    1.2647   -1.6260   -7.4770 H   0  0  0  0  0  0  0  0  0  0  0  0
    4.5387   -3.7347   -5.6129 H   0  0  0  0  0  0  0  0  0  0  0  0
    3.2386   -4.6588   -6.3866 H   0  0  0  0  0  0  0  0  0  0  0  0
    4.4036   -3.7469   -7.3754 H   0  0  0  0  0  0  0  0  0  0  0  0
    1.4142    3.6699    2.7284 H   0  0  0  0  0  0  0  0  0  0  0  0
    1.5822    4.1935    4.4050 H   0  0  0  0  0  0  0  0  0  0  0  0
    4.9228    3.7509   -5.6540 H   0  0  0  0  0  0  0  0  0  0  0  0
    6.2924    4.3061   -6.6136 H   0  0  0  0  0  0  0  0  0  0  0  0
    3.2893    5.8109    3.4234 H   0  0  0  0  0  0  0  0  0  0  0  0
    4.3292    1.6670   -8.3678 H   0  0  0  0  0  0  0  0  0  0  0  0
    4.0818    1.5590    3.6533 H   0  0  0  0  0  0  0  0  0  0  0  0
    4.6855    5.9236   -7.7614 H   0  0  0  0  0  0  0  0  0  0  0  0
    5.7265    6.1634    3.2143 H   0  0  0  0  0  0  0  0  0  0  0  0
    2.4367    1.9503   -9.7484 H   0  0  0  0  0  0  0  0  0  0  0  0
    6.3956    1.9219    3.3921 H   0  0  0  0  0  0  0  0  0  0  0  0
    2.8325    6.2140   -9.3790 H   0  0  0  0  0  0  0  0  0  0  0  0
    7.2843    4.2256    3.1175 H   0  0  0  0  0  0  0  0  0  0  0  0
    1.7339    4.2395  -10.4188 H   0  0  0  0  0  0  0  0  0  0  0  0
  1 24  2  0  0  0  0
  2 25  2  0  0  0  0
  3 26  1  0  0  0  0
  3 29  1  0  0  0  0
  4 27  1  0  0  0  0
  4 30  1  0  0  0  0
  5 26  2  0  0  0  0
  6 27  2  0  0  0  0
  7 28  2  0  0  0  0
  8 26  1  0  0  0  0
  8 43  1  0  0  0  0
  9 27  1  0  0  0  0
  9 44  1  0  0  0  0
 10 12  1  0  0  0  0
 10 24  1  0  0  0  0
 10 45  1  0  0  0  0
 11 13  1  0  0  0  0
 11 25  1  0  0  0  0
 11 46  1  0  0  0  0
 12 28  1  0  0  0  0
 12 47  1  0  0  0  0
 13 28  1  0  0  0  0
 13 48  1  0  0  0  0
 14 16  1  0  0  0  0
 14 20  1  0  0  0  0
 14 21  1  0  0  0  0
 14 49  1  0  0  0  0
 15 17  1  0  0  0  0
 15 22  1  0  0  0  0
 15 23  1  0  0  0  0
 15 50  1  0  0  0  0
 16 18  1  0  0  0  0
 16 51  1  0  0  0  0
 16 52  1  0  0  0  0
 17 19  1  0  0  0  0
 17 53  1  0  0  0  0
 17 54  1  0  0  0  0
 18  8  1  0  0  0  0
 18 24  1  0  0  0  0
 18 55  1  6  0  0  0
 19  9  1  0  0  0  0
 19 25  1  0  0  0  0
 19 56  1  6  0  0  0
 20 57  1  0  0  0  0
 20 58  1  0  0  0  0
 20 59  1  0  0  0  0
 21 60  1  0  0  0  0
 21 61  1  0  0  0  0
 21 62  1  0  0  0  0
 22 63  1  0  0  0  0
 22 64  1  0  0  0  0
 22 65  1  0  0  0  0
 23 66  1  0  0  0  0
 23 67  1  0  0  0  0
 23 68  1  0  0  0  0
 29 31  1  0  0  0  0
 29 69  1  0  0  0  0
 29 70  1  0  0  0  0
 30 32  1  0  0  0  0
 30 71  1  0  0  0  0
 30 72  1  0  0  0  0
 31 33  2  0  0  0  0
 31 35  1  0  0  0  0
 32 34  2  0  0  0  0
 32 36  1  0  0  0  0
 33 37  1  0  0  0  0
 33 73  1  0  0  0  0
 34 38  1  0  0  0  0
 34 74  1  0  0  0  0
 35 39  2  0  0  0  0
 35 75  1  0  0  0  0
 36 40  2  0  0  0  0
 36 76  1  0  0  0  0
 37 41  2  0  0  0  0
 37 77  1  0  0  0  0
 38 42  2  0  0  0  0
 38 78  1  0  0  0  0
 39 41  1  0  0  0  0
 39 79  1  0  0  0  0
 40 42  1  0  0  0  0
 40 80  1  0  0  0  0
 41 81  1  0  0  0  0
 42 82  1  0  0  0  0
M  END
>  <DRUGBANK_ID>
DB03891

>  <SECONDARY_ACCESSION_NUMBERS>
EXPT01880

>  <COMMON_NAME>
Dibenzyl (carbonylbis{2,1-hydrazinediyl[(2S)-4-methyl-1-oxo-1,2-pentanediyl]})biscarbamate

>  <SYNONYMS>
1,5-Bis(N-benzyloxycarbonyl-L-leucinyl)carbohydrazide

$$$$
