
 OpenBabel10282417223D

 54 58  0  0  0  0  0  0  0  0999 V2000
    1.1459   -0.0532   -0.0959 C   0  0  0  0  0  0  0  0  0  0  0  0
    0.6156    0.4820   -1.3139 O   0  0  0  0  0  0  0  0  0  0  0  0
    0.9706    1.7854   -1.5722 C   0  0  0  0  0  0  0  0  0  0  0  0
    2.3014    2.1973   -1.4271 C   0  0  0  0  0  0  0  0  0  0  0  0
    2.6590    3.5036   -1.7253 C   0  0  0  0  0  0  0  0  0  0  0  0
    3.9351    3.8824   -1.5747 F   0  0  0  0  0  0  0  0  0  0  0  0
    1.7177    4.4152   -2.1802 C   0  0  0  0  0  0  0  0  0  0  0  0
    0.3888    4.0085   -2.3554 C   0  0  0  0  0  0  0  0  0  0  0  0
   -0.0063    2.6875   -2.0645 C   0  0  0  0  0  0  0  0  0  0  0  0
   -1.4260    2.3116   -2.2284 C   0  0  0  0  0  0  0  0  0  0  0  0
   -2.1937    1.8913   -1.1454 C   0  0  0  0  0  0  0  0  0  0  0  0
   -1.8437    1.7293    0.2911 C   0  0  0  0  0  0  0  0  0  0  0  0
   -3.7919    1.4900   -1.5861 S   0  0  0  0  0  0  0  0  0  0  0  0
   -3.5341    1.9300   -3.2015 C   0  0  0  0  0  0  0  0  0  0  0  0
   -4.4423    1.8972   -4.2400 C   0  0  0  0  0  0  0  0  0  0  0  0
   -4.0629    2.2970   -5.4630 N   0  0  0  0  0  0  0  0  0  0  0  0
   -2.7968    2.7028   -5.6396 C   0  0  0  0  0  0  0  0  0  0  0  0
   -2.4982    3.1260   -6.9413 N   0  0  0  0  0  0  0  0  0  0  0  0
   -1.3208    3.5985   -7.3597 C   0  0  0  0  0  0  0  0  0  0  0  0
   -0.1382    2.9218   -7.2398 C   0  0  0  0  0  0  0  0  0  0  0  0
    0.8345    3.7377   -7.7263 N   0  0  0  0  0  0  0  0  0  0  0  0
    0.3402    4.9182   -8.1770 N   0  0  0  0  0  0  0  0  0  0  0  0
   -0.9776    4.8207   -7.9510 C   0  0  0  0  0  0  0  0  0  0  0  0
    2.2668    3.4567   -7.8347 C   0  0  0  0  0  0  0  0  0  0  0  0
    2.5637    2.2570   -8.7457 C   0  0  0  0  0  0  0  0  0  0  0  0
    2.3100    0.9201   -8.0519 C   0  0  0  0  0  0  0  0  0  0  0  0
    3.0303    0.8305   -6.7828 N   0  0  0  0  0  0  0  0  0  0  0  0
    2.6846    1.9111   -5.8576 C   0  0  0  0  0  0  0  0  0  0  0  0
    2.9589    3.2796   -6.4755 C   0  0  0  0  0  0  0  0  0  0  0  0
   -1.8540    2.7625   -4.6767 N   0  0  0  0  0  0  0  0  0  0  0  0
   -2.2367    2.3642   -3.4359 C   0  0  0  0  0  0  0  0  0  0  0  0
    0.7179   -1.0516    0.0375 H   0  0  0  0  0  0  0  0  0  0  0  0
    0.8577    0.5534    0.7705 H   0  0  0  0  0  0  0  0  0  0  0  0
    2.2323   -0.1579   -0.1161 H   0  0  0  0  0  0  0  0  0  0  0  0
    3.0819    1.5175   -1.1065 H   0  0  0  0  0  0  0  0  0  0  0  0
    2.0259    5.4333   -2.3999 H   0  0  0  0  0  0  0  0  0  0  0  0
   -0.3364    4.7383   -2.7112 H   0  0  0  0  0  0  0  0  0  0  0  0
   -1.1019    0.9491    0.4070 H   0  0  0  0  0  0  0  0  0  0  0  0
   -1.4672    2.6637    0.7135 H   0  0  0  0  0  0  0  0  0  0  0  0
   -2.6968    1.3968    0.8902 H   0  0  0  0  0  0  0  0  0  0  0  0
   -5.4635    1.5617   -4.1104 H   0  0  0  0  0  0  0  0  0  0  0  0
   -3.3544    3.1959   -7.4799 H   0  0  0  0  0  0  0  0  0  0  0  0
    0.0327    1.9433   -6.8335 H   0  0  0  0  0  0  0  0  0  0  0  0
   -1.6188    5.6598   -8.1848 H   0  0  0  0  0  0  0  0  0  0  0  0
    2.6963    4.3503   -8.3097 H   0  0  0  0  0  0  0  0  0  0  0  0
    1.9780    2.3179   -9.6706 H   0  0  0  0  0  0  0  0  0  0  0  0
    3.6216    2.2946   -9.0401 H   0  0  0  0  0  0  0  0  0  0  0  0
    1.2435    0.7442   -7.8977 H   0  0  0  0  0  0  0  0  0  0  0  0
    2.6341    0.1062   -8.7089 H   0  0  0  0  0  0  0  0  0  0  0  0
    2.8166   -0.0643   -6.3400 H   0  0  0  0  0  0  0  0  0  0  0  0
    3.2820    1.8016   -4.9461 H   0  0  0  0  0  0  0  0  0  0  0  0
    1.6447    1.8239   -5.5331 H   0  0  0  0  0  0  0  0  0  0  0  0
    4.0442    3.3761   -6.6230 H   0  0  0  0  0  0  0  0  0  0  0  0
    2.6668    4.0738   -5.7787 H   0  0  0  0  0  0  0  0  0  0  0  0
  1  2  1  0  0  0  0
  1 32  1  0  0  0  0
  1 33  1  0  0  0  0
  1 34  1  0  0  0  0
  2  3  1  0  0  0  0
  3  4  2  0  0  0  0
  3  9  1  0  0  0  0
  4  5  1  0  0  0  0
  4 35  1  0  0  0  0
  5  6  1  0  0  0  0
  5  7  2  0  0  0  0
  7  8  1  0  0  0  0
  7 36  1  0  0  0  0
  8  9  2  0  0  0  0
  8 37  1  0  0  0  0
  9 10  1  0  0  0  0
 10 11  2  0  0  0  0
 10 31  1  0  0  0  0
 11 12  1  0  0  0  0
 11 13  1  0  0  0  0
 12 38  1  0  0  0  0
 12 39  1  0  0  0  0
 12 40  1  0  0  0  0
 13 14  1  0  0  0  0
 14 15  2  0  0  0  0
 14 31  1  0  0  0  0
 15 16  1  0  0  0  0
 15 41  1  0  0  0  0
 16 17  2  0  0  0  0
 17 18  1  0  0  0  0
 17 30  1  0  0  0  0
 18 19  1  0  0  0  0
 18 42  1  0  0  0  0
 19 20  2  0  0  0  0
 19 23  1  0  0  0  0
 20 21  1  0  0  0  0
 20 43  1  0  0  0  0
 21 22  1  0  0  0  0
 21 24  1  0  0  0  0
 22 23  2  0  0  0  0
 23 44  1  0  0  0  0
 24 25  1  0  0  0  0
 24 29  1  0  0  0  0
 24 45  1  0  0  0  0
 25 26  1  0  0  0  0
 25 46  1  0  0  0  0
 25 47  1  0  0  0  0
 26 27  1  0  0  0  0
 26 48  1  0  0  0  0
 26 49  1  0  0  0  0
 27 28  1  0  0  0  0
 27 50  1  0  0  0  0
 28 29  1  0  0  0  0
 28 51  1  0  0  0  0
 28 52  1  0  0  0  0
 29 53  1  0  0  0  0
 29 54  1  0  0  0  0
 30 31  2  0  0  0  0
M  END
>  <DRUGBANK_ID>
DB15191

>  <COMMON_NAME>
MAX-40279

>  <CAS_NUMBER>
2070931-57-4

>  <UNII>
DL772G3NN7

>  <SYNONYMS>
7-(4-Fluoro-2-methoxyphenyl)-6-methyl-N-(1-(piperidin-4-yl)-1H-pyrazol-4-yl) thieno (3,2-d)pyrimidin-2-amine

$$$$
