MBP
 OpenBabel10282417133D

 30 31  0  0  0  0  0  0  0  0999 V2000
    2.0408   -0.6405   -0.0285 C   0  0  0  0  0  0  0  0  0  0  0  0
   -0.2062   -0.6631   -0.0095 C   0  0  0  0  0  0  0  0  0  0  0  0
   -0.2221    0.7118   -0.0593 C   0  0  0  0  0  0  0  0  0  0  0  0
    3.0008    3.1338    1.2508 C   0  0  0  0  0  0  0  0  0  0  0  0
    4.1789    2.7579    1.1825 O   0  0  0  0  0  0  0  0  0  0  0  0
    2.1340    4.9429    2.7689 C   0  0  0  0  0  0  0  0  0  0  0  0
    2.3698    3.4462    2.6076 C   0  0  0  0  0  0  0  0  0  0  0  0
    1.0791    2.6764    2.8487 C   0  0  0  0  0  0  0  0  0  0  0  0
   -1.4884   -1.1527    0.0203 N   0  0  0  0  0  0  0  0  0  0  0  0
    0.9292   -1.3831    0.0030 N   0  0  0  0  0  0  0  0  0  0  0  0
    3.2374   -1.3041   -0.0072 N   0  0  0  0  0  0  0  0  0  0  0  0
    2.1026    0.7055   -0.0843 N   0  0  0  0  0  0  0  0  0  0  0  0
    0.9556    1.4026   -0.1189 C   0  0  0  0  0  0  0  0  0  0  0  0
    0.9267    2.7784   -0.1457 O   0  0  0  0  0  0  0  0  0  0  0  0
    2.1893    3.4029   -0.0213 C   0  0  0  0  0  0  0  0  0  0  0  0
   -1.5376    1.0672   -0.0218 N   0  0  0  0  0  0  0  0  0  0  0  0
   -2.2657   -0.0895    0.0039 C   0  0  0  0  0  0  0  0  0  0  0  0
    1.4141    5.3177    2.0339 H   0  0  0  0  0  0  0  0  0  0  0  0
    1.7354    5.1641    3.7646 H   0  0  0  0  0  0  0  0  0  0  0  0
    3.0650    5.5042    2.6407 H   0  0  0  0  0  0  0  0  0  0  0  0
    3.0943    3.1275    3.3688 H   0  0  0  0  0  0  0  0  0  0  0  0
    1.2377    1.6011    2.7222 H   0  0  0  0  0  0  0  0  0  0  0  0
    0.7005    2.8469    3.8604 H   0  0  0  0  0  0  0  0  0  0  0  0
    0.2874    2.9956    2.1649 H   0  0  0  0  0  0  0  0  0  0  0  0
    3.2312   -2.3097    0.0007 H   0  0  0  0  0  0  0  0  0  0  0  0
    4.0842   -0.7607   -0.0061 H   0  0  0  0  0  0  0  0  0  0  0  0
    2.7985    3.1949   -0.9085 H   0  0  0  0  0  0  0  0  0  0  0  0
    2.0034    4.4843   -0.0452 H   0  0  0  0  0  0  0  0  0  0  0  0
   -1.8993    2.0113   -0.0206 H   0  0  0  0  0  0  0  0  0  0  0  0
   -3.3482   -0.0883    0.0102 H   0  0  0  0  0  0  0  0  0  0  0  0
  1 10  2  0  0  0  0
  1 11  1  0  0  0  0
  1 12  1  0  0  0  0
  2  3  2  0  0  0  0
  2  9  1  0  0  0  0
  2 10  1  0  0  0  0
  3 13  1  0  0  0  0
  3 16  1  0  0  0  0
  4  5  2  0  0  0  0
  4  7  1  0  0  0  0
  4 15  1  0  0  0  0
  6  7  1  0  0  0  0
  6 18  1  0  0  0  0
  6 19  1  0  0  0  0
  6 20  1  0  0  0  0
  7  8  1  0  0  0  0
  7 21  1  0  0  0  0
  8 22  1  0  0  0  0
  8 23  1  0  0  0  0
  8 24  1  0  0  0  0
  9 17  2  0  0  0  0
 11 25  1  0  0  0  0
 11 26  1  0  0  0  0
 12 13  2  0  0  0  0
 13 14  1  0  0  0  0
 14 15  1  0  0  0  0
 15 27  1  0  0  0  0
 15 28  1  0  0  0  0
 16 17  1  0  0  0  0
 16 29  1  0  0  0  0
 17 30  1  0  0  0  0
M  END
>  <DRUGBANK_ID>
DB03663

>  <SECONDARY_ACCESSION_NUMBERS>
EXPT02125

>  <COMMON_NAME>
1-[(2-Amino-6,9-Dihydro-1h-Purin-6-Yl)Oxy]-3-Methyl-2-Butanol

$$$$
