SCQ
 OpenBabel10282417173D

 38 41  0  0  0  0  0  0  0  0999 V2000
    1.5869   -1.1937   -0.0011 C   0  0  0  0  0  0  0  0  0  0  0  0
    0.2799   -0.7886   -0.0085 C   0  0  0  0  0  0  0  0  0  0  0  0
    0.2922    0.6133   -0.0038 N   0  0  0  0  0  0  0  0  0  0  0  0
    1.5890    1.0616   -0.0063 N   0  0  0  0  0  0  0  0  0  0  0  0
    2.3482   -0.0300   -0.0010 C   0  0  0  0  0  0  0  0  0  0  0  0
   -0.9731   -1.4576   -0.0220 C   0  0  0  0  0  0  0  0  0  0  0  0
   -2.1205   -0.7499   -0.0351 C   0  0  0  0  0  0  0  0  0  0  0  0
   -2.0830    0.7123   -0.0185 C   0  0  0  0  0  0  0  0  0  0  0  0
   -0.9117    1.3915   -0.0035 C   0  0  0  0  0  0  0  0  0  0  0  0
   -0.8993    2.7833    0.0096 N   0  0  0  0  0  0  0  0  0  0  0  0
   -3.4029   -1.4801   -0.0323 C   0  0  0  0  0  0  0  0  0  0  0  0
    0.2369    3.6808    0.0207 C   0  0  0  0  0  0  0  0  0  0  0  0
    0.2355    4.5325   -1.2009 C   0  0  0  0  0  0  0  0  0  0  0  0
    0.1763    5.9069   -1.1237 C   0  0  0  0  0  0  0  0  0  0  0  0
    0.2025    6.7191   -2.1953 N   0  0  0  0  0  0  0  0  0  0  0  0
    0.3041    6.1042   -3.3840 C   0  0  0  0  0  0  0  0  0  0  0  0
    0.3889    4.7807   -3.5882 N   0  0  0  0  0  0  0  0  0  0  0  0
    0.3580    4.0179   -2.4771 C   0  0  0  0  0  0  0  0  0  0  0  0
   -4.3497   -1.2338   -1.0346 C   0  0  0  0  0  0  0  0  0  0  0  0
   -5.6344   -1.7660   -0.9306 C   0  0  0  0  0  0  0  0  0  0  0  0
   -5.9467   -2.6292    0.1182 C   0  0  0  0  0  0  0  0  0  0  0  0
   -4.9745   -2.9684    1.0573 C   0  0  0  0  0  0  0  0  0  0  0  0
   -3.7213   -2.3594    1.0105 C   0  0  0  0  0  0  0  0  0  0  0  0
    2.2844   -2.9247   -0.0017 Br  0  0  0  0  0  0  0  0  0  0  0  0
    3.4236    0.0880   -0.0002 H   0  0  0  0  0  0  0  0  0  0  0  0
   -0.9768   -2.5440   -0.0246 H   0  0  0  0  0  0  0  0  0  0  0  0
   -3.0348    1.2335   -0.0081 H   0  0  0  0  0  0  0  0  0  0  0  0
   -1.8098    3.2351    0.0017 H   0  0  0  0  0  0  0  0  0  0  0  0
    0.1768    4.2942    0.9264 H   0  0  0  0  0  0  0  0  0  0  0  0
    1.2094    3.2028    0.0753 H   0  0  0  0  0  0  0  0  0  0  0  0
    0.1107    6.4121   -0.1640 H   0  0  0  0  0  0  0  0  0  0  0  0
    0.3179    6.7394   -4.2619 H   0  0  0  0  0  0  0  0  0  0  0  0
    0.4427    2.9469   -2.6495 H   0  0  0  0  0  0  0  0  0  0  0  0
   -4.0990   -0.6084   -1.8889 H   0  0  0  0  0  0  0  0  0  0  0  0
   -6.3917   -1.5021   -1.6640 H   0  0  0  0  0  0  0  0  0  0  0  0
   -6.9496   -3.0387    0.2036 H   0  0  0  0  0  0  0  0  0  0  0  0
   -5.1982   -3.6881    1.8398 H   0  0  0  0  0  0  0  0  0  0  0  0
   -3.0036   -2.5585    1.8032 H   0  0  0  0  0  0  0  0  0  0  0  0
  1  2  2  0  0  0  0
  1 24  1  0  0  0  0
  2  6  1  0  0  0  0
  3  9  1  0  0  0  0
  3  2  1  0  0  0  0
  4  5  2  0  0  0  0
  4  3  1  0  0  0  0
  5  1  1  0  0  0  0
  5 25  1  0  0  0  0
  6  7  2  0  0  0  0
  6 26  1  0  0  0  0
  7 11  1  0  0  0  0
  8  7  1  0  0  0  0
  8 27  1  0  0  0  0
  9  8  2  0  0  0  0
 10 12  1  0  0  0  0
 10  9  1  0  0  0  0
 10 28  1  0  0  0  0
 11 19  1  0  0  0  0
 12 29  1  0  0  0  0
 12 30  1  0  0  0  0
 13 18  1  0  0  0  0
 13 12  1  0  0  0  0
 14 13  2  0  0  0  0
 14 31  1  0  0  0  0
 15 16  2  0  0  0  0
 15 14  1  0  0  0  0
 16 17  1  0  0  0  0
 16 32  1  0  0  0  0
 17 18  2  0  0  0  0
 18 33  1  0  0  0  0
 19 20  2  0  0  0  0
 19 34  1  0  0  0  0
 20 35  1  0  0  0  0
 21 20  1  0  0  0  0
 21 36  1  0  0  0  0
 22 21  2  0  0  0  0
 22 37  1  0  0  0  0
 23 11  2  0  0  0  0
 23 22  1  0  0  0  0
 23 38  1  0  0  0  0
M  END
>  <DRUGBANK_ID>
DB08536

>  <COMMON_NAME>
3-bromo-5-phenyl-N-(pyrimidin-5-ylmethyl)pyrazolo[1,5-a]pyridin-7-amine

$$$$
