
 OpenBabel10282417133D

 27 26  0  0  1  0  0  0  0  0999 V2000
    0.1654   -0.4822   -2.6333 C   0  0  0  0  0  0  0  0  0  0  0  0
    0.3858   -2.3607    0.1493 C   0  0  0  0  0  0  0  0  0  0  0  0
   -0.1587    0.4527   -1.4430 C   0  0  2  0  0  0  0  0  0  0  0  0
    0.0650   -1.0000    0.7961 C   0  0  2  0  0  0  0  0  0  0  0  0
    0.3983    0.3005    0.0228 C   0  0  1  0  0  0  0  0  0  0  0  0
    1.4986   -0.5145   -3.0375 O   0  0  0  0  0  0  0  0  0  0  0  0
   -1.5861    0.4627   -1.3283 O   0  0  0  0  0  0  0  0  0  0  0  0
    0.7550   -0.9205    2.0627 O   0  0  0  0  0  0  0  0  0  0  0  0
    1.7796    0.5979    0.2243 O   0  0  0  0  0  0  0  0  0  0  0  0
    3.9123   -1.9283    0.0881 O   0  0  0  0  0  0  0  0  0  0  0  0
    2.8605   -2.5497   -1.9783 O   0  0  0  0  0  0  0  0  0  0  0  0
    3.4378   -0.2864   -1.5535 O   0  0  0  0  0  0  0  0  0  0  0  0
    1.7754   -2.6509   -0.0066 O   0  0  0  0  0  0  0  0  0  0  0  0
    2.6527   -1.4032   -0.8229 P   0  0  0  0  0  0  0  0  0  0  0  0
    0.1691    1.4436   -1.7843 H   0  0  0  0  0  0  0  0  0  0  0  0
   -1.0096   -0.9708    1.0063 H   0  0  0  0  0  0  0  0  0  0  0  0
   -0.0705    1.1165    0.5863 H   0  0  0  0  0  0  0  0  0  0  0  0
   -0.3918   -0.1776   -3.5286 H   0  0  0  0  0  0  0  0  0  0  0  0
   -0.1681   -1.5125   -2.4809 H   0  0  0  0  0  0  0  0  0  0  0  0
   -0.0123   -3.1491    0.7972 H   0  0  0  0  0  0  0  0  0  0  0  0
   -0.1160   -2.4821   -0.8061 H   0  0  0  0  0  0  0  0  0  0  0  0
    2.0573    0.1414   -2.5395 H   0  0  0  0  0  0  0  0  0  0  0  0
   -1.8919   -0.4497   -1.1802 H   0  0  0  0  0  0  0  0  0  0  0  0
    1.4254   -1.6327    2.1009 H   0  0  0  0  0  0  0  0  0  0  0  0
    1.9466    0.4735    1.1877 H   0  0  0  0  0  0  0  0  0  0  0  0
    4.2931   -1.2293    0.6360 H   0  0  0  0  0  0  0  0  0  0  0  0
    2.0141   -2.8269   -2.3581 H   0  0  0  0  0  0  0  0  0  0  0  0
  1 18  1  0  0  0  0
  1 19  1  0  0  0  0
  2 20  1  0  0  0  0
  2 21  1  0  0  0  0
  3  7  1  0  0  0  0
  3 15  1  6  0  0  0
  3  5  1  0  0  0  0
  3  1  1  0  0  0  0
  4  2  1  0  0  0  0
  4  8  1  0  0  0  0
  4 16  1  1  0  0  0
  5  4  1  0  0  0  0
  5  9  1  0  0  0  0
  5 17  1  1  0  0  0
  6  1  1  0  0  0  0
  6 22  1  0  0  0  0
  7 23  1  0  0  0  0
  8 24  1  0  0  0  0
  9 25  1  0  0  0  0
 10 26  1  0  0  0  0
 11 27  1  0  0  0  0
 13  2  1  0  0  0  0
 14 10  1  0  0  0  0
 14 11  1  0  0  0  0
 14 12  2  0  0  0  0
 14 13  1  0  0  0  0
M  END
>  <DRUGBANK_ID>
DB03745

>  <SECONDARY_ACCESSION_NUMBERS>
EXPT00375

>  <COMMON_NAME>
Arabinose-5-phosphate

$$$$
