CK5
 OpenBabel10282417143D

 35 37  0  0  0  0  0  0  0  0999 V2000
    2.2503   -0.0344    0.0166 O   0  0  0  0  0  0  0  0  0  0  0  0
    0.8842   -0.0440    0.0142 C   0  0  0  0  0  0  0  0  0  0  0  0
    0.1423   -1.2335   -0.0026 C   0  0  0  0  0  0  0  0  0  0  0  0
   -1.2628   -1.1828   -0.0139 C   0  0  0  0  0  0  0  0  0  0  0  0
   -1.8702    0.0860   -0.0147 C   0  0  0  0  0  0  0  0  0  0  0  0
   -1.1255    1.2633    0.0072 C   0  0  0  0  0  0  0  0  0  0  0  0
    0.2592    1.1974    0.0192 C   0  0  0  0  0  0  0  0  0  0  0  0
   -2.0349   -2.3660   -0.1371 N   0  0  0  0  0  0  0  0  0  0  0  0
   -3.4419   -2.3875   -0.1221 C   0  0  0  0  0  0  0  0  0  0  0  0
   -4.0738   -2.9832    0.8993 N   0  0  0  0  0  0  0  0  0  0  0  0
   -5.4230   -2.8547    0.9354 C   0  0  0  0  0  0  0  0  0  0  0  0
   -4.0810   -1.7580   -1.1162 N   0  0  0  0  0  0  0  0  0  0  0  0
   -5.4259   -1.6829   -1.0616 C   0  0  0  0  0  0  0  0  0  0  0  0
   -6.1557   -2.2120   -0.0299 C   0  0  0  0  0  0  0  0  0  0  0  0
   -6.0342   -1.0436   -2.2226 C   0  0  0  0  0  0  0  0  0  0  0  0
   -5.8879   -1.3411   -3.5694 C   0  0  0  0  0  0  0  0  0  0  0  0
   -5.0746   -2.4337   -4.1676 C   0  0  0  0  0  0  0  0  0  0  0  0
   -7.0973    0.2938   -2.0457 S   0  0  0  0  0  0  0  0  0  0  0  0
   -7.2866    0.3699   -3.7504 C   0  0  0  0  0  0  0  0  0  0  0  0
   -6.6202   -0.5357   -4.4314 N   0  0  0  0  0  0  0  0  0  0  0  0
   -8.1627    1.3971   -4.3798 C   0  0  0  0  0  0  0  0  0  0  0  0
    2.5789   -0.9455   -0.0258 H   0  0  0  0  0  0  0  0  0  0  0  0
    0.6522   -2.1909   -0.0140 H   0  0  0  0  0  0  0  0  0  0  0  0
   -2.9522    0.1838   -0.0298 H   0  0  0  0  0  0  0  0  0  0  0  0
   -1.6355    2.2218    0.0026 H   0  0  0  0  0  0  0  0  0  0  0  0
    0.8471    2.1101    0.0255 H   0  0  0  0  0  0  0  0  0  0  0  0
   -1.6559   -3.1722    0.3341 H   0  0  0  0  0  0  0  0  0  0  0  0
   -5.9142   -3.3004    1.7966 H   0  0  0  0  0  0  0  0  0  0  0  0
   -7.2370   -2.1542    0.0080 H   0  0  0  0  0  0  0  0  0  0  0  0
   -5.7189   -3.0982   -4.7519 H   0  0  0  0  0  0  0  0  0  0  0  0
   -4.3104   -2.0177   -4.8305 H   0  0  0  0  0  0  0  0  0  0  0  0
   -4.5740   -3.0434   -3.4108 H   0  0  0  0  0  0  0  0  0  0  0  0
   -7.5776    2.0215   -5.0628 H   0  0  0  0  0  0  0  0  0  0  0  0
   -8.9527    0.9089   -4.9599 H   0  0  0  0  0  0  0  0  0  0  0  0
   -8.6391    2.0529   -3.6447 H   0  0  0  0  0  0  0  0  0  0  0  0
  1  2  1  0  0  0  0
  1 22  1  0  0  0  0
  2  3  2  0  0  0  0
  2  7  1  0  0  0  0
  3  4  1  0  0  0  0
  3 23  1  0  0  0  0
  4  5  2  0  0  0  0
  4  8  1  0  0  0  0
  5  6  1  0  0  0  0
  5 24  1  0  0  0  0
  6  7  2  0  0  0  0
  6 25  1  0  0  0  0
  7 26  1  0  0  0  0
  8  9  1  0  0  0  0
  8 27  1  0  0  0  0
  9 10  2  0  0  0  0
  9 12  1  0  0  0  0
 10 11  1  0  0  0  0
 11 14  2  0  0  0  0
 11 28  1  0  0  0  0
 12 13  2  0  0  0  0
 13 14  1  0  0  0  0
 13 15  1  0  0  0  0
 14 29  1  0  0  0  0
 15 16  2  0  0  0  0
 15 18  1  0  0  0  0
 16 17  1  0  0  0  0
 16 20  1  0  0  0  0
 17 30  1  0  0  0  0
 17 31  1  0  0  0  0
 17 32  1  0  0  0  0
 18 19  1  0  0  0  0
 19 20  2  0  0  0  0
 19 21  1  0  0  0  0
 21 33  1  0  0  0  0
 21 34  1  0  0  0  0
 21 35  1  0  0  0  0
M  END
>  <DRUGBANK_ID>
DB04518

>  <SECONDARY_ACCESSION_NUMBERS>
EXPT00928

>  <COMMON_NAME>
3-[4-(2,4-Dimethyl-Thiazol-5-Yl)-Pyrimidin-2-Ylamino]-Phenol

$$$$
