AHC
 OpenBabel10282417133D

 23 23  0  0  0  0  0  0  0  0999 V2000
    1.0843   -0.1066   -0.0419 C   0  0  0  0  0  0  0  0  0  0  0  0
    0.5673   -1.0797   -1.0588 C   0  0  0  0  0  0  0  0  0  0  0  0
   -0.1461   -2.0516   -0.8586 O   0  0  0  0  0  0  0  0  0  0  0  0
    0.9656   -0.7662   -2.3065 O   0  0  0  0  0  0  0  0  0  0  0  0
    0.6004   -0.4804    1.3592 C   0  0  0  0  0  0  0  0  0  0  0  0
    1.0318    0.5041    2.4171 C   0  0  0  0  0  0  0  0  0  0  0  0
    0.7406    1.8643    2.2642 C   0  0  0  0  0  0  0  0  0  0  0  0
    1.6538    0.0793    3.5968 C   0  0  0  0  0  0  0  0  0  0  0  0
    1.0581    2.7790    3.2660 C   0  0  0  0  0  0  0  0  0  0  0  0
    1.9550    1.0016    4.6064 C   0  0  0  0  0  0  0  0  0  0  0  0
    1.6405    2.3541    4.4578 C   0  0  0  0  0  0  0  0  0  0  0  0
    1.9776    3.2760    5.4319 N   0  0  0  0  0  0  0  0  0  0  0  0
    0.7231    0.8869   -0.3300 H   0  0  0  0  0  0  0  0  0  0  0  0
    2.1795   -0.1008   -0.0726 H   0  0  0  0  0  0  0  0  0  0  0  0
    0.5649   -1.4563   -2.8759 H   0  0  0  0  0  0  0  0  0  0  0  0
   -0.4966   -0.5268    1.3803 H   0  0  0  0  0  0  0  0  0  0  0  0
    0.9535   -1.4886    1.6115 H   0  0  0  0  0  0  0  0  0  0  0  0
    0.2467    2.2291    1.3680 H   0  0  0  0  0  0  0  0  0  0  0  0
    1.8977   -0.9697    3.7522 H   0  0  0  0  0  0  0  0  0  0  0  0
    0.8221    3.8272    3.1096 H   0  0  0  0  0  0  0  0  0  0  0  0
    2.4225    0.6493    5.5220 H   0  0  0  0  0  0  0  0  0  0  0  0
    2.3160    2.9634    6.3308 H   0  0  0  0  0  0  0  0  0  0  0  0
    1.6628    4.2328    5.3438 H   0  0  0  0  0  0  0  0  0  0  0  0
  1  2  1  0  0  0  0
  1  5  1  0  0  0  0
  1 13  1  0  0  0  0
  1 14  1  0  0  0  0
  2  3  2  0  0  0  0
  2  4  1  0  0  0  0
  4 15  1  0  0  0  0
  5  6  1  0  0  0  0
  5 16  1  0  0  0  0
  5 17  1  0  0  0  0
  6  7  2  0  0  0  0
  6  8  1  0  0  0  0
  7  9  1  0  0  0  0
  7 18  1  0  0  0  0
  8 10  2  0  0  0  0
  8 19  1  0  0  0  0
  9 11  2  0  0  0  0
  9 20  1  0  0  0  0
 10 11  1  0  0  0  0
 10 21  1  0  0  0  0
 11 12  1  0  0  0  0
 12 22  1  0  0  0  0
 12 23  1  0  0  0  0
M  END
>  <DRUGBANK_ID>
DB03210

>  <SECONDARY_ACCESSION_NUMBERS>
EXPT00463

>  <COMMON_NAME>
4-Aminohydrocinnamic Acid

>  <UNII>
00J8IS9IQI

$$$$
