
 OpenBabel10282417233D

 78 82  0  0  0  0  0  0  0  0999 V2000
    0.2878    0.4897    0.0882 C   0  0  0  0  0  0  0  0  0  0  0  0
    0.1120    0.3587   -1.3155 O   0  0  0  0  0  0  0  0  0  0  0  0
    0.7643    1.2082   -2.1455 C   0  0  0  0  0  0  0  0  0  0  0  0
   -0.1444    1.7148   -3.0181 N   0  0  0  0  0  0  0  0  0  0  0  0
    0.2522    2.6053   -3.9443 C   0  0  0  0  0  0  0  0  0  0  0  0
    1.5327    3.1308   -4.0309 C   0  0  0  0  0  0  0  0  0  0  0  0
    2.4799    2.5697   -3.1397 C   0  0  0  0  0  0  0  0  0  0  0  0
    2.1414    1.5320   -2.2103 C   0  0  0  0  0  0  0  0  0  0  0  0
    3.3005    0.8176   -1.6000 N   0  0  0  0  0  0  0  0  0  0  0  0
    3.0938   -0.4472   -0.5101 S   0  0  0  0  0  0  0  0  0  0  0  0
    4.2717   -1.7005   -0.7386 C   0  0  0  0  0  0  0  0  0  0  0  0
    3.3445    0.1029    0.8227 O   0  0  0  0  0  0  0  0  0  0  0  0
    1.9287   -1.2066   -0.8421 O   0  0  0  0  0  0  0  0  0  0  0  0
    1.8049    4.2429   -4.9819 C   0  0  0  0  0  0  0  0  0  0  0  0
    1.0985    5.4678   -4.8792 C   0  0  0  0  0  0  0  0  0  0  0  0
    0.1509    5.7918   -3.8592 C   0  0  0  0  0  0  0  0  0  0  0  0
   -0.4114    7.0521   -3.7556 C   0  0  0  0  0  0  0  0  0  0  0  0
   -1.3034    7.3098   -2.7915 F   0  0  0  0  0  0  0  0  0  0  0  0
   -0.0220    8.0451   -4.6201 C   0  0  0  0  0  0  0  0  0  0  0  0
    0.8927    7.7415   -5.6548 C   0  0  0  0  0  0  0  0  0  0  0  0
    1.3830    8.9362   -6.4757 C   0  0  0  0  0  0  0  0  0  0  0  0
    2.7871    9.3413   -6.2588 N   0  0  0  0  0  0  0  0  0  0  0  0
    3.0703    9.7033   -4.8682 C   0  0  0  0  0  0  0  0  0  0  0  0
    4.5486   10.0526   -4.6757 C   0  0  0  0  0  0  0  0  0  0  0  0
    5.4818    8.9201   -5.1362 C   0  0  0  0  0  0  0  0  0  0  0  0
    5.1293    8.6172   -6.5838 C   0  0  0  0  0  0  0  0  0  0  0  0
    3.6813    8.2716   -6.6706 C   0  0  0  0  0  0  0  0  0  0  0  0
    6.9779    9.2513   -5.0684 C   0  0  0  0  0  0  0  0  0  0  0  0
    7.3600    9.6860   -3.6620 C   0  0  0  0  0  0  0  0  0  0  0  0
    7.8498    8.0528   -5.4883 C   0  0  0  0  0  0  0  0  0  0  0  0
    7.2111   10.3301   -5.9738 O   0  0  0  0  0  0  0  0  0  0  0  0
    1.4137    6.4135   -5.8509 C   0  0  0  0  0  0  0  0  0  0  0  0
    2.2602    6.0663   -6.8710 N   0  0  0  0  0  0  0  0  0  0  0  0
    2.9865    4.9308   -6.8576 C   0  0  0  0  0  0  0  0  0  0  0  0
    2.7610    3.9927   -5.9277 N   0  0  0  0  0  0  0  0  0  0  0  0
    3.9921    4.7535   -7.7858 N   0  0  0  0  0  0  0  0  0  0  0  0
    5.2755    5.4597   -7.8245 C   0  0  0  0  0  0  0  0  0  0  0  0
    5.4604    6.2182   -9.1663 C   0  0  0  0  0  0  0  0  0  0  0  0
    5.3613    5.2865  -10.2634 O   0  0  0  0  0  0  0  0  0  0  0  0
    4.0751    4.6339  -10.2321 C   0  0  0  0  0  0  0  0  0  0  0  0
    3.8391    3.8535   -8.9145 C   0  0  0  0  0  0  0  0  0  0  0  0
    0.1057   -0.4991    0.5399 H   0  0  0  0  0  0  0  0  0  0  0  0
   -0.3589    1.2335    0.5375 H   0  0  0  0  0  0  0  0  0  0  0  0
    1.2772    0.8189    0.3645 H   0  0  0  0  0  0  0  0  0  0  0  0
   -0.5520    2.9356   -4.6005 H   0  0  0  0  0  0  0  0  0  0  0  0
    3.4977    2.9537   -3.1949 H   0  0  0  0  0  0  0  0  0  0  0  0
    4.0617    1.4555   -1.3479 H   0  0  0  0  0  0  0  0  0  0  0  0
    5.2800   -1.3797   -0.5262 H   0  0  0  0  0  0  0  0  0  0  0  0
    3.9514   -2.4556    0.0010 H   0  0  0  0  0  0  0  0  0  0  0  0
    4.0948   -2.1127   -1.7312 H   0  0  0  0  0  0  0  0  0  0  0  0
   -0.1588    5.0659   -3.1131 H   0  0  0  0  0  0  0  0  0  0  0  0
   -0.4137    9.0505   -4.4743 H   0  0  0  0  0  0  0  0  0  0  0  0
    1.1923    8.7405   -7.5373 H   0  0  0  0  0  0  0  0  0  0  0  0
    0.7703    9.8226   -6.2501 H   0  0  0  0  0  0  0  0  0  0  0  0
    2.8268    8.8783   -4.1864 H   0  0  0  0  0  0  0  0  0  0  0  0
    2.4650   10.5667   -4.5758 H   0  0  0  0  0  0  0  0  0  0  0  0
    4.6999   10.2629   -3.6141 H   0  0  0  0  0  0  0  0  0  0  0  0
    4.7816   10.9598   -5.2430 H   0  0  0  0  0  0  0  0  0  0  0  0
    5.2866    8.0350   -4.5048 H   0  0  0  0  0  0  0  0  0  0  0  0
    5.3850    9.3980   -7.2991 H   0  0  0  0  0  0  0  0  0  0  0  0
    5.7185    7.7678   -6.8805 H   0  0  0  0  0  0  0  0  0  0  0  0
    3.4527    7.9421   -7.6875 H   0  0  0  0  0  0  0  0  0  0  0  0
    3.5992    7.4571   -5.9503 H   0  0  0  0  0  0  0  0  0  0  0  0
    7.1833    8.8788   -2.9434 H   0  0  0  0  0  0  0  0  0  0  0  0
    8.4108    9.9808   -3.6274 H   0  0  0  0  0  0  0  0  0  0  0  0
    6.7897   10.5649   -3.3491 H   0  0  0  0  0  0  0  0  0  0  0  0
    7.6683    7.7306   -6.5192 H   0  0  0  0  0  0  0  0  0  0  0  0
    8.9090    8.3236   -5.4668 H   0  0  0  0  0  0  0  0  0  0  0  0
    7.6882    7.1908   -4.8311 H   0  0  0  0  0  0  0  0  0  0  0  0
    8.1531   10.5531   -5.9667 H   0  0  0  0  0  0  0  0  0  0  0  0
    6.0915    4.7242   -7.7833 H   0  0  0  0  0  0  0  0  0  0  0  0
    5.4065    6.0416   -6.9272 H   0  0  0  0  0  0  0  0  0  0  0  0
    4.7215    7.0112   -9.3250 H   0  0  0  0  0  0  0  0  0  0  0  0
    6.4519    6.6872   -9.2340 H   0  0  0  0  0  0  0  0  0  0  0  0
    4.0466    3.9442  -11.0802 H   0  0  0  0  0  0  0  0  0  0  0  0
    3.3046    5.3980  -10.3834 H   0  0  0  0  0  0  0  0  0  0  0  0
    4.6199    3.0866   -8.8265 H   0  0  0  0  0  0  0  0  0  0  0  0
    2.8642    3.3660   -8.9230 H   0  0  0  0  0  0  0  0  0  0  0  0
  1  2  1  0  0  0  0
  1 42  1  0  0  0  0
  1 43  1  0  0  0  0
  1 44  1  0  0  0  0
  2  3  1  0  0  0  0
  3  4  2  0  0  0  0
  3  8  1  0  0  0  0
  4  5  1  0  0  0  0
  5  6  2  0  0  0  0
  5 45  1  0  0  0  0
  6  7  1  0  0  0  0
  6 14  1  0  0  0  0
  7  8  2  0  0  0  0
  7 46  1  0  0  0  0
  8  9  1  0  0  0  0
  9 10  1  0  0  0  0
  9 47  1  0  0  0  0
 10 11  1  0  0  0  0
 10 12  2  0  0  0  0
 10 13  2  0  0  0  0
 11 48  1  0  0  0  0
 11 49  1  0  0  0  0
 11 50  1  0  0  0  0
 14 15  2  0  0  0  0
 14 35  1  0  0  0  0
 15 16  1  0  0  0  0
 15 32  1  0  0  0  0
 16 17  2  0  0  0  0
 16 51  1  0  0  0  0
 17 18  1  0  0  0  0
 17 19  1  0  0  0  0
 19 20  2  0  0  0  0
 19 52  1  0  0  0  0
 20 21  1  0  0  0  0
 20 32  1  0  0  0  0
 21 22  1  0  0  0  0
 21 53  1  0  0  0  0
 21 54  1  0  0  0  0
 22 23  1  0  0  0  0
 22 27  1  0  0  0  0
 23 24  1  0  0  0  0
 23 55  1  0  0  0  0
 23 56  1  0  0  0  0
 24 25  1  0  0  0  0
 24 57  1  0  0  0  0
 24 58  1  0  0  0  0
 25 26  1  0  0  0  0
 25 28  1  0  0  0  0
 25 59  1  0  0  0  0
 26 27  1  0  0  0  0
 26 60  1  0  0  0  0
 26 61  1  0  0  0  0
 27 62  1  0  0  0  0
 27 63  1  0  0  0  0
 28 29  1  0  0  0  0
 28 30  1  0  0  0  0
 28 31  1  0  0  0  0
 29 64  1  0  0  0  0
 29 65  1  0  0  0  0
 29 66  1  0  0  0  0
 30 67  1  0  0  0  0
 30 68  1  0  0  0  0
 30 69  1  0  0  0  0
 31 70  1  0  0  0  0
 32 33  2  0  0  0  0
 33 34  1  0  0  0  0
 34 35  2  0  0  0  0
 34 36  1  0  0  0  0
 36 37  1  0  0  0  0
 36 41  1  0  0  0  0
 37 38  1  0  0  0  0
 37 71  1  0  0  0  0
 37 72  1  0  0  0  0
 38 39  1  0  0  0  0
 38 73  1  0  0  0  0
 38 74  1  0  0  0  0
 39 40  1  0  0  0  0
 40 41  1  0  0  0  0
 40 75  1  0  0  0  0
 40 76  1  0  0  0  0
 41 77  1  0  0  0  0
 41 78  1  0  0  0  0
M  END
>  <DRUGBANK_ID>
DB17235

>  <COMMON_NAME>
Linperlisib

>  <CAS_NUMBER>
1702816-75-8

>  <UNII>
05HYK3CV9N

>  <SYNONYMS>
Methanesulfonamide, n-(5-(6-fluoro-8-((4-(1-hydroxy-1-methylethyl)-1-piperidinyl)methyl)-2-(4-morpholinyl)-4-quinazolinyl)-2-methoxy-3-pyridinyl)-; N-(5-(6-fluoro-8-((4-(2-hydroxypropan-2-yl) piperidin-1-yl)methyl)-2-morpholinoquinazolin-4-yl)-2-methoxypyridin-3-)methanesulfonamide; N-[5-(6-fluoro-8-{[4-(2-hydroxypropan-2-yl) piperidin-1-yl]methyl}-2-morpholinoquinazolin-4-yl)-2-methoxypyridin-3-]methanesulfonamide; N-[5-(6-fluoro-8-{[4-(2-hydroxypropan-2-yl)piperidin-1-yl]methyl}-2-morpholinoquinazolin-4-yl)-2-methoxypyridin-3-yl]methanesulfonamide; Pi3k.delta.-in-2

$$$$
