
 OpenBabel10282417203D

 30 32  0  0  0  0  0  0  0  0999 V2000
    1.3639   -0.1820   -0.0121 C   0  0  0  0  0  0  0  0  0  0  0  0
    0.5325   -1.2875   -0.0856 C   0  0  0  0  0  0  0  0  0  0  0  0
    0.8026    1.0946   -0.0239 C   0  0  0  0  0  0  0  0  0  0  0  0
   -7.7574   -0.1215   -0.9192 C   0  0  0  0  0  0  0  0  0  0  0  0
   -7.0441    0.6954   -1.7746 C   0  0  0  0  0  0  0  0  0  0  0  0
   -0.8449   -1.1050   -0.2336 C   0  0  0  0  0  0  0  0  0  0  0  0
   -0.5946    1.2683   -0.0637 C   0  0  0  0  0  0  0  0  0  0  0  0
   -7.0306   -0.8474    0.0422 C   0  0  0  0  0  0  0  0  0  0  0  0
   -5.6655    0.5227   -1.8608 C   0  0  0  0  0  0  0  0  0  0  0  0
   -3.6588    0.6077    0.9300 C   0  0  0  0  0  0  0  0  0  0  0  0
   -1.4540    0.1683   -0.2013 C   0  0  0  0  0  0  0  0  0  0  0  0
   -5.5794   -0.6867    0.1218 C   0  0  0  0  0  0  0  0  0  0  0  0
   -4.6964   -0.3438    1.2130 C   0  0  0  0  0  0  0  0  0  0  0  0
   -4.9514   -0.3281   -1.0504 C   0  0  0  0  0  0  0  0  0  0  0  0
   -2.9326    0.2765   -0.2014 C   0  0  0  0  0  0  0  0  0  0  0  0
   -3.9195   -1.4871    1.8287 C   0  0  0  0  0  0  0  0  0  0  0  0
   -3.6171   -0.3076   -1.1948 N   0  0  0  0  0  0  0  0  0  0  0  0
   -2.7990   -1.8083    1.5914 O   0  0  0  0  0  0  0  0  0  0  0  0
   -4.4439   -2.0425    2.9265 O   0  0  0  0  0  0  0  0  0  0  0  0
    2.4399   -0.3186    0.0631 H   0  0  0  0  0  0  0  0  0  0  0  0
    0.9370   -2.2942   -0.0198 H   0  0  0  0  0  0  0  0  0  0  0  0
    1.4609    1.9590    0.0132 H   0  0  0  0  0  0  0  0  0  0  0  0
   -8.8480   -0.1178   -0.9698 H   0  0  0  0  0  0  0  0  0  0  0  0
   -7.5204    1.4498   -2.3932 H   0  0  0  0  0  0  0  0  0  0  0  0
   -1.4682   -1.9960   -0.2914 H   0  0  0  0  0  0  0  0  0  0  0  0
   -0.9920    2.2760    0.0218 H   0  0  0  0  0  0  0  0  0  0  0  0
   -7.6047   -1.4915    0.7106 H   0  0  0  0  0  0  0  0  0  0  0  0
   -5.0713    1.2011   -2.4641 H   0  0  0  0  0  0  0  0  0  0  0  0
   -3.9401    1.6759    0.8913 H   0  0  0  0  0  0  0  0  0  0  0  0
   -3.6067   -2.5334    3.1405 H   0  0  0  0  0  0  0  0  0  0  0  0
  1 20  1  0  0  0  0
  2  1  2  0  0  0  0
  2 21  1  0  0  0  0
  3  1  1  0  0  0  0
  3 22  1  0  0  0  0
  4 23  1  0  0  0  0
  5  4  2  0  0  0  0
  5 24  1  0  0  0  0
  6  2  1  0  0  0  0
  6 25  1  0  0  0  0
  7  3  2  0  0  0  0
  7 26  1  0  0  0  0
  8  4  1  0  0  0  0
  8 27  1  0  0  0  0
  9  5  1  0  0  0  0
  9 28  1  0  0  0  0
 10 29  1  0  0  0  0
 11  6  2  0  0  0  0
 11  7  1  0  0  0  0
 12  8  2  0  0  0  0
 13 10  2  0  0  0  0
 13 12  1  0  0  0  0
 14  9  2  0  0  0  0
 14 12  1  0  0  0  0
 15 10  1  0  0  0  0
 15 11  1  0  0  0  0
 16 13  1  0  0  0  0
 17 14  1  0  0  0  0
 17 15  2  0  0  0  0
 18 16  2  0  0  0  0
 19 16  1  0  0  0  0
 19 30  1  0  0  0  0
M  END
>  <DRUGBANK_ID>
DB13551

>  <COMMON_NAME>
Cinchophen

>  <CAS_NUMBER>
132-60-5

>  <UNII>
39Y533Z02M

>  <SYNONYMS>
Cinchophen

$$$$
