35A
 OpenBabel10282417163D

 65 67  0  0  0  0  0  0  0  0999 V2000
    0.4003    3.5082    0.2162 C   0  0  0  0  0  0  0  0  0  0  0  0
    1.0504    2.1932    0.1897 C   0  0  0  0  0  0  0  0  0  0  0  0
    6.1254    3.6052   -3.5723 C   0  0  0  0  0  0  0  0  0  0  0  0
    5.7695    4.9556   -3.6702 C   0  0  0  0  0  0  0  0  0  0  0  0
    2.5486    6.6068    0.3732 O   0  0  0  0  0  0  0  0  0  0  0  0
    1.1265    5.3591    0.2251 C   0  0  0  0  0  0  0  0  0  0  0  0
    5.5827    5.6673   -2.5079 C   0  0  0  0  0  0  0  0  0  0  0  0
    5.1597    7.1268   -2.5179 C   0  0  0  0  0  0  0  0  0  0  0  0
    3.7265    7.4099   -1.8999 C   0  0  1  0  0  0  0  0  0  0  0  0
    6.0646    2.9067   -2.3458 C   0  0  0  0  0  0  0  0  0  0  0  0
    5.7204    3.5892   -1.2016 C   0  0  0  0  0  0  0  0  0  0  0  0
    5.7880    4.9692   -1.3024 C   0  0  0  0  0  0  0  0  0  0  0  0
    3.3809    0.6834   -1.2875 C   0  0  0  0  0  0  0  0  0  0  0  0
    3.0008    2.1430   -1.3656 C   0  0  1  0  0  0  0  0  0  0  0  0
    3.5862    2.9072   -0.0968 C   0  0  0  0  0  0  0  0  0  0  0  0
    5.0693    2.9176   -0.0259 C   0  0  0  0  0  0  0  0  0  0  0  0
    1.3740    0.4684    0.1004 C   0  0  0  0  0  0  0  0  0  0  0  0
    2.8461    0.0650   -0.0037 C   0  0  0  0  0  0  0  0  0  0  0  0
    0.6033   -0.5671    0.0544 N   0  0  0  0  0  0  0  0  0  0  0  0
   -0.6263    1.8679    0.1535 C   0  0  0  0  0  0  0  0  0  0  0  0
   -0.5591    0.0163    0.0669 C   0  0  0  0  0  0  0  0  0  0  0  0
   -1.3798   -1.6993    0.1040 N   0  0  0  0  0  0  0  0  0  0  0  0
   -3.1412   -2.2764   -0.0708 S   0  0  0  0  0  0  0  0  0  0  0  0
   -3.7574   -1.6300    1.4542 C   0  0  0  0  0  0  0  0  0  0  0  0
   -3.7177   -1.6308   -1.2237 O   0  0  0  0  0  0  0  0  0  0  0  0
   -3.3247   -3.7271    0.0696 O   0  0  0  0  0  0  0  0  0  0  0  0
   -0.5973   -3.3696    0.0204 C   0  0  0  0  0  0  0  0  0  0  0  0
    3.1639    2.8670   -2.6245 C   0  0  0  0  0  0  0  0  0  0  0  0
    3.5414    6.6842   -0.4894 C   0  0  0  0  0  0  0  0  0  0  0  0
    3.9304    5.5565   -0.3283 O   0  0  0  0  0  0  0  0  0  0  0  0
    3.4799    8.9160   -2.0024 C   0  0  0  0  0  0  0  0  0  0  0  0
    2.7338    6.7651   -2.8035 N   0  0  0  0  0  0  0  0  0  0  0  0
    1.9312    2.1493   -1.5677 H   0  0  0  0  0  0  0  0  0  0  0  0
    1.9585    2.3419    0.4196 H   0  0  0  0  0  0  0  0  0  0  0  0
    6.3154    3.0371   -4.4700 H   0  0  0  0  0  0  0  0  0  0  0  0
    5.6881    5.4561   -4.6292 H   0  0  0  0  0  0  0  0  0  0  0  0
    0.9385    6.3745   -0.5646 H   0  0  0  0  0  0  0  0  0  0  0  0
    1.0292    6.3494    1.0834 H   0  0  0  0  0  0  0  0  0  0  0  0
    5.9220    7.6928   -1.9700 H   0  0  0  0  0  0  0  0  0  0  0  0
    5.2016    7.5065   -3.5596 H   0  0  0  0  0  0  0  0  0  0  0  0
    5.8891    1.8282   -2.3751 H   0  0  0  0  0  0  0  0  0  0  0  0
    5.7600    5.5031   -0.3552 H   0  0  0  0  0  0  0  0  0  0  0  0
    4.4588    0.5982   -1.2965 H   0  0  0  0  0  0  0  0  0  0  0  0
    2.9939    0.1639   -2.1674 H   0  0  0  0  0  0  0  0  0  0  0  0
    3.0610    3.8555   -0.0214 H   0  0  0  0  0  0  0  0  0  0  0  0
    3.3412    2.4644    0.9195 H   0  0  0  0  0  0  0  0  0  0  0  0
    5.3254    3.3934    0.9198 H   0  0  0  0  0  0  0  0  0  0  0  0
    5.3628    1.8698    0.0448 H   0  0  0  0  0  0  0  0  0  0  0  0
    3.2988    0.4521    0.9072 H   0  0  0  0  0  0  0  0  0  0  0  0
    3.1147   -1.0131   -0.0035 H   0  0  0  0  0  0  0  0  0  0  0  0
   -1.6840    1.7545    0.0611 H   0  0  0  0  0  0  0  0  0  0  0  0
   -3.4300   -0.6005    1.4792 H   0  0  0  0  0  0  0  0  0  0  0  0
   -4.8476   -1.6942    1.4570 H   0  0  0  0  0  0  0  0  0  0  0  0
   -3.3732   -2.1890    2.3177 H   0  0  0  0  0  0  0  0  0  0  0  0
   -0.9088   -4.0517    0.8737 H   0  0  0  0  0  0  0  0  0  0  0  0
   -0.9208   -4.0340   -0.8479 H   0  0  0  0  0  0  0  0  0  0  0  0
    0.4902   -3.3825    0.0113 H   0  0  0  0  0  0  0  0  0  0  0  0
    2.8172    2.3347   -3.4975 H   0  0  0  0  0  0  0  0  0  0  0  0
    2.8832    3.9094   -2.5408 H   0  0  0  0  0  0  0  0  0  0  0  0
    4.1696    2.8119   -2.7700 H   0  0  0  0  0  0  0  0  0  0  0  0
    3.5309    9.2802   -3.0472 H   0  0  0  0  0  0  0  0  0  0  0  0
    2.4875    9.1638   -1.6253 H   0  0  0  0  0  0  0  0  0  0  0  0
    4.2239    9.4810   -1.4328 H   0  0  0  0  0  0  0  0  0  0  0  0
    2.9280    5.7613   -2.7533 H   0  0  0  0  0  0  0  0  0  0  0  0
    1.8091    6.8917   -2.4037 H   0  0  0  0  0  0  0  0  0  0  0  0
  1 20  1  0  0  0  0
  1  6  1  0  0  0  0
  1  2  2  0  0  0  0
  2 17  1  0  0  0  0
  2 34  1  0  0  0  0
  3  4  1  0  0  0  0
  3 10  2  0  0  0  0
  3 35  1  0  0  0  0
  4  7  2  0  0  0  0
  4 36  1  0  0  0  0
  5  6  1  0  0  0  0
  5 29  1  0  0  0  0
  6 37  1  0  0  0  0
  6 38  1  0  0  0  0
  7  8  1  0  0  0  0
  7 12  1  0  0  0  0
  8  9  1  0  0  0  0
  8 39  1  0  0  0  0
  8 40  1  0  0  0  0
  9 29  1  0  0  0  0
  9 31  1  1  0  0  0
  9 32  1  0  0  0  0
 10 11  1  0  0  0  0
 10 41  1  0  0  0  0
 11 12  2  0  0  0  0
 11 16  1  0  0  0  0
 12 42  1  0  0  0  0
 13 18  1  0  0  0  0
 13 14  1  0  0  0  0
 13 43  1  0  0  0  0
 13 44  1  0  0  0  0
 14 15  1  0  0  0  0
 14 28  1  0  0  0  0
 14 33  1  1  0  0  0
 15 16  1  0  0  0  0
 15 45  1  0  0  0  0
 15 46  1  0  0  0  0
 16 47  1  0  0  0  0
 16 48  1  0  0  0  0
 17 19  2  0  0  0  0
 17 18  1  0  0  0  0
 18 49  1  0  0  0  0
 18 50  1  0  0  0  0
 19 21  1  0  0  0  0
 20 21  2  0  0  0  0
 20 51  1  0  0  0  0
 21 22  1  0  0  0  0
 22 27  1  0  0  0  0
 22 23  1  0  0  0  0
 23 24  1  0  0  0  0
 23 25  2  0  0  0  0
 23 26  2  0  0  0  0
 24 52  1  0  0  0  0
 24 53  1  0  0  0  0
 24 54  1  0  0  0  0
 27 55  1  0  0  0  0
 27 56  1  0  0  0  0
 27 57  1  0  0  0  0
 28 58  1  0  0  0  0
 28 59  1  0  0  0  0
 28 60  1  0  0  0  0
 29 30  2  0  0  0  0
 31 61  1  0  0  0  0
 31 62  1  0  0  0  0
 31 63  1  0  0  0  0
 32 64  1  0  0  0  0
 32 65  1  0  0  0  0
M  END
>  <DRUGBANK_ID>
DB07019

>  <COMMON_NAME>
N-[(5R,14R)-5-AMINO-5,14-DIMETHYL-4-OXO-3-OXA-18-AZATRICYCLO[15.3.1.1~7,11~]DOCOSA-1(21),7(22),8,10,17,19-HEXAEN-19-YL]-N-METHYLMETHANESULFONAMIDE

$$$$
