SDN
 OpenBabel10282417173D

 35 37  0  0  0  0  0  0  0  0999 V2000
    0.9418   -0.0673    0.2002 O   0  0  0  0  0  0  0  0  0  0  0  0
    0.3348   -1.2675    0.4250 C   0  0  0  0  0  0  0  0  0  0  0  0
   -0.7388   -1.6851   -0.3523 C   0  0  0  0  0  0  0  0  0  0  0  0
   -1.1146   -0.9191   -1.5452 C   0  0  0  0  0  0  0  0  0  0  0  0
   -0.3033   -0.2477   -2.1781 O   0  0  0  0  0  0  0  0  0  0  0  0
   -2.5235   -1.0969   -1.9581 C   0  0  0  0  0  0  0  0  0  0  0  0
   -3.1765   -0.0717   -2.5194 C   0  0  0  0  0  0  0  0  0  0  0  0
   -4.4948   -0.1510   -2.8800 O   0  0  0  0  0  0  0  0  0  0  0  0
   -2.5479    1.2760   -2.7473 C   0  0  0  0  0  0  0  0  0  0  0  0
    0.7353   -2.0367    1.5031 C   0  0  0  0  0  0  0  0  0  0  0  0
    0.0396   -3.2093    1.8153 C   0  0  0  0  0  0  0  0  0  0  0  0
   -1.0655   -3.6126    1.0603 C   0  0  0  0  0  0  0  0  0  0  0  0
   -1.4701   -2.8450   -0.0290 C   0  0  0  0  0  0  0  0  0  0  0  0
   -2.6452   -3.2331   -0.8147 C   0  0  0  0  0  0  0  0  0  0  0  0
   -3.1500   -2.3711   -1.7106 C   0  0  0  0  0  0  0  0  0  0  0  0
   -4.3601   -2.6711   -2.5154 C   0  0  0  0  0  0  0  0  0  0  0  0
   -5.0703   -1.4432   -3.1188 C   0  0  1  0  0  0  0  0  0  0  0  0
   -6.4935   -1.4560   -2.5740 C   0  0  0  0  0  0  0  0  0  0  0  0
   -7.3556   -0.4045   -3.1866 C   0  0  0  0  0  0  0  0  0  0  0  0
   -8.3550   -0.6176   -3.8572 O   0  0  0  0  0  0  0  0  0  0  0  0
   -6.9643    0.8454   -2.8933 O   0  0  0  0  0  0  0  0  0  0  0  0
   -5.0855   -1.5555   -4.2108 H   0  0  0  0  0  0  0  0  0  0  0  0
    1.8969   -0.2142    0.1086 H   0  0  0  0  0  0  0  0  0  0  0  0
   -2.1572    1.6933   -1.8110 H   0  0  0  0  0  0  0  0  0  0  0  0
   -1.7276    1.1846   -3.4671 H   0  0  0  0  0  0  0  0  0  0  0  0
   -3.2541    1.9976   -3.1644 H   0  0  0  0  0  0  0  0  0  0  0  0
    1.5653   -1.7106    2.1198 H   0  0  0  0  0  0  0  0  0  0  0  0
    0.3482   -3.8025    2.6707 H   0  0  0  0  0  0  0  0  0  0  0  0
   -1.6056   -4.5159    1.3354 H   0  0  0  0  0  0  0  0  0  0  0  0
   -3.1053   -4.2023   -0.6413 H   0  0  0  0  0  0  0  0  0  0  0  0
   -5.0585   -3.2485   -1.8930 H   0  0  0  0  0  0  0  0  0  0  0  0
   -4.0876   -3.3479   -3.3351 H   0  0  0  0  0  0  0  0  0  0  0  0
   -6.9533   -2.4298   -2.7895 H   0  0  0  0  0  0  0  0  0  0  0  0
   -6.4993   -1.3246   -1.4857 H   0  0  0  0  0  0  0  0  0  0  0  0
   -7.5484    1.4468   -3.3936 H   0  0  0  0  0  0  0  0  0  0  0  0
  1 23  1  0  0  0  0
  2  1  1  0  0  0  0
  2  3  1  0  0  0  0
  3  4  1  0  0  0  0
  4  5  2  0  0  0  0
  4  6  1  0  0  0  0
  6  7  2  0  0  0  0
  7  9  1  0  0  0  0
  7  8  1  0  0  0  0
  9 24  1  0  0  0  0
  9 25  1  0  0  0  0
  9 26  1  0  0  0  0
 10  2  2  0  0  0  0
 10 27  1  0  0  0  0
 11 10  1  0  0  0  0
 11 12  2  0  0  0  0
 11 28  1  0  0  0  0
 12 13  1  0  0  0  0
 12 29  1  0  0  0  0
 13  3  2  0  0  0  0
 13 14  1  0  0  0  0
 14 15  2  0  0  0  0
 14 30  1  0  0  0  0
 15  6  1  0  0  0  0
 15 16  1  0  0  0  0
 16 17  1  0  0  0  0
 16 31  1  0  0  0  0
 16 32  1  0  0  0  0
 17  8  1  0  0  0  0
 17 18  1  0  0  0  0
 17 22  1  6  0  0  0
 18 19  1  0  0  0  0
 18 33  1  0  0  0  0
 18 34  1  0  0  0  0
 19 20  2  0  0  0  0
 19 21  1  0  0  0  0
 21 35  1  0  0  0  0
M  END
>  <DRUGBANK_ID>
DB08541

>  <COMMON_NAME>
[(3S)-9-hydroxy-1-methyl-10-oxo-4,10-dihydro-3H-benzo[g]isochromen-3-yl]acetic acid

$$$$
