
 OpenBabel10282417193D

 70 71  0  0  1  0  0  0  0  0999 V2000
   -1.1995    4.2151   -0.4547 C   0  0  0  0  0  0  0  0  0  0  0  0
   -1.9661    2.2222   -0.9459 C   0  0  0  0  0  0  0  0  0  0  0  0
   -1.0815    1.2931   -2.3213 C   0  0  0  0  0  0  0  0  0  0  0  0
    0.7920    1.4935   -2.2110 C   0  0  2  0  0  0  0  0  0  0  0  0
    1.6353    2.1352   -0.5124 C   0  0  0  0  0  0  0  0  0  0  0  0
    1.7873    0.8012    0.1895 C   0  0  0  0  0  0  0  0  0  0  0  0
    2.7348    3.0744   -0.8743 C   0  0  0  0  0  0  0  0  0  0  0  0
    0.9754    3.5614    0.7080 C   0  0  0  0  0  0  0  0  0  0  0  0
    1.0593    2.4281   -3.4447 N   0  0  0  0  0  0  0  0  0  0  0  0
    1.9107    2.0068   -4.4291 C   0  0  0  0  0  0  0  0  0  0  0  0
    2.8590    2.6812   -4.8149 O   0  0  0  0  0  0  0  0  0  0  0  0
    1.5287    0.7016   -5.0358 C   0  0  0  0  0  0  0  0  0  0  0  0
    0.3146    0.0524   -4.7706 C   0  0  0  0  0  0  0  0  0  0  0  0
   -0.0467   -1.1641   -5.3109 C   0  0  0  0  0  0  0  0  0  0  0  0
    0.8178   -1.7139   -6.2284 C   0  0  0  0  0  0  0  0  0  0  0  0
    2.0181   -1.0714   -6.5641 C   0  0  0  0  0  0  0  0  0  0  0  0
    2.3801    0.1327   -5.9537 C   0  0  0  0  0  0  0  0  0  0  0  0
    2.9074   -1.7038   -7.5790 C   0  0  0  0  0  0  0  0  0  0  0  0
   -1.3263   -1.8367   -4.9311 C   0  0  0  0  0  0  0  0  0  0  0  0
    0.7643    3.8712   -3.4688 N   0  0  0  0  0  0  0  0  0  0  0  0
   -0.3776    4.5099   -2.9900 C   0  0  0  0  0  0  0  0  0  0  0  0
   -0.3191    5.7395   -2.8977 O   0  0  0  0  0  0  0  0  0  0  0  0
   -1.4211    3.5568   -2.1901 C   0  0  0  0  0  0  0  0  0  0  0  0
   -0.2670    2.7299   -1.0324 C   0  0  0  0  0  0  0  0  0  0  0  0
   -0.5298    1.9018    0.6064 C   0  0  0  0  0  0  0  0  0  0  0  0
   -1.7166    2.2354    1.4008 C   0  0  0  0  0  0  0  0  0  0  0  0
   -2.8023    3.2568    0.6854 C   0  0  0  0  0  0  0  0  0  0  0  0
   -2.8610    3.8518   -1.0681 C   0  0  0  0  0  0  0  0  0  0  0  0
   -3.7895    4.8223   -1.4969 C   0  0  0  0  0  0  0  0  0  0  0  0
   -4.7019    3.6549   -1.5854 C   0  0  0  0  0  0  0  0  0  0  0  0
   -3.5981    3.9049    1.6083 O   0  0  0  0  0  0  0  0  0  0  0  0
   -3.5745    3.2942    2.9055 C   0  0  0  0  0  0  0  0  0  0  0  0
   -0.1374    4.6833   -0.8926 H   0  0  0  0  0  0  0  0  0  0  0  0
   -1.4706    4.9623    0.3330 H   0  0  0  0  0  0  0  0  0  0  0  0
   -1.5498    5.1741   -1.2670 H   0  0  0  0  0  0  0  0  0  0  0  0
   -1.9211    1.2530   -0.3663 H   0  0  0  0  0  0  0  0  0  0  0  0
   -3.0329    1.9391   -1.1825 H   0  0  0  0  0  0  0  0  0  0  0  0
   -1.4427    0.2723   -2.2289 H   0  0  0  0  0  0  0  0  0  0  0  0
   -1.4781    1.7446   -3.2817 H   0  0  0  0  0  0  0  0  0  0  0  0
    1.1278    0.4622   -2.3896 H   0  0  0  0  0  0  0  0  0  0  0  0
    2.4744    0.1687   -0.3428 H   0  0  0  0  0  0  0  0  0  0  0  0
    2.0700    1.0611    1.2055 H   0  0  0  0  0  0  0  0  0  0  0  0
    0.8400    0.1961    0.1706 H   0  0  0  0  0  0  0  0  0  0  0  0
    2.3626    3.8989   -1.5090 H   0  0  0  0  0  0  0  0  0  0  0  0
    2.9753    3.5769    0.0667 H   0  0  0  0  0  0  0  0  0  0  0  0
    3.4874    2.5288   -1.3925 H   0  0  0  0  0  0  0  0  0  0  0  0
    0.9059    4.6087    0.3784 H   0  0  0  0  0  0  0  0  0  0  0  0
   -0.0988    3.6152    0.8658 H   0  0  0  0  0  0  0  0  0  0  0  0
    0.9861    3.5481    1.7947 H   0  0  0  0  0  0  0  0  0  0  0  0
   -0.4141    0.4705   -4.1261 H   0  0  0  0  0  0  0  0  0  0  0  0
    0.5494   -2.6527   -6.6979 H   0  0  0  0  0  0  0  0  0  0  0  0
    3.3066    0.6443   -6.1911 H   0  0  0  0  0  0  0  0  0  0  0  0
    3.0558   -1.0306   -8.4265 H   0  0  0  0  0  0  0  0  0  0  0  0
    3.8655   -1.9597   -7.1225 H   0  0  0  0  0  0  0  0  0  0  0  0
    2.4518   -2.6249   -7.9548 H   0  0  0  0  0  0  0  0  0  0  0  0
   -1.9633   -1.9371   -5.8130 H   0  0  0  0  0  0  0  0  0  0  0  0
   -1.1135   -2.8253   -4.5136 H   0  0  0  0  0  0  0  0  0  0  0  0
   -1.8825   -1.2695   -4.1752 H   0  0  0  0  0  0  0  0  0  0  0  0
    1.2495    4.4549   -4.1614 H   0  0  0  0  0  0  0  0  0  0  0  0
    0.6118    3.2545   -1.3972 H   0  0  0  0  0  0  0  0  0  0  0  0
    0.2203    1.5725    1.3822 H   0  0  0  0  0  0  0  0  0  0  0  0
   -1.7021    1.8488    2.4428 H   0  0  0  0  0  0  0  0  0  0  0  0
   -3.7147    5.5609   -0.6945 H   0  0  0  0  0  0  0  0  0  0  0  0
   -3.3122    5.0907   -2.4333 H   0  0  0  0  0  0  0  0  0  0  0  0
   -4.9397    3.2302   -0.5873 H   0  0  0  0  0  0  0  0  0  0  0  0
   -5.5061    4.0669   -2.1267 H   0  0  0  0  0  0  0  0  0  0  0  0
   -4.2865    2.8094   -2.1986 H   0  0  0  0  0  0  0  0  0  0  0  0
   -3.7133    2.2019    2.8520 H   0  0  0  0  0  0  0  0  0  0  0  0
   -2.6603    3.5289    3.4811 H   0  0  0  0  0  0  0  0  0  0  0  0
   -4.4311    3.7103    3.4177 H   0  0  0  0  0  0  0  0  0  0  0  0
  1  2  1  0  0  0  0
  1 33  1  0  0  0  0
  1 34  1  0  0  0  0
  1 35  1  0  0  0  0
  2  3  1  0  0  0  0
  2 36  1  0  0  0  0
  2 37  1  0  0  0  0
  3 38  1  0  0  0  0
  3 39  1  0  0  0  0
  4  9  1  0  0  0  0
  4 40  1  6  0  0  0
  4  5  1  0  0  0  0
  4  3  1  0  0  0  0
  5  6  1  0  0  0  0
  5  7  1  0  0  0  0
  5  8  1  0  0  0  0
  6 41  1  0  0  0  0
  6 42  1  0  0  0  0
  6 43  1  0  0  0  0
  7 44  1  0  0  0  0
  7 45  1  0  0  0  0
  7 46  1  0  0  0  0
  8 47  1  0  0  0  0
  8 48  1  0  0  0  0
  8 49  1  0  0  0  0
  9 10  1  0  0  0  0
  9 20  1  0  0  0  0
 10 11  2  0  0  0  0
 10 12  1  0  0  0  0
 12 13  2  0  0  0  0
 12 17  1  0  0  0  0
 13 14  1  0  0  0  0
 13 50  1  0  0  0  0
 14 15  2  0  0  0  0
 14 19  1  0  0  0  0
 15 16  1  0  0  0  0
 15 51  1  0  0  0  0
 16 17  2  0  0  0  0
 16 18  1  0  0  0  0
 17 52  1  0  0  0  0
 18 53  1  0  0  0  0
 18 54  1  0  0  0  0
 18 55  1  0  0  0  0
 19 56  1  0  0  0  0
 19 57  1  0  0  0  0
 19 58  1  0  0  0  0
 20 21  1  0  0  0  0
 20 59  1  0  0  0  0
 21 22  2  0  0  0  0
 21 23  1  0  0  0  0
 23 24  2  0  0  0  0
 23 28  1  0  0  0  0
 24 25  1  0  0  0  0
 24 60  1  0  0  0  0
 25 26  2  0  0  0  0
 25 61  1  0  0  0  0
 26 27  1  0  0  0  0
 26 62  1  0  0  0  0
 27 28  2  0  0  0  0
 27 31  1  0  0  0  0
 28 29  1  0  0  0  0
 29 30  1  0  0  0  0
 29 63  1  0  0  0  0
 29 64  1  0  0  0  0
 30 65  1  0  0  0  0
 30 66  1  0  0  0  0
 30 67  1  0  0  0  0
 31 32  1  0  0  0  0
 32 68  1  0  0  0  0
 32 69  1  0  0  0  0
 32 70  1  0  0  0  0
M  END
>  <DRUGBANK_ID>
DB12170

>  <COMMON_NAME>
Veledimex

>  <CAS_NUMBER>
1093130-72-3

>  <UNII>
ASU841TV0X

>  <SYNONYMS>
Veledimex

$$$$
