
 OpenBabel10282417133D

 45 44  0  0  0  0  0  0  0  0999 V2000
    0.7212    2.9600   -9.7816 S   0  0  0  0  0  0  0  0  0  0  0  0
    0.0603    1.8252   -8.5535 C   0  0  0  0  0  0  0  0  0  0  0  0
   -0.6562    2.5354   -7.3681 C   0  0  0  0  0  0  0  0  0  0  0  0
   -1.9041    3.1699   -7.7978 N   0  0  0  0  0  0  0  0  0  0  0  0
   -4.0709    3.6985   -7.8935 O   0  0  0  0  0  0  0  0  0  0  0  0
   -3.1964    2.9797   -7.4076 C   0  0  0  0  0  0  0  0  0  0  0  0
   -3.5532    1.9115   -6.4071 C   0  0  0  0  0  0  0  0  0  0  0  0
   -3.4094    0.4945   -6.9357 C   0  0  0  0  0  0  0  0  0  0  0  0
   -2.0652    0.0705   -7.3449 N   0  0  0  0  0  0  0  0  0  0  0  0
    0.1859   -0.3443   -7.1530 O   0  0  0  0  0  0  0  0  0  0  0  0
   -0.9704   -0.5169   -6.7534 C   0  0  0  0  0  0  0  0  0  0  0  0
   -0.5134   -0.8271   -4.4756 O   0  0  0  0  0  0  0  0  0  0  0  0
   -1.1515   -1.4112   -5.6103 C   0  0  2  0  0  0  0  0  0  0  0  0
   -1.3440   -3.3808   -7.3024 C   0  0  0  0  0  0  0  0  0  0  0  0
   -0.8764   -2.9334   -5.8922 C   0  0  0  0  0  0  0  0  0  0  0  0
    0.6484   -3.0799   -5.8247 C   0  0  0  0  0  0  0  0  0  0  0  0
   -1.5004   -3.9475   -4.8629 C   0  0  0  0  0  0  0  0  0  0  0  0
   -2.9524   -3.9252   -4.8031 O   0  0  0  0  0  0  0  0  0  0  0  0
   -2.3588   -1.9708   -3.5245 O   0  0  0  0  0  0  0  0  0  0  0  0
   -3.8479   -2.0765   -5.9402 O   0  0  0  0  0  0  0  0  0  0  0  0
   -3.5291   -2.3453   -4.3980 P   0  0  0  0  0  0  0  0  0  0  0  0
   -4.1058   -0.7653   -3.9929 O   0  0  0  0  0  0  0  0  0  0  0  0
   -0.4769    3.4183  -10.1475 H   0  0  0  0  0  0  0  0  0  0  0  0
   -0.5930    1.1687   -9.1416 H   0  0  0  0  0  0  0  0  0  0  0  0
    0.9083    1.2335   -8.2172 H   0  0  0  0  0  0  0  0  0  0  0  0
   -0.8871    1.8976   -6.5106 H   0  0  0  0  0  0  0  0  0  0  0  0
    0.0002    3.2928   -6.9373 H   0  0  0  0  0  0  0  0  0  0  0  0
   -1.8071    3.9449   -8.4400 H   0  0  0  0  0  0  0  0  0  0  0  0
   -3.0136    2.0700   -5.4690 H   0  0  0  0  0  0  0  0  0  0  0  0
   -4.6207    2.0470   -6.1622 H   0  0  0  0  0  0  0  0  0  0  0  0
   -3.8093   -0.1054   -6.1490 H   0  0  0  0  0  0  0  0  0  0  0  0
   -4.0325    0.3478   -7.8230 H   0  0  0  0  0  0  0  0  0  0  0  0
   -1.8324    0.5751   -8.1668 H   0  0  0  0  0  0  0  0  0  0  0  0
   -1.2371   -0.6293   -3.8420 H   0  0  0  0  0  0  0  0  0  0  0  0
   -2.1675   -1.1805   -5.4982 H   0  0  0  0  0  0  0  0  0  0  0  0
   -1.0301   -2.6831   -8.0810 H   0  0  0  0  0  0  0  0  0  0  0  0
   -0.9374   -4.3666   -7.5482 H   0  0  0  0  0  0  0  0  0  0  0  0
   -2.4193   -3.5011   -7.4127 H   0  0  0  0  0  0  0  0  0  0  0  0
    1.1265   -2.4408   -6.5718 H   0  0  0  0  0  0  0  0  0  0  0  0
    1.0217   -2.7796   -4.8400 H   0  0  0  0  0  0  0  0  0  0  0  0
    0.9660   -4.1044   -6.0215 H   0  0  0  0  0  0  0  0  0  0  0  0
   -1.2215   -4.9750   -5.1242 H   0  0  0  0  0  0  0  0  0  0  0  0
   -1.0984   -3.7989   -3.8520 H   0  0  0  0  0  0  0  0  0  0  0  0
   -3.7485   -2.8616   -6.4957 H   0  0  0  0  0  0  0  0  0  0  0  0
   -3.3461   -0.1643   -3.9257 H   0  0  0  0  0  0  0  0  0  0  0  0
  1  2  1  0  0  0  0
  1 23  1  0  0  0  0
  2  3  1  0  0  0  0
  2 24  1  0  0  0  0
  2 25  1  0  0  0  0
  3  4  1  0  0  0  0
  3 26  1  0  0  0  0
  3 27  1  0  0  0  0
  4  6  1  0  0  0  0
  4 28  1  0  0  0  0
  6  5  2  0  0  0  0
  6  7  1  0  0  0  0
  7  8  1  0  0  0  0
  7 29  1  0  0  0  0
  7 30  1  0  0  0  0
  8  9  1  0  0  0  0
  8 31  1  0  0  0  0
  8 32  1  0  0  0  0
  9 11  1  0  0  0  0
  9 33  1  0  0  0  0
 11 10  2  0  0  0  0
 12 34  1  0  0  0  0
 13 15  1  0  0  0  0
 13 35  1  1  0  0  0
 13 12  1  0  0  0  0
 13 11  1  0  0  0  0
 14 36  1  0  0  0  0
 14 37  1  0  0  0  0
 14 38  1  0  0  0  0
 15 17  1  0  0  0  0
 15 14  1  0  0  0  0
 15 16  1  0  0  0  0
 16 39  1  0  0  0  0
 16 40  1  0  0  0  0
 16 41  1  0  0  0  0
 17 18  1  0  0  0  0
 17 42  1  0  0  0  0
 17 43  1  0  0  0  0
 18 21  1  0  0  0  0
 20 44  1  0  0  0  0
 21 19  2  0  0  0  0
 21 20  1  0  0  0  0
 21 22  1  0  0  0  0
 22 45  1  0  0  0  0
M  END
>  <DRUGBANK_ID>
DB03912

>  <SECONDARY_ACCESSION_NUMBERS>
EXPT02624

>  <COMMON_NAME>
D-pantetheine 4'-phosphate

>  <CAS_NUMBER>
2226-71-3

>  <UNII>
NM39WU8OFM

>  <SYNONYMS>
(2R)-2-Hydroxy-N-(3-((2-mercaptoethyl)amino)-3-oxopropyl)-3,3-dimethyl-4-(phosphonooxy)butanamide; 4'-Phosphopantetheine; Pantetheine-4'-phosphate; Phosphopantetheine

$$$$
