IP6
 OpenBabel10282417173D

 42 45  0  0  0  0  0  0  0  0999 V2000
    2.2900   -0.1305    0.1952 N   0  0  0  0  0  0  0  0  0  0  0  0
    0.9002   -0.1037    0.0396 C   0  0  0  0  0  0  0  0  0  0  0  0
    0.3525    1.1322    0.0043 N   0  0  0  0  0  0  0  0  0  0  0  0
   -0.9965    1.2181   -0.0079 C   0  0  0  0  0  0  0  0  0  0  0  0
   -1.8343    0.1256   -0.0407 C   0  0  0  0  0  0  0  0  0  0  0  0
   -1.2548   -1.1339   -0.0143 C   0  0  0  0  0  0  0  0  0  0  0  0
    0.1327   -1.2942    0.0734 C   0  0  0  0  0  0  0  0  0  0  0  0
    0.7230   -2.5471    0.1562 N   0  0  0  0  0  0  0  0  0  0  0  0
    0.0035   -3.8066    0.2014 C   0  0  0  0  0  0  0  0  0  0  0  0
    0.3065   -4.6830   -0.9919 C   0  0  0  0  0  0  0  0  0  0  0  0
   -0.1421   -6.0075   -0.9862 C   0  0  0  0  0  0  0  0  0  0  0  0
    0.1774   -6.8594   -2.0433 C   0  0  0  0  0  0  0  0  0  0  0  0
    0.9095   -6.3867   -3.1429 C   0  0  0  0  0  0  0  0  0  0  0  0
    1.3784   -5.0654   -3.1849 C   0  0  0  0  0  0  0  0  0  0  0  0
    1.0281   -4.2244   -2.1075 C   0  0  0  0  0  0  0  0  0  0  0  0
    2.4298   -4.6316   -4.1349 C   0  0  0  0  0  0  0  0  0  0  0  0
    2.3305   -4.6256   -5.5411 C   0  0  0  0  0  0  0  0  0  0  0  0
    3.4929   -4.4456   -6.3573 C   0  0  0  0  0  0  0  0  0  0  0  0
    4.7446   -4.2647   -5.7241 C   0  0  0  0  0  0  0  0  0  0  0  0
    6.1695   -4.0322   -5.9448 C   0  0  0  0  0  0  0  0  0  0  0  0
    6.1134   -2.6461   -5.7516 C   0  0  0  0  0  0  0  0  0  0  0  0
    5.5922   -2.7214   -4.4270 N   0  0  0  0  0  0  0  0  0  0  0  0
    4.6047   -3.7098   -4.4504 C   0  0  0  0  0  0  0  0  0  0  0  0
    3.6206   -4.1261   -3.5833 C   0  0  0  0  0  0  0  0  0  0  0  0
    2.6685    0.7835   -0.0405 H   0  0  0  0  0  0  0  0  0  0  0  0
    2.7683   -0.9119   -0.2204 H   0  0  0  0  0  0  0  0  0  0  0  0
   -1.4062    2.2232    0.0195 H   0  0  0  0  0  0  0  0  0  0  0  0
   -2.9121    0.2323   -0.0747 H   0  0  0  0  0  0  0  0  0  0  0  0
   -1.9302   -1.9787   -0.0471 H   0  0  0  0  0  0  0  0  0  0  0  0
    1.7275   -2.5901    0.2636 H   0  0  0  0  0  0  0  0  0  0  0  0
    0.2899   -4.3278    1.1231 H   0  0  0  0  0  0  0  0  0  0  0  0
   -1.0809   -3.6944    0.2442 H   0  0  0  0  0  0  0  0  0  0  0  0
   -0.7331   -6.3838   -0.1526 H   0  0  0  0  0  0  0  0  0  0  0  0
   -0.1071   -7.9080   -1.9858 H   0  0  0  0  0  0  0  0  0  0  0  0
    1.1722   -7.0867   -3.9327 H   0  0  0  0  0  0  0  0  0  0  0  0
    1.3877   -3.1967   -2.1182 H   0  0  0  0  0  0  0  0  0  0  0  0
    1.3508   -4.7300   -6.0086 H   0  0  0  0  0  0  0  0  0  0  0  0
    3.3846   -4.3981   -7.4404 H   0  0  0  0  0  0  0  0  0  0  0  0
    6.9585   -4.4042   -5.2518 H   0  0  0  0  0  0  0  0  0  0  0  0
    5.6398   -1.9848   -6.4787 H   0  0  0  0  0  0  0  0  0  0  0  0
    6.1736   -2.6853   -3.6007 H   0  0  0  0  0  0  0  0  0  0  0  0
    3.7175   -3.9880   -2.5098 H   0  0  0  0  0  0  0  0  0  0  0  0
  1  2  1  0  0  0  0
  1 25  1  0  0  0  0
  1 26  1  0  0  0  0
  2  3  2  0  0  0  0
  2  7  1  0  0  0  0
  3  4  1  0  0  0  0
  4  5  2  0  0  0  0
  4 27  1  0  0  0  0
  5  6  1  0  0  0  0
  5 28  1  0  0  0  0
  6  7  2  0  0  0  0
  6 29  1  0  0  0  0
  7  8  1  0  0  0  0
  8  9  1  0  0  0  0
  8 30  1  0  0  0  0
  9 10  1  0  0  0  0
  9 31  1  0  0  0  0
  9 32  1  0  0  0  0
 10 15  1  0  0  0  0
 10 11  2  0  0  0  0
 11 12  1  0  0  0  0
 11 33  1  0  0  0  0
 12 13  2  0  0  0  0
 12 34  1  0  0  0  0
 13 14  1  0  0  0  0
 13 35  1  0  0  0  0
 14 16  1  0  0  0  0
 14 15  2  0  0  0  0
 15 36  1  0  0  0  0
 16 24  2  0  0  0  0
 16 17  1  0  0  0  0
 17 18  2  0  0  0  0
 17 37  1  0  0  0  0
 18 19  1  0  0  0  0
 18 38  1  0  0  0  0
 19 20  1  0  0  0  0
 19 23  2  0  0  0  0
 20 21  2  0  0  0  0
 20 39  1  0  0  0  0
 21 22  1  0  0  0  0
 21 40  1  0  0  0  0
 22 23  1  0  0  0  0
 22 41  1  0  0  0  0
 23 24  1  0  0  0  0
 24 42  1  0  0  0  0
M  END
>  <DRUGBANK_ID>
DB07993

>  <COMMON_NAME>
N~3~-[3-(1H-INDOL-6-YL)BENZYL]PYRIDINE-2,3-DIAMINE

$$$$
