
 OpenBabel10282417153D

 26 26  0  0  1  0  0  0  0  0999 V2000
    0.9617    0.0170   -0.1635 C   0  0  0  0  0  0  0  0  0  0  0  0
    0.4775   -1.3345    0.3607 C   0  0  1  0  0  0  0  0  0  0  0  0
    1.0330   -1.7208    1.7783 C   0  0  1  0  0  0  0  0  0  0  0  0
    0.6363   -0.7867    2.9177 C   0  0  0  0  0  0  0  0  0  0  0  0
   -0.0476   -1.2349    4.0557 C   0  0  0  0  0  0  0  0  0  0  0  0
   -0.3938   -0.3367    5.0614 C   0  0  0  0  0  0  0  0  0  0  0  0
   -0.0992    1.0201    4.9456 C   0  0  0  0  0  0  0  0  0  0  0  0
    0.5762    1.4889    3.8383 C   0  0  0  0  0  0  0  0  0  0  0  0
    0.9906    0.5779    2.8674 C   0  0  0  0  0  0  0  0  0  0  0  0
   -0.4600    1.8558    5.9641 O   0  0  0  0  0  0  0  0  0  0  0  0
   -1.0170   -0.8090    6.1791 O   0  0  0  0  0  0  0  0  0  0  0  0
    0.6103   -3.0684    2.0484 O   0  0  0  0  0  0  0  0  0  0  0  0
   -0.9974   -1.3387    0.3016 N   0  0  0  0  0  0  0  0  0  0  0  0
    0.4618    0.8514    0.3396 H   0  0  0  0  0  0  0  0  0  0  0  0
    0.7364    0.1415   -1.2265 H   0  0  0  0  0  0  0  0  0  0  0  0
    2.0448    0.1204   -0.0346 H   0  0  0  0  0  0  0  0  0  0  0  0
    0.8234   -2.1018   -0.3445 H   0  0  0  0  0  0  0  0  0  0  0  0
    2.1279   -1.7592    1.7414 H   0  0  0  0  0  0  0  0  0  0  0  0
   -0.2945   -2.2844    4.1960 H   0  0  0  0  0  0  0  0  0  0  0  0
    0.8139    2.5408    3.7070 H   0  0  0  0  0  0  0  0  0  0  0  0
    1.6090    0.9662    2.0663 H   0  0  0  0  0  0  0  0  0  0  0  0
   -0.1353    2.7469    5.7422 H   0  0  0  0  0  0  0  0  0  0  0  0
   -1.1123   -0.0263    6.7576 H   0  0  0  0  0  0  0  0  0  0  0  0
   -0.3599   -3.0540    2.0907 H   0  0  0  0  0  0  0  0  0  0  0  0
   -1.3477   -2.2725    0.5011 H   0  0  0  0  0  0  0  0  0  0  0  0
   -1.3605   -0.7275    1.0351 H   0  0  0  0  0  0  0  0  0  0  0  0
  1  2  1  0  0  0  0
  1 14  1  0  0  0  0
  1 15  1  0  0  0  0
  1 16  1  0  0  0  0
  2  3  1  0  0  0  0
  2 13  1  0  0  0  0
  2 17  1  6  0  0  0
  3  4  1  0  0  0  0
  3 12  1  0  0  0  0
  3 18  1  6  0  0  0
  4  5  2  0  0  0  0
  4  9  1  0  0  0  0
  5  6  1  0  0  0  0
  5 19  1  0  0  0  0
  6  7  2  0  0  0  0
  6 11  1  0  0  0  0
  7  8  1  0  0  0  0
  7 10  1  0  0  0  0
  8  9  2  0  0  0  0
  8 20  1  0  0  0  0
  9 21  1  0  0  0  0
 10 22  1  0  0  0  0
 11 23  1  0  0  0  0
 12 24  1  0  0  0  0
 13 25  1  0  0  0  0
 13 26  1  0  0  0  0
M  END
>  <DRUGBANK_ID>
DB06707

>  <COMMON_NAME>
Levonordefrin

>  <CAS_NUMBER>
829-74-3

>  <UNII>
V008L6478D

>  <SYNONYMS>
(-)-cobefrin; alpha-Methylnoradrenaline; Corbadrina; Corbadrine; Corbadrinum; L-alpha-methylnoradrenaline; L-Nordefrin; Levonordefrin; Neo-cobefrin

$$$$
