211
 OpenBabel10282417103D

 36 36  0  0  1  0  0  0  0  0999 V2000
    1.3971   -0.2129    0.1015 C   0  0  0  0  0  0  0  0  0  0  0  0
    0.5614   -1.3377    0.0066 C   0  0  0  0  0  0  0  0  0  0  0  0
    0.7794    1.0695    0.1193 C   0  0  0  0  0  0  0  0  0  0  0  0
    2.9065   -0.2429    0.2265 C   0  0  3  0  0  0  0  0  0  0  0  0
   -0.8334   -1.1393   -0.0393 C   0  0  0  0  0  0  0  0  0  0  0  0
    0.8767   -2.6704   -0.0501 O   0  0  0  0  0  0  0  0  0  0  0  0
   -0.6019    1.2500    0.0979 C   0  0  0  0  0  0  0  0  0  0  0  0
    3.6389    0.2271   -1.0411 C   0  0  0  0  0  0  0  0  0  0  0  0
    3.3092    0.3922    1.4382 O   0  0  0  0  0  0  0  0  0  0  0  0
   -1.4115    0.1343   -0.0113 C   0  0  0  0  0  0  0  0  0  0  0  0
    2.2297   -3.0874   -0.0632 C   0  0  0  0  0  0  0  0  0  0  0  0
   -1.0220    2.5456    0.2226 O   0  0  0  0  0  0  0  0  0  0  0  0
    3.5258    1.6514   -1.2561 N   0  0  0  0  0  0  0  0  0  0  0  0
   -2.4111    2.7188    0.4871 C   0  0  0  0  0  0  0  0  0  0  0  0
    4.6076    2.4798   -1.0567 C   0  0  0  0  0  0  0  0  0  0  0  0
    4.2587    3.9680   -1.1098 C   0  0  0  0  0  0  0  0  0  0  0  0
    5.7300    2.0561   -0.8246 O   0  0  0  0  0  0  0  0  0  0  0  0
    4.7025    4.6291    0.1177 N   0  0  0  0  0  0  0  0  0  0  0  0
    1.3836    1.9703    0.1922 H   0  0  0  0  0  0  0  0  0  0  0  0
    3.3056   -1.2253    0.3775 H   0  0  0  0  0  0  0  0  0  0  0  0
   -1.4955   -2.0032   -0.0756 H   0  0  0  0  0  0  0  0  0  0  0  0
    4.6951   -0.0486   -0.9485 H   0  0  0  0  0  0  0  0  0  0  0  0
    3.2434   -0.2766   -1.9312 H   0  0  0  0  0  0  0  0  0  0  0  0
    3.2162    1.3470    1.3249 H   0  0  0  0  0  0  0  0  0  0  0  0
   -2.4916    0.2149   -0.0625 H   0  0  0  0  0  0  0  0  0  0  0  0
    2.7626   -2.6404   -0.9115 H   0  0  0  0  0  0  0  0  0  0  0  0
    2.6921   -2.8895    0.9106 H   0  0  0  0  0  0  0  0  0  0  0  0
    2.2950   -4.1677   -0.2003 H   0  0  0  0  0  0  0  0  0  0  0  0
    2.6275    2.0262   -1.5299 H   0  0  0  0  0  0  0  0  0  0  0  0
   -2.9944    2.4748   -0.4056 H   0  0  0  0  0  0  0  0  0  0  0  0
   -2.7374    2.1229    1.3477 H   0  0  0  0  0  0  0  0  0  0  0  0
   -2.5878    3.7709    0.7300 H   0  0  0  0  0  0  0  0  0  0  0  0
    4.7630    4.3903   -1.9822 H   0  0  0  0  0  0  0  0  0  0  0  0
    3.1796    4.1121   -1.2295 H   0  0  0  0  0  0  0  0  0  0  0  0
    4.5065    5.6244    0.0722 H   0  0  0  0  0  0  0  0  0  0  0  0
    4.2163    4.2500    0.9272 H   0  0  0  0  0  0  0  0  0  0  0  0
  1  2  2  0  0  0  0
  1  3  1  0  0  0  0
  1  4  1  0  0  0  0
  2  5  1  0  0  0  0
  2  6  1  0  0  0  0
  3  7  2  0  0  0  0
  3 19  1  0  0  0  0
  4  8  1  0  0  0  0
  4  9  1  0  0  0  0
  4 20  1  0  0  0  0
  5 10  2  0  0  0  0
  5 21  1  0  0  0  0
  6 11  1  0  0  0  0
  7 12  1  0  0  0  0
  7 10  1  0  0  0  0
  8 13  1  0  0  0  0
  8 22  1  0  0  0  0
  8 23  1  0  0  0  0
  9 24  1  0  0  0  0
 10 25  1  0  0  0  0
 11 26  1  0  0  0  0
 11 27  1  0  0  0  0
 11 28  1  0  0  0  0
 12 14  1  0  0  0  0
 13 15  1  0  0  0  0
 13 29  1  0  0  0  0
 14 30  1  0  0  0  0
 14 31  1  0  0  0  0
 14 32  1  0  0  0  0
 15 16  1  0  0  0  0
 15 17  2  0  0  0  0
 16 18  1  0  0  0  0
 16 33  1  0  0  0  0
 16 34  1  0  0  0  0
 18 35  1  0  0  0  0
 18 36  1  0  0  0  0
M  END
>  <DRUGBANK_ID>
DB00211

>  <SECONDARY_ACCESSION_NUMBERS>
APRD01116

>  <COMMON_NAME>
Midodrine

>  <CAS_NUMBER>
42794-76-3

>  <UNII>
6YE7PBM15H

>  <SYNONYMS>
(±)-2-amino-N-(β-hydroxy-2,5-dimethoxyphenethyl)acetamide; 1-(2',5'-Dimethoxyphenyl)-2-glycinamidoethanol; 2-Amino-N-(2,5-dimethoxy-beta-hydroxyphenethyl)acetamide; DL-N1-(beta-Hydroxy-2,5-dimethoxyphenethyl)glycinamid; Midodrin; Midodrina; Midodrine; Midodrinum

$$$$
