
 OpenBabel10282417153D

 26 27  0  0  1  0  0  0  0  0999 V2000
    2.0690    0.4785    1.4226 C   0  0  0  0  0  0  0  0  0  0  0  0
    2.8382   -0.1347    2.3130 C   0  0  0  0  0  0  0  0  0  0  0  0
    4.1334    0.4901    2.6400 C   0  0  0  0  0  0  0  0  0  0  0  0
    4.5325    1.5786    2.0528 N   0  0  0  0  0  0  0  0  0  0  0  0
    3.7432    2.1877    1.0933 C   0  0  0  0  0  0  0  0  0  0  0  0
    4.1669    3.1875    0.5099 O   0  0  0  0  0  0  0  0  0  0  0  0
    2.4877    1.6397    0.7873 N   0  0  0  0  0  0  0  0  0  0  0  0
    1.4769    2.4494    0.1138 C   0  0  2  0  0  0  0  0  0  0  0  0
    1.6353    2.8651   -1.3061 C   0  0  0  0  0  0  0  0  0  0  0  0
    1.5196    4.1936   -1.3891 C   0  0  0  0  0  0  0  0  0  0  0  0
    1.4539    4.7893   -0.0240 C   0  0  1  0  0  0  0  0  0  0  0  0
    1.3017    3.6642    0.8693 O   0  0  0  0  0  0  0  0  0  0  0  0
    2.6846    5.6946    0.2420 C   0  0  0  0  0  0  0  0  0  0  0  0
    3.1990    5.6831    1.5671 O   0  0  0  0  0  0  0  0  0  0  0  0
    4.9492   -0.0735    3.5807 N   0  0  0  0  0  0  0  0  0  0  0  0
    2.4859   -1.2539    2.9700 F   0  0  0  0  0  0  0  0  0  0  0  0
    1.0826    0.0905    1.1968 H   0  0  0  0  0  0  0  0  0  0  0  0
    0.5321    1.8891    0.1359 H   0  0  0  0  0  0  0  0  0  0  0  0
    1.6170    2.2144   -2.1694 H   0  0  0  0  0  0  0  0  0  0  0  0
    1.4787    4.7809   -2.2959 H   0  0  0  0  0  0  0  0  0  0  0  0
    0.5475    5.3876    0.1056 H   0  0  0  0  0  0  0  0  0  0  0  0
    3.5074    5.4766   -0.4512 H   0  0  0  0  0  0  0  0  0  0  0  0
    2.3977    6.7297    0.0285 H   0  0  0  0  0  0  0  0  0  0  0  0
    2.4569    5.5918    2.1819 H   0  0  0  0  0  0  0  0  0  0  0  0
    5.8497    0.3524    3.7607 H   0  0  0  0  0  0  0  0  0  0  0  0
    4.7334   -0.9622    4.0131 H   0  0  0  0  0  0  0  0  0  0  0  0
  1  2  2  0  0  0  0
  1  7  1  0  0  0  0
  1 17  1  0  0  0  0
  2  3  1  0  0  0  0
  2 16  1  0  0  0  0
  3  4  2  0  0  0  0
  3 15  1  0  0  0  0
  4  5  1  0  0  0  0
  5  6  2  0  0  0  0
  5  7  1  0  0  0  0
  8  9  1  0  0  0  0
  8 12  1  0  0  0  0
  8 18  1  1  0  0  0
  8  7  1  0  0  0  0
  9 10  2  0  0  0  0
  9 19  1  0  0  0  0
 10 11  1  0  0  0  0
 10 20  1  0  0  0  0
 11 12  1  0  0  0  0
 11 21  1  1  0  0  0
 11 13  1  0  0  0  0
 13 14  1  0  0  0  0
 13 22  1  0  0  0  0
 13 23  1  0  0  0  0
 14 24  1  0  0  0  0
 15 25  1  0  0  0  0
 15 26  1  0  0  0  0
M  END
>  <DRUGBANK_ID>
DB06236

>  <COMMON_NAME>
Elvucitabine

>  <CAS_NUMBER>
181785-84-2

>  <UNII>
M09BUF90C0

>  <SYNONYMS>
B-L-Fd4C; Elvucitabine

$$$$
