
 OpenBabel10282417133D

 39 38  0  0  0  0  0  0  0  0999 V2000
   -2.9046    1.0594   -0.6090 C   0  0  0  0  0  0  0  0  0  0  0  0
    2.9811   -1.0650   -0.5133 C   0  0  0  0  0  0  0  0  0  0  0  0
   -2.7048   -0.4561   -0.4253 C   0  0  0  0  0  0  0  0  0  0  0  0
   -1.6319    1.8580   -0.9446 C   0  0  0  0  0  0  0  0  0  0  0  0
    1.7591   -1.9343   -0.8662 C   0  0  0  0  0  0  0  0  0  0  0  0
    2.7096    0.4507   -0.4435 C   0  0  0  0  0  0  0  0  0  0  0  0
   -1.6331   -2.2987    0.7779 C   0  0  0  0  0  0  0  0  0  0  0  0
    0.5041    2.7246   -0.1099 C   0  0  0  0  0  0  0  0  0  0  0  0
   -0.4689   -2.6891   -0.1710 C   0  0  0  0  0  0  0  0  0  0  0  0
    1.6747    2.2994    0.8135 C   0  0  0  0  0  0  0  0  0  0  0  0
   -1.8589   -0.7997    0.7731 N   0  0  0  0  0  0  0  0  0  0  0  0
   -0.6922    1.8669    0.2207 N   0  0  0  0  0  0  0  0  0  0  0  0
    0.7394   -1.8812    0.2290 N   0  0  0  0  0  0  0  0  0  0  0  0
    1.9019    0.8040    0.7766 N   0  0  0  0  0  0  0  0  0  0  0  0
    0.0270   -0.0030    0.6357 Cu  0  0  0  0  0  0  0  0  0  0  0  0
   -3.6048    1.1936   -1.4450 H   0  0  0  0  0  0  0  0  0  0  0  0
   -3.3958    1.4843    0.2736 H   0  0  0  0  0  0  0  0  0  0  0  0
    3.4230   -1.4073    0.4310 H   0  0  0  0  0  0  0  0  0  0  0  0
    3.7433   -1.2332   -1.2854 H   0  0  0  0  0  0  0  0  0  0  0  0
   -3.6877   -0.9298   -0.3070 H   0  0  0  0  0  0  0  0  0  0  0  0
   -2.2483   -0.8526   -1.3360 H   0  0  0  0  0  0  0  0  0  0  0  0
   -1.1379    1.4015   -1.8085 H   0  0  0  0  0  0  0  0  0  0  0  0
   -1.9078    2.8867   -1.2079 H   0  0  0  0  0  0  0  0  0  0  0  0
    2.0824   -2.9720   -1.0157 H   0  0  0  0  0  0  0  0  0  0  0  0
    1.3223   -1.5734   -1.8039 H   0  0  0  0  0  0  0  0  0  0  0  0
    3.6681    0.9824   -0.4052 H   0  0  0  0  0  0  0  0  0  0  0  0
    2.1833    0.7612   -1.3524 H   0  0  0  0  0  0  0  0  0  0  0  0
   -1.3440   -2.5630    1.8035 H   0  0  0  0  0  0  0  0  0  0  0  0
   -2.5533   -2.8432    0.5462 H   0  0  0  0  0  0  0  0  0  0  0  0
    0.2576    3.7817    0.0451 H   0  0  0  0  0  0  0  0  0  0  0  0
    0.7994    2.5851   -1.1532 H   0  0  0  0  0  0  0  0  0  0  0  0
   -0.2537   -3.7603   -0.1025 H   0  0  0  0  0  0  0  0  0  0  0  0
   -0.7486   -2.4561   -1.2033 H   0  0  0  0  0  0  0  0  0  0  0  0
    1.3931    2.5330    1.8480 H   0  0  0  0  0  0  0  0  0  0  0  0
    2.5929    2.8526    0.5928 H   0  0  0  0  0  0  0  0  0  0  0  0
   -2.5269   -0.6530    1.5649 H   0  0  0  0  0  0  0  0  0  0  0  0
   -1.2072    2.4403    0.9266 H   0  0  0  0  0  0  0  0  0  0  0  0
    1.1805   -2.4687    0.9741 H   0  0  0  0  0  0  0  0  0  0  0  0
    2.5932    0.6511    1.5480 H   0  0  0  0  0  0  0  0  0  0  0  0
  1 16  1  0  0  0  0
  1 17  1  0  0  0  0
  2 18  1  0  0  0  0
  2 19  1  0  0  0  0
  3  1  1  0  0  0  0
  3 20  1  0  0  0  0
  3 21  1  0  0  0  0
  4  1  1  0  0  0  0
  4 22  1  0  0  0  0
  4 23  1  0  0  0  0
  5  2  1  0  0  0  0
  5 24  1  0  0  0  0
  5 25  1  0  0  0  0
  6  2  1  0  0  0  0
  6 26  1  0  0  0  0
  6 27  1  0  0  0  0
  7 28  1  0  0  0  0
  7 29  1  0  0  0  0
  8 30  1  0  0  0  0
  8 31  1  0  0  0  0
  9  7  1  0  0  0  0
  9 32  1  0  0  0  0
  9 33  1  0  0  0  0
 10  8  1  0  0  0  0
 10 34  1  0  0  0  0
 10 35  1  0  0  0  0
 11  3  1  0  0  0  0
 11  7  1  0  0  0  0
 11 36  1  0  0  0  0
 12  4  1  0  0  0  0
 12  8  1  0  0  0  0
 12 37  1  0  0  0  0
 13  5  1  0  0  0  0
 13  9  1  0  0  0  0
 13 38  1  0  0  0  0
 14  6  1  0  0  0  0
 14 10  1  0  0  0  0
 14 39  1  0  0  0  0
M  END
>  <DRUGBANK_ID>
DB03189

>  <SECONDARY_ACCESSION_NUMBERS>
EXPT02191

>  <COMMON_NAME>
Cu-Cyclam

$$$$
