MEI
 OpenBabel10282417173D

 47 46  0  0  0  0  0  0  0  0999 V2000
   -2.1054    7.3192    0.5742 C   0  0  0  0  0  0  0  0  0  0  0  0
   -1.2892    6.3428    1.1936 O   0  0  0  0  0  0  0  0  0  0  0  0
   -0.0934    6.7701    1.8395 C   0  0  0  0  0  0  0  0  0  0  0  0
    0.8515    7.3122    0.7644 C   0  0  0  0  0  0  0  0  0  0  0  0
   -0.4108    7.7425    2.9580 C   0  0  0  0  0  0  0  0  0  0  0  0
    0.6021    5.5775    2.5290 C   0  0  0  0  0  0  0  0  0  0  0  0
   -0.2897    4.7257    3.4582 C   0  0  0  0  0  0  0  0  0  0  0  0
   -1.4701    4.0579    2.7515 C   0  0  0  0  0  0  0  0  0  0  0  0
   -1.0568    3.0965    1.6017 C   0  0  2  0  0  0  0  0  0  0  0  0
    0.4584    2.8001    1.4762 C   0  0  0  0  0  0  0  0  0  0  0  0
   -1.6118    3.5828    0.2417 C   0  0  0  0  0  0  0  0  0  0  0  0
   -1.1363    2.7139   -0.8724 C   0  0  0  0  0  0  0  0  0  0  0  0
   -1.9069    1.9891   -1.6823 C   0  0  0  0  0  0  0  0  0  0  0  0
   -1.3935    1.1015   -2.7186 C   0  0  0  0  0  0  0  0  0  0  0  0
   -2.4698    0.4047   -3.5068 C   0  0  0  0  0  0  0  0  0  0  0  0
   -0.0766    0.8900   -2.9493 C   0  0  0  0  0  0  0  0  0  0  0  0
    0.4210   -0.0318   -4.0021 C   0  0  0  0  0  0  0  0  0  0  0  0
    1.7710   -0.0833   -4.0593 O   0  0  0  0  0  0  0  0  0  0  0  0
   -0.2749   -0.6824   -4.7477 O   0  0  0  0  0  0  0  0  0  0  0  0
   -1.5359    2.1375    1.8342 H   0  0  0  0  0  0  0  0  0  0  0  0
   -2.9817    6.8195    0.1505 H   0  0  0  0  0  0  0  0  0  0  0  0
   -1.5787    7.8119   -0.2442 H   0  0  0  0  0  0  0  0  0  0  0  0
   -2.4592    8.0414    1.3090 H   0  0  0  0  0  0  0  0  0  0  0  0
    0.4367    8.1992    0.2813 H   0  0  0  0  0  0  0  0  0  0  0  0
    1.8297    7.5665    1.1753 H   0  0  0  0  0  0  0  0  0  0  0  0
    0.9907    6.5672   -0.0345 H   0  0  0  0  0  0  0  0  0  0  0  0
   -1.1223    7.2860    3.6571 H   0  0  0  0  0  0  0  0  0  0  0  0
    0.4998    8.0002    3.5032 H   0  0  0  0  0  0  0  0  0  0  0  0
   -0.8815    8.6503    2.5897 H   0  0  0  0  0  0  0  0  0  0  0  0
    1.0462    5.0034    1.7309 H   0  0  0  0  0  0  0  0  0  0  0  0
    1.4872    5.8970    3.0941 H   0  0  0  0  0  0  0  0  0  0  0  0
    0.3023    3.9432    3.9491 H   0  0  0  0  0  0  0  0  0  0  0  0
   -0.6465    5.3304    4.2983 H   0  0  0  0  0  0  0  0  0  0  0  0
   -2.0560    3.5016    3.4963 H   0  0  0  0  0  0  0  0  0  0  0  0
   -2.2014    4.8056    2.4222 H   0  0  0  0  0  0  0  0  0  0  0  0
    0.6542    1.8187    1.0450 H   0  0  0  0  0  0  0  0  0  0  0  0
    0.9339    3.4947    0.7726 H   0  0  0  0  0  0  0  0  0  0  0  0
    0.9992    2.8281    2.4229 H   0  0  0  0  0  0  0  0  0  0  0  0
   -2.7040    3.6717    0.2730 H   0  0  0  0  0  0  0  0  0  0  0  0
   -1.2169    4.5635   -0.0201 H   0  0  0  0  0  0  0  0  0  0  0  0
   -0.0609    2.7091   -0.9943 H   0  0  0  0  0  0  0  0  0  0  0  0
   -2.9861    2.0595   -1.5485 H   0  0  0  0  0  0  0  0  0  0  0  0
   -2.3847    0.6697   -4.5650 H   0  0  0  0  0  0  0  0  0  0  0  0
   -2.3804   -0.6793   -3.3818 H   0  0  0  0  0  0  0  0  0  0  0  0
   -3.4822    0.6759   -3.1919 H   0  0  0  0  0  0  0  0  0  0  0  0
    0.6850    1.3893   -2.3656 H   0  0  0  0  0  0  0  0  0  0  0  0
    2.2703    0.4641   -3.4313 H   0  0  0  0  0  0  0  0  0  0  0  0
  1  2  1  0  0  0  0
  1 21  1  0  0  0  0
  1 22  1  0  0  0  0
  1 23  1  0  0  0  0
  2  3  1  0  0  0  0
  3  4  1  0  0  0  0
  3  5  1  0  0  0  0
  3  6  1  0  0  0  0
  4 24  1  0  0  0  0
  4 25  1  0  0  0  0
  4 26  1  0  0  0  0
  5 27  1  0  0  0  0
  5 28  1  0  0  0  0
  5 29  1  0  0  0  0
  6  7  1  0  0  0  0
  6 30  1  0  0  0  0
  6 31  1  0  0  0  0
  7  8  1  0  0  0  0
  7 32  1  0  0  0  0
  7 33  1  0  0  0  0
  8 34  1  0  0  0  0
  8 35  1  0  0  0  0
  9 11  1  0  0  0  0
  9 20  1  1  0  0  0
  9 10  1  0  0  0  0
  9  8  1  0  0  0  0
 10 36  1  0  0  0  0
 10 37  1  0  0  0  0
 10 38  1  0  0  0  0
 11 12  1  0  0  0  0
 11 39  1  0  0  0  0
 11 40  1  0  0  0  0
 12 13  2  0  0  0  0
 12 41  1  0  0  0  0
 13 14  1  0  0  0  0
 13 42  1  0  0  0  0
 14 15  1  0  0  0  0
 14 16  2  0  0  0  0
 15 43  1  0  0  0  0
 15 44  1  0  0  0  0
 15 45  1  0  0  0  0
 16 17  1  0  0  0  0
 16 46  1  0  0  0  0
 17 18  1  0  0  0  0
 17 19  2  0  0  0  0
 18 47  1  0  0  0  0
M  END
>  <DRUGBANK_ID>
DB08175

>  <COMMON_NAME>
(2E,4E)-11-METHOXY-3,7,11-TRIMETHYLDODECA-2,4-DIENOIC ACID

>  <UNII>
MB9LR353F8

$$$$
