
 OpenBabel10282417153D

  8  7  0  0  0  0  0  0  0  0999 V2000
    0.9601    0.0737    0.0752 C   0  0  0  0  0  0  0  0  0  0  0  0
    0.9707   -1.7050   -1.4476 N   0  0  0  0  0  0  0  0  0  0  0  0
    0.5748   -1.2871   -0.1073 O   0  0  0  0  0  0  0  0  0  0  0  0
    0.5715    0.4170    1.0370 H   0  0  0  0  0  0  0  0  0  0  0  0
    0.5559    0.7100   -0.7189 H   0  0  0  0  0  0  0  0  0  0  0  0
    2.0526    0.1417    0.0961 H   0  0  0  0  0  0  0  0  0  0  0  0
    1.9710   -1.8785   -1.3222 H   0  0  0  0  0  0  0  0  0  0  0  0
    0.5512   -2.6346   -1.4853 H   0  0  0  0  0  0  0  0  0  0  0  0
  1  4  1  0  0  0  0
  1  5  1  0  0  0  0
  1  6  1  0  0  0  0
  2  7  1  0  0  0  0
  2  8  1  0  0  0  0
  3  1  1  0  0  0  0
  3  2  1  0  0  0  0
M  END
>  <DRUGBANK_ID>
DB06328

>  <COMMON_NAME>
Methoxyamine

>  <CAS_NUMBER>
67-62-9

>  <UNII>
9TZH4WY30J

$$$$
