
 OpenBabel10282417183D

 20 20  0  0  0  0  0  0  0  0999 V2000
   -1.2260   -1.1720   -0.0010 C   0  0  0  0  0  0  0  0  0  0  0  0
    0.1710   -1.2410    0.0150 C   0  0  0  0  0  0  0  0  0  0  0  0
   -1.1570    1.2120    0.0000 C   0  0  0  0  0  0  0  0  0  0  0  0
   -1.8770    0.0420   -0.0140 C   0  0  0  0  0  0  0  0  0  0  0  0
    0.2240    1.1800    0.0160 C   0  0  0  0  0  0  0  0  0  0  0  0
    0.8850   -0.0250   -0.0010 C   0  0  0  0  0  0  0  0  0  0  0  0
   -3.8258    0.0999   -0.0524 As  0  0  0  0  0  0  0  0  0  0  0  0
    0.9873    2.4358    0.0512 N   0  0  0  0  0  0  0  0  0  0  0  0
    2.2370    0.0050   -0.0110 O   0  0  0  0  0  0  0  0  0  0  0  0
   -4.4459    0.9902    1.4461 O   0  0  0  0  0  0  0  0  0  0  0  0
   -4.3864    0.9897   -1.5744 O   0  0  0  0  0  0  0  0  0  0  0  0
   -4.4237   -1.4440   -0.0639 O   0  0  0  0  0  0  0  0  0  0  0  0
    0.3982    3.5111    0.0664 O   0  0  0  0  0  0  0  0  0  0  0  0
    2.2130    2.4081    0.0655 O   0  0  0  0  0  0  0  0  0  0  0  0
   -1.7979   -2.0763   -0.0032 H   0  0  0  0  0  0  0  0  0  0  0  0
    0.6794   -2.1822    0.0385 H   0  0  0  0  0  0  0  0  0  0  0  0
   -1.6681    2.1520   -0.0015 H   0  0  0  0  0  0  0  0  0  0  0  0
    2.7560   -0.8497   -0.0234 H   0  0  0  0  0  0  0  0  0  0  0  0
   -4.1428    0.5092    2.2688 H   0  0  0  0  0  0  0  0  0  0  0  0
   -4.0253    1.9222   -1.5674 H   0  0  0  0  0  0  0  0  0  0  0  0
  1 15  1  0  0  0  0
  2  1  2  0  0  0  0
  2 16  1  0  0  0  0
  3 17  1  0  0  0  0
  4  1  1  0  0  0  0
  4  3  2  0  0  0  0
  5  3  1  0  0  0  0
  6  2  1  0  0  0  0
  6  5  2  0  0  0  0
  7  4  1  0  0  0  0
  8  5  1  0  0  0  0
  9  6  1  0  0  0  0
  9 18  1  0  0  0  0
 10  7  1  0  0  0  0
 10 19  1  0  0  0  0
 11  7  1  0  0  0  0
 11 20  1  0  0  0  0
 12  7  2  0  0  0  0
 13  8  2  0  0  0  0
 14  8  2  0  0  0  0
M  END
>  <DRUGBANK_ID>
DB11458

>  <COMMON_NAME>
Roxarsone

>  <CAS_NUMBER>
121-19-7

>  <UNII>
H5GU9YQL7L

>  <SYNONYMS>
2-nitro-1-hydroxybenzene-4-arsonic acid; 3-nitro-4-hydroxybenzenearsonic acid; 3-nitro-4-hydroxyphenylarsonic acid; 4-hydroxy-3-nitrobenzenearsonic acid; 4-hydroxy-3-nitrophenylarsonic acid; Roxarson; Roxarsone; Roxarsonum

$$$$
