703
 OpenBabel10282417133D

 51 55  0  0  0  0  0  0  0  0999 V2000
    1.4382   -0.3454   -0.0402 C   0  0  0  0  0  0  0  0  0  0  0  0
    0.5819   -1.4639   -0.0375 C   0  0  0  0  0  0  0  0  0  0  0  0
   -0.8068   -1.3017   -0.0852 C   0  0  0  0  0  0  0  0  0  0  0  0
   -1.3386   -0.0453   -0.0860 C   0  0  0  0  0  0  0  0  0  0  0  0
   -0.4804    1.0278    0.1004 C   0  0  0  0  0  0  0  0  0  0  0  0
    0.9022    0.9350   -0.0037 C   0  0  0  0  0  0  0  0  0  0  0  0
   -1.7530   -2.4034    0.0149 N   0  3  0  0  0  0  0  0  0  0  0  0
   -2.9593   -2.1388    0.0452 O   0  0  0  0  0  0  0  0  0  0  0  0
   -1.2758   -3.5487    0.0864 O   0  5  0  0  0  0  0  0  0  0  0  0
   -1.1872    2.1101    0.7060 C   0  0  0  0  0  0  0  0  0  0  0  0
   -2.1431    3.0011   -0.3731 S   0  0  0  0  0  0  0  0  0  0  0  0
   -2.6965    3.8169    1.0087 C   0  0  0  0  0  0  0  0  0  0  0  0
   -2.3261    3.3657    2.2286 C   0  0  0  0  0  0  0  0  0  0  0  0
   -1.6360    2.1672    2.0308 C   0  0  0  0  0  0  0  0  0  0  0  0
   -2.8273    4.3818    3.0767 N   0  0  0  0  0  0  0  0  0  0  0  0
   -3.9307    4.8785    2.4122 C   0  0  0  0  0  0  0  0  0  0  0  0
   -2.9477    5.0849    1.4981 C   0  0  0  0  0  0  0  0  0  0  0  0
   -2.8849    4.9591    4.3327 C   0  0  0  0  0  0  0  0  0  0  0  0
   -3.6257    6.2065    4.1583 N   0  0  0  0  0  0  0  0  0  0  0  0
   -4.6396    5.5799    3.4838 C   0  0  0  0  0  0  0  0  0  0  0  0
   -3.0481    3.7917    5.5635 S   0  0  0  0  0  0  0  0  0  0  0  0
   -5.6986    5.3843    3.9865 O   0  0  0  0  0  0  0  0  0  0  0  0
   -3.8079    7.6348    3.3722 C   0  0  0  0  0  0  0  0  0  0  0  0
   -2.6046    8.4732    2.9768 C   0  0  0  0  0  0  0  0  0  0  0  0
   -1.8336    7.6922    1.9105 C   0  0  0  0  0  0  0  0  0  0  0  0
   -2.5032    7.5046    0.4583 N   0  0  0  0  0  0  0  0  0  0  0  0
   -2.3370    6.2116   -0.4883 C   0  0  0  0  0  0  0  0  0  0  0  0
   -0.7984    5.7277   -0.4000 C   0  0  0  0  0  0  0  0  0  0  0  0
   -0.0916    6.6572   -1.2020 O   0  0  0  0  0  0  0  0  0  0  0  0
   -0.2625    7.9266   -0.5710 C   0  0  0  0  0  0  0  0  0  0  0  0
   -1.7453    8.3864   -0.4296 C   0  0  0  0  0  0  0  0  0  0  0  0
    2.5172   -0.4767    0.0057 H   0  0  0  0  0  0  0  0  0  0  0  0
    1.0095   -2.4583    0.0168 H   0  0  0  0  0  0  0  0  0  0  0  0
   -2.4146    0.1355   -0.0537 H   0  0  0  0  0  0  0  0  0  0  0  0
    1.5427    1.8163    0.0195 H   0  0  0  0  0  0  0  0  0  0  0  0
   -1.5112    1.4061    2.7758 H   0  0  0  0  0  0  0  0  0  0  0  0
   -2.0178    5.6411    1.5496 H   0  0  0  0  0  0  0  0  0  0  0  0
   -4.4024    7.5269    2.4353 H   0  0  0  0  0  0  0  0  0  0  0  0
   -4.4882    8.2520    3.9863 H   0  0  0  0  0  0  0  0  0  0  0  0
   -2.8268    9.4816    2.5917 H   0  0  0  0  0  0  0  0  0  0  0  0
   -2.0272    8.6126    3.8999 H   0  0  0  0  0  0  0  0  0  0  0  0
   -0.8324    8.0990    1.8523 H   0  0  0  0  0  0  0  0  0  0  0  0
   -1.6238    6.8335    2.5581 H   0  0  0  0  0  0  0  0  0  0  0  0
   -2.6569    6.2860   -1.5506 H   0  0  0  0  0  0  0  0  0  0  0  0
   -3.2527    5.6038   -0.3326 H   0  0  0  0  0  0  0  0  0  0  0  0
   -0.3693    5.7853    0.6182 H   0  0  0  0  0  0  0  0  0  0  0  0
   -0.4344    4.7323   -0.6842 H   0  0  0  0  0  0  0  0  0  0  0  0
    0.2692    8.6397   -1.1739 H   0  0  0  0  0  0  0  0  0  0  0  0
    0.2566    7.8439    0.3893 H   0  0  0  0  0  0  0  0  0  0  0  0
   -2.2551    8.3394   -1.4015 H   0  0  0  0  0  0  0  0  0  0  0  0
   -1.8396    9.3865   -0.0290 H   0  0  0  0  0  0  0  0  0  0  0  0
  1  2  2  0  0  0  0
  1  6  1  0  0  0  0
  1 32  1  0  0  0  0
  2  3  1  0  0  0  0
  2 33  1  0  0  0  0
  3  4  2  0  0  0  0
  3  7  1  0  0  0  0
  4  5  1  0  0  0  0
  4 34  1  0  0  0  0
  5  6  2  0  0  0  0
  5 10  1  0  0  0  0
  6 35  1  0  0  0  0
  7  8  2  0  0  0  0
  7  9  1  0  0  0  0
 10 11  1  0  0  0  0
 10 14  2  0  0  0  0
 11 12  1  0  0  0  0
 12 13  2  0  0  0  0
 12 17  1  0  0  0  0
 13 14  1  0  0  0  0
 13 15  1  0  0  0  0
 14 36  1  0  0  0  0
 15 16  1  0  0  0  0
 15 18  1  0  0  0  0
 16 17  2  0  0  0  0
 16 20  1  0  0  0  0
 17 37  1  0  0  0  0
 18 19  1  0  0  0  0
 18 21  2  0  0  0  0
 19 20  1  0  0  0  0
 19 23  1  0  0  0  0
 20 22  2  0  0  0  0
 23 24  1  0  0  0  0
 23 38  1  0  0  0  0
 23 39  1  0  0  0  0
 24 25  1  0  0  0  0
 24 40  1  0  0  0  0
 24 41  1  0  0  0  0
 25 26  1  0  0  0  0
 25 42  1  0  0  0  0
 25 43  1  0  0  0  0
 26 27  1  0  0  0  0
 26 31  1  0  0  0  0
 27 28  1  0  0  0  0
 27 44  1  0  0  0  0
 27 45  1  0  0  0  0
 28 29  1  0  0  0  0
 28 46  1  0  0  0  0
 28 47  1  0  0  0  0
 29 30  1  0  0  0  0
 30 31  1  0  0  0  0
 30 48  1  0  0  0  0
 30 49  1  0  0  0  0
 31 50  1  0  0  0  0
 31 51  1  0  0  0  0
M  CHG  2   7   1   9  -1
M  END
>  <DRUGBANK_ID>
DB03507

>  <SECONDARY_ACCESSION_NUMBERS>
EXPT00294

>  <COMMON_NAME>
6-[3-(4-Morpholinyl)Propyl]-2-(3-Nitrophenyl)-5-Thioxo-5,6,-Dihydro-7h-Thienol[2',3':4,5]Pyrrolo[1,2-C]Imidazol-7-One

$$$$
