NNB
 OpenBabel10282417173D

 37 39  0  0  0  0  0  0  0  0999 V2000
    2.4095   -1.1722    0.0246 C   0  0  0  0  0  0  0  0  0  0  0  0
    1.0062   -1.2248    0.0176 C   0  0  0  0  0  0  0  0  0  0  0  0
    0.2611   -0.0455    0.0078 C   0  0  0  0  0  0  0  0  0  0  0  0
   -1.6248   -0.0837   -0.0057 Br  0  0  0  0  0  0  0  0  0  0  0  0
    0.8990    1.1812    0.0037 C   0  0  0  0  0  0  0  0  0  0  0  0
    2.2851    1.2264   -0.0084 C   0  0  0  0  0  0  0  0  0  0  0  0
    3.0625    0.0660   -0.0103 C   0  0  0  0  0  0  0  0  0  0  0  0
    4.4658    0.0990   -0.1663 N   0  0  0  0  0  0  0  0  0  0  0  0
    5.2193    1.2000   -0.5104 C   0  0  0  0  0  0  0  0  0  0  0  0
    6.6027    1.0577   -1.4280 S   0  0  0  0  0  0  0  0  0  0  0  0
    4.7647    2.3773   -0.0185 O   0  0  0  0  0  0  0  0  0  0  0  0
    5.4788    3.6281    0.0927 C   0  0  0  0  0  0  0  0  0  0  0  0
    6.2191    3.7209    1.4396 C   0  0  0  0  0  0  0  0  0  0  0  0
    7.1834    2.6457    1.6485 N   0  0  0  0  0  0  0  0  0  0  0  0
    6.8606    1.3473    1.9465 C   0  0  0  0  0  0  0  0  0  0  0  0
    5.8071    0.8731    2.3326 O   0  0  0  0  0  0  0  0  0  0  0  0
    8.0586    0.5471    1.6968 C   0  0  0  0  0  0  0  0  0  0  0  0
    8.2238   -0.8194    1.5384 C   0  0  0  0  0  0  0  0  0  0  0  0
    9.5239   -1.2847    1.3196 C   0  0  0  0  0  0  0  0  0  0  0  0
   10.6045   -0.3830    1.2444 C   0  0  0  0  0  0  0  0  0  0  0  0
   10.3922    0.9991    1.3009 C   0  0  0  0  0  0  0  0  0  0  0  0
    9.0992    1.4347    1.5056 C   0  0  0  0  0  0  0  0  0  0  0  0
    8.5269    2.7799    1.4617 C   0  0  0  0  0  0  0  0  0  0  0  0
    9.1720    3.7998    1.2570 O   0  0  0  0  0  0  0  0  0  0  0  0
    2.9660   -2.1068    0.0104 H   0  0  0  0  0  0  0  0  0  0  0  0
    0.5006   -2.1864    0.0022 H   0  0  0  0  0  0  0  0  0  0  0  0
    0.3540    2.1196   -0.0062 H   0  0  0  0  0  0  0  0  0  0  0  0
    2.7081    2.2185   -0.0290 H   0  0  0  0  0  0  0  0  0  0  0  0
    4.9556   -0.7866   -0.1860 H   0  0  0  0  0  0  0  0  0  0  0  0
    6.1168    3.7972   -0.7772 H   0  0  0  0  0  0  0  0  0  0  0  0
    4.7082    4.4121    0.0678 H   0  0  0  0  0  0  0  0  0  0  0  0
    6.7401    4.6848    1.4699 H   0  0  0  0  0  0  0  0  0  0  0  0
    5.4930    3.6860    2.2585 H   0  0  0  0  0  0  0  0  0  0  0  0
    7.3784   -1.5002    1.5432 H   0  0  0  0  0  0  0  0  0  0  0  0
    9.7082   -2.3523    1.2062 H   0  0  0  0  0  0  0  0  0  0  0  0
   11.6146   -0.7679    1.1170 H   0  0  0  0  0  0  0  0  0  0  0  0
   11.2055    1.7059    1.1810 H   0  0  0  0  0  0  0  0  0  0  0  0
  1  2  1  0  0  0  0
  1  7  2  0  0  0  0
  1 25  1  0  0  0  0
  2  3  2  0  0  0  0
  2 26  1  0  0  0  0
  3  4  1  0  0  0  0
  3  5  1  0  0  0  0
  5  6  2  0  0  0  0
  5 27  1  0  0  0  0
  6  7  1  0  0  0  0
  6 28  1  0  0  0  0
  7  8  1  0  0  0  0
  8  9  1  0  0  0  0
  8 29  1  0  0  0  0
  9 10  2  0  0  0  0
  9 11  1  0  0  0  0
 11 12  1  0  0  0  0
 12 13  1  0  0  0  0
 12 30  1  0  0  0  0
 12 31  1  0  0  0  0
 13 14  1  0  0  0  0
 13 32  1  0  0  0  0
 13 33  1  0  0  0  0
 14 23  1  0  0  0  0
 14 15  1  0  0  0  0
 15 16  2  0  0  0  0
 17 15  1  0  0  0  0
 18 17  1  0  0  0  0
 18 34  1  0  0  0  0
 19 18  2  0  0  0  0
 19 35  1  0  0  0  0
 20 19  1  0  0  0  0
 20 36  1  0  0  0  0
 21 20  2  0  0  0  0
 21 37  1  0  0  0  0
 22 21  1  0  0  0  0
 22 17  2  0  0  0  0
 23 24  2  0  0  0  0
 23 22  1  0  0  0  0
M  END
>  <DRUGBANK_ID>
DB08281

>  <COMMON_NAME>
O-[2-(1,3-dioxo-1,3-dihydro-2H-isoindol-2-yl)ethyl] (4-bromophenyl)thiocarbamate

$$$$
