
 OpenBabel10282417193D

 30 30  0  0  0  0  0  0  0  0999 V2000
    1.1376   -0.2253    0.2446 C   0  0  0  0  0  0  0  0  0  0  0  0
    0.5023    1.1350    0.6458 C   0  0  0  0  0  0  0  0  0  0  0  0
   -0.9155    1.1548   -0.0085 C   0  0  0  0  0  0  0  0  0  0  0  0
   -0.9104    1.5088   -1.5140 C   0  0  0  0  0  0  0  0  0  0  0  0
   -0.0932    2.7673   -1.7837 C   0  0  0  0  0  0  0  0  0  0  0  0
    1.3177    2.7773   -1.1313 C   0  0  0  0  0  0  0  0  0  0  0  0
    1.1546    2.4319    0.2944 N   0  0  0  0  0  0  0  0  0  0  0  0
    2.3832    2.5661    0.9499 O   0  0  0  0  0  1  0  0  0  0  0  0
    2.3207    1.8518   -1.8527 C   0  0  0  0  0  0  0  0  0  0  0  0
    1.8443    4.2352   -1.3186 C   0  0  0  0  0  0  0  0  0  0  0  0
   -0.5503    0.4346   -2.3817 O   0  0  0  0  0  0  0  0  0  0  0  0
    0.4241    1.0692    2.2040 C   0  0  0  0  0  0  0  0  0  0  0  0
    0.8487   -0.5677   -0.7489 H   0  0  0  0  0  0  0  0  0  0  0  0
    0.7755   -1.0245    0.9048 H   0  0  0  0  0  0  0  0  0  0  0  0
    2.2273   -0.2220    0.3063 H   0  0  0  0  0  0  0  0  0  0  0  0
   -1.4072    0.1827    0.1273 H   0  0  0  0  0  0  0  0  0  0  0  0
   -1.5386    1.9007    0.5025 H   0  0  0  0  0  0  0  0  0  0  0  0
   -1.9478    1.7122   -1.8086 H   0  0  0  0  0  0  0  0  0  0  0  0
   -0.0080    2.9447   -2.8639 H   0  0  0  0  0  0  0  0  0  0  0  0
   -0.6763    3.6080   -1.3773 H   0  0  0  0  0  0  0  0  0  0  0  0
    2.3146    2.0176   -2.9315 H   0  0  0  0  0  0  0  0  0  0  0  0
    3.3413    2.0074   -1.4849 H   0  0  0  0  0  0  0  0  0  0  0  0
    2.1246    0.7961   -1.7006 H   0  0  0  0  0  0  0  0  0  0  0  0
    1.1995    4.9726   -0.8258 H   0  0  0  0  0  0  0  0  0  0  0  0
    2.8587    4.3640   -0.9233 H   0  0  0  0  0  0  0  0  0  0  0  0
    1.8899    4.4935   -2.3838 H   0  0  0  0  0  0  0  0  0  0  0  0
    0.4307    0.4077   -2.4172 H   0  0  0  0  0  0  0  0  0  0  0  0
   -0.1827    0.2322    2.5591 H   0  0  0  0  0  0  0  0  0  0  0  0
    1.4314    0.9059    2.6212 H   0  0  0  0  0  0  0  0  0  0  0  0
    0.0383    1.9937    2.6460 H   0  0  0  0  0  0  0  0  0  0  0  0
  1  2  1  0  0  0  0
  1 13  1  0  0  0  0
  1 14  1  0  0  0  0
  1 15  1  0  0  0  0
  2  3  1  0  0  0  0
  2  7  1  0  0  0  0
  2 12  1  0  0  0  0
  3  4  1  0  0  0  0
  3 16  1  0  0  0  0
  3 17  1  0  0  0  0
  4  5  1  0  0  0  0
  4 11  1  0  0  0  0
  4 18  1  0  0  0  0
  5  6  1  0  0  0  0
  5 19  1  0  0  0  0
  5 20  1  0  0  0  0
  6  7  1  0  0  0  0
  6  9  1  0  0  0  0
  6 10  1  0  0  0  0
  7  8  1  0  0  0  0
  9 21  1  0  0  0  0
  9 22  1  0  0  0  0
  9 23  1  0  0  0  0
 10 24  1  0  0  0  0
 10 25  1  0  0  0  0
 10 26  1  0  0  0  0
 11 27  1  0  0  0  0
 12 28  1  0  0  0  0
 12 29  1  0  0  0  0
 12 30  1  0  0  0  0
M  RAD  1   8   2
M  END
>  <DRUGBANK_ID>
DB12449

>  <COMMON_NAME>
Tempol

>  <CAS_NUMBER>
2226-96-2

>  <UNII>
U78ZX2F65X

>  <SYNONYMS>
1-PIPERIDINYLOXY,4-HYDROXY-2,2,6,6-TETRAMETHYL-; 2,2,6,6-TETRAMETHYL-4-HYDROXYPIPERIDINE 1-OXIDE RADICAL; 2,2,6,6-TETRAMETHYL-4-HYDROXYPIPERIDINOOXY; 2,2,6,6-TETRAMETHYL-4-HYDROXYPIPERIDINOOXY RADICAL; 4-HYDROXY-2,2,6,6-TETRAMETHYL-1-PIPERIDINYLOXY; 4-HYDROXY-2,2,6,6-TETRAMETHYL-PIPERIDIN-1-OXYL; 4-HYDROXY-2,2,6,6-TETRAMETHYLPIPERIDIN-1-YL)OXIDANYL; 4-Hydroxy-2,2,6,6-tetramethylpiperidine-N-oxyl; 4-HYDROXY-2,2,6,6-TETRAMETHYLPIPERIDINEY-1-OXYL; 4-HYDROXY-2,2,6,6-TETRAMETHYLPIPERIDINLYOXY; 4-HYDROXY-2,2,6,6-TETRAMETHYLPIPERIDINOOXY; 4-HYDROXY-2,2,6,6-TETRAMETHYLPIPERIDINOOXYL; 4-OXYPIPERIDOL

$$$$
