
 OpenBabel10282417183D

 24 23  0  0  0  0  0  0  0  0999 V2000
   -1.1862   -3.1599    4.0676 C   0  0  0  0  0  0  0  0  0  0  0  0
    0.2518   -3.5962    3.7626 C   0  0  1  0  0  0  0  0  0  0  0  0
    0.5864   -3.7534    2.2735 C   0  0  2  0  0  0  0  0  0  0  0  0
   -0.1410   -4.9213    1.5964 C   0  0  2  0  0  0  0  0  0  0  0  0
    0.2419   -5.0027    0.1080 C   0  0  2  0  0  0  0  0  0  0  0  0
   -1.5226   -2.5652    5.0853 O   0  0  0  0  0  0  0  0  0  0  0  0
    1.1637   -2.6138    4.2777 O   0  0  0  0  0  0  0  0  0  0  0  0
    2.0065   -3.9752    2.1374 O   0  0  0  0  0  0  0  0  0  0  0  0
   -1.5584   -4.7777    1.7037 O   0  0  0  0  0  0  0  0  0  0  0  0
   -0.0907   -3.7728   -0.5635 O   0  0  0  0  0  0  0  0  0  0  0  0
   -1.9689   -3.4410    3.3529 H   0  0  0  0  0  0  0  0  0  0  0  0
   -0.5222   -6.1450   -0.5580 C   0  0  0  0  0  0  0  0  0  0  0  0
   -0.1643   -6.2179   -1.9346 O   0  0  0  0  0  0  0  0  0  0  0  0
    0.4487   -4.5377    4.2898 H   0  0  0  0  0  0  0  0  0  0  0  0
    0.3643   -2.8083    1.7653 H   0  0  0  0  0  0  0  0  0  0  0  0
    0.1420   -5.8663    2.0778 H   0  0  0  0  0  0  0  0  0  0  0  0
    1.3217   -5.1550   -0.0105 H   0  0  0  0  0  0  0  0  0  0  0  0
    0.9553   -1.7775    3.8207 H   0  0  0  0  0  0  0  0  0  0  0  0
    2.4529   -3.2922    2.6765 H   0  0  0  0  0  0  0  0  0  0  0  0
   -1.8719   -5.3186    2.4484 H   0  0  0  0  0  0  0  0  0  0  0  0
    0.5907   -3.6355   -1.2450 H   0  0  0  0  0  0  0  0  0  0  0  0
   -0.2809   -7.0995   -0.0796 H   0  0  0  0  0  0  0  0  0  0  0  0
   -1.6053   -5.9915   -0.5056 H   0  0  0  0  0  0  0  0  0  0  0  0
   -0.4775   -5.3794   -2.3205 H   0  0  0  0  0  0  0  0  0  0  0  0
  2 14  1  1  0  0  0
  2  7  1  0  0  0  0
  2  1  1  0  0  0  0
  3  2  1  0  0  0  0
  3  8  1  0  0  0  0
  3 15  1  6  0  0  0
  4  3  1  0  0  0  0
  4  9  1  0  0  0  0
  4 16  1  1  0  0  0
  5 17  1  6  0  0  0
  5 10  1  0  0  0  0
  5  4  1  0  0  0  0
  6  1  2  0  0  0  0
  7 18  1  0  0  0  0
  8 19  1  0  0  0  0
  9 20  1  0  0  0  0
 10 21  1  0  0  0  0
 11  1  1  0  0  0  0
 12  5  1  0  0  0  0
 12 13  1  0  0  0  0
 12 22  1  0  0  0  0
 12 23  1  0  0  0  0
 13 24  1  0  0  0  0
M  END
>  <DRUGBANK_ID>
DB11735

>  <COMMON_NAME>
Galactose

>  <CAS_NUMBER>
59-23-4

>  <UNII>
X2RN3Q8DNE

>  <SYNONYMS>
D-Galactose; D(+)-Galactose; Galactose

$$$$
