
 OpenBabel10282417113D

 40 42  0  0  0  0  0  0  0  0999 V2000
   -1.0140    0.4200    0.1750 N   0  0  0  0  0  0  0  0  0  0  0  0
   -1.5093    0.5632    1.6046 C   0  0  0  0  0  0  0  0  0  0  0  0
   -0.4883   -0.0471    2.6006 C   0  0  0  0  0  0  0  0  0  0  0  0
   -2.8454   -0.2681    1.7642 C   0  0  0  0  0  0  0  0  0  0  0  0
   -0.9615   -0.1148    4.0411 C   0  0  0  0  0  0  0  0  0  0  0  0
   -3.3184   -0.4206    3.2222 C   0  0  0  0  0  0  0  0  0  0  0  0
   -0.7609   -0.9567   -0.3026 C   0  0  0  0  0  0  0  0  0  0  0  0
    0.2425    1.1147   -0.1791 C   0  0  0  0  0  0  0  0  0  0  0  0
   -2.2194   -0.9706    4.1209 C   0  0  0  0  0  0  0  0  0  0  0  0
   -1.7964    2.0727    1.9458 C   0  0  0  0  0  0  0  0  0  0  0  0
    0.7083   -1.2424   -0.0402 C   0  0  0  0  0  0  0  0  0  0  0  0
    1.3608    0.0861   -0.3226 C   0  0  0  0  0  0  0  0  0  0  0  0
   -0.7566    3.0047    2.1086 C   0  0  0  0  0  0  0  0  0  0  0  0
   -3.1004    2.5925    2.1003 C   0  0  0  0  0  0  0  0  0  0  0  0
   -0.9883    4.3778    2.2082 C   0  0  0  0  0  0  0  0  0  0  0  0
   -3.3387    3.9522    2.3196 C   0  0  0  0  0  0  0  0  0  0  0  0
   -2.2881    4.8523    2.3250 C   0  0  0  0  0  0  0  0  0  0  0  0
   -0.3339   -1.0962    2.3393 H   0  0  0  0  0  0  0  0  0  0  0  0
    0.4849    0.4506    2.5493 H   0  0  0  0  0  0  0  0  0  0  0  0
   -3.6476    0.1452    1.1376 H   0  0  0  0  0  0  0  0  0  0  0  0
   -2.7297   -1.2924    1.4017 H   0  0  0  0  0  0  0  0  0  0  0  0
   -0.1706   -0.5772    4.6427 H   0  0  0  0  0  0  0  0  0  0  0  0
   -1.1340    0.8876    4.4436 H   0  0  0  0  0  0  0  0  0  0  0  0
   -4.1871   -1.0882    3.2469 H   0  0  0  0  0  0  0  0  0  0  0  0
   -3.6550    0.5297    3.6434 H   0  0  0  0  0  0  0  0  0  0  0  0
   -0.9260   -0.9686   -1.3887 H   0  0  0  0  0  0  0  0  0  0  0  0
   -1.4024   -1.7389    0.0989 H   0  0  0  0  0  0  0  0  0  0  0  0
    0.5987    1.8593    0.5151 H   0  0  0  0  0  0  0  0  0  0  0  0
    0.1063    1.6561   -1.1231 H   0  0  0  0  0  0  0  0  0  0  0  0
   -1.9861   -1.9983    3.8126 H   0  0  0  0  0  0  0  0  0  0  0  0
   -2.5678   -1.0165    5.1564 H   0  0  0  0  0  0  0  0  0  0  0  0
    0.9155   -1.5338    0.9915 H   0  0  0  0  0  0  0  0  0  0  0  0
    1.1022   -2.0529   -0.6555 H   0  0  0  0  0  0  0  0  0  0  0  0
    2.1736    0.2813    0.3868 H   0  0  0  0  0  0  0  0  0  0  0  0
    1.7733    0.1037   -1.3350 H   0  0  0  0  0  0  0  0  0  0  0  0
    0.2830    2.6932    2.1418 H   0  0  0  0  0  0  0  0  0  0  0  0
   -3.9812    1.9620    2.0780 H   0  0  0  0  0  0  0  0  0  0  0  0
   -0.1505    5.0664    2.1938 H   0  0  0  0  0  0  0  0  0  0  0  0
   -4.3607    4.2989    2.4592 H   0  0  0  0  0  0  0  0  0  0  0  0
   -2.4729    5.9146    2.4358 H   0  0  0  0  0  0  0  0  0  0  0  0
  1  2  1  0  0  0  0
  1  7  1  0  0  0  0
  1  8  1  0  0  0  0
  2  3  1  0  0  0  0
  2  4  1  0  0  0  0
  2 10  1  0  0  0  0
  3  5  1  0  0  0  0
  3 18  1  0  0  0  0
  3 19  1  0  0  0  0
  4  6  1  0  0  0  0
  4 20  1  0  0  0  0
  4 21  1  0  0  0  0
  5  9  1  0  0  0  0
  5 22  1  0  0  0  0
  5 23  1  0  0  0  0
  6  9  1  0  0  0  0
  6 24  1  0  0  0  0
  6 25  1  0  0  0  0
  7 11  1  0  0  0  0
  7 26  1  0  0  0  0
  7 27  1  0  0  0  0
  8 12  1  0  0  0  0
  8 28  1  0  0  0  0
  8 29  1  0  0  0  0
  9 30  1  0  0  0  0
  9 31  1  0  0  0  0
 10 13  2  0  0  0  0
 10 14  1  0  0  0  0
 11 12  1  0  0  0  0
 11 32  1  0  0  0  0
 11 33  1  0  0  0  0
 12 34  1  0  0  0  0
 12 35  1  0  0  0  0
 13 15  1  0  0  0  0
 13 36  1  0  0  0  0
 14 16  2  0  0  0  0
 14 37  1  0  0  0  0
 15 17  2  0  0  0  0
 15 38  1  0  0  0  0
 16 17  1  0  0  0  0
 16 39  1  0  0  0  0
 17 40  1  0  0  0  0
M  END
>  <DRUGBANK_ID>
DB01549

>  <COMMON_NAME>
Rolicyclidine

>  <CAS_NUMBER>
2201-39-0

>  <UNII>
183O9O9JE3

>  <SYNONYMS>
1-(1-phenylcyclohexyl)pyrrolidine; PCPy; Roliciclidina; Rolicyclidine; Rolicyclidinum

$$$$
