
 OpenBabel10282417193D

 56 59  0  0  0  0  0  0  0  0999 V2000
    0.9990    0.0676    0.0707 C   0  0  0  0  0  0  0  0  0  0  0  0
    0.5096   -0.9033    1.1619 C   0  0  0  0  0  0  0  0  0  0  0  0
    0.9976   -0.4059    2.5357 C   0  0  0  0  0  0  0  0  0  0  0  0
   -1.0547   -0.8510    1.1658 C   0  0  0  0  0  0  0  0  0  0  0  0
   -1.6367   -1.3156   -0.0508 O   0  0  0  0  0  0  0  0  0  0  0  0
    1.0091   -2.2784    0.9426 N   0  0  0  0  0  0  0  0  0  0  0  0
    0.3053   -3.4077    1.3076 C   0  0  0  0  0  0  0  0  0  0  0  0
    1.0132   -4.5327    0.9503 C   0  0  0  0  0  0  0  0  0  0  0  0
    2.2044   -4.0604    0.3212 C   0  0  0  0  0  0  0  0  0  0  0  0
    2.2169   -2.6733    0.3829 C   0  0  0  0  0  0  0  0  0  0  0  0
    3.2299   -1.8947   -0.0633 N   0  0  0  0  0  0  0  0  0  0  0  0
    4.2597   -2.5824   -0.5877 C   0  0  0  0  0  0  0  0  0  0  0  0
    4.3358   -3.9019   -0.7215 N   0  0  0  0  0  0  0  0  0  0  0  0
    3.2993   -4.6332   -0.3135 C   0  0  0  0  0  0  0  0  0  0  0  0
    5.3616   -1.9320   -1.0610 N   0  0  0  0  0  0  0  0  0  0  0  0
    0.5206   -5.8880    1.1972 C   0  0  0  0  0  0  0  0  0  0  0  0
   -0.5758   -6.1538    1.6397 O   0  0  0  0  0  0  0  0  0  0  0  0
    1.4040   -6.9839    0.7937 C   0  0  0  0  0  0  0  0  0  0  0  0
    2.7265   -7.1011    1.2643 C   0  0  0  0  0  0  0  0  0  0  0  0
    3.5956   -7.9700    0.6013 C   0  0  0  0  0  0  0  0  0  0  0  0
    3.0476   -8.6359   -0.5075 C   0  0  0  0  0  0  0  0  0  0  0  0
    1.7517   -8.6089   -0.8997 N   0  0  0  0  0  0  0  0  0  0  0  0
    0.9387   -7.7902   -0.2280 C   0  0  0  0  0  0  0  0  0  0  0  0
    4.8622   -8.2536    1.1873 N   0  0  0  0  0  0  0  0  0  0  0  0
    5.6673   -9.3732    1.0698 C   0  0  0  0  0  0  0  0  0  0  0  0
    6.7505   -9.3839    1.6625 O   0  0  0  0  0  0  0  0  0  0  0  0
    5.2238  -10.5771    0.2636 C   0  0  0  0  0  0  0  0  0  0  0  0
    4.0114  -11.3187    0.8342 C   0  0  0  0  0  0  0  0  0  0  0  0
    2.9296  -10.6859    1.4635 C   0  0  0  0  0  0  0  0  0  0  0  0
    1.7141  -11.3029    1.7007 C   0  0  0  0  0  0  0  0  0  0  0  0
    1.6783  -12.6612    1.5783 C   0  0  0  0  0  0  0  0  0  0  0  0
    2.8179  -13.2877    1.0914 C   0  0  0  0  0  0  0  0  0  0  0  0
    3.9452  -12.6493    0.6456 N   0  0  0  0  0  0  0  0  0  0  0  0
    0.3062  -13.5136    2.1391 Cl  0  0  0  0  0  0  0  0  0  0  0  0
    0.5825    1.0690    0.2237 H   0  0  0  0  0  0  0  0  0  0  0  0
    0.7115   -0.2744   -0.9290 H   0  0  0  0  0  0  0  0  0  0  0  0
    2.0850    0.1841    0.0796 H   0  0  0  0  0  0  0  0  0  0  0  0
    0.6366    0.6098    2.7370 H   0  0  0  0  0  0  0  0  0  0  0  0
    0.6374   -1.0497    3.3473 H   0  0  0  0  0  0  0  0  0  0  0  0
    2.0914   -0.3889    2.5892 H   0  0  0  0  0  0  0  0  0  0  0  0
   -1.4789   -1.4510    1.9793 H   0  0  0  0  0  0  0  0  0  0  0  0
   -1.4148    0.1696    1.3354 H   0  0  0  0  0  0  0  0  0  0  0  0
   -1.2991   -0.7775   -0.7858 H   0  0  0  0  0  0  0  0  0  0  0  0
   -0.6731   -3.3562    1.7685 H   0  0  0  0  0  0  0  0  0  0  0  0
    3.4067   -5.6792   -0.5302 H   0  0  0  0  0  0  0  0  0  0  0  0
    5.3774   -0.9330   -1.1080 H   0  0  0  0  0  0  0  0  0  0  0  0
    6.0693   -2.5195   -1.4758 H   0  0  0  0  0  0  0  0  0  0  0  0
    3.0581   -6.4885    2.1013 H   0  0  0  0  0  0  0  0  0  0  0  0
    3.5724   -9.3651   -1.0974 H   0  0  0  0  0  0  0  0  0  0  0  0
   -0.0858   -7.7685   -0.5869 H   0  0  0  0  0  0  0  0  0  0  0  0
    5.1870   -7.6603    1.9493 H   0  0  0  0  0  0  0  0  0  0  0  0
    5.1161  -10.2503   -0.7768 H   0  0  0  0  0  0  0  0  0  0  0  0
    6.0663  -11.2740    0.1684 H   0  0  0  0  0  0  0  0  0  0  0  0
    2.9372   -9.6712    1.8020 H   0  0  0  0  0  0  0  0  0  0  0  0
    0.8650  -10.7072    2.0273 H   0  0  0  0  0  0  0  0  0  0  0  0
    2.8736  -14.3685    1.0631 H   0  0  0  0  0  0  0  0  0  0  0  0
  1  2  1  0  0  0  0
  1 35  1  0  0  0  0
  1 36  1  0  0  0  0
  1 37  1  0  0  0  0
  2  3  1  0  0  0  0
  2  4  1  0  0  0  0
  2  6  1  0  0  0  0
  3 38  1  0  0  0  0
  3 39  1  0  0  0  0
  3 40  1  0  0  0  0
  4  5  1  0  0  0  0
  4 41  1  0  0  0  0
  4 42  1  0  0  0  0
  5 43  1  0  0  0  0
  6  7  1  0  0  0  0
  6 10  1  0  0  0  0
  7  8  2  0  0  0  0
  7 44  1  0  0  0  0
  8  9  1  0  0  0  0
  8 16  1  0  0  0  0
  9 10  1  0  0  0  0
  9 14  2  0  0  0  0
 10 11  2  0  0  0  0
 11 12  1  0  0  0  0
 12 13  2  0  0  0  0
 12 15  1  0  0  0  0
 13 14  1  0  0  0  0
 14 45  1  0  0  0  0
 15 46  1  0  0  0  0
 15 47  1  0  0  0  0
 16 17  2  0  0  0  0
 16 18  1  0  0  0  0
 18 19  2  0  0  0  0
 18 23  1  0  0  0  0
 19 20  1  0  0  0  0
 19 48  1  0  0  0  0
 20 21  2  0  0  0  0
 20 24  1  0  0  0  0
 21 22  1  0  0  0  0
 21 49  1  0  0  0  0
 22 23  2  0  0  0  0
 23 50  1  0  0  0  0
 24 25  1  0  0  0  0
 24 51  1  0  0  0  0
 25 26  2  0  0  0  0
 25 27  1  0  0  0  0
 27 28  1  0  0  0  0
 27 52  1  0  0  0  0
 27 53  1  0  0  0  0
 28 29  2  0  0  0  0
 28 33  1  0  0  0  0
 29 30  1  0  0  0  0
 29 54  1  0  0  0  0
 30 31  2  0  0  0  0
 30 55  1  0  0  0  0
 31 32  1  0  0  0  0
 31 34  1  0  0  0  0
 32 33  2  0  0  0  0
 32 56  1  0  0  0  0
M  END
>  <DRUGBANK_ID>
DB12269

>  <COMMON_NAME>
PF-06273340

>  <CAS_NUMBER>
1402438-74-7

>  <UNII>
I136775ABW

$$$$
