
 OpenBabel10282417213D

 73 76  0  0  0  0  0  0  0  0999 V2000
    1.1147    0.1047    0.0584 C   0  0  0  0  0  0  0  0  0  0  0  0
    0.6704   -0.0372   -1.3876 C   0  0  0  0  0  0  0  0  0  0  0  0
    1.1752   -1.3553   -1.9716 C   0  0  0  0  0  0  0  0  0  0  0  0
    0.6147   -2.5472   -1.1964 C   0  0  0  0  0  0  0  0  0  0  0  0
   -0.9156   -2.5684   -1.2985 C   0  0  0  0  0  0  0  0  0  0  0  0
   -1.4213   -2.6163   -2.7616 C   0  0  0  0  0  0  0  0  0  0  0  0
   -0.9156   -3.7066   -3.7116 C   0  0  0  0  0  0  0  0  0  0  0  0
   -1.7081   -4.3358   -4.4566 O   0  0  0  0  0  0  0  0  0  0  0  0
    0.4300   -3.9116   -3.6390 O   0  0  0  0  0  0  0  0  0  0  0  0
    1.0393   -5.1565   -4.0980 C   0  0  0  0  0  0  0  0  0  0  0  0
    0.8777   -6.3038   -3.1096 C   0  0  0  0  0  0  0  0  0  0  0  0
   -0.5080   -6.2903   -2.8310 N   0  0  0  0  0  0  0  0  0  0  0  0
   -1.0731   -5.6497   -1.6742 C   0  0  0  0  0  0  0  0  0  0  0  0
   -1.0164   -6.4445   -0.3915 C   0  0  0  0  0  0  0  0  0  0  0  0
   -1.5340   -7.8047   -0.4790 N   0  0  0  0  0  0  0  0  0  0  0  0
   -0.8889   -8.4527   -1.6210 C   0  0  0  0  0  0  0  0  0  0  0  0
   -1.0043   -7.5856   -2.9053 C   0  0  0  0  0  0  0  0  0  0  0  0
   -2.9968   -7.9027   -0.5847 C   0  0  0  0  0  0  0  0  0  0  0  0
   -3.7379   -7.4591   -1.8625 C   0  0  0  0  0  0  0  0  0  0  0  0
   -3.5747   -8.3001   -3.2500 C   0  0  0  0  0  0  0  0  0  0  0  0
   -3.8161   -9.7098   -3.1246 N   0  0  0  0  0  0  0  0  0  0  0  0
   -2.8097  -10.7127   -3.3144 C   0  0  0  0  0  0  0  0  0  0  0  0
   -1.4365  -10.5165   -3.6476 C   0  0  0  0  0  0  0  0  0  0  0  0
   -0.4055  -11.4643   -3.7060 C   0  0  0  0  0  0  0  0  0  0  0  0
   -0.7518  -12.7682   -3.5504 C   0  0  0  0  0  0  0  0  0  0  0  0
   -2.0950  -13.0538   -3.2943 C   0  0  0  0  0  0  0  0  0  0  0  0
   -3.1055  -12.0581   -3.1516 C   0  0  0  0  0  0  0  0  0  0  0  0
   -4.7386  -12.6296   -2.7373 S   0  0  0  0  0  0  0  0  0  0  0  0
   -5.6991  -11.1399   -2.6372 C   0  0  0  0  0  0  0  0  0  0  0  0
   -5.1970   -9.8777   -2.8732 C   0  0  0  0  0  0  0  0  0  0  0  0
   -6.0999   -8.7623   -2.8375 C   0  0  0  0  0  0  0  0  0  0  0  0
   -7.3939   -8.8653   -2.4035 C   0  0  0  0  0  0  0  0  0  0  0  0
   -7.8839  -10.1262   -2.1842 C   0  0  0  0  0  0  0  0  0  0  0  0
   -7.0523  -11.2475   -2.3335 C   0  0  0  0  0  0  0  0  0  0  0  0
   -8.3255   -7.4425   -2.1623 Cl  0  0  0  0  0  0  0  0  0  0  0  0
    0.7162   -0.6932    0.6936 H   0  0  0  0  0  0  0  0  0  0  0  0
    0.7620    1.0454    0.4809 H   0  0  0  0  0  0  0  0  0  0  0  0
    2.2063    0.0648    0.1146 H   0  0  0  0  0  0  0  0  0  0  0  0
   -0.4226    0.0307   -1.4451 H   0  0  0  0  0  0  0  0  0  0  0  0
    1.0466    0.7951   -1.9876 H   0  0  0  0  0  0  0  0  0  0  0  0
    0.8933   -1.4113   -3.0298 H   0  0  0  0  0  0  0  0  0  0  0  0
    2.2683   -1.3902   -1.9624 H   0  0  0  0  0  0  0  0  0  0  0  0
    1.0697   -3.4715   -1.5599 H   0  0  0  0  0  0  0  0  0  0  0  0
    0.9249   -2.5359   -0.1472 H   0  0  0  0  0  0  0  0  0  0  0  0
   -1.3310   -3.3631   -0.6683 H   0  0  0  0  0  0  0  0  0  0  0  0
   -1.3411   -1.6879   -0.8043 H   0  0  0  0  0  0  0  0  0  0  0  0
   -2.5143   -2.7020   -2.7041 H   0  0  0  0  0  0  0  0  0  0  0  0
   -1.2182   -1.6667   -3.2614 H   0  0  0  0  0  0  0  0  0  0  0  0
    0.6354   -5.4230   -5.0838 H   0  0  0  0  0  0  0  0  0  0  0  0
    2.1163   -5.0135   -4.1842 H   0  0  0  0  0  0  0  0  0  0  0  0
    1.1806   -7.2359   -3.6240 H   0  0  0  0  0  0  0  0  0  0  0  0
    1.4248   -6.2759   -2.1705 H   0  0  0  0  0  0  0  0  0  0  0  0
   -0.5028   -4.7742   -1.5251 H   0  0  0  0  0  0  0  0  0  0  0  0
   -2.0992   -5.3231   -1.8959 H   0  0  0  0  0  0  0  0  0  0  0  0
    0.0502   -6.5124   -0.1555 H   0  0  0  0  0  0  0  0  0  0  0  0
   -1.4933   -5.8747    0.4064 H   0  0  0  0  0  0  0  0  0  0  0  0
    0.1686   -8.6486   -1.4190 H   0  0  0  0  0  0  0  0  0  0  0  0
   -1.3489   -9.4366   -1.6371 H   0  0  0  0  0  0  0  0  0  0  0  0
   -1.9677   -7.1680   -3.0331 H   0  0  0  0  0  0  0  0  0  0  0  0
   -0.7513   -7.9591   -3.8984 H   0  0  0  0  0  0  0  0  0  0  0  0
   -3.2977   -8.9393   -0.3825 H   0  0  0  0  0  0  0  0  0  0  0  0
   -3.4172   -7.3414    0.2644 H   0  0  0  0  0  0  0  0  0  0  0  0
   -4.7718   -7.4046   -1.5033 H   0  0  0  0  0  0  0  0  0  0  0  0
   -3.6052   -6.3962   -2.0806 H   0  0  0  0  0  0  0  0  0  0  0  0
   -4.1252   -7.7549   -4.0360 H   0  0  0  0  0  0  0  0  0  0  0  0
   -2.6886   -8.3482   -3.8462 H   0  0  0  0  0  0  0  0  0  0  0  0
   -0.9851   -9.5813   -3.8207 H   0  0  0  0  0  0  0  0  0  0  0  0
    0.6285  -11.1457   -3.8592 H   0  0  0  0  0  0  0  0  0  0  0  0
    0.0064  -13.5391   -3.6240 H   0  0  0  0  0  0  0  0  0  0  0  0
   -2.3688  -14.0951   -3.1828 H   0  0  0  0  0  0  0  0  0  0  0  0
   -5.8148   -7.7442   -3.1035 H   0  0  0  0  0  0  0  0  0  0  0  0
   -8.9241  -10.2531   -1.9282 H   0  0  0  0  0  0  0  0  0  0  0  0
   -7.4676  -12.2381   -2.2117 H   0  0  0  0  0  0  0  0  0  0  0  0
  1  2  1  0  0  0  0
  1 36  1  0  0  0  0
  1 37  1  0  0  0  0
  1 38  1  0  0  0  0
  2  3  1  0  0  0  0
  2 39  1  0  0  0  0
  2 40  1  0  0  0  0
  3  4  1  0  0  0  0
  3 41  1  0  0  0  0
  3 42  1  0  0  0  0
  4  5  1  0  0  0  0
  4 43  1  0  0  0  0
  4 44  1  0  0  0  0
  5  6  1  0  0  0  0
  5 45  1  0  0  0  0
  5 46  1  0  0  0  0
  6  7  1  0  0  0  0
  6 47  1  0  0  0  0
  6 48  1  0  0  0  0
  7  8  2  0  0  0  0
  7  9  1  0  0  0  0
  9 10  1  0  0  0  0
 10 11  1  0  0  0  0
 10 49  1  0  0  0  0
 10 50  1  0  0  0  0
 11 12  1  0  0  0  0
 11 51  1  0  0  0  0
 11 52  1  0  0  0  0
 12 13  1  0  0  0  0
 12 17  1  0  0  0  0
 13 14  1  0  0  0  0
 13 53  1  0  0  0  0
 13 54  1  0  0  0  0
 14 15  1  0  0  0  0
 14 55  1  0  0  0  0
 14 56  1  0  0  0  0
 15 16  1  0  0  0  0
 15 18  1  0  0  0  0
 16 17  1  0  0  0  0
 16 57  1  0  0  0  0
 16 58  1  0  0  0  0
 17 59  1  0  0  0  0
 17 60  1  0  0  0  0
 18 19  1  0  0  0  0
 18 61  1  0  0  0  0
 18 62  1  0  0  0  0
 19 20  1  0  0  0  0
 19 63  1  0  0  0  0
 19 64  1  0  0  0  0
 20 21  1  0  0  0  0
 20 65  1  0  0  0  0
 20 66  1  0  0  0  0
 21 22  1  0  0  0  0
 21 30  1  0  0  0  0
 22 23  2  0  0  0  0
 22 27  1  0  0  0  0
 23 24  1  0  0  0  0
 23 67  1  0  0  0  0
 24 25  2  0  0  0  0
 24 68  1  0  0  0  0
 25 26  1  0  0  0  0
 25 69  1  0  0  0  0
 26 27  2  0  0  0  0
 26 70  1  0  0  0  0
 27 28  1  0  0  0  0
 28 29  1  0  0  0  0
 29 30  2  0  0  0  0
 29 34  1  0  0  0  0
 30 31  1  0  0  0  0
 31 32  2  0  0  0  0
 31 71  1  0  0  0  0
 32 33  1  0  0  0  0
 32 35  1  0  0  0  0
 33 34  2  0  0  0  0
 33 72  1  0  0  0  0
 34 73  1  0  0  0  0
M  END
>  <DRUGBANK_ID>
DB14651

>  <SECONDARY_ACCESSION_NUMBERS>
DBSALT000936

>  <COMMON_NAME>
Perphenazine enanthate

>  <CAS_NUMBER>
17528-28-8

>  <UNII>
Z6RS3DKN8J

>  <SYNONYMS>
Perphenazine enantate

$$$$
