UI3
 OpenBabel10282417133D

 40 42  0  0  0  0  0  0  0  0999 V2000
    2.4422   -0.6985   -0.0414 C   0  0  0  0  0  0  0  0  0  0  0  0
    1.2226   -1.3787   -0.0032 C   0  0  0  0  0  0  0  0  0  0  0  0
    0.0074   -0.6830    0.0011 C   0  0  0  0  0  0  0  0  0  0  0  0
    0.0126    0.7305   -0.0114 C   0  0  0  0  0  0  0  0  0  0  0  0
    1.2671    1.4213   -0.0155 C   0  0  0  0  0  0  0  0  0  0  0  0
    2.4797    0.6981   -0.0488 C   0  0  0  0  0  0  0  0  0  0  0  0
   -1.2126   -1.3789    0.0113 C   0  0  0  0  0  0  0  0  0  0  0  0
   -2.4336   -0.6979   -0.0022 C   0  0  0  0  0  0  0  0  0  0  0  0
   -2.4663    0.6965   -0.0171 C   0  0  0  0  0  0  0  0  0  0  0  0
   -1.2474    1.3851   -0.0289 C   0  0  0  0  0  0  0  0  0  0  0  0
   -3.7734    1.4358   -0.0253 C   0  0  0  0  0  0  0  0  0  0  0  0
   -3.8820    2.7284   -0.0229 N   0  0  0  0  0  0  0  0  0  0  0  0
   -4.9581    0.7761   -0.0353 N   0  0  0  0  0  0  0  0  0  0  0  0
    3.6399    1.4327   -0.0641 O   0  0  0  0  0  0  0  0  0  0  0  0
    4.8683    0.7193   -0.1232 C   0  0  0  0  0  0  0  0  0  0  0  0
    1.2867    2.8783    0.1088 C   0  0  0  0  0  0  0  0  0  0  0  0
    1.8060    3.7809   -0.8001 C   0  0  0  0  0  0  0  0  0  0  0  0
    1.5600    5.0324   -0.2775 N   0  0  0  0  0  0  0  0  0  0  0  0
    0.8881    4.9835    0.9065 N   0  0  0  0  0  0  0  0  0  0  0  0
    0.7548    3.6803    1.1426 C   0  0  0  0  0  0  0  0  0  0  0  0
    2.0234    6.5131   -1.0576 S   0  0  0  0  0  0  0  0  0  0  0  0
    0.7721    7.1648   -1.3967 O   0  0  0  0  0  0  0  0  0  0  0  0
    2.9848    7.1238   -0.1539 O   0  0  0  0  0  0  0  0  0  0  0  0
    2.8668    6.1640   -2.5712 C   0  0  0  0  0  0  0  0  0  0  0  0
    3.3478   -1.2968   -0.0523 H   0  0  0  0  0  0  0  0  0  0  0  0
    1.2359   -2.4678    0.0161 H   0  0  0  0  0  0  0  0  0  0  0  0
   -1.2300   -2.4678    0.0234 H   0  0  0  0  0  0  0  0  0  0  0  0
   -3.3431   -1.2874   -0.0085 H   0  0  0  0  0  0  0  0  0  0  0  0
   -1.2594    2.4668   -0.0716 H   0  0  0  0  0  0  0  0  0  0  0  0
   -2.9901    3.2201   -0.0117 H   0  0  0  0  0  0  0  0  0  0  0  0
   -5.0691   -0.2224   -0.0075 H   0  0  0  0  0  0  0  0  0  0  0  0
   -5.7922    1.3499   -0.0154 H   0  0  0  0  0  0  0  0  0  0  0  0
    5.0081    0.1027    0.7706 H   0  0  0  0  0  0  0  0  0  0  0  0
    4.9296    0.1172   -1.0359 H   0  0  0  0  0  0  0  0  0  0  0  0
    5.6803    1.4516   -0.1536 H   0  0  0  0  0  0  0  0  0  0  0  0
    2.3182    3.6278   -1.7379 H   0  0  0  0  0  0  0  0  0  0  0  0
    0.2465    3.3556    2.0430 H   0  0  0  0  0  0  0  0  0  0  0  0
    3.7665    5.5858   -2.3577 H   0  0  0  0  0  0  0  0  0  0  0  0
    2.1953    5.6255   -3.2414 H   0  0  0  0  0  0  0  0  0  0  0  0
    3.1471    7.1174   -3.0282 H   0  0  0  0  0  0  0  0  0  0  0  0
  1  2  1  0  0  0  0
  1  6  2  0  0  0  0
  1 25  1  0  0  0  0
  2  3  2  0  0  0  0
  2 26  1  0  0  0  0
  3  4  1  0  0  0  0
  3  7  1  0  0  0  0
  4  5  2  0  0  0  0
  4 10  1  0  0  0  0
  5  6  1  0  0  0  0
  5 16  1  0  0  0  0
  6 14  1  0  0  0  0
  7  8  2  0  0  0  0
  7 27  1  0  0  0  0
  8  9  1  0  0  0  0
  8 28  1  0  0  0  0
  9 10  2  0  0  0  0
  9 11  1  0  0  0  0
 10 29  1  0  0  0  0
 11 12  2  0  0  0  0
 11 13  1  0  0  0  0
 12 30  1  0  0  0  0
 13 31  1  0  0  0  0
 13 32  1  0  0  0  0
 14 15  1  0  0  0  0
 15 33  1  0  0  0  0
 15 34  1  0  0  0  0
 15 35  1  0  0  0  0
 16 17  2  0  0  0  0
 16 20  1  0  0  0  0
 17 18  1  0  0  0  0
 17 36  1  0  0  0  0
 18 19  1  0  0  0  0
 18 21  1  0  0  0  0
 19 20  2  0  0  0  0
 20 37  1  0  0  0  0
 21 22  2  0  0  0  0
 21 23  2  0  0  0  0
 21 24  1  0  0  0  0
 24 38  1  0  0  0  0
 24 39  1  0  0  0  0
 24 40  1  0  0  0  0
M  END
>  <DRUGBANK_ID>
DB03046

>  <SECONDARY_ACCESSION_NUMBERS>
EXPT03180

>  <COMMON_NAME>
7-Methoxy-8-[1-(Methylsulfonyl)-1h-Pyrazol-4-Yl]Naphthalene-2-Carboximidamide

$$$$
