1332
 OpenBabel10282417113D

 38 40  0  0  1  0  0  0  0  0999 V2000
    1.5499    0.9677    0.6006 S   0  0  0  0  0  0  0  0  0  0  0  0
   -5.0427    6.5503   -3.3114 S   0  0  0  0  0  0  0  0  0  0  0  0
   -2.7113   -0.4203    0.6695 O   0  0  0  0  0  0  0  0  0  0  0  0
   -2.0755   -2.9121   -0.3298 O   0  0  0  0  0  0  0  0  0  0  0  0
   -2.2001    4.8475    0.4856 O   0  0  0  0  0  0  0  0  0  0  0  0
   -0.2162   -4.0454    0.1959 O   0  0  0  0  0  0  0  0  0  0  0  0
   -2.1872    1.6139   -2.3482 O   0  0  0  0  0  0  0  0  0  0  0  0
   -0.5741   -0.4620   -0.2260 N   0  0  0  0  0  0  0  0  0  0  0  0
   -1.3443    2.7893    0.5360 N   0  0  0  0  0  0  0  0  0  0  0  0
   -2.8493    2.7755   -2.6188 N   0  0  0  0  0  0  0  0  0  0  0  0
   -2.8572    6.2437   -1.9972 N   0  0  0  0  0  0  0  0  0  0  0  0
   -3.3112    8.4512   -2.6333 N   0  0  0  0  0  0  0  0  0  0  0  0
    0.1407    0.7979   -0.4780 C   0  0  1  0  0  0  0  0  0  0  0  0
   -1.1146    1.4680    0.0284 C   0  0  1  0  0  0  0  0  0  0  0  0
   -1.6909    0.0952    0.3166 C   0  0  0  0  0  0  0  0  0  0  0  0
    0.0085   -1.6777   -0.0920 C   0  0  0  0  0  0  0  0  0  0  0  0
    2.2958   -0.5706    0.0210 C   0  0  0  0  0  0  0  0  0  0  0  0
    1.3505   -1.7374    0.0135 C   0  0  0  0  0  0  0  0  0  0  0  0
   -2.0594    3.8088   -0.1666 C   0  0  0  0  0  0  0  0  0  0  0  0
   -0.7624   -2.9717   -0.0236 C   0  0  0  0  0  0  0  0  0  0  0  0
   -2.7427    3.7253   -1.6817 C   0  0  0  0  0  0  0  0  0  0  0  0
   -3.4203    4.9718   -2.1320 C   0  0  0  0  0  0  0  0  0  0  0  0
   -4.6277    4.9701   -2.8120 C   0  0  0  0  0  0  0  0  0  0  0  0
   -3.6112    7.1483   -2.5771 C   0  0  0  0  0  0  0  0  0  0  0  0
   -2.1668    0.4487   -3.1147 C   0  0  0  0  0  0  0  0  0  0  0  0
    0.3491    0.9427   -1.5541 H   0  0  0  0  0  0  0  0  0  0  0  0
   -2.4970   -2.0287   -0.3141 H   0  0  0  0  0  0  0  0  0  0  0  0
   -1.0164    3.0500    1.4603 H   0  0  0  0  0  0  0  0  0  0  0  0
   -3.9186    9.1247   -3.0811 H   0  0  0  0  0  0  0  0  0  0  0  0
   -2.4895    8.8024   -2.1599 H   0  0  0  0  0  0  0  0  0  0  0  0
   -1.6262    1.7324   -0.8043 H   0  0  0  0  0  0  0  0  0  0  0  0
    2.7042   -0.4295   -0.9847 H   0  0  0  0  0  0  0  0  0  0  0  0
    3.1142   -0.7622    0.7140 H   0  0  0  0  0  0  0  0  0  0  0  0
    1.8263   -2.7051    0.1602 H   0  0  0  0  0  0  0  0  0  0  0  0
   -5.2531    4.1227   -3.0517 H   0  0  0  0  0  0  0  0  0  0  0  0
   -3.1399   -0.0198   -3.2261 H   0  0  0  0  0  0  0  0  0  0  0  0
   -1.5447    0.5728   -3.9953 H   0  0  0  0  0  0  0  0  0  0  0  0
   -1.6009   -0.2713   -2.5009 H   0  0  0  0  0  0  0  0  0  0  0  0
  1 13  1  0  0  0  0
  1 17  1  0  0  0  0
  2 23  1  0  0  0  0
  2 24  1  0  0  0  0
  3 15  2  0  0  0  0
  4 20  1  0  0  0  0
  4 27  1  0  0  0  0
  5 19  2  0  0  0  0
  6 20  2  0  0  0  0
  7 10  1  0  0  0  0
  7 25  1  0  0  0  0
  8 13  1  0  0  0  0
  8 15  1  0  0  0  0
  8 16  1  0  0  0  0
  9 19  1  0  0  0  0
  9 28  1  0  0  0  0
 10 21  2  0  0  0  0
 11 22  1  0  0  0  0
 11 24  2  0  0  0  0
 12 24  1  0  0  0  0
 12 29  1  0  0  0  0
 12 30  1  0  0  0  0
 13 14  1  0  0  0  0
 13 26  1  6  0  0  0
 14  9  1  0  0  0  0
 14 15  1  0  0  0  0
 14 31  1  6  0  0  0
 16 18  2  0  0  0  0
 16 20  1  0  0  0  0
 17 18  1  0  0  0  0
 17 32  1  0  0  0  0
 17 33  1  0  0  0  0
 18 34  1  0  0  0  0
 19 21  1  0  0  0  0
 21 22  1  0  0  0  0
 22 23  2  0  0  0  0
 23 35  1  0  0  0  0
 25 36  1  0  0  0  0
 25 37  1  0  0  0  0
 25 38  1  0  0  0  0
M  END
>  <DRUGBANK_ID>
DB01332

>  <COMMON_NAME>
Ceftizoxime

>  <CAS_NUMBER>
68401-81-0

>  <UNII>
C43C467DPE

>  <SYNONYMS>
7-[2-(2-Amino-thiazol-4-yl)-2-methoxyimino-acetylamino]-8-oxo-5-thia-1-aza-bicyclo[4.2.0]oct-2-ene-2-carboxylic acid; Ceftizoxima; Ceftizoxime; Ceftizoximum; syn-7-(2-(2-Amino-4-thiazolyl)-2-methoxyiminoacetamido)-3-cephem-4-carboxylic acid

$$$$
