
 OpenBabel10282417143D

 37 38  0  0  0  0  0  0  0  0999 V2000
    0.9251    0.2610   -0.1091 N   0  0  0  0  0  0  0  0  0  0  0  0
    0.0697    0.8317    0.8179 C   0  0  0  0  0  0  0  0  0  0  0  0
    0.5410    0.5926   -2.4820 C   0  0  0  0  0  0  0  0  0  0  0  0
    1.0840    0.0255   -3.9954 S   0  0  0  0  0  0  0  0  0  0  0  0
    0.3069   -0.3134   -1.3048 C   0  0  0  0  0  0  0  0  0  0  0  0
   -1.0226    0.1060    1.1707 N   0  0  0  0  0  0  0  0  0  0  0  0
    1.0782    1.6122   -4.6473 C   0  0  0  0  0  0  0  0  0  0  0  0
    0.4056    1.9668   -2.4685 C   0  0  0  0  0  0  0  0  0  0  0  0
    2.3930    0.0979    0.0001 C   0  0  0  0  0  0  0  0  0  0  0  0
    0.7060    2.5565   -3.7177 C   0  0  0  0  0  0  0  0  0  0  0  0
    2.8292   -0.6007    2.4911 N   0  0  0  0  0  0  0  0  0  0  0  0
    3.0806    0.3403    1.3684 C   0  0  0  0  0  0  0  0  0  0  0  0
    0.4155    1.9662    1.5403 C   0  0  0  0  0  0  0  0  0  0  0  0
   -1.6388    0.3941    2.3461 C   0  0  0  0  0  0  0  0  0  0  0  0
    3.2423    0.0324    3.7487 C   0  0  0  0  0  0  0  0  0  0  0  0
    1.4296   -0.9713    2.6498 C   0  0  0  0  0  0  0  0  0  0  0  0
   -0.2324    2.2548    2.7484 C   0  0  0  0  0  0  0  0  0  0  0  0
   -1.2665    1.4305    3.1751 C   0  0  0  0  0  0  0  0  0  0  0  0
    0.7018   -1.3239   -1.4825 H   0  0  0  0  0  0  0  0  0  0  0  0
   -0.7788   -0.4402   -1.2005 H   0  0  0  0  0  0  0  0  0  0  0  0
    1.3510    1.7796   -5.6790 H   0  0  0  0  0  0  0  0  0  0  0  0
    0.1068    2.5086   -1.5794 H   0  0  0  0  0  0  0  0  0  0  0  0
    2.6616   -0.9207   -0.3159 H   0  0  0  0  0  0  0  0  0  0  0  0
    2.8645    0.7630   -0.7373 H   0  0  0  0  0  0  0  0  0  0  0  0
    0.6453    3.6182   -3.9147 H   0  0  0  0  0  0  0  0  0  0  0  0
    4.1636    0.2953    1.1792 H   0  0  0  0  0  0  0  0  0  0  0  0
    2.9164    1.3799    1.6661 H   0  0  0  0  0  0  0  0  0  0  0  0
    1.2661    2.5708    1.2430 H   0  0  0  0  0  0  0  0  0  0  0  0
   -2.4009   -0.3210    2.6496 H   0  0  0  0  0  0  0  0  0  0  0  0
    2.7905    1.0259    3.8773 H   0  0  0  0  0  0  0  0  0  0  0  0
    2.9283   -0.5781    4.6029 H   0  0  0  0  0  0  0  0  0  0  0  0
    4.3283    0.1281    3.7898 H   0  0  0  0  0  0  0  0  0  0  0  0
    0.8798   -0.0953    2.9694 H   0  0  0  0  0  0  0  0  0  0  0  0
    1.0117   -1.4256    1.7494 H   0  0  0  0  0  0  0  0  0  0  0  0
    1.2527   -1.6948    3.4482 H   0  0  0  0  0  0  0  0  0  0  0  0
    0.1415    3.0446    3.3895 H   0  0  0  0  0  0  0  0  0  0  0  0
   -1.7244    1.5610    4.1502 H   0  0  0  0  0  0  0  0  0  0  0  0
  2  1  1  0  0  0  0
  3  5  1  0  0  0  0
  4  3  1  0  0  0  0
  5  1  1  0  0  0  0
  5 19  1  0  0  0  0
  5 20  1  0  0  0  0
  6  2  2  0  0  0  0
  7  4  1  0  0  0  0
  7 21  1  0  0  0  0
  8  3  2  0  0  0  0
  8 22  1  0  0  0  0
  9  1  1  0  0  0  0
  9 23  1  0  0  0  0
  9 24  1  0  0  0  0
 10  8  1  0  0  0  0
 10  7  2  0  0  0  0
 10 25  1  0  0  0  0
 11 12  1  0  0  0  0
 12  9  1  0  0  0  0
 12 26  1  0  0  0  0
 12 27  1  0  0  0  0
 13  2  1  0  0  0  0
 13 28  1  0  0  0  0
 14  6  1  0  0  0  0
 14 29  1  0  0  0  0
 15 11  1  0  0  0  0
 15 30  1  0  0  0  0
 15 31  1  0  0  0  0
 15 32  1  0  0  0  0
 16 11  1  0  0  0  0
 16 33  1  0  0  0  0
 16 34  1  0  0  0  0
 16 35  1  0  0  0  0
 17 13  2  0  0  0  0
 17 18  1  0  0  0  0
 17 36  1  0  0  0  0
 18 14  2  0  0  0  0
 18 37  1  0  0  0  0
M  END
>  <DRUGBANK_ID>
DB04819

>  <COMMON_NAME>
Methapyrilene

>  <CAS_NUMBER>
91-80-5

>  <UNII>
A01LX40298

>  <SYNONYMS>
2-[[2-(Dimethylamino)ethyl]-2-thenylamino]pyridine; Methapyrilene; Methypyrilene; N-(α-pyridyl)-N-(α-thenyl)-N',N'-dimethylethylenediamine; N,N-dimethyl-N'-pyrid-2-yl-N'-2-thenylethylenediamine; N,N-dimethyl-N'-pyridin-2-yl-N'-(2-thienylmethyl)ethane-1,2-diamine; Thenylpyramine

$$$$
