
 OpenBabel10282417143D

 18 18  0  0  0  0  0  0  0  0999 V2000
    1.2909   -0.1511   -0.0041 C   0  0  0  0  0  0  0  0  0  0  0  0
    0.4801   -1.2800   -0.0042 C   0  0  0  0  0  0  0  0  0  0  0  0
   -0.9036   -1.1325   -0.1166 C   0  0  0  0  0  0  0  0  0  0  0  0
   -1.5143    0.1327   -0.2189 C   0  0  0  0  0  0  0  0  0  0  0  0
   -0.7037    1.2563   -0.0244 C   0  0  0  0  0  0  0  0  0  0  0  0
    0.6998    1.1173   -0.0119 C   0  0  0  0  0  0  0  0  0  0  0  0
   -2.9831    0.2181   -0.5941 C   0  0  0  0  0  0  0  0  0  0  0  0
   -2.6810    1.5332    2.1609 O   0  5  0  0  0  0  0  0  0  0  0  0
   -3.4123    1.2968   -1.1123 O   0  0  0  0  0  0  0  0  0  0  0  0
   -2.2847    4.0644    1.9538 O   0  0  0  0  0  0  0  0  0  0  0  0
   -3.6690   -0.8659   -0.5166 O   0  5  0  0  0  0  0  0  0  0  0  0
   -1.1935    2.5105    0.2589 O   0  0  0  0  0  0  0  0  0  0  0  0
   -2.5122    2.7338    1.2376 P   0  0  3  0  0  0  0  0  0  0  0  0
    2.3692   -0.2600    0.0506 H   0  0  0  0  0  0  0  0  0  0  0  0
    0.9070   -2.2745    0.0619 H   0  0  0  0  0  0  0  0  0  0  0  0
   -1.5461   -2.0104   -0.1215 H   0  0  0  0  0  0  0  0  0  0  0  0
    1.3306    2.0009    0.0297 H   0  0  0  0  0  0  0  0  0  0  0  0
   -3.5280    2.8592    0.2598 H   0  0  0  0  0  0  0  0  0  0  0  0
  1  2  2  0  0  0  0
  1  6  1  0  0  0  0
  1 14  1  0  0  0  0
  2  3  1  0  0  0  0
  2 15  1  0  0  0  0
  3  4  2  0  0  0  0
  3 16  1  0  0  0  0
  4  5  1  0  0  0  0
  4  7  1  0  0  0  0
  5  6  2  0  0  0  0
  5 12  1  0  0  0  0
  6 17  1  0  0  0  0
  7  9  2  0  0  0  0
  7 11  1  0  0  0  0
  8 13  1  0  0  0  0
 10 13  2  0  0  0  0
 12 13  1  0  0  0  0
 13 18  1  0  0  0  0
M  CHG  2   8  -1  11  -1
M  END
>  <DRUGBANK_ID>
DB04340

>  <SECONDARY_ACCESSION_NUMBERS>
EXPT00140

>  <COMMON_NAME>
2-[(Dioxidophosphoranyl)oxy]benzoate

$$$$
