
 OpenBabel10282417233D

 75 78  0  0  1  0  0  0  0  0999 V2000
    6.0319   -2.0981   -4.4205 C   0  0  0  0  0  0  0  0  0  0  0  0
    5.8578   -0.7914   -3.4037 C   0  0  0  0  0  0  0  0  0  0  0  0
    4.9924    0.1356   -4.2089 C   0  0  0  0  0  0  0  0  0  0  0  0
    5.4966   -0.6677   -1.8067 C   0  0  2  0  0  0  0  0  0  0  0  0
    6.1597   -0.1230   -0.6501 N   0  0  0  0  0  0  0  0  0  0  0  0
    4.6953   -1.7531   -1.3365 C   0  0  0  0  0  0  0  0  0  0  0  0
    3.6076   -1.2927   -1.8988 O   0  0  0  0  0  0  0  0  0  0  0  0
    5.0413   -3.5183   -0.9418 O   0  0  0  0  0  0  0  0  0  0  0  0
    5.4650   -5.3073   -1.0136 C   0  0  0  0  0  0  0  0  0  0  0  0
    4.9705   -5.8384    0.3468 C   0  0  0  0  0  0  0  0  0  0  0  0
    3.6070   -5.1577    0.6920 C   0  0  2  0  0  0  0  0  0  0  0  0
    2.8140   -5.2412   -1.0705 N   0  0  0  0  0  0  0  0  0  0  0  0
    1.6452   -4.5068   -1.9628 C   0  0  0  0  0  0  0  0  0  0  0  0
    1.7898   -3.9672   -3.0844 O   0  0  0  0  0  0  0  0  0  0  0  0
    0.3968   -4.3263   -1.2338 C   0  0  2  0  0  0  0  0  0  0  0  0
   -0.6209   -2.9180   -0.9879 S   0  0  0  0  0  0  0  0  0  0  0  0
   -1.4048   -3.8566    0.4182 C   0  0  0  0  0  0  0  0  0  0  0  0
   -0.4691   -4.9604    0.8669 C   0  0  0  0  0  0  0  0  0  0  0  0
    0.7091   -4.7310    0.0626 N   0  0  0  0  0  0  0  0  0  0  0  0
    1.6282   -3.7377    0.9761 S   0  0  0  0  0  0  0  0  0  0  0  0
    1.0334   -2.4929    1.3783 O   0  0  0  0  0  0  0  0  0  0  0  0
    1.7457   -4.8531    1.9399 O   0  0  0  0  0  0  0  0  0  0  0  0
    3.5470   -3.1916    0.0613 C   0  0  0  0  0  0  0  0  0  0  0  0
    3.3211   -3.2145   -1.5184 C   0  0  0  0  0  0  0  0  0  0  0  0
    4.7882   -3.3696   -2.6285 C   0  0  0  0  0  0  0  0  0  0  0  0
    6.4749   -3.2301   -1.8495 C   0  0  0  0  0  0  0  0  0  0  0  0
    6.7390   -3.2376   -0.0871 C   0  0  0  0  0  0  0  0  0  0  0  0
    5.3590   -3.3334    0.8208 C   0  0  0  0  0  0  0  0  0  0  0  0
    7.7797   -3.0941   -2.3592 C   0  0  0  0  0  0  0  0  0  0  0  0
    8.2781   -1.8117   -2.4027 C   0  0  0  0  0  0  0  0  0  0  0  0
    9.2758   -1.5420   -3.2542 C   0  0  0  0  0  0  0  0  0  0  0  0
   10.0166   -2.6447   -3.6065 C   0  0  0  0  0  0  0  0  0  0  0  0
    9.6737   -3.9587   -3.2115 C   0  0  0  0  0  0  0  0  0  0  0  0
    8.4498   -4.2176   -2.6911 C   0  0  0  0  0  0  0  0  0  0  0  0
    3.6754   -3.6660    2.1102 C   0  0  0  0  0  0  0  0  0  0  0  0
    3.1030   -3.5613    3.3507 C   0  0  0  0  0  0  0  0  0  0  0  0
    3.2113   -2.3377    4.0843 C   0  0  0  0  0  0  0  0  0  0  0  0
    3.9763   -1.1725    3.7741 C   0  0  0  0  0  0  0  0  0  0  0  0
    4.0630   -0.1665    4.6344 F   0  0  0  0  0  0  0  0  0  0  0  0
    4.5407   -0.9933    2.5884 C   0  0  0  0  0  0  0  0  0  0  0  0
    4.0521   -1.9739    1.8052 C   0  0  0  0  0  0  0  0  0  0  0  0
    5.1085   -2.4638   -4.9169 H   0  0  0  0  0  0  0  0  0  0  0  0
    6.4300   -3.0314   -4.0283 H   0  0  0  0  0  0  0  0  0  0  0  0
    6.7285   -1.9293   -5.2251 H   0  0  0  0  0  0  0  0  0  0  0  0
    6.7948   -0.2651   -3.4150 H   0  0  0  0  0  0  0  0  0  0  0  0
    4.0157   -0.3003   -4.4386 H   0  0  0  0  0  0  0  0  0  0  0  0
    4.8806    1.0761   -3.6723 H   0  0  0  0  0  0  0  0  0  0  0  0
    5.5634    0.2963   -5.1242 H   0  0  0  0  0  0  0  0  0  0  0  0
    4.7073    0.1614   -1.8087 H   0  0  0  0  0  0  0  0  0  0  0  0
    6.9294    0.4048   -1.0015 H   0  0  0  0  0  0  0  0  0  0  0  0
    6.4489   -0.9162   -0.0855 H   0  0  0  0  0  0  0  0  0  0  0  0
    5.0708   -5.7350   -1.9479 H   0  0  0  0  0  0  0  0  0  0  0  0
    6.5574   -5.4484   -1.0393 H   0  0  0  0  0  0  0  0  0  0  0  0
    4.8367   -6.9102    0.4947 H   0  0  0  0  0  0  0  0  0  0  0  0
    5.8105   -5.6502    1.0217 H   0  0  0  0  0  0  0  0  0  0  0  0
    2.9480   -5.9826    0.9264 H   0  0  0  0  0  0  0  0  0  0  0  0
    3.5198   -5.1371   -1.8154 H   0  0  0  0  0  0  0  0  0  0  0  0
   -0.1911   -5.0379   -1.7826 H   0  0  0  0  0  0  0  0  0  0  0  0
   -2.2249   -4.3729   -0.0459 H   0  0  0  0  0  0  0  0  0  0  0  0
   -1.6721   -3.2448    1.2811 H   0  0  0  0  0  0  0  0  0  0  0  0
   -0.7519   -6.0085    0.7899 H   0  0  0  0  0  0  0  0  0  0  0  0
   -0.2848   -4.8470    1.9524 H   0  0  0  0  0  0  0  0  0  0  0  0
    2.3957   -2.5778   -1.5297 H   0  0  0  0  0  0  0  0  0  0  0  0
    4.3965   -2.7869   -3.4563 H   0  0  0  0  0  0  0  0  0  0  0  0
    7.6079   -3.7522    0.3616 H   0  0  0  0  0  0  0  0  0  0  0  0
    5.5644   -3.9326    1.7376 H   0  0  0  0  0  0  0  0  0  0  0  0
    7.7529   -1.0054   -1.9496 H   0  0  0  0  0  0  0  0  0  0  0  0
    9.4388   -0.5090   -3.5341 H   0  0  0  0  0  0  0  0  0  0  0  0
   10.9189   -2.4731   -4.1582 H   0  0  0  0  0  0  0  0  0  0  0  0
   10.3489   -4.7857   -3.3171 H   0  0  0  0  0  0  0  0  0  0  0  0
    8.0212   -5.1995   -2.5136 H   0  0  0  0  0  0  0  0  0  0  0  0
    2.1682   -4.0434    3.6276 H   0  0  0  0  0  0  0  0  0  0  0  0
    2.5760   -2.3089    4.9502 H   0  0  0  0  0  0  0  0  0  0  0  0
    5.1880   -0.2027    2.2051 H   0  0  0  0  0  0  0  0  0  0  0  0
    4.2200   -1.4886    0.8013 H   0  0  0  0  0  0  0  0  0  0  0  0
  1  2  1  0  0  0  0
  1 42  1  0  0  0  0
  1 43  1  0  0  0  0
  1 44  1  0  0  0  0
  2  3  1  0  0  0  0
  2 45  1  0  0  0  0
  3 46  1  0  0  0  0
  3 47  1  0  0  0  0
  3 48  1  0  0  0  0
  4  6  1  0  0  0  0
  4 49  1  6  0  0  0
  4  5  1  0  0  0  0
  4  2  1  0  0  0  0
  5 50  1  0  0  0  0
  5 51  1  0  0  0  0
  6  7  2  0  0  0  0
  6  8  1  0  0  0  0
  8  9  1  0  0  0  0
  9 10  1  0  0  0  0
  9 52  1  0  0  0  0
  9 53  1  0  0  0  0
 10 54  1  0  0  0  0
 10 55  1  0  0  0  0
 11 35  1  0  0  0  0
 11 56  1  1  0  0  0
 11 12  1  0  0  0  0
 11 10  1  0  0  0  0
 12 13  1  0  0  0  0
 12 57  1  0  0  0  0
 13 14  2  0  0  0  0
 15 16  1  0  0  0  0
 15 19  1  0  0  0  0
 15 58  1  6  0  0  0
 15 13  1  0  0  0  0
 16 17  1  0  0  0  0
 17 18  1  0  0  0  0
 17 59  1  0  0  0  0
 17 60  1  0  0  0  0
 18 19  1  0  0  0  0
 18 61  1  0  0  0  0
 18 62  1  0  0  0  0
 19 20  1  0  0  0  0
 20 21  2  0  0  0  0
 20 22  2  0  0  0  0
 20 23  1  0  0  0  0
 23 24  2  0  0  0  0
 23 28  1  0  0  0  0
 24 25  1  0  0  0  0
 24 63  1  0  0  0  0
 25 26  2  0  0  0  0
 25 64  1  0  0  0  0
 26 27  1  0  0  0  0
 26 29  1  0  0  0  0
 27 28  2  0  0  0  0
 27 65  1  0  0  0  0
 28 66  1  0  0  0  0
 29 30  2  0  0  0  0
 29 34  1  0  0  0  0
 30 31  1  0  0  0  0
 30 67  1  0  0  0  0
 31 32  2  0  0  0  0
 31 68  1  0  0  0  0
 32 33  1  0  0  0  0
 32 69  1  0  0  0  0
 33 34  2  0  0  0  0
 33 70  1  0  0  0  0
 34 71  1  0  0  0  0
 35 36  2  0  0  0  0
 35 41  1  0  0  0  0
 36 37  1  0  0  0  0
 36 72  1  0  0  0  0
 37 38  2  0  0  0  0
 37 73  1  0  0  0  0
 38 39  1  0  0  0  0
 38 40  1  0  0  0  0
 40 41  2  0  0  0  0
 40 74  1  0  0  0  0
 41 75  1  0  0  0  0
M  END
>  <DRUGBANK_ID>
DB16147

>  <COMMON_NAME>
Ebopiprant

>  <CAS_NUMBER>
2005486-31-5

>  <UNII>
Z1AVZ44TEJ

>  <SYNONYMS>
Ebopiprant

$$$$
