161
 OpenBabel10282417133D

 52 53  0  0  0  0  0  0  0  0999 V2000
    1.0179   -1.3159   -2.8474 C   0  0  0  0  0  0  0  0  0  0  0  0
    0.4548   -2.4245   -2.0001 C   0  0  0  0  0  0  0  0  0  0  0  0
   -0.3455   -3.2417   -2.4616 O   0  0  0  0  0  0  0  0  0  0  0  0
    0.8935   -2.5038   -0.5277 C   0  0  2  0  0  0  0  0  0  0  0  0
    0.4494   -1.3205    0.3141 C   0  0  0  0  0  0  0  0  0  0  0  0
   -1.0296   -1.1162    0.0889 C   0  0  0  0  0  0  0  0  0  0  0  0
   -1.8164   -1.3494    1.1544 O   0  0  0  0  0  0  0  0  0  0  0  0
   -1.4942   -0.7892   -0.9928 O   0  0  0  0  0  0  0  0  0  0  0  0
    2.3342   -2.7762   -0.4350 N   0  0  0  0  0  0  0  0  0  0  0  0
    2.9633   -3.9239   -0.0004 C   0  0  0  0  0  0  0  0  0  0  0  0
    4.1883   -3.9863    0.0178 O   0  0  0  0  0  0  0  0  0  0  0  0
    2.1686   -5.0934    0.4349 C   0  0  0  0  0  0  0  0  0  0  0  0
    1.1025   -5.5295   -0.3569 C   0  0  0  0  0  0  0  0  0  0  0  0
    0.3309   -6.6080    0.0186 C   0  0  0  0  0  0  0  0  0  0  0  0
    2.5302   -5.8155    1.5753 C   0  0  0  0  0  0  0  0  0  0  0  0
    1.8281   -6.9816    1.8878 C   0  0  0  0  0  0  0  0  0  0  0  0
    0.7121   -7.3624    1.1184 C   0  0  0  0  0  0  0  0  0  0  0  0
   -0.2048   -8.4579    1.5531 C   0  0  0  0  0  0  0  0  0  0  0  0
    0.4231   -9.7563    1.7340 N   0  0  0  0  0  0  0  0  0  0  0  0
   -0.5883  -11.0240    2.2387 S   0  0  0  0  0  0  0  0  0  0  0  0
   -1.7782  -10.9774    1.4206 O   0  0  0  0  0  0  0  0  0  0  0  0
    0.2731  -12.1871    2.2482 O   0  0  0  0  0  0  0  0  0  0  0  0
   -1.0632  -10.7074    3.9411 C   0  0  0  0  0  0  0  0  0  0  0  0
   -1.2756  -11.7913    4.7974 C   0  0  0  0  0  0  0  0  0  0  0  0
   -1.1796   -9.4302    4.4819 C   0  0  0  0  0  0  0  0  0  0  0  0
   -1.3257   -9.2151    5.8486 C   0  0  0  0  0  0  0  0  0  0  0  0
   -1.5457  -10.2892    6.6905 C   0  0  0  0  0  0  0  0  0  0  0  0
   -1.7827   -9.9833    8.0003 O   0  0  0  0  0  0  0  0  0  0  0  0
   -1.5341  -11.5908    6.1784 C   0  0  0  0  0  0  0  0  0  0  0  0
   -1.7566  -12.8037    7.0075 C   0  0  0  0  0  0  0  0  0  0  0  0
   -2.0046  -12.6102    8.3190 O   0  0  0  0  0  0  0  0  0  0  0  0
   -1.7724  -13.9235    6.5062 O   0  0  0  0  0  0  0  0  0  0  0  0
    0.3444   -3.3350   -0.0889 H   0  0  0  0  0  0  0  0  0  0  0  0
    0.5294   -1.3238   -3.8257 H   0  0  0  0  0  0  0  0  0  0  0  0
    2.0910   -1.4617   -2.9813 H   0  0  0  0  0  0  0  0  0  0  0  0
    0.8244   -0.3502   -2.3759 H   0  0  0  0  0  0  0  0  0  0  0  0
    0.6584   -1.5216    1.3719 H   0  0  0  0  0  0  0  0  0  0  0  0
    0.9832   -0.4024    0.0533 H   0  0  0  0  0  0  0  0  0  0  0  0
   -1.3737   -1.5721    1.9928 H   0  0  0  0  0  0  0  0  0  0  0  0
    2.9927   -2.1142   -0.8364 H   0  0  0  0  0  0  0  0  0  0  0  0
    0.8317   -5.0245   -1.2747 H   0  0  0  0  0  0  0  0  0  0  0  0
   -0.5624   -6.8496   -0.5531 H   0  0  0  0  0  0  0  0  0  0  0  0
    3.3536   -5.4888    2.2082 H   0  0  0  0  0  0  0  0  0  0  0  0
    2.1341   -7.5844    2.7427 H   0  0  0  0  0  0  0  0  0  0  0  0
   -0.5181   -8.0443    2.4885 H   0  0  0  0  0  0  0  0  0  0  0  0
   -1.0920   -8.5296    0.9185 H   0  0  0  0  0  0  0  0  0  0  0  0
    0.9110  -10.0647    0.8860 H   0  0  0  0  0  0  0  0  0  0  0  0
   -1.2560  -12.8033    4.3901 H   0  0  0  0  0  0  0  0  0  0  0  0
   -1.2248   -8.5312    3.9091 H   0  0  0  0  0  0  0  0  0  0  0  0
   -1.2899   -8.1950    6.2243 H   0  0  0  0  0  0  0  0  0  0  0  0
   -2.6592  -10.3464    8.2356 H   0  0  0  0  0  0  0  0  0  0  0  0
   -1.5725  -11.8252    8.7122 H   0  0  0  0  0  0  0  0  0  0  0  0
  1  2  1  0  0  0  0
  1 34  1  0  0  0  0
  1 35  1  0  0  0  0
  1 36  1  0  0  0  0
  2  3  2  0  0  0  0
  4  9  1  0  0  0  0
  4 33  1  1  0  0  0
  4  5  1  0  0  0  0
  4  2  1  0  0  0  0
  5  6  1  0  0  0  0
  5 37  1  0  0  0  0
  5 38  1  0  0  0  0
  6  7  1  0  0  0  0
  6  8  2  0  0  0  0
  7 39  1  0  0  0  0
  9 10  1  0  0  0  0
  9 40  1  0  0  0  0
 10 11  2  0  0  0  0
 10 12  1  0  0  0  0
 12 13  2  0  0  0  0
 12 15  1  0  0  0  0
 13 14  1  0  0  0  0
 13 41  1  0  0  0  0
 14 17  2  0  0  0  0
 14 42  1  0  0  0  0
 15 16  2  0  0  0  0
 15 43  1  0  0  0  0
 16 17  1  0  0  0  0
 16 44  1  0  0  0  0
 17 18  1  0  0  0  0
 18 19  1  0  0  0  0
 18 45  1  0  0  0  0
 18 46  1  0  0  0  0
 19 20  1  0  0  0  0
 19 47  1  0  0  0  0
 20 21  2  0  0  0  0
 20 22  2  0  0  0  0
 20 23  1  0  0  0  0
 23 24  2  0  0  0  0
 23 25  1  0  0  0  0
 24 29  1  0  0  0  0
 24 48  1  0  0  0  0
 25 26  2  0  0  0  0
 25 49  1  0  0  0  0
 26 27  1  0  0  0  0
 26 50  1  0  0  0  0
 27 28  1  0  0  0  0
 27 29  2  0  0  0  0
 28 51  1  0  0  0  0
 29 30  1  0  0  0  0
 30 31  1  0  0  0  0
 30 32  2  0  0  0  0
 31 52  1  0  0  0  0
M  END
>  <DRUGBANK_ID>
DB03124

>  <SECONDARY_ACCESSION_NUMBERS>
EXPT00045

>  <COMMON_NAME>
5-[4-(1-Carboxymethyl-2-Oxo-Propylcarbamoyl)-Benzylsulfamoyl]-2-Hydroxy-Benzoic Acid

$$$$
