
 OpenBabel10282417193D

 75 76  0  0  0  0  0  0  0  0999 V2000
    1.0531    0.6495   -1.3489 C   0  0  0  0  0  0  0  0  0  0  0  0
    0.0830   -0.8870   -0.2456 C   0  0  0  0  0  0  0  0  0  0  0  0
    0.4598   -0.8093    1.8254 C   0  0  0  0  0  0  0  0  0  0  0  0
    0.1295   -0.1356    3.0479 C   0  0  0  0  0  0  0  0  0  0  0  0
   -0.0322   -0.8465    4.3383 C   0  0  0  0  0  0  0  0  0  0  0  0
   -0.1488    0.0879    5.2824 C   0  0  0  0  0  0  0  0  0  0  0  0
    0.0436    1.4528    4.9249 C   0  0  0  0  0  0  0  0  0  0  0  0
    0.4078    1.9307    3.6603 C   0  0  0  0  0  0  0  0  0  0  0  0
    0.2551    1.1270    2.6659 C   0  0  0  0  0  0  0  0  0  0  0  0
    0.2725    1.6441    1.4603 O   0  0  0  0  0  0  0  0  0  0  0  0
    0.2470    0.8773    0.4193 C   0  0  0  0  0  0  0  0  0  0  0  0
    1.9641   -0.4491   -0.0542 C   0  0  0  0  0  0  0  0  0  0  0  0
    1.8022   -1.7457    0.4390 C   0  0  0  0  0  0  0  0  0  0  0  0
    0.1892   -3.0446    0.1178 C   0  0  0  0  0  0  0  0  0  0  0  0
    0.0330   -4.2359    0.4411 O   0  0  0  0  0  0  0  0  0  0  0  0
   -1.3411   -2.6820   -0.1089 O   0  0  0  0  0  0  0  0  0  0  0  0
    0.9496    3.2256    3.2452 C   0  0  0  0  0  0  0  0  0  0  0  0
    1.4301    3.4953    2.1458 O   0  0  0  0  0  0  0  0  0  0  0  0
    0.9593    4.1695    4.3466 C   0  0  0  0  0  0  0  0  0  0  0  0
   -0.2637   -2.1989    4.6983 O   0  0  0  0  0  0  0  0  0  0  0  0
   -0.4488   -3.4305    3.8926 C   0  0  0  0  0  0  0  0  0  0  0  0
   -1.4602   -3.3582    2.7663 C   0  0  0  0  0  0  0  0  0  0  0  0
   -0.9313   -2.2758    2.0481 C   0  0  0  0  0  0  0  0  0  0  0  0
    1.2607   -3.1460    2.0909 S   0  0  0  0  0  0  0  0  0  0  0  0
    2.8142   -2.4811    2.6259 C   0  0  0  0  0  0  0  0  0  0  0  0
    3.2657   -1.1900    3.1522 C   0  0  0  0  0  0  0  0  0  0  0  0
    3.7473   -1.2199    4.3822 C   0  0  0  0  0  0  0  0  0  0  0  0
    3.7912   -2.5260    4.8715 C   0  0  0  0  0  0  0  0  0  0  0  0
    3.2460   -3.7251    4.2638 C   0  0  0  0  0  0  0  0  0  0  0  0
    2.9485   -3.7874    2.9645 C   0  0  0  0  0  0  0  0  0  0  0  0
    2.3502   -5.1314    2.0362 C   0  0  0  0  0  0  0  0  0  0  0  0
    3.5564   -5.5847    1.3870 C   0  0  0  0  0  0  0  0  0  0  0  0
    4.2274   -6.0368    2.6177 C   0  0  0  0  0  0  0  0  0  0  0  0
    2.9196   -4.8554    4.9245 O   0  0  0  0  0  0  0  0  0  0  0  0
    4.7422   -2.7749    5.9032 C   0  0  0  0  0  0  0  0  0  0  0  0
    4.9599   -3.9414    6.2035 O   0  0  0  0  0  0  0  0  0  0  0  0
    5.4358   -1.5790    6.4410 C   0  0  0  0  0  0  0  0  0  0  0  0
    1.7461    1.2737   -0.2387 H   0  0  0  0  0  0  0  0  0  0  0  0
    1.0393   -0.0934   -2.0951 H   0  0  0  0  0  0  0  0  0  0  0  0
    2.2514    1.0311   -1.2452 H   0  0  0  0  0  0  0  0  0  0  0  0
   -0.9458   -0.9406   -0.4802 H   0  0  0  0  0  0  0  0  0  0  0  0
    0.4398   -1.6698   -0.9741 H   0  0  0  0  0  0  0  0  0  0  0  0
    0.4864   -1.5814    2.6005 H   0  0  0  0  0  0  0  0  0  0  0  0
    1.4339   -0.9309    2.3437 H   0  0  0  0  0  0  0  0  0  0  0  0
   -0.4035   -0.2416    6.2670 H   0  0  0  0  0  0  0  0  0  0  0  0
   -0.1582    2.1983    5.6549 H   0  0  0  0  0  0  0  0  0  0  0  0
   -0.8847    0.5281    0.2316 H   0  0  0  0  0  0  0  0  0  0  0  0
   -0.1163    1.6057   -0.5129 H   0  0  0  0  0  0  0  0  0  0  0  0
    2.0871   -1.1359   -1.0641 H   0  0  0  0  0  0  0  0  0  0  0  0
    3.0217   -0.1129    0.0104 H   0  0  0  0  0  0  0  0  0  0  0  0
    2.8611   -1.9308    0.7247 H   0  0  0  0  0  0  0  0  0  0  0  0
    2.0259   -0.6110    1.1441 H   0  0  0  0  0  0  0  0  0  0  0  0
   -2.1009   -2.7221    0.6063 H   0  0  0  0  0  0  0  0  0  0  0  0
   -0.0726    4.2718    4.6829 H   0  0  0  0  0  0  0  0  0  0  0  0
    1.6064    3.7584    5.1241 H   0  0  0  0  0  0  0  0  0  0  0  0
    1.3448    5.0979    3.9549 H   0  0  0  0  0  0  0  0  0  0  0  0
    0.5665   -3.7134    3.7432 H   0  0  0  0  0  0  0  0  0  0  0  0
   -0.5184   -4.4473    4.2683 H   0  0  0  0  0  0  0  0  0  0  0  0
   -1.5566   -4.1565    2.0356 H   0  0  0  0  0  0  0  0  0  0  0  0
   -2.4419   -3.0242    3.0163 H   0  0  0  0  0  0  0  0  0  0  0  0
   -1.3653   -1.4755    1.2911 H   0  0  0  0  0  0  0  0  0  0  0  0
   -1.2935   -1.3480    2.5700 H   0  0  0  0  0  0  0  0  0  0  0  0
    3.0484   -0.1715    2.7930 H   0  0  0  0  0  0  0  0  0  0  0  0
    4.0137   -0.2675    4.8441 H   0  0  0  0  0  0  0  0  0  0  0  0
    1.4648   -5.5815    2.5432 H   0  0  0  0  0  0  0  0  0  0  0  0
    1.8658   -4.9807    1.0281 H   0  0  0  0  0  0  0  0  0  0  0  0
    3.2006   -6.3199    0.6694 H   0  0  0  0  0  0  0  0  0  0  0  0
    4.0242   -4.7302    0.8531 H   0  0  0  0  0  0  0  0  0  0  0  0
    3.4790   -6.5682    3.2354 H   0  0  0  0  0  0  0  0  0  0  0  0
    5.0931   -6.5819    2.3609 H   0  0  0  0  0  0  0  0  0  0  0  0
    4.6046   -5.1847    3.1887 H   0  0  0  0  0  0  0  0  0  0  0  0
    3.6173   -4.8839    5.5929 H   0  0  0  0  0  0  0  0  0  0  0  0
    6.0146   -1.0689    5.6573 H   0  0  0  0  0  0  0  0  0  0  0  0
    4.6752   -0.9011    6.8442 H   0  0  0  0  0  0  0  0  0  0  0  0
    6.0864   -1.9366    7.2217 H   0  0  0  0  0  0  0  0  0  0  0  0
  1  2  1  0  0  0  0
  1 38  1  0  0  0  0
  1 39  1  0  0  0  0
  1 40  1  0  0  0  0
  2  3  1  0  0  0  0
  2 41  1  0  0  0  0
  2 42  1  0  0  0  0
  3  4  1  0  0  0  0
  3 43  1  0  0  0  0
  3 44  1  0  0  0  0
  4  5  2  0  0  0  0
  4  9  1  0  0  0  0
  5  6  1  0  0  0  0
  5 20  1  0  0  0  0
  6  7  2  0  0  0  0
  6 45  1  0  0  0  0
  7  8  1  0  0  0  0
  7 46  1  0  0  0  0
  8  9  2  0  0  0  0
  8 17  1  0  0  0  0
  9 10  1  0  0  0  0
 10 11  1  0  0  0  0
 11 12  1  0  0  0  0
 11 47  1  0  0  0  0
 11 48  1  0  0  0  0
 12 13  1  0  0  0  0
 12 49  1  0  0  0  0
 12 50  1  0  0  0  0
 13 14  1  0  0  0  0
 13 51  1  0  0  0  0
 13 52  1  0  0  0  0
 14 15  2  0  0  0  0
 14 16  1  0  0  0  0
 16 53  1  0  0  0  0
 17 18  2  0  0  0  0
 17 19  1  0  0  0  0
 19 54  1  0  0  0  0
 19 55  1  0  0  0  0
 19 56  1  0  0  0  0
 20 21  1  0  0  0  0
 21 22  1  0  0  0  0
 21 57  1  0  0  0  0
 21 58  1  0  0  0  0
 22 23  1  0  0  0  0
 22 59  1  0  0  0  0
 22 60  1  0  0  0  0
 23 24  1  0  0  0  0
 23 61  1  0  0  0  0
 23 62  1  0  0  0  0
 24 25  1  0  0  0  0
 25 26  2  0  0  0  0
 25 30  1  0  0  0  0
 26 27  1  0  0  0  0
 26 63  1  0  0  0  0
 27 28  2  0  0  0  0
 27 64  1  0  0  0  0
 28 29  1  0  0  0  0
 28 35  1  0  0  0  0
 29 30  2  0  0  0  0
 29 34  1  0  0  0  0
 30 31  1  0  0  0  0
 31 32  1  0  0  0  0
 31 65  1  0  0  0  0
 31 66  1  0  0  0  0
 32 33  1  0  0  0  0
 32 67  1  0  0  0  0
 32 68  1  0  0  0  0
 33 69  1  0  0  0  0
 33 70  1  0  0  0  0
 33 71  1  0  0  0  0
 34 72  1  0  0  0  0
 35 36  2  0  0  0  0
 35 37  1  0  0  0  0
 37 73  1  0  0  0  0
 37 74  1  0  0  0  0
 37 75  1  0  0  0  0
M  END
>  <DRUGBANK_ID>
DB12435

>  <COMMON_NAME>
Tipelukast

>  <CAS_NUMBER>
125961-82-2

>  <UNII>
08379P260O

>  <SYNONYMS>
Tipelukast

$$$$
