
 OpenBabel10282417123D

 15 15  0  0  0  0  0  0  0  0999 V2000
    1.7418   -1.4445    0.1649 N   0  0  0  0  0  0  0  0  0  0  0  0
    0.5513   -0.7237   -0.0289 C   0  0  0  0  0  0  0  0  0  0  0  0
   -0.6764   -1.3988    0.0043 C   0  0  0  0  0  0  0  0  0  0  0  0
   -1.8894   -0.6999   -0.0161 C   0  0  0  0  0  0  0  0  0  0  0  0
   -1.8953    0.6936   -0.0236 C   0  0  0  0  0  0  0  0  0  0  0  0
   -0.6873    1.3849   -0.0181 C   0  0  0  0  0  0  0  0  0  0  0  0
    0.5149    0.6803   -0.0134 C   0  0  0  0  0  0  0  0  0  0  0  0
    1.6597    1.4302    0.0077 O   0  0  0  0  0  0  0  0  0  0  0  0
    2.5903   -1.0486   -0.2150 H   0  0  0  0  0  0  0  0  0  0  0  0
    1.6623   -2.4299   -0.0725 H   0  0  0  0  0  0  0  0  0  0  0  0
   -0.7040   -2.4850    0.0419 H   0  0  0  0  0  0  0  0  0  0  0  0
   -2.8308   -1.2439   -0.0083 H   0  0  0  0  0  0  0  0  0  0  0  0
   -2.8348    1.2388   -0.0208 H   0  0  0  0  0  0  0  0  0  0  0  0
   -0.6782    2.4714   -0.0003 H   0  0  0  0  0  0  0  0  0  0  0  0
    2.3931    0.8057    0.0948 H   0  0  0  0  0  0  0  0  0  0  0  0
  1  2  1  0  0  0  0
  1  9  1  0  0  0  0
  1 10  1  0  0  0  0
  2  3  2  0  0  0  0
  2  7  1  0  0  0  0
  3  4  1  0  0  0  0
  3 11  1  0  0  0  0
  4  5  2  0  0  0  0
  4 12  1  0  0  0  0
  5  6  1  0  0  0  0
  5 13  1  0  0  0  0
  6  7  2  0  0  0  0
  6 14  1  0  0  0  0
  7  8  1  0  0  0  0
  8 15  1  0  0  0  0
M  END
>  <DRUGBANK_ID>
DB01726

>  <SECONDARY_ACCESSION_NUMBERS>
EXPT00102

>  <COMMON_NAME>
2-Aminophenol

>  <CAS_NUMBER>
95-55-6

>  <UNII>
23RH73DZ65

>  <SYNONYMS>
2-Aminophenol

$$$$
