1203
 OpenBabel10282417113D

 49 50  0  0  1  0  0  0  0  0999 V2000
    0.8408   -0.0378   -0.0932 O   0  0  0  0  0  0  0  0  0  0  0  0
   -0.3264    2.5417    0.9382 O   0  0  0  0  0  0  0  0  0  0  0  0
   -3.1093    0.9718   -3.0749 O   0  0  0  0  0  0  0  0  0  0  0  0
   -5.2489    3.1382   -3.1214 O   0  0  0  0  0  0  0  0  0  0  0  0
   -7.2552    0.3172   -4.2825 N   0  0  0  0  0  0  0  0  0  0  0  0
    0.4996    1.0908   -0.8923 C   0  0  2  0  0  0  0  0  0  0  0  0
    0.6441    2.4078   -0.1096 C   0  0  1  0  0  0  0  0  0  0  0  0
   -0.9253    0.9562   -1.4196 C   0  0  0  0  0  0  0  0  0  0  0  0
    0.5148    3.5740   -1.0859 C   0  0  0  0  0  0  0  0  0  0  0  0
   -1.3272    2.1949   -2.1995 C   0  0  0  0  0  0  0  0  0  0  0  0
   -0.6750    3.4339   -2.0030 C   0  0  0  0  0  0  0  0  0  0  0  0
   -2.3804    2.1275   -3.1104 C   0  0  0  0  0  0  0  0  0  0  0  0
   -8.4345    0.2482   -5.1570 C   0  0  0  0  0  0  0  0  0  0  0  0
   -1.0937    4.5674   -2.7139 C   0  0  0  0  0  0  0  0  0  0  0  0
   -5.4809    1.7316   -3.2647 C   0  0  3  0  0  0  0  0  0  0  0  0
   -6.6618    1.6488   -4.2227 C   0  0  0  0  0  0  0  0  0  0  0  0
   -4.3026    0.9151   -3.8456 C   0  0  0  0  0  0  0  0  0  0  0  0
   -2.6778    3.2319   -3.9153 C   0  0  0  0  0  0  0  0  0  0  0  0
   -2.0934    4.4682   -3.6611 C   0  0  0  0  0  0  0  0  0  0  0  0
   -8.0528    0.5522   -6.6153 C   0  0  0  0  0  0  0  0  0  0  0  0
   -8.9509   -1.1955   -5.0661 C   0  0  0  0  0  0  0  0  0  0  0  0
   -9.5352    1.2020   -4.6666 C   0  0  0  0  0  0  0  0  0  0  0  0
    1.7995    0.0129    0.0686 H   0  0  0  0  0  0  0  0  0  0  0  0
   -1.2122    2.5776    0.5334 H   0  0  0  0  0  0  0  0  0  0  0  0
   -4.5830    3.2511   -2.4211 H   0  0  0  0  0  0  0  0  0  0  0  0
   -6.5681   -0.3654   -4.6004 H   0  0  0  0  0  0  0  0  0  0  0  0
    1.1921    1.0929   -1.7448 H   0  0  0  0  0  0  0  0  0  0  0  0
    1.6178    2.4458    0.3872 H   0  0  0  0  0  0  0  0  0  0  0  0
   -0.9765    0.0614   -2.0537 H   0  0  0  0  0  0  0  0  0  0  0  0
   -1.6339    0.7797   -0.5985 H   0  0  0  0  0  0  0  0  0  0  0  0
    0.4408    4.5179   -0.5344 H   0  0  0  0  0  0  0  0  0  0  0  0
    1.4074    3.6108   -1.7237 H   0  0  0  0  0  0  0  0  0  0  0  0
   -0.6217    5.5330   -2.5400 H   0  0  0  0  0  0  0  0  0  0  0  0
   -5.7464    1.3647   -2.2686 H   0  0  0  0  0  0  0  0  0  0  0  0
   -7.3890    2.3966   -3.8937 H   0  0  0  0  0  0  0  0  0  0  0  0
   -6.3143    1.9773   -5.2108 H   0  0  0  0  0  0  0  0  0  0  0  0
   -4.0873    1.1463   -4.8962 H   0  0  0  0  0  0  0  0  0  0  0  0
   -4.5887   -0.1440   -3.8377 H   0  0  0  0  0  0  0  0  0  0  0  0
   -3.4478    3.1992   -4.6771 H   0  0  0  0  0  0  0  0  0  0  0  0
   -2.4477    5.3476   -4.1931 H   0  0  0  0  0  0  0  0  0  0  0  0
   -7.2579   -0.1187   -6.9638 H   0  0  0  0  0  0  0  0  0  0  0  0
   -8.9134    0.4289   -7.2790 H   0  0  0  0  0  0  0  0  0  0  0  0
   -7.6985    1.5802   -6.7472 H   0  0  0  0  0  0  0  0  0  0  0  0
   -9.2229   -1.4590   -4.0368 H   0  0  0  0  0  0  0  0  0  0  0  0
   -9.8401   -1.3292   -5.6908 H   0  0  0  0  0  0  0  0  0  0  0  0
   -8.1958   -1.9157   -5.4042 H   0  0  0  0  0  0  0  0  0  0  0  0
   -9.7871    1.0038   -3.6175 H   0  0  0  0  0  0  0  0  0  0  0  0
   -9.2426    2.2546   -4.7444 H   0  0  0  0  0  0  0  0  0  0  0  0
  -10.4455    1.0905   -5.2618 H   0  0  0  0  0  0  0  0  0  0  0  0
  1 23  1  0  0  0  0
  2 24  1  0  0  0  0
  3 12  1  0  0  0  0
  3 17  1  0  0  0  0
  4 15  1  0  0  0  0
  4 25  1  0  0  0  0
  5 13  1  0  0  0  0
  5 16  1  0  0  0  0
  5 26  1  0  0  0  0
  6  1  1  0  0  0  0
  6  7  1  0  0  0  0
  6  8  1  0  0  0  0
  6 27  1  6  0  0  0
  7  2  1  0  0  0  0
  7  9  1  0  0  0  0
  7 28  1  1  0  0  0
  8 10  1  0  0  0  0
  8 29  1  0  0  0  0
  8 30  1  0  0  0  0
  9 11  1  0  0  0  0
  9 31  1  0  0  0  0
  9 32  1  0  0  0  0
 10 11  2  0  0  0  0
 10 12  1  0  0  0  0
 11 14  1  0  0  0  0
 12 18  2  0  0  0  0
 13 20  1  0  0  0  0
 13 21  1  0  0  0  0
 13 22  1  0  0  0  0
 14 19  2  0  0  0  0
 14 33  1  0  0  0  0
 15 16  1  0  0  0  0
 15 17  1  0  0  0  0
 15 34  1  0  0  0  0
 16 35  1  0  0  0  0
 16 36  1  0  0  0  0
 17 37  1  0  0  0  0
 17 38  1  0  0  0  0
 18 19  1  0  0  0  0
 18 39  1  0  0  0  0
 19 40  1  0  0  0  0
 20 41  1  0  0  0  0
 20 42  1  0  0  0  0
 20 43  1  0  0  0  0
 21 44  1  0  0  0  0
 21 45  1  0  0  0  0
 21 46  1  0  0  0  0
 22 47  1  0  0  0  0
 22 48  1  0  0  0  0
 22 49  1  0  0  0  0
M  END
>  <DRUGBANK_ID>
DB01203

>  <SECONDARY_ACCESSION_NUMBERS>
APRD00301

>  <COMMON_NAME>
Nadolol

>  <CAS_NUMBER>
42200-33-9

>  <UNII>
FEN504330V

>  <SYNONYMS>
Nadolol

$$$$
