
 OpenBabel10282417123D

 37 40  0  0  0  0  0  0  0  0999 V2000
    0.8849    0.0333    0.0324 Fe  0  0  0  0  0  0  0  0  0  0  0  0
   -9.3683    0.4837    4.8981 N   0  5  0  0  0  0  0  0  0  0  0  0
   -7.7771   -2.6807    7.4549 N   0  5  0  0  0  0  0  0  0  0  0  0
   -6.1598   -1.6054   11.0002 N   0  0  0  0  0  0  0  0  0  0  0  0
   -8.0594   -1.0217    3.0491 N   0  0  0  0  0  0  0  0  0  0  0  0
   -8.8130   -0.3172    6.4450 C   0  0  0  0  0  0  0  0  0  0  0  0
   -9.5042    0.9608    3.2303 C   0  0  0  0  0  0  0  0  0  0  0  0
   -6.9294   -2.9373    8.4178 C   0  0  0  0  0  0  0  0  0  0  0  0
   -7.1216   -2.6096    6.3010 C   0  0  0  0  0  0  0  0  0  0  0  0
   -6.0643   -1.0930    9.4592 C   0  0  0  0  0  0  0  0  0  0  0  0
   -7.9472    0.2899    2.9169 C   0  0  0  0  0  0  0  0  0  0  0  0
   -6.1998   -2.9912   10.6805 C   0  0  0  0  0  0  0  0  0  0  0  0
   -7.5860   -1.2380    4.3210 C   0  0  0  0  0  0  0  0  0  0  0  0
   -7.5594   -0.4615    7.8823 C   0  0  0  0  0  0  0  0  0  0  0  0
   -8.7912    0.9802    1.9774 C   0  0  0  0  0  0  0  0  0  0  0  0
   -7.3106   -2.9041    9.9655 C   0  0  0  0  0  0  0  0  0  0  0  0
   -7.6851   -2.3967    4.9769 C   0  0  0  0  0  0  0  0  0  0  0  0
  -10.3314   -0.2287    5.0145 C   0  0  0  0  0  0  0  0  0  0  0  0
  -10.6048    0.1457    3.3950 C   0  0  0  0  0  0  0  0  0  0  0  0
   -5.7159   -3.1504    7.7955 C   0  0  0  0  0  0  0  0  0  0  0  0
   -5.9493   -3.2089    6.4930 C   0  0  0  0  0  0  0  0  0  0  0  0
   -4.5644   -2.1309   10.4665 C   0  0  0  0  0  0  0  0  0  0  0  0
   -7.3163    1.0938    4.0727 C   0  0  0  0  0  0  0  0  0  0  0  0
   -4.9265   -3.3965   10.2658 C   0  0  0  0  0  0  0  0  0  0  0  0
   -7.0383    0.0443    4.8669 C   0  0  0  0  0  0  0  0  0  0  0  0
   -7.3780   -0.5682    9.2320 H   0  0  0  0  0  0  0  0  0  0  0  0
   -8.2568    1.7369    1.2869 H   0  0  0  0  0  0  0  0  0  0  0  0
   -7.8613   -1.8823   10.4440 H   0  0  0  0  0  0  0  0  0  0  0  0
   -8.0713   -3.2621    4.4837 H   0  0  0  0  0  0  0  0  0  0  0  0
  -11.5334   -0.0747    4.1959 H   0  0  0  0  0  0  0  0  0  0  0  0
  -10.8027   -0.7663    2.7159 H   0  0  0  0  0  0  0  0  0  0  0  0
   -4.7980   -3.5227    8.1155 H   0  0  0  0  0  0  0  0  0  0  0  0
   -5.3300   -3.7027    5.8105 H   0  0  0  0  0  0  0  0  0  0  0  0
   -3.6676   -3.1607   11.1512 H   0  0  0  0  0  0  0  0  0  0  0  0
   -7.5801    2.1124    4.4083 H   0  0  0  0  0  0  0  0  0  0  0  0
   -4.2045   -3.7821    9.5271 H   0  0  0  0  0  0  0  0  0  0  0  0
   -6.9083    0.1695    5.9415 H   0  0  0  0  0  0  0  0  0  0  0  0
  2  6  1  0  0  0  0
  2  7  1  0  0  0  0
  3  8  1  0  0  0  0
  3  9  1  0  0  0  0
  4 10  2  0  0  0  0
  4 12  1  0  0  0  0
  5 11  2  0  0  0  0
  5 13  1  0  0  0  0
  6 14  2  0  0  0  0
  6 18  1  0  0  0  0
  7 15  2  0  0  0  0
  7 19  1  0  0  0  0
  8 16  1  0  0  0  0
  8 20  2  0  0  0  0
  9 17  1  0  0  0  0
  9 21  2  0  0  0  0
 10 14  1  0  0  0  0
 10 22  1  0  0  0  0
 11 15  1  0  0  0  0
 11 23  1  0  0  0  0
 12 16  2  0  0  0  0
 12 24  1  0  0  0  0
 13 17  2  0  0  0  0
 13 25  1  0  0  0  0
 14 26  1  0  0  0  0
 15 27  1  0  0  0  0
 16 28  1  0  0  0  0
 17 29  1  0  0  0  0
 18 19  2  0  0  0  0
 18 30  1  0  0  0  0
 19 31  1  0  0  0  0
 20 21  1  0  0  0  0
 20 32  1  0  0  0  0
 21 33  1  0  0  0  0
 22 24  2  0  0  0  0
 22 34  1  0  0  0  0
 23 25  2  0  0  0  0
 23 35  1  0  0  0  0
 24 36  1  0  0  0  0
 25 37  1  0  0  0  0
M  CHG  3   1   5   2  -1   3  -1
M  END
>  <DRUGBANK_ID>
DB01710

>  <SECONDARY_ACCESSION_NUMBERS>
EXPT02632

>  <COMMON_NAME>
Porphyrin Fe(III)

$$$$
