
 OpenBabel10282417183D

 41 42  0  0  0  0  0  0  0  0999 V2000
    0.1687    1.2106    0.0007 C   0  0  0  0  0  0  0  0  0  0  0  0
    0.8603    0.0061    0.0035 C   0  0  0  0  0  0  0  0  0  0  0  0
    0.1884   -1.2085    0.0057 C   0  0  0  0  0  0  0  0  0  0  0  0
   -1.2021   -1.2268   -0.0060 C   0  0  0  0  0  0  0  0  0  0  0  0
   -1.9172   -0.0260   -0.0188 C   0  0  0  0  0  0  0  0  0  0  0  0
   -1.2240    1.1968   -0.0038 C   0  0  0  0  0  0  0  0  0  0  0  0
   -3.3964    0.0123   -0.0733 C   0  0  0  0  0  0  0  0  0  0  0  0
   -4.2049   -1.2754   -0.0252 C   0  0  0  0  0  0  0  0  0  0  0  0
   -5.0528   -1.3533    1.2373 C   0  0  0  0  0  0  0  0  0  0  0  0
   -6.0774   -0.2301    1.2895 C   0  0  0  0  0  0  0  0  0  0  0  0
   -6.9443   -0.2915    0.1021 N   0  0  0  0  0  0  0  0  0  0  0  0
   -7.5218    1.0248   -0.1925 C   0  0  0  0  0  0  0  0  0  0  0  0
   -8.4785    1.4769    0.9061 C   0  0  0  0  0  0  0  0  0  0  0  0
   -9.5638    0.4204    1.1634 C   0  0  0  0  0  0  0  0  0  0  0  0
   -8.9635   -0.9762    1.3685 C   0  0  0  0  0  0  0  0  0  0  0  0
   -7.9886   -1.3117    0.2426 C   0  0  0  0  0  0  0  0  0  0  0  0
    2.1978    0.0109    0.0018 F   0  0  0  0  0  0  0  0  0  0  0  0
   -3.9283    1.1246   -0.1568 O   0  0  0  0  0  0  0  0  0  0  0  0
  -10.4055    0.8144    2.3674 C   0  0  0  0  0  0  0  0  0  0  0  0
    0.7128    2.1490   -0.0045 H   0  0  0  0  0  0  0  0  0  0  0  0
    0.7434   -2.1402    0.0085 H   0  0  0  0  0  0  0  0  0  0  0  0
   -1.6824   -2.1965   -0.0161 H   0  0  0  0  0  0  0  0  0  0  0  0
   -1.7674    2.1422   -0.0047 H   0  0  0  0  0  0  0  0  0  0  0  0
   -4.8088   -1.3235   -0.9383 H   0  0  0  0  0  0  0  0  0  0  0  0
   -3.5924   -2.1729   -0.0521 H   0  0  0  0  0  0  0  0  0  0  0  0
   -5.5526   -2.3294    1.2744 H   0  0  0  0  0  0  0  0  0  0  0  0
   -4.4208   -1.3027    2.1309 H   0  0  0  0  0  0  0  0  0  0  0  0
   -6.6202   -0.2817    2.2355 H   0  0  0  0  0  0  0  0  0  0  0  0
   -5.5624    0.7327    1.3487 H   0  0  0  0  0  0  0  0  0  0  0  0
   -8.0457    0.9900   -1.1569 H   0  0  0  0  0  0  0  0  0  0  0  0
   -6.7243    1.7676   -0.3257 H   0  0  0  0  0  0  0  0  0  0  0  0
   -8.9368    2.4299    0.6196 H   0  0  0  0  0  0  0  0  0  0  0  0
   -7.9131    1.6728    1.8267 H   0  0  0  0  0  0  0  0  0  0  0  0
  -10.2110    0.3773    0.2783 H   0  0  0  0  0  0  0  0  0  0  0  0
   -8.4614   -1.0314    2.3420 H   0  0  0  0  0  0  0  0  0  0  0  0
   -9.7502   -1.7362    1.4095 H   0  0  0  0  0  0  0  0  0  0  0  0
   -8.5322   -1.4101   -0.7060 H   0  0  0  0  0  0  0  0  0  0  0  0
   -7.5437   -2.2977    0.4169 H   0  0  0  0  0  0  0  0  0  0  0  0
  -10.8763    1.7877    2.2020 H   0  0  0  0  0  0  0  0  0  0  0  0
  -11.1923    0.0751    2.5430 H   0  0  0  0  0  0  0  0  0  0  0  0
   -9.7920    0.8814    3.2730 H   0  0  0  0  0  0  0  0  0  0  0  0
  1  2  2  0  0  0  0
  1  6  1  0  0  0  0
  1 20  1  0  0  0  0
  2  3  1  0  0  0  0
  2 17  1  0  0  0  0
  3  4  2  0  0  0  0
  3 21  1  0  0  0  0
  4  5  1  0  0  0  0
  4 22  1  0  0  0  0
  5  6  2  0  0  0  0
  5  7  1  0  0  0  0
  6 23  1  0  0  0  0
  7  8  1  0  0  0  0
  7 18  2  0  0  0  0
  8  9  1  0  0  0  0
  8 24  1  0  0  0  0
  8 25  1  0  0  0  0
  9 10  1  0  0  0  0
  9 26  1  0  0  0  0
  9 27  1  0  0  0  0
 10 11  1  0  0  0  0
 10 28  1  0  0  0  0
 10 29  1  0  0  0  0
 11 12  1  0  0  0  0
 11 16  1  0  0  0  0
 12 13  1  0  0  0  0
 12 30  1  0  0  0  0
 12 31  1  0  0  0  0
 13 14  1  0  0  0  0
 13 32  1  0  0  0  0
 13 33  1  0  0  0  0
 14 15  1  0  0  0  0
 14 19  1  0  0  0  0
 14 34  1  0  0  0  0
 15 16  1  0  0  0  0
 15 35  1  0  0  0  0
 15 36  1  0  0  0  0
 16 37  1  0  0  0  0
 16 38  1  0  0  0  0
 19 39  1  0  0  0  0
 19 40  1  0  0  0  0
 19 41  1  0  0  0  0
M  END
>  <DRUGBANK_ID>
DB09224

>  <COMMON_NAME>
Melperone

>  <CAS_NUMBER>
3575-80-2

>  <UNII>
J8WA3K39B7

>  <SYNONYMS>
Melperone

$$$$
