
 OpenBabel10282417123D

 71 70  0  0  0  0  0  0  0  0999 V2000
    1.0931   -0.0344    0.1279 C   0  0  0  0  0  0  0  0  0  0  0  0
   -4.3754   -7.0706   -7.2233 C   0  0  0  0  0  0  0  0  0  0  0  0
    0.6462    1.1644   -0.6926 C   0  0  0  0  0  0  0  0  0  0  0  0
   -3.9391   -5.6695   -6.8277 C   0  0  0  0  0  0  0  0  0  0  0  0
    1.1460    1.0371   -2.1321 C   0  0  0  0  0  0  0  0  0  0  0  0
   -3.2108   -5.0172   -8.0006 C   0  0  0  0  0  0  0  0  0  0  0  0
    0.5944   -0.2280   -2.7985 C   0  0  0  0  0  0  0  0  0  0  0  0
   -4.1019   -5.0168   -9.2529 C   0  0  0  0  0  0  0  0  0  0  0  0
   -0.9375   -0.2068   -2.8046 C   0  0  0  0  0  0  0  0  0  0  0  0
   -1.4335    1.0067   -3.5941 C   0  0  0  0  0  0  0  0  0  0  0  0
   -0.9149    0.9212   -5.0333 C   0  0  0  0  0  0  0  0  0  0  0  0
   -1.4439   -0.3624   -5.6791 C   0  0  0  0  0  0  0  0  0  0  0  0
   -2.9745   -0.3215   -5.6389 C   0  0  0  0  0  0  0  0  0  0  0  0
   -3.4573    0.9755   -6.3196 C   0  0  0  0  0  0  0  0  0  0  0  0
   -2.9226    1.0452   -7.7345 C   0  0  0  0  0  0  0  0  0  0  0  0
   -3.4630   -0.1548   -8.4154 C   0  0  0  0  0  0  0  0  0  0  0  0
   -5.4142   -4.2964   -8.9888 C   0  0  0  0  0  0  0  0  0  0  0  0
   -5.0295   -0.0488   -8.4288 C   0  0  0  0  0  0  0  0  0  0  0  0
   -5.0816   -2.8721   -8.7074 C   0  0  0  0  0  0  0  0  0  0  0  0
   -5.5612    0.9548   -9.4026 C   0  0  0  0  0  0  0  0  0  0  0  0
   -4.3962   -2.3063   -9.9941 C   0  0  0  0  0  0  0  0  0  0  0  0
   -5.0628    0.6036  -10.8188 C   0  0  0  0  0  0  0  0  0  0  0  0
   -5.2941   -1.9948  -11.1556 C   0  0  0  0  0  0  0  0  0  0  0  0
   -5.7398   -2.8791  -11.8449 O   0  0  0  0  0  0  0  0  0  0  0  0
   -5.5954   -0.6665  -11.3807 O   0  0  0  0  0  0  0  0  0  0  0  0
    0.6984   -0.9759   -0.2679 H   0  0  0  0  0  0  0  0  0  0  0  0
    0.7394    0.0459    1.1558 H   0  0  0  0  0  0  0  0  0  0  0  0
    2.1850   -0.0995    0.1216 H   0  0  0  0  0  0  0  0  0  0  0  0
   -3.4985   -7.6566   -7.5136 H   0  0  0  0  0  0  0  0  0  0  0  0
   -4.8991   -7.5630   -6.4066 H   0  0  0  0  0  0  0  0  0  0  0  0
   -5.0666   -7.0651   -8.0732 H   0  0  0  0  0  0  0  0  0  0  0  0
   -0.4466    1.2492   -0.6567 H   0  0  0  0  0  0  0  0  0  0  0  0
    1.0239    2.0910   -0.2525 H   0  0  0  0  0  0  0  0  0  0  0  0
   -3.2864   -5.6973   -5.9519 H   0  0  0  0  0  0  0  0  0  0  0  0
   -4.8118   -5.0780   -6.5224 H   0  0  0  0  0  0  0  0  0  0  0  0
    0.8629    1.9344   -2.6964 H   0  0  0  0  0  0  0  0  0  0  0  0
    2.2392    1.0189   -2.1588 H   0  0  0  0  0  0  0  0  0  0  0  0
   -2.2824   -5.5475   -8.2281 H   0  0  0  0  0  0  0  0  0  0  0  0
   -2.8888   -4.0063   -7.7114 H   0  0  0  0  0  0  0  0  0  0  0  0
    1.0035   -0.3168   -3.8105 H   0  0  0  0  0  0  0  0  0  0  0  0
    0.9488   -1.1348   -2.3039 H   0  0  0  0  0  0  0  0  0  0  0  0
   -4.3236   -6.0124   -9.6264 H   0  0  0  0  0  0  0  0  0  0  0  0
   -3.5407   -4.5785  -10.0786 H   0  0  0  0  0  0  0  0  0  0  0  0
   -1.3165   -1.1486   -3.2151 H   0  0  0  0  0  0  0  0  0  0  0  0
   -1.3585   -0.1887   -1.7967 H   0  0  0  0  0  0  0  0  0  0  0  0
   -2.5262    1.0550   -3.5435 H   0  0  0  0  0  0  0  0  0  0  0  0
   -1.1271    1.9542   -3.1459 H   0  0  0  0  0  0  0  0  0  0  0  0
   -1.2105    1.8184   -5.5847 H   0  0  0  0  0  0  0  0  0  0  0  0
    0.1739    0.9522   -5.0969 H   0  0  0  0  0  0  0  0  0  0  0  0
   -1.0503   -0.4607   -6.6961 H   0  0  0  0  0  0  0  0  0  0  0  0
   -1.0782   -1.2681   -5.1880 H   0  0  0  0  0  0  0  0  0  0  0  0
   -3.3751   -1.2419   -6.0785 H   0  0  0  0  0  0  0  0  0  0  0  0
   -3.3782   -0.3627   -4.6253 H   0  0  0  0  0  0  0  0  0  0  0  0
   -4.5446    1.0165   -6.2787 H   0  0  0  0  0  0  0  0  0  0  0  0
   -3.1688    1.8865   -5.8026 H   0  0  0  0  0  0  0  0  0  0  0  0
   -3.2396    1.9309   -8.2844 H   0  0  0  0  0  0  0  0  0  0  0  0
   -1.8300    1.0340   -7.8147 H   0  0  0  0  0  0  0  0  0  0  0  0
   -2.9239   -0.1430   -9.3717 H   0  0  0  0  0  0  0  0  0  0  0  0
   -3.1125   -1.1014   -7.9751 H   0  0  0  0  0  0  0  0  0  0  0  0
   -5.9964   -4.7094   -8.1588 H   0  0  0  0  0  0  0  0  0  0  0  0
   -6.0892   -4.3161   -9.8455 H   0  0  0  0  0  0  0  0  0  0  0  0
   -5.5783   -0.8593   -8.8397 H   0  0  0  0  0  0  0  0  0  0  0  0
   -5.4759   -0.0836   -7.4319 H   0  0  0  0  0  0  0  0  0  0  0  0
   -4.4521   -2.7534   -7.8093 H   0  0  0  0  0  0  0  0  0  0  0  0
   -6.0425   -2.4465   -8.3860 H   0  0  0  0  0  0  0  0  0  0  0  0
   -6.6554    0.8835   -9.3828 H   0  0  0  0  0  0  0  0  0  0  0  0
   -5.2814    1.9537   -9.0681 H   0  0  0  0  0  0  0  0  0  0  0  0
   -3.4288   -2.7605  -10.2109 H   0  0  0  0  0  0  0  0  0  0  0  0
   -3.9844   -1.3517   -9.9178 H   0  0  0  0  0  0  0  0  0  0  0  0
   -5.4236    1.3934  -11.4811 H   0  0  0  0  0  0  0  0  0  0  0  0
   -3.9708    0.6246  -10.9075 H   0  0  0  0  0  0  0  0  0  0  0  0
  1 26  1  0  0  0  0
  1 27  1  0  0  0  0
  1 28  1  0  0  0  0
  2 29  1  0  0  0  0
  2 30  1  0  0  0  0
  2 31  1  0  0  0  0
  3  1  1  0  0  0  0
  3 32  1  0  0  0  0
  3 33  1  0  0  0  0
  4  2  1  0  0  0  0
  4 34  1  0  0  0  0
  4 35  1  0  0  0  0
  5  3  1  0  0  0  0
  5 36  1  0  0  0  0
  5 37  1  0  0  0  0
  6  4  1  0  0  0  0
  6 38  1  0  0  0  0
  6 39  1  0  0  0  0
  7  5  1  0  0  0  0
  7 40  1  0  0  0  0
  7 41  1  0  0  0  0
  8  6  1  0  0  0  0
  8 42  1  0  0  0  0
  8 43  1  0  0  0  0
  9  7  1  0  0  0  0
  9 44  1  0  0  0  0
  9 45  1  0  0  0  0
 10  9  1  0  0  0  0
 10 46  1  0  0  0  0
 10 47  1  0  0  0  0
 11 10  1  0  0  0  0
 11 48  1  0  0  0  0
 11 49  1  0  0  0  0
 12 11  1  0  0  0  0
 12 50  1  0  0  0  0
 12 51  1  0  0  0  0
 13 12  1  0  0  0  0
 13 52  1  0  0  0  0
 13 53  1  0  0  0  0
 14 13  1  0  0  0  0
 14 54  1  0  0  0  0
 14 55  1  0  0  0  0
 15 14  1  0  0  0  0
 15 56  1  0  0  0  0
 15 57  1  0  0  0  0
 16 15  1  0  0  0  0
 16 58  1  0  0  0  0
 16 59  1  0  0  0  0
 17  8  1  0  0  0  0
 17 60  1  0  0  0  0
 17 61  1  0  0  0  0
 18 16  1  0  0  0  0
 18 62  1  0  0  0  0
 18 63  1  0  0  0  0
 19 17  1  0  0  0  0
 19 64  1  0  0  0  0
 19 65  1  0  0  0  0
 20 18  1  0  0  0  0
 20 66  1  0  0  0  0
 20 67  1  0  0  0  0
 21 19  1  0  0  0  0
 21 68  1  0  0  0  0
 21 69  1  0  0  0  0
 22 20  1  0  0  0  0
 22 70  1  0  0  0  0
 22 71  1  0  0  0  0
 23 21  1  0  0  0  0
 24 23  2  0  0  0  0
 25 22  1  0  0  0  0
 25 23  1  0  0  0  0
M  END
>  <DRUGBANK_ID>
DB02425

>  <SECONDARY_ACCESSION_NUMBERS>
EXPT00974

>  <COMMON_NAME>
Hexadecyl Octanoate

>  <CAS_NUMBER>
29710-31-4

>  <UNII>
418Q5V6PLJ

>  <SYNONYMS>
Caprylic acid, cetyl ester; Cetyl caprylate; Cetyl octanoate; Hexadecyl caprylate; Hexadecyl N-octanoate

$$$$
