
 OpenBabel10282417153D

 62 66  0  0  1  0  0  0  0  0999 V2000
    0.5808   -1.0024   -0.4027 C   0  0  0  0  0  0  0  0  0  0  0  0
   -0.2276   -1.9416    0.0741 C   0  0  0  0  0  0  0  0  0  0  0  0
    0.1708    0.3286   -0.5160 C   0  0  0  0  0  0  0  0  0  0  0  0
    2.1889   -0.1130    1.9969 C   0  0  0  0  0  0  0  0  0  0  0  0
    3.0409    0.1526    0.7249 C   0  0  0  0  0  0  0  0  0  0  0  0
   -1.5439   -1.5413    0.2093 C   0  0  0  0  0  0  0  0  0  0  0  0
   -0.9108    0.7600    0.2118 C   0  0  0  0  0  0  0  0  0  0  0  0
   -1.0078    2.7606   -1.8455 C   0  0  0  0  0  0  0  0  0  0  0  0
   -2.6678    4.0546   -0.8243 C   0  0  0  0  0  0  0  0  0  0  0  0
   -5.1213   -0.5439   -0.9320 C   0  0  0  0  0  0  0  0  0  0  0  0
   -6.6257    3.1521   -1.9398 C   0  0  0  0  0  0  0  0  0  0  0  0
   -0.0703    3.4967   -1.0909 C   0  0  0  0  0  0  0  0  0  0  0  0
   -1.7281    4.8153   -0.1094 C   0  0  0  0  0  0  0  0  0  0  0  0
   -4.3519    0.1516    0.2577 C   0  0  0  0  0  0  0  0  0  0  0  0
   -5.2612    2.9678   -2.0208 C   0  0  0  0  0  0  0  0  0  0  0  0
    1.1217    0.9408    2.1163 C   0  0  0  0  0  0  0  0  0  0  0  0
    2.6396    1.5136    0.2405 C   0  0  0  0  0  0  0  0  0  0  0  0
    1.9409    3.1739    1.8531 C   0  0  0  0  0  0  0  0  0  0  0  0
    1.7806    4.3878    0.9281 C   0  0  0  0  0  0  0  0  0  0  0  0
   -6.9585    0.7954   -1.7773 C   0  0  0  0  0  0  0  0  0  0  0  0
   -1.8350   -0.1225    0.2414 C   0  0  0  0  0  0  0  0  0  0  0  0
   -2.3399    2.8606   -1.5023 C   0  0  0  0  0  0  0  0  0  0  0  0
   -5.5818    0.6739   -1.6429 C   0  0  0  0  0  0  0  0  0  0  0  0
   -7.4632    2.0556   -1.9457 C   0  0  0  0  0  0  0  0  0  0  0  0
   -0.4100    4.4287   -0.1244 C   0  0  0  0  0  0  0  0  0  0  0  0
   -3.0495    0.4665   -0.4005 C   0  0  2  0  0  0  0  0  0  0  0  0
   -4.6831    1.7341   -1.8510 C   0  0  0  0  0  0  0  0  0  0  0  0
   -3.1826    1.5509   -1.6070 C   0  0  1  0  0  0  0  0  0  0  0  0
    1.5554    1.9710    1.1548 N   0  0  0  0  0  0  0  0  0  0  0  0
   -8.7960    2.2139   -2.1170 O   0  0  0  0  0  0  0  0  0  0  0  0
    0.4349    4.9134    0.8354 O   0  0  0  0  0  0  0  0  0  0  0  0
   -2.9105   -0.3797   -1.0459 H   0  0  0  0  0  0  0  0  0  0  0  0
   -2.8046    0.9894   -2.4892 H   0  0  0  0  0  0  0  0  0  0  0  0
    1.5880   -1.3377   -0.5722 H   0  0  0  0  0  0  0  0  0  0  0  0
    0.1575   -2.9540    0.1279 H   0  0  0  0  0  0  0  0  0  0  0  0
    0.7211    1.1001   -0.9454 H   0  0  0  0  0  0  0  0  0  0  0  0
    2.8206    0.0634    2.8590 H   0  0  0  0  0  0  0  0  0  0  0  0
    1.7371   -1.1105    2.0934 H   0  0  0  0  0  0  0  0  0  0  0  0
    4.0960    0.0487    0.9430 H   0  0  0  0  0  0  0  0  0  0  0  0
    2.9900   -0.4824   -0.1653 H   0  0  0  0  0  0  0  0  0  0  0  0
   -2.2841   -2.2961    0.0721 H   0  0  0  0  0  0  0  0  0  0  0  0
   -1.1074    1.8166    0.4582 H   0  0  0  0  0  0  0  0  0  0  0  0
   -0.6707    1.8722   -2.3837 H   0  0  0  0  0  0  0  0  0  0  0  0
   -3.6426    4.5156   -0.8377 H   0  0  0  0  0  0  0  0  0  0  0  0
   -5.4523   -1.3097   -1.6600 H   0  0  0  0  0  0  0  0  0  0  0  0
   -4.2632   -1.0319   -1.4167 H   0  0  0  0  0  0  0  0  0  0  0  0
   -6.9854    4.1694   -1.8868 H   0  0  0  0  0  0  0  0  0  0  0  0
    0.9259    3.1025   -1.0575 H   0  0  0  0  0  0  0  0  0  0  0  0
   -2.0789    5.6475    0.4940 H   0  0  0  0  0  0  0  0  0  0  0  0
   -4.7816    1.1426    0.5541 H   0  0  0  0  0  0  0  0  0  0  0  0
   -4.1536   -0.2980    1.2376 H   0  0  0  0  0  0  0  0  0  0  0  0
   -4.6710    3.8485   -2.1523 H   0  0  0  0  0  0  0  0  0  0  0  0
    0.1487    0.4505    1.9930 H   0  0  0  0  0  0  0  0  0  0  0  0
    0.8809    1.3348    3.1142 H   0  0  0  0  0  0  0  0  0  0  0  0
    3.4631    2.2097    0.0781 H   0  0  0  0  0  0  0  0  0  0  0  0
    2.3664    1.4198   -0.8275 H   0  0  0  0  0  0  0  0  0  0  0  0
    2.9799    3.0204    2.1706 H   0  0  0  0  0  0  0  0  0  0  0  0
    1.3372    3.3214    2.7538 H   0  0  0  0  0  0  0  0  0  0  0  0
    2.2310    4.2201   -0.0565 H   0  0  0  0  0  0  0  0  0  0  0  0
    2.3824    5.1711    1.3887 H   0  0  0  0  0  0  0  0  0  0  0  0
   -7.6026   -0.0695   -1.6522 H   0  0  0  0  0  0  0  0  0  0  0  0
   -8.9181    3.1419   -2.3750 H   0  0  0  0  0  0  0  0  0  0  0  0
  1 34  1  0  0  0  0
  2  1  2  0  0  0  0
  2 35  1  0  0  0  0
  3  1  1  0  0  0  0
  3 36  1  0  0  0  0
  4 37  1  0  0  0  0
  4 38  1  0  0  0  0
  5  4  1  0  0  0  0
  5 39  1  0  0  0  0
  5 40  1  0  0  0  0
  6  2  1  0  0  0  0
  6 41  1  0  0  0  0
  7  3  2  0  0  0  0
  7 42  1  0  0  0  0
  8 43  1  0  0  0  0
  9 44  1  0  0  0  0
 10 45  1  0  0  0  0
 10 46  1  0  0  0  0
 11 47  1  0  0  0  0
 12  8  1  0  0  0  0
 12 48  1  0  0  0  0
 13  9  2  0  0  0  0
 13 49  1  0  0  0  0
 14 10  1  0  0  0  0
 14 50  1  0  0  0  0
 14 51  1  0  0  0  0
 15 11  1  0  0  0  0
 15 52  1  0  0  0  0
 16  4  1  0  0  0  0
 16 53  1  0  0  0  0
 16 54  1  0  0  0  0
 17  5  1  0  0  0  0
 17 55  1  0  0  0  0
 17 56  1  0  0  0  0
 18 57  1  0  0  0  0
 18 58  1  0  0  0  0
 19 18  1  0  0  0  0
 19 59  1  0  0  0  0
 19 60  1  0  0  0  0
 20 61  1  0  0  0  0
 21  6  2  0  0  0  0
 21  7  1  0  0  0  0
 22  8  2  0  0  0  0
 22  9  1  0  0  0  0
 23 10  1  0  0  0  0
 23 20  2  0  0  0  0
 24 11  2  0  0  0  0
 24 20  1  0  0  0  0
 25 12  2  0  0  0  0
 25 13  1  0  0  0  0
 26 14  1  0  0  0  0
 26 21  1  0  0  0  0
 26 32  1  6  0  0  0
 27 15  2  0  0  0  0
 27 23  1  0  0  0  0
 28 26  1  0  0  0  0
 28 27  1  0  0  0  0
 28 33  1  6  0  0  0
 28 22  1  0  0  0  0
 29 16  1  0  0  0  0
 29 17  1  0  0  0  0
 29 18  1  0  0  0  0
 30 24  1  0  0  0  0
 30 62  1  0  0  0  0
 31 19  1  0  0  0  0
 31 25  1  0  0  0  0
M  END
>  <DRUGBANK_ID>
DB06202

>  <COMMON_NAME>
Lasofoxifene

>  <CAS_NUMBER>
180916-16-9

>  <UNII>
337G83N988

>  <SYNONYMS>
(-)-cis-5,6,7,8-Tetrahydro-6-phenyl-5-(p-(2-(1-pyrrolidinyl)ethoxy)phenyl)-2-naphthol; Lasofoxifene

$$$$
