
 OpenBabel10282417223D

 70 73  0  0  0  0  0  0  0  0999 V2000
    2.6671   -3.5147    1.1234 C   0  0  1  0  0  0  0  0  0  0  0  0
    0.8459   -1.6244   -2.5204 C   0  0  1  0  0  0  0  0  0  0  0  0
    4.0866   -3.1267    1.5357 C   0  0  0  0  0  0  0  0  0  0  0  0
    2.2145   -2.2527   -2.5029 C   0  0  2  0  0  0  0  0  0  0  0  0
    2.7551   -2.3765   -1.1332 C   0  0  1  0  0  0  0  0  0  0  0  0
    2.0677   -3.4197   -0.2944 C   0  0  2  0  0  0  0  0  0  0  0  0
    1.2393   -1.5161   -4.1879 C   0  0  2  0  0  0  0  0  0  0  0  0
    2.0655   -2.2392    1.5852 C   0  0  0  0  0  0  0  0  0  0  0  0
    0.0476   -2.7939   -1.5200 C   0  0  0  0  0  0  0  0  0  0  0  0
    0.5381   -3.1649   -0.1820 C   0  0  2  0  0  0  0  0  0  0  0  0
    2.0986   -3.5039   -3.4714 C   0  0  0  0  0  0  0  0  0  0  0  0
    1.3853   -3.0292   -4.7169 C   0  0  1  0  0  0  0  0  0  0  0  0
    4.2144   -2.6404   -1.2123 C   0  0  0  0  0  0  0  0  0  0  0  0
    4.8645   -2.6934    0.2054 C   0  0  2  0  0  0  0  0  0  0  0  0
    4.1713   -2.4530    2.7975 C   0  0  0  0  0  0  0  0  0  0  0  0
   -1.6911   -0.0343   -3.5097 C   0  0  0  0  0  0  0  0  0  0  0  0
    1.6383   -1.9106    2.7937 C   0  0  0  0  0  0  0  0  0  0  0  0
    1.6586    0.0186   -4.3254 C   0  0  0  0  0  0  0  0  0  0  0  0
    2.9841   -1.4093    3.1366 C   0  0  0  0  0  0  0  0  0  0  0  0
   -1.9092   -1.3626   -4.3203 C   0  0  0  0  0  0  0  0  0  0  0  0
   -0.7395    0.9177   -3.8424 O   0  0  0  0  0  0  0  0  0  0  0  0
   -2.3724    0.1657   -2.5029 O   0  0  0  0  0  0  0  0  0  0  0  0
    0.4847    1.0129   -4.6909 C   0  0  0  0  0  0  0  0  0  0  0  0
    2.7983    0.4382   -4.1254 O   0  0  0  0  0  0  0  0  0  0  0  0
    3.1310   -0.1934    3.4684 O   0  0  0  0  0  0  0  0  0  0  0  0
    2.2150   -4.9140    1.5956 C   0  0  0  0  0  0  0  0  0  0  0  0
    0.6093   -0.3007   -1.6681 C   0  0  0  0  0  0  0  0  0  0  0  0
    5.9670   -3.4740    0.0246 F   0  0  0  0  0  0  0  0  0  0  0  0
   -0.0362   -2.1437    0.6402 O   0  0  0  0  0  0  0  0  0  0  0  0
    0.0096   -3.6368   -5.1079 C   0  0  0  0  0  0  0  0  0  0  0  0
   -1.8705   -2.6350   -3.3037 C   0  0  0  0  0  0  0  0  0  0  0  0
   -3.2672   -1.7278   -4.7808 C   0  0  0  0  0  0  0  0  0  0  0  0
   -1.1999   -1.0918   -5.6954 C   0  0  0  0  0  0  0  0  0  0  0  0
    2.1830   -4.3618   -0.8592 H   0  0  0  0  0  0  0  0  0  0  0  0
    2.6730   -1.3733   -0.7288 H   0  0  0  0  0  0  0  0  0  0  0  0
    2.9127   -1.5303   -2.9383 H   0  0  0  0  0  0  0  0  0  0  0  0
    1.1376   -1.3532   -5.2759 H   0  0  0  0  0  0  0  0  0  0  0  0
    2.5307   -1.3720    1.0593 H   0  0  0  0  0  0  0  0  0  0  0  0
   -0.9361   -2.3842   -1.2359 H   0  0  0  0  0  0  0  0  0  0  0  0
   -0.0596   -3.7878   -1.9669 H   0  0  0  0  0  0  0  0  0  0  0  0
    0.0524   -4.0764    0.1885 H   0  0  0  0  0  0  0  0  0  0  0  0
    3.0986   -3.7705   -3.7940 H   0  0  0  0  0  0  0  0  0  0  0  0
    1.5809   -4.3684   -3.0541 H   0  0  0  0  0  0  0  0  0  0  0  0
    1.9545   -3.3083   -5.6148 H   0  0  0  0  0  0  0  0  0  0  0  0
    4.6529   -1.8046   -1.7899 H   0  0  0  0  0  0  0  0  0  0  0  0
    4.3829   -3.5081   -1.8673 H   0  0  0  0  0  0  0  0  0  0  0  0
    5.1831   -1.6610    0.3700 H   0  0  0  0  0  0  0  0  0  0  0  0
    3.8266   -2.9857    3.7275 H   0  0  0  0  0  0  0  0  0  0  0  0
    0.9238   -1.0792    2.7937 H   0  0  0  0  0  0  0  0  0  0  0  0
    0.8869    2.0323   -4.6369 H   0  0  0  0  0  0  0  0  0  0  0  0
    0.2014    0.9602   -5.7524 H   0  0  0  0  0  0  0  0  0  0  0  0
    2.3133   -5.6650    0.7855 H   0  0  0  0  0  0  0  0  0  0  0  0
    2.7947   -5.3081    2.4275 H   0  0  0  0  0  0  0  0  0  0  0  0
    1.1546   -4.9134    1.8634 H   0  0  0  0  0  0  0  0  0  0  0  0
    1.1969   -0.2389   -0.7576 H   0  0  0  0  0  0  0  0  0  0  0  0
    0.7730    0.6723   -2.1250 H   0  0  0  0  0  0  0  0  0  0  0  0
   -0.4202   -0.2804   -1.2706 H   0  0  0  0  0  0  0  0  0  0  0  0
    0.4786   -1.3302    0.5196 H   0  0  0  0  0  0  0  0  0  0  0  0
   -0.4469   -2.8208   -4.6694 H   0  0  0  0  0  0  0  0  0  0  0  0
   -0.5518   -3.4864   -6.0481 H   0  0  0  0  0  0  0  0  0  0  0  0
   -0.4365   -4.5107   -4.6365 H   0  0  0  0  0  0  0  0  0  0  0  0
   -2.4190   -2.5423   -2.3567 H   0  0  0  0  0  0  0  0  0  0  0  0
   -1.9692   -3.7155   -3.5529 H   0  0  0  0  0  0  0  0  0  0  0  0
   -0.8552   -2.6734   -3.1083 H   0  0  0  0  0  0  0  0  0  0  0  0
   -3.6178   -0.9852   -5.4759 H   0  0  0  0  0  0  0  0  0  0  0  0
   -3.1610   -2.7106   -5.2756 H   0  0  0  0  0  0  0  0  0  0  0  0
   -3.9204   -1.8357   -3.9148 H   0  0  0  0  0  0  0  0  0  0  0  0
   -1.5484   -0.2392   -6.2786 H   0  0  0  0  0  0  0  0  0  0  0  0
   -0.3239   -0.7079   -5.3107 H   0  0  0  0  0  0  0  0  0  0  0  0
   -0.6983   -1.7528   -6.4076 H   0  0  0  0  0  0  0  0  0  0  0  0
  1 26  1  6  0  0  0
  2  9  1  0  0  0  0
  2 27  1  1  0  0  0
  2  4  1  0  0  0  0
  3  1  1  0  0  0  0
  4  5  1  0  0  0  0
  4 36  1  1  0  0  0
  5  6  1  0  0  0  0
  5 35  1  1  0  0  0
  5 13  1  0  0  0  0
  6  1  1  0  0  0  0
  6 34  1  6  0  0  0
  7  2  1  0  0  0  0
  7 37  1  6  0  0  0
  7 18  1  0  0  0  0
  8  1  1  0  0  0  0
  8 38  1  0  0  0  0
  9 10  1  0  0  0  0
  9 39  1  0  0  0  0
  9 40  1  0  0  0  0
 10  6  1  0  0  0  0
 10 29  1  0  0  0  0
 10 41  1  1  0  0  0
 11  4  1  0  0  0  0
 11 42  1  0  0  0  0
 11 43  1  0  0  0  0
 12 11  1  0  0  0  0
 12  7  1  0  0  0  0
 12 44  1  6  0  0  0
 12 30  1  0  0  0  0
 13 14  1  0  0  0  0
 13 45  1  0  0  0  0
 13 46  1  0  0  0  0
 14  3  1  0  0  0  0
 14 47  1  1  0  0  0
 14 28  1  0  0  0  0
 15  3  2  0  0  0  0
 15 48  1  0  0  0  0
 16 21  1  0  0  0  0
 17  8  2  0  0  0  0
 17 19  1  0  0  0  0
 17 49  1  0  0  0  0
 19 15  1  0  0  0  0
 20 16  1  0  0  0  0
 21 23  1  0  0  0  0
 22 16  2  0  0  0  0
 23 18  1  0  0  0  0
 23 50  1  0  0  0  0
 23 51  1  0  0  0  0
 24 18  2  0  0  0  0
 25 19  2  0  0  0  0
 26 52  1  0  0  0  0
 26 53  1  0  0  0  0
 26 54  1  0  0  0  0
 27 55  1  0  0  0  0
 27 56  1  0  0  0  0
 27 57  1  0  0  0  0
 29 58  1  0  0  0  0
 30 59  1  0  0  0  0
 30 60  1  0  0  0  0
 30 61  1  0  0  0  0
 31 20  1  0  0  0  0
 31 62  1  0  0  0  0
 31 63  1  0  0  0  0
 31 64  1  0  0  0  0
 32 20  1  0  0  0  0
 32 65  1  0  0  0  0
 32 66  1  0  0  0  0
 32 67  1  0  0  0  0
 33 20  1  0  0  0  0
 33 68  1  0  0  0  0
 33 69  1  0  0  0  0
 33 70  1  0  0  0  0
M  END
>  <DRUGBANK_ID>
DB15777

>  <COMMON_NAME>
Fluocortolone pivalate

>  <CAS_NUMBER>
29205-06-9

>  <UNII>
9J8AL6K50Q

>  <SYNONYMS>
Fluocortolone 21-pivalate; Fluocortolone trimethylacetate

$$$$
