
 OpenBabel10282417203D

 35 33  0  0  1  0  0  0  0  0999 V2000
   -3.4407   -0.4454   -2.6282 C   0  0  0  0  0  0  0  0  0  0  0  0
   -2.0218   -0.7844   -2.4479 N   0  0  0  0  0  0  0  0  0  0  0  0
   -1.2261   -0.1391   -3.5021 C   0  0  0  0  0  0  0  0  0  0  0  0
   -1.4015    1.3684   -3.4183 C   0  0  1  0  0  0  0  0  0  0  0  0
   -0.8949    1.8539   -2.0700 C   0  0  2  0  0  0  0  0  0  0  0  0
   -1.4015    0.9290   -0.9754 C   0  0  1  0  0  0  0  0  0  0  0  0
   -0.2730    0.2627   -0.2053 C   0  0  1  0  0  0  0  0  0  0  0  0
    0.5927    1.3278    0.4477 C   0  0  0  0  0  0  0  0  0  0  0  0
   -0.1982    2.0991    1.3399 O   0  0  0  0  0  0  0  0  0  0  0  0
   -0.8184   -0.5835    0.7961 O   0  0  0  0  0  0  0  0  0  0  0  0
   -2.1924    1.7003   -0.0832 O   0  0  0  0  0  0  0  0  0  0  0  0
   -1.3682    3.1716   -1.8330 O   0  0  0  0  0  0  0  0  0  0  0  0
   -0.6329    1.9918   -4.4367 O   0  0  0  0  0  0  0  0  0  0  0  0
    1.0155    0.0833   -0.0532 O   0  0  0  0  0  0  0  0  0  0  0  0
    0.3322   -1.2239   -1.4768 Sb  0  0  0  0  0  0  0  0  0  0  0  0
    0.9438   -2.9124   -1.1008 O   0  0  0  0  0  0  0  0  0  0  0  0
   -1.5026   -1.2239   -1.4768 O   0  0  0  0  0  0  0  0  0  0  0  0
   -3.7709   -0.7902   -3.5858 H   0  0  0  0  0  0  0  0  0  0  0  0
   -3.5643    0.6158   -2.5692 H   0  0  0  0  0  0  0  0  0  0  0  0
   -4.0199   -0.9151   -1.8608 H   0  0  0  0  0  0  0  0  0  0  0  0
   -1.7070   -0.4557   -1.5350 H   0  0  0  0  0  0  0  0  0  0  0  0
   -0.1932   -0.3858   -3.3709 H   0  0  0  0  0  0  0  0  0  0  0  0
   -1.5563   -0.4839   -4.4597 H   0  0  0  0  0  0  0  0  0  0  0  0
   -2.4344    1.6151   -3.5495 H   0  0  0  0  0  0  0  0  0  0  0  0
    0.1751    1.8539   -2.0700 H   0  0  0  0  0  0  0  0  0  0  0  0
   -2.0109    0.1792   -1.4351 H   0  0  0  0  0  0  0  0  0  0  0  0
    0.3229   -0.3185   -0.8776 H   0  0  0  0  0  0  0  0  0  0  0  0
    1.3871    0.8588    0.9897 H   0  0  0  0  0  0  0  0  0  0  0  0
    1.0037    1.9655   -0.3069 H   0  0  0  0  0  0  0  0  0  0  0  0
   -0.9406    2.5375    0.8333 H   0  0  0  0  0  0  0  0  0  0  0  0
   -1.3753   -0.0403    1.4244 H   0  0  0  0  0  0  0  0  0  0  0  0
   -1.6228    2.4011    0.3465 H   0  0  0  0  0  0  0  0  0  0  0  0
   -2.3682    3.1716   -1.8330 H   0  0  0  0  0  0  0  0  0  0  0  0
    0.3324    1.7612   -4.3140 H   0  0  0  0  0  0  0  0  0  0  0  0
    2.0155    0.0833   -0.0532 H   0  0  0  0  0  0  0  0  0  0  0  0
  1  2  1  0  0  0  0
  1 18  1  0  0  0  0
  1 19  1  0  0  0  0
  1 20  1  0  0  0  0
  2  3  1  0  0  0  0
  2 21  1  0  0  0  0
  3  4  1  0  0  0  0
  3 22  1  0  0  0  0
  3 23  1  0  0  0  0
  4 13  1  0  0  0  0
  4 24  1  6  0  0  0
  5 12  1  0  0  0  0
  5 25  1  6  0  0  0
  5  6  1  0  0  0  0
  5  4  1  0  0  0  0
  6  7  1  0  0  0  0
  6 11  1  0  0  0  0
  6 26  1  6  0  0  0
  7  8  1  0  0  0  0
  7 10  1  0  0  0  0
  7 27  1  6  0  0  0
  8  9  1  0  0  0  0
  8 28  1  0  0  0  0
  8 29  1  0  0  0  0
  9 30  1  0  0  0  0
 10 31  1  0  0  0  0
 11 32  1  0  0  0  0
 12 33  1  0  0  0  0
 13 34  1  0  0  0  0
 14 15  1  0  0  0  0
 14 35  1  0  0  0  0
 15 16  2  0  0  0  0
 15 17  2  0  0  0  0
M  END
>  <DRUGBANK_ID>
DB13732

>  <COMMON_NAME>
Meglumine antimoniate

>  <CAS_NUMBER>
133-51-7

>  <UNII>
75G4TW236W

>  <SYNONYMS>
Antimoniato de meglumina; Glucantim; Glucantime; Meglumine antimonate; Meglumine antimoniate

$$$$
