PSG
 OpenBabel10282417173D

 36 37  0  0  0  0  0  0  0  0999 V2000
    3.0397    3.2735   -3.3706 C   0  0  0  0  0  0  0  0  0  0  0  0
    2.9625    3.2169   -4.7695 C   0  0  0  0  0  0  0  0  0  0  0  0
    3.8646    3.9534   -5.5360 C   0  0  0  0  0  0  0  0  0  0  0  0
    4.8736    4.6886   -4.9051 C   0  0  0  0  0  0  0  0  0  0  0  0
    5.0143    4.6277   -3.5037 C   0  0  0  0  0  0  0  0  0  0  0  0
    4.1379    3.8570   -2.7228 C   0  0  0  0  0  0  0  0  0  0  0  0
    3.6689    4.0243   -6.9912 N   0  3  0  0  0  0  0  0  0  0  0  0
    4.3940    4.8075   -7.6307 O   0  0  0  0  0  0  0  0  0  0  0  0
    2.7746    3.3331   -7.4896 O   0  5  0  0  0  0  0  0  0  0  0  0
    4.5353    3.5346   -0.9735 S   0  0  0  0  0  0  0  0  0  0  0  0
    3.6990    1.9027   -0.6289 C   0  0  1  0  0  0  0  0  0  0  0  0
    4.2433    0.7779   -1.5432 C   0  0  1  0  0  0  0  0  0  0  0  0
    3.3999   -0.4782   -1.3499 C   0  0  2  0  0  0  0  0  0  0  0  0
    3.4331   -0.9172    0.0977 C   0  0  1  0  0  0  0  0  0  0  0  0
    3.0297    0.2567    1.0022 C   0  0  1  0  0  0  0  0  0  0  0  0
    3.1513   -0.2244    2.4565 C   0  0  0  0  0  0  0  0  0  0  0  0
    4.2453    1.0151   -2.9446 O   0  0  0  0  0  0  0  0  0  0  0  0
    3.8813   -1.5167   -2.2085 O   0  0  0  0  0  0  0  0  0  0  0  0
    2.5824   -2.0479    0.2943 O   0  0  0  0  0  0  0  0  0  0  0  0
    3.8429    1.4424    0.7517 O   0  0  0  0  0  0  0  0  0  0  0  0
    2.7396    0.7951    3.3553 O   0  0  0  0  0  0  0  0  0  0  0  0
    2.6349    2.1155   -0.7651 H   0  0  0  0  0  0  0  0  0  0  0  0
    5.2846    0.5724   -1.2712 H   0  0  0  0  0  0  0  0  0  0  0  0
    2.3649   -0.2939   -1.6695 H   0  0  0  0  0  0  0  0  0  0  0  0
    4.4538   -1.2429    0.3321 H   0  0  0  0  0  0  0  0  0  0  0  0
    1.9817    0.5392    0.8333 H   0  0  0  0  0  0  0  0  0  0  0  0
    2.2840    2.7355   -2.8104 H   0  0  0  0  0  0  0  0  0  0  0  0
    2.2142    2.5798   -5.2377 H   0  0  0  0  0  0  0  0  0  0  0  0
    5.5634    5.2990   -5.4860 H   0  0  0  0  0  0  0  0  0  0  0  0
    5.8176    5.1921   -3.0340 H   0  0  0  0  0  0  0  0  0  0  0  0
    2.5111   -1.0985    2.6306 H   0  0  0  0  0  0  0  0  0  0  0  0
    4.1815   -0.5060    2.6975 H   0  0  0  0  0  0  0  0  0  0  0  0
    3.3415    0.8573   -3.2736 H   0  0  0  0  0  0  0  0  0  0  0  0
    4.8532   -1.5377   -2.1281 H   0  0  0  0  0  0  0  0  0  0  0  0
    1.7002   -1.8570   -0.0698 H   0  0  0  0  0  0  0  0  0  0  0  0
    3.3222    1.5554    3.1771 H   0  0  0  0  0  0  0  0  0  0  0  0
  1  2  2  0  0  0  0
  1  6  1  0  0  0  0
  1 27  1  0  0  0  0
  2  3  1  0  0  0  0
  2 28  1  0  0  0  0
  3  4  2  0  0  0  0
  3  7  1  0  0  0  0
  4  5  1  0  0  0  0
  4 29  1  0  0  0  0
  5  6  2  0  0  0  0
  5 30  1  0  0  0  0
  6 10  1  0  0  0  0
  7  8  2  0  0  0  0
  7  9  1  0  0  0  0
 11 12  1  0  0  0  0
 11 20  1  0  0  0  0
 11 22  1  6  0  0  0
 11 10  1  0  0  0  0
 12 13  1  0  0  0  0
 12 17  1  0  0  0  0
 12 23  1  1  0  0  0
 13 14  1  0  0  0  0
 13 18  1  0  0  0  0
 13 24  1  6  0  0  0
 14 15  1  0  0  0  0
 14 19  1  0  0  0  0
 14 25  1  1  0  0  0
 15 16  1  0  0  0  0
 15 20  1  0  0  0  0
 15 26  1  6  0  0  0
 16 21  1  0  0  0  0
 16 31  1  0  0  0  0
 16 32  1  0  0  0  0
 17 33  1  0  0  0  0
 18 34  1  0  0  0  0
 19 35  1  0  0  0  0
 21 36  1  0  0  0  0
M  CHG  2   7   1   9  -1
M  END
>  <DRUGBANK_ID>
DB08430

>  <COMMON_NAME>
PARA-NITROPHENYL 1-THIO-BETA-D-GLUCOPYRANOSIDE

$$$$
