
 OpenBabel10282417123D

 11 10  0  0  0  0  0  0  0  0999 V2000
    0.8502    0.0722    0.0809 O   0  0  0  0  0  0  0  0  0  0  0  0
    0.2719    0.6854   -0.9711 C   0  0  0  0  0  0  0  0  0  0  0  0
    0.9498    1.2670   -1.8039 O   0  0  0  0  0  0  0  0  0  0  0  0
   -1.2194    0.6351   -0.9228 C   0  0  0  0  0  0  0  0  0  0  0  0
   -1.7369   -0.7653   -1.0258 C   0  0  0  0  0  0  0  0  0  0  0  0
   -2.5579   -1.1524   -0.0237 O   0  0  0  0  0  0  0  0  0  0  0  0
   -1.4734   -1.5117   -1.9582 O   0  0  0  0  0  0  0  0  0  0  0  0
    1.8163    0.1524   -0.0788 H   0  0  0  0  0  0  0  0  0  0  0  0
   -1.5677    1.1442   -0.0189 H   0  0  0  0  0  0  0  0  0  0  0  0
   -1.6191    1.1972   -1.7746 H   0  0  0  0  0  0  0  0  0  0  0  0
   -2.6979   -0.5130    0.6991 H   0  0  0  0  0  0  0  0  0  0  0  0
  1  2  1  0  0  0  0
  1  8  1  0  0  0  0
  2  3  2  0  0  0  0
  2  4  1  0  0  0  0
  4  5  1  0  0  0  0
  4  9  1  0  0  0  0
  4 10  1  0  0  0  0
  5  6  1  0  0  0  0
  5  7  2  0  0  0  0
  6 11  1  0  0  0  0
M  END
>  <DRUGBANK_ID>
DB02175

>  <SECONDARY_ACCESSION_NUMBERS>
EXPT02179

>  <COMMON_NAME>
Malonic acid

>  <CAS_NUMBER>
141-82-2

>  <UNII>
9KX7ZMG0MK

>  <SYNONYMS>
Propanedioic acid

$$$$
