
 OpenBabel10282417133D

 41 40  0  0  1  0  0  0  0  0999 V2000
    8.8056    1.7592    2.5286 S   0  0  0  0  0  0  0  0  0  0  0  0
   10.9684    1.1558    1.2849 O   0  0  0  0  0  0  0  0  0  0  0  0
    4.1719    3.8650    1.4241 O   0  0  0  0  0  0  0  0  0  0  0  0
    3.6730   -1.4195   -2.7469 O   0  0  0  0  0  0  0  0  0  0  0  0
    3.1183    1.9702    1.3001 O   0  0  0  0  0  0  0  0  0  0  0  0
    2.5242   -2.2132   -0.9297 O   0  0  0  0  0  0  0  0  0  0  0  0
    4.8628    1.2634    2.8943 O   0  0  0  0  0  0  0  0  0  0  0  0
    5.4300   -3.0089    0.5990 O   0  0  0  0  0  0  0  0  0  0  0  0
    6.1931   -1.6997    2.1570 N   0  0  0  0  0  0  0  0  0  0  0  0
    4.2474    0.0814    0.8116 N   0  0  0  0  0  0  0  0  0  0  0  0
    6.6889    1.5382    0.8686 N   0  0  0  0  0  0  0  0  0  0  0  0
    5.6791    2.1379    0.1164 C   0  0  1  0  0  0  0  0  0  0  0  0
    6.5544   -0.4056    2.5404 C   0  0  1  0  0  0  0  0  0  0  0  0
    9.9432    2.1009    1.1017 C   0  0  0  0  0  0  0  0  0  0  0  0
    8.1459   -0.0053    2.0464 C   0  0  0  0  0  0  0  0  0  0  0  0
    6.0977    0.9445   -0.9710 C   0  0  0  0  0  0  0  0  0  0  0  0
    4.1889   -0.6289   -0.5299 C   0  0  0  0  0  0  0  0  0  0  0  0
    6.6993   -0.8739   -0.5180 C   0  0  0  0  0  0  0  0  0  0  0  0
    4.1407    2.5924    1.0080 C   0  0  0  0  0  0  0  0  0  0  0  0
    3.3145   -1.4865   -1.3946 C   0  0  0  0  0  0  0  0  0  0  0  0
    5.0491    0.2844    2.1329 C   0  0  0  0  0  0  0  0  0  0  0  0
    6.1555   -2.0218    0.8297 C   0  0  0  0  0  0  0  0  0  0  0  0
   10.9767    1.1046    2.2605 H   0  0  0  0  0  0  0  0  0  0  0  0
    5.1097    4.0559    1.4921 H   0  0  0  0  0  0  0  0  0  0  0  0
    4.4013   -0.8475   -3.0807 H   0  0  0  0  0  0  0  0  0  0  0  0
    5.3846   -2.0648    2.6867 H   0  0  0  0  0  0  0  0  0  0  0  0
    3.5191    0.7694    0.6247 H   0  0  0  0  0  0  0  0  0  0  0  0
    6.4961    0.5446    0.8312 H   0  0  0  0  0  0  0  0  0  0  0  0
    6.7833    1.8176    1.8373 H   0  0  0  0  0  0  0  0  0  0  0  0
    6.1913    3.0827    0.0135 H   0  0  0  0  0  0  0  0  0  0  0  0
    6.5653   -0.2729    3.6377 H   0  0  0  0  0  0  0  0  0  0  0  0
    9.5525    2.0426    0.0711 H   0  0  0  0  0  0  0  0  0  0  0  0
   10.3871    3.1022    1.2022 H   0  0  0  0  0  0  0  0  0  0  0  0
    8.2960    0.0133    0.9605 H   0  0  0  0  0  0  0  0  0  0  0  0
    8.8569   -0.7964    2.3057 H   0  0  0  0  0  0  0  0  0  0  0  0
    6.6929    1.2883   -1.8276 H   0  0  0  0  0  0  0  0  0  0  0  0
    5.1367    1.0823   -1.4913 H   0  0  0  0  0  0  0  0  0  0  0  0
    4.8676   -0.4463   -1.3485 H   0  0  0  0  0  0  0  0  0  0  0  0
    4.7402   -1.3460   -0.1048 H   0  0  0  0  0  0  0  0  0  0  0  0
    7.7908   -0.9940   -0.5497 H   0  0  0  0  0  0  0  0  0  0  0  0
    6.4394   -1.5351   -1.3892 H   0  0  0  0  0  0  0  0  0  0  0  0
  1 14  1  0  0  0  0
  1 15  1  0  0  0  0
  2 14  1  0  0  0  0
  2 23  1  0  0  0  0
  3 19  1  0  0  0  0
  3 24  1  0  0  0  0
  4 20  1  0  0  0  0
  4 25  1  0  0  0  0
  5 19  2  0  0  0  0
  6 20  2  0  0  0  0
  7 21  2  0  0  0  0
  8 22  2  0  0  0  0
  9 22  1  0  0  0  0
  9 26  1  0  0  0  0
 10 17  1  0  0  0  0
 10 21  1  0  0  0  0
 10 27  1  0  0  0  0
 11 28  1  0  0  0  0
 11 29  1  0  0  0  0
 12 19  1  0  0  0  0
 12 30  1  6  0  0  0
 12 16  1  0  0  0  0
 12 11  1  0  0  0  0
 13 21  1  0  0  0  0
 13 31  1  1  0  0  0
 13 15  1  0  0  0  0
 13  9  1  0  0  0  0
 14 32  1  0  0  0  0
 14 33  1  0  0  0  0
 15 34  1  0  0  0  0
 15 35  1  0  0  0  0
 16 18  1  0  0  0  0
 16 36  1  0  0  0  0
 16 37  1  0  0  0  0
 17 20  1  0  0  0  0
 17 38  1  0  0  0  0
 17 39  1  0  0  0  0
 18 22  1  0  0  0  0
 18 40  1  0  0  0  0
 18 41  1  0  0  0  0
M  END
>  <DRUGBANK_ID>
DB04153

>  <SECONDARY_ACCESSION_NUMBERS>
EXPT00464

>  <COMMON_NAME>
S-Hydroxymethyl Glutathione

$$$$
