
 OpenBabel10282417133D

 58 60  0  0  1  0  0  0  0  0999 V2000
    1.8949   -5.0686    6.0905 C   0  0  0  0  0  0  0  0  0  0  0  0
    2.2723   -5.3510    4.7874 C   0  0  0  0  0  0  0  0  0  0  0  0
    4.2437   -4.7617    6.6599 C   0  0  0  0  0  0  0  0  0  0  0  0
   -0.9402   -4.4233   -2.8465 C   0  0  0  0  0  0  0  0  0  0  0  0
    5.8043   -3.7608    1.1982 C   0  0  0  0  0  0  0  0  0  0  0  0
    2.8936   -4.8794    7.0354 C   0  0  0  0  0  0  0  0  0  0  0  0
    4.6243   -5.0406    5.3428 C   0  0  0  0  0  0  0  0  0  0  0  0
    3.6353   -5.3396    4.3962 C   0  0  0  0  0  0  0  0  0  0  0  0
   -0.0733   -4.5929   -1.6235 C   0  0  2  0  0  0  0  0  0  0  0  0
    4.4659   -3.6352    0.4752 C   0  0  2  0  0  0  0  0  0  0  0  0
    2.7067   -3.4088    2.6415 C   0  0  2  0  0  0  0  0  0  0  0  0
   -1.0644   -5.0252   -0.5350 C   0  0  2  0  0  0  0  0  0  0  0  0
    3.3907   -2.1570    2.3350 C   0  0  2  0  0  0  0  0  0  0  0  0
   -0.3729   -5.0528    0.7549 C   0  0  1  0  0  0  0  0  0  0  0  0
    0.1266   -3.6580    0.9896 C   0  0  2  0  0  0  0  0  0  0  0  0
    3.6607   -2.3405    0.7763 C   0  0  2  0  0  0  0  0  0  0  0  0
    3.1932   -4.8267    2.1500 C   0  0  2  0  0  0  0  0  0  0  0  0
    1.3936   -3.4155   -0.1643 C   0  0  1  0  0  0  0  0  0  0  0  0
    1.7445   -2.9882    1.8509 F   0  0  0  0  0  0  0  0  0  0  0  0
    2.5741   -5.0486    8.4545 N   0  0  0  0  0  0  0  0  0  0  0  0
    6.0697   -5.0513    5.0153 N   0  0  0  0  0  0  0  0  0  0  0  0
   -0.1397   -4.0274   -3.9424 O   0  0  0  0  0  0  0  0  0  0  0  0
    5.6635   -3.5119    2.5801 O   0  0  0  0  0  0  0  0  0  0  0  0
   -1.5879   -6.3248   -0.7745 O   0  0  0  0  0  0  0  0  0  0  0  0
    4.3098   -1.9566    3.3867 O   0  0  0  0  0  0  0  0  0  0  0  0
   -1.2629   -5.4429    1.8223 O   0  0  0  0  0  0  0  0  0  0  0  0
    0.2178   -3.8774    2.4517 O   0  0  0  0  0  0  0  0  0  0  0  0
    3.4949   -5.0455    9.2555 O   0  0  0  0  0  0  0  0  0  0  0  0
    1.3714   -5.2739    8.7389 O   0  0  0  0  0  0  0  0  0  0  0  0
    6.8375   -4.6353    5.9090 O   0  0  0  0  0  0  0  0  0  0  0  0
    6.4574   -5.4990    3.9433 O   0  0  0  0  0  0  0  0  0  0  0  0
    4.0062   -5.5235    3.0931 O   0  0  0  0  0  0  0  0  0  0  0  0
    0.6255   -3.3372   -1.3934 O   0  0  0  0  0  0  0  0  0  0  0  0
    3.7241   -4.8155    0.8195 O   0  0  0  0  0  0  0  0  0  0  0  0
    2.3741   -2.2741   -0.0877 O   0  0  0  0  0  0  0  0  0  0  0  0
    0.6927   -5.3640   -1.7906 H   0  0  0  0  0  0  0  0  0  0  0  0
    4.6396   -3.6940   -0.6066 H   0  0  0  0  0  0  0  0  0  0  0  0
    2.2643   -3.3870    3.6278 H   0  0  0  0  0  0  0  0  0  0  0  0
   -1.8853   -4.3063   -0.4131 H   0  0  0  0  0  0  0  0  0  0  0  0
    2.6630   -1.3305    2.4380 H   0  0  0  0  0  0  0  0  0  0  0  0
    0.4521   -5.7841    0.7823 H   0  0  0  0  0  0  0  0  0  0  0  0
   -0.5299   -2.7872    0.9348 H   0  0  0  0  0  0  0  0  0  0  0  0
    4.2558   -1.4707    0.4748 H   0  0  0  0  0  0  0  0  0  0  0  0
    2.3716   -5.5391    2.0046 H   0  0  0  0  0  0  0  0  0  0  0  0
    1.9905   -4.3127   -0.2965 H   0  0  0  0  0  0  0  0  0  0  0  0
    0.8348   -5.0501    6.3538 H   0  0  0  0  0  0  0  0  0  0  0  0
    1.4593   -5.5289    4.0889 H   0  0  0  0  0  0  0  0  0  0  0  0
    4.9961   -4.5109    7.4037 H   0  0  0  0  0  0  0  0  0  0  0  0
   -1.4542   -5.3621   -3.0701 H   0  0  0  0  0  0  0  0  0  0  0  0
   -1.6805   -3.6398   -2.6488 H   0  0  0  0  0  0  0  0  0  0  0  0
    6.1666   -4.7887    1.1040 H   0  0  0  0  0  0  0  0  0  0  0  0
    6.5478   -3.0515    0.8503 H   0  0  0  0  0  0  0  0  0  0  0  0
    0.3456   -3.2422   -3.6212 H   0  0  0  0  0  0  0  0  0  0  0  0
    5.6751   -2.5355    2.6821 H   0  0  0  0  0  0  0  0  0  0  0  0
   -0.9123   -6.9747   -0.5065 H   0  0  0  0  0  0  0  0  0  0  0  0
    4.4308   -2.8486    3.7959 H   0  0  0  0  0  0  0  0  0  0  0  0
   -1.2718   -4.6610    2.4265 H   0  0  0  0  0  0  0  0  0  0  0  0
    0.8346   -4.6263    2.4698 H   0  0  0  0  0  0  0  0  0  0  0  0
  1 46  1  0  0  0  0
  2  1  2  0  0  0  0
  2 47  1  0  0  0  0
  3 48  1  0  0  0  0
  4 49  1  0  0  0  0
  4 50  1  0  0  0  0
  5 51  1  0  0  0  0
  5 52  1  0  0  0  0
  6  1  1  0  0  0  0
  6  3  2  0  0  0  0
  7  3  1  0  0  0  0
  8  2  1  0  0  0  0
  8  7  2  0  0  0  0
  9  4  1  0  0  0  0
  9 36  1  6  0  0  0
 10 37  1  6  0  0  0
 10  5  1  0  0  0  0
 11 38  1  1  0  0  0
 11 19  1  0  0  0  0
 12  9  1  0  0  0  0
 12 24  1  0  0  0  0
 12 39  1  1  0  0  0
 13 11  1  0  0  0  0
 13 25  1  0  0  0  0
 13 40  1  1  0  0  0
 14 12  1  0  0  0  0
 14 26  1  0  0  0  0
 14 41  1  6  0  0  0
 15 14  1  0  0  0  0
 15 27  1  0  0  0  0
 15 42  1  6  0  0  0
 16 10  1  0  0  0  0
 16 13  1  0  0  0  0
 16 43  1  6  0  0  0
 16 35  1  0  0  0  0
 17 11  1  0  0  0  0
 17 44  1  6  0  0  0
 17 32  1  0  0  0  0
 18 15  1  0  0  0  0
 18 45  1  6  0  0  0
 18 35  1  0  0  0  0
 20  6  1  0  0  0  0
 21  7  1  0  0  0  0
 22  4  1  0  0  0  0
 22 53  1  0  0  0  0
 23  5  1  0  0  0  0
 23 54  1  0  0  0  0
 24 55  1  0  0  0  0
 25 56  1  0  0  0  0
 26 57  1  0  0  0  0
 27 58  1  0  0  0  0
 28 20  2  0  0  0  0
 29 20  2  0  0  0  0
 30 21  2  0  0  0  0
 31 21  2  0  0  0  0
 32  8  1  0  0  0  0
 33  9  1  0  0  0  0
 33 18  1  0  0  0  0
 34 10  1  0  0  0  0
 34 17  1  0  0  0  0
M  END
>  <DRUGBANK_ID>
DB04086

>  <SECONDARY_ACCESSION_NUMBERS>
EXPT01130

>  <COMMON_NAME>
2',4'-Dinitrophenyl-2deoxy-2-Fluro-B-D-Cellobioside

$$$$
