
 OpenBabel10282417183D

 24 24  0  0  0  0  0  0  0  0999 V2000
    0.4561    1.5123    0.0215 C   0  0  0  0  0  0  0  0  0  0  0  0
    1.7571    0.9541    0.0198 C   0  0  0  0  0  0  0  0  0  0  0  0
   -0.6390    0.6261    0.0030 C   0  0  0  0  0  0  0  0  0  0  0  0
    0.2887    3.0126    0.0416 C   0  0  0  0  0  0  0  0  0  0  0  0
    1.8748   -0.4360   -0.0047 C   0  0  0  0  0  0  0  0  0  0  0  0
    3.0261    1.7663    0.0528 C   0  0  0  0  0  0  0  0  0  0  0  0
   -0.4107   -0.7578   -0.0071 C   0  0  0  0  0  0  0  0  0  0  0  0
   -1.9440    1.0339   -0.0006 O   0  0  0  0  0  0  0  0  0  0  0  0
    0.8415    3.5897    1.2616 N   0  0  0  0  0  0  0  0  0  0  0  0
    0.8325   -1.2930   -0.0189 N   0  0  0  0  0  0  0  0  0  0  0  0
    3.7515    1.4795    1.2422 O   0  0  0  0  0  0  0  0  0  0  0  0
   -1.5399   -1.7481    0.0102 C   0  0  0  0  0  0  0  0  0  0  0  0
    0.7821    3.4342   -0.8426 H   0  0  0  0  0  0  0  0  0  0  0  0
   -0.7532    3.3263   -0.0330 H   0  0  0  0  0  0  0  0  0  0  0  0
    2.8529   -0.9128   -0.0038 H   0  0  0  0  0  0  0  0  0  0  0  0
    3.6529    1.5203   -0.8100 H   0  0  0  0  0  0  0  0  0  0  0  0
    2.8678    2.8450    0.0123 H   0  0  0  0  0  0  0  0  0  0  0  0
   -2.0262    1.9971   -0.0117 H   0  0  0  0  0  0  0  0  0  0  0  0
    0.6786    4.5949    1.2679 H   0  0  0  0  0  0  0  0  0  0  0  0
    0.3571    3.2046    2.0711 H   0  0  0  0  0  0  0  0  0  0  0  0
    3.1538    1.7036    1.9783 H   0  0  0  0  0  0  0  0  0  0  0  0
   -1.4891   -2.3842   -0.8789 H   0  0  0  0  0  0  0  0  0  0  0  0
   -1.4615   -2.3782    0.9022 H   0  0  0  0  0  0  0  0  0  0  0  0
   -2.5258   -1.2754    0.0259 H   0  0  0  0  0  0  0  0  0  0  0  0
  1  2  2  0  0  0  0
  1  3  1  0  0  0  0
  1  4  1  0  0  0  0
  2  5  1  0  0  0  0
  2  6  1  0  0  0  0
  3  7  2  0  0  0  0
  3  8  1  0  0  0  0
  4  9  1  0  0  0  0
  4 13  1  0  0  0  0
  4 14  1  0  0  0  0
  5 10  2  0  0  0  0
  5 15  1  0  0  0  0
  6 11  1  0  0  0  0
  6 16  1  0  0  0  0
  6 17  1  0  0  0  0
  7 12  1  0  0  0  0
  7 10  1  0  0  0  0
  8 18  1  0  0  0  0
  9 19  1  0  0  0  0
  9 20  1  0  0  0  0
 11 21  1  0  0  0  0
 12 22  1  0  0  0  0
 12 23  1  0  0  0  0
 12 24  1  0  0  0  0
M  END
>  <DRUGBANK_ID>
DB11673

>  <COMMON_NAME>
Pyridoxamine

>  <CAS_NUMBER>
85-87-0

>  <UNII>
6466NM3W93

$$$$
