
 OpenBabel10282417133D

 55 54  0  0  0  0  0  0  0  0999 V2000
    0.9500    0.0370   -0.0258 C   0  0  0  0  0  0  0  0  0  0  0  0
    0.2274    0.9577    0.3586 O   0  0  0  0  0  0  0  0  0  0  0  0
    5.0307    0.3083    5.8690 C   0  0  0  0  0  0  0  0  0  0  0  0
    5.7979    0.3953    6.9512 C   0  0  0  0  0  0  0  0  0  0  0  0
    0.3753   -1.0911   -0.5050 N   0  0  0  0  0  0  0  0  0  0  0  0
    2.4640    0.0599   -0.0113 C   0  0  0  0  0  0  0  0  0  0  0  0
    4.6243    1.5119    5.0862 C   0  0  0  0  0  0  0  0  0  0  0  0
    6.3544   -0.8125    7.6277 C   0  0  0  0  0  0  0  0  0  0  0  0
    2.9764    1.3145    0.6998 C   0  0  0  0  0  0  0  0  0  0  0  0
    5.1509    1.3889    3.6556 C   0  0  0  0  0  0  0  0  0  0  0  0
    7.8819   -0.7473    7.6087 C   0  0  0  0  0  0  0  0  0  0  0  0
   10.5042    0.5800   11.2723 C   0  0  0  0  0  0  0  0  0  0  0  0
    9.9477   -0.6857   10.6174 C   0  0  0  0  0  0  0  0  0  0  0  0
    4.6051    0.1359    2.9567 C   0  0  0  0  0  0  0  0  0  0  0  0
    8.4024    0.5043    8.3280 C   0  0  0  0  0  0  0  0  0  0  0  0
    7.9076    0.5486    9.7783 C   0  0  0  0  0  0  0  0  0  0  0  0
    8.4158   -0.6653   10.5642 C   0  0  0  0  0  0  0  0  0  0  0  0
    2.5426    1.3494    2.1725 C   0  0  0  0  0  0  0  0  0  0  0  0
    3.0746    0.1395    2.9415 C   0  0  0  0  0  0  0  0  0  0  0  0
    9.9993    0.7077   12.7006 C   0  0  0  0  0  0  0  0  0  0  0  0
    4.7445   -0.6789    5.5164 H   0  0  0  0  0  0  0  0  0  0  0  0
    6.0719    1.3831    7.3118 H   0  0  0  0  0  0  0  0  0  0  0  0
    0.8869   -1.8590   -0.9126 H   0  0  0  0  0  0  0  0  0  0  0  0
   -0.6364   -1.0966   -0.5238 H   0  0  0  0  0  0  0  0  0  0  0  0
    2.8425   -0.8512    0.4678 H   0  0  0  0  0  0  0  0  0  0  0  0
    2.8353    0.0408   -1.0401 H   0  0  0  0  0  0  0  0  0  0  0  0
    5.0041    2.4373    5.5313 H   0  0  0  0  0  0  0  0  0  0  0  0
    3.5341    1.5954    5.1194 H   0  0  0  0  0  0  0  0  0  0  0  0
    5.9558   -0.8545    8.6454 H   0  0  0  0  0  0  0  0  0  0  0  0
    6.0277   -1.7393    7.1449 H   0  0  0  0  0  0  0  0  0  0  0  0
    4.0696    1.3604    0.6216 H   0  0  0  0  0  0  0  0  0  0  0  0
    2.6144    2.2140    0.1912 H   0  0  0  0  0  0  0  0  0  0  0  0
    6.2465    1.3649    3.6454 H   0  0  0  0  0  0  0  0  0  0  0  0
    4.8791    2.2934    3.0994 H   0  0  0  0  0  0  0  0  0  0  0  0
    8.2813   -1.6561    8.0734 H   0  0  0  0  0  0  0  0  0  0  0  0
    8.2591   -0.7622    6.5797 H   0  0  0  0  0  0  0  0  0  0  0  0
   11.5974    0.5509   11.2580 H   0  0  0  0  0  0  0  0  0  0  0  0
   10.2281    1.4749   10.7021 H   0  0  0  0  0  0  0  0  0  0  0  0
   10.2838   -1.5734   11.1625 H   0  0  0  0  0  0  0  0  0  0  0  0
   10.3691   -0.7901    9.6103 H   0  0  0  0  0  0  0  0  0  0  0  0
    4.9614   -0.7775    3.4428 H   0  0  0  0  0  0  0  0  0  0  0  0
    5.0158    0.0724    1.9446 H   0  0  0  0  0  0  0  0  0  0  0  0
    9.4951    0.5292    8.2748 H   0  0  0  0  0  0  0  0  0  0  0  0
    8.0961    1.4177    7.8089 H   0  0  0  0  0  0  0  0  0  0  0  0
    8.2178    1.4898   10.2418 H   0  0  0  0  0  0  0  0  0  0  0  0
    6.8149    0.5869    9.8318 H   0  0  0  0  0  0  0  0  0  0  0  0
    7.9845   -0.6585   11.5692 H   0  0  0  0  0  0  0  0  0  0  0  0
    8.0518   -1.6027   10.1305 H   0  0  0  0  0  0  0  0  0  0  0  0
    2.8699    2.2919    2.6248 H   0  0  0  0  0  0  0  0  0  0  0  0
    1.4556    1.3751    2.2774 H   0  0  0  0  0  0  0  0  0  0  0  0
    2.6594    0.1440    3.9546 H   0  0  0  0  0  0  0  0  0  0  0  0
    2.7060   -0.7995    2.5192 H   0  0  0  0  0  0  0  0  0  0  0  0
   10.3067   -0.1664   13.2822 H   0  0  0  0  0  0  0  0  0  0  0  0
   10.3908    1.6105   13.1707 H   0  0  0  0  0  0  0  0  0  0  0  0
    8.9076    0.7756   12.7469 H   0  0  0  0  0  0  0  0  0  0  0  0
  2  1  2  0  0  0  0
  3  7  1  0  0  0  0
  3 21  1  0  0  0  0
  4  3  2  0  0  0  0
  4 22  1  0  0  0  0
  5  1  1  0  0  0  0
  5 23  1  0  0  0  0
  5 24  1  0  0  0  0
  6  1  1  0  0  0  0
  6 25  1  0  0  0  0
  6 26  1  0  0  0  0
  7 10  1  0  0  0  0
  7 27  1  0  0  0  0
  7 28  1  0  0  0  0
  8  4  1  0  0  0  0
  8 29  1  0  0  0  0
  8 30  1  0  0  0  0
  9  6  1  0  0  0  0
  9 31  1  0  0  0  0
  9 32  1  0  0  0  0
 10 14  1  0  0  0  0
 10 33  1  0  0  0  0
 10 34  1  0  0  0  0
 11  8  1  0  0  0  0
 11 35  1  0  0  0  0
 11 36  1  0  0  0  0
 12 13  1  0  0  0  0
 12 37  1  0  0  0  0
 12 38  1  0  0  0  0
 13 17  1  0  0  0  0
 13 39  1  0  0  0  0
 13 40  1  0  0  0  0
 14 19  1  0  0  0  0
 14 41  1  0  0  0  0
 14 42  1  0  0  0  0
 15 11  1  0  0  0  0
 15 43  1  0  0  0  0
 15 44  1  0  0  0  0
 16 15  1  0  0  0  0
 16 45  1  0  0  0  0
 16 46  1  0  0  0  0
 17 16  1  0  0  0  0
 17 47  1  0  0  0  0
 17 48  1  0  0  0  0
 18  9  1  0  0  0  0
 18 49  1  0  0  0  0
 18 50  1  0  0  0  0
 19 18  1  0  0  0  0
 19 51  1  0  0  0  0
 19 52  1  0  0  0  0
 20 12  1  0  0  0  0
 20 53  1  0  0  0  0
 20 54  1  0  0  0  0
 20 55  1  0  0  0  0
M  END
>  <DRUGBANK_ID>
DB03784

>  <SECONDARY_ACCESSION_NUMBERS>
EXPT01336

>  <COMMON_NAME>
Elaidamide

>  <CAS_NUMBER>
4303-70-2

>  <UNII>
GOU8K597IT

$$$$
