
 OpenBabel10282417163D

 49 50  0  0  0  0  0  0  0  0999 V2000
    0.9882    7.2901    6.0853 C   0  0  0  0  0  0  0  0  0  0  0  0
    0.5783    8.7161    6.2561 C   0  0  0  0  0  0  0  0  0  0  0  0
    1.5077    9.5049    5.6550 F   0  0  0  0  0  0  0  0  0  0  0  0
   -0.6050    8.9610    5.6259 F   0  0  0  0  0  0  0  0  0  0  0  0
    0.4012    9.2118    7.4912 F   0  0  0  0  0  0  0  0  0  0  0  0
    1.5165    6.4210    7.0300 C   0  0  0  0  0  0  0  0  0  0  0  0
    1.6818    6.7623    8.4639 N   0  3  0  0  0  0  0  0  0  0  0  0
    2.1408    5.8798    9.2105 O   0  5  0  0  0  0  0  0  0  0  0  0
    1.3966    7.8659    8.8790 O   0  0  0  0  0  0  0  0  0  0  0  0
    2.0126    5.1979    6.5583 C   0  0  0  0  0  0  0  0  0  0  0  0
    1.9217    4.8114    5.1952 C   0  0  0  0  0  0  0  0  0  0  0  0
    1.3287    5.6491    4.2512 C   0  0  0  0  0  0  0  0  0  0  0  0
    0.9920    5.2244    2.9234 N   0  0  0  0  0  0  0  0  0  0  0  0
    0.0921    5.8842    2.0543 C   0  0  0  0  0  0  0  0  0  0  0  0
   -0.5993    5.0674    0.8754 C   0  0  2  0  0  0  0  0  0  0  0  0
    0.0022    3.6802    0.6773 C   0  0  0  0  0  0  0  0  0  0  0  0
   -0.2736    2.6105    1.6041 O   0  0  0  0  0  0  0  0  0  0  0  0
   -0.4457    2.7494    2.9499 C   0  0  0  0  0  0  0  0  0  0  0  0
   -1.2623    3.6707    3.6062 C   0  0  0  0  0  0  0  0  0  0  0  0
   -1.2145    3.9020    4.9988 C   0  0  0  0  0  0  0  0  0  0  0  0
   -0.4335    3.0943    5.8182 C   0  0  0  0  0  0  0  0  0  0  0  0
   -0.2256    3.4381    7.2007 N   0  0  0  0  0  0  0  0  0  0  0  0
    0.7595    2.8668    8.0145 C   0  0  0  0  0  0  0  0  0  0  0  0
    0.9715    3.4506    9.3897 C   0  0  0  0  0  0  0  0  0  0  0  0
    1.5667    2.0093    7.6569 O   0  0  0  0  0  0  0  0  0  0  0  0
    0.3281    2.1163    5.1636 C   0  0  0  0  0  0  0  0  0  0  0  0
    0.3889    2.0013    3.7603 C   0  0  0  0  0  0  0  0  0  0  0  0
   -0.2999    5.8382   -0.3246 O   0  0  0  0  0  0  0  0  0  0  0  0
   -2.1508    5.0404    0.8551 C   0  0  0  0  0  0  0  0  0  0  0  0
   -0.1596    7.0880    2.1423 O   0  0  0  0  0  0  0  0  0  0  0  0
    0.9551    6.8890    4.7185 C   0  0  0  0  0  0  0  0  0  0  0  0
    2.4313    4.4725    7.2544 H   0  0  0  0  0  0  0  0  0  0  0  0
    2.2287    3.7924    4.9618 H   0  0  0  0  0  0  0  0  0  0  0  0
    1.1694    4.2400    2.7655 H   0  0  0  0  0  0  0  0  0  0  0  0
   -0.3136    3.3093   -0.3118 H   0  0  0  0  0  0  0  0  0  0  0  0
    1.0895    3.7963    0.5580 H   0  0  0  0  0  0  0  0  0  0  0  0
   -1.8007    4.4357    3.0838 H   0  0  0  0  0  0  0  0  0  0  0  0
   -1.6429    4.8489    5.3321 H   0  0  0  0  0  0  0  0  0  0  0  0
   -0.6245    4.3253    7.4954 H   0  0  0  0  0  0  0  0  0  0  0  0
    0.8153    2.7061   10.1680 H   0  0  0  0  0  0  0  0  0  0  0  0
    2.0398    3.7058    9.4599 H   0  0  0  0  0  0  0  0  0  0  0  0
    0.3556    4.3289    9.5859 H   0  0  0  0  0  0  0  0  0  0  0  0
    1.0802    1.5542    5.6978 H   0  0  0  0  0  0  0  0  0  0  0  0
    1.2318    1.4582    3.3331 H   0  0  0  0  0  0  0  0  0  0  0  0
    0.6352    6.1012   -0.2956 H   0  0  0  0  0  0  0  0  0  0  0  0
   -2.5332    4.7845   -0.1408 H   0  0  0  0  0  0  0  0  0  0  0  0
   -2.6308    4.2983    1.4957 H   0  0  0  0  0  0  0  0  0  0  0  0
   -2.5698    6.0189    1.1173 H   0  0  0  0  0  0  0  0  0  0  0  0
    0.6510    7.6402    3.9980 H   0  0  0  0  0  0  0  0  0  0  0  0
  2  1  1  0  0  0  0
  3  2  1  0  0  0  0
  4  2  1  0  0  0  0
  5  2  1  0  0  0  0
  6  1  1  0  0  0  0
  7  6  1  0  0  0  0
  8  7  1  0  0  0  0
  9  7  2  0  0  0  0
 10  6  2  0  0  0  0
 10 32  1  0  0  0  0
 11 10  1  0  0  0  0
 11 12  2  0  0  0  0
 11 33  1  0  0  0  0
 12 31  1  0  0  0  0
 13 12  1  0  0  0  0
 13 34  1  0  0  0  0
 14 13  1  0  0  0  0
 15 28  1  6  0  0  0
 15 29  1  0  0  0  0
 15 16  1  0  0  0  0
 15 14  1  0  0  0  0
 16 35  1  0  0  0  0
 16 36  1  0  0  0  0
 17 16  1  0  0  0  0
 18 17  1  0  0  0  0
 19 18  1  0  0  0  0
 19 37  1  0  0  0  0
 20 19  2  0  0  0  0
 20 38  1  0  0  0  0
 21 20  1  0  0  0  0
 21 26  2  0  0  0  0
 22 21  1  0  0  0  0
 22 39  1  0  0  0  0
 23 22  1  0  0  0  0
 24 23  1  0  0  0  0
 24 40  1  0  0  0  0
 24 41  1  0  0  0  0
 24 42  1  0  0  0  0
 25 23  2  0  0  0  0
 26 27  1  0  0  0  0
 26 43  1  0  0  0  0
 27 18  2  0  0  0  0
 27 44  1  0  0  0  0
 28 45  1  0  0  0  0
 29 46  1  0  0  0  0
 29 47  1  0  0  0  0
 29 48  1  0  0  0  0
 30 14  2  0  0  0  0
 31  1  2  0  0  0  0
 31 49  1  0  0  0  0
M  CHG  2   7   1   8  -1
M  END
>  <DRUGBANK_ID>
DB07423

>  <COMMON_NAME>
Andarine

>  <CAS_NUMBER>
401900-40-1

>  <UNII>
7UT2HAH49H

>  <SYNONYMS>
(2S)-3-(4-acetamidophenoxy)-2-hydroxy-2-methyl-N-[4-nitro-3-(trifluoromethyl)phenyl]propanamide

$$$$
