STX
 OpenBabel10282417173D

 29 29  0  0  0  0  0  0  0  0999 V2000
    1.0630   -0.0143   -0.0493 N   0  0  0  0  0  0  0  0  0  0  0  0
    0.6344   -0.9553   -1.0971 C   0  0  0  0  0  0  0  0  0  0  0  0
    1.1131   -2.3877   -0.8663 C   0  0  0  0  0  0  0  0  0  0  0  0
    0.2739   -3.2888   -0.7329 O   0  0  0  0  0  0  0  0  0  0  0  0
    0.5579   -0.4253    1.2564 C   0  0  0  0  0  0  0  0  0  0  0  0
    2.5402   -2.6294   -0.8643 C   0  0  0  0  0  0  0  0  0  0  0  0
    3.1232   -3.6883   -1.3847 N   0  0  0  0  0  0  0  0  0  0  0  0
    4.4668   -3.5664   -1.1304 N   0  0  0  0  0  0  0  0  0  0  0  0
    4.6287   -2.4610   -0.4327 C   0  0  0  0  0  0  0  0  0  0  0  0
    3.4408   -1.7852   -0.2407 O   0  0  0  0  0  0  0  0  0  0  0  0
    5.9229   -1.9118    0.1131 C   0  0  0  0  0  0  0  0  0  0  0  0
    6.5929   -2.9755    1.0058 C   0  0  0  0  0  0  0  0  0  0  0  0
    6.8673   -1.6048   -1.0633 C   0  0  0  0  0  0  0  0  0  0  0  0
    5.7266   -0.6332    0.9385 C   0  0  0  0  0  0  0  0  0  0  0  0
    2.0822    0.0362   -0.0256 H   0  0  0  0  0  0  0  0  0  0  0  0
   -0.4629   -0.9577   -1.1536 H   0  0  0  0  0  0  0  0  0  0  0  0
    0.9873   -0.6185   -2.0785 H   0  0  0  0  0  0  0  0  0  0  0  0
    0.9178   -1.4206    1.5363 H   0  0  0  0  0  0  0  0  0  0  0  0
    0.9070    0.2738    2.0201 H   0  0  0  0  0  0  0  0  0  0  0  0
   -0.5364   -0.4275    1.2698 H   0  0  0  0  0  0  0  0  0  0  0  0
    6.7771   -3.9052    0.4540 H   0  0  0  0  0  0  0  0  0  0  0  0
    7.5604   -2.6241    1.3847 H   0  0  0  0  0  0  0  0  0  0  0  0
    5.9666   -3.2250    1.8700 H   0  0  0  0  0  0  0  0  0  0  0  0
    6.4404   -0.8445   -1.7270 H   0  0  0  0  0  0  0  0  0  0  0  0
    7.8374   -1.2367   -0.7096 H   0  0  0  0  0  0  0  0  0  0  0  0
    7.0566   -2.5003   -1.6677 H   0  0  0  0  0  0  0  0  0  0  0  0
    5.2737    0.1645    0.3397 H   0  0  0  0  0  0  0  0  0  0  0  0
    5.0810   -0.8107    1.8059 H   0  0  0  0  0  0  0  0  0  0  0  0
    6.6871   -0.2578    1.3141 H   0  0  0  0  0  0  0  0  0  0  0  0
  1  2  1  0  0  0  0
  1  5  1  0  0  0  0
  1 15  1  0  0  0  0
  2  3  1  0  0  0  0
  2 16  1  0  0  0  0
  2 17  1  0  0  0  0
  3  4  2  0  0  0  0
  3  6  1  0  0  0  0
  5 18  1  0  0  0  0
  5 19  1  0  0  0  0
  5 20  1  0  0  0  0
  6  7  2  0  0  0  0
  6 10  1  0  0  0  0
  7  8  1  0  0  0  0
  8  9  2  0  0  0  0
  9 10  1  0  0  0  0
  9 11  1  0  0  0  0
 11 12  1  0  0  0  0
 11 13  1  0  0  0  0
 11 14  1  0  0  0  0
 12 21  1  0  0  0  0
 12 22  1  0  0  0  0
 12 23  1  0  0  0  0
 13 24  1  0  0  0  0
 13 25  1  0  0  0  0
 13 26  1  0  0  0  0
 14 27  1  0  0  0  0
 14 28  1  0  0  0  0
 14 29  1  0  0  0  0
M  END
>  <DRUGBANK_ID>
DB08576

>  <COMMON_NAME>
1-(5-TERT-BUTYL-1,3,4-OXADIAZOL-2-YL)-2-(METHYLAMINO)ETHANONE

$$$$
