242
 OpenBabel10282417163D

 48 51  0  0  0  0  0  0  0  0999 V2000
    1.2851   -1.3016   -0.0062 C   0  0  0  0  0  0  0  0  0  0  0  0
    0.0471   -0.6931    0.0206 C   0  0  0  0  0  0  0  0  0  0  0  0
    0.0606    0.7008    0.0555 C   0  0  0  0  0  0  0  0  0  0  0  0
    1.2065    1.3980    0.0773 N   0  0  0  0  0  0  0  0  0  0  0  0
    2.3500    0.7063   -0.0069 C   0  0  0  0  0  0  0  0  0  0  0  0
    2.4439   -0.6252   -0.0429 N   0  0  0  0  0  0  0  0  0  0  0  0
   -1.1531   -1.4191   -0.0010 C   0  0  0  0  0  0  0  0  0  0  0  0
   -2.3789   -0.7575   -0.1207 C   0  0  0  0  0  0  0  0  0  0  0  0
   -2.3615    0.6405   -0.1910 C   0  0  0  0  0  0  0  0  0  0  0  0
   -1.1680    1.3483    0.0134 C   0  0  0  0  0  0  0  0  0  0  0  0
    3.5165    1.4070   -0.0801 N   0  0  0  0  0  0  0  0  0  0  0  0
   -3.6483   -1.4932   -0.0056 C   0  0  0  0  0  0  0  0  0  0  0  0
   -4.5939   -1.4710   -1.0524 C   0  0  0  0  0  0  0  0  0  0  0  0
   -5.8907   -2.0065   -0.8945 C   0  0  0  0  0  0  0  0  0  0  0  0
   -6.1863   -2.6948    0.2818 C   0  0  0  0  0  0  0  0  0  0  0  0
   -5.2195   -2.8248    1.2832 C   0  0  0  0  0  0  0  0  0  0  0  0
   -3.9804   -2.1734    1.1871 C   0  0  0  0  0  0  0  0  0  0  0  0
   -3.0894   -2.1885    2.4079 C   0  0  0  0  0  0  0  0  0  0  0  0
   -6.8957   -1.7918   -1.9847 C   0  0  0  0  0  0  0  0  0  0  0  0
   -6.5144   -1.1778   -2.9920 O   0  0  0  0  0  0  0  0  0  0  0  0
   -8.2152   -2.2097   -1.7886 N   0  0  0  0  0  0  0  0  0  0  0  0
   -9.2222   -1.9820   -2.7594 C   0  0  0  0  0  0  0  0  0  0  0  0
   -8.9282   -2.1166   -4.1165 C   0  0  0  0  0  0  0  0  0  0  0  0
   -9.8275   -1.6833   -5.0969 C   0  0  0  0  0  0  0  0  0  0  0  0
  -11.0944   -1.2354   -4.7044 C   0  0  0  0  0  0  0  0  0  0  0  0
  -11.4501   -1.2346   -3.3548 C   0  0  0  0  0  0  0  0  0  0  0  0
  -10.5059   -1.5810   -2.3781 C   0  0  0  0  0  0  0  0  0  0  0  0
   -9.4113   -1.6388   -6.5421 C   0  0  0  0  0  0  0  0  0  0  0  0
   -8.1682   -2.1435   -6.7757 F   0  0  0  0  0  0  0  0  0  0  0  0
  -10.2551   -2.3416   -7.3473 F   0  0  0  0  0  0  0  0  0  0  0  0
   -9.3980   -0.3686   -7.0349 F   0  0  0  0  0  0  0  0  0  0  0  0
    1.3804   -2.3826   -0.0413 H   0  0  0  0  0  0  0  0  0  0  0  0
   -1.1324   -2.5017    0.1100 H   0  0  0  0  0  0  0  0  0  0  0  0
   -3.2819    1.1954   -0.3624 H   0  0  0  0  0  0  0  0  0  0  0  0
   -1.2038    2.4300    0.1234 H   0  0  0  0  0  0  0  0  0  0  0  0
    3.4693    2.4093   -0.1006 H   0  0  0  0  0  0  0  0  0  0  0  0
    4.3659    0.8822   -0.1930 H   0  0  0  0  0  0  0  0  0  0  0  0
   -4.3209   -1.0021   -2.0000 H   0  0  0  0  0  0  0  0  0  0  0  0
   -7.1576   -3.1383    0.4599 H   0  0  0  0  0  0  0  0  0  0  0  0
   -5.4525   -3.4117    2.1696 H   0  0  0  0  0  0  0  0  0  0  0  0
   -3.6299   -1.7716    3.2637 H   0  0  0  0  0  0  0  0  0  0  0  0
   -2.7705   -3.2099    2.6347 H   0  0  0  0  0  0  0  0  0  0  0  0
   -2.1892   -1.5781    2.3105 H   0  0  0  0  0  0  0  0  0  0  0  0
   -8.5322   -2.4191   -0.8526 H   0  0  0  0  0  0  0  0  0  0  0  0
   -7.9719   -2.5411   -4.4179 H   0  0  0  0  0  0  0  0  0  0  0  0
  -11.7983   -0.8741   -5.4534 H   0  0  0  0  0  0  0  0  0  0  0  0
  -12.4519   -0.9211   -3.0677 H   0  0  0  0  0  0  0  0  0  0  0  0
  -10.7715   -1.4530   -1.3323 H   0  0  0  0  0  0  0  0  0  0  0  0
  1  6  2  0  0  0  0
  1  2  1  0  0  0  0
  1 32  1  0  0  0  0
  2  7  2  0  0  0  0
  2  3  1  0  0  0  0
  3  4  1  0  0  0  0
  3 10  2  0  0  0  0
  4  5  2  0  0  0  0
  5  6  1  0  0  0  0
  5 11  1  0  0  0  0
  7  8  1  0  0  0  0
  7 33  1  0  0  0  0
  8 12  1  0  0  0  0
  8  9  2  0  0  0  0
  9 10  1  0  0  0  0
  9 34  1  0  0  0  0
 10 35  1  0  0  0  0
 11 36  1  0  0  0  0
 11 37  1  0  0  0  0
 12 17  1  0  0  0  0
 12 13  2  0  0  0  0
 13 14  1  0  0  0  0
 13 38  1  0  0  0  0
 14 15  2  0  0  0  0
 14 19  1  0  0  0  0
 15 16  1  0  0  0  0
 15 39  1  0  0  0  0
 16 17  2  0  0  0  0
 16 40  1  0  0  0  0
 17 18  1  0  0  0  0
 18 41  1  0  0  0  0
 18 42  1  0  0  0  0
 18 43  1  0  0  0  0
 19 21  1  0  0  0  0
 19 20  2  0  0  0  0
 21 22  1  0  0  0  0
 21 44  1  0  0  0  0
 22 27  2  0  0  0  0
 22 23  1  0  0  0  0
 23 24  2  0  0  0  0
 23 45  1  0  0  0  0
 24 25  1  0  0  0  0
 24 28  1  0  0  0  0
 25 26  2  0  0  0  0
 25 46  1  0  0  0  0
 26 27  1  0  0  0  0
 26 47  1  0  0  0  0
 27 48  1  0  0  0  0
 28 30  1  0  0  0  0
 28 31  1  0  0  0  0
 28 29  1  0  0  0  0
M  END
>  <DRUGBANK_ID>
DB06925

>  <COMMON_NAME>
3-(2-AMINOQUINAZOLIN-6-YL)-4-METHYL-N-[3-(TRIFLUOROMETHYL)PHENYL]BENZAMIDE

>  <UNII>
T52FE17W1Y

$$$$
