LIH
 OpenBabel10282417133D

 42 45  0  0  0  0  0  0  0  0999 V2000
    0.0364    0.8227   -0.0103 C   0  0  0  0  0  0  0  0  0  0  0  0
    1.3262    1.4018   -0.0055 C   0  0  0  0  0  0  0  0  0  0  0  0
    2.3345   -0.6377    0.0188 C   0  0  0  0  0  0  0  0  0  0  0  0
    0.0516   -0.5775    0.0038 C   0  0  0  0  0  0  0  0  0  0  0  0
   -1.2517    1.4807   -0.0304 C   0  0  0  0  0  0  0  0  0  0  0  0
   -2.4339    0.7137   -0.0218 C   0  0  0  0  0  0  0  0  0  0  0  0
   -2.2842   -0.6597   -0.0074 C   0  0  0  0  0  0  0  0  0  0  0  0
   -1.4566    2.9687   -0.0356 C   0  0  0  0  0  0  0  0  0  0  0  0
   -5.8137    0.4850   -1.0941 C   0  0  0  0  0  0  0  0  0  0  0  0
   -6.7434    0.9570   -0.1599 C   0  0  0  0  0  0  0  0  0  0  0  0
   -7.9900    0.3603   -0.0357 C   0  0  0  0  0  0  0  0  0  0  0  0
   -8.3088   -0.7360   -0.8359 C   0  0  0  0  0  0  0  0  0  0  0  0
   -3.8051    1.3541    0.0217 C   0  0  0  0  0  0  0  0  0  0  0  0
   -5.2479   -1.2013   -2.8163 C   0  0  0  0  0  0  0  0  0  0  0  0
   -6.1483   -0.6352   -1.8934 C   0  0  0  0  0  0  0  0  0  0  0  0
   -7.4121   -1.2520   -1.7636 C   0  0  0  0  0  0  0  0  0  0  0  0
   -6.8738   -2.8221   -3.3785 C   0  0  0  0  0  0  0  0  0  0  0  0
   -5.6114   -2.3037   -3.5723 C   0  0  0  0  0  0  0  0  0  0  0  0
    2.4544    0.6796    0.0237 N   0  0  0  0  0  0  0  0  0  0  0  0
    1.1806   -1.2905    0.0121 N   0  0  0  0  0  0  0  0  0  0  0  0
   -1.0841   -1.2901    0.0022 N   0  0  0  0  0  0  0  0  0  0  0  0
   -7.7697   -2.3239   -2.4962 N   0  0  0  0  0  0  0  0  0  0  0  0
   -4.5519    1.0543   -1.1717 N   0  0  0  0  0  0  0  0  0  0  0  0
    1.5821    2.7588   -0.1746 N   0  0  0  0  0  0  0  0  0  0  0  0
    3.5043   -1.3526    0.0109 N   0  0  0  0  0  0  0  0  0  0  0  0
   -3.1494   -1.3239    0.0005 H   0  0  0  0  0  0  0  0  0  0  0  0
   -2.0528    3.2411   -0.9124 H   0  0  0  0  0  0  0  0  0  0  0  0
   -1.9641    3.2627    0.8910 H   0  0  0  0  0  0  0  0  0  0  0  0
   -0.5905    3.5984   -0.1132 H   0  0  0  0  0  0  0  0  0  0  0  0
   -6.5106    1.8209    0.4581 H   0  0  0  0  0  0  0  0  0  0  0  0
   -8.7103    0.7492    0.6787 H   0  0  0  0  0  0  0  0  0  0  0  0
   -9.2843   -1.2040   -0.7292 H   0  0  0  0  0  0  0  0  0  0  0  0
   -4.3012    1.0525    0.9510 H   0  0  0  0  0  0  0  0  0  0  0  0
   -3.7632    2.4434    0.0686 H   0  0  0  0  0  0  0  0  0  0  0  0
   -4.2493   -0.7943   -2.9438 H   0  0  0  0  0  0  0  0  0  0  0  0
   -7.2105   -3.6850   -3.9451 H   0  0  0  0  0  0  0  0  0  0  0  0
   -4.9225   -2.7404   -4.2854 H   0  0  0  0  0  0  0  0  0  0  0  0
   -4.1000    1.1440   -2.0731 H   0  0  0  0  0  0  0  0  0  0  0  0
    1.0412    3.4037    0.3744 H   0  0  0  0  0  0  0  0  0  0  0  0
    2.5746    2.9282   -0.0384 H   0  0  0  0  0  0  0  0  0  0  0  0
    3.4703   -2.3549    0.0002 H   0  0  0  0  0  0  0  0  0  0  0  0
    4.3640   -0.8311    0.0018 H   0  0  0  0  0  0  0  0  0  0  0  0
  1  2  2  0  0  0  0
  1  4  1  0  0  0  0
  1  5  1  0  0  0  0
  2 19  1  0  0  0  0
  2 24  1  0  0  0  0
  3 19  2  0  0  0  0
  3 20  1  0  0  0  0
  3 25  1  0  0  0  0
  4 20  2  0  0  0  0
  4 21  1  0  0  0  0
  5  6  2  0  0  0  0
  5  8  1  0  0  0  0
  6  7  1  0  0  0  0
  6 13  1  0  0  0  0
  7 21  2  0  0  0  0
  7 26  1  0  0  0  0
  8 27  1  0  0  0  0
  8 28  1  0  0  0  0
  8 29  1  0  0  0  0
  9 10  2  0  0  0  0
  9 15  1  0  0  0  0
  9 23  1  0  0  0  0
 10 11  1  0  0  0  0
 10 30  1  0  0  0  0
 11 12  2  0  0  0  0
 11 31  1  0  0  0  0
 12 16  1  0  0  0  0
 12 32  1  0  0  0  0
 13 23  1  0  0  0  0
 13 33  1  0  0  0  0
 13 34  1  0  0  0  0
 14 15  2  0  0  0  0
 14 18  1  0  0  0  0
 14 35  1  0  0  0  0
 15 16  1  0  0  0  0
 16 22  2  0  0  0  0
 17 18  2  0  0  0  0
 17 22  1  0  0  0  0
 17 36  1  0  0  0  0
 18 37  1  0  0  0  0
 23 38  1  0  0  0  0
 24 39  1  0  0  0  0
 24 40  1  0  0  0  0
 25 41  1  0  0  0  0
 25 42  1  0  0  0  0
M  END
>  <DRUGBANK_ID>
DB03351

>  <SECONDARY_ACCESSION_NUMBERS>
EXPT02031

>  <COMMON_NAME>
Sri-9439

$$$$
