
 OpenBabel10282417153D

 48 52  0  0  0  0  0  0  0  0999 V2000
    1.2703   -0.3079    0.0368 C   0  0  1  0  0  0  0  0  0  0  0  0
    0.9838   -1.6435    1.1944 C   0  0  0  0  0  0  0  0  0  0  0  0
    0.4455   -1.0493   -1.1413 N   0  0  0  0  0  0  0  0  0  0  0  0
    0.4058   -2.7182    0.5145 N   0  0  0  0  0  0  0  0  0  0  0  0
    0.9394   -1.5174    2.4176 O   0  0  0  0  0  0  0  0  0  0  0  0
   -0.8451   -3.3927    0.8407 C   0  0  2  0  0  0  0  0  0  0  0  0
   -1.1113   -4.3125   -0.3649 C   0  0  2  0  0  0  0  0  0  0  0  0
   -0.0899   -3.9515   -1.4177 C   0  0  0  0  0  0  0  0  0  0  0  0
    1.0945   -3.3677   -0.6301 C   0  0  1  0  0  0  0  0  0  0  0  0
    2.0779   -2.6644   -1.5301 C   0  0  0  0  0  0  0  0  0  0  0  0
    2.6317   -1.9273   -2.2507 N   0  0  0  0  0  0  0  0  0  0  0  0
   -2.1914   -3.3920    0.1262 C   0  0  0  0  0  0  0  0  0  0  0  0
   -1.2775   -5.3755   -0.3298 H   0  0  0  0  0  0  0  0  0  0  0  0
   -0.8862   -3.6716    1.8846 H   0  0  0  0  0  0  0  0  0  0  0  0
    0.5588    1.6719    0.5642 C   0  0  3  0  0  0  0  0  0  0  0  0
   -0.7394    2.5578   -0.5165 C   0  0  0  0  0  0  0  0  0  0  0  0
   -0.0382    2.5069   -1.7519 C   0  0  3  0  0  0  0  0  0  0  0  0
    1.3262    1.6416    0.3242 C   0  0  3  0  0  0  0  0  0  0  0  0
    1.1679    2.9430   -1.1236 C   0  0  0  0  0  0  0  0  0  0  0  0
   -0.9282    0.5607   -0.0158 C   0  0  3  0  0  0  0  0  0  0  0  0
   -0.5115    1.5080    1.5591 C   0  0  0  0  0  0  0  0  0  0  0  0
    1.5091    2.3590    1.5562 C   0  0  0  0  0  0  0  0  0  0  0  0
    0.0888    1.0678   -1.6672 C   0  0  0  0  0  0  0  0  0  0  0  0
   -0.1721    0.1423    1.1478 C   0  0  0  0  0  0  0  0  0  0  0  0
    2.9106    1.9360   -0.0061 O   0  0  0  0  0  0  0  0  0  0  0  0
    2.3571   -0.3045   -0.0474 H   0  0  0  0  0  0  0  0  0  0  0  0
    0.9765   -0.9868   -2.0061 H   0  0  0  0  0  0  0  0  0  0  0  0
   -0.5107   -0.7828   -1.3712 H   0  0  0  0  0  0  0  0  0  0  0  0
   -0.5496   -3.2489   -2.1312 H   0  0  0  0  0  0  0  0  0  0  0  0
    0.2736   -4.8100   -1.9782 H   0  0  0  0  0  0  0  0  0  0  0  0
    1.6871   -4.1073   -0.1121 H   0  0  0  0  0  0  0  0  0  0  0  0
   -2.5624   -2.5667   -0.4690 H   0  0  0  0  0  0  0  0  0  0  0  0
   -3.0526   -3.8615    0.6199 H   0  0  0  0  0  0  0  0  0  0  0  0
   -1.6772    2.0270   -0.8529 H   0  0  0  0  0  0  0  0  0  0  0  0
   -1.0595    3.3902    0.0551 H   0  0  0  0  0  0  0  0  0  0  0  0
   -0.4498    2.8838   -2.6765 H   0  0  0  0  0  0  0  0  0  0  0  0
    1.9579    2.9507   -1.9153 H   0  0  0  0  0  0  0  0  0  0  0  0
    1.0778    3.9987   -0.8032 H   0  0  0  0  0  0  0  0  0  0  0  0
   -2.0032    0.3217   -0.1085 H   0  0  0  0  0  0  0  0  0  0  0  0
    0.2754    1.1360    2.6077 H   0  0  0  0  0  0  0  0  0  0  0  0
   -1.0429    2.3300    1.9755 H   0  0  0  0  0  0  0  0  0  0  0  0
    1.4771    3.4296    1.4610 H   0  0  0  0  0  0  0  0  0  0  0  0
    2.4635    1.8872    1.9004 H   0  0  0  0  0  0  0  0  0  0  0  0
    0.3067    0.6767   -2.7033 H   0  0  0  0  0  0  0  0  0  0  0  0
    1.2262    0.8417   -1.5735 H   0  0  0  0  0  0  0  0  0  0  0  0
   -1.4103   -0.0730    1.4079 H   0  0  0  0  0  0  0  0  0  0  0  0
   -0.5274   -0.1484    2.3840 H   0  0  0  0  0  0  0  0  0  0  0  0
    3.0366    2.8496   -0.4629 H   0  0  0  0  0  0  0  0  0  0  0  0
  1  3  1  0  0  0  0
  1 26  1  6  0  0  0
  1  2  1  0  0  0  0
  1 15  1  0  0  0  0
  2  4  1  0  0  0  0
  2  5  2  0  0  0  0
  3 27  1  0  0  0  0
  3 28  1  0  0  0  0
  4  6  1  0  0  0  0
  4  9  1  0  0  0  0
  6  7  1  0  0  0  0
  6 14  1  1  0  0  0
  7  8  1  0  0  0  0
  7 12  1  0  0  0  0
  7 13  1  1  0  0  0
  8  9  1  0  0  0  0
  8 29  1  0  0  0  0
  8 30  1  0  0  0  0
  9 31  1  1  0  0  0
  9 10  1  0  0  0  0
 10 11  3  0  0  0  0
 12  6  1  0  0  0  0
 12 32  1  0  0  0  0
 12 33  1  0  0  0  0
 15 16  1  0  0  0  0
 15 22  1  0  0  0  0
 15 21  1  0  0  0  0
 16 17  1  0  0  0  0
 16 34  1  0  0  0  0
 16 35  1  0  0  0  0
 17 19  1  0  0  0  0
 17 36  1  0  0  0  0
 18 22  1  0  0  0  0
 18 19  1  0  0  0  0
 18 25  1  0  0  0  0
 19 37  1  0  0  0  0
 19 38  1  0  0  0  0
 20 21  1  0  0  0  0
 20 39  1  0  0  0  0
 21 40  1  0  0  0  0
 21 41  1  0  0  0  0
 22 42  1  0  0  0  0
 22 43  1  0  0  0  0
 23 20  1  0  0  0  0
 23 17  1  0  0  0  0
 23 44  1  0  0  0  0
 23 45  1  0  0  0  0
 24 18  1  0  0  0  0
 24 20  1  0  0  0  0
 24 46  1  0  0  0  0
 24 47  1  0  0  0  0
 25 48  1  0  0  0  0
M  END
>  <DRUGBANK_ID>
DB06335

>  <COMMON_NAME>
Saxagliptin

>  <CAS_NUMBER>
361442-04-8

>  <UNII>
8I7IO46IVQ

>  <SYNONYMS>
(1S,3S,5S)-2-((2S)-Amino(3-hydroxytricyclo(3.3.1.13,7)dec-1-yl)acetyl)-2-azabicyclo(3.1.0)hexane-3-carbonitrile; Saxagliptin; Saxagliptin anhydrous; Saxagliptina

$$$$
