ChEBI
 OpenBabel10282417123D

 33 33  0  0  1  0  0  0  0  0999 V2000
    1.2874   -0.5363   -0.3799 C   0  0  1  0  0  0  0  0  0  0  0  0
    1.5987    0.7550    0.1451 O   0  0  0  0  0  0  0  0  0  0  0  0
   -0.2346   -0.7059   -0.4768 C   0  0  2  0  0  0  0  0  0  0  0  0
    0.3725    1.4266    0.3594 C   0  0  3  0  0  0  0  0  0  0  0  0
   -0.6910    0.7284   -0.4809 C   0  0  2  0  0  0  0  0  0  0  0  0
    0.0969    1.4047    1.7757 N   0  0  0  0  0  0  0  0  0  0  0  0
   -2.0146    0.8973   -0.0057 O   0  0  0  0  0  0  0  0  0  0  0  0
   -0.8059   -1.4454    0.6087 O   0  0  0  0  0  0  0  0  0  0  0  0
    1.9697   -0.7302   -1.7616 C   0  0  0  0  0  0  0  0  0  0  0  0
    1.2796   -3.3125   -1.8445 P   0  0  0  0  0  0  0  0  0  0  0  0
    1.3373   -1.7441   -2.5724 O   0  0  0  0  0  0  0  0  0  0  0  0
    2.4228   -3.7903   -2.7326 O   0  0  0  0  0  0  0  0  0  0  0  0
    1.9873   -2.8874   -0.4587 O   0  0  0  0  0  0  0  0  0  0  0  0
    1.2219   -4.8808   -1.1165 O   0  0  0  0  0  0  0  0  0  0  0  0
   -0.0226    2.5187    2.5653 C   0  0  0  0  0  0  0  0  0  0  0  0
   -0.3581    2.4031    3.7264 O   0  0  0  0  0  0  0  0  0  0  0  0
    0.2821    3.8733    1.9123 C   0  0  0  0  0  0  0  0  0  0  0  0
    1.6743    3.9023    1.4394 N   0  0  0  0  0  0  0  0  0  0  0  0
    1.6846   -1.1603    0.4208 H   0  0  0  0  0  0  0  0  0  0  0  0
   -0.5748   -1.2250   -1.3752 H   0  0  0  0  0  0  0  0  0  0  0  0
    0.4935    2.4306   -0.0303 H   0  0  0  0  0  0  0  0  0  0  0  0
   -0.6218    1.1083   -1.5070 H   0  0  0  0  0  0  0  0  0  0  0  0
    0.0125    0.5439    2.2928 H   0  0  0  0  0  0  0  0  0  0  0  0
   -2.0569    0.4185    0.8445 H   0  0  0  0  0  0  0  0  0  0  0  0
   -0.3779   -1.1999    1.4430 H   0  0  0  0  0  0  0  0  0  0  0  0
    1.9621    0.2073   -2.3258 H   0  0  0  0  0  0  0  0  0  0  0  0
    3.0317   -0.9866   -1.6405 H   0  0  0  0  0  0  0  0  0  0  0  0
    2.9529   -2.9769   -0.5157 H   0  0  0  0  0  0  0  0  0  0  0  0
    0.7606   -5.4950   -1.7145 H   0  0  0  0  0  0  0  0  0  0  0  0
   -0.4121    4.0228    1.0783 H   0  0  0  0  0  0  0  0  0  0  0  0
    0.1148    4.6651    2.6433 H   0  0  0  0  0  0  0  0  0  0  0  0
    1.8898    4.8079    1.0337 H   0  0  0  0  0  0  0  0  0  0  0  0
    2.3034    3.7599    2.2297 H   0  0  0  0  0  0  0  0  0  0  0  0
  1  2  1  0  0  0  0
  1  3  1  0  0  0  0
  1 19  1  1  0  0  0
  1  9  1  0  0  0  0
  2  4  1  0  0  0  0
  3  5  1  0  0  0  0
  3  8  1  0  0  0  0
  3 20  1  6  0  0  0
  4  5  1  0  0  0  0
  4  6  1  0  0  0  0
  4 21  1  0  0  0  0
  5  7  1  0  0  0  0
  5 22  1  6  0  0  0
  6 23  1  0  0  0  0
  7 24  1  0  0  0  0
  8 25  1  0  0  0  0
  9 11  1  0  0  0  0
  9 26  1  0  0  0  0
  9 27  1  0  0  0  0
 11 10  1  0  0  0  0
 12 10  2  0  0  0  0
 13 10  1  0  0  0  0
 13 28  1  0  0  0  0
 14 10  1  0  0  0  0
 14 29  1  0  0  0  0
 15  6  1  0  0  0  0
 16 15  2  0  0  0  0
 17 15  1  0  0  0  0
 17 30  1  0  0  0  0
 17 31  1  0  0  0  0
 18 17  1  0  0  0  0
 18 32  1  0  0  0  0
 18 33  1  0  0  0  0
M  END
>  <DRUGBANK_ID>
DB02236

>  <SECONDARY_ACCESSION_NUMBERS>
EXPT01547

>  <COMMON_NAME>
Glycinamide Ribonucleotide

$$$$
