
 OpenBabel10282417143D

 42 43  0  0  0  0  0  0  0  0999 V2000
    0.7998    0.1002   -0.0085 C   0  0  0  0  0  0  0  0  0  0  0  0
    0.1155    1.5017    0.0695 C   0  0  2  0  0  0  0  0  0  0  0  0
   -0.3256    2.1090   -1.2583 C   0  0  2  0  0  0  0  0  0  0  0  0
   -0.4428    3.5598   -1.0235 C   0  0  0  0  0  0  0  0  0  0  0  0
    0.7198    3.7931   -0.0532 C   0  0  1  0  0  0  0  0  0  0  0  0
    0.9770    2.5215    0.6244 O   0  0  0  0  0  0  0  0  0  0  0  0
    1.9679    4.2552   -0.7030 N   0  0  0  0  0  0  0  0  0  0  0  0
    1.9154    5.4065   -1.4884 C   0  0  0  0  0  0  0  0  0  0  0  0
    0.8877    6.0383   -1.7179 O   0  0  0  0  0  0  0  0  0  0  0  0
    3.1014    5.8030   -2.0475 N   0  0  0  0  0  0  0  0  0  0  0  0
    4.2359    5.0505   -2.1124 C   0  0  0  0  0  0  0  0  0  0  0  0
    5.1716    5.3220   -2.8544 O   0  0  0  0  0  0  0  0  0  0  0  0
    4.2683    3.8741   -1.2169 C   0  0  0  0  0  0  0  0  0  0  0  0
    5.5152    3.0563   -1.2015 C   0  0  0  0  0  0  0  0  0  0  0  0
    3.1706    3.5958   -0.5031 C   0  0  0  0  0  0  0  0  0  0  0  0
   -1.5572    1.5244   -1.7698 N   0  0  0  0  0  0  0  0  0  0  0  0
   -1.7885    1.5587   -3.0149 N   0  3  0  0  0  0  0  0  0  0  0  0
   -1.9760    1.5847   -4.1283 N   0  5  0  0  0  0  0  0  0  0  0  0
    3.5615   -0.9085   -2.2325 P   0  0  0  0  0  0  0  0  0  0  0  0
    3.0792   -1.6391   -0.9934 O   0  0  0  0  0  0  0  0  0  0  0  0
    4.1632   -1.9314   -3.3364 O   0  0  0  0  0  0  0  0  0  0  0  0
    5.1038   -0.7279   -1.4700 O   0  0  0  0  0  0  0  0  0  0  0  0
    2.0192   -1.0891   -2.9951 O   0  0  0  0  0  0  0  0  0  0  0  0
    1.0048    0.2455   -2.5678 P   0  0  3  0  0  0  0  0  0  0  0  0
   -0.1670   -0.2284   -3.4274 O   0  0  0  0  0  0  0  0  0  0  0  0
    1.5814    1.1238   -3.9422 O   0  0  0  0  0  0  0  0  0  0  0  0
    0.4281   -0.6327   -1.1934 O   0  0  0  0  0  0  0  0  0  0  0  0
    0.5272   -0.5203    0.8538 H   0  0  0  0  0  0  0  0  0  0  0  0
    1.8929    0.1968    0.0376 H   0  0  0  0  0  0  0  0  0  0  0  0
   -0.7200    1.3961    0.7660 H   0  0  0  0  0  0  0  0  0  0  0  0
    0.5140    2.1556   -1.9503 H   0  0  0  0  0  0  0  0  0  0  0  0
   -0.3555    4.0607   -1.9954 H   0  0  0  0  0  0  0  0  0  0  0  0
   -1.4260    3.7646   -0.6051 H   0  0  0  0  0  0  0  0  0  0  0  0
    0.4164    4.5484    0.6753 H   0  0  0  0  0  0  0  0  0  0  0  0
    3.0657    6.6160   -2.6439 H   0  0  0  0  0  0  0  0  0  0  0  0
    5.6906    2.6334   -2.1986 H   0  0  0  0  0  0  0  0  0  0  0  0
    6.3857    3.6523   -0.9171 H   0  0  0  0  0  0  0  0  0  0  0  0
    5.4320    2.2167   -0.5044 H   0  0  0  0  0  0  0  0  0  0  0  0
    3.1880    2.7969    0.2330 H   0  0  0  0  0  0  0  0  0  0  0  0
    3.5154   -2.6514   -3.4840 H   0  0  0  0  0  0  0  0  0  0  0  0
    5.3862    0.1964   -1.4154 H   0  0  0  0  0  0  0  0  0  0  0  0
    1.3872    0.5354   -4.7061 H   0  0  0  0  0  0  0  0  0  0  0  0
  1 27  1  0  0  0  0
  1 28  1  0  0  0  0
  1 29  1  0  0  0  0
  2  1  1  0  0  0  0
  2  3  1  0  0  0  0
  2  6  1  0  0  0  0
  2 30  1  1  0  0  0
  3  4  1  0  0  0  0
  3 31  1  6  0  0  0
  3 16  1  0  0  0  0
  4 32  1  0  0  0  0
  4 33  1  0  0  0  0
  5  4  1  0  0  0  0
  5  6  1  0  0  0  0
  5  7  1  0  0  0  0
  5 34  1  1  0  0  0
  7  8  1  0  0  0  0
  7 15  1  0  0  0  0
  8  9  2  0  0  0  0
  8 10  1  0  0  0  0
 10 11  1  0  0  0  0
 10 35  1  0  0  0  0
 11 12  2  0  0  0  0
 11 13  1  0  0  0  0
 13 14  1  0  0  0  0
 13 15  2  0  0  0  0
 14 36  1  0  0  0  0
 14 37  1  0  0  0  0
 14 38  1  0  0  0  0
 15 39  1  0  0  0  0
 16 17  2  0  0  0  0
 17 18  2  0  0  0  0
 19 20  2  0  0  0  0
 19 21  1  0  0  0  0
 19 22  1  0  0  0  0
 19 23  1  0  0  0  0
 21 40  1  0  0  0  0
 22 41  1  0  0  0  0
 23 24  1  0  0  0  0
 24 25  2  0  0  0  0
 24 26  1  0  0  0  0
 24 27  1  0  0  0  0
 26 42  1  0  0  0  0
M  CHG  2  17   1  18  -1
M  END
>  <DRUGBANK_ID>
DB04542

>  <SECONDARY_ACCESSION_NUMBERS>
EXPT00601

>  <COMMON_NAME>
Zidovudine diphosphate

>  <CAS_NUMBER>
106060-89-3

>  <UNII>
K7ZG448V5M

>  <SYNONYMS>
3'-Azido-3'-deoxythymidine 5'-diphosphate; AZTDP

$$$$
