
 OpenBabel10282417173D

 41 41  0  0  0  0  0  0  0  0999 V2000
    1.0549    0.0693    0.0467 P   0  0  2  0  0  0  0  0  0  0  0  0
   -0.2435   -4.0131    0.7375 O   0  0  0  0  0  0  0  0  0  0  0  0
   -0.5456   -3.4749   -1.5173 O   0  0  0  0  0  0  0  0  0  0  0  0
    1.1284   -0.6129    1.5342 O   0  0  0  0  0  0  0  0  0  0  0  0
    1.0120    1.6533    0.2882 O   0  0  0  0  0  0  0  0  0  0  0  0
   -0.4934    0.0693    0.0467 O   0  0  0  0  0  0  0  0  0  0  0  0
   -0.2150   -2.5797    0.6635 C   0  0  2  0  0  0  0  0  0  0  0  0
   -0.1763   -4.4912   -0.6086 C   0  0  0  0  0  0  0  0  0  0  0  0
   -0.2112   -2.2898   -0.8493 C   0  0  0  0  0  0  0  0  0  0  0  0
    1.0121   -2.0405    1.4665 C   0  0  0  0  0  0  0  0  0  0  0  0
    1.2641   -4.8854   -0.9076 C   0  0  0  0  0  0  0  0  0  0  0  0
   -1.1703   -5.6004   -0.8472 C   0  0  0  0  0  0  0  0  0  0  0  0
    2.8849    0.0693    0.0467 C   0  0  0  0  0  0  0  0  0  0  0  0
    3.4650    1.4036   -0.5414 C   0  0  0  0  0  0  0  0  0  0  0  0
    3.2506    2.7152    0.2901 C   0  0  0  0  0  0  0  0  0  0  0  0
    3.5684    2.5297    1.7651 C   0  0  0  0  0  0  0  0  0  0  0  0
    5.0582    2.4865    1.8693 C   0  0  0  0  0  0  0  0  0  0  0  0
    5.7384    3.4608    2.4299 C   0  0  0  0  0  0  0  0  0  0  0  0
    0.8666    2.0868   -0.5821 H   0  0  0  0  0  0  0  0  0  0  0  0
   -1.1292   -2.1885    1.1271 H   0  0  0  0  0  0  0  0  0  0  0  0
   -0.9497   -1.5608   -1.1828 H   0  0  0  0  0  0  0  0  0  0  0  0
    0.7793   -1.9992   -1.2143 H   0  0  0  0  0  0  0  0  0  0  0  0
    1.9411   -2.4256    1.0310 H   0  0  0  0  0  0  0  0  0  0  0  0
    0.9924   -2.4162    2.4953 H   0  0  0  0  0  0  0  0  0  0  0  0
    1.3927   -5.1324   -1.9651 H   0  0  0  0  0  0  0  0  0  0  0  0
    1.9510   -4.0551   -0.6966 H   0  0  0  0  0  0  0  0  0  0  0  0
    1.5761   -5.7205   -0.2781 H   0  0  0  0  0  0  0  0  0  0  0  0
   -2.1819   -5.2526   -0.6013 H   0  0  0  0  0  0  0  0  0  0  0  0
   -1.1827   -5.8744   -1.9086 H   0  0  0  0  0  0  0  0  0  0  0  0
   -0.9514   -6.4739   -0.2347 H   0  0  0  0  0  0  0  0  0  0  0  0
    3.3175   -0.1074    1.0356 H   0  0  0  0  0  0  0  0  0  0  0  0
    3.2087   -0.7670   -0.5832 H   0  0  0  0  0  0  0  0  0  0  0  0
    4.5442    1.2688   -0.6690 H   0  0  0  0  0  0  0  0  0  0  0  0
    3.0563    1.5534   -1.5484 H   0  0  0  0  0  0  0  0  0  0  0  0
    3.8246    3.5275   -0.1699 H   0  0  0  0  0  0  0  0  0  0  0  0
    2.2571    3.1685    0.2524 H   0  0  0  0  0  0  0  0  0  0  0  0
    3.1485    3.3652    2.3398 H   0  0  0  0  0  0  0  0  0  0  0  0
    3.1112    1.6330    2.1943 H   0  0  0  0  0  0  0  0  0  0  0  0
    5.5704    1.6639    1.3609 H   0  0  0  0  0  0  0  0  0  0  0  0
    6.8258    3.4716    2.4071 H   0  0  0  0  0  0  0  0  0  0  0  0
    5.2234    4.2998    2.9026 H   0  0  0  0  0  0  0  0  0  0  0  0
  1  4  1  0  0  0  0
  1  5  1  0  0  0  0
  1  6  2  6  0  0  0
  1 13  1  0  0  0  0
  2  7  1  0  0  0  0
  2  8  1  0  0  0  0
  3  8  1  0  0  0  0
  3  9  1  0  0  0  0
  4 10  1  0  0  0  0
  5 19  1  0  0  0  0
  7  9  1  0  0  0  0
  7 10  1  0  0  0  0
  7 20  1  1  0  0  0
  8 11  1  0  0  0  0
  8 12  1  0  0  0  0
  9 21  1  0  0  0  0
  9 22  1  0  0  0  0
 10 23  1  0  0  0  0
 10 24  1  0  0  0  0
 11 25  1  0  0  0  0
 11 26  1  0  0  0  0
 11 27  1  0  0  0  0
 12 28  1  0  0  0  0
 12 29  1  0  0  0  0
 12 30  1  0  0  0  0
 13 14  1  0  0  0  0
 13 31  1  0  0  0  0
 13 32  1  0  0  0  0
 14 15  1  0  0  0  0
 14 33  1  0  0  0  0
 14 34  1  0  0  0  0
 15 16  1  0  0  0  0
 15 35  1  0  0  0  0
 15 36  1  0  0  0  0
 16 17  1  0  0  0  0
 16 37  1  0  0  0  0
 16 38  1  0  0  0  0
 17 18  2  0  0  0  0
 17 39  1  0  0  0  0
 18 40  1  0  0  0  0
 18 41  1  0  0  0  0
M  END
>  <DRUGBANK_ID>
DB08548

>  <COMMON_NAME>
[(4S)-2,2-dimethyl-1,3-dioxolan-4-yl]methyl hydrogen hex-5-enylphosphonate

$$$$
