RBS
 OpenBabel10282417173D

 36 38  0  0  0  0  0  0  0  0999 V2000
    0.9922   -0.1373   -0.1564 O   0  0  0  0  0  0  0  0  0  0  0  0
    2.2172   -0.0875   -0.0290 C   0  0  0  0  0  0  0  0  0  0  0  0
    3.0485   -0.4360   -1.2134 C   0  0  0  0  0  0  0  0  0  0  0  0
    4.3848   -0.4562   -1.2963 C   0  0  0  0  0  0  0  0  0  0  0  0
    2.8866    0.3323    1.0996 N   0  0  0  0  0  0  0  0  0  0  0  0
    2.2320    0.6933    2.2939 C   0  0  0  0  0  0  0  0  0  0  0  0
    2.7120    1.7662    3.0486 C   0  0  0  0  0  0  0  0  0  0  0  0
    1.1269   -0.0128    2.7516 C   0  0  0  0  0  0  0  0  0  0  0  0
    0.5200    0.3428    3.9567 C   0  0  0  0  0  0  0  0  0  0  0  0
    0.9720    1.4073    4.7201 C   0  0  0  0  0  0  0  0  0  0  0  0
    2.0664    2.1593    4.2596 C   0  0  0  0  0  0  0  0  0  0  0  0
    2.4113    3.2574    5.0779 C   0  0  0  0  0  0  0  0  0  0  0  0
    1.7676    3.5105    6.2347 N   0  0  0  0  0  0  0  0  0  0  0  0
    0.7632    2.7058    6.5696 C   0  0  0  0  0  0  0  0  0  0  0  0
    0.3272    1.6659    5.8595 N   0  0  0  0  0  0  0  0  0  0  0  0
    3.3213    4.2431    4.6347 N   0  0  0  0  0  0  0  0  0  0  0  0
    3.9234    5.2315    5.4478 C   0  0  0  0  0  0  0  0  0  0  0  0
    4.1575    6.4950    4.8962 C   0  0  0  0  0  0  0  0  0  0  0  0
    4.3883    4.9683    6.7434 C   0  0  0  0  0  0  0  0  0  0  0  0
    5.0493    5.9553    7.4795 C   0  0  0  0  0  0  0  0  0  0  0  0
    5.2818    7.2062    6.9131 C   0  0  0  0  0  0  0  0  0  0  0  0
    4.8522    7.4700    5.6143 C   0  0  0  0  0  0  0  0  0  0  0  0
    2.4533   -0.7118   -2.0827 H   0  0  0  0  0  0  0  0  0  0  0  0
    4.8633   -0.7471   -2.2276 H   0  0  0  0  0  0  0  0  0  0  0  0
    5.0400   -0.2039   -0.4746 H   0  0  0  0  0  0  0  0  0  0  0  0
    3.8690    0.5521    1.0286 H   0  0  0  0  0  0  0  0  0  0  0  0
    3.5577    2.3332    2.6733 H   0  0  0  0  0  0  0  0  0  0  0  0
    0.7437   -0.8701    2.2037 H   0  0  0  0  0  0  0  0  0  0  0  0
   -0.3362   -0.2328    4.3025 H   0  0  0  0  0  0  0  0  0  0  0  0
    0.2516    2.9281    7.4989 H   0  0  0  0  0  0  0  0  0  0  0  0
    3.9751    3.9250    3.9338 H   0  0  0  0  0  0  0  0  0  0  0  0
    3.7586    6.7355    3.9142 H   0  0  0  0  0  0  0  0  0  0  0  0
    4.2270    3.9944    7.1986 H   0  0  0  0  0  0  0  0  0  0  0  0
    5.3863    5.7426    8.4906 H   0  0  0  0  0  0  0  0  0  0  0  0
    5.7905    7.9773    7.4851 H   0  0  0  0  0  0  0  0  0  0  0  0
    5.0532    8.4357    5.1596 H   0  0  0  0  0  0  0  0  0  0  0  0
  1  2  2  0  0  0  0
  2  3  1  0  0  0  0
  2  5  1  0  0  0  0
  3  4  2  0  0  0  0
  3 23  1  0  0  0  0
  4 24  1  0  0  0  0
  4 25  1  0  0  0  0
  5  6  1  0  0  0  0
  5 26  1  0  0  0  0
  6  8  2  0  0  0  0
  6  7  1  0  0  0  0
  7 11  2  0  0  0  0
  7 27  1  0  0  0  0
  8  9  1  0  0  0  0
  8 28  1  0  0  0  0
  9 10  2  0  0  0  0
  9 29  1  0  0  0  0
 10 11  1  0  0  0  0
 10 15  1  0  0  0  0
 11 12  1  0  0  0  0
 12 16  1  0  0  0  0
 12 13  2  0  0  0  0
 13 14  1  0  0  0  0
 14 15  2  0  0  0  0
 14 30  1  0  0  0  0
 16 17  1  0  0  0  0
 16 31  1  0  0  0  0
 17 19  2  0  0  0  0
 17 18  1  0  0  0  0
 18 22  2  0  0  0  0
 18 32  1  0  0  0  0
 19 20  1  0  0  0  0
 19 33  1  0  0  0  0
 20 21  2  0  0  0  0
 20 34  1  0  0  0  0
 21 22  1  0  0  0  0
 21 35  1  0  0  0  0
 22 36  1  0  0  0  0
M  END
>  <DRUGBANK_ID>
DB08462

>  <COMMON_NAME>
N-(4-PHENYLAMINO-QUINAZOLIN-6-YL)-ACRYLAMIDE

$$$$
