
 OpenBabel10282417193D

 54 57  0  0  0  0  0  0  0  0999 V2000
    0.7843    0.2106    0.8655 C   0  0  0  0  0  0  0  0  0  0  0  0
    1.2614   -0.9385   -0.5056 O   0  0  0  0  0  0  0  0  0  0  0  0
    1.2750   -1.8533   -1.5792 C   0  0  0  0  0  0  0  0  0  0  0  0
    0.2233   -2.5851   -2.2389 C   0  0  0  0  0  0  0  0  0  0  0  0
    0.4618   -3.2795   -3.4173 C   0  0  0  0  0  0  0  0  0  0  0  0
    1.7791   -3.2340   -3.8856 C   0  0  0  0  0  0  0  0  0  0  0  0
    2.8025   -2.5047   -3.2127 C   0  0  0  0  0  0  0  0  0  0  0  0
    2.5599   -1.8339   -2.0515 C   0  0  0  0  0  0  0  0  0  0  0  0
    3.5544   -1.1199   -1.4224 O   0  0  0  0  0  0  0  0  0  0  0  0
    3.0387   -0.3196   -0.2962 C   0  0  0  0  0  0  0  0  0  0  0  0
    2.3525   -1.5529    1.0245 C   0  0  0  0  0  0  0  0  0  0  0  0
    0.5488   -2.2137    0.7799 C   0  0  0  0  0  0  0  0  0  0  0  0
   -0.6537   -1.0565   -0.1114 N   0  0  0  0  0  0  0  0  0  0  0  0
   -0.0174    0.2094   -1.3843 C   0  0  0  0  0  0  0  0  0  0  0  0
    1.7860    0.8977   -1.1002 C   0  0  0  0  0  0  0  0  0  0  0  0
   -1.7872   -0.8983    0.6904 C   0  0  0  0  0  0  0  0  0  0  0  0
   -1.9949   -1.6059    1.6562 O   0  0  0  0  0  0  0  0  0  0  0  0
   -2.7190    0.2354    0.4553 C   0  0  0  0  0  0  0  0  0  0  0  0
   -2.5904    1.3872   -0.1962 C   0  0  0  0  0  0  0  0  0  0  0  0
    2.0251   -3.9624   -5.0412 C   0  0  0  0  0  0  0  0  0  0  0  0
    1.0622   -4.6634   -5.6770 N   0  0  0  0  0  0  0  0  0  0  0  0
   -0.1697   -4.6072   -5.1697 C   0  0  0  0  0  0  0  0  0  0  0  0
   -0.5218   -3.9461   -4.0600 N   0  0  0  0  0  0  0  0  0  0  0  0
    3.3577   -4.1159   -5.4706 N   0  0  0  0  0  0  0  0  0  0  0  0
    3.7326   -4.6537   -6.7007 C   0  0  0  0  0  0  0  0  0  0  0  0
    4.7325   -5.6215   -6.7011 C   0  0  0  0  0  0  0  0  0  0  0  0
    4.9345   -6.3737   -7.8483 C   0  0  0  0  0  0  0  0  0  0  0  0
    4.3772   -5.9576   -9.0614 C   0  0  0  0  0  0  0  0  0  0  0  0
    3.5029   -4.8692   -9.1007 C   0  0  0  0  0  0  0  0  0  0  0  0
    3.1282   -4.2732   -7.9053 C   0  0  0  0  0  0  0  0  0  0  0  0
    2.1960   -3.3035   -7.9030 F   0  0  0  0  0  0  0  0  0  0  0  0
    2.8904   -4.2168  -10.5761 Cl  0  0  0  0  0  0  0  0  0  0  0  0
    4.8750   -6.7933  -10.4858 Cl  0  0  0  0  0  0  0  0  0  0  0  0
    0.2879   -0.2769    1.7115 H   0  0  0  0  0  0  0  0  0  0  0  0
    0.1698    1.0520    0.5056 H   0  0  0  0  0  0  0  0  0  0  0  0
    1.7058    0.6533    1.2555 H   0  0  0  0  0  0  0  0  0  0  0  0
   -0.8103   -2.5940   -1.8813 H   0  0  0  0  0  0  0  0  0  0  0  0
    3.8085   -2.4217   -3.5898 H   0  0  0  0  0  0  0  0  0  0  0  0
    3.8542    0.2505    0.1604 H   0  0  0  0  0  0  0  0  0  0  0  0
    3.0358   -2.4023    1.0908 H   0  0  0  0  0  0  0  0  0  0  0  0
    2.3466   -1.0469    2.0052 H   0  0  0  0  0  0  0  0  0  0  0  0
    0.6927   -3.1185    0.1654 H   0  0  0  0  0  0  0  0  0  0  0  0
    0.1404   -2.5870    1.7225 H   0  0  0  0  0  0  0  0  0  0  0  0
   -0.6981    0.9848   -1.6753 H   0  0  0  0  0  0  0  0  0  0  0  0
    0.0515   -0.2721   -2.3704 H   0  0  0  0  0  0  0  0  0  0  0  0
    1.7491    1.7671   -0.4158 H   0  0  0  0  0  0  0  0  0  0  0  0
    2.1764    1.3033   -2.0365 H   0  0  0  0  0  0  0  0  0  0  0  0
   -3.6348    0.0875    1.0205 H   0  0  0  0  0  0  0  0  0  0  0  0
   -3.4158    2.0709   -0.3202 H   0  0  0  0  0  0  0  0  0  0  0  0
   -1.6905    1.7763   -0.6204 H   0  0  0  0  0  0  0  0  0  0  0  0
   -0.9369   -5.1602   -5.7060 H   0  0  0  0  0  0  0  0  0  0  0  0
    4.0354   -3.4679   -5.1026 H   0  0  0  0  0  0  0  0  0  0  0  0
    5.2807   -5.8503   -5.7896 H   0  0  0  0  0  0  0  0  0  0  0  0
    5.5236   -7.2843   -7.7861 H   0  0  0  0  0  0  0  0  0  0  0  0
  1  2  1  0  0  0  0
  1 34  1  0  0  0  0
  1 35  1  0  0  0  0
  1 36  1  0  0  0  0
  2  3  1  0  0  0  0
  3  4  1  0  0  0  0
  3  8  2  0  0  0  0
  4  5  2  0  0  0  0
  4 37  1  0  0  0  0
  5  6  1  0  0  0  0
  5 23  1  0  0  0  0
  6  7  2  0  0  0  0
  6 20  1  0  0  0  0
  7  8  1  0  0  0  0
  7 38  1  0  0  0  0
  8  9  1  0  0  0  0
  9 10  1  0  0  0  0
 10 11  1  0  0  0  0
 10 15  1  0  0  0  0
 10 39  1  0  0  0  0
 11 12  1  0  0  0  0
 11 40  1  0  0  0  0
 11 41  1  0  0  0  0
 12 13  1  0  0  0  0
 12 42  1  0  0  0  0
 12 43  1  0  0  0  0
 13 14  1  0  0  0  0
 13 16  1  0  0  0  0
 14 15  1  0  0  0  0
 14 44  1  0  0  0  0
 14 45  1  0  0  0  0
 15 46  1  0  0  0  0
 15 47  1  0  0  0  0
 16 17  2  0  0  0  0
 16 18  1  0  0  0  0
 18 19  2  0  0  0  0
 18 48  1  0  0  0  0
 19 49  1  0  0  0  0
 19 50  1  0  0  0  0
 20 21  2  0  0  0  0
 20 24  1  0  0  0  0
 21 22  1  0  0  0  0
 22 23  2  0  0  0  0
 22 51  1  0  0  0  0
 24 25  1  0  0  0  0
 24 52  1  0  0  0  0
 25 26  2  0  0  0  0
 25 30  1  0  0  0  0
 26 27  1  0  0  0  0
 26 53  1  0  0  0  0
 27 28  2  0  0  0  0
 27 54  1  0  0  0  0
 28 29  1  0  0  0  0
 28 33  1  0  0  0  0
 29 30  2  0  0  0  0
 29 32  1  0  0  0  0
 30 31  1  0  0  0  0
M  END
>  <DRUGBANK_ID>
DB12114

>  <COMMON_NAME>
Poziotinib

>  <CAS_NUMBER>
1092364-38-9

>  <UNII>
OEI6OOU6IK

>  <SYNONYMS>
Poziotinib

$$$$
