A05
 OpenBabel10282417163D

 24 25  0  0  0  0  0  0  0  0999 V2000
    0.9014    0.1231    0.0086 O   0  0  0  0  0  0  0  0  0  0  0  0
    0.3275    1.3100   -0.3166 C   0  0  0  0  0  0  0  0  0  0  0  0
    1.0297    2.2801   -0.5812 O   0  0  0  0  0  0  0  0  0  0  0  0
   -1.1107    1.2215   -0.2454 C   0  0  0  0  0  0  0  0  0  0  0  0
   -1.9316    1.8597   -1.1629 O   0  0  0  0  0  0  0  0  0  0  0  0
   -1.8955    0.5579    0.6801 C   0  0  0  0  0  0  0  0  0  0  0  0
   -3.2375    0.7897    0.3260 C   0  0  0  0  0  0  0  0  0  0  0  0
   -3.2313    1.5849   -0.8017 C   0  0  0  0  0  0  0  0  0  0  0  0
   -4.3405    2.1838   -1.5570 C   0  0  0  0  0  0  0  0  0  0  0  0
   -4.5625    1.8525   -2.9072 C   0  0  0  0  0  0  0  0  0  0  0  0
   -5.6969    2.3271   -3.5970 C   0  0  0  0  0  0  0  0  0  0  0  0
   -6.6196    3.1531   -2.9421 C   0  0  0  0  0  0  0  0  0  0  0  0
   -7.7939    3.6759   -3.6600 N   0  3  0  0  0  0  0  0  0  0  0  0
   -8.5739    4.4074   -3.0333 O   0  5  0  0  0  0  0  0  0  0  0  0
   -7.9325    3.3562   -4.8485 O   0  0  0  0  0  0  0  0  0  0  0  0
   -6.4281    3.4864   -1.6005 C   0  0  0  0  0  0  0  0  0  0  0  0
   -5.3050    2.9959   -0.9172 C   0  0  0  0  0  0  0  0  0  0  0  0
   -5.1831    3.4301    0.7576 Cl  0  0  0  0  0  0  0  0  0  0  0  0
    1.8667    0.2750   -0.0620 H   0  0  0  0  0  0  0  0  0  0  0  0
   -1.5261    0.0055    1.5328 H   0  0  0  0  0  0  0  0  0  0  0  0
   -4.1210    0.4521    0.8476 H   0  0  0  0  0  0  0  0  0  0  0  0
   -3.8732    1.1908   -3.4308 H   0  0  0  0  0  0  0  0  0  0  0  0
   -5.8504    2.0389   -4.6370 H   0  0  0  0  0  0  0  0  0  0  0  0
   -7.1427    4.1174   -1.0742 H   0  0  0  0  0  0  0  0  0  0  0  0
  1  2  1  0  0  0  0
  1 19  1  0  0  0  0
  2  3  2  0  0  0  0
  2  4  1  0  0  0  0
  4  5  1  0  0  0  0
  4  6  2  0  0  0  0
  5  8  1  0  0  0  0
  6  7  1  0  0  0  0
  6 20  1  0  0  0  0
  7  8  2  0  0  0  0
  7 21  1  0  0  0  0
  8  9  1  0  0  0  0
  9 10  2  0  0  0  0
  9 17  1  0  0  0  0
 10 11  1  0  0  0  0
 10 22  1  0  0  0  0
 11 12  2  0  0  0  0
 11 23  1  0  0  0  0
 12 13  1  0  0  0  0
 12 16  1  0  0  0  0
 13 14  1  0  0  0  0
 13 15  2  0  0  0  0
 16 17  2  0  0  0  0
 16 24  1  0  0  0  0
 17 18  1  0  0  0  0
M  CHG  2  13   1  14  -1
M  END
>  <DRUGBANK_ID>
DB07305

>  <COMMON_NAME>
5-(2-CHLORO-4-NITROPHENYL)-2-FUROIC ACID

$$$$
