
 OpenBabel10282417213D

 61 63  0  0  0  0  0  0  0  0999 V2000
    0.8521    0.3140    0.0002 C   0  0  0  0  0  0  0  0  0  0  0  0
   -1.2844   -3.4670   -3.9667 C   0  0  0  0  0  0  0  0  0  0  0  0
    0.2456    0.4432   -1.4156 C   0  0  0  0  0  0  0  0  0  0  0  0
   -1.9381   -2.3333   -3.1635 C   0  0  0  0  0  0  0  0  0  0  0  0
    0.5239   -0.7139   -2.3503 C   0  0  0  0  0  0  0  0  0  0  0  0
    8.8202  -11.1932    0.8504 C   0  0  0  0  0  0  0  0  0  0  0  0
    8.4689  -10.3670    1.9143 C   0  0  0  0  0  0  0  0  0  0  0  0
    8.2314  -11.0145   -0.4007 C   0  0  0  0  0  0  0  0  0  0  0  0
    3.5913   -3.7046   -2.4304 C   0  0  0  0  0  0  0  0  0  0  0  0
    2.7238   -2.7163   -2.2131 C   0  0  0  0  0  0  0  0  0  0  0  0
   -0.0864   -2.0037   -1.7917 C   0  0  0  0  0  0  0  0  0  0  0  0
    7.5162   -9.3704    1.7258 C   0  0  0  0  0  0  0  0  0  0  0  0
    7.3221   -9.9814   -0.6044 C   0  0  0  0  0  0  0  0  0  0  0  0
    3.6241   -4.6145   -1.4097 C   0  0  0  0  0  0  0  0  0  0  0  0
    2.1781   -2.6092   -0.9128 C   0  0  0  0  0  0  0  0  0  0  0  0
    5.9749   -6.9050    0.6910 C   0  0  0  0  0  0  0  0  0  0  0  0
    4.5412   -8.7420   -0.0433 C   0  0  0  0  0  0  0  0  0  0  0  0
    4.8644   -6.1095    0.8472 C   0  0  0  0  0  0  0  0  0  0  0  0
    3.4238   -7.9572    0.1027 C   0  0  0  0  0  0  0  0  0  0  0  0
   -1.6057   -3.6664   -0.8956 C   0  0  0  0  0  0  0  0  0  0  0  0
   -1.5220   -2.3237   -1.7040 C   0  0  3  0  0  0  0  0  0  0  0  0
    6.9217   -9.1800    0.4654 C   0  0  0  0  0  0  0  0  0  0  0  0
    5.8126   -8.2486    0.3247 C   0  0  0  0  0  0  0  0  0  0  0  0
    3.6122   -6.6695    0.5725 C   0  0  0  0  0  0  0  0  0  0  0  0
    2.5548   -4.7116   -0.4243 C   0  0  0  0  0  0  0  0  0  0  0  0
    1.6545   -3.7108   -0.2708 C   0  0  0  0  0  0  0  0  0  0  0  0
    2.4656   -5.8221    0.4986 C   0  0  0  0  0  0  0  0  0  0  0  0
    0.4905   -3.6660    0.7485 C   0  0  0  0  0  0  0  0  0  0  0  0
    1.4246   -6.1432    1.0992 O   0  0  0  0  0  0  0  0  0  0  0  0
    0.7800   -3.5433    1.9295 O   0  0  0  0  0  0  0  0  0  0  0  0
   -0.8555   -3.6409    0.3933 O   0  0  0  0  0  0  0  0  0  0  0  0
    0.4960   -0.5638    0.5553 H   0  0  0  0  0  0  0  0  0  0  0  0
    0.5798    1.1726    0.6081 H   0  0  0  0  0  0  0  0  0  0  0  0
    1.9515    0.2667   -0.0190 H   0  0  0  0  0  0  0  0  0  0  0  0
   -1.5224   -4.4393   -3.5311 H   0  0  0  0  0  0  0  0  0  0  0  0
   -1.6233   -3.4385   -4.9994 H   0  0  0  0  0  0  0  0  0  0  0  0
   -0.1873   -3.4042   -4.0215 H   0  0  0  0  0  0  0  0  0  0  0  0
   -0.8333    0.5449   -1.3489 H   0  0  0  0  0  0  0  0  0  0  0  0
    0.6831    1.3279   -1.8801 H   0  0  0  0  0  0  0  0  0  0  0  0
   -3.0213   -2.3407   -3.2380 H   0  0  0  0  0  0  0  0  0  0  0  0
   -1.6116   -1.3844   -3.6128 H   0  0  0  0  0  0  0  0  0  0  0  0
    0.3029   -0.5897   -3.4120 H   0  0  0  0  0  0  0  0  0  0  0  0
    1.6141   -0.6718   -2.3621 H   0  0  0  0  0  0  0  0  0  0  0  0
    9.5573  -11.9772    0.9954 H   0  0  0  0  0  0  0  0  0  0  0  0
    8.9134  -10.5150    2.8943 H   0  0  0  0  0  0  0  0  0  0  0  0
    8.4673  -11.6879   -1.2183 H   0  0  0  0  0  0  0  0  0  0  0  0
    4.2454   -3.6454   -3.2906 H   0  0  0  0  0  0  0  0  0  0  0  0
    2.5318   -2.0522   -3.0531 H   0  0  0  0  0  0  0  0  0  0  0  0
    0.3499   -2.9113   -2.2292 H   0  0  0  0  0  0  0  0  0  0  0  0
    0.0780   -1.9540   -0.7353 H   0  0  0  0  0  0  0  0  0  0  0  0
    7.2130   -8.7602    2.5764 H   0  0  0  0  0  0  0  0  0  0  0  0
    6.9063   -9.8103   -1.5941 H   0  0  0  0  0  0  0  0  0  0  0  0
    4.5216   -5.2107   -1.3889 H   0  0  0  0  0  0  0  0  0  0  0  0
    1.8937   -1.6475   -0.5551 H   0  0  0  0  0  0  0  0  0  0  0  0
    6.9605   -6.4860    0.8723 H   0  0  0  0  0  0  0  0  0  0  0  0
    4.4088   -9.7579   -0.4031 H   0  0  0  0  0  0  0  0  0  0  0  0
    4.9676   -5.0564    1.1039 H   0  0  0  0  0  0  0  0  0  0  0  0
    2.4245   -8.3123   -0.1419 H   0  0  0  0  0  0  0  0  0  0  0  0
   -2.6682   -3.8301   -0.6537 H   0  0  0  0  0  0  0  0  0  0  0  0
   -1.2620   -4.5533   -1.4295 H   0  0  0  0  0  0  0  0  0  0  0  0
   -1.9793   -1.5203   -1.1131 H   0  0  0  0  0  0  0  0  0  0  0  0
  1 32  1  0  0  0  0
  1 33  1  0  0  0  0
  1 34  1  0  0  0  0
  2 35  1  0  0  0  0
  2 36  1  0  0  0  0
  2 37  1  0  0  0  0
  3  1  1  0  0  0  0
  3 38  1  0  0  0  0
  3 39  1  0  0  0  0
  4  2  1  0  0  0  0
  4 40  1  0  0  0  0
  4 41  1  0  0  0  0
  5  3  1  0  0  0  0
  5 42  1  0  0  0  0
  5 43  1  0  0  0  0
  6 44  1  0  0  0  0
  7  6  2  0  0  0  0
  7 45  1  0  0  0  0
  8  6  1  0  0  0  0
  8 46  1  0  0  0  0
  9 47  1  0  0  0  0
 10  9  2  0  0  0  0
 10 48  1  0  0  0  0
 11  5  1  0  0  0  0
 11 49  1  0  0  0  0
 11 50  1  0  0  0  0
 12  7  1  0  0  0  0
 12 51  1  0  0  0  0
 13  8  2  0  0  0  0
 13 52  1  0  0  0  0
 14  9  1  0  0  0  0
 14 53  1  0  0  0  0
 15 10  1  0  0  0  0
 15 54  1  0  0  0  0
 16 55  1  0  0  0  0
 17 56  1  0  0  0  0
 18 16  1  0  0  0  0
 18 57  1  0  0  0  0
 19 17  2  0  0  0  0
 19 58  1  0  0  0  0
 20 59  1  0  0  0  0
 20 60  1  0  0  0  0
 21  4  1  0  0  0  0
 21 11  1  0  0  0  0
 21 20  1  0  0  0  0
 21 61  1  0  0  0  0
 22 12  2  0  0  0  0
 22 13  1  0  0  0  0
 23 16  2  0  0  0  0
 23 17  1  0  0  0  0
 23 22  1  0  0  0  0
 24 18  2  0  0  0  0
 24 19  1  0  0  0  0
 25 14  2  0  0  0  0
 26 15  2  0  0  0  0
 26 25  1  0  0  0  0
 27 24  1  0  0  0  0
 27 25  1  0  0  0  0
 28 26  1  0  0  0  0
 29 27  2  0  0  0  0
 30 28  2  0  0  0  0
 31 20  1  0  0  0  0
 31 28  1  0  0  0  0
M  END
>  <DRUGBANK_ID>
DB14471

>  <COMMON_NAME>
2-Ethylhexyl 4-phenylbenzophenone-2'-carboxylate

>  <CAS_NUMBER>
75005-95-7

>  <UNII>
93NOD9WBCS

$$$$
