482
 OpenBabel10282417103D

 40 42  0  0  0  0  0  0  0  0999 V2000
    0.9509   -0.0095   -0.0228 S   0  0  0  0  0  0  0  0  0  0  0  0
   10.1897    2.1556    1.2125 F   0  0  0  0  0  0  0  0  0  0  0  0
   10.1373    0.2806    2.3433 F   0  0  0  0  0  0  0  0  0  0  0  0
   11.3015    0.4198    0.5107 F   0  0  0  0  0  0  0  0  0  0  0  0
    0.5379    0.4767    1.2662 O   0  0  0  0  0  0  0  0  0  0  0  0
    0.4993    0.5935   -1.2616 O   0  0  0  0  0  0  0  0  0  0  0  0
    6.9255    0.0096   -0.3800 N   0  0  0  0  0  0  0  0  0  0  0  0
    7.6616    0.6668    0.5576 N   0  0  0  0  0  0  0  0  0  0  0  0
    0.4488   -1.6198   -0.0777 N   0  0  0  0  0  0  0  0  0  0  0  0
    7.7280   -0.6308   -1.3049 C   0  0  0  0  0  0  0  0  0  0  0  0
    5.5099   -0.0199   -0.2880 C   0  0  0  0  0  0  0  0  0  0  0  0
    7.2626   -1.3678   -2.4618 C   0  0  0  0  0  0  0  0  0  0  0  0
    9.0268   -0.4214   -0.9002 C   0  0  0  0  0  0  0  0  0  0  0  0
    8.9446    0.3534    0.2762 C   0  0  0  0  0  0  0  0  0  0  0  0
    4.8251   -1.2444   -0.2715 C   0  0  0  0  0  0  0  0  0  0  0  0
    4.8054    1.1839   -0.1935 C   0  0  0  0  0  0  0  0  0  0  0  0
    2.7251   -0.0607   -0.0656 C   0  0  0  0  0  0  0  0  0  0  0  0
    7.5998   -2.7191   -2.5553 C   0  0  0  0  0  0  0  0  0  0  0  0
    6.5031   -0.7616   -3.4666 C   0  0  0  0  0  0  0  0  0  0  0  0
    3.4294   -1.2654   -0.1485 C   0  0  0  0  0  0  0  0  0  0  0  0
    3.4128    1.1613   -0.0599 C   0  0  0  0  0  0  0  0  0  0  0  0
    6.4424   -2.8642   -4.6673 C   0  0  0  0  0  0  0  0  0  0  0  0
    7.1947   -3.4643   -3.6536 C   0  0  0  0  0  0  0  0  0  0  0  0
    6.0551   -1.5234   -4.5440 C   0  0  0  0  0  0  0  0  0  0  0  0
   10.1271    0.8054    1.0899 C   0  0  0  0  0  0  0  0  0  0  0  0
    6.1151   -3.6241   -5.9152 C   0  0  0  0  0  0  0  0  0  0  0  0
    0.6804   -2.1060    0.7876 H   0  0  0  0  0  0  0  0  0  0  0  0
   -0.5637   -1.6296   -0.2324 H   0  0  0  0  0  0  0  0  0  0  0  0
    9.9220   -0.7774   -1.3953 H   0  0  0  0  0  0  0  0  0  0  0  0
    5.3649   -2.1877   -0.3202 H   0  0  0  0  0  0  0  0  0  0  0  0
    5.3247    2.1364   -0.2820 H   0  0  0  0  0  0  0  0  0  0  0  0
    8.1899   -3.1906   -1.7732 H   0  0  0  0  0  0  0  0  0  0  0  0
    6.2705    0.3010   -3.4327 H   0  0  0  0  0  0  0  0  0  0  0  0
    2.9190   -2.2236   -0.1228 H   0  0  0  0  0  0  0  0  0  0  0  0
    2.8681    2.0985    0.0399 H   0  0  0  0  0  0  0  0  0  0  0  0
    7.4842   -4.5096   -3.7149 H   0  0  0  0  0  0  0  0  0  0  0  0
    5.4223   -1.0625   -5.2996 H   0  0  0  0  0  0  0  0  0  0  0  0
    5.0337   -3.6973   -6.0523 H   0  0  0  0  0  0  0  0  0  0  0  0
    6.5614   -3.1127   -6.7748 H   0  0  0  0  0  0  0  0  0  0  0  0
    6.5327   -4.6356   -5.8825 H   0  0  0  0  0  0  0  0  0  0  0  0
  1  5  2  0  0  0  0
  1  6  2  0  0  0  0
  1  9  1  0  0  0  0
  1 17  1  0  0  0  0
  2 25  1  0  0  0  0
  3 25  1  0  0  0  0
  4 25  1  0  0  0  0
  7  8  1  0  0  0  0
  7 10  1  0  0  0  0
  7 11  1  0  0  0  0
  8 14  2  0  0  0  0
  9 27  1  0  0  0  0
  9 28  1  0  0  0  0
 10 12  1  0  0  0  0
 10 13  2  0  0  0  0
 11 15  2  0  0  0  0
 11 16  1  0  0  0  0
 12 18  2  0  0  0  0
 12 19  1  0  0  0  0
 13 14  1  0  0  0  0
 13 29  1  0  0  0  0
 14 25  1  0  0  0  0
 15 20  1  0  0  0  0
 15 30  1  0  0  0  0
 16 21  2  0  0  0  0
 16 31  1  0  0  0  0
 17 20  2  0  0  0  0
 17 21  1  0  0  0  0
 18 23  1  0  0  0  0
 18 32  1  0  0  0  0
 19 24  2  0  0  0  0
 19 33  1  0  0  0  0
 20 34  1  0  0  0  0
 21 35  1  0  0  0  0
 22 23  2  0  0  0  0
 22 24  1  0  0  0  0
 22 26  1  0  0  0  0
 23 36  1  0  0  0  0
 24 37  1  0  0  0  0
 26 38  1  0  0  0  0
 26 39  1  0  0  0  0
 26 40  1  0  0  0  0
M  END
>  <DRUGBANK_ID>
DB00482

>  <SECONDARY_ACCESSION_NUMBERS>
APRD00373

>  <COMMON_NAME>
Celecoxib

>  <CAS_NUMBER>
169590-42-5

>  <UNII>
JCX84Q7J1L

>  <SYNONYMS>
Celecoxib; Célécoxib; Celecoxibum; p-(5-p-Tolyl-3-(trifluoromethyl)pyrazol-1-yl)benzenesulfonamide

$$$$
