C08
 OpenBabel10282417163D

 60 62  0  0  0  0  0  0  0  0999 V2000
    2.1445   -3.5975   -0.0032 C   0  0  0  0  0  0  0  0  0  0  0  0
    1.0362   -4.3471    0.0007 C   0  0  0  0  0  0  0  0  0  0  0  0
    0.7947   -5.6940   -0.0055 C   0  0  0  0  0  0  0  0  0  0  0  0
   -0.5594   -5.8679   -0.0062 C   0  0  0  0  0  0  0  0  0  0  0  0
   -1.1527   -4.7097   -0.0045 C   0  0  0  0  0  0  0  0  0  0  0  0
   -2.6572   -4.4928   -0.0040 C   0  0  0  0  0  0  0  0  0  0  0  0
   -3.0562   -3.7130    1.2382 C   0  0  0  0  0  0  0  0  0  0  0  0
   -2.3502   -2.3669    1.2399 C   0  0  0  0  0  0  0  0  0  0  0  0
   -2.7496   -1.5837   -0.0000 C   0  0  0  0  0  0  0  0  0  0  0  0
   -4.2540   -1.3668    0.0005 C   0  0  0  0  0  0  0  0  0  0  0  0
   -4.6531   -0.5869    1.2427 C   0  0  0  0  0  0  0  0  0  0  0  0
   -3.9471    0.7592    1.2444 C   0  0  0  0  0  0  0  0  0  0  0  0
   -4.3465    1.5424    0.0044 C   0  0  0  0  0  0  0  0  0  0  0  0
   -0.2191   -3.7272   -0.0033 N   0  0  0  0  0  0  0  0  0  0  0  0
   -0.2770   -2.3142   -0.0022 B   0  5  0  0  0  0  0  0  0  0  0  0
   -0.8731   -1.9921    1.2343 F   0  0  0  0  0  0  0  0  0  0  0  0
    0.8852   -1.6243   -0.0012 N   0  3  0  0  0  0  0  0  0  0  0  0
    5.8571   -1.3150   -0.0031 C   0  0  0  0  0  0  0  0  0  0  0  0
    5.8050    0.2041   -0.0019 C   0  0  0  0  0  0  0  0  0  0  0  0
    5.0710    0.6868   -1.2423 C   0  0  0  0  0  0  0  0  0  0  0  0
    3.6561    0.1313   -1.2421 C   0  0  0  0  0  0  0  0  0  0  0  0
    2.9232    0.6121   -0.0004 C   0  0  0  0  0  0  0  0  0  0  0  0
    2.8710    2.1313    0.0008 C   0  0  0  0  0  0  0  0  0  0  0  0
    1.6176    2.7987    0.0018 O   0  0  0  0  0  0  0  0  0  0  0  0
    3.9492    2.8041    0.0008 O   0  0  0  0  0  0  0  0  0  0  0  0
    4.5676   -2.1197   -0.0031 C   0  0  0  0  0  0  0  0  0  0  0  0
    3.3668   -1.4803   -0.0021 C   0  0  0  0  0  0  0  0  0  0  0  0
    2.0773   -2.2851   -0.0022 C   0  0  0  0  0  0  0  0  0  0  0  0
   -0.9920   -1.9251   -1.1535 F   0  0  0  0  0  0  0  0  0  0  0  0
    3.1021   -4.0749   -0.0072 H   0  0  0  0  0  0  0  0  0  0  0  0
    1.5322   -6.4692   -0.0091 H   0  0  0  0  0  0  0  0  0  0  0  0
   -1.0580   -6.8146   -0.0079 H   0  0  0  0  0  0  0  0  0  0  0  0
   -2.9383   -3.9415   -0.8769 H   0  0  0  0  0  0  0  0  0  0  0  0
   -3.1541   -5.4404   -0.0052 H   0  0  0  0  0  0  0  0  0  0  0  0
   -4.1152   -3.5603    1.2386 H   0  0  0  0  0  0  0  0  0  0  0  0
   -2.7750   -4.2643    2.1111 H   0  0  0  0  0  0  0  0  0  0  0  0
   -2.6311   -1.8179    2.1143 H   0  0  0  0  0  0  0  0  0  0  0  0
   -1.2911   -2.5196    1.2395 H   0  0  0  0  0  0  0  0  0  0  0  0
   -2.2526   -0.6361    0.0012 H   0  0  0  0  0  0  0  0  0  0  0  0
   -2.4687   -2.1326   -0.8745 H   0  0  0  0  0  0  0  0  0  0  0  0
   -4.5352   -0.8154   -0.8724 H   0  0  0  0  0  0  0  0  0  0  0  0
   -4.7510   -2.3143   -0.0007 H   0  0  0  0  0  0  0  0  0  0  0  0
   -5.7121   -0.4342    1.2430 H   0  0  0  0  0  0  0  0  0  0  0  0
   -4.3719   -1.1382    2.1155 H   0  0  0  0  0  0  0  0  0  0  0  0
   -4.2280    1.3081    2.1188 H   0  0  0  0  0  0  0  0  0  0  0  0
   -2.8880    0.6065    1.2440 H   0  0  0  0  0  0  0  0  0  0  0  0
   -5.4055    1.6951    0.0048 H   0  0  0  0  0  0  0  0  0  0  0  0
   -3.8495    2.4899    0.0056 H   0  0  0  0  0  0  0  0  0  0  0  0
   -4.0656    0.9934   -0.8700 H   0  0  0  0  0  0  0  0  0  0  0  0
    5.2890    0.5426    0.8722 H   0  0  0  0  0  0  0  0  0  0  0  0
    6.8010    0.5951   -0.0021 H   0  0  0  0  0  0  0  0  0  0  0  0
    5.0343    1.7562   -1.2415 H   0  0  0  0  0  0  0  0  0  0  0  0
    5.5869    0.3483   -2.1165 H   0  0  0  0  0  0  0  0  0  0  0  0
    3.1394    0.4711   -2.1153 H   0  0  0  0  0  0  0  0  0  0  0  0
    3.6928   -0.9381   -1.2430 H   0  0  0  0  0  0  0  0  0  0  0  0
    1.9272    0.2211   -0.0003 H   0  0  0  0  0  0  0  0  0  0  0  0
    3.4399    0.2723    0.8728 H   0  0  0  0  0  0  0  0  0  0  0  0
    0.7693    2.2692    0.0018 H   0  0  0  0  0  0  0  0  0  0  0  0
    5.4754   -1.5533   -0.0031 H   0  0  0  0  0  0  0  0  0  0  0  0
    3.3301   -0.4110   -0.0013 H   0  0  0  0  0  0  0  0  0  0  0  0
  1  2  1  0  0  0  0
  1 28  2  0  0  0  0
  1 30  1  0  0  0  0
  2  3  2  0  0  0  0
  2 14  1  0  0  0  0
  3  4  1  0  0  0  0
  3 31  1  0  0  0  0
  4  5  2  0  0  0  0
  4 32  1  0  0  0  0
  5  6  1  0  0  0  0
  5 14  1  0  0  0  0
  6  7  1  0  0  0  0
  6 33  1  0  0  0  0
  6 34  1  0  0  0  0
  7  8  1  0  0  0  0
  7 35  1  0  0  0  0
  7 36  1  0  0  0  0
  8  9  1  0  0  0  0
  8 37  1  0  0  0  0
  8 38  1  0  0  0  0
  9 10  1  0  0  0  0
  9 39  1  0  0  0  0
  9 40  1  0  0  0  0
 10 11  1  0  0  0  0
 10 41  1  0  0  0  0
 10 42  1  0  0  0  0
 11 12  1  0  0  0  0
 11 43  1  0  0  0  0
 11 44  1  0  0  0  0
 12 13  1  0  0  0  0
 12 45  1  0  0  0  0
 12 46  1  0  0  0  0
 13 47  1  0  0  0  0
 13 48  1  0  0  0  0
 13 49  1  0  0  0  0
 14 15  1  0  0  0  0
 15 16  1  0  0  0  0
 15 17  1  0  0  0  0
 15 29  1  0  0  0  0
 17 18  2  0  0  0  0
 17 28  1  0  0  0  0
 18 19  1  0  0  0  0
 18 26  1  0  0  0  0
 19 20  1  0  0  0  0
 19 50  1  0  0  0  0
 19 51  1  0  0  0  0
 20 21  1  0  0  0  0
 20 52  1  0  0  0  0
 20 53  1  0  0  0  0
 21 22  1  0  0  0  0
 21 54  1  0  0  0  0
 21 55  1  0  0  0  0
 22 23  1  0  0  0  0
 22 56  1  0  0  0  0
 22 57  1  0  0  0  0
 23 24  1  0  0  0  0
 23 25  2  0  0  0  0
 24 58  1  0  0  0  0
 26 27  2  0  0  0  0
 26 59  1  0  0  0  0
 27 28  1  0  0  0  0
 27 60  1  0  0  0  0
M  CHG  2  15  -1  17   1
M  END
>  <DRUGBANK_ID>
DB07509

>  <COMMON_NAME>
difluoro(5-{2-[(5-octyl-1H-pyrrol-2-yl-kappaN)methylidene]-2H-pyrrol-5-yl-kappaN}pentanoato)boron

$$$$
