
 OpenBabel10282417203D

 43 47  0  0  0  0  0  0  0  0999 V2000
   -3.3932    0.0325    0.0023 C   0  0  0  0  0  0  0  0  0  0  0  0
   -1.9131   -0.0322    0.0044 C   0  0  0  0  0  0  0  0  0  0  0  0
   -1.1349    1.0986    0.0011 N   0  0  0  0  0  0  0  0  0  0  0  0
    0.1814    0.7155    0.0032 C   0  0  0  0  0  0  0  0  0  0  0  0
    1.3717    1.4457    0.0111 C   0  0  0  0  0  0  0  0  0  0  0  0
    2.5635    0.7009   -0.0345 C   0  0  0  0  0  0  0  0  0  0  0  0
    2.5552   -0.7005   -0.0727 C   0  0  0  0  0  0  0  0  0  0  0  0
    1.3372   -1.4002   -0.0298 C   0  0  0  0  0  0  0  0  0  0  0  0
    0.1352   -0.6737   -0.0068 C   0  0  0  0  0  0  0  0  0  0  0  0
   -1.1656   -1.1167    0.0101 N   0  0  0  0  0  0  0  0  0  0  0  0
    3.8010    1.3899    0.0335 N   0  0  0  0  0  0  0  0  0  0  0  0
    4.1927    2.3042    1.0125 C   0  0  0  0  0  0  0  0  0  0  0  0
    5.4804    2.7089    0.6938 C   0  0  0  0  0  0  0  0  0  0  0  0
    5.7433    2.0347   -0.5213 C   0  0  0  0  0  0  0  0  0  0  0  0
    4.7745    1.1904   -0.8884 N   0  0  0  0  0  0  0  0  0  0  0  0
    6.3193    3.6052    1.5225 C   0  0  0  0  0  0  0  0  0  0  0  0
    5.9784    3.9888    2.6047 O   0  0  0  0  0  0  0  0  0  0  0  0
    7.5895    3.9936    0.8891 C   0  0  0  0  0  0  0  0  0  0  0  0
    7.7372    4.6420   -0.3224 C   0  0  0  0  0  0  0  0  0  0  0  0
    9.1027    4.9287   -0.5058 C   0  0  0  0  0  0  0  0  0  0  0  0
    9.8601    5.7089   -1.3815 C   0  0  0  0  0  0  0  0  0  0  0  0
   11.0636    6.0268   -0.7677 C   0  0  0  0  0  0  0  0  0  0  0  0
   11.8780    4.9815   -0.6552 C   0  0  0  0  0  0  0  0  0  0  0  0
   11.2561    4.2334    0.3351 C   0  0  0  0  0  0  0  0  0  0  0  0
    9.8147    4.2612    0.4937 C   0  0  0  0  0  0  0  0  0  0  0  0
    8.8703    3.8750    1.4398 N   0  0  0  0  0  0  0  0  0  0  0  0
    3.4256    2.6322    2.0805 N   0  0  0  0  0  0  0  0  0  0  0  0
   -3.7554    0.5557    0.8927 H   0  0  0  0  0  0  0  0  0  0  0  0
   -3.7559    0.5624   -0.8842 H   0  0  0  0  0  0  0  0  0  0  0  0
   -3.8232   -0.9735   -0.0017 H   0  0  0  0  0  0  0  0  0  0  0  0
   -1.4753    2.0489   -0.0089 H   0  0  0  0  0  0  0  0  0  0  0  0
    1.3735    2.5307    0.0150 H   0  0  0  0  0  0  0  0  0  0  0  0
    3.4877   -1.2617   -0.0713 H   0  0  0  0  0  0  0  0  0  0  0  0
    1.3107   -2.4848   -0.0112 H   0  0  0  0  0  0  0  0  0  0  0  0
    6.6279    2.0991   -1.1459 H   0  0  0  0  0  0  0  0  0  0  0  0
    6.9197    4.9591   -0.9576 H   0  0  0  0  0  0  0  0  0  0  0  0
    9.4361    6.1771   -2.2535 H   0  0  0  0  0  0  0  0  0  0  0  0
   11.6539    6.9137   -0.6817 H   0  0  0  0  0  0  0  0  0  0  0  0
   12.1303    4.9739   -1.7484 H   0  0  0  0  0  0  0  0  0  0  0  0
   11.8871    4.0741    1.2097 H   0  0  0  0  0  0  0  0  0  0  0  0
    9.0617    3.4753    2.3525 H   0  0  0  0  0  0  0  0  0  0  0  0
    2.5585    2.1559    2.3196 H   0  0  0  0  0  0  0  0  0  0  0  0
    3.8205    3.2052    2.8295 H   0  0  0  0  0  0  0  0  0  0  0  0
  1  2  1  0  0  0  0
  1 28  1  0  0  0  0
  1 29  1  0  0  0  0
  1 30  1  0  0  0  0
  2  3  1  0  0  0  0
  2 10  2  0  0  0  0
  3  4  1  0  0  0  0
  3 31  1  0  0  0  0
  4  5  2  0  0  0  0
  4  9  1  0  0  0  0
  5  6  1  0  0  0  0
  5 32  1  0  0  0  0
  6  7  2  0  0  0  0
  6 11  1  0  0  0  0
  7  8  1  0  0  0  0
  7 33  1  0  0  0  0
  8  9  2  0  0  0  0
  8 34  1  0  0  0  0
  9 10  1  0  0  0  0
 11 12  1  0  0  0  0
 11 15  1  0  0  0  0
 12 13  2  0  0  0  0
 12 27  1  0  0  0  0
 13 14  1  0  0  0  0
 13 16  1  0  0  0  0
 14 15  2  0  0  0  0
 14 35  1  0  0  0  0
 16 17  2  0  0  0  0
 16 18  1  0  0  0  0
 18 19  2  0  0  0  0
 18 26  1  0  0  0  0
 19 20  1  0  0  0  0
 19 36  1  0  0  0  0
 20 21  2  0  0  0  0
 20 25  1  0  0  0  0
 21 22  1  0  0  0  0
 21 37  1  0  0  0  0
 22 23  2  0  0  0  0
 22 38  1  0  0  0  0
 23 24  1  0  0  0  0
 23 39  1  0  0  0  0
 24 25  2  0  0  0  0
 24 40  1  0  0  0  0
 25 26  1  0  0  0  0
 26 41  1  0  0  0  0
 27 42  1  0  0  0  0
 27 43  1  0  0  0  0
M  END
>  <DRUGBANK_ID>
DB12903

>  <COMMON_NAME>
DEBIO-1347

>  <CAS_NUMBER>
1265229-25-1

>  <UNII>
NR9ZYH80Z8

$$$$
