B72
 OpenBabel10282417163D

 48 49  0  0  0  0  0  0  0  0999 V2000
    0.8273   -0.0505    0.1522 O   0  0  0  0  0  0  0  0  0  0  0  0
    0.2656    1.1660   -0.0041 C   0  0  0  0  0  0  0  0  0  0  0  0
    0.9689    2.1679   -0.0780 O   0  0  0  0  0  0  0  0  0  0  0  0
   -1.2410    1.1149   -0.2140 C   0  0  0  0  0  0  0  0  0  0  0  0
   -1.7692    0.2674   -1.2308 O   0  0  0  0  0  0  0  0  0  0  0  0
   -1.4218    0.5844   -2.5169 C   0  0  0  0  0  0  0  0  0  0  0  0
   -0.1352    0.9381   -2.9081 C   0  0  0  0  0  0  0  0  0  0  0  0
    0.1996    1.2052   -4.2343 C   0  0  0  0  0  0  0  0  0  0  0  0
    1.6389    1.5719   -4.5246 C   0  0  0  0  0  0  0  0  0  0  0  0
   -0.7830    1.0143   -5.2327 C   0  0  0  0  0  0  0  0  0  0  0  0
   -2.1003    0.6476   -4.8539 C   0  0  0  0  0  0  0  0  0  0  0  0
   -2.4011    0.4374   -3.4945 C   0  0  0  0  0  0  0  0  0  0  0  0
   -3.1886    0.4402   -5.8738 C   0  0  0  0  0  0  0  0  0  0  0  0
   -0.3611    1.0520   -6.6939 C   0  0  0  0  0  0  0  0  0  0  0  0
    0.6287   -0.0395   -7.0854 C   0  0  0  0  0  0  0  0  0  0  0  0
    1.2277   -0.0072   -8.3468 C   0  0  0  0  0  0  0  0  0  0  0  0
    2.2140   -0.9507   -8.7040 C   0  0  0  0  0  0  0  0  0  0  0  0
    2.8113   -0.9553  -10.0950 C   0  0  0  0  0  0  0  0  0  0  0  0
    3.5772    0.3359  -10.3668 C   0  0  0  0  0  0  0  0  0  0  0  0
    1.7273   -1.1957  -11.1447 C   0  0  0  0  0  0  0  0  0  0  0  0
    2.6330   -1.8899   -7.7538 C   0  0  0  0  0  0  0  0  0  0  0  0
    3.6197   -2.7789   -8.0707 O   0  0  0  0  0  0  0  0  0  0  0  0
    2.0559   -1.9362   -6.4980 C   0  0  0  0  0  0  0  0  0  0  0  0
    1.0225   -1.0592   -6.1978 C   0  0  0  0  0  0  0  0  0  0  0  0
    1.7930    0.1013    0.0821 H   0  0  0  0  0  0  0  0  0  0  0  0
   -1.6602    0.7721    0.7398 H   0  0  0  0  0  0  0  0  0  0  0  0
   -1.6157    2.1361   -0.3580 H   0  0  0  0  0  0  0  0  0  0  0  0
    0.6887    0.9564   -2.2153 H   0  0  0  0  0  0  0  0  0  0  0  0
    2.1607    0.8219   -5.1187 H   0  0  0  0  0  0  0  0  0  0  0  0
    1.6893    2.5301   -5.0435 H   0  0  0  0  0  0  0  0  0  0  0  0
    2.2294    1.6454   -3.6047 H   0  0  0  0  0  0  0  0  0  0  0  0
   -3.4035    0.1344   -3.1976 H   0  0  0  0  0  0  0  0  0  0  0  0
   -3.3306    1.3546   -6.4593 H   0  0  0  0  0  0  0  0  0  0  0  0
   -2.9368   -0.3903   -6.5413 H   0  0  0  0  0  0  0  0  0  0  0  0
   -4.1483    0.2054   -5.4019 H   0  0  0  0  0  0  0  0  0  0  0  0
    0.0741    2.0439   -6.8814 H   0  0  0  0  0  0  0  0  0  0  0  0
   -1.2239    0.9772   -7.3626 H   0  0  0  0  0  0  0  0  0  0  0  0
    0.9274    0.7621   -9.0569 H   0  0  0  0  0  0  0  0  0  0  0  0
    3.5274   -1.7802  -10.1872 H   0  0  0  0  0  0  0  0  0  0  0  0
    4.3560    0.4927   -9.6118 H   0  0  0  0  0  0  0  0  0  0  0  0
    4.0589    0.2917  -11.3482 H   0  0  0  0  0  0  0  0  0  0  0  0
    2.9182    1.2101  -10.3540 H   0  0  0  0  0  0  0  0  0  0  0  0
    0.9922   -0.3843  -11.1652 H   0  0  0  0  0  0  0  0  0  0  0  0
    2.1723   -1.2712  -12.1411 H   0  0  0  0  0  0  0  0  0  0  0  0
    1.1883   -2.1284  -10.9410 H   0  0  0  0  0  0  0  0  0  0  0  0
    3.7704   -3.3603   -7.3083 H   0  0  0  0  0  0  0  0  0  0  0  0
    2.3924   -2.6267   -5.7326 H   0  0  0  0  0  0  0  0  0  0  0  0
    0.5969   -1.1335   -5.2006 H   0  0  0  0  0  0  0  0  0  0  0  0
  1 25  1  0  0  0  0
  2  3  2  0  0  0  0
  2  1  1  0  0  0  0
  4  2  1  0  0  0  0
  4 26  1  0  0  0  0
  4 27  1  0  0  0  0
  5  4  1  0  0  0  0
  6  5  1  0  0  0  0
  7  6  1  0  0  0  0
  7 28  1  0  0  0  0
  8  7  2  0  0  0  0
  9  8  1  0  0  0  0
  9 29  1  0  0  0  0
  9 30  1  0  0  0  0
  9 31  1  0  0  0  0
 10 11  2  0  0  0  0
 10  8  1  0  0  0  0
 11 12  1  0  0  0  0
 12  6  2  0  0  0  0
 12 32  1  0  0  0  0
 13 11  1  0  0  0  0
 13 33  1  0  0  0  0
 13 34  1  0  0  0  0
 13 35  1  0  0  0  0
 14 10  1  0  0  0  0
 14 36  1  0  0  0  0
 14 37  1  0  0  0  0
 15 24  1  0  0  0  0
 15 14  1  0  0  0  0
 16 15  2  0  0  0  0
 16 38  1  0  0  0  0
 17 21  2  0  0  0  0
 17 16  1  0  0  0  0
 18 17  1  0  0  0  0
 18 20  1  0  0  0  0
 18 39  1  0  0  0  0
 19 18  1  0  0  0  0
 19 40  1  0  0  0  0
 19 41  1  0  0  0  0
 19 42  1  0  0  0  0
 20 43  1  0  0  0  0
 20 44  1  0  0  0  0
 20 45  1  0  0  0  0
 21 23  1  0  0  0  0
 22 21  1  0  0  0  0
 22 46  1  0  0  0  0
 23 24  2  0  0  0  0
 23 47  1  0  0  0  0
 24 48  1  0  0  0  0
M  END
>  <DRUGBANK_ID>
DB07425

>  <SECONDARY_ACCESSION_NUMBERS>
DB06018

>  <COMMON_NAME>
Sobetirome

>  <CAS_NUMBER>
211110-63-3

>  <UNII>
XQ31741E9Q

>  <SYNONYMS>
Sobetirome

$$$$
