
 OpenBabel10282417123D

 22 21  0  0  1  0  0  0  0  0999 V2000
   -0.4878    2.0860   -4.6822 C   0  0  0  0  0  0  0  0  0  0  0  0
   -0.9115    1.9046   -3.2162 C   0  0  2  0  0  0  0  0  0  0  0  0
    0.0162    2.7013   -2.2859 C   0  0  0  0  0  0  0  0  0  0  0  0
    1.3022    2.6110   -2.7121 F   0  0  0  0  0  0  0  0  0  0  0  0
   -0.9418    0.4130   -2.8321 C   0  0  0  0  0  0  0  0  0  0  0  0
   -1.5070    0.1774   -1.4137 C   0  0  2  0  0  0  0  0  0  0  0  0
   -0.9975   -1.0879   -0.8534 N   0  0  0  0  0  0  0  0  0  0  0  0
   -3.0457    0.1653   -1.4507 C   0  0  0  0  0  0  0  0  0  0  0  0
   -3.6402    1.1678   -0.7646 O   0  0  0  0  0  0  0  0  0  0  0  0
   -3.6989   -0.6791   -2.0561 O   0  0  0  0  0  0  0  0  0  0  0  0
    0.5246    2.4914   -4.7780 H   0  0  0  0  0  0  0  0  0  0  0  0
   -1.1586    2.7902   -5.1845 H   0  0  0  0  0  0  0  0  0  0  0  0
   -0.5107    1.1458   -5.2433 H   0  0  0  0  0  0  0  0  0  0  0  0
   -1.9358    2.2846   -3.1063 H   0  0  0  0  0  0  0  0  0  0  0  0
   -0.2738    3.7537   -2.2501 H   0  0  0  0  0  0  0  0  0  0  0  0
    0.0237    2.3337   -1.2606 H   0  0  0  0  0  0  0  0  0  0  0  0
   -1.5533   -0.1384   -3.5615 H   0  0  0  0  0  0  0  0  0  0  0  0
    0.0777    0.0182   -2.9260 H   0  0  0  0  0  0  0  0  0  0  0  0
   -1.1980    0.9480   -0.7081 H   0  0  0  0  0  0  0  0  0  0  0  0
   -0.2329   -1.4385   -1.4325 H   0  0  0  0  0  0  0  0  0  0  0  0
   -1.7255   -1.8031   -0.9223 H   0  0  0  0  0  0  0  0  0  0  0  0
   -3.0449    1.7430   -0.2480 H   0  0  0  0  0  0  0  0  0  0  0  0
  1 11  1  0  0  0  0
  1 12  1  0  0  0  0
  1 13  1  0  0  0  0
  2  5  1  0  0  0  0
  2 14  1  1  0  0  0
  2  3  1  0  0  0  0
  2  1  1  0  0  0  0
  3  4  1  0  0  0  0
  3 15  1  0  0  0  0
  3 16  1  0  0  0  0
  5 17  1  0  0  0  0
  5 18  1  0  0  0  0
  6  8  1  0  0  0  0
  6 19  1  1  0  0  0
  6  7  1  0  0  0  0
  6  5  1  0  0  0  0
  7 20  1  0  0  0  0
  7 21  1  0  0  0  0
  8  9  1  0  0  0  0
  8 10  2  0  0  0  0
  9 22  1  0  0  0  0
M  END
>  <DRUGBANK_ID>
DB02542

>  <SECONDARY_ACCESSION_NUMBERS>
EXPT02018

>  <COMMON_NAME>
(4s)-5-Fluoro-L-Leucine

$$$$
