
 OpenBabel10282417173D

 52 55  0  0  0  0  0  0  0  0999 V2000
   -0.7812    1.2597    0.3764 C   0  0  0  0  0  0  0  0  0  0  0  0
    0.6571    1.1732   -0.0446 C   0  0  0  0  0  0  0  0  0  0  0  0
    1.3674   -0.0640    0.2737 N   0  0  0  0  0  0  0  0  0  0  0  0
    0.6452   -1.2387   -0.2240 C   0  0  0  0  0  0  0  0  0  0  0  0
   -0.7857   -1.2852    0.2835 C   0  0  0  0  0  0  0  0  0  0  0  0
   -1.5534   -0.0017   -0.0497 C   0  0  0  0  0  0  0  0  0  0  0  0
   -2.8871    0.0064    0.5561 N   0  0  0  0  0  0  0  0  0  0  0  0
   -3.9892    0.1006   -0.3321 C   0  0  0  0  0  0  0  0  0  0  0  0
   -4.1841   -0.8957   -1.2320 N   0  0  0  0  0  0  0  0  0  0  0  0
   -5.3367   -0.8297   -1.9498 C   0  0  0  0  0  0  0  0  0  0  0  0
   -6.2389    0.2134   -1.8251 C   0  0  0  0  0  0  0  0  0  0  0  0
   -6.0342    1.2388   -0.9731 N   0  0  0  0  0  0  0  0  0  0  0  0
   -4.8999    1.1549   -0.2325 C   0  0  0  0  0  0  0  0  0  0  0  0
   -2.9997    0.0669    1.9593 C   0  0  0  0  0  0  0  0  0  0  0  0
   -2.0102    0.1279    2.6991 O   0  0  0  0  0  0  0  0  0  0  0  0
   -4.3147   -0.0073    2.5370 C   0  0  0  0  0  0  0  0  0  0  0  0
   -5.4018   -0.7983    2.2269 C   0  0  0  0  0  0  0  0  0  0  0  0
   -6.4420   -0.4060    3.0906 C   0  0  0  0  0  0  0  0  0  0  0  0
   -5.9172    0.5643    3.9105 C   0  0  0  0  0  0  0  0  0  0  0  0
   -4.6222    0.8101    3.5885 O   0  0  0  0  0  0  0  0  0  0  0  0
    2.7471   -0.0331   -0.2707 C   0  0  0  0  0  0  0  0  0  0  0  0
    2.9117   -0.0303   -1.8268 C   0  0  0  0  0  0  0  0  0  0  0  0
    2.3436    1.2030   -2.5129 C   0  0  0  0  0  0  0  0  0  0  0  0
    1.0977    1.1598   -3.1811 C   0  0  0  0  0  0  0  0  0  0  0  0
    0.3960    2.3454   -3.4400 C   0  0  0  0  0  0  0  0  0  0  0  0
    0.9632    3.5756   -3.1109 C   0  0  0  0  0  0  0  0  0  0  0  0
    2.2139    3.6253   -2.4955 C   0  0  0  0  0  0  0  0  0  0  0  0
    2.9144    2.4498   -2.2239 C   0  0  0  0  0  0  0  0  0  0  0  0
   -1.2418    2.1348   -0.1069 H   0  0  0  0  0  0  0  0  0  0  0  0
   -0.7969    1.4605    1.4441 H   0  0  0  0  0  0  0  0  0  0  0  0
    0.5306    1.2302   -1.0981 H   0  0  0  0  0  0  0  0  0  0  0  0
    1.2094    2.0633    0.2761 H   0  0  0  0  0  0  0  0  0  0  0  0
    1.1640   -2.1486    0.1002 H   0  0  0  0  0  0  0  0  0  0  0  0
    0.6109   -1.2606   -1.3178 H   0  0  0  0  0  0  0  0  0  0  0  0
   -0.7638   -1.4600    1.3614 H   0  0  0  0  0  0  0  0  0  0  0  0
   -1.2963   -2.1454   -0.1664 H   0  0  0  0  0  0  0  0  0  0  0  0
   -1.6630    0.0362   -1.1480 H   0  0  0  0  0  0  0  0  0  0  0  0
   -5.5302   -1.6546   -2.6285 H   0  0  0  0  0  0  0  0  0  0  0  0
   -7.1527    0.2545   -2.4081 H   0  0  0  0  0  0  0  0  0  0  0  0
   -4.7425    1.9716    0.4637 H   0  0  0  0  0  0  0  0  0  0  0  0
   -5.4220   -1.5448    1.4458 H   0  0  0  0  0  0  0  0  0  0  0  0
   -7.4481   -0.7936    3.1123 H   0  0  0  0  0  0  0  0  0  0  0  0
   -6.3155    1.1488    4.7276 H   0  0  0  0  0  0  0  0  0  0  0  0
    3.2763    0.8256    0.1670 H   0  0  0  0  0  0  0  0  0  0  0  0
    3.2761   -0.9101    0.1287 H   0  0  0  0  0  0  0  0  0  0  0  0
    3.9794   -0.0957   -2.0623 H   0  0  0  0  0  0  0  0  0  0  0  0
    2.4640   -0.9365   -2.2485 H   0  0  0  0  0  0  0  0  0  0  0  0
    0.5659    0.2142   -3.2906 H   0  0  0  0  0  0  0  0  0  0  0  0
   -0.6304    2.3065   -3.8007 H   0  0  0  0  0  0  0  0  0  0  0  0
    0.4194    4.4966   -3.3044 H   0  0  0  0  0  0  0  0  0  0  0  0
    2.6202    4.5790   -2.1692 H   0  0  0  0  0  0  0  0  0  0  0  0
    3.8607    2.5032   -1.6906 H   0  0  0  0  0  0  0  0  0  0  0  0
  1  2  1  0  0  0  0
  1  6  1  0  0  0  0
  1 29  1  0  0  0  0
  1 30  1  0  0  0  0
  2  3  1  0  0  0  0
  2 31  1  0  0  0  0
  2 32  1  0  0  0  0
  3  4  1  0  0  0  0
  3 21  1  0  0  0  0
  4  5  1  0  0  0  0
  4 33  1  0  0  0  0
  4 34  1  0  0  0  0
  5  6  1  0  0  0  0
  5 35  1  0  0  0  0
  5 36  1  0  0  0  0
  6  7  1  0  0  0  0
  6 37  1  0  0  0  0
  7  8  1  0  0  0  0
  7 14  1  0  0  0  0
  8  9  2  0  0  0  0
  8 13  1  0  0  0  0
  9 10  1  0  0  0  0
 10 11  2  0  0  0  0
 10 38  1  0  0  0  0
 11 12  1  0  0  0  0
 11 39  1  0  0  0  0
 12 13  2  0  0  0  0
 13 40  1  0  0  0  0
 14 15  2  0  0  0  0
 14 16  1  0  0  0  0
 16 17  2  0  0  0  0
 16 20  1  0  0  0  0
 17 18  1  0  0  0  0
 17 41  1  0  0  0  0
 18 19  2  0  0  0  0
 18 42  1  0  0  0  0
 19 20  1  0  0  0  0
 19 43  1  0  0  0  0
 21 22  1  0  0  0  0
 21 44  1  0  0  0  0
 21 45  1  0  0  0  0
 22 23  1  0  0  0  0
 22 46  1  0  0  0  0
 22 47  1  0  0  0  0
 23 24  2  0  0  0  0
 23 28  1  0  0  0  0
 24 25  1  0  0  0  0
 24 48  1  0  0  0  0
 25 26  2  0  0  0  0
 25 49  1  0  0  0  0
 26 27  1  0  0  0  0
 26 50  1  0  0  0  0
 27 28  2  0  0  0  0
 27 51  1  0  0  0  0
 28 52  1  0  0  0  0
M  END
>  <DRUGBANK_ID>
DB09175

>  <COMMON_NAME>
Mirfentanil

>  <CAS_NUMBER>
117523-47-4

>  <UNII>
Q2U943H24P

>  <SYNONYMS>
Mirfentanil

$$$$
