
 OpenBabel10282417103D

 34 36  0  0  0  0  0  0  0  0999 V2000
   -0.5212    0.3487    0.2987 C   0  0  0  0  0  0  0  0  0  0  0  0
   -1.0427   -0.9569    0.1059 C   0  0  0  0  0  0  0  0  0  0  0  0
   -1.4262    1.4082    0.5135 C   0  0  0  0  0  0  0  0  0  0  0  0
   -2.4261   -1.0935    0.0166 C   0  0  0  0  0  0  0  0  0  0  0  0
   -2.7904    1.2647    0.2569 C   0  0  0  0  0  0  0  0  0  0  0  0
   -3.3006   -0.0036    0.0296 C   0  0  0  0  0  0  0  0  0  0  0  0
    1.6899   -0.6778    0.0525 C   0  0  0  0  0  0  0  0  0  0  0  0
    1.0772   -1.9510    0.0034 C   0  0  0  0  0  0  0  0  0  0  0  0
    0.9042    0.4720    0.1785 C   0  0  0  0  0  0  0  0  0  0  0  0
   -0.2727   -2.0452   -0.0026 N   0  0  0  0  0  0  0  0  0  0  0  0
    3.0352   -0.3761    0.0034 N   0  0  0  0  0  0  0  0  0  0  0  0
    3.0876    0.9333    0.0150 C   0  0  0  0  0  0  0  0  0  0  0  0
    1.8338    1.5009    0.0536 N   0  0  0  0  0  0  0  0  0  0  0  0
    1.6407    2.9426   -0.0358 C   0  0  0  0  0  0  0  0  0  0  0  0
    1.0294    3.4952   -1.3515 C   0  0  0  0  0  0  0  0  0  0  0  0
   -0.3508    2.9575   -1.6770 C   0  0  0  0  0  0  0  0  0  0  0  0
    0.8571    5.0144   -1.2680 C   0  0  0  0  0  0  0  0  0  0  0  0
    1.8149   -3.1082   -0.0768 N   0  0  0  0  0  0  0  0  0  0  0  0
   -1.0610    2.3878    0.8031 H   0  0  0  0  0  0  0  0  0  0  0  0
   -2.8450   -2.0942   -0.0956 H   0  0  0  0  0  0  0  0  0  0  0  0
   -3.4447    2.1327    0.2260 H   0  0  0  0  0  0  0  0  0  0  0  0
   -4.3699   -0.1458   -0.1053 H   0  0  0  0  0  0  0  0  0  0  0  0
    4.0035    1.5113   -0.0195 H   0  0  0  0  0  0  0  0  0  0  0  0
    1.0863    3.2487    0.8564 H   0  0  0  0  0  0  0  0  0  0  0  0
    2.6403    3.3960    0.0684 H   0  0  0  0  0  0  0  0  0  0  0  0
    1.6901    3.2420   -2.1892 H   0  0  0  0  0  0  0  0  0  0  0  0
   -1.0578    3.3416   -0.9373 H   0  0  0  0  0  0  0  0  0  0  0  0
   -0.7429    3.2911   -2.6378 H   0  0  0  0  0  0  0  0  0  0  0  0
   -0.3386    1.8720   -1.7278 H   0  0  0  0  0  0  0  0  0  0  0  0
    1.8159    5.5336   -1.2360 H   0  0  0  0  0  0  0  0  0  0  0  0
    0.2965    5.3788   -2.1379 H   0  0  0  0  0  0  0  0  0  0  0  0
    0.2795    5.2896   -0.3764 H   0  0  0  0  0  0  0  0  0  0  0  0
    2.8177   -3.0348    0.0201 H   0  0  0  0  0  0  0  0  0  0  0  0
    1.3218   -3.9832    0.0103 H   0  0  0  0  0  0  0  0  0  0  0  0
  1  9  1  0  0  0  0
  2 10  1  0  0  0  0
  2  1  2  0  0  0  0
  3  1  1  0  0  0  0
  3 19  1  0  0  0  0
  4  2  1  0  0  0  0
  4 20  1  0  0  0  0
  5  3  2  0  0  0  0
  5 21  1  0  0  0  0
  6  4  2  0  0  0  0
  6  5  1  0  0  0  0
  6 22  1  0  0  0  0
  8  7  1  0  0  0  0
  8 18  1  0  0  0  0
  9  7  2  0  0  0  0
 10  8  2  0  0  0  0
 11  7  1  0  0  0  0
 12 11  2  0  0  0  0
 12 23  1  0  0  0  0
 13  9  1  0  0  0  0
 13 12  1  0  0  0  0
 13 14  1  0  0  0  0
 14 15  1  0  0  0  0
 14 24  1  0  0  0  0
 14 25  1  0  0  0  0
 15 16  1  0  0  0  0
 15 17  1  0  0  0  0
 15 26  1  0  0  0  0
 16 27  1  0  0  0  0
 16 28  1  0  0  0  0
 16 29  1  0  0  0  0
 17 30  1  0  0  0  0
 17 31  1  0  0  0  0
 17 32  1  0  0  0  0
 18 33  1  0  0  0  0
 18 34  1  0  0  0  0
M  END
>  <DRUGBANK_ID>
DB00724

>  <SECONDARY_ACCESSION_NUMBERS>
APRD01030

>  <COMMON_NAME>
Imiquimod

>  <CAS_NUMBER>
99011-02-6

>  <UNII>
P1QW714R7M

>  <SYNONYMS>
1-isobutyl-1H-imidazo[4,5-c]quinolin-4-amine; 4-Amino-1-isobutyl-1H-imidazo(4,5-c)quinoline; Imiquimod; Imiquimodum

$$$$
