
 OpenBabel10282417133D

 62 65  0  0  0  0  0  0  0  0999 V2000
    1.4250    1.6816   -0.0980 N   0  0  0  0  0  0  0  0  0  0  0  0
    1.4365    2.7024   -1.0736 C   0  0  0  0  0  0  0  0  0  0  0  0
    2.4710    2.8350   -2.2667 C   0  0  0  0  0  0  0  0  0  0  0  0
    3.9941    2.9438   -1.9883 C   0  0  0  0  0  0  0  0  0  0  0  0
    4.5749    1.6909   -1.5191 N   0  0  0  0  0  0  0  0  0  0  0  0
    4.1219    0.5075   -2.2321 C   0  0  0  0  0  0  0  0  0  0  0  0
    4.4184   -0.7242   -1.4055 C   0  0  0  0  0  0  0  0  0  0  0  0
    5.7600   -0.9705   -0.8073 C   0  0  0  0  0  0  0  0  0  0  0  0
    6.2591    0.3819   -0.2508 C   0  0  0  0  0  0  0  0  0  0  0  0
    5.9884    1.5909   -1.2000 C   0  0  0  0  0  0  0  0  0  0  0  0
   -1.5343   -1.5318   -0.0971 C   0  0  0  0  0  0  0  0  0  0  0  0
   -2.7323   -0.9489   -0.4260 C   0  0  0  0  0  0  0  0  0  0  0  0
   -2.9096    0.4260   -0.2403 C   0  0  0  0  0  0  0  0  0  0  0  0
   -1.8752    1.2328    0.2037 C   0  0  0  0  0  0  0  0  0  0  0  0
   -0.6745    0.6690    0.5626 C   0  0  0  0  0  0  0  0  0  0  0  0
   -0.5515   -0.7322    0.4681 C   0  0  0  0  0  0  0  0  0  0  0  0
    0.8916   -1.6011    0.9054 S   0  0  0  0  0  0  0  0  0  0  0  0
    0.4226    1.6260    0.9429 C   0  0  0  0  0  0  0  0  0  0  0  0
    1.8229   -0.8041   -0.3933 C   0  0  0  0  0  0  0  0  0  0  0  0
    2.3169    0.5828    0.1226 C   0  0  0  0  0  0  0  0  0  0  0  0
    0.5477    3.5443   -1.0566 O   0  0  0  0  0  0  0  0  0  0  0  0
    5.5963   -2.0720    0.3369 C   0  0  0  0  0  0  0  0  0  0  0  0
    4.7785   -3.2976   -0.0767 C   0  0  0  0  0  0  0  0  0  0  0  0
    5.0291   -3.8768   -1.3247 C   0  0  0  0  0  0  0  0  0  0  0  0
    3.7085   -3.8062    0.6853 C   0  0  0  0  0  0  0  0  0  0  0  0
    2.8786   -4.8133    0.1666 C   0  0  0  0  0  0  0  0  0  0  0  0
    3.0639   -5.2649   -1.1380 C   0  0  0  0  0  0  0  0  0  0  0  0
    4.1425   -4.7967   -1.8803 C   0  0  0  0  0  0  0  0  0  0  0  0
   -4.0637    1.1122   -0.4568 O   0  0  0  0  0  0  0  0  0  0  0  0
   -5.1463    0.2976   -0.8546 C   0  0  0  0  0  0  0  0  0  0  0  0
    2.2494    2.0996   -3.0511 H   0  0  0  0  0  0  0  0  0  0  0  0
    2.2063    3.7717   -2.7946 H   0  0  0  0  0  0  0  0  0  0  0  0
    4.5160    3.2498   -2.9071 H   0  0  0  0  0  0  0  0  0  0  0  0
    4.1419    3.7594   -1.2662 H   0  0  0  0  0  0  0  0  0  0  0  0
    4.5032    0.4461   -3.2457 H   0  0  0  0  0  0  0  0  0  0  0  0
    3.0306    0.5093   -2.3282 H   0  0  0  0  0  0  0  0  0  0  0  0
    3.9581   -1.5727   -1.9097 H   0  0  0  0  0  0  0  0  0  0  0  0
    3.9658   -0.6209   -0.4367 H   0  0  0  0  0  0  0  0  0  0  0  0
    6.3848   -1.3251   -1.6235 H   0  0  0  0  0  0  0  0  0  0  0  0
    5.7834    0.5898    0.7225 H   0  0  0  0  0  0  0  0  0  0  0  0
    7.3298    0.2860   -0.0663 H   0  0  0  0  0  0  0  0  0  0  0  0
    6.3516    2.5007   -0.7123 H   0  0  0  0  0  0  0  0  0  0  0  0
    6.5412    1.4431   -2.1304 H   0  0  0  0  0  0  0  0  0  0  0  0
   -1.3687   -2.5941   -0.2786 H   0  0  0  0  0  0  0  0  0  0  0  0
   -3.5064   -1.6034   -0.8027 H   0  0  0  0  0  0  0  0  0  0  0  0
   -1.9939    2.3095    0.2801 H   0  0  0  0  0  0  0  0  0  0  0  0
    0.0899    2.6321    1.1957 H   0  0  0  0  0  0  0  0  0  0  0  0
    0.8954    1.2549    1.8644 H   0  0  0  0  0  0  0  0  0  0  0  0
    1.3584   -0.7677   -1.3901 H   0  0  0  0  0  0  0  0  0  0  0  0
    2.5413   -1.6076   -0.4763 H   0  0  0  0  0  0  0  0  0  0  0  0
    2.5818    0.4895    1.1845 H   0  0  0  0  0  0  0  0  0  0  0  0
    3.2335    0.9950   -0.1899 H   0  0  0  0  0  0  0  0  0  0  0  0
    6.5886   -2.3960    0.6551 H   0  0  0  0  0  0  0  0  0  0  0  0
    5.1097   -1.6304    1.2240 H   0  0  0  0  0  0  0  0  0  0  0  0
    5.8799   -3.5422   -1.9094 H   0  0  0  0  0  0  0  0  0  0  0  0
    3.4547   -3.3895    1.6594 H   0  0  0  0  0  0  0  0  0  0  0  0
    2.0614   -5.2176    0.7619 H   0  0  0  0  0  0  0  0  0  0  0  0
    2.3738   -5.9803   -1.5776 H   0  0  0  0  0  0  0  0  0  0  0  0
    4.2921   -5.1306   -2.9024 H   0  0  0  0  0  0  0  0  0  0  0  0
   -4.9309   -0.1663   -1.8226 H   0  0  0  0  0  0  0  0  0  0  0  0
   -5.3695   -0.4569   -0.0912 H   0  0  0  0  0  0  0  0  0  0  0  0
   -6.0118    0.9473   -0.9631 H   0  0  0  0  0  0  0  0  0  0  0  0
  1 20  1  0  0  0  0
  1  2  1  0  0  0  0
  2 21  2  0  0  0  0
  2  3  1  0  0  0  0
  3  4  1  0  0  0  0
  3 31  1  0  0  0  0
  3 32  1  0  0  0  0
  4  5  1  0  0  0  0
  4 33  1  0  0  0  0
  4 34  1  0  0  0  0
  5 10  1  0  0  0  0
  5  6  1  0  0  0  0
  6  7  1  0  0  0  0
  6 35  1  0  0  0  0
  6 36  1  0  0  0  0
  7  8  1  0  0  0  0
  7 37  1  0  0  0  0
  7 38  1  0  0  0  0
  8  9  1  0  0  0  0
  8 22  1  0  0  0  0
  8 39  1  0  0  0  0
  9 10  1  0  0  0  0
  9 40  1  0  0  0  0
  9 41  1  0  0  0  0
 10 42  1  0  0  0  0
 10 43  1  0  0  0  0
 11 12  1  0  0  0  0
 11 44  1  0  0  0  0
 12 13  2  0  0  0  0
 12 45  1  0  0  0  0
 13 29  1  0  0  0  0
 13 14  1  0  0  0  0
 14 15  2  0  0  0  0
 14 46  1  0  0  0  0
 15 16  1  0  0  0  0
 15 18  1  0  0  0  0
 16 17  1  0  0  0  0
 16 11  2  0  0  0  0
 17 19  1  0  0  0  0
 18  1  1  0  0  0  0
 18 47  1  0  0  0  0
 18 48  1  0  0  0  0
 19 20  1  0  0  0  0
 19 49  1  0  0  0  0
 19 50  1  0  0  0  0
 20 51  1  0  0  0  0
 20 52  1  0  0  0  0
 22 23  1  0  0  0  0
 22 53  1  0  0  0  0
 22 54  1  0  0  0  0
 23 25  1  0  0  0  0
 24 23  2  0  0  0  0
 24 55  1  0  0  0  0
 25 26  2  0  0  0  0
 25 56  1  0  0  0  0
 26 27  1  0  0  0  0
 26 57  1  0  0  0  0
 27 28  2  0  0  0  0
 27 58  1  0  0  0  0
 28 24  1  0  0  0  0
 28 59  1  0  0  0  0
 29 30  1  0  0  0  0
 30 60  1  0  0  0  0
 30 61  1  0  0  0  0
 30 62  1  0  0  0  0
M  END
>  <DRUGBANK_ID>
DB02929

>  <SECONDARY_ACCESSION_NUMBERS>
EXPT01958

>  <COMMON_NAME>
K201 free base

>  <CAS_NUMBER>
145903-06-6

>  <UNII>
EBY0ENK2GQ

$$$$
