
 OpenBabel10282417123D

 17 16  0  0  0  0  0  0  0  0999 V2000
    0.9458   -0.0500    0.0769 C   0  0  0  0  0  0  0  0  0  0  0  0
    0.4754    0.4232    1.4441 C   0  0  0  0  0  0  0  0  0  0  0  0
    0.8857    1.8731    1.7253 C   0  0  0  0  0  0  0  0  0  0  0  0
    0.3473    2.8818    0.7053 C   0  0  0  0  0  0  0  0  0  0  0  0
   -1.1666    2.8777    0.6316 C   0  0  0  0  0  0  0  0  0  0  0  0
   -1.7478    4.0575    0.9256 O   0  0  0  0  0  0  0  0  0  0  0  0
   -1.8381    1.9035    0.3168 O   0  0  0  0  0  0  0  0  0  0  0  0
    0.5605    0.5790   -0.7311 H   0  0  0  0  0  0  0  0  0  0  0  0
    0.5981   -1.0675   -0.1176 H   0  0  0  0  0  0  0  0  0  0  0  0
    2.0387   -0.0360    0.0255 H   0  0  0  0  0  0  0  0  0  0  0  0
   -0.6104    0.3114    1.5211 H   0  0  0  0  0  0  0  0  0  0  0  0
    0.8882   -0.2322    2.2191 H   0  0  0  0  0  0  0  0  0  0  0  0
    0.5475    2.1530    2.7306 H   0  0  0  0  0  0  0  0  0  0  0  0
    1.9827    1.9285    1.7390 H   0  0  0  0  0  0  0  0  0  0  0  0
    0.7171    3.8817    0.9574 H   0  0  0  0  0  0  0  0  0  0  0  0
    0.7338    2.6764   -0.2989 H   0  0  0  0  0  0  0  0  0  0  0  0
   -1.1349    4.7876    1.1225 H   0  0  0  0  0  0  0  0  0  0  0  0
  1  2  1  0  0  0  0
  1  8  1  0  0  0  0
  1  9  1  0  0  0  0
  1 10  1  0  0  0  0
  2  3  1  0  0  0  0
  2 11  1  0  0  0  0
  2 12  1  0  0  0  0
  3  4  1  0  0  0  0
  3 13  1  0  0  0  0
  3 14  1  0  0  0  0
  4  5  1  0  0  0  0
  4 15  1  0  0  0  0
  4 16  1  0  0  0  0
  5  6  1  0  0  0  0
  5  7  2  0  0  0  0
  6 17  1  0  0  0  0
M  END
>  <DRUGBANK_ID>
DB02406

>  <SECONDARY_ACCESSION_NUMBERS>
EXPT02547; DB04344

>  <COMMON_NAME>
N-Valeric Acid

>  <CAS_NUMBER>
109-52-4

>  <UNII>
GZK92PJM7B

$$$$
