
 OpenBabel10282417133D

 87 90  0  0  1  0  0  0  0  0999 V2000
    1.4369   -0.4501    0.2452 C   0  0  0  0  0  0  0  0  0  0  0  0
   -2.4795    1.8278   -2.4437 C   0  0  0  0  0  0  0  0  0  0  0  0
   -2.1198    2.8627   -4.7909 C   0  0  0  0  0  0  0  0  0  0  0  0
   -1.3553    6.7153   -0.5430 C   0  0  0  0  0  0  0  0  0  0  0  0
   -2.1662    3.2070    2.6788 C   0  0  0  0  0  0  0  0  0  0  0  0
    0.7330    0.7855    0.5716 C   0  0  2  0  0  0  0  0  0  0  0  0
   -2.8327    2.8096   -3.3070 C   0  0  0  0  0  0  0  0  0  0  0  0
   -2.5335    2.0605   -0.8459 C   0  0  1  0  0  0  0  0  0  0  0  0
   -0.0319    5.8111   -0.0336 C   0  0  2  0  0  0  0  0  0  0  0  0
   -0.8987    3.7962    3.2143 C   0  0  2  0  0  0  0  0  0  0  0  0
   -0.7941    0.2337   -0.3376 C   0  0  2  0  0  0  0  0  0  0  0  0
   -3.7043    3.9435   -2.8426 C   0  0  2  0  0  0  0  0  0  0  0  0
   -2.9124    3.9536   -0.6139 C   0  0  1  0  0  0  0  0  0  0  0  0
    0.2808    2.7863    2.9525 C   0  0  2  0  0  0  0  0  0  0  0  0
   -0.1892    0.4726   -2.1206 C   0  0  1  0  0  0  0  0  0  0  0  0
   -4.0428    4.2175   -1.3745 C   0  0  1  0  0  0  0  0  0  0  0  0
    0.0438    1.5299    3.7889 C   0  0  1  0  0  0  0  0  0  0  0  0
    0.0328    4.7517   -2.0909 C   0  0  2  0  0  0  0  0  0  0  0  0
   -0.1641    2.0963    5.1982 C   0  0  2  0  0  0  0  0  0  0  0  0
    0.5534    2.1020   -2.8036 C   0  0  2  0  0  0  0  0  0  0  0  0
   -0.5210    3.6126   -0.9324 C   0  0  2  0  0  0  0  0  0  0  0  0
    0.9577    5.3920   -1.2484 C   0  0  2  0  0  0  0  0  0  0  0  0
   -1.2741    3.1604    5.3100 C   0  0  2  0  0  0  0  0  0  0  0  0
   -0.9849    3.6664    0.5999 C   0  0  1  0  0  0  0  0  0  0  0  0
    1.8298    2.7633   -1.5135 C   0  0  2  0  0  0  0  0  0  0  0  0
   -2.3257    0.7926   -0.0429 N   0  0  0  0  0  0  0  0  0  0  0  0
   -2.9206    2.0722   -5.5908 O   0  0  0  0  0  0  0  0  0  0  0  0
   -2.2895    7.1294    0.4450 O   0  0  0  0  0  0  0  0  0  0  0  0
   -4.9381    3.4479   -3.2518 O   0  0  0  0  0  0  0  0  0  0  0  0
   -3.0041    4.8126    0.6258 O   0  0  0  0  0  0  0  0  0  0  0  0
    1.5441    3.3748    3.1383 O   0  0  0  0  0  0  0  0  0  0  0  0
    0.8915   -0.3305   -2.5167 O   0  0  0  0  0  0  0  0  0  0  0  0
   -4.5085    5.5122   -1.0146 O   0  0  0  0  0  0  0  0  0  0  0  0
   -1.0053    0.6067    3.4141 O   0  0  0  0  0  0  0  0  0  0  0  0
   -0.9369    5.5108   -2.8079 O   0  0  0  0  0  0  0  0  0  0  0  0
    1.0471    2.6943    5.6375 O   0  0  0  0  0  0  0  0  0  0  0  0
   -0.5143    2.9420   -3.2547 O   0  0  0  0  0  0  0  0  0  0  0  0
    0.0437    2.5608   -0.9908 O   0  0  0  0  0  0  0  0  0  0  0  0
   -2.5380    2.5827    5.0462 O   0  0  0  0  0  0  0  0  0  0  0  0
   -1.4793    2.5902    1.5765 O   0  0  0  0  0  0  0  0  0  0  0  0
    1.7022    2.0547    0.0760 O   0  0  0  0  0  0  0  0  0  0  0  0
   -1.0275    4.2648    4.4946 O   0  0  0  0  0  0  0  0  0  0  0  0
   -0.3104    4.7932    0.9541 O   0  0  0  0  0  0  0  0  0  0  0  0
    2.0617    4.3373   -1.3327 O   0  0  0  0  0  0  0  0  0  0  0  0
    0.7694    0.8012    1.6678 H   0  0  0  0  0  0  0  0  0  0  0  0
   -1.5856    2.0484   -0.3420 H   0  0  0  0  0  0  0  0  0  0  0  0
    0.5470    6.4811    0.5607 H   0  0  0  0  0  0  0  0  0  0  0  0
   -0.6636    4.7212    2.7292 H   0  0  0  0  0  0  0  0  0  0  0  0
   -0.9796   -0.8318   -0.0549 H   0  0  0  0  0  0  0  0  0  0  0  0
   -3.4081    4.8812   -3.3180 H   0  0  0  0  0  0  0  0  0  0  0  0
   -2.1384    4.6090   -0.9715 H   0  0  0  0  0  0  0  0  0  0  0  0
    0.3631    2.5495    1.9089 H   0  0  0  0  0  0  0  0  0  0  0  0
   -1.0516   -0.0449   -2.5793 H   0  0  0  0  0  0  0  0  0  0  0  0
   -4.5762    3.4430   -0.8383 H   0  0  0  0  0  0  0  0  0  0  0  0
    0.9434    0.9075    3.7583 H   0  0  0  0  0  0  0  0  0  0  0  0
    0.6667    4.4741   -2.9989 H   0  0  0  0  0  0  0  0  0  0  0  0
   -0.4438    1.2795    5.8474 H   0  0  0  0  0  0  0  0  0  0  0  0
    1.0073    2.1078   -3.7828 H   0  0  0  0  0  0  0  0  0  0  0  0
   -1.2968    3.3844   -1.5797 H   0  0  0  0  0  0  0  0  0  0  0  0
    1.1866    6.3157   -1.7976 H   0  0  0  0  0  0  0  0  0  0  0  0
   -1.3270    3.6305    6.2724 H   0  0  0  0  0  0  0  0  0  0  0  0
   -2.0519    3.3815    0.7200 H   0  0  0  0  0  0  0  0  0  0  0  0
    2.7134    2.2312   -1.8059 H   0  0  0  0  0  0  0  0  0  0  0  0
    1.0021   -0.8415   -0.6451 H   0  0  0  0  0  0  0  0  0  0  0  0
    1.0459   -1.1869    0.9385 H   0  0  0  0  0  0  0  0  0  0  0  0
    2.4755   -0.2802    0.0451 H   0  0  0  0  0  0  0  0  0  0  0  0
   -1.7461    1.3192   -3.0892 H   0  0  0  0  0  0  0  0  0  0  0  0
   -1.8612    3.8933   -5.1110 H   0  0  0  0  0  0  0  0  0  0  0  0
   -1.1176    2.3610   -4.9297 H   0  0  0  0  0  0  0  0  0  0  0  0
   -1.0768    7.5342   -1.2075 H   0  0  0  0  0  0  0  0  0  0  0  0
   -2.0427    6.2673   -1.2426 H   0  0  0  0  0  0  0  0  0  0  0  0
   -3.0047    3.9260    2.7194 H   0  0  0  0  0  0  0  0  0  0  0  0
   -2.8236    2.3746    2.9618 H   0  0  0  0  0  0  0  0  0  0  0  0
   -2.3336    1.0484    0.9666 H   0  0  0  0  0  0  0  0  0  0  0  0
   -3.0654    1.3283   -4.9773 H   0  0  0  0  0  0  0  0  0  0  0  0
   -2.7327    6.3076    0.7723 H   0  0  0  0  0  0  0  0  0  0  0  0
   -4.9015    2.5459   -2.8693 H   0  0  0  0  0  0  0  0  0  0  0  0
   -3.5796    4.3714    1.2487 H   0  0  0  0  0  0  0  0  0  0  0  0
    1.3220    4.2257    3.5443 H   0  0  0  0  0  0  0  0  0  0  0  0
    1.6299    0.1731   -2.1344 H   0  0  0  0  0  0  0  0  0  0  0  0
   -3.8284    6.2172   -1.0320 H   0  0  0  0  0  0  0  0  0  0  0  0
   -1.7117    0.9875    2.8732 H   0  0  0  0  0  0  0  0  0  0  0  0
   -1.8032    5.1852   -2.5552 H   0  0  0  0  0  0  0  0  0  0  0  0
    1.7037    1.9822    5.6619 H   0  0  0  0  0  0  0  0  0  0  0  0
   -0.8007    3.8715   -3.4732 H   0  0  0  0  0  0  0  0  0  0  0  0
    0.0346    1.6176   -0.6352 H   0  0  0  0  0  0  0  0  0  0  0  0
   -2.3365    1.8068    4.4936 H   0  0  0  0  0  0  0  0  0  0  0  0
  1 64  1  0  0  0  0
  1 65  1  0  0  0  0
  1 66  1  0  0  0  0
  2 67  1  0  0  0  0
  3 68  1  0  0  0  0
  3 69  1  0  0  0  0
  4 70  1  0  0  0  0
  4 71  1  0  0  0  0
  5 72  1  0  0  0  0
  5 73  1  0  0  0  0
  6  1  1  0  0  0  0
  6 45  1  1  0  0  0
  7  2  2  0  0  0  0
  7  3  1  0  0  0  0
  8  2  1  0  0  0  0
  8 26  1  0  0  0  0
  8 46  1  1  0  0  0
  9 47  1  1  0  0  0
  9  4  1  0  0  0  0
 10  5  1  0  0  0  0
 10 48  1  6  0  0  0
 11  6  1  0  0  0  0
 11 49  1  1  0  0  0
 11 26  1  0  0  0  0
 12  7  1  0  0  0  0
 12 29  1  0  0  0  0
 12 50  1  6  0  0  0
 13  8  1  0  0  0  0
 13 30  1  0  0  0  0
 13 51  1  6  0  0  0
 14 10  1  0  0  0  0
 14 52  1  6  0  0  0
 14 31  1  0  0  0  0
 15 11  1  0  0  0  0
 15 32  1  0  0  0  0
 15 53  1  6  0  0  0
 16 12  1  0  0  0  0
 16 13  1  0  0  0  0
 16 33  1  0  0  0  0
 16 54  1  1  0  0  0
 17 14  1  0  0  0  0
 17 34  1  0  0  0  0
 17 55  1  1  0  0  0
 18 35  1  0  0  0  0
 18 56  1  6  0  0  0
 19 17  1  0  0  0  0
 19 57  1  1  0  0  0
 19 36  1  0  0  0  0
 20 15  1  0  0  0  0
 20 58  1  6  0  0  0
 20 37  1  0  0  0  0
 21 18  1  0  0  0  0
 21 59  1  6  0  0  0
 21 38  1  0  0  0  0
 22  9  1  0  0  0  0
 22 18  1  0  0  0  0
 22 44  1  0  0  0  0
 22 60  1  6  0  0  0
 23 19  1  0  0  0  0
 23 39  1  0  0  0  0
 23 61  1  1  0  0  0
 24 21  1  0  0  0  0
 24 62  1  6  0  0  0
 24 40  1  0  0  0  0
 25 20  1  0  0  0  0
 25 63  1  6  0  0  0
 25 44  1  0  0  0  0
 26 74  1  0  0  0  0
 27  3  1  0  0  0  0
 27 75  1  0  0  0  0
 28  4  1  0  0  0  0
 28 76  1  0  0  0  0
 29 77  1  0  0  0  0
 30 78  1  0  0  0  0
 31 79  1  0  0  0  0
 32 80  1  0  0  0  0
 33 81  1  0  0  0  0
 34 82  1  0  0  0  0
 35 83  1  0  0  0  0
 36 84  1  0  0  0  0
 37 85  1  0  0  0  0
 38 86  1  0  0  0  0
 39 87  1  0  0  0  0
 40  5  1  0  0  0  0
 41  6  1  0  0  0  0
 41 25  1  0  0  0  0
 42 10  1  0  0  0  0
 42 23  1  0  0  0  0
 43  9  1  0  0  0  0
 43 24  1  0  0  0  0
M  END
>  <DRUGBANK_ID>
DB03495

>  <SECONDARY_ACCESSION_NUMBERS>
EXPT01820

>  <COMMON_NAME>
4,6-Dideoxy-4-{[4,5,6-Trihydroxy-3-(Hydroxymethyl)Cyclohex-2-En-1-Yl]Amino}-Alpha-D-Lyxo-Hexopyranosyl-(1->4)-Alpha-D-Threo-Hexopyranosyl-(1->6)-Alpha-L-Threo-Hexopyranose

$$$$
