
 OpenBabel10282417213D

 36 37  0  0  0  0  0  0  0  0999 V2000
    1.1137    0.1115    0.0598 C   0  0  0  0  0  0  0  0  0  0  0  0
    2.6083   -6.6479   -0.0192 C   0  0  0  0  0  0  0  0  0  0  0  0
    2.4116   -6.5685    1.3722 C   0  0  0  0  0  0  0  0  0  0  0  0
    3.4798   -6.7813    2.2470 C   0  0  0  0  0  0  0  0  0  0  0  0
    1.6135   -6.3798   -0.9455 O   0  0  0  0  0  0  0  0  0  0  0  0
    0.3578   -0.0719   -1.2666 C   0  0  3  0  0  0  0  0  0  0  0  0
   -0.4749   -1.2276   -1.4158 O   0  0  0  0  0  0  0  0  0  0  0  0
    0.5312    0.1560    1.1483 O   0  0  0  0  0  0  0  0  0  0  0  0
    3.8600   -7.0406   -0.5146 C   0  0  0  0  0  0  0  0  0  0  0  0
    4.7193   -7.1650    1.7437 C   0  0  0  0  0  0  0  0  0  0  0  0
    1.1534   -5.0783   -1.0468 C   0  0  0  0  0  0  0  0  0  0  0  0
    0.1311   -2.4511   -1.3065 C   0  0  0  0  0  0  0  0  0  0  0  0
    0.8802   -6.1806    2.0783 Cl  0  0  0  0  0  0  0  0  0  0  0  0
    2.4722    0.1400    0.0239 O   0  0  0  0  0  0  0  0  0  0  0  0
    4.9119   -7.3100    0.3702 C   0  0  0  0  0  0  0  0  0  0  0  0
    6.0129   -7.4899    2.8313 Cl  0  0  0  0  0  0  0  0  0  0  0  0
    1.6382   -4.0351   -0.2697 C   0  0  0  0  0  0  0  0  0  0  0  0
   -0.3326   -3.4782   -2.1310 C   0  0  0  0  0  0  0  0  0  0  0  0
    0.1395   -4.7975   -1.9694 C   0  0  0  0  0  0  0  0  0  0  0  0
    1.0899   -2.7652   -0.3546 C   0  0  0  0  0  0  0  0  0  0  0  0
   -0.5349    1.1682   -1.3880 C   0  0  0  0  0  0  0  0  0  0  0  0
    3.2124    0.0101   -1.1977 C   0  0  0  0  0  0  0  0  0  0  0  0
    3.3394   -6.6561    3.3175 H   0  0  0  0  0  0  0  0  0  0  0  0
    1.0233   -0.0458   -2.1309 H   0  0  0  0  0  0  0  0  0  0  0  0
    4.0252   -7.1369   -1.5853 H   0  0  0  0  0  0  0  0  0  0  0  0
    5.8782   -7.6318   -0.0128 H   0  0  0  0  0  0  0  0  0  0  0  0
    2.4030   -4.1705    0.4850 H   0  0  0  0  0  0  0  0  0  0  0  0
   -1.0743   -3.2597   -2.8961 H   0  0  0  0  0  0  0  0  0  0  0  0
   -0.3026   -5.5959   -2.5609 H   0  0  0  0  0  0  0  0  0  0  0  0
    1.4414   -2.0892    0.4077 H   0  0  0  0  0  0  0  0  0  0  0  0
    0.0620    2.0865   -1.3363 H   0  0  0  0  0  0  0  0  0  0  0  0
   -1.0927    1.1631   -2.3288 H   0  0  0  0  0  0  0  0  0  0  0  0
   -1.2730    1.2027   -0.5777 H   0  0  0  0  0  0  0  0  0  0  0  0
    2.9728   -0.9230   -1.7175 H   0  0  0  0  0  0  0  0  0  0  0  0
    3.0196    0.8811   -1.8276 H   0  0  0  0  0  0  0  0  0  0  0  0
    4.2759   -0.0119   -0.9473 H   0  0  0  0  0  0  0  0  0  0  0  0
  2  5  1  0  0  0  0
  3  2  2  0  0  0  0
  4  3  1  0  0  0  0
  4 10  2  0  0  0  0
  4 23  1  0  0  0  0
  5 11  1  0  0  0  0
  6  1  1  0  0  0  0
  6 24  1  0  0  0  0
  7  6  1  0  0  0  0
  8  1  2  0  0  0  0
  9  2  1  0  0  0  0
  9 25  1  0  0  0  0
 10 15  1  0  0  0  0
 11 17  2  0  0  0  0
 12  7  1  0  0  0  0
 13  3  1  0  0  0  0
 14  1  1  0  0  0  0
 15  9  2  0  0  0  0
 15 26  1  0  0  0  0
 16 10  1  0  0  0  0
 17 20  1  0  0  0  0
 17 27  1  0  0  0  0
 18 12  1  0  0  0  0
 18 28  1  0  0  0  0
 19 18  2  0  0  0  0
 19 11  1  0  0  0  0
 19 29  1  0  0  0  0
 20 12  2  0  0  0  0
 20 30  1  0  0  0  0
 21  6  1  0  0  0  0
 21 31  1  0  0  0  0
 21 32  1  0  0  0  0
 21 33  1  0  0  0  0
 22 14  1  0  0  0  0
 22 34  1  0  0  0  0
 22 35  1  0  0  0  0
 22 36  1  0  0  0  0
M  END
>  <DRUGBANK_ID>
DB13918

>  <COMMON_NAME>
Diclofop-methyl

>  <CAS_NUMBER>
51338-27-3

>  <UNII>
9T8QCB25UO

>  <SYNONYMS>
Dichlorfop-methyl; Diclofop methyl; Diclosan; Hoegrass; Hoelon; Illoxan; Methyldiclofop

$$$$
