
 OpenBabel10282417213D

 82 82  0  0  0  0  0  0  0  0999 V2000
  -16.1086    3.0607   -0.4474 N   0  0  0  0  0  0  0  0  0  0  0  0
  -15.9879    1.5966   -0.2636 C   0  0  1  0  0  0  0  0  0  0  0  0
  -15.4863    1.1515   -1.6544 C   0  0  0  0  0  0  0  0  0  0  0  0
  -16.2854    2.0072   -2.6172 C   0  0  0  0  0  0  0  0  0  0  0  0
  -16.4759    3.2950   -1.8450 C   0  0  0  0  0  0  0  0  0  0  0  0
  -15.1317    1.0203    0.8709 C   0  0  0  0  0  0  0  0  0  0  0  0
  -14.2148    0.2284    0.7592 O   0  0  0  0  0  0  0  0  0  0  0  0
  -15.5960    1.3837    2.0865 O   0  0  0  0  0  0  0  0  0  0  0  0
  -15.9646    4.0006    0.5712 C   0  0  0  0  0  0  0  0  0  0  0  0
  -16.1363    5.5257    0.3579 C   0  0  2  0  0  0  0  0  0  0  0  0
  -16.9406    5.9637   -0.8551 C   0  0  1  0  0  0  0  0  0  0  0  0
  -17.4857    7.3547   -0.7075 C   0  0  0  0  0  0  0  0  0  0  0  0
  -16.1535    6.0043   -2.0519 O   0  0  0  0  0  0  0  0  0  0  0  0
  -14.8056    6.1653    0.3744 N   0  0  0  0  0  0  0  0  0  0  0  0
  -14.4323    7.1225    1.3056 C   0  0  0  0  0  0  0  0  0  0  0  0
  -12.9723    7.6660    1.2253 C   0  0  2  0  0  0  0  0  0  0  0  0
  -12.3898    7.5617   -0.1849 C   0  0  0  0  0  0  0  0  0  0  0  0
  -10.6417    7.3326   -0.3090 S   0  0  0  0  0  0  0  0  0  0  0  0
  -10.2262    6.2596    0.5865 O   0  0  0  0  0  0  0  0  0  0  0  0
  -10.2753    7.3180   -1.6951 O   0  0  0  0  0  0  0  0  0  0  0  0
  -10.1350    8.7201    0.3222 O   0  0  0  0  0  0  0  0  0  0  0  0
  -12.1703    7.0623    2.2968 N   0  0  0  0  0  0  0  0  0  0  0  0
  -11.4273    7.8549    3.1655 C   0  0  0  0  0  0  0  0  0  0  0  0
  -10.4337    7.1121    4.0816 C   0  0  0  0  0  0  0  0  0  0  0  0
   -9.0616    7.6474    4.0039 N   0  0  0  0  0  0  0  0  0  0  0  0
   -8.6133    8.6202    4.8827 C   0  0  0  0  0  0  0  0  0  0  0  0
   -7.0934    8.9729    4.8391 C   0  0  2  0  0  0  0  0  0  0  0  0
   -6.1413    8.1885    5.7645 C   0  0  0  0  0  0  0  0  0  0  0  0
   -6.7088    7.8644    7.1449 C   0  0  0  0  0  0  0  0  0  0  0  0
   -7.8296    6.8379    7.1081 C   0  0  0  0  0  0  0  0  0  0  0  0
   -7.3431    5.5745    6.5789 N   0  0  0  0  0  0  0  0  0  0  0  0
   -7.8104    4.4402    7.1333 C   0  0  0  0  0  0  0  0  0  0  0  0
   -7.5686    3.3314    6.4224 N   0  0  0  0  0  0  0  0  0  0  0  0
   -8.4221    4.4417    8.2606 N   0  0  0  0  0  0  0  0  0  0  0  0
   -7.0113   10.3836    5.2092 N   0  0  0  0  0  0  0  0  0  0  0  0
   -6.8212   11.3312    4.2315 C   0  0  0  0  0  0  0  0  0  0  0  0
   -6.9136   12.7860    4.7013 C   0  0  0  0  0  0  0  0  0  0  0  0
   -5.6169   13.4476    4.5279 N   0  0  0  0  0  0  0  0  0  0  0  0
   -6.5517   11.0172    3.0729 O   0  0  0  0  0  0  0  0  0  0  0  0
   -9.3353    9.0969    5.7632 O   0  0  0  0  0  0  0  0  0  0  0  0
  -11.5132    9.0804    3.1594 O   0  0  0  0  0  0  0  0  0  0  0  0
  -15.2025    7.4906    2.1912 O   0  0  0  0  0  0  0  0  0  0  0  0
  -15.5057    3.6977    1.6815 O   0  0  0  0  0  0  0  0  0  0  0  0
  -17.0029    1.2016   -0.1278 H   0  0  0  0  0  0  0  0  0  0  0  0
  -14.4195    1.3848   -1.7757 H   0  0  0  0  0  0  0  0  0  0  0  0
  -15.6275    0.0888   -1.8617 H   0  0  0  0  0  0  0  0  0  0  0  0
  -15.7615    2.2045   -3.5609 H   0  0  0  0  0  0  0  0  0  0  0  0
  -17.2522    1.5598   -2.8723 H   0  0  0  0  0  0  0  0  0  0  0  0
  -15.7796    4.0002   -2.2762 H   0  0  0  0  0  0  0  0  0  0  0  0
  -17.5234    3.5989   -1.9260 H   0  0  0  0  0  0  0  0  0  0  0  0
  -14.8404    1.7349    2.6049 H   0  0  0  0  0  0  0  0  0  0  0  0
  -16.6888    5.8506    1.2519 H   0  0  0  0  0  0  0  0  0  0  0  0
  -17.7943    5.2951   -0.9837 H   0  0  0  0  0  0  0  0  0  0  0  0
  -16.6632    8.0727   -0.6551 H   0  0  0  0  0  0  0  0  0  0  0  0
  -18.0734    7.5865   -1.6001 H   0  0  0  0  0  0  0  0  0  0  0  0
  -18.1128    7.4284    0.1810 H   0  0  0  0  0  0  0  0  0  0  0  0
  -15.3145    6.4485   -1.8448 H   0  0  0  0  0  0  0  0  0  0  0  0
  -14.1214    5.6720   -0.1724 H   0  0  0  0  0  0  0  0  0  0  0  0
  -13.0637    8.7413    1.4374 H   0  0  0  0  0  0  0  0  0  0  0  0
  -12.7511    6.6917   -0.7324 H   0  0  0  0  0  0  0  0  0  0  0  0
  -12.6891    8.4221   -0.7960 H   0  0  0  0  0  0  0  0  0  0  0  0
   -9.1549    8.7469    0.3293 H   0  0  0  0  0  0  0  0  0  0  0  0
  -11.9470    6.0744    2.2291 H   0  0  0  0  0  0  0  0  0  0  0  0
  -10.8070    7.1902    5.1086 H   0  0  0  0  0  0  0  0  0  0  0  0
  -10.3851    6.0491    3.8210 H   0  0  0  0  0  0  0  0  0  0  0  0
   -8.5808    7.5544    3.1191 H   0  0  0  0  0  0  0  0  0  0  0  0
   -6.7415    8.8312    3.8127 H   0  0  0  0  0  0  0  0  0  0  0  0
   -5.7991    7.2688    5.2766 H   0  0  0  0  0  0  0  0  0  0  0  0
   -5.2225    8.7790    5.9172 H   0  0  0  0  0  0  0  0  0  0  0  0
   -5.9046    7.4710    7.7830 H   0  0  0  0  0  0  0  0  0  0  0  0
   -7.0535    8.7863    7.6282 H   0  0  0  0  0  0  0  0  0  0  0  0
   -8.2594    6.7748    8.1115 H   0  0  0  0  0  0  0  0  0  0  0  0
   -8.6819    7.0924    6.4991 H   0  0  0  0  0  0  0  0  0  0  0  0
   -7.2085    5.5676    5.5763 H   0  0  0  0  0  0  0  0  0  0  0  0
   -7.6815    2.4376    6.8781 H   0  0  0  0  0  0  0  0  0  0  0  0
   -6.9681    3.3463    5.6119 H   0  0  0  0  0  0  0  0  0  0  0  0
   -8.6816    3.5019    8.5357 H   0  0  0  0  0  0  0  0  0  0  0  0
   -7.4564   10.6450    6.0845 H   0  0  0  0  0  0  0  0  0  0  0  0
   -7.6730   13.2805    4.0882 H   0  0  0  0  0  0  0  0  0  0  0  0
   -7.2281   12.8492    5.7484 H   0  0  0  0  0  0  0  0  0  0  0  0
   -5.6814   14.4204    4.8148 H   0  0  0  0  0  0  0  0  0  0  0  0
   -4.9184   12.9966    5.1154 H   0  0  0  0  0  0  0  0  0  0  0  0
  1  2  1  0  0  0  0
  1  5  1  0  0  0  0
  1  9  1  0  0  0  0
  2  3  1  0  0  0  0
  2 44  1  1  0  0  0
  2  6  1  0  0  0  0
  3  4  1  0  0  0  0
  3 45  1  0  0  0  0
  3 46  1  0  0  0  0
  4  5  1  0  0  0  0
  4 47  1  0  0  0  0
  4 48  1  0  0  0  0
  5 49  1  0  0  0  0
  5 50  1  0  0  0  0
  6  7  2  0  0  0  0
  6  8  1  0  0  0  0
  8 51  1  0  0  0  0
  9 43  2  0  0  0  0
 10 14  1  0  0  0  0
 10 52  1  1  0  0  0
 10 11  1  0  0  0  0
 10  9  1  0  0  0  0
 11 12  1  0  0  0  0
 11 13  1  0  0  0  0
 11 53  1  6  0  0  0
 12 54  1  0  0  0  0
 12 55  1  0  0  0  0
 12 56  1  0  0  0  0
 13 57  1  0  0  0  0
 14 58  1  0  0  0  0
 15 14  1  0  0  0  0
 15 42  2  0  0  0  0
 16 22  1  0  0  0  0
 16 59  1  1  0  0  0
 16 17  1  0  0  0  0
 16 15  1  0  0  0  0
 17 18  1  0  0  0  0
 17 60  1  0  0  0  0
 17 61  1  0  0  0  0
 18 19  2  0  0  0  0
 18 20  2  0  0  0  0
 18 21  1  0  0  0  0
 21 62  1  0  0  0  0
 22 63  1  0  0  0  0
 23 22  1  0  0  0  0
 23 24  1  0  0  0  0
 23 41  2  0  0  0  0
 24 25  1  0  0  0  0
 24 64  1  0  0  0  0
 24 65  1  0  0  0  0
 25 66  1  0  0  0  0
 26 25  1  0  0  0  0
 26 40  2  0  0  0  0
 27 35  1  0  0  0  0
 27 67  1  6  0  0  0
 27 28  1  0  0  0  0
 27 26  1  0  0  0  0
 28 29  1  0  0  0  0
 28 68  1  0  0  0  0
 28 69  1  0  0  0  0
 29 30  1  0  0  0  0
 29 70  1  0  0  0  0
 29 71  1  0  0  0  0
 30 31  1  0  0  0  0
 30 72  1  0  0  0  0
 30 73  1  0  0  0  0
 31 32  1  0  0  0  0
 31 74  1  0  0  0  0
 32 33  1  0  0  0  0
 32 34  2  0  0  0  0
 33 75  1  0  0  0  0
 33 76  1  0  0  0  0
 34 77  1  0  0  0  0
 35 78  1  0  0  0  0
 36 35  1  0  0  0  0
 36 37  1  0  0  0  0
 36 39  2  0  0  0  0
 37 38  1  0  0  0  0
 37 79  1  0  0  0  0
 37 80  1  0  0  0  0
 38 81  1  0  0  0  0
 38 82  1  0  0  0  0
M  END
>  <DRUGBANK_ID>
DB14911

>  <COMMON_NAME>
Risuteganib

>  <CAS_NUMBER>
1307293-62-4

>  <UNII>
123DNA66IA

>  <SYNONYMS>
Risuteganib

$$$$
