CXA
 OpenBabel10282417133D

 28 28  0  0  0  0  0  0  0  0999 V2000
    1.3491   -0.2269    0.1273 C   0  0  0  0  0  0  0  0  0  0  0  0
    0.4814   -1.3193    0.0199 C   0  0  0  0  0  0  0  0  0  0  0  0
   -0.9047   -1.1194   -0.0262 C   0  0  0  0  0  0  0  0  0  0  0  0
   -1.4387    0.1692   -0.0057 C   0  0  0  0  0  0  0  0  0  0  0  0
   -0.5931    1.2588    0.1272 C   0  0  0  0  0  0  0  0  0  0  0  0
    0.7800    1.0549    0.2223 C   0  0  0  0  0  0  0  0  0  0  0  0
    2.8594   -0.4093    0.1652 C   0  0  0  0  0  0  0  0  0  0  0  0
    3.5937    0.1932   -1.0540 C   0  0  1  0  0  0  0  0  0  0  0  0
    3.3024    1.6870   -1.1823 C   0  0  0  0  0  0  0  0  0  0  0  0
    4.1758    2.4913   -0.5216 O   0  0  0  0  0  0  0  0  0  0  0  0
    2.4122    2.1717   -1.8633 O   0  0  0  0  0  0  0  0  0  0  0  0
    5.0765    0.0258   -0.9742 N   0  0  0  0  0  0  0  0  0  0  0  0
    5.9797    0.3654   -2.3397 S   0  0  0  0  0  0  0  0  0  0  0  0
    5.7512    2.0218   -2.4215 N   0  0  0  0  0  0  0  0  0  0  0  0
    7.3611    0.1770   -2.0111 O   0  0  0  0  0  0  0  0  0  0  0  0
    5.3312   -0.1930   -3.4959 O   0  0  0  0  0  0  0  0  0  0  0  0
    3.2422   -0.3188   -1.9578 H   0  0  0  0  0  0  0  0  0  0  0  0
    0.8657   -2.3362   -0.0170 H   0  0  0  0  0  0  0  0  0  0  0  0
   -1.5756   -1.9731   -0.0706 H   0  0  0  0  0  0  0  0  0  0  0  0
   -2.5106    0.3282   -0.0766 H   0  0  0  0  0  0  0  0  0  0  0  0
   -0.9858    2.2715    0.1682 H   0  0  0  0  0  0  0  0  0  0  0  0
    1.3931    1.9443    0.3414 H   0  0  0  0  0  0  0  0  0  0  0  0
    3.2256    0.0258    1.1037 H   0  0  0  0  0  0  0  0  0  0  0  0
    3.0880   -1.4835    0.2342 H   0  0  0  0  0  0  0  0  0  0  0  0
    5.1014    2.1994   -0.7087 H   0  0  0  0  0  0  0  0  0  0  0  0
    5.5354    0.2078   -0.0805 H   0  0  0  0  0  0  0  0  0  0  0  0
    6.3724    2.4037   -3.1451 H   0  0  0  0  0  0  0  0  0  0  0  0
    4.8093    2.2879   -2.7446 H   0  0  0  0  0  0  0  0  0  0  0  0
  1  2  2  0  0  0  0
  1  6  1  0  0  0  0
  1  7  1  0  0  0  0
  2  3  1  0  0  0  0
  2 18  1  0  0  0  0
  3  4  2  0  0  0  0
  3 19  1  0  0  0  0
  4  5  1  0  0  0  0
  4 20  1  0  0  0  0
  5  6  2  0  0  0  0
  5 21  1  0  0  0  0
  6 22  1  0  0  0  0
  7  8  1  0  0  0  0
  7 23  1  0  0  0  0
  7 24  1  0  0  0  0
  8  9  1  0  0  0  0
  8 12  1  0  0  0  0
  8 17  1  6  0  0  0
  9 10  1  0  0  0  0
  9 11  2  0  0  0  0
 10 25  1  0  0  0  0
 12 13  1  0  0  0  0
 12 26  1  0  0  0  0
 13 14  1  0  0  0  0
 13 15  2  0  0  0  0
 13 16  2  0  0  0  0
 14 27  1  0  0  0  0
 14 28  1  0  0  0  0
M  END
>  <DRUGBANK_ID>
DB03012

>  <SECONDARY_ACCESSION_NUMBERS>
EXPT01063

>  <COMMON_NAME>
Phenylalanine-N-Sulfonamide

$$$$
