
 OpenBabel10282417163D

 36 37  0  0  0  0  0  0  0  0999 V2000
   -0.5758   -1.2293    0.0991 N   0  0  0  0  0  0  0  0  0  0  0  0
   -0.7888    1.0858    0.1082 N   0  0  0  0  0  0  0  0  0  0  0  0
   -1.4118   -0.1233    0.1310 C   0  0  0  0  0  0  0  0  0  0  0  0
    1.4148    0.0842   -0.0024 C   0  0  0  0  0  0  0  0  0  0  0  0
    0.8009   -1.1033    0.0838 C   0  0  0  0  0  0  0  0  0  0  0  0
    0.5541    1.2927    0.1150 C   0  0  0  0  0  0  0  0  0  0  0  0
   -2.6388   -0.1684    0.2098 O   0  0  0  0  0  0  0  0  0  0  0  0
    0.9848    2.4223    0.2642 O   0  0  0  0  0  0  0  0  0  0  0  0
    2.9011    0.2579   -0.2161 C   0  0  0  0  0  0  0  0  0  0  0  0
    3.2242    0.8699   -1.5702 C   0  0  0  0  0  0  0  0  0  0  0  0
    2.8440    2.1848   -1.8739 C   0  0  0  0  0  0  0  0  0  0  0  0
    3.8200    0.1178   -2.5856 C   0  0  0  0  0  0  0  0  0  0  0  0
    2.7629    2.6276   -3.1880 C   0  0  0  0  0  0  0  0  0  0  0  0
    3.9238    0.6430   -3.8777 C   0  0  0  0  0  0  0  0  0  0  0  0
    3.3078    1.8523   -4.1972 C   0  0  0  0  0  0  0  0  0  0  0  0
   -1.1513   -2.5545   -0.0586 C   0  0  0  0  0  0  0  0  0  0  0  0
   -0.7876   -3.1381   -1.3135 O   0  0  0  0  0  0  0  0  0  0  0  0
   -1.1101   -2.3701   -2.4795 C   0  0  0  0  0  0  0  0  0  0  0  0
   -2.6064   -2.2561   -2.7907 C   0  0  0  0  0  0  0  0  0  0  0  0
   -3.3562   -1.4432   -1.9118 O   0  0  0  0  0  0  0  0  0  0  0  0
   -1.3625    1.9092    0.1918 H   0  0  0  0  0  0  0  0  0  0  0  0
    1.3567   -2.0384    0.0861 H   0  0  0  0  0  0  0  0  0  0  0  0
    3.3388    0.8506    0.5928 H   0  0  0  0  0  0  0  0  0  0  0  0
    3.3830   -0.7300   -0.1585 H   0  0  0  0  0  0  0  0  0  0  0  0
    2.5518    2.8813   -1.0966 H   0  0  0  0  0  0  0  0  0  0  0  0
    4.1995   -0.8810   -2.3869 H   0  0  0  0  0  0  0  0  0  0  0  0
    2.2782    3.5759   -3.4048 H   0  0  0  0  0  0  0  0  0  0  0  0
    4.4582    0.0941   -4.6467 H   0  0  0  0  0  0  0  0  0  0  0  0
    3.2735    2.2056   -5.2227 H   0  0  0  0  0  0  0  0  0  0  0  0
   -0.7562   -3.1987    0.7339 H   0  0  0  0  0  0  0  0  0  0  0  0
   -2.2315   -2.5764    0.0675 H   0  0  0  0  0  0  0  0  0  0  0  0
   -0.6230   -1.3907   -2.4372 H   0  0  0  0  0  0  0  0  0  0  0  0
   -0.6463   -2.8993   -3.3228 H   0  0  0  0  0  0  0  0  0  0  0  0
   -2.7138   -1.7683   -3.7618 H   0  0  0  0  0  0  0  0  0  0  0  0
   -3.0724   -3.2424   -2.8288 H   0  0  0  0  0  0  0  0  0  0  0  0
   -3.4898   -1.8805   -1.0553 H   0  0  0  0  0  0  0  0  0  0  0  0
  2 21  1  0  0  0  0
  3  1  1  0  0  0  0
  3  2  1  0  0  0  0
  5  1  1  0  0  0  0
  5  4  2  0  0  0  0
  5 22  1  0  0  0  0
  6  2  1  0  0  0  0
  6  4  1  0  0  0  0
  7  3  2  0  0  0  0
  8  6  2  0  0  0  0
  9  4  1  0  0  0  0
  9 23  1  0  0  0  0
  9 24  1  0  0  0  0
 10  9  1  0  0  0  0
 11 10  2  0  0  0  0
 11 25  1  0  0  0  0
 12 10  1  0  0  0  0
 12 26  1  0  0  0  0
 13 11  1  0  0  0  0
 13 27  1  0  0  0  0
 14 12  2  0  0  0  0
 14 28  1  0  0  0  0
 15 13  2  0  0  0  0
 15 14  1  0  0  0  0
 15 29  1  0  0  0  0
 16  1  1  0  0  0  0
 16 30  1  0  0  0  0
 16 31  1  0  0  0  0
 17 16  1  0  0  0  0
 18 17  1  0  0  0  0
 18 32  1  0  0  0  0
 18 33  1  0  0  0  0
 19 18  1  0  0  0  0
 19 34  1  0  0  0  0
 19 35  1  0  0  0  0
 20 19  1  0  0  0  0
 20 36  1  0  0  0  0
M  END
>  <DRUGBANK_ID>
DB07437

>  <COMMON_NAME>
5-Benzylacyclouridine

>  <CAS_NUMBER>
82857-69-0

>  <UNII>
0H851I3O9D

>  <SYNONYMS>
5-Bacu; 5-benzyl-1-(2-hydroxyethoxymethyl)uracil

$$$$
