
 OpenBabel10282417233D

 66 69  0  0  0  0  0  0  0  0999 V2000
    0.9876   -0.0252    0.1882 C   0  0  0  0  0  0  0  0  0  0  0  0
    0.3707   -0.5378    1.1186 O   0  0  0  0  0  0  0  0  0  0  0  0
    0.2898    0.6715   -0.9682 C   0  0  0  0  0  0  0  0  0  0  0  0
    0.6452    2.1551   -1.0912 C   0  0  0  0  0  0  0  0  0  0  0  0
    2.1289    2.3925   -1.4086 C   0  0  0  0  0  0  0  0  0  0  0  0
    2.5326    1.7004   -2.7104 C   0  0  0  0  0  0  0  0  0  0  0  0
    2.4655    3.8736   -1.4526 C   0  0  0  0  0  0  0  0  0  0  0  0
    8.7248   -0.2144    3.0168 C   0  0  1  0  0  0  0  0  0  0  0  0
    4.6256   -0.2989    1.1824 C   0  0  1  0  0  0  0  0  0  0  0  0
    9.1258   -1.4613    3.8190 C   0  0  0  0  0  0  0  0  0  0  0  0
    7.1487   -0.2071    2.8800 C   0  0  2  0  0  0  0  0  0  0  0  0
    5.1100   -1.4642    2.0742 C   0  0  2  0  0  0  0  0  0  0  0  0
    6.6333   -1.5247    2.2281 C   0  0  2  0  0  0  0  0  0  0  0  0
    3.0924   -0.6130    1.1542 C   0  0  1  0  0  0  0  0  0  0  0  0
    9.9694   -1.4435    4.8672 C   0  0  0  0  0  0  0  0  0  0  0  0
    5.0370    0.9938    1.9123 C   0  0  0  0  0  0  0  0  0  0  0  0
    6.5584    1.0594    2.2010 C   0  0  0  0  0  0  0  0  0  0  0  0
    9.1978    1.0663    3.7623 C   0  0  0  0  0  0  0  0  0  0  0  0
    7.0507   -2.7249    3.0906 C   0  0  0  0  0  0  0  0  0  0  0  0
    4.4027   -2.6827    1.4953 C   0  0  0  0  0  0  0  0  0  0  0  0
    2.3509   -0.0319    0.0670 O   0  0  0  0  0  0  0  0  0  0  0  0
    8.5501   -2.7761    3.3537 C   0  0  0  0  0  0  0  0  0  0  0  0
   10.7362   -0.2255    5.2165 C   0  0  0  0  0  0  0  0  0  0  0  0
    3.0461   -2.1472    1.0270 C   0  0  0  0  0  0  0  0  0  0  0  0
   11.5090   -0.2473    6.1708 O   0  0  0  0  0  0  0  0  0  0  0  0
   10.6250    0.9567    4.2901 C   0  0  0  0  0  0  0  0  0  0  0  0
    9.4181   -0.2680    1.6354 C   0  0  0  0  0  0  0  0  0  0  0  0
    5.2225   -0.3062   -0.2429 C   0  0  0  0  0  0  0  0  0  0  0  0
    6.7471   -0.1933    3.9072 H   0  0  0  0  0  0  0  0  0  0  0  0
    7.0804   -1.6489    1.2359 H   0  0  0  0  0  0  0  0  0  0  0  0
    4.6970   -1.3231    3.0864 H   0  0  0  0  0  0  0  0  0  0  0  0
    0.4680    0.1209   -1.8972 H   0  0  0  0  0  0  0  0  0  0  0  0
   -0.7931    0.5954   -0.8008 H   0  0  0  0  0  0  0  0  0  0  0  0
    0.0294    2.6077   -1.8816 H   0  0  0  0  0  0  0  0  0  0  0  0
    0.3743    2.6690   -0.1598 H   0  0  0  0  0  0  0  0  0  0  0  0
    2.7401    2.0046   -0.5927 H   0  0  0  0  0  0  0  0  0  0  0  0
    1.9774    2.1164   -3.5570 H   0  0  0  0  0  0  0  0  0  0  0  0
    3.6026    1.8181   -2.8974 H   0  0  0  0  0  0  0  0  0  0  0  0
    2.3404    0.6232   -2.6837 H   0  0  0  0  0  0  0  0  0  0  0  0
    2.2109    4.3508   -0.5002 H   0  0  0  0  0  0  0  0  0  0  0  0
    3.5421    4.0007   -1.6096 H   0  0  0  0  0  0  0  0  0  0  0  0
    1.9295    4.3815   -2.2572 H   0  0  0  0  0  0  0  0  0  0  0  0
    2.6515   -0.2836    2.1045 H   0  0  0  0  0  0  0  0  0  0  0  0
   10.2081   -2.3263    5.4504 H   0  0  0  0  0  0  0  0  0  0  0  0
    4.5085    1.0595    2.8724 H   0  0  0  0  0  0  0  0  0  0  0  0
    4.7408    1.8761    1.3336 H   0  0  0  0  0  0  0  0  0  0  0  0
    6.7340    1.9253    2.8516 H   0  0  0  0  0  0  0  0  0  0  0  0
    7.0878    1.2716    1.2684 H   0  0  0  0  0  0  0  0  0  0  0  0
    8.5338    1.2606    4.6158 H   0  0  0  0  0  0  0  0  0  0  0  0
    9.1316    1.9410    3.1044 H   0  0  0  0  0  0  0  0  0  0  0  0
    6.7581   -3.6580    2.5956 H   0  0  0  0  0  0  0  0  0  0  0  0
    6.5185   -2.6916    4.0494 H   0  0  0  0  0  0  0  0  0  0  0  0
    4.9576   -3.1097    0.6523 H   0  0  0  0  0  0  0  0  0  0  0  0
    4.2766   -3.4724    2.2417 H   0  0  0  0  0  0  0  0  0  0  0  0
    9.0693   -3.0706    2.4336 H   0  0  0  0  0  0  0  0  0  0  0  0
    8.7482   -3.5713    4.0831 H   0  0  0  0  0  0  0  0  0  0  0  0
    2.8491   -2.4570   -0.0059 H   0  0  0  0  0  0  0  0  0  0  0  0
    2.2337   -2.5455    1.6428 H   0  0  0  0  0  0  0  0  0  0  0  0
   10.8839    1.8641    4.8451 H   0  0  0  0  0  0  0  0  0  0  0  0
   11.3542    0.8345    3.4824 H   0  0  0  0  0  0  0  0  0  0  0  0
    9.1522   -1.1627    1.0651 H   0  0  0  0  0  0  0  0  0  0  0  0
    9.1577    0.5992    1.0216 H   0  0  0  0  0  0  0  0  0  0  0  0
   10.5090   -0.2819    1.7293 H   0  0  0  0  0  0  0  0  0  0  0  0
    5.0699   -1.2625   -0.7514 H   0  0  0  0  0  0  0  0  0  0  0  0
    4.7656    0.4728   -0.8607 H   0  0  0  0  0  0  0  0  0  0  0  0
    6.3007   -0.1191   -0.2480 H   0  0  0  0  0  0  0  0  0  0  0  0
  2  1  2  0  0  0  0
  3  1  1  0  0  0  0
  3 32  1  0  0  0  0
  3 33  1  0  0  0  0
  4  3  1  0  0  0  0
  4 34  1  0  0  0  0
  4 35  1  0  0  0  0
  5  4  1  0  0  0  0
  5 36  1  0  0  0  0
  6  5  1  0  0  0  0
  6 37  1  0  0  0  0
  6 38  1  0  0  0  0
  6 39  1  0  0  0  0
  7  5  1  0  0  0  0
  7 40  1  0  0  0  0
  7 41  1  0  0  0  0
  7 42  1  0  0  0  0
  8 27  1  6  0  0  0
  9 16  1  0  0  0  0
  9 28  1  6  0  0  0
 10  8  1  0  0  0  0
 11  8  1  0  0  0  0
 11 29  1  1  0  0  0
 12 13  1  0  0  0  0
 12  9  1  0  0  0  0
 12 31  1  1  0  0  0
 13 11  1  0  0  0  0
 13 30  1  6  0  0  0
 14  9  1  0  0  0  0
 14 21  1  0  0  0  0
 14 24  1  0  0  0  0
 14 43  1  1  0  0  0
 15 10  2  0  0  0  0
 15 23  1  0  0  0  0
 15 44  1  0  0  0  0
 16 17  1  0  0  0  0
 16 45  1  0  0  0  0
 16 46  1  0  0  0  0
 17 11  1  0  0  0  0
 17 47  1  0  0  0  0
 17 48  1  0  0  0  0
 18  8  1  0  0  0  0
 18 49  1  0  0  0  0
 18 50  1  0  0  0  0
 19 13  1  0  0  0  0
 19 51  1  0  0  0  0
 19 52  1  0  0  0  0
 20 12  1  0  0  0  0
 20 53  1  0  0  0  0
 20 54  1  0  0  0  0
 21  1  1  0  0  0  0
 22 10  1  0  0  0  0
 22 19  1  0  0  0  0
 22 55  1  0  0  0  0
 22 56  1  0  0  0  0
 23 26  1  0  0  0  0
 24 20  1  0  0  0  0
 24 57  1  0  0  0  0
 24 58  1  0  0  0  0
 25 23  2  0  0  0  0
 26 18  1  0  0  0  0
 26 59  1  0  0  0  0
 26 60  1  0  0  0  0
 27 61  1  0  0  0  0
 27 62  1  0  0  0  0
 27 63  1  0  0  0  0
 28 64  1  0  0  0  0
 28 65  1  0  0  0  0
 28 66  1  0  0  0  0
M  END
>  <DRUGBANK_ID>
DB16002

>  <COMMON_NAME>
Testosterone isocaproate

>  <CAS_NUMBER>
15262-86-9

>  <UNII>
X8ST05GYDM

$$$$
