
 OpenBabel10282417233D

 53 56  0  0  0  0  0  0  0  0999 V2000
    0.8172    0.0316    0.1253 C   0  0  0  0  0  0  0  0  0  0  0  0
    0.3901    1.1946   -0.7606 C   0  0  0  0  0  0  0  0  0  0  0  0
    0.8700    1.1145   -2.1050 O   0  0  0  0  0  0  0  0  0  0  0  0
    2.2916    1.0463   -2.2033 C   0  0  0  0  0  0  0  0  0  0  0  0
    2.7881   -0.3869   -2.2428 C   0  0  0  0  0  0  0  0  0  0  0  0
    1.9187   -1.5130   -2.3097 C   0  0  0  0  0  0  0  0  0  0  0  0
    2.3701   -2.8504   -2.2140 C   0  0  0  0  0  0  0  0  0  0  0  0
    1.4173   -3.9141   -2.2989 N   0  0  0  0  0  0  0  0  0  0  0  0
    1.6515   -5.2265   -2.0285 C   0  0  0  0  0  0  0  0  0  0  0  0
    2.2705   -5.7714   -0.9938 N   0  0  0  0  0  0  0  0  0  0  0  0
    2.6457   -7.0191   -1.4334 C   0  0  0  0  0  0  0  0  0  0  0  0
    2.1384   -7.2582   -2.6893 C   0  0  0  0  0  0  0  0  0  0  0  0
    1.4784   -6.1142   -3.0837 O   0  0  0  0  0  0  0  0  0  0  0  0
    2.1094   -8.4507   -3.5267 C   0  0  0  0  0  0  0  0  0  0  0  0
    1.6038   -9.6278   -2.9537 C   0  0  0  0  0  0  0  0  0  0  0  0
    1.5033  -10.8145   -3.6877 C   0  0  0  0  0  0  0  0  0  0  0  0
    1.9650  -10.8662   -5.0026 C   0  0  0  0  0  0  0  0  0  0  0  0
    2.4921   -9.7091   -5.5825 C   0  0  0  0  0  0  0  0  0  0  0  0
    2.5846   -8.5102   -4.8433 C   0  0  0  0  0  0  0  0  0  0  0  0
    1.9505  -12.0886   -5.6903 N   0  0  0  0  0  0  0  0  0  0  0  0
    3.1174  -12.7185   -6.2686 C   0  0  0  0  0  0  0  0  0  0  0  0
    2.6897  -14.1833   -6.3362 C   0  0  0  0  0  0  0  0  0  0  0  0
    1.2622  -14.0816   -6.4676 N   0  0  0  0  0  0  0  0  0  0  0  0
    0.8191  -12.8814   -5.9163 C   0  0  0  0  0  0  0  0  0  0  0  0
   -0.3595  -12.6076   -5.7196 O   0  0  0  0  0  0  0  0  0  0  0  0
    3.7690   -3.0168   -2.1883 C   0  0  0  0  0  0  0  0  0  0  0  0
    4.4771   -4.3305   -2.2654 C   0  0  0  0  0  0  0  0  0  0  0  0
    4.6361   -1.9024   -2.1306 C   0  0  0  0  0  0  0  0  0  0  0  0
    4.1587   -0.6028   -2.1519 C   0  0  0  0  0  0  0  0  0  0  0  0
    0.4375   -0.9151   -0.2693 H   0  0  0  0  0  0  0  0  0  0  0  0
    0.4394    0.1370    1.1415 H   0  0  0  0  0  0  0  0  0  0  0  0
    1.9072   -0.0451    0.1901 H   0  0  0  0  0  0  0  0  0  0  0  0
   -0.7026    1.2114   -0.8225 H   0  0  0  0  0  0  0  0  0  0  0  0
    0.7117    2.1458   -0.3253 H   0  0  0  0  0  0  0  0  0  0  0  0
    2.7506    1.5971   -1.3688 H   0  0  0  0  0  0  0  0  0  0  0  0
    2.5968    1.5562   -3.1249 H   0  0  0  0  0  0  0  0  0  0  0  0
    0.8495   -1.3203   -2.3941 H   0  0  0  0  0  0  0  0  0  0  0  0
    0.4598   -3.6077   -2.1694 H   0  0  0  0  0  0  0  0  0  0  0  0
    3.2843   -7.6730   -0.8556 H   0  0  0  0  0  0  0  0  0  0  0  0
    1.2776   -9.6270   -1.9153 H   0  0  0  0  0  0  0  0  0  0  0  0
    1.0944  -11.6993   -3.2062 H   0  0  0  0  0  0  0  0  0  0  0  0
    2.7639   -9.7130   -6.6355 H   0  0  0  0  0  0  0  0  0  0  0  0
    3.0467   -7.6419   -5.3084 H   0  0  0  0  0  0  0  0  0  0  0  0
    4.0212  -12.5695   -5.6704 H   0  0  0  0  0  0  0  0  0  0  0  0
    3.2624  -12.3255   -7.2806 H   0  0  0  0  0  0  0  0  0  0  0  0
    2.9015  -14.7039   -5.3929 H   0  0  0  0  0  0  0  0  0  0  0  0
    3.1229  -14.7454   -7.1658 H   0  0  0  0  0  0  0  0  0  0  0  0
    0.6122  -14.8148   -6.7178 H   0  0  0  0  0  0  0  0  0  0  0  0
    5.2143   -4.3210   -3.0685 H   0  0  0  0  0  0  0  0  0  0  0  0
    4.9302   -4.5828   -1.3028 H   0  0  0  0  0  0  0  0  0  0  0  0
    3.8351   -5.1274   -2.5856 H   0  0  0  0  0  0  0  0  0  0  0  0
    5.7111   -2.0678   -2.0922 H   0  0  0  0  0  0  0  0  0  0  0  0
    4.8618    0.2258   -2.1048 H   0  0  0  0  0  0  0  0  0  0  0  0
  1  2  1  0  0  0  0
  1 30  1  0  0  0  0
  1 31  1  0  0  0  0
  1 32  1  0  0  0  0
  2  3  1  0  0  0  0
  2 33  1  0  0  0  0
  2 34  1  0  0  0  0
  3  4  1  0  0  0  0
  4  5  1  0  0  0  0
  4 35  1  0  0  0  0
  4 36  1  0  0  0  0
  5  6  2  0  0  0  0
  5 29  1  0  0  0  0
  6  7  1  0  0  0  0
  6 37  1  0  0  0  0
  7  8  1  0  0  0  0
  7 26  2  0  0  0  0
  8  9  1  0  0  0  0
  8 38  1  0  0  0  0
  9 10  2  0  0  0  0
  9 13  1  0  0  0  0
 10 11  1  0  0  0  0
 11 12  2  0  0  0  0
 11 39  1  0  0  0  0
 12 13  1  0  0  0  0
 12 14  1  0  0  0  0
 14 15  2  0  0  0  0
 14 19  1  0  0  0  0
 15 16  1  0  0  0  0
 15 40  1  0  0  0  0
 16 17  2  0  0  0  0
 16 41  1  0  0  0  0
 17 18  1  0  0  0  0
 17 20  1  0  0  0  0
 18 19  2  0  0  0  0
 18 42  1  0  0  0  0
 19 43  1  0  0  0  0
 20 21  1  0  0  0  0
 20 24  1  0  0  0  0
 21 22  1  0  0  0  0
 21 44  1  0  0  0  0
 21 45  1  0  0  0  0
 22 23  1  0  0  0  0
 22 46  1  0  0  0  0
 22 47  1  0  0  0  0
 23 24  1  0  0  0  0
 23 48  1  0  0  0  0
 24 25  2  0  0  0  0
 26 27  1  0  0  0  0
 26 28  1  0  0  0  0
 27 49  1  0  0  0  0
 27 50  1  0  0  0  0
 27 51  1  0  0  0  0
 28 29  2  0  0  0  0
 28 52  1  0  0  0  0
 29 53  1  0  0  0  0
M  END
>  <DRUGBANK_ID>
DB17115

>  <COMMON_NAME>
AB-8939

>  <CAS_NUMBER>
1974336-09-8

>  <UNII>
REU6L9A46J

>  <SYNONYMS>
1-(4-(2-(5-ethoxymethyl-2-methyl-phenylamino)-oxazol-5-yl)-phenyl)-imidazolidin-2-one; 2-imidazolidinone, 1-(4-(2-((5-(ethoxymethyl)-2-methylphenyl)amino)-5-oxazolyl)phenyl)-

$$$$
