
 OpenBabel10282417243D

 50 52  0  0  1  0  0  0  0  0999 V2000
    2.7433    0.3147   -0.0204 C   0  0  0  0  0  0  0  0  0  0  0  0
    1.2383    0.0894   -0.0684 C   0  0  0  0  0  0  0  0  0  0  0  0
    0.5198    1.3375   -0.0478 C   0  0  0  0  0  0  0  0  0  0  0  0
   -0.8415    1.2418   -0.0409 C   0  0  0  0  0  0  0  0  0  0  0  0
   -1.3204   -0.3861   -0.0169 S   0  0  0  0  0  0  0  0  0  0  0  0
    0.3479   -1.0221   -0.1178 C   0  0  0  0  0  0  0  0  0  0  0  0
    0.4474   -2.5541   -0.1196 C   0  0  0  0  0  0  0  0  0  0  0  0
   -0.5632   -3.2850   -0.0837 O   0  0  0  0  0  0  0  0  0  0  0  0
    1.6468   -3.2761   -0.0602 N   0  0  0  0  0  0  0  0  0  0  0  0
    2.9529   -2.7110    0.0159 C   0  0  0  0  0  0  0  0  0  0  0  0
    3.8146   -2.5835    1.2937 C   0  0  0  0  0  0  0  0  0  0  0  0
    5.0462   -2.6321    1.2295 O   0  0  0  0  0  0  0  0  0  0  0  0
    3.2695   -2.1723    2.4797 N   0  0  0  0  0  0  0  0  0  0  0  0
    1.8841   -1.8388    2.7985 C   0  0  0  0  0  0  0  0  0  0  0  0
    1.1090   -2.9293    3.5147 C   0  0  0  0  0  0  0  0  0  0  0  0
    1.6057   -3.1143    4.7557 F   0  0  0  0  0  0  0  0  0  0  0  0
   -0.1931   -2.5930    3.6275 F   0  0  0  0  0  0  0  0  0  0  0  0
    1.1875   -4.0994    2.8464 F   0  0  0  0  0  0  0  0  0  0  0  0
   -1.7271    2.3863   -0.0501 C   0  0  0  0  0  0  0  0  0  0  0  0
   -1.5741    3.3418   -0.9098 N   0  0  0  0  0  0  0  0  0  0  0  0
   -2.5032    4.3662   -0.6093 O   0  0  0  0  0  0  0  0  0  0  0  0
   -3.1245    4.1045    0.6729 C   0  0  1  0  0  0  0  0  0  0  0  0
   -2.7333    2.6505    1.0042 C   0  0  0  0  0  0  0  0  0  0  0  0
   -2.6263    5.2003    1.6385 C   0  0  0  0  0  0  0  0  0  0  0  0
   -2.9254    6.5633    1.4188 C   0  0  0  0  0  0  0  0  0  0  0  0
   -2.4225    7.5741    2.2579 C   0  0  0  0  0  0  0  0  0  0  0  0
   -2.8726    9.2059    1.8949 Cl  0  0  0  0  0  0  0  0  0  0  0  0
   -1.5860    7.2534    3.3320 C   0  0  0  0  0  0  0  0  0  0  0  0
   -0.8870    8.4870    4.3254 Cl  0  0  0  0  0  0  0  0  0  0  0  0
   -1.3097    5.9089    3.5809 C   0  0  0  0  0  0  0  0  0  0  0  0
   -0.2935    5.3732    4.8759 Cl  0  0  0  0  0  0  0  0  0  0  0  0
   -1.8393    4.9069    2.7596 C   0  0  0  0  0  0  0  0  0  0  0  0
   -4.6556    4.1660    0.5071 C   0  0  0  0  0  0  0  0  0  0  0  0
   -5.0971    3.2569   -0.3927 F   0  0  0  0  0  0  0  0  0  0  0  0
   -5.2593    3.8812    1.6886 F   0  0  0  0  0  0  0  0  0  0  0  0
   -5.1126    5.3722    0.1059 F   0  0  0  0  0  0  0  0  0  0  0  0
    3.0339    0.8254   -0.9389 H   0  0  0  0  0  0  0  0  0  0  0  0
    2.9716    0.8752    0.8912 H   0  0  0  0  0  0  0  0  0  0  0  0
    3.5100   -0.4446    0.0352 H   0  0  0  0  0  0  0  0  0  0  0  0
    1.0248    2.2988   -0.0272 H   0  0  0  0  0  0  0  0  0  0  0  0
    1.5754   -4.2863   -0.0316 H   0  0  0  0  0  0  0  0  0  0  0  0
    3.5501   -2.7803   -0.9022 H   0  0  0  0  0  0  0  0  0  0  0  0
    2.5805   -1.7499   -0.0920 H   0  0  0  0  0  0  0  0  0  0  0  0
    3.9332   -2.1532    3.2474 H   0  0  0  0  0  0  0  0  0  0  0  0
    1.8740   -0.9018    3.3653 H   0  0  0  0  0  0  0  0  0  0  0  0
    1.3683   -1.6187    1.8885 H   0  0  0  0  0  0  0  0  0  0  0  0
   -2.2777    2.4858    1.9782 H   0  0  0  0  0  0  0  0  0  0  0  0
   -3.5622    1.9460    0.9240 H   0  0  0  0  0  0  0  0  0  0  0  0
   -3.5535    6.8711    0.5805 H   0  0  0  0  0  0  0  0  0  0  0  0
   -1.5931    3.8898    3.0386 H   0  0  0  0  0  0  0  0  0  0  0  0
  1  2  1  0  0  0  0
  1 37  1  0  0  0  0
  1 38  1  0  0  0  0
  1 39  1  0  0  0  0
  2  3  1  0  0  0  0
  2  6  2  0  0  0  0
  3  4  2  0  0  0  0
  3 40  1  0  0  0  0
  4  5  1  0  0  0  0
  4 19  1  0  0  0  0
  5  6  1  0  0  0  0
  6  7  1  0  0  0  0
  7  8  2  0  0  0  0
  7  9  1  0  0  0  0
  9 10  1  0  0  0  0
  9 41  1  0  0  0  0
 10 11  1  0  0  0  0
 10 42  1  0  0  0  0
 10 43  1  0  0  0  0
 11 12  2  0  0  0  0
 11 13  1  0  0  0  0
 13 14  1  0  0  0  0
 13 44  1  0  0  0  0
 14 15  1  0  0  0  0
 14 45  1  0  0  0  0
 14 46  1  0  0  0  0
 15 16  1  0  0  0  0
 15 17  1  0  0  0  0
 15 18  1  0  0  0  0
 19 20  2  0  0  0  0
 19 23  1  0  0  0  0
 20 21  1  0  0  0  0
 22 21  1  0  0  0  0
 22 23  1  0  0  0  0
 22 24  1  0  0  0  0
 22 33  1  6  0  0  0
 23 47  1  0  0  0  0
 23 48  1  0  0  0  0
 24 25  2  0  0  0  0
 24 32  1  0  0  0  0
 25 26  1  0  0  0  0
 25 49  1  0  0  0  0
 26 27  1  0  0  0  0
 26 28  2  0  0  0  0
 28 29  1  0  0  0  0
 28 30  1  0  0  0  0
 30 31  1  0  0  0  0
 30 32  2  0  0  0  0
 32 50  1  0  0  0  0
 33 34  1  0  0  0  0
 33 35  1  0  0  0  0
 33 36  1  0  0  0  0
M  END
>  <DRUGBANK_ID>
DB17992

>  <COMMON_NAME>
Lotilaner

>  <CAS_NUMBER>
1369852-71-0

>  <UNII>
HEH4938D7K

>  <SYNONYMS>
2-thiophenecarboxamide, 5-((5s)-4,5-dihydro-5-(3,4,5-trichlorophenyl)-5-(trifluoromethyl)-3-isoxazolyl)-3-methyl-n-(2-oxo-2-((2,2,2-trifluoroethyl)amino)ethyl)-; 3-methyi-n-(2-oxo-2-((2,2,2-trifluoroethyl)amino)ethyl)-5-((55)-5-(3,4,5-trichlorophenyl)-5-(trifluoromethyl)-4,5-dihydro-1,2-oxazol-3-yl)thiophene-2-carboxamide; Credelio; Lotilaner (ema epar: veterinary)

$$$$
