
 OpenBabel10282417173D

 66 70  0  0  1  0  0  0  0  0999 V2000
    1.0230   -0.5625    0.2921 C   0  0  0  0  0  0  0  0  0  0  0  0
    1.7161   -1.6834    1.0679 C   0  0  0  0  0  0  0  0  0  0  0  0
    1.2254   -1.9269    2.5234 C   0  0  0  0  0  0  0  0  0  0  0  0
    0.9078   -0.8073    3.2371 C   0  0  0  0  0  0  0  0  0  0  0  0
    1.2089    0.4435    2.5038 C   0  0  2  0  0  0  0  0  0  0  0  0
    0.4215    0.2234    1.1919 C   0  0  0  0  0  0  0  0  0  0  0  0
    0.3675   -0.6070    4.6197 C   0  0  2  0  0  0  0  0  0  0  0  0
    0.6922    0.8402    5.2775 C   0  0  0  0  0  0  0  0  0  0  0  0
    0.1545    2.1199    4.3696 C   0  0  2  0  0  0  0  0  0  0  0  0
    0.9847    1.8477    3.0688 C   0  0  2  0  0  0  0  0  0  0  0  0
    0.3015    4.0325    4.7300 C   0  0  1  0  0  0  0  0  0  0  0  0
    0.9864    4.3433    3.6052 C   0  0  2  0  0  0  0  0  0  0  0  0
    1.5485    4.0583    2.2437 C   0  0  0  0  0  0  0  0  0  0  0  0
    0.9678    2.7502    1.7883 C   0  0  2  0  0  0  0  0  0  0  0  0
   -0.1158    5.8407    3.8630 C   0  0  0  0  0  0  0  0  0  0  0  0
    1.1220    6.6879    3.6218 C   0  0  2  0  0  0  0  0  0  0  0  0
    1.4549    5.6376    4.5470 C   0  0  1  0  0  0  0  0  0  0  0  0
    2.7648   -2.1407    0.6269 O   0  0  0  0  0  0  0  0  0  0  0  0
    2.8031    0.4622    2.4308 C   0  0  0  0  0  0  0  0  0  0  0  0
    2.2036    2.2100    3.6866 F   0  0  0  0  0  0  0  0  0  0  0  0
   -0.9200    1.8681    4.3244 H   0  0  0  0  0  0  0  0  0  0  0  0
   -0.2442    2.8757    1.0109 O   0  0  0  0  0  0  0  0  0  0  0  0
    0.7636    3.9921    5.7579 H   0  0  0  0  0  0  0  0  0  0  0  0
   -0.6647    3.9541    3.1798 C   0  0  0  0  0  0  0  0  0  0  0  0
    0.3061    5.9464    5.8892 O   0  0  0  0  0  0  0  0  0  0  0  0
    1.2026    8.1089    4.1294 C   0  0  0  0  0  0  0  0  0  0  0  0
    0.8288   -1.6072    5.4195 F   0  0  0  0  0  0  0  0  0  0  0  0
    2.9169    5.4864    4.9365 C   0  0  0  0  0  0  0  0  0  0  0  0
    3.5993    4.5327    4.5762 O   0  0  0  0  0  0  0  0  0  0  0  0
    3.5844    6.8313    5.8166 S   0  0  0  0  0  0  0  0  0  0  0  0
    5.3070    6.4710    5.5695 C   0  0  0  0  0  0  0  0  0  0  0  0
    5.6284    5.4008    6.3337 F   0  0  0  0  0  0  0  0  0  0  0  0
   -1.2705    5.8900    6.1009 C   0  0  0  0  0  0  0  0  0  0  0  0
   -2.4463    5.6352    4.9545 C   0  0  0  0  0  0  0  0  0  0  0  0
   -1.6153    6.1190    7.2597 O   0  0  0  0  0  0  0  0  0  0  0  0
   -3.0601    4.5296    4.2708 C   0  0  0  0  0  0  0  0  0  0  0  0
   -3.2440    4.9836    2.9068 C   0  0  0  0  0  0  0  0  0  0  0  0
   -3.5798    6.2852    3.1025 C   0  0  0  0  0  0  0  0  0  0  0  0
   -3.0300    6.7373    4.2827 O   0  0  0  0  0  0  0  0  0  0  0  0
    1.8451   -0.0543   -0.2378 H   0  0  0  0  0  0  0  0  0  0  0  0
    1.2469   -2.9289    2.9257 H   0  0  0  0  0  0  0  0  0  0  0  0
   -0.6730    0.1609    1.2457 H   0  0  0  0  0  0  0  0  0  0  0  0
   -0.7212   -0.7290    4.5630 H   0  0  0  0  0  0  0  0  0  0  0  0
    1.7861    0.8494    5.3880 H   0  0  0  0  0  0  0  0  0  0  0  0
    0.2784    0.8324    6.2879 H   0  0  0  0  0  0  0  0  0  0  0  0
    1.2610    4.8321    1.5310 H   0  0  0  0  0  0  0  0  0  0  0  0
    2.6304    3.9730    2.3021 H   0  0  0  0  0  0  0  0  0  0  0  0
    1.6593    2.3991    1.0309 H   0  0  0  0  0  0  0  0  0  0  0  0
   -0.7859    6.6636    4.2051 H   0  0  0  0  0  0  0  0  0  0  0  0
   -0.6060    5.9372    2.8646 H   0  0  0  0  0  0  0  0  0  0  0  0
    1.4762    6.6350    2.5863 H   0  0  0  0  0  0  0  0  0  0  0  0
    3.3209   -0.4229    2.0914 H   0  0  0  0  0  0  0  0  0  0  0  0
    3.1627    1.2944    1.8209 H   0  0  0  0  0  0  0  0  0  0  0  0
    3.2094    0.5658    3.4482 H   0  0  0  0  0  0  0  0  0  0  0  0
   -1.0357    2.5457    1.4696 H   0  0  0  0  0  0  0  0  0  0  0  0
   -1.1287    3.0023    3.0038 H   0  0  0  0  0  0  0  0  0  0  0  0
   -1.2599    4.0468    4.0774 H   0  0  0  0  0  0  0  0  0  0  0  0
   -0.9558    4.4809    2.3013 H   0  0  0  0  0  0  0  0  0  0  0  0
    2.2545    8.3884    4.2137 H   0  0  0  0  0  0  0  0  0  0  0  0
    0.7758    8.8294    3.4292 H   0  0  0  0  0  0  0  0  0  0  0  0
    0.7268    8.2455    5.1043 H   0  0  0  0  0  0  0  0  0  0  0  0
    5.5906    6.2814    4.5265 H   0  0  0  0  0  0  0  0  0  0  0  0
    5.8631    7.3352    5.9323 H   0  0  0  0  0  0  0  0  0  0  0  0
   -2.8753    3.4695    4.4592 H   0  0  0  0  0  0  0  0  0  0  0  0
   -3.1511    4.4525    1.9475 H   0  0  0  0  0  0  0  0  0  0  0  0
   -4.0844    6.9915    2.4647 H   0  0  0  0  0  0  0  0  0  0  0  0
  1  2  1  0  0  0  0
  1  6  2  0  0  0  0
  1 40  1  0  0  0  0
  2  3  1  0  0  0  0
  2 18  2  0  0  0  0
  3  4  2  0  0  0  0
  3 41  1  0  0  0  0
  4  5  1  0  0  0  0
  4  7  1  0  0  0  0
  5  6  1  0  0  0  0
  5 10  1  0  0  0  0
  5 19  1  1  0  0  0
  6 42  1  0  0  0  0
  7  8  1  0  0  0  0
  7 27  1  0  0  0  0
  7 43  1  6  0  0  0
  8  9  1  0  0  0  0
  8 44  1  0  0  0  0
  8 45  1  0  0  0  0
  9 10  1  0  0  0  0
  9 11  1  0  0  0  0
  9 21  1  6  0  0  0
 10 14  1  0  0  0  0
 10 20  1  1  0  0  0
 11 12  1  0  0  0  0
 11 15  1  0  0  0  0
 11 23  1  1  0  0  0
 12 13  1  0  0  0  0
 12 17  1  0  0  0  0
 12 24  1  6  0  0  0
 13 14  1  0  0  0  0
 13 46  1  0  0  0  0
 13 47  1  0  0  0  0
 14 22  1  0  0  0  0
 14 48  1  6  0  0  0
 15 16  1  0  0  0  0
 15 49  1  0  0  0  0
 15 50  1  0  0  0  0
 16 17  1  0  0  0  0
 16 26  1  0  0  0  0
 16 51  1  6  0  0  0
 17 25  1  1  0  0  0
 17 28  1  0  0  0  0
 19 52  1  0  0  0  0
 19 53  1  0  0  0  0
 19 54  1  0  0  0  0
 22 55  1  0  0  0  0
 24 56  1  0  0  0  0
 24 57  1  0  0  0  0
 24 58  1  0  0  0  0
 26 59  1  0  0  0  0
 26 60  1  0  0  0  0
 26 61  1  0  0  0  0
 28 29  2  0  0  0  0
 28 30  1  0  0  0  0
 30 31  1  0  0  0  0
 31 32  1  0  0  0  0
 31 62  1  0  0  0  0
 31 63  1  0  0  0  0
 33 34  1  0  0  0  0
 33 25  1  0  0  0  0
 33 35  2  0  0  0  0
 34 36  2  0  0  0  0
 34 39  1  0  0  0  0
 36 37  1  0  0  0  0
 36 64  1  0  0  0  0
 37 38  2  0  0  0  0
 37 65  1  0  0  0  0
 38 39  1  0  0  0  0
 38 66  1  0  0  0  0
M  END
>  <DRUGBANK_ID>
DB08906

>  <COMMON_NAME>
Fluticasone furoate

>  <CAS_NUMBER>
397864-44-7

>  <UNII>
JS86977WNV

>  <SYNONYMS>
Fluticasone furoate; Fluticasonum furoas; Furoate de fluticasone; Furoato de fluticasona

$$$$
