
 OpenBabel10282417213D

 48 51  0  0  0  0  0  0  0  0999 V2000
    1.4180   -0.0341    0.2305 N   0  0  0  0  0  0  0  0  0  0  0  0
   -4.1241    1.3263   -4.2557 N   0  0  0  0  0  0  0  0  0  0  0  0
   -1.4674    0.0198   -0.1317 C   0  0  0  0  0  0  0  0  0  0  0  0
   -0.6577    1.2684    0.2418 C   0  0  0  0  0  0  0  0  0  0  0  0
   -0.7206   -1.2579    0.2577 C   0  0  0  0  0  0  0  0  0  0  0  0
   -2.8649    0.0501    0.5168 C   0  0  0  0  0  0  0  0  0  0  0  0
    0.7727    1.1791   -0.2653 C   0  0  0  0  0  0  0  0  0  0  0  0
    0.7177   -1.2251   -0.2524 C   0  0  0  0  0  0  0  0  0  0  0  0
   -3.6974    1.2558    0.0522 C   0  0  0  0  0  0  0  0  0  0  0  0
   -3.8915    1.3315   -1.4508 C   0  0  0  0  0  0  0  0  0  0  0  0
   -3.9277    2.5495   -2.1598 C   0  0  0  0  0  0  0  0  0  0  0  0
   -4.0327    0.1447   -2.1765 C   0  0  0  0  0  0  0  0  0  0  0  0
   -4.0491    2.4830   -3.5745 C   0  0  0  0  0  0  0  0  0  0  0  0
   -4.1298    0.1729   -3.5596 C   0  0  0  0  0  0  0  0  0  0  0  0
   -3.8465    3.8182   -1.5433 C   0  0  0  0  0  0  0  0  0  0  0  0
   -4.0916    3.6678   -4.2904 C   0  0  0  0  0  0  0  0  0  0  0  0
   -4.1540   -1.0859   -4.3097 C   0  0  0  0  0  0  0  0  0  0  0  0
   -3.8984    4.9907   -2.2885 C   0  0  0  0  0  0  0  0  0  0  0  0
   -4.0243    4.9164   -3.6680 C   0  0  0  0  0  0  0  0  0  0  0  0
   -3.1615   -1.3671   -5.2597 C   0  0  0  0  0  0  0  0  0  0  0  0
   -5.0975   -2.0868   -4.0139 C   0  0  0  0  0  0  0  0  0  0  0  0
   -3.1067   -2.6128   -5.8878 C   0  0  0  0  0  0  0  0  0  0  0  0
   -5.0242   -3.3429   -4.6172 C   0  0  0  0  0  0  0  0  0  0  0  0
   -4.0369   -3.5994   -5.5650 C   0  0  0  0  0  0  0  0  0  0  0  0
    2.3828   -0.0542   -0.0952 H   0  0  0  0  0  0  0  0  0  0  0  0
   -1.5574    0.0022   -1.2253 H   0  0  0  0  0  0  0  0  0  0  0  0
   -1.1124    2.1663   -0.1910 H   0  0  0  0  0  0  0  0  0  0  0  0
   -0.6631    1.3981    1.3313 H   0  0  0  0  0  0  0  0  0  0  0  0
   -0.7283   -1.3786    1.3474 H   0  0  0  0  0  0  0  0  0  0  0  0
   -1.2368   -2.1293   -0.1654 H   0  0  0  0  0  0  0  0  0  0  0  0
   -3.3990   -0.8852    0.3107 H   0  0  0  0  0  0  0  0  0  0  0  0
   -2.7641    0.0905    1.6084 H   0  0  0  0  0  0  0  0  0  0  0  0
    0.7871    1.2023   -1.3623 H   0  0  0  0  0  0  0  0  0  0  0  0
    1.3263    2.0578    0.0816 H   0  0  0  0  0  0  0  0  0  0  0  0
    1.2424   -2.1187    0.0992 H   0  0  0  0  0  0  0  0  0  0  0  0
    0.7331   -1.2526   -1.3495 H   0  0  0  0  0  0  0  0  0  0  0  0
   -4.6811    1.2417    0.5328 H   0  0  0  0  0  0  0  0  0  0  0  0
   -3.1893    2.1488    0.4268 H   0  0  0  0  0  0  0  0  0  0  0  0
   -3.9911   -0.8236   -1.6898 H   0  0  0  0  0  0  0  0  0  0  0  0
   -3.7528    3.9154   -0.4647 H   0  0  0  0  0  0  0  0  0  0  0  0
   -4.1894    3.6188   -5.3739 H   0  0  0  0  0  0  0  0  0  0  0  0
   -3.8470    5.9542   -1.7893 H   0  0  0  0  0  0  0  0  0  0  0  0
   -4.0745    5.8240   -4.2611 H   0  0  0  0  0  0  0  0  0  0  0  0
   -2.4094   -0.6148   -5.4898 H   0  0  0  0  0  0  0  0  0  0  0  0
   -5.8925   -1.8916   -3.2960 H   0  0  0  0  0  0  0  0  0  0  0  0
   -2.3273   -2.8152   -6.6172 H   0  0  0  0  0  0  0  0  0  0  0  0
   -5.7317   -4.1202   -4.3407 H   0  0  0  0  0  0  0  0  0  0  0  0
   -3.9932   -4.5687   -6.0540 H   0  0  0  0  0  0  0  0  0  0  0  0
  1  7  1  0  0  0  0
  1  8  1  0  0  0  0
  1 25  1  0  0  0  0
  2 13  2  0  0  0  0
  2 14  1  0  0  0  0
  3  4  1  0  0  0  0
  3  5  1  0  0  0  0
  3  6  1  0  0  0  0
  3 26  1  0  0  0  0
  4  7  1  0  0  0  0
  4 27  1  0  0  0  0
  4 28  1  0  0  0  0
  5  8  1  0  0  0  0
  5 29  1  0  0  0  0
  5 30  1  0  0  0  0
  6  9  1  0  0  0  0
  6 31  1  0  0  0  0
  6 32  1  0  0  0  0
  7 33  1  0  0  0  0
  7 34  1  0  0  0  0
  8 35  1  0  0  0  0
  8 36  1  0  0  0  0
  9 10  1  0  0  0  0
  9 37  1  0  0  0  0
  9 38  1  0  0  0  0
 10 11  2  0  0  0  0
 10 12  1  0  0  0  0
 11 13  1  0  0  0  0
 11 15  1  0  0  0  0
 12 14  2  0  0  0  0
 12 39  1  0  0  0  0
 13 16  1  0  0  0  0
 14 17  1  0  0  0  0
 15 18  2  0  0  0  0
 15 40  1  0  0  0  0
 16 19  2  0  0  0  0
 16 41  1  0  0  0  0
 17 20  2  0  0  0  0
 17 21  1  0  0  0  0
 18 19  1  0  0  0  0
 18 42  1  0  0  0  0
 19 43  1  0  0  0  0
 20 22  1  0  0  0  0
 20 44  1  0  0  0  0
 21 23  2  0  0  0  0
 21 45  1  0  0  0  0
 22 24  2  0  0  0  0
 22 46  1  0  0  0  0
 23 24  1  0  0  0  0
 23 47  1  0  0  0  0
 24 48  1  0  0  0  0
M  END
>  <DRUGBANK_ID>
DB13991

>  <COMMON_NAME>
Pipequaline

>  <CAS_NUMBER>
77472-98-1

>  <UNII>
J3S205V4I2

>  <SYNONYMS>
2-Phenyl-4-(2-(4-piperidyl)ethyl)quinoline; Pipequalina; Pipequaline; Pipequalinum

$$$$
