
 OpenBabel10282417243D

 37 38  0  0  0  0  0  0  0  0999 V2000
    0.9533   -0.0844   -0.0211 O   0  0  0  0  0  0  0  0  0  0  0  0
    0.3825   -1.0655   -0.7359 C   0  0  0  0  0  0  0  0  0  0  0  0
    1.0423   -1.9545   -1.2570 O   0  0  0  0  0  0  0  0  0  0  0  0
   -1.0877   -1.0075   -0.7157 C   0  0  0  0  0  0  0  0  0  0  0  0
   -1.7641   -2.2119   -0.5071 C   0  0  0  0  0  0  0  0  0  0  0  0
   -3.1569   -2.2925   -0.5396 C   0  0  0  0  0  0  0  0  0  0  0  0
   -3.8342   -3.4756   -0.3453 N   0  0  0  0  0  0  0  0  0  0  0  0
   -3.2187   -4.7609   -0.0305 C   0  0  0  0  0  0  0  0  0  0  0  0
   -3.6051   -5.2446    1.3653 C   0  0  0  0  0  0  0  0  0  0  0  0
   -5.0706   -5.5603    1.4869 C   0  0  0  0  0  0  0  0  0  0  0  0
   -5.5009   -6.8898    1.4856 C   0  0  0  0  0  0  0  0  0  0  0  0
   -6.8542   -7.1809    1.6217 C   0  0  0  0  0  0  0  0  0  0  0  0
   -7.7921   -6.1456    1.7438 C   0  0  0  0  0  0  0  0  0  0  0  0
   -7.3540   -4.8158    1.7709 C   0  0  0  0  0  0  0  0  0  0  0  0
   -6.0065   -4.5257    1.6145 C   0  0  0  0  0  0  0  0  0  0  0  0
   -9.2661   -6.4325    1.7899 C   0  0  0  0  0  0  0  0  0  0  0  0
   -9.8576   -5.9639    2.9216 F   0  0  0  0  0  0  0  0  0  0  0  0
   -9.9269   -5.8490    0.7507 F   0  0  0  0  0  0  0  0  0  0  0  0
   -9.5651   -7.7586    1.7245 F   0  0  0  0  0  0  0  0  0  0  0  0
   -3.8677   -1.1061   -0.7747 C   0  0  0  0  0  0  0  0  0  0  0  0
   -3.2017    0.1109   -0.9922 C   0  0  0  0  0  0  0  0  0  0  0  0
   -1.8079    0.1554   -0.9652 C   0  0  0  0  0  0  0  0  0  0  0  0
   -1.1428    1.3165   -1.2302 O   0  0  0  0  0  0  0  0  0  0  0  0
    1.9154   -0.2138   -0.1387 H   0  0  0  0  0  0  0  0  0  0  0  0
   -1.1548   -3.0913   -0.3392 H   0  0  0  0  0  0  0  0  0  0  0  0
   -4.8419   -3.4809   -0.4643 H   0  0  0  0  0  0  0  0  0  0  0  0
   -3.5195   -5.4904   -0.7899 H   0  0  0  0  0  0  0  0  0  0  0  0
   -2.1290   -4.7326   -0.0599 H   0  0  0  0  0  0  0  0  0  0  0  0
   -3.0221   -6.1461    1.5955 H   0  0  0  0  0  0  0  0  0  0  0  0
   -3.3339   -4.5082    2.1320 H   0  0  0  0  0  0  0  0  0  0  0  0
   -4.7857   -7.7027    1.3766 H   0  0  0  0  0  0  0  0  0  0  0  0
   -7.1742   -8.2211    1.6301 H   0  0  0  0  0  0  0  0  0  0  0  0
   -8.0629   -4.0015    1.9096 H   0  0  0  0  0  0  0  0  0  0  0  0
   -5.6909   -3.4842    1.5829 H   0  0  0  0  0  0  0  0  0  0  0  0
   -4.9568   -1.1184   -0.8078 H   0  0  0  0  0  0  0  0  0  0  0  0
   -3.7877    1.0005   -1.2040 H   0  0  0  0  0  0  0  0  0  0  0  0
   -1.7707    2.0497   -1.3120 H   0  0  0  0  0  0  0  0  0  0  0  0
  1  2  1  0  0  0  0
  1 24  1  0  0  0  0
  2  3  2  0  0  0  0
  2  4  1  0  0  0  0
  4  5  2  0  0  0  0
  4 22  1  0  0  0  0
  5  6  1  0  0  0  0
  5 25  1  0  0  0  0
  6  7  1  0  0  0  0
  6 20  2  0  0  0  0
  7  8  1  0  0  0  0
  7 26  1  0  0  0  0
  8  9  1  0  0  0  0
  8 27  1  0  0  0  0
  8 28  1  0  0  0  0
  9 10  1  0  0  0  0
  9 29  1  0  0  0  0
  9 30  1  0  0  0  0
 10 11  2  0  0  0  0
 10 15  1  0  0  0  0
 11 12  1  0  0  0  0
 11 31  1  0  0  0  0
 12 13  2  0  0  0  0
 12 32  1  0  0  0  0
 13 14  1  0  0  0  0
 13 16  1  0  0  0  0
 14 15  2  0  0  0  0
 14 33  1  0  0  0  0
 15 34  1  0  0  0  0
 16 17  1  0  0  0  0
 16 18  1  0  0  0  0
 16 19  1  0  0  0  0
 20 21  1  0  0  0  0
 20 35  1  0  0  0  0
 21 22  2  0  0  0  0
 21 36  1  0  0  0  0
 22 23  1  0  0  0  0
 23 37  1  0  0  0  0
M  END
>  <DRUGBANK_ID>
DB18405

>  <COMMON_NAME>
Crisdesalazine

>  <CAS_NUMBER>
927685-43-6

>  <UNII>
11VWK61J69

>  <SYNONYMS>
2-hydroxy-5-((2-(4-(trifluoromethyl)phenyl)ethyl)amino)benzoic acid; Benzoic acid, 2-hydroxy-5-((2-(4-(trifluoromethyl)phenyl)ethyl)amino)-

$$$$
