
 OpenBabel10282417153D

 60 64  0  0  0  0  0  0  0  0999 V2000
    2.0054    0.9391    0.0789 C   0  0  0  0  0  0  0  0  0  0  0  0
    2.1911   -0.4266    0.1323 C   0  0  0  0  0  0  0  0  0  0  0  0
    1.0969   -1.3260    0.0835 C   0  0  0  0  0  0  0  0  0  0  0  0
   -0.1966   -0.7651    0.0402 C   0  0  0  0  0  0  0  0  0  0  0  0
   -0.3191    0.6202    0.0196 C   0  0  0  0  0  0  0  0  0  0  0  0
    0.7553    1.5008    0.0276 C   0  0  0  0  0  0  0  0  0  0  0  0
   -1.5259   -1.2637   -0.0011 C   0  0  0  0  0  0  0  0  0  0  0  0
   -2.3776   -0.1716   -0.0354 C   0  0  0  0  0  0  0  0  0  0  0  0
   -1.6306    0.9795   -0.0182 O   0  0  0  0  0  0  0  0  0  0  0  0
    3.5243   -0.6922   -0.0302 N   0  0  0  0  0  0  0  0  0  0  0  0
    4.5085   -0.7191    1.0618 C   0  0  0  0  0  0  0  0  0  0  0  0
    5.9083   -0.6142    0.3744 C   0  0  0  0  0  0  0  0  0  0  0  0
    6.2589   -1.5813   -0.7083 N   0  0  0  0  0  0  0  0  0  0  0  0
    5.1951   -1.5283   -1.7347 C   0  0  0  0  0  0  0  0  0  0  0  0
    3.7889   -1.5445   -1.1298 C   0  0  0  0  0  0  0  0  0  0  0  0
    6.5234   -2.9266   -0.1911 C   0  0  0  0  0  0  0  0  0  0  0  0
    5.3561   -3.6455    0.4717 C   0  0  0  0  0  0  0  0  0  0  0  0
    4.2188   -4.1835   -0.4501 C   0  0  0  0  0  0  0  0  0  0  0  0
    4.6857   -5.0124   -1.5725 C   0  0  0  0  0  0  0  0  0  0  0  0
   -3.8232   -0.0735   -0.0896 C   0  0  0  0  0  0  0  0  0  0  0  0
   -4.4997   -1.2695   -0.1250 N   0  0  0  0  0  0  0  0  0  0  0  0
   -4.4681    0.9714   -0.1100 O   0  0  0  0  0  0  0  0  0  0  0  0
    4.9337   -6.2790   -0.9593 C   0  0  0  0  0  0  0  0  0  0  0  0
    5.3699   -6.5620    0.3122 C   0  0  0  0  0  0  0  0  0  0  0  0
    4.5308   -7.4528   -1.5603 C   0  0  0  0  0  0  0  0  0  0  0  0
    5.2293   -7.8773    0.5218 N   0  0  0  0  0  0  0  0  0  0  0  0
    4.7448   -8.4388   -0.6146 C   0  0  0  0  0  0  0  0  0  0  0  0
    3.9751   -7.7192   -2.8128 C   0  0  0  0  0  0  0  0  0  0  0  0
    3.7082   -9.0472   -3.0777 C   0  0  0  0  0  0  0  0  0  0  0  0
    3.9662  -10.0383   -2.1200 C   0  0  0  0  0  0  0  0  0  0  0  0
    4.4804   -9.7556   -0.8587 C   0  0  0  0  0  0  0  0  0  0  0  0
    3.1708   -9.4036   -4.3618 C   0  0  0  0  0  0  0  0  0  0  0  0
    2.7444   -9.6884   -5.3829 N   0  0  0  0  0  0  0  0  0  0  0  0
    2.9137    1.5344   -0.0100 H   0  0  0  0  0  0  0  0  0  0  0  0
    1.2083   -2.4095    0.0491 H   0  0  0  0  0  0  0  0  0  0  0  0
    0.6684    2.5725   -0.0187 H   0  0  0  0  0  0  0  0  0  0  0  0
   -1.8348   -2.2976    0.0001 H   0  0  0  0  0  0  0  0  0  0  0  0
    4.3418    0.0912    1.7687 H   0  0  0  0  0  0  0  0  0  0  0  0
    4.4238   -1.5834    1.7225 H   0  0  0  0  0  0  0  0  0  0  0  0
    5.8986    0.3632   -0.1208 H   0  0  0  0  0  0  0  0  0  0  0  0
    6.7104   -0.5975    1.1132 H   0  0  0  0  0  0  0  0  0  0  0  0
    5.2871   -0.6157   -2.3283 H   0  0  0  0  0  0  0  0  0  0  0  0
    5.3392   -2.3498   -2.4535 H   0  0  0  0  0  0  0  0  0  0  0  0
    3.7728   -2.2960   -0.4032 H   0  0  0  0  0  0  0  0  0  0  0  0
    2.9931   -1.8103   -1.8439 H   0  0  0  0  0  0  0  0  0  0  0  0
    6.9523   -3.5784   -0.9659 H   0  0  0  0  0  0  0  0  0  0  0  0
    7.3419   -2.8669    0.5429 H   0  0  0  0  0  0  0  0  0  0  0  0
    5.8437   -4.3740    1.0942 H   0  0  0  0  0  0  0  0  0  0  0  0
    4.9346   -3.1305    1.3153 H   0  0  0  0  0  0  0  0  0  0  0  0
    3.3161   -4.4372    0.1300 H   0  0  0  0  0  0  0  0  0  0  0  0
    3.7536   -3.5793   -1.2039 H   0  0  0  0  0  0  0  0  0  0  0  0
    3.8666   -5.0330   -2.3238 H   0  0  0  0  0  0  0  0  0  0  0  0
    5.5205   -4.5646   -2.1134 H   0  0  0  0  0  0  0  0  0  0  0  0
   -5.5087   -1.2365   -0.1737 H   0  0  0  0  0  0  0  0  0  0  0  0
   -4.0516   -2.1718   -0.1187 H   0  0  0  0  0  0  0  0  0  0  0  0
    5.6845   -6.0145    1.1724 H   0  0  0  0  0  0  0  0  0  0  0  0
    5.4448   -8.3104    1.4051 H   0  0  0  0  0  0  0  0  0  0  0  0
    3.7856   -6.9239   -3.5358 H   0  0  0  0  0  0  0  0  0  0  0  0
    3.7655  -11.0749   -2.3480 H   0  0  0  0  0  0  0  0  0  0  0  0
    4.6868  -10.4938   -0.1010 H   0  0  0  0  0  0  0  0  0  0  0  0
  1  2  2  0  0  0  0
  1  6  1  0  0  0  0
  1 34  1  0  0  0  0
  2  3  1  0  0  0  0
  2 10  1  0  0  0  0
  3  4  2  0  0  0  0
  3 35  1  0  0  0  0
  4  5  1  0  0  0  0
  4  7  1  0  0  0  0
  5  6  2  0  0  0  0
  5  9  1  0  0  0  0
  6 36  1  0  0  0  0
  7  8  2  0  0  0  0
  7 37  1  0  0  0  0
  8  9  1  0  0  0  0
  8 20  1  0  0  0  0
 10 11  1  0  0  0  0
 10 15  1  0  0  0  0
 11 12  1  0  0  0  0
 11 38  1  0  0  0  0
 11 39  1  0  0  0  0
 12 13  1  0  0  0  0
 12 40  1  0  0  0  0
 12 41  1  0  0  0  0
 13 14  1  0  0  0  0
 13 16  1  0  0  0  0
 14 15  1  0  0  0  0
 14 42  1  0  0  0  0
 14 43  1  0  0  0  0
 15 44  1  0  0  0  0
 15 45  1  0  0  0  0
 16 17  1  0  0  0  0
 16 46  1  0  0  0  0
 16 47  1  0  0  0  0
 17 18  1  0  0  0  0
 17 48  1  0  0  0  0
 17 49  1  0  0  0  0
 18 19  1  0  0  0  0
 18 50  1  0  0  0  0
 18 51  1  0  0  0  0
 19 23  1  0  0  0  0
 19 52  1  0  0  0  0
 19 53  1  0  0  0  0
 20 21  1  0  0  0  0
 20 22  2  0  0  0  0
 21 54  1  0  0  0  0
 21 55  1  0  0  0  0
 24 23  2  0  0  0  0
 24 56  1  0  0  0  0
 25 23  1  0  0  0  0
 25 28  1  0  0  0  0
 26 24  1  0  0  0  0
 26 57  1  0  0  0  0
 27 26  1  0  0  0  0
 27 25  2  0  0  0  0
 28 58  1  0  0  0  0
 29 28  2  0  0  0  0
 29 32  1  0  0  0  0
 30 29  1  0  0  0  0
 30 59  1  0  0  0  0
 31 27  1  0  0  0  0
 31 30  2  0  0  0  0
 31 60  1  0  0  0  0
 33 32  3  0  0  0  0
M  END
>  <DRUGBANK_ID>
DB06684

>  <COMMON_NAME>
Vilazodone

>  <CAS_NUMBER>
163521-12-8

>  <UNII>
S239O2OOV3

>  <SYNONYMS>
Vilazodona; Vilazodone; Vilazodonum

$$$$
