
 OpenBabel10282417143D

 23 23  0  0  0  0  0  0  0  0999 V2000
    1.2400    0.0705   -0.4051 C   0  0  0  0  0  0  0  0  0  0  0  0
    0.5581   -1.3141   -0.4891 C   0  0  0  0  0  0  0  0  0  0  0  0
    0.9710   -2.4130    0.5171 C   0  0  0  0  0  0  0  0  0  0  0  0
    0.4647   -2.3319    1.9441 C   0  0  0  0  0  0  0  0  0  0  0  0
    0.3395   -3.4445    2.7744 C   0  0  0  0  0  0  0  0  0  0  0  0
    0.0351   -3.2616    4.1361 C   0  0  0  0  0  0  0  0  0  0  0  0
    0.0226   -1.9961    4.7220 C   0  0  0  0  0  0  0  0  0  0  0  0
    0.1740   -0.8912    3.9118 C   0  0  0  0  0  0  0  0  0  0  0  0
    0.1601   -1.1300    2.5535 C   0  0  0  0  0  0  0  0  0  0  0  0
    0.9868    0.9375    0.7306 N   0  0  0  0  0  0  0  0  0  0  0  0
    0.9110    0.6532   -1.2701 H   0  0  0  0  0  0  0  0  0  0  0  0
    2.3233   -0.0490   -0.4740 H   0  0  0  0  0  0  0  0  0  0  0  0
   -0.5333   -1.2199   -0.5037 H   0  0  0  0  0  0  0  0  0  0  0  0
    0.8366   -1.6908   -1.4866 H   0  0  0  0  0  0  0  0  0  0  0  0
    0.6555   -3.3768    0.0926 H   0  0  0  0  0  0  0  0  0  0  0  0
    2.0707   -2.4507    0.5414 H   0  0  0  0  0  0  0  0  0  0  0  0
    0.4086   -4.4441    2.3618 H   0  0  0  0  0  0  0  0  0  0  0  0
   -0.1925   -4.1251    4.7578 H   0  0  0  0  0  0  0  0  0  0  0  0
   -0.1984   -1.8390    5.7696 H   0  0  0  0  0  0  0  0  0  0  0  0
    0.1560    0.1226    4.2915 H   0  0  0  0  0  0  0  0  0  0  0  0
   -0.3146   -0.3599    1.9710 H   0  0  0  0  0  0  0  0  0  0  0  0
   -0.0185    1.0053    0.8868 H   0  0  0  0  0  0  0  0  0  0  0  0
    1.4147    0.5244    1.5620 H   0  0  0  0  0  0  0  0  0  0  0  0
  1  2  1  0  0  0  0
  1 10  1  0  0  0  0
  1 11  1  0  0  0  0
  1 12  1  0  0  0  0
  2  3  1  0  0  0  0
  2 13  1  0  0  0  0
  2 14  1  0  0  0  0
  3 15  1  0  0  0  0
  3 16  1  0  0  0  0
  4  3  1  0  0  0  0
  4  5  2  0  0  0  0
  4  9  1  0  0  0  0
  5  6  1  0  0  0  0
  5 17  1  0  0  0  0
  6  7  2  0  0  0  0
  6 18  1  0  0  0  0
  7  8  1  0  0  0  0
  7 19  1  0  0  0  0
  8  9  2  0  0  0  0
  8 20  1  0  0  0  0
  9 21  1  0  0  0  0
 10 22  1  0  0  0  0
 10 23  1  0  0  0  0
M  END
>  <DRUGBANK_ID>
DB04410

>  <SECONDARY_ACCESSION_NUMBERS>
EXPT02655

>  <COMMON_NAME>
3-Phenylpropylamine

>  <CAS_NUMBER>
2038-57-5

>  <UNII>
P8326EZ31P

>  <SYNONYMS>
3-phenyl-1-aminopropane; 3-phenyl-1-propylamine; 3-phenyl-N-propylamine; 3-phenylpropanamine; benzenepropanamine; gamma-phenyl-n-propylamine; gamma-phenylpropylamine; hydrocinnamylamine

$$$$
