664
 OpenBabel10282417103D

 31 32  0  0  0  0  0  0  0  0999 V2000
    1.0012    0.0721   -0.0101 S   0  0  0  0  0  0  0  0  0  0  0  0
    0.6014   -0.6879   -1.1717 O   0  0  0  0  0  0  0  0  0  0  0  0
    0.4955   -0.3220    1.2976 O   0  0  0  0  0  0  0  0  0  0  0  0
   -0.0291    3.8501    1.8322 O   0  0  0  0  0  0  0  0  0  0  0  0
    0.4143    1.6161   -0.3308 N   0  0  0  0  0  0  0  0  0  0  0  0
    2.0810    2.9781   -1.0868 N   0  0  0  0  0  0  0  0  0  0  0  0
    6.9595   -0.0599    0.1039 N   0  0  0  0  0  0  0  0  0  0  0  0
    1.8234    4.8247    1.0119 N   0  0  0  0  0  0  0  0  0  0  0  0
    2.7672   -0.0198    0.0997 C   0  0  0  0  0  0  0  0  0  0  0  0
    3.5356    1.1031    0.3277 C   0  0  0  0  0  0  0  0  0  0  0  0
    3.4290   -1.2406   -0.0095 C   0  0  0  0  0  0  0  0  0  0  0  0
    1.1067    2.8392   -0.1525 C   0  0  0  0  0  0  0  0  0  0  0  0
    5.5826   -0.0762    0.0282 C   0  0  0  0  0  0  0  0  0  0  0  0
    4.9062    1.1183    0.1493 C   0  0  0  0  0  0  0  0  0  0  0  0
    4.8376   -1.2618    0.0114 C   0  0  0  0  0  0  0  0  0  0  0  0
    0.9391    3.7909    0.8748 C   0  0  0  0  0  0  0  0  0  0  0  0
    2.9745    3.9799   -0.8962 C   0  0  0  0  0  0  0  0  0  0  0  0
    2.8525    4.8831    0.1362 C   0  0  0  0  0  0  0  0  0  0  0  0
   -1.0294    2.8516    1.8225 C   0  0  0  0  0  0  0  0  0  0  0  0
   -0.5950    1.6370   -0.2763 H   0  0  0  0  0  0  0  0  0  0  0  0
    7.4894   -0.9124    0.0141 H   0  0  0  0  0  0  0  0  0  0  0  0
    7.4508    0.8226    0.0312 H   0  0  0  0  0  0  0  0  0  0  0  0
    3.1007    2.0104    0.6888 H   0  0  0  0  0  0  0  0  0  0  0  0
    2.8714   -2.1745   -0.0493 H   0  0  0  0  0  0  0  0  0  0  0  0
    5.4263    2.0705    0.1777 H   0  0  0  0  0  0  0  0  0  0  0  0
    5.3527   -2.2175    0.0153 H   0  0  0  0  0  0  0  0  0  0  0  0
    3.8536    3.9533   -1.5325 H   0  0  0  0  0  0  0  0  0  0  0  0
    3.5989    5.6529    0.3076 H   0  0  0  0  0  0  0  0  0  0  0  0
   -1.5696    2.8477    0.8712 H   0  0  0  0  0  0  0  0  0  0  0  0
   -0.5913    1.8816    2.0651 H   0  0  0  0  0  0  0  0  0  0  0  0
   -1.7709    3.0726    2.5934 H   0  0  0  0  0  0  0  0  0  0  0  0
  1  2  2  0  0  0  0
  1  3  2  0  0  0  0
  1  5  1  0  0  0  0
  1  9  1  0  0  0  0
  4 16  1  0  0  0  0
  4 19  1  0  0  0  0
  5 12  1  0  0  0  0
  5 20  1  0  0  0  0
  6 12  2  0  0  0  0
  6 17  1  0  0  0  0
  7 13  1  0  0  0  0
  7 21  1  0  0  0  0
  7 22  1  0  0  0  0
  8 16  2  0  0  0  0
  8 18  1  0  0  0  0
  9 10  2  0  0  0  0
  9 11  1  0  0  0  0
 10 14  1  0  0  0  0
 10 23  1  0  0  0  0
 11 15  2  0  0  0  0
 11 24  1  0  0  0  0
 12 16  1  0  0  0  0
 13 14  2  0  0  0  0
 13 15  1  0  0  0  0
 14 25  1  0  0  0  0
 15 26  1  0  0  0  0
 17 18  2  0  0  0  0
 17 27  1  0  0  0  0
 18 28  1  0  0  0  0
 19 29  1  0  0  0  0
 19 30  1  0  0  0  0
 19 31  1  0  0  0  0
M  END
>  <DRUGBANK_ID>
DB00664

>  <SECONDARY_ACCESSION_NUMBERS>
APRD00517

>  <COMMON_NAME>
Sulfametopyrazine

>  <CAS_NUMBER>
152-47-6

>  <UNII>
T6BL4ZC15G

>  <SYNONYMS>
Solfametopirazina; Sulfalene; Sulfaleno; Sulfalenum; Sulfamethopyrazine

$$$$
