
 OpenBabel10282417193D

 59 63  0  0  1  0  0  0  0  0999 V2000
    1.0691    0.0292    0.1999 C   0  0  0  0  0  0  0  0  0  0  0  0
    0.7894   -0.7745   -1.0388 C   0  0  0  0  0  0  0  0  0  0  0  0
    1.8381   -1.8915   -1.3932 C   0  0  2  0  0  0  0  0  0  0  0  0
    3.3098   -1.5504   -2.2044 C   0  0  0  0  0  0  0  0  0  0  0  0
    4.1971   -0.3359   -2.3012 C   0  0  0  0  0  0  0  0  0  0  0  0
    3.6126    0.7439   -2.8225 C   0  0  0  0  0  0  0  0  0  0  0  0
    2.3795    0.4693   -3.3761 N   0  0  0  0  0  0  0  0  0  0  0  0
    2.0234   -0.8147   -3.8278 C   0  0  0  0  0  0  0  0  0  0  0  0
    0.8876   -1.0685   -4.2512 O   0  0  0  0  0  0  0  0  0  0  0  0
    3.0367   -1.9557   -3.4524 C   0  0  0  0  0  0  0  0  0  0  0  0
    2.7452   -3.4386   -3.3788 C   0  0  0  0  0  0  0  0  0  0  0  0
    1.3793   -3.6911   -3.2247 O   0  0  0  0  0  0  0  0  0  0  0  0
    0.8139   -2.9529   -2.2316 C   0  0  0  0  0  0  0  0  0  0  0  0
   -0.3900   -3.0931   -2.0167 O   0  0  0  0  0  0  0  0  0  0  0  0
    1.5499    1.6631   -3.2756 C   0  0  0  0  0  0  0  0  0  0  0  0
    2.5717    2.7433   -3.1570 C   0  0  0  0  0  0  0  0  0  0  0  0
    3.8441    2.2016   -2.9661 C   0  0  0  0  0  0  0  0  0  0  0  0
    4.9639    2.9360   -2.8490 N   0  0  0  0  0  0  0  0  0  0  0  0
    4.8063    4.2920   -2.9857 C   0  0  0  0  0  0  0  0  0  0  0  0
    5.8908    5.1741   -2.8820 C   0  0  0  0  0  0  0  0  0  0  0  0
    5.7497    6.5762   -2.9019 C   0  0  0  0  0  0  0  0  0  0  0  0
    4.5147    7.1391   -3.1385 C   0  0  0  0  0  0  0  0  0  0  0  0
    3.4558    6.2949   -3.4106 C   0  0  0  0  0  0  0  0  0  0  0  0
    3.5369    4.9009   -3.2038 C   0  0  0  0  0  0  0  0  0  0  0  0
    2.3710    4.1076   -3.1671 C   0  0  0  0  0  0  0  0  0  0  0  0
    0.9561    4.6674   -3.0934 C   0  0  0  0  0  0  0  0  0  0  0  0
    0.6017    5.4430   -1.7907 C   0  0  0  0  0  0  0  0  0  0  0  0
    1.4986    6.5704   -1.5708 N   0  0  0  0  0  0  0  0  0  0  0  0
    1.2910    7.4332   -0.4273 C   0  0  0  0  0  0  0  0  0  0  0  0
    1.5278    6.6047    0.8262 C   0  0  0  0  0  0  0  0  0  0  0  0
    2.3431    8.5555   -0.5095 C   0  0  0  0  0  0  0  0  0  0  0  0
    2.2475   -2.5360   -0.1889 O   0  0  0  0  0  0  0  0  0  0  0  0
    0.6609   -0.4864    1.0756 H   0  0  0  0  0  0  0  0  0  0  0  0
    0.5766    1.0054    0.1323 H   0  0  0  0  0  0  0  0  0  0  0  0
    2.1398    0.1776    0.3174 H   0  0  0  0  0  0  0  0  0  0  0  0
   -0.2281   -1.1762   -0.9044 H   0  0  0  0  0  0  0  0  0  0  0  0
    0.5994   -0.1236   -1.8782 H   0  0  0  0  0  0  0  0  0  0  0  0
    5.2915   -0.3610   -2.2524 H   0  0  0  0  0  0  0  0  0  0  0  0
    3.2104   -3.8961   -2.4799 H   0  0  0  0  0  0  0  0  0  0  0  0
    3.1884   -4.0197   -4.1883 H   0  0  0  0  0  0  0  0  0  0  0  0
    0.8807    1.7262   -4.1252 H   0  0  0  0  0  0  0  0  0  0  0  0
    0.9902    1.6698   -2.3303 H   0  0  0  0  0  0  0  0  0  0  0  0
    6.8886    4.7648   -2.7532 H   0  0  0  0  0  0  0  0  0  0  0  0
    6.6042    7.2301   -2.7530 H   0  0  0  0  0  0  0  0  0  0  0  0
    4.3440    8.2127   -3.0967 H   0  0  0  0  0  0  0  0  0  0  0  0
    2.5024    6.7652   -3.6521 H   0  0  0  0  0  0  0  0  0  0  0  0
    0.7787    5.2785   -3.9829 H   0  0  0  0  0  0  0  0  0  0  0  0
    0.2283    3.8477   -3.1559 H   0  0  0  0  0  0  0  0  0  0  0  0
   -0.4307    5.8002   -1.8623 H   0  0  0  0  0  0  0  0  0  0  0  0
    0.6664    4.7364   -0.9572 H   0  0  0  0  0  0  0  0  0  0  0  0
    2.4284    6.1704   -1.4258 H   0  0  0  0  0  0  0  0  0  0  0  0
    0.2915    7.8755   -0.4601 H   0  0  0  0  0  0  0  0  0  0  0  0
    2.5408    6.1787    0.8236 H   0  0  0  0  0  0  0  0  0  0  0  0
    1.4096    7.2119    1.7228 H   0  0  0  0  0  0  0  0  0  0  0  0
    0.8232    5.7709    0.8867 H   0  0  0  0  0  0  0  0  0  0  0  0
    2.2471    9.1431   -1.4313 H   0  0  0  0  0  0  0  0  0  0  0  0
    2.2417    9.2404    0.3375 H   0  0  0  0  0  0  0  0  0  0  0  0
    3.3682    8.1602   -0.4845 H   0  0  0  0  0  0  0  0  0  0  0  0
    2.7833   -3.3009   -0.4518 H   0  0  0  0  0  0  0  0  0  0  0  0
  1  2  1  0  0  0  0
  1 33  1  0  0  0  0
  1 34  1  0  0  0  0
  1 35  1  0  0  0  0
  2 36  1  0  0  0  0
  2 37  1  0  0  0  0
  3  2  1  0  0  0  0
  3  4  1  0  0  0  0
  3 13  1  0  0  0  0
  3 32  1  1  0  0  0
  4  5  1  0  0  0  0
  4 10  2  0  0  0  0
  5  6  2  0  0  0  0
  5 38  1  0  0  0  0
  6  7  1  0  0  0  0
  6 17  1  0  0  0  0
  7  8  1  0  0  0  0
  7 15  1  0  0  0  0
  8  9  2  0  0  0  0
  8 10  1  0  0  0  0
 10 11  1  0  0  0  0
 11 12  1  0  0  0  0
 11 39  1  0  0  0  0
 11 40  1  0  0  0  0
 12 13  1  0  0  0  0
 13 14  2  0  0  0  0
 15 16  1  0  0  0  0
 15 41  1  0  0  0  0
 15 42  1  0  0  0  0
 16 17  2  0  0  0  0
 16 25  1  0  0  0  0
 17 18  1  0  0  0  0
 18 19  2  0  0  0  0
 19 20  1  0  0  0  0
 19 24  1  0  0  0  0
 20 21  2  0  0  0  0
 20 43  1  0  0  0  0
 21 22  1  0  0  0  0
 21 44  1  0  0  0  0
 22 23  2  0  0  0  0
 22 45  1  0  0  0  0
 23 24  1  0  0  0  0
 23 46  1  0  0  0  0
 24 25  2  0  0  0  0
 25 26  1  0  0  0  0
 26 27  1  0  0  0  0
 26 47  1  0  0  0  0
 26 48  1  0  0  0  0
 27 28  1  0  0  0  0
 27 49  1  0  0  0  0
 27 50  1  0  0  0  0
 28 29  1  0  0  0  0
 28 51  1  0  0  0  0
 29 30  1  0  0  0  0
 29 31  1  0  0  0  0
 29 52  1  0  0  0  0
 30 53  1  0  0  0  0
 30 54  1  0  0  0  0
 30 55  1  0  0  0  0
 31 56  1  0  0  0  0
 31 57  1  0  0  0  0
 31 58  1  0  0  0  0
 32 59  1  0  0  0  0
M  END
>  <DRUGBANK_ID>
DB12459

>  <COMMON_NAME>
Belotecan

>  <CAS_NUMBER>
256411-32-2

>  <UNII>
27Z82M2G1N

>  <SYNONYMS>
Belotecan

$$$$
