
 OpenBabel10282417193D

 57 59  0  0  0  0  0  0  0  0999 V2000
    1.2123    0.0831   -0.1415 C   0  0  0  0  0  0  0  0  0  0  0  0
    0.3335    1.2950    0.1981 C   0  0  0  0  0  0  0  0  0  0  0  0
   -0.6242    1.8304   -0.8365 C   0  0  0  0  0  0  0  0  0  0  0  0
   -1.6430    0.7720   -1.2241 C   0  0  0  0  0  0  0  0  0  0  0  0
    0.7209   -0.9941   -0.4255 O   0  0  0  0  0  0  0  0  0  0  0  0
    2.5854    0.2215   -0.1176 N   0  0  0  0  0  0  0  0  0  0  0  0
   -1.3434    3.0366   -0.2023 C   0  0  0  0  0  0  0  0  0  0  0  0
    4.4397    1.7450   -0.2786 N   0  0  0  0  0  0  0  0  0  0  0  0
    4.7973    2.8680    0.4334 N   0  0  0  0  0  0  0  0  0  0  0  0
    4.0429    3.0310    1.5398 C   0  0  0  0  0  0  0  0  0  0  0  0
    3.1399    2.0450    1.4701 C   0  0  0  0  0  0  0  0  0  0  0  0
    3.3257    1.2982    0.3185 C   0  0  0  0  0  0  0  0  0  0  0  0
    2.7764    3.1643    3.4796 N   0  0  0  0  0  0  0  0  0  0  0  0
    3.9068    3.8897    2.7604 C   0  0  0  0  0  0  0  0  0  0  0  0
    2.3461    2.0131    2.6596 C   0  0  0  0  0  0  0  0  0  0  0  0
    2.2617    3.6599    4.6946 C   0  0  0  0  0  0  0  0  0  0  0  0
    2.7580    4.6968    5.1695 O   0  0  0  0  0  0  0  0  0  0  0  0
    0.1187    0.8095    4.1653 N   0  0  0  0  0  0  0  0  0  0  0  0
    1.3150    0.6703    5.0073 C   0  0  0  0  0  0  0  0  0  0  0  0
    1.3795    1.6491    6.1377 C   0  0  0  0  0  0  0  0  0  0  0  0
    1.1029    3.0433    5.5865 C   0  0  0  0  0  0  0  0  0  0  0  0
   -0.3159    3.0883    5.0215 C   0  0  0  0  0  0  0  0  0  0  0  0
   -0.4287    2.1478    3.8497 C   0  0  0  0  0  0  0  0  0  0  0  0
    0.1170   -0.1410    3.0640 C   0  0  0  0  0  0  0  0  0  0  0  0
    3.4691    5.2879    2.3377 C   0  0  0  0  0  0  0  0  0  0  0  0
    5.1769    3.8308    3.5928 C   0  0  0  0  0  0  0  0  0  0  0  0
   -0.2897    1.0463    1.0505 H   0  0  0  0  0  0  0  0  0  0  0  0
    0.9454    2.1451    0.4628 H   0  0  0  0  0  0  0  0  0  0  0  0
   -0.0466    2.1565   -1.7062 H   0  0  0  0  0  0  0  0  0  0  0  0
   -2.2217    0.4450   -0.3513 H   0  0  0  0  0  0  0  0  0  0  0  0
   -2.3319    1.1678   -1.9715 H   0  0  0  0  0  0  0  0  0  0  0  0
   -1.1575   -0.1084   -1.6505 H   0  0  0  0  0  0  0  0  0  0  0  0
    3.0907   -0.5253   -0.5756 H   0  0  0  0  0  0  0  0  0  0  0  0
   -0.6289    3.7869    0.1595 H   0  0  0  0  0  0  0  0  0  0  0  0
   -2.0065    3.5149   -0.9250 H   0  0  0  0  0  0  0  0  0  0  0  0
   -1.9463    2.7321    0.6647 H   0  0  0  0  0  0  0  0  0  0  0  0
    5.5642    3.4321    0.0905 H   0  0  0  0  0  0  0  0  0  0  0  0
    2.6291    1.0312    3.0061 H   0  0  0  0  0  0  0  0  0  0  0  0
    1.3563    2.1459    2.3198 H   0  0  0  0  0  0  0  0  0  0  0  0
    1.4588   -0.3705    5.3067 H   0  0  0  0  0  0  0  0  0  0  0  0
    2.2806    0.8666    4.5774 H   0  0  0  0  0  0  0  0  0  0  0  0
    0.6622    1.3441    6.9058 H   0  0  0  0  0  0  0  0  0  0  0  0
    2.3812    1.6265    6.5848 H   0  0  0  0  0  0  0  0  0  0  0  0
    1.0630    3.6887    6.4803 H   0  0  0  0  0  0  0  0  0  0  0  0
   -1.0535    2.7810    5.7743 H   0  0  0  0  0  0  0  0  0  0  0  0
   -0.5754    4.1119    4.7223 H   0  0  0  0  0  0  0  0  0  0  0  0
    0.0096    2.7434    3.0509 H   0  0  0  0  0  0  0  0  0  0  0  0
   -1.4599    2.0676    3.4898 H   0  0  0  0  0  0  0  0  0  0  0  0
   -0.8593   -0.1817    2.5727 H   0  0  0  0  0  0  0  0  0  0  0  0
    0.8767    0.0987    2.3286 H   0  0  0  0  0  0  0  0  0  0  0  0
    0.3779   -1.1570    3.3637 H   0  0  0  0  0  0  0  0  0  0  0  0
    3.3156    5.9523    3.1910 H   0  0  0  0  0  0  0  0  0  0  0  0
    4.2184    5.7396    1.6827 H   0  0  0  0  0  0  0  0  0  0  0  0
    2.5201    5.2498    1.7843 H   0  0  0  0  0  0  0  0  0  0  0  0
    5.3917    2.7977    3.8982 H   0  0  0  0  0  0  0  0  0  0  0  0
    6.0296    4.1970    3.0170 H   0  0  0  0  0  0  0  0  0  0  0  0
    5.0958    4.4248    4.5067 H   0  0  0  0  0  0  0  0  0  0  0  0
  1  2  1  0  0  0  0
  1  5  2  0  0  0  0
  1  6  1  0  0  0  0
  2  3  1  0  0  0  0
  2 27  1  0  0  0  0
  2 28  1  0  0  0  0
  3  4  1  0  0  0  0
  3  7  1  0  0  0  0
  3 29  1  0  0  0  0
  4 30  1  0  0  0  0
  4 31  1  0  0  0  0
  4 32  1  0  0  0  0
  6 12  1  0  0  0  0
  6 33  1  0  0  0  0
  7 34  1  0  0  0  0
  7 35  1  0  0  0  0
  7 36  1  0  0  0  0
  8  9  1  0  0  0  0
  8 12  2  0  0  0  0
  9 10  1  0  0  0  0
  9 37  1  0  0  0  0
 10 11  2  0  0  0  0
 10 14  1  0  0  0  0
 11 12  1  0  0  0  0
 11 15  1  0  0  0  0
 13 14  1  0  0  0  0
 13 15  1  0  0  0  0
 13 16  1  0  0  0  0
 14 25  1  0  0  0  0
 14 26  1  0  0  0  0
 15 38  1  0  0  0  0
 15 39  1  0  0  0  0
 16 17  2  0  0  0  0
 16 21  1  0  0  0  0
 18 19  1  0  0  0  0
 18 23  1  0  0  0  0
 18 24  1  0  0  0  0
 19 20  1  0  0  0  0
 19 40  1  0  0  0  0
 19 41  1  0  0  0  0
 20 21  1  0  0  0  0
 20 42  1  0  0  0  0
 20 43  1  0  0  0  0
 21 22  1  0  0  0  0
 21 44  1  0  0  0  0
 22 23  1  0  0  0  0
 22 45  1  0  0  0  0
 22 46  1  0  0  0  0
 23 47  1  0  0  0  0
 23 48  1  0  0  0  0
 24 49  1  0  0  0  0
 24 50  1  0  0  0  0
 24 51  1  0  0  0  0
 25 52  1  0  0  0  0
 25 53  1  0  0  0  0
 25 54  1  0  0  0  0
 26 55  1  0  0  0  0
 26 56  1  0  0  0  0
 26 57  1  0  0  0  0
M  END
>  <DRUGBANK_ID>
DB12686

>  <COMMON_NAME>
PHA-793887

>  <CAS_NUMBER>
718630-59-2

>  <UNII>
MKS45S912B

$$$$
