1528
 OpenBabel10282417113D

 34 34  0  0  1  0  0  0  0  0999 V2000
    0.9305    0.0019    0.1023 O   0  0  0  0  0  0  0  0  0  0  0  0
   -1.6658   -4.8041   -0.9683 O   0  0  0  0  0  0  0  0  0  0  0  0
    0.9003   -4.3716    2.8880 N   0  0  0  0  0  0  0  0  0  0  0  0
    1.7809   -2.5077    1.4551 C   0  0  0  0  0  0  0  0  0  0  0  0
    1.3931   -2.9982    2.8571 C   0  0  3  0  0  0  0  0  0  0  0  0
    0.7047   -2.4136    0.4024 C   0  0  0  0  0  0  0  0  0  0  0  0
    0.3529   -1.2088   -0.1957 C   0  0  0  0  0  0  0  0  0  0  0  0
    0.0137   -3.5795    0.0047 C   0  0  0  0  0  0  0  0  0  0  0  0
    2.6268   -2.8799    3.7578 C   0  0  0  0  0  0  0  0  0  0  0  0
   -1.4994   -2.3379   -1.3938 C   0  0  0  0  0  0  0  0  0  0  0  0
   -1.1100   -3.5576   -0.8421 C   0  0  0  0  0  0  0  0  0  0  0  0
   -0.7561   -1.1738   -1.0591 C   0  0  0  0  0  0  0  0  0  0  0  0
   -2.6401   -2.1667   -2.3562 C   0  0  0  0  0  0  0  0  0  0  0  0
    2.3343    0.1200   -0.1577 C   0  0  0  0  0  0  0  0  0  0  0  0
   -2.8098   -5.0126   -1.7767 C   0  0  0  0  0  0  0  0  0  0  0  0
    0.6646   -4.6234    3.8453 H   0  0  0  0  0  0  0  0  0  0  0  0
    0.0094   -4.3941    2.3895 H   0  0  0  0  0  0  0  0  0  0  0  0
    2.6399   -3.0485    1.0398 H   0  0  0  0  0  0  0  0  0  0  0  0
    2.1187   -1.5031    1.6889 H   0  0  0  0  0  0  0  0  0  0  0  0
    0.6093   -2.3388    3.2514 H   0  0  0  0  0  0  0  0  0  0  0  0
    0.3426   -4.5478    0.3743 H   0  0  0  0  0  0  0  0  0  0  0  0
    2.9808   -1.8420    3.7989 H   0  0  0  0  0  0  0  0  0  0  0  0
    2.4026   -3.1924    4.7810 H   0  0  0  0  0  0  0  0  0  0  0  0
    3.4542   -3.4917    3.3792 H   0  0  0  0  0  0  0  0  0  0  0  0
   -1.0532   -0.2152   -1.4759 H   0  0  0  0  0  0  0  0  0  0  0  0
   -2.4619   -2.7642   -3.2547 H   0  0  0  0  0  0  0  0  0  0  0  0
   -3.5913   -2.4378   -1.8906 H   0  0  0  0  0  0  0  0  0  0  0  0
   -2.7460   -1.1329   -2.6947 H   0  0  0  0  0  0  0  0  0  0  0  0
    2.6021    1.1719   -0.0175 H   0  0  0  0  0  0  0  0  0  0  0  0
    2.9754   -0.4110    0.5475 H   0  0  0  0  0  0  0  0  0  0  0  0
    2.5973   -0.1901   -1.1710 H   0  0  0  0  0  0  0  0  0  0  0  0
   -3.6732   -4.4540   -1.4061 H   0  0  0  0  0  0  0  0  0  0  0  0
   -2.5876   -4.8023   -2.8249 H   0  0  0  0  0  0  0  0  0  0  0  0
   -3.0844   -6.0712   -1.7253 H   0  0  0  0  0  0  0  0  0  0  0  0
  1  7  1  0  0  0  0
  1 14  1  0  0  0  0
  2 11  1  0  0  0  0
  2 15  1  0  0  0  0
  3  5  1  0  0  0  0
  3 16  1  0  0  0  0
  3 17  1  0  0  0  0
  4  5  1  0  0  0  0
  4  6  1  0  0  0  0
  4 18  1  0  0  0  0
  4 19  1  0  0  0  0
  5  9  1  0  0  0  0
  5 20  1  0  0  0  0
  6  7  2  0  0  0  0
  6  8  1  0  0  0  0
  7 12  1  0  0  0  0
  8 11  2  0  0  0  0
  8 21  1  0  0  0  0
  9 22  1  0  0  0  0
  9 23  1  0  0  0  0
  9 24  1  0  0  0  0
 10 11  1  0  0  0  0
 10 12  2  0  0  0  0
 10 13  1  0  0  0  0
 12 25  1  0  0  0  0
 13 26  1  0  0  0  0
 13 27  1  0  0  0  0
 13 28  1  0  0  0  0
 14 29  1  0  0  0  0
 14 30  1  0  0  0  0
 14 31  1  0  0  0  0
 15 32  1  0  0  0  0
 15 33  1  0  0  0  0
 15 34  1  0  0  0  0
M  END
>  <DRUGBANK_ID>
DB01528

>  <COMMON_NAME>
4-Methyl-2,5-dimethoxyamphetamine

>  <CAS_NUMBER>
15588-95-1

>  <UNII>
UKI9MLD5OI

>  <SYNONYMS>
STP

$$$$
