[NO NAME]
 OpenBabel10282417113D
Created with ChemWriter - http://chemwriter.com
 33 34  0  0  0  0  0  0  0  0999 V2000
    1.1947   -0.1930   -0.2646 O   0  0  0  0  0  0  0  0  0  0  0  0
    4.3698    2.0071    1.9879 O   0  0  0  0  0  0  0  0  0  0  0  0
    4.4056   -2.2841    1.6723 O   0  0  0  0  0  0  0  0  0  0  0  0
    3.2369   -1.2263   -0.0032 N   0  0  0  0  0  0  0  0  0  0  0  0
    4.8111   -0.1021    1.2371 N   0  0  0  0  0  0  0  0  0  0  0  0
    2.4100   -0.1236   -0.0887 C   0  0  0  0  0  0  0  0  0  0  0  0
    4.1311    1.0908    1.1949 C   0  0  0  0  0  0  0  0  0  0  0  0
    4.1686   -1.2860    1.0035 C   0  0  0  0  0  0  0  0  0  0  0  0
    3.1042   -2.3348   -0.9196 C   0  0  0  0  0  0  0  0  0  0  0  0
    4.0666    1.2625   -1.3060 C   0  0  0  0  0  0  0  0  0  0  0  0
    5.4177    1.2828   -1.2908 C   0  0  0  0  0  0  0  0  0  0  0  0
    6.2948    1.2757   -2.4931 C   0  0  0  0  0  0  0  0  0  0  0  0
    5.5426    1.7027   -3.7398 C   0  0  0  0  0  0  0  0  0  0  0  0
    4.2020    0.9854   -3.8410 C   0  0  0  0  0  0  0  0  0  0  0  0
    3.3173    1.2828   -2.6283 C   0  0  0  0  0  0  0  0  0  0  0  0
    3.1994    1.1888   -0.0113 C   0  0  3  0  0  0  0  0  0  0  0  0
    2.3158    2.4304    0.0674 C   0  0  0  0  0  0  0  0  0  0  0  0
    5.6722   -0.1413    1.7582 H   0  0  0  0  0  0  0  0  0  0  0  0
    4.0787   -2.4408   -1.4193 H   0  0  0  0  0  0  0  0  0  0  0  0
    2.8933   -3.2711   -0.4028 H   0  0  0  0  0  0  0  0  0  0  0  0
    2.3620   -2.1212   -1.6934 H   0  0  0  0  0  0  0  0  0  0  0  0
    5.9893    1.3071   -0.3678 H   0  0  0  0  0  0  0  0  0  0  0  0
    6.7036    0.2643   -2.6101 H   0  0  0  0  0  0  0  0  0  0  0  0
    7.1395    1.9491   -2.3145 H   0  0  0  0  0  0  0  0  0  0  0  0
    6.1553    1.4954   -4.6213 H   0  0  0  0  0  0  0  0  0  0  0  0
    5.3726    2.7859   -3.7019 H   0  0  0  0  0  0  0  0  0  0  0  0
    3.6835    1.2970   -4.7538 H   0  0  0  0  0  0  0  0  0  0  0  0
    4.3660   -0.0972   -3.9165 H   0  0  0  0  0  0  0  0  0  0  0  0
    2.8724    2.2771   -2.7529 H   0  0  0  0  0  0  0  0  0  0  0  0
    2.4912    0.5626   -2.6274 H   0  0  0  0  0  0  0  0  0  0  0  0
    1.7155    2.4393    0.9820 H   0  0  0  0  0  0  0  0  0  0  0  0
    2.9276    3.3414    0.0596 H   0  0  0  0  0  0  0  0  0  0  0  0
    1.6219    2.4929   -0.7785 H   0  0  0  0  0  0  0  0  0  0  0  0
  1  6  2  0  0  0  0
  2  7  2  0  0  0  0
  3  8  2  0  0  0  0
  4  6  1  0  0  0  0
  4  8  1  0  0  0  0
  4  9  1  0  0  0  0
  5  7  1  0  0  0  0
  5  8  1  0  0  0  0
  5 18  1  0  0  0  0
  9 19  1  0  0  0  0
  9 20  1  0  0  0  0
  9 21  1  0  0  0  0
 10 11  2  0  0  0  0
 11 12  1  0  0  0  0
 11 22  1  0  0  0  0
 12 13  1  0  0  0  0
 12 23  1  0  0  0  0
 12 24  1  0  0  0  0
 13 14  1  0  0  0  0
 13 25  1  0  0  0  0
 13 26  1  0  0  0  0
 14 15  1  0  0  0  0
 14 27  1  0  0  0  0
 14 28  1  0  0  0  0
 15 10  1  0  0  0  0
 15 29  1  0  0  0  0
 15 30  1  0  0  0  0
 16 10  1  0  0  0  0
 16  7  1  0  0  0  0
 16  6  1  0  0  0  0
 16 17  1  0  0  0  0
 17 31  1  0  0  0  0
 17 32  1  0  0  0  0
 17 33  1  0  0  0  0
M  END
>  <DRUGBANK_ID>
DB01355

>  <SECONDARY_ACCESSION_NUMBERS>
EXPT03301

>  <COMMON_NAME>
Hexobarbital

>  <CAS_NUMBER>
56-29-1

>  <UNII>
AL8Z8K3P6S

>  <SYNONYMS>
5-(1-cyclohexen-1-yl)-1,5-dimethyl-2,4,6(1H,3H,5H)-pyrimidinetrione; 5-(1-cyclohexen-1-yl)-1,5-dimethylbarbituric acid; 5-Cyclohex-1-enyl-1,5-dimethyl-pyrimidine-2,4,6-trione; Hexobarbital; Hexobarbitone; Methexenyl; Methylhexabital

$$$$
