AAX
 OpenBabel10282417163D

 58 62  0  0  0  0  0  0  0  0999 V2000
    0.9091   -0.0479    0.3924 O   0  0  0  0  0  0  0  0  0  0  0  0
    2.3109   -0.1246    0.0761 S   0  0  0  0  0  0  0  0  0  0  0  0
    2.7282   -0.1396   -1.3143 O   0  0  0  0  0  0  0  0  0  0  0  0
    3.0460    1.1087    0.9729 N   0  0  0  0  0  0  0  0  0  0  0  0
    4.4893    1.3249    1.0115 C   0  0  0  0  0  0  0  0  0  0  0  0
    5.0475    1.7269   -0.3015 C   0  0  0  0  0  0  0  0  0  0  0  0
    4.8308    3.0813   -0.9345 C   0  0  0  0  0  0  0  0  0  0  0  0
    4.1615    1.9007   -1.5179 C   0  0  0  0  0  0  0  0  0  0  0  0
    2.9256   -1.6367    0.6844 C   0  0  0  0  0  0  0  0  0  0  0  0
    3.6941   -1.7664    1.8216 C   0  0  0  0  0  0  0  0  0  0  0  0
    4.0962   -3.0353    2.2056 C   0  0  0  0  0  0  0  0  0  0  0  0
    2.5899   -2.7398   -0.0893 C   0  0  0  0  0  0  0  0  0  0  0  0
    2.7954   -4.0254    0.3926 C   0  0  0  0  0  0  0  0  0  0  0  0
    3.6385   -4.1728    1.5164 C   0  0  0  0  0  0  0  0  0  0  0  0
    3.9521   -5.4542    1.9004 O   0  0  0  0  0  0  0  0  0  0  0  0
    4.8728   -5.5644    2.9870 C   0  0  0  0  0  0  0  0  0  0  0  0
    2.0890   -5.1034   -0.1911 N   0  0  0  0  0  0  0  0  0  0  0  0
    1.3218   -4.9825   -1.2991 C   0  0  0  0  0  0  0  0  0  0  0  0
   -0.0381   -5.2368   -1.2244 O   0  0  0  0  0  0  0  0  0  0  0  0
   -0.5083   -4.8799   -2.4739 C   0  0  0  0  0  0  0  0  0  0  0  0
    0.5721   -4.4800   -3.2205 C   0  0  0  0  0  0  0  0  0  0  0  0
    1.7087   -4.5265   -2.4733 N   0  0  0  0  0  0  0  0  0  0  0  0
   -1.9052   -5.0777   -2.8222 C   0  0  0  0  0  0  0  0  0  0  0  0
   -2.2088   -5.9277   -3.8949 C   0  0  0  0  0  0  0  0  0  0  0  0
   -3.5316   -6.1686   -4.3064 C   0  0  0  0  0  0  0  0  0  0  0  0
   -4.5686   -5.5145   -3.6363 C   0  0  0  0  0  0  0  0  0  0  0  0
   -4.2820   -4.6534   -2.5736 C   0  0  0  0  0  0  0  0  0  0  0  0
   -2.9546   -4.4039   -2.1950 C   0  0  0  0  0  0  0  0  0  0  0  0
   -3.7840   -7.1446   -5.3641 C   0  0  0  0  0  0  0  0  0  0  0  0
   -4.3602   -6.8067   -6.5857 C   0  0  0  0  0  0  0  0  0  0  0  0
   -4.5382   -7.6756   -7.6106 N   0  0  0  0  0  0  0  0  0  0  0  0
   -4.1209   -8.9449   -7.4090 C   0  0  0  0  0  0  0  0  0  0  0  0
   -3.5540   -9.3926   -6.2291 C   0  0  0  0  0  0  0  0  0  0  0  0
   -3.3939   -8.4794   -5.1948 C   0  0  0  0  0  0  0  0  0  0  0  0
    2.5070    1.9717    0.8865 H   0  0  0  0  0  0  0  0  0  0  0  0
    4.7154    2.0840    1.7744 H   0  0  0  0  0  0  0  0  0  0  0  0
    5.0133    0.4345    1.3641 H   0  0  0  0  0  0  0  0  0  0  0  0
    6.0348    1.2915   -0.4226 H   0  0  0  0  0  0  0  0  0  0  0  0
    4.1516    3.7845   -0.4664 H   0  0  0  0  0  0  0  0  0  0  0  0
    5.5712    3.5095   -1.5921 H   0  0  0  0  0  0  0  0  0  0  0  0
    4.4910    1.3448   -2.3864 H   0  0  0  0  0  0  0  0  0  0  0  0
    3.0807    1.9993   -1.4676 H   0  0  0  0  0  0  0  0  0  0  0  0
    3.9907   -0.9186    2.4226 H   0  0  0  0  0  0  0  0  0  0  0  0
    4.7180   -3.0950    3.0918 H   0  0  0  0  0  0  0  0  0  0  0  0
    2.0768   -2.5709   -1.0358 H   0  0  0  0  0  0  0  0  0  0  0  0
    5.8235   -5.0582    2.7729 H   0  0  0  0  0  0  0  0  0  0  0  0
    4.4274   -5.1766    3.9106 H   0  0  0  0  0  0  0  0  0  0  0  0
    5.0923   -6.6227    3.1415 H   0  0  0  0  0  0  0  0  0  0  0  0
    2.1324   -5.9650    0.3337 H   0  0  0  0  0  0  0  0  0  0  0  0
    0.5776   -4.1707   -4.2548 H   0  0  0  0  0  0  0  0  0  0  0  0
   -1.3972   -6.4233   -4.4284 H   0  0  0  0  0  0  0  0  0  0  0  0
   -5.6050   -5.6862   -3.9237 H   0  0  0  0  0  0  0  0  0  0  0  0
   -5.1000   -4.1865   -2.0293 H   0  0  0  0  0  0  0  0  0  0  0  0
   -2.7523   -3.6602   -1.4279 H   0  0  0  0  0  0  0  0  0  0  0  0
   -4.6862   -5.7902   -6.7920 H   0  0  0  0  0  0  0  0  0  0  0  0
   -4.2559   -9.6177   -8.2503 H   0  0  0  0  0  0  0  0  0  0  0  0
   -3.2355  -10.4221   -6.1154 H   0  0  0  0  0  0  0  0  0  0  0  0
   -2.9546   -8.8040   -4.2535 H   0  0  0  0  0  0  0  0  0  0  0  0
  1  2  2  0  0  0  0
  2  3  2  0  0  0  0
  2  4  1  0  0  0  0
  2  9  1  0  0  0  0
  4  5  1  0  0  0  0
  4 35  1  0  0  0  0
  5  6  1  0  0  0  0
  5 36  1  0  0  0  0
  5 37  1  0  0  0  0
  6  7  1  0  0  0  0
  6  8  1  0  0  0  0
  6 38  1  0  0  0  0
  7  8  1  0  0  0  0
  7 39  1  0  0  0  0
  7 40  1  0  0  0  0
  8 41  1  0  0  0  0
  8 42  1  0  0  0  0
  9 10  2  0  0  0  0
  9 12  1  0  0  0  0
 10 11  1  0  0  0  0
 10 43  1  0  0  0  0
 11 14  2  0  0  0  0
 11 44  1  0  0  0  0
 12 13  2  0  0  0  0
 12 45  1  0  0  0  0
 13 14  1  0  0  0  0
 13 17  1  0  0  0  0
 14 15  1  0  0  0  0
 15 16  1  0  0  0  0
 16 46  1  0  0  0  0
 16 47  1  0  0  0  0
 16 48  1  0  0  0  0
 17 18  1  0  0  0  0
 17 49  1  0  0  0  0
 18 19  1  0  0  0  0
 18 22  2  0  0  0  0
 19 20  1  0  0  0  0
 20 21  2  0  0  0  0
 20 23  1  0  0  0  0
 21 22  1  0  0  0  0
 21 50  1  0  0  0  0
 23 24  2  0  0  0  0
 23 28  1  0  0  0  0
 24 25  1  0  0  0  0
 24 51  1  0  0  0  0
 25 26  2  0  0  0  0
 25 29  1  0  0  0  0
 26 27  1  0  0  0  0
 26 52  1  0  0  0  0
 27 28  2  0  0  0  0
 27 53  1  0  0  0  0
 28 54  1  0  0  0  0
 29 30  2  0  0  0  0
 29 34  1  0  0  0  0
 30 31  1  0  0  0  0
 30 55  1  0  0  0  0
 31 32  2  0  0  0  0
 32 33  1  0  0  0  0
 32 56  1  0  0  0  0
 33 34  2  0  0  0  0
 33 57  1  0  0  0  0
 34 58  1  0  0  0  0
M  END
>  <DRUGBANK_ID>
DB07333

>  <COMMON_NAME>
N-(CYCLOPROPYLMETHYL)-4-(METHYLOXY)-3-({5-[3-(3-PYRIDINYL)PHENYL]-1,3-OXAZOL-2-YL}AMINO)BENZENESULFONAMIDE

$$$$
