
 OpenBabel10282417243D

 91 95  0  0  0  0  0  0  0  0999 V2000
    3.6706   10.1381    4.2335 C   0  0  0  0  0  0  0  0  0  0  0  0
    4.2237   11.3834    3.5807 C   0  0  0  0  0  0  0  0  0  0  0  0
    4.7261   11.1610    2.1992 N   0  0  0  0  0  0  0  0  0  0  0  0
    3.9450   11.8309    1.1263 C   0  0  0  0  0  0  0  0  0  0  0  0
    4.7278   12.9171    0.3996 C   0  0  0  0  0  0  0  0  0  0  0  0
    3.3528   10.8409    0.1324 C   0  0  0  0  0  0  0  0  0  0  0  0
    5.9217   10.4022    2.0526 C   0  0  0  0  0  0  0  0  0  0  0  0
    6.5690   10.0081    3.0205 O   0  0  0  0  0  0  0  0  0  0  0  0
    6.4945   10.0611    0.7132 C   0  0  0  0  0  0  0  0  0  0  0  0
    6.9836   11.1389   -0.0164 C   0  0  0  0  0  0  0  0  0  0  0  0
    7.3102   11.0284   -1.3600 C   0  0  0  0  0  0  0  0  0  0  0  0
    7.4253   12.1393   -2.0981 F   0  0  0  0  0  0  0  0  0  0  0  0
    7.4856    9.7918   -1.9323 C   0  0  0  0  0  0  0  0  0  0  0  0
    7.2358    8.6691   -1.1447 C   0  0  0  0  0  0  0  0  0  0  0  0
    6.6920    8.7843    0.1679 C   0  0  0  0  0  0  0  0  0  0  0  0
    6.4918    7.5566    0.7595 O   0  0  0  0  0  0  0  0  0  0  0  0
    5.9813    7.4518    2.0145 C   0  0  0  0  0  0  0  0  0  0  0  0
    4.6314    7.6703    2.2188 C   0  0  0  0  0  0  0  0  0  0  0  0
    4.0001    7.4427    3.3827 N   0  0  0  0  0  0  0  0  0  0  0  0
    4.7982    7.0828    4.3958 C   0  0  0  0  0  0  0  0  0  0  0  0
    6.1017    6.8037    4.3094 N   0  0  0  0  0  0  0  0  0  0  0  0
    6.7090    7.0045    3.1146 C   0  0  0  0  0  0  0  0  0  0  0  0
    8.0887    6.7435    3.1345 N   0  0  0  0  0  0  0  0  0  0  0  0
    9.2145    7.2998    2.4666 C   0  0  0  0  0  0  0  0  0  0  0  0
    9.6188    5.9143    1.9381 C   0  0  0  0  0  0  0  0  0  0  0  0
    8.6024    5.4235    3.0900 C   0  0  0  0  0  0  0  0  0  0  0  0
   11.0811    5.5420    2.3144 C   0  0  0  0  0  0  0  0  0  0  0  0
   12.0108    5.8410    1.1516 C   0  0  0  0  0  0  0  0  0  0  0  0
   11.5692    5.3258   -0.1491 N   0  0  0  0  0  0  0  0  0  0  0  0
   11.4136    3.8407   -0.2293 C   0  0  0  0  0  0  0  0  0  0  0  0
   10.3824    3.0742    0.6595 C   0  0  1  0  0  0  0  0  0  0  0  0
    8.8863    3.3044    0.4724 C   0  0  0  0  0  0  0  0  0  0  0  0
    7.9887    2.7878    1.5290 C   0  0  0  0  0  0  0  0  0  0  0  0
    8.1459    1.3455    1.5124 C   0  0  1  0  0  0  0  0  0  0  0  0
    9.6244    1.0525    1.7901 C   0  0  0  0  0  0  0  0  0  0  0  0
   10.5685    1.5807    0.7092 C   0  0  0  0  0  0  0  0  0  0  0  0
    7.2712    0.8799    2.5718 N   0  0  0  0  0  0  0  0  0  0  0  0
    7.2000   -0.7781    2.6987 S   0  0  0  0  0  0  0  0  0  0  0  0
    8.5155   -1.2487    3.0011 O   0  0  0  0  0  0  0  0  0  0  0  0
    6.0927   -1.0600    3.6062 O   0  0  0  0  0  0  0  0  0  0  0  0
    6.7615   -1.2089    1.0026 C   0  0  0  0  0  0  0  0  0  0  0  0
    5.3916   -0.6856    0.6230 C   0  0  0  0  0  0  0  0  0  0  0  0
   10.4409    6.1304   -0.6104 C   0  0  0  0  0  0  0  0  0  0  0  0
    9.3088    6.0470    0.3730 C   0  0  0  0  0  0  0  0  0  0  0  0
    2.9068    9.6619    3.6086 H   0  0  0  0  0  0  0  0  0  0  0  0
    3.2408   10.3027    5.2254 H   0  0  0  0  0  0  0  0  0  0  0  0
    4.5178    9.4824    4.3985 H   0  0  0  0  0  0  0  0  0  0  0  0
    3.4297   12.1357    3.5884 H   0  0  0  0  0  0  0  0  0  0  0  0
    5.0482   11.7547    4.1957 H   0  0  0  0  0  0  0  0  0  0  0  0
    3.1067   12.3545    1.6038 H   0  0  0  0  0  0  0  0  0  0  0  0
    5.2418   12.4685   -0.4419 H   0  0  0  0  0  0  0  0  0  0  0  0
    4.1106   13.6599   -0.1058 H   0  0  0  0  0  0  0  0  0  0  0  0
    5.4322   13.4274    1.0672 H   0  0  0  0  0  0  0  0  0  0  0  0
    2.6238   10.1898    0.6215 H   0  0  0  0  0  0  0  0  0  0  0  0
    2.8604   11.3743   -0.6864 H   0  0  0  0  0  0  0  0  0  0  0  0
    4.1130   10.2003   -0.3168 H   0  0  0  0  0  0  0  0  0  0  0  0
    7.0374   12.1139    0.4480 H   0  0  0  0  0  0  0  0  0  0  0  0
    7.8603    9.7233   -2.9492 H   0  0  0  0  0  0  0  0  0  0  0  0
    7.4818    7.6929   -1.5616 H   0  0  0  0  0  0  0  0  0  0  0  0
    4.0205    8.1558    1.4621 H   0  0  0  0  0  0  0  0  0  0  0  0
    4.3694    7.1253    5.3926 H   0  0  0  0  0  0  0  0  0  0  0  0
    9.9003    7.7019    3.2173 H   0  0  0  0  0  0  0  0  0  0  0  0
    9.0197    8.0505    1.7084 H   0  0  0  0  0  0  0  0  0  0  0  0
    7.7549    4.7543    2.9430 H   0  0  0  0  0  0  0  0  0  0  0  0
    9.0595    5.1308    4.0498 H   0  0  0  0  0  0  0  0  0  0  0  0
   11.2387    4.5202    2.6711 H   0  0  0  0  0  0  0  0  0  0  0  0
   11.4043    6.0705    3.2185 H   0  0  0  0  0  0  0  0  0  0  0  0
   13.0230    5.4849    1.3608 H   0  0  0  0  0  0  0  0  0  0  0  0
   12.0786    6.9340    1.0854 H   0  0  0  0  0  0  0  0  0  0  0  0
   11.2559    3.5482   -1.2768 H   0  0  0  0  0  0  0  0  0  0  0  0
   12.4114    3.4340    0.0050 H   0  0  0  0  0  0  0  0  0  0  0  0
   10.6020    3.3209    1.6783 H   0  0  0  0  0  0  0  0  0  0  0  0
    8.5962    4.2290    0.8770 H   0  0  0  0  0  0  0  0  0  0  0  0
    8.5451    3.1869   -0.5619 H   0  0  0  0  0  0  0  0  0  0  0  0
    8.3610    3.1129    2.5045 H   0  0  0  0  0  0  0  0  0  0  0  0
    6.9731    3.2046    1.4083 H   0  0  0  0  0  0  0  0  0  0  0  0
    7.8137    1.0568    0.5150 H   0  0  0  0  0  0  0  0  0  0  0  0
    9.8886    1.4998    2.7657 H   0  0  0  0  0  0  0  0  0  0  0  0
    9.8223   -0.0030    1.8392 H   0  0  0  0  0  0  0  0  0  0  0  0
   10.3380    1.1307   -0.2584 H   0  0  0  0  0  0  0  0  0  0  0  0
   11.5935    1.3280    0.9981 H   0  0  0  0  0  0  0  0  0  0  0  0
    7.3962    1.3471    3.4757 H   0  0  0  0  0  0  0  0  0  0  0  0
    7.5243   -0.8351    0.3077 H   0  0  0  0  0  0  0  0  0  0  0  0
    6.8182   -2.2929    0.9451 H   0  0  0  0  0  0  0  0  0  0  0  0
    5.3493    0.4107    0.6160 H   0  0  0  0  0  0  0  0  0  0  0  0
    5.1129   -1.0351   -0.3740 H   0  0  0  0  0  0  0  0  0  0  0  0
    4.6471   -1.0404    1.3393 H   0  0  0  0  0  0  0  0  0  0  0  0
   10.6614    7.1747   -0.8350 H   0  0  0  0  0  0  0  0  0  0  0  0
   10.1123    5.7109   -1.5837 H   0  0  0  0  0  0  0  0  0  0  0  0
    8.9966    5.1988   -0.1907 H   0  0  0  0  0  0  0  0  0  0  0  0
    8.3442    6.5028    0.2011 H   0  0  0  0  0  0  0  0  0  0  0  0
  1  2  1  0  0  0  0
  1 45  1  0  0  0  0
  1 46  1  0  0  0  0
  1 47  1  0  0  0  0
  2  3  1  0  0  0  0
  2 48  1  0  0  0  0
  2 49  1  0  0  0  0
  3  4  1  0  0  0  0
  3  7  1  0  0  0  0
  4  5  1  0  0  0  0
  4  6  1  0  0  0  0
  4 50  1  0  0  0  0
  5 51  1  0  0  0  0
  5 52  1  0  0  0  0
  5 53  1  0  0  0  0
  6 54  1  0  0  0  0
  6 55  1  0  0  0  0
  6 56  1  0  0  0  0
  7  8  2  0  0  0  0
  7  9  1  0  0  0  0
  9 10  2  0  0  0  0
  9 15  1  0  0  0  0
 10 11  1  0  0  0  0
 10 57  1  0  0  0  0
 11 12  1  0  0  0  0
 11 13  2  0  0  0  0
 13 14  1  0  0  0  0
 13 58  1  0  0  0  0
 14 15  2  0  0  0  0
 14 59  1  0  0  0  0
 15 16  1  0  0  0  0
 16 17  1  0  0  0  0
 17 18  2  0  0  0  0
 17 22  1  0  0  0  0
 18 19  1  0  0  0  0
 18 60  1  0  0  0  0
 19 20  2  0  0  0  0
 20 21  1  0  0  0  0
 20 61  1  0  0  0  0
 21 22  2  0  0  0  0
 22 23  1  0  0  0  0
 23 24  1  0  0  0  0
 23 26  1  0  0  0  0
 24 25  1  0  0  0  0
 24 62  1  0  0  0  0
 24 63  1  0  0  0  0
 25 26  1  0  0  0  0
 25 27  1  0  0  0  0
 25 44  1  0  0  0  0
 26 64  1  0  0  0  0
 26 65  1  0  0  0  0
 27 28  1  0  0  0  0
 27 66  1  0  0  0  0
 27 67  1  0  0  0  0
 28 29  1  0  0  0  0
 28 68  1  0  0  0  0
 28 69  1  0  0  0  0
 29 30  1  0  0  0  0
 29 43  1  0  0  0  0
 30 70  1  0  0  0  0
 30 71  1  0  0  0  0
 31 32  1  0  0  0  0
 31 36  1  0  0  0  0
 31 72  1  1  0  0  0
 31 30  1  0  0  0  0
 32 33  1  0  0  0  0
 32 73  1  0  0  0  0
 32 74  1  0  0  0  0
 33 75  1  0  0  0  0
 33 76  1  0  0  0  0
 34 33  1  0  0  0  0
 34 35  1  0  0  0  0
 34 37  1  0  0  0  0
 34 77  1  6  0  0  0
 35 36  1  0  0  0  0
 35 78  1  0  0  0  0
 35 79  1  0  0  0  0
 36 80  1  0  0  0  0
 36 81  1  0  0  0  0
 37 38  1  0  0  0  0
 37 82  1  0  0  0  0
 38 39  2  0  0  0  0
 38 40  2  0  0  0  0
 38 41  1  0  0  0  0
 41 42  1  0  0  0  0
 41 83  1  0  0  0  0
 41 84  1  0  0  0  0
 42 85  1  0  0  0  0
 42 86  1  0  0  0  0
 42 87  1  0  0  0  0
 43 44  1  0  0  0  0
 43 88  1  0  0  0  0
 43 89  1  0  0  0  0
 44 90  1  0  0  0  0
 44 91  1  0  0  0  0
M  END
>  <DRUGBANK_ID>
DB18515

>  <COMMON_NAME>
Revumenib

>  <CAS_NUMBER>
2169919-21-3

>  <UNII>
LZ0M43NNF2

>  <SYNONYMS>
Benzamide, n-ethyl-2-((4-(7-((trans-4-((ethylsulfonyl)amino)cyclohexyl)methyl)-2,7-diazaspiro(3.5)non-2-yl)-5-pyrimidinyl)oxy)-5-fluoro-n-(1-methylethyl)-

$$$$
