
 OpenBabel10282417193D

 26 25  0  0  0  0  0  0  0  0999 V2000
    0.7893    0.1077   -2.5466 C   0  0  0  0  0  0  0  0  0  0  0  0
    0.2832   -1.9707    1.4959 C   0  0  0  0  0  0  0  0  0  0  0  0
    1.8692    0.4307   -3.0432 O   0  0  0  0  0  0  0  0  0  0  0  0
    0.5861   -0.5193   -1.1853 C   0  0  2  0  0  0  0  0  0  0  0  0
    0.9508   -2.4889    2.3991 O   0  0  0  0  0  0  0  0  0  0  0  0
    1.0118    0.1586    0.0839 C   0  0  0  0  0  0  0  0  0  0  0  0
    0.2968   -0.4305    1.3286 C   0  0  0  0  0  0  0  0  0  0  0  0
   -0.4572   -2.8028    0.6585 N   0  0  0  0  0  0  0  0  0  0  0  0
   -0.3644    0.1989   -3.2562 O   0  0  0  0  0  0  0  0  0  0  0  0
    1.3348   -1.7628   -1.0987 N   0  0  0  0  0  0  0  0  0  0  0  0
   -1.0929   -2.8757   -1.9120 C   0  0  0  0  0  0  0  0  0  0  0  0
   -1.4303   -2.4695   -0.4109 C   0  0  0  0  0  0  0  0  0  0  0  0
   -0.5040   -0.4749   -1.1416 H   0  0  0  0  0  0  0  0  0  0  0  0
    2.0928    0.0097    0.1954 H   0  0  0  0  0  0  0  0  0  0  0  0
    0.8565    1.2371    0.0114 H   0  0  0  0  0  0  0  0  0  0  0  0
    0.8298   -0.0115    2.1968 H   0  0  0  0  0  0  0  0  0  0  0  0
   -0.7323   -0.0665    1.4195 H   0  0  0  0  0  0  0  0  0  0  0  0
   -0.3117   -3.7819    0.8875 H   0  0  0  0  0  0  0  0  0  0  0  0
   -0.1277    0.5624   -4.1340 H   0  0  0  0  0  0  0  0  0  0  0  0
    0.8991   -2.6697   -0.9935 H   0  0  0  0  0  0  0  0  0  0  0  0
    2.3060   -1.7673   -1.3444 H   0  0  0  0  0  0  0  0  0  0  0  0
   -1.0305   -3.9612   -2.0074 H   0  0  0  0  0  0  0  0  0  0  0  0
   -1.8169   -2.4349   -2.6037 H   0  0  0  0  0  0  0  0  0  0  0  0
   -0.1703   -2.5654   -2.4242 H   0  0  0  0  0  0  0  0  0  0  0  0
   -2.3848   -2.9356   -0.1685 H   0  0  0  0  0  0  0  0  0  0  0  0
   -1.6635   -1.4164   -0.2703 H   0  0  0  0  0  0  0  0  0  0  0  0
  2  7  1  0  0  0  0
  3  1  2  0  0  0  0
  4 10  1  0  0  0  0
  4 13  1  1  0  0  0
  4  6  1  0  0  0  0
  4  1  1  0  0  0  0
  5  2  2  0  0  0  0
  6 14  1  0  0  0  0
  6 15  1  0  0  0  0
  7  6  1  0  0  0  0
  7 16  1  0  0  0  0
  7 17  1  0  0  0  0
  8  2  1  0  0  0  0
  8 18  1  0  0  0  0
  9  1  1  0  0  0  0
  9 19  1  0  0  0  0
 10 20  1  0  0  0  0
 10 21  1  0  0  0  0
 11 22  1  0  0  0  0
 11 23  1  0  0  0  0
 11 24  1  0  0  0  0
 12 11  1  0  0  0  0
 12  8  1  0  0  0  0
 12 25  1  0  0  0  0
 12 26  1  0  0  0  0
M  END
>  <DRUGBANK_ID>
DB12444

>  <COMMON_NAME>
Theanine

>  <CAS_NUMBER>
3081-61-6

>  <UNII>
8021PR16QO

>  <SYNONYMS>
L-theanine; N-ethyl-L-glutamine; N(5)-ethyl-L-glutamine; N5-ethyl-L-glutamine; Suntheanine; Theanin

$$$$
