
 OpenBabel10282417143D

 23 23  0  0  1  0  0  0  0  0999 V2000
    0.9574   -0.1704   -0.0540 C   0  0  0  0  0  0  0  0  0  0  0  0
    0.4397   -1.1567    0.9667 N   0  3  0  0  0  0  0  0  0  0  0  0
    1.1457   -2.5038    0.9594 C   0  0  0  0  0  0  0  0  0  0  0  0
    0.4849   -3.2792   -0.1571 C   0  0  0  0  0  0  0  0  0  0  0  0
   -0.9855   -2.9234   -0.0699 C   0  0  0  0  0  0  0  0  0  0  0  0
   -1.0889   -1.5446    0.6066 C   0  0  1  0  0  0  0  0  0  0  0  0
   -2.1377   -1.6538    1.7581 C   0  0  0  0  0  0  0  0  0  0  0  0
   -1.7752   -2.3610    2.7359 O   0  0  0  0  0  0  0  0  0  0  0  0
   -3.1794   -0.9614    1.5813 O   0  5  0  0  0  0  0  0  0  0  0  0
    0.5548   -0.4904    2.3340 C   0  0  0  0  0  0  0  0  0  0  0  0
    0.5458    0.8176    0.1842 H   0  0  0  0  0  0  0  0  0  0  0  0
    0.6360   -0.4702   -1.0533 H   0  0  0  0  0  0  0  0  0  0  0  0
    2.0484   -0.1373    0.0140 H   0  0  0  0  0  0  0  0  0  0  0  0
    0.9856   -2.9919    1.9279 H   0  0  0  0  0  0  0  0  0  0  0  0
    2.2182   -2.3574    0.7944 H   0  0  0  0  0  0  0  0  0  0  0  0
    0.8937   -2.9760   -1.1275 H   0  0  0  0  0  0  0  0  0  0  0  0
    0.6442   -4.3594   -0.0640 H   0  0  0  0  0  0  0  0  0  0  0  0
   -1.4208   -2.9007   -1.0761 H   0  0  0  0  0  0  0  0  0  0  0  0
   -1.5295   -3.7027    0.4779 H   0  0  0  0  0  0  0  0  0  0  0  0
   -1.4280   -0.7926   -0.1162 H   0  0  0  0  0  0  0  0  0  0  0  0
    1.6103   -0.2258    2.4760 H   0  0  0  0  0  0  0  0  0  0  0  0
   -0.0478    0.4232    2.3290 H   0  0  0  0  0  0  0  0  0  0  0  0
    0.2507   -1.1668    3.1316 H   0  0  0  0  0  0  0  0  0  0  0  0
  1  2  1  0  0  0  0
  1 11  1  0  0  0  0
  1 12  1  0  0  0  0
  1 13  1  0  0  0  0
  2  3  1  0  0  0  0
  2  6  1  0  0  0  0
  2 10  1  0  0  0  0
  3  4  1  0  0  0  0
  3 14  1  0  0  0  0
  3 15  1  0  0  0  0
  4  5  1  0  0  0  0
  4 16  1  0  0  0  0
  4 17  1  0  0  0  0
  5  6  1  0  0  0  0
  5 18  1  0  0  0  0
  5 19  1  0  0  0  0
  6 20  1  6  0  0  0
  6  7  1  0  0  0  0
  7  8  2  0  0  0  0
  7  9  1  0  0  0  0
 10 21  1  0  0  0  0
 10 22  1  0  0  0  0
 10 23  1  0  0  0  0
M  CHG  2   2   1   9  -1
M  END
>  <DRUGBANK_ID>
DB04284

>  <SECONDARY_ACCESSION_NUMBERS>
EXPT02506

>  <COMMON_NAME>
L-proline betaine

>  <CAS_NUMBER>
471-87-4

>  <UNII>
S1L688345C

>  <SYNONYMS>
(S)-2-carboxylato-1,1-dimethylpyrrolidinium; L-stachydrine; Methyl hygrate betaine; Methyl hygrate Î²ine; N,N-dimethyl-L-proline; Proline betaine; Stachydrine

$$$$
