
 OpenBabel10282417183D

 66 67  0  0  0  0  0  0  0  0999 V2000
    1.0521   -1.3471    0.0021 C   0  0  0  0  0  0  0  0  0  0  0  0
    2.0905   -0.5184   -0.3237 C   0  0  0  0  0  0  0  0  0  0  0  0
    1.9144    0.8229   -0.5359 C   0  0  0  0  0  0  0  0  0  0  0  0
    0.8920    1.5317   -0.0496 C   0  0  0  0  0  0  0  0  0  0  0  0
   -0.2564    0.7793    0.0853 C   0  0  0  0  0  0  0  0  0  0  0  0
   -1.4407    1.4982    0.0778 C   0  0  0  0  0  0  0  0  0  0  0  0
   -2.6543    0.8381    0.0271 C   0  0  0  0  0  0  0  0  0  0  0  0
   -2.6845   -0.5394    0.0227 C   0  0  0  0  0  0  0  0  0  0  0  0
   -1.5094   -1.2762    0.0656 C   0  0  0  0  0  0  0  0  0  0  0  0
   -0.2227   -0.6753    0.0706 C   0  0  0  0  0  0  0  0  0  0  0  0
    1.3876   -2.8189   -0.1712 C   0  0  0  0  0  0  0  0  0  0  0  0
    0.4048   -3.5806   -0.5881 N   0  0  0  0  0  0  0  0  0  0  0  0
    2.5653   -3.5429    0.0319 N   0  0  0  0  0  0  0  0  0  0  0  0
    1.0142    2.8769    0.1604 O   0  0  0  0  0  0  0  0  0  0  0  0
    2.3481    3.4736    0.1861 C   0  0  0  0  0  0  0  0  0  0  0  0
    3.2534    3.1072    1.3887 C   0  0  0  0  0  0  0  0  0  0  0  0
    3.8066    1.6777    1.3885 C   0  0  0  0  0  0  0  0  0  0  0  0
    4.6939    1.3493    0.1454 C   0  0  0  0  0  0  0  0  0  0  0  0
    5.9947    2.0904    0.1070 C   0  0  0  0  0  0  0  0  0  0  0  0
    6.7884    1.6290    1.2904 C   0  0  0  0  0  0  0  0  0  0  0  0
    3.9313   -3.0413    0.0020 C   0  0  0  0  0  0  0  0  0  0  0  0
    4.7242   -3.3209    1.2667 C   0  0  0  0  0  0  0  0  0  0  0  0
    5.2266   -4.7447    1.3668 C   0  0  0  0  0  0  0  0  0  0  0  0
    5.9351   -5.1673    0.0848 C   0  0  0  0  0  0  0  0  0  0  0  0
    2.4650   -5.0439   -0.0022 C   0  0  0  0  0  0  0  0  0  0  0  0
    1.8634   -5.6168    1.3054 C   0  0  0  0  0  0  0  0  0  0  0  0
    0.3721   -5.3549    1.4762 C   0  0  0  0  0  0  0  0  0  0  0  0
   -0.4228   -5.9131    0.2915 C   0  0  0  0  0  0  0  0  0  0  0  0
    3.0773   -0.8114   -0.5347 H   0  0  0  0  0  0  0  0  0  0  0  0
    2.6953    1.3537   -1.0108 H   0  0  0  0  0  0  0  0  0  0  0  0
   -1.4204    2.5835    0.0155 H   0  0  0  0  0  0  0  0  0  0  0  0
   -3.5725    1.4038   -0.0298 H   0  0  0  0  0  0  0  0  0  0  0  0
   -3.6226   -1.0821   -0.0304 H   0  0  0  0  0  0  0  0  0  0  0  0
   -1.7193   -2.3298    0.0452 H   0  0  0  0  0  0  0  0  0  0  0  0
   -0.4534   -3.2239   -0.2702 H   0  0  0  0  0  0  0  0  0  0  0  0
    2.8714    3.3453   -0.7709 H   0  0  0  0  0  0  0  0  0  0  0  0
    2.1798    4.5554    0.2421 H   0  0  0  0  0  0  0  0  0  0  0  0
    4.1115    3.7909    1.4239 H   0  0  0  0  0  0  0  0  0  0  0  0
    2.6950    3.2679    2.3175 H   0  0  0  0  0  0  0  0  0  0  0  0
    4.3543    1.4720    2.3122 H   0  0  0  0  0  0  0  0  0  0  0  0
    2.9663    0.9967    1.5369 H   0  0  0  0  0  0  0  0  0  0  0  0
    4.8670    0.2679    0.0818 H   0  0  0  0  0  0  0  0  0  0  0  0
    4.3135    1.6467   -0.8284 H   0  0  0  0  0  0  0  0  0  0  0  0
    6.5010    1.8525   -0.8380 H   0  0  0  0  0  0  0  0  0  0  0  0
    5.8016    3.1679    0.0976 H   0  0  0  0  0  0  0  0  0  0  0  0
    6.8949    0.5388    1.2484 H   0  0  0  0  0  0  0  0  0  0  0  0
    7.7586    2.1101    1.3017 H   0  0  0  0  0  0  0  0  0  0  0  0
    6.2759    1.8771    2.2217 H   0  0  0  0  0  0  0  0  0  0  0  0
    4.4068   -3.3174   -0.9438 H   0  0  0  0  0  0  0  0  0  0  0  0
    4.0311   -1.9840   -0.0123 H   0  0  0  0  0  0  0  0  0  0  0  0
    5.5973   -2.6529    1.2604 H   0  0  0  0  0  0  0  0  0  0  0  0
    4.1320   -3.0344    2.1459 H   0  0  0  0  0  0  0  0  0  0  0  0
    5.8873   -4.8438    2.2302 H   0  0  0  0  0  0  0  0  0  0  0  0
    4.4027   -5.4196    1.5875 H   0  0  0  0  0  0  0  0  0  0  0  0
    6.8491   -4.5845   -0.0434 H   0  0  0  0  0  0  0  0  0  0  0  0
    6.1548   -6.2334    0.1076 H   0  0  0  0  0  0  0  0  0  0  0  0
    5.3425   -5.0155   -0.8236 H   0  0  0  0  0  0  0  0  0  0  0  0
    1.9468   -5.3906   -0.9025 H   0  0  0  0  0  0  0  0  0  0  0  0
    3.4308   -5.5162   -0.1605 H   0  0  0  0  0  0  0  0  0  0  0  0
    2.0224   -6.7026    1.3318 H   0  0  0  0  0  0  0  0  0  0  0  0
    2.3800   -5.2059    2.1819 H   0  0  0  0  0  0  0  0  0  0  0  0
   -0.0038   -5.8019    2.4006 H   0  0  0  0  0  0  0  0  0  0  0  0
    0.2281   -4.2789    1.6391 H   0  0  0  0  0  0  0  0  0  0  0  0
   -0.4350   -7.0005    0.3185 H   0  0  0  0  0  0  0  0  0  0  0  0
   -1.4358   -5.5054    0.2838 H   0  0  0  0  0  0  0  0  0  0  0  0
   -0.0033   -5.6916   -0.6945 H   0  0  0  0  0  0  0  0  0  0  0  0
  1  2  1  0  0  0  0
  1 10  2  0  0  0  0
  1 11  1  0  0  0  0
  2  3  2  0  0  0  0
  2 29  1  0  0  0  0
  3  4  1  0  0  0  0
  3 30  1  0  0  0  0
  4  5  2  0  0  0  0
  4 14  1  0  0  0  0
  5  6  1  0  0  0  0
  5 10  1  0  0  0  0
  6  7  2  0  0  0  0
  6 31  1  0  0  0  0
  7  8  1  0  0  0  0
  7 32  1  0  0  0  0
  8  9  2  0  0  0  0
  8 33  1  0  0  0  0
  9 10  1  0  0  0  0
  9 34  1  0  0  0  0
 11 12  2  0  0  0  0
 11 13  1  0  0  0  0
 12 35  1  0  0  0  0
 13 21  1  0  0  0  0
 13 25  1  0  0  0  0
 14 15  1  0  0  0  0
 15 16  1  0  0  0  0
 15 36  1  0  0  0  0
 15 37  1  0  0  0  0
 16 17  1  0  0  0  0
 16 38  1  0  0  0  0
 16 39  1  0  0  0  0
 17 18  1  0  0  0  0
 17 40  1  0  0  0  0
 17 41  1  0  0  0  0
 18 19  1  0  0  0  0
 18 42  1  0  0  0  0
 18 43  1  0  0  0  0
 19 20  1  0  0  0  0
 19 44  1  0  0  0  0
 19 45  1  0  0  0  0
 20 46  1  0  0  0  0
 20 47  1  0  0  0  0
 20 48  1  0  0  0  0
 21 22  1  0  0  0  0
 21 49  1  0  0  0  0
 21 50  1  0  0  0  0
 22 23  1  0  0  0  0
 22 51  1  0  0  0  0
 22 52  1  0  0  0  0
 23 24  1  0  0  0  0
 23 53  1  0  0  0  0
 23 54  1  0  0  0  0
 24 55  1  0  0  0  0
 24 56  1  0  0  0  0
 24 57  1  0  0  0  0
 25 26  1  0  0  0  0
 25 58  1  0  0  0  0
 25 59  1  0  0  0  0
 26 27  1  0  0  0  0
 26 60  1  0  0  0  0
 26 61  1  0  0  0  0
 27 28  1  0  0  0  0
 27 62  1  0  0  0  0
 27 63  1  0  0  0  0
 28 64  1  0  0  0  0
 28 65  1  0  0  0  0
 28 66  1  0  0  0  0
M  END
>  <DRUGBANK_ID>
DB11501

>  <COMMON_NAME>
Bunamidine

>  <CAS_NUMBER>
3748-77-4

>  <UNII>
A9IW1G3P6C

>  <SYNONYMS>
Bunamidina; Bunamidine; Bunamidinum; N,N-Dibutyl-4-(hexyloxy)-1-naphthamidine; N,N-Dibutyl-4-hexyloxy-1-naphthamidin

$$$$
