
 OpenBabel10282417193D

 19 20  0  0  0  0  0  0  0  0999 V2000
   -0.1341   -1.3095   -0.0400 N   0  0  0  0  0  0  0  0  0  0  0  0
   -0.4112   -2.6925   -0.0147 C   0  0  0  0  0  0  0  0  0  0  0  0
    1.0946   -0.6652    0.0844 C   0  0  0  0  0  0  0  0  0  0  0  0
   -1.0969   -0.3748   -0.2027 N   0  0  0  0  0  0  0  0  0  0  0  0
    0.1087   -3.4880    1.0147 C   0  0  0  0  0  0  0  0  0  0  0  0
   -1.1984   -3.2637   -1.0208 C   0  0  0  0  0  0  0  0  0  0  0  0
    0.8738    0.6340    0.0642 N   0  0  0  0  0  0  0  0  0  0  0  0
    2.2843   -1.2979    0.1344 N   0  0  0  0  0  0  0  0  0  0  0  0
   -0.4821    0.7949   -0.0763 N   0  0  0  0  0  0  0  0  0  0  0  0
   -0.1772   -4.8547    1.0446 C   0  0  0  0  0  0  0  0  0  0  0  0
   -1.4726   -4.6342   -0.9844 C   0  0  0  0  0  0  0  0  0  0  0  0
   -0.9610   -5.4280    0.0435 C   0  0  0  0  0  0  0  0  0  0  0  0
    0.6911   -3.0535    1.8249 H   0  0  0  0  0  0  0  0  0  0  0  0
   -1.5515   -2.6725   -1.8636 H   0  0  0  0  0  0  0  0  0  0  0  0
    3.1336   -0.7554    0.0070 H   0  0  0  0  0  0  0  0  0  0  0  0
    2.3765   -2.2941   -0.0471 H   0  0  0  0  0  0  0  0  0  0  0  0
    0.1982   -5.4736    1.8563 H   0  0  0  0  0  0  0  0  0  0  0  0
   -2.0862   -5.0888   -1.7590 H   0  0  0  0  0  0  0  0  0  0  0  0
   -1.1744   -6.4950    0.0648 H   0  0  0  0  0  0  0  0  0  0  0  0
  1  2  1  0  0  0  0
  1  3  1  0  0  0  0
  1  4  1  0  0  0  0
  2  5  2  0  0  0  0
  2  6  1  0  0  0  0
  3  7  2  0  0  0  0
  3  8  1  0  0  0  0
  4  9  2  0  0  0  0
  5 10  1  0  0  0  0
  5 13  1  0  0  0  0
  6 11  2  0  0  0  0
  6 14  1  0  0  0  0
  7  9  1  0  0  0  0
  8 15  1  0  0  0  0
  8 16  1  0  0  0  0
 10 12  2  0  0  0  0
 10 17  1  0  0  0  0
 11 12  1  0  0  0  0
 11 18  1  0  0  0  0
 12 19  1  0  0  0  0
M  END
>  <DRUGBANK_ID>
DB12506

>  <COMMON_NAME>
Fenamole

>  <CAS_NUMBER>
5467-78-7

>  <UNII>
K4H264PBQ7

>  <SYNONYMS>
Fenamole; Fenamolum; PAT

$$$$
