
 OpenBabel10282417143D

 23 23  0  0  1  0  0  0  0  0999 V2000
    3.0321   -1.3963   -1.0234 O   0  0  0  0  0  0  0  0  0  0  0  0
    2.5401   -0.8993   -2.2640 C   0  0  0  0  0  0  0  0  0  0  0  0
    1.0075   -0.9643   -2.2964 C   0  0  1  0  0  0  0  0  0  0  0  0
    0.4288    0.3112   -2.9342 C   0  0  0  0  0  0  0  0  0  0  0  0
   -1.0327    0.2880   -3.0020 N   0  0  0  0  0  0  0  0  0  0  0  0
   -1.5146   -0.8842   -3.7340 C   0  0  0  0  0  0  0  0  0  0  0  0
   -1.0366   -2.1850   -3.0852 C   0  0  1  0  0  0  0  0  0  0  0  0
   -1.5664   -3.2861   -3.8239 O   0  0  0  0  0  0  0  0  0  0  0  0
    0.5016   -2.2068   -3.0586 C   0  0  2  0  0  0  0  0  0  0  0  0
    0.9413   -3.4115   -2.4259 O   0  0  0  0  0  0  0  0  0  0  0  0
    2.6630   -0.8371   -0.3156 H   0  0  0  0  0  0  0  0  0  0  0  0
    2.9165    0.1217   -2.3808 H   0  0  0  0  0  0  0  0  0  0  0  0
    2.9882   -1.5075   -3.0559 H   0  0  0  0  0  0  0  0  0  0  0  0
    0.6425   -1.0362   -1.2614 H   0  0  0  0  0  0  0  0  0  0  0  0
    0.7200    1.1774   -2.3283 H   0  0  0  0  0  0  0  0  0  0  0  0
    0.8462    0.4658   -3.9365 H   0  0  0  0  0  0  0  0  0  0  0  0
   -1.3744    1.1324   -3.4619 H   0  0  0  0  0  0  0  0  0  0  0  0
   -2.6102   -0.8784   -3.7612 H   0  0  0  0  0  0  0  0  0  0  0  0
   -1.1917   -0.8418   -4.7833 H   0  0  0  0  0  0  0  0  0  0  0  0
   -1.4223   -2.2588   -2.0600 H   0  0  0  0  0  0  0  0  0  0  0  0
   -1.8602   -3.9326   -3.1546 H   0  0  0  0  0  0  0  0  0  0  0  0
    0.8877   -2.2209   -4.0870 H   0  0  0  0  0  0  0  0  0  0  0  0
    1.9105   -3.4679   -2.5366 H   0  0  0  0  0  0  0  0  0  0  0  0
  1  2  1  0  0  0  0
  1 11  1  0  0  0  0
  2 12  1  0  0  0  0
  2 13  1  0  0  0  0
  3  4  1  0  0  0  0
  3  9  1  0  0  0  0
  3 14  1  1  0  0  0
  3  2  1  0  0  0  0
  4  5  1  0  0  0  0
  4 15  1  0  0  0  0
  4 16  1  0  0  0  0
  5  6  1  0  0  0  0
  5 17  1  0  0  0  0
  6  7  1  0  0  0  0
  6 18  1  0  0  0  0
  6 19  1  0  0  0  0
  7  9  1  0  0  0  0
  7 20  1  1  0  0  0
  7  8  1  0  0  0  0
  8 21  1  0  0  0  0
  9 22  1  6  0  0  0
  9 10  1  0  0  0  0
 10 23  1  0  0  0  0
M  END
>  <DRUGBANK_ID>
DB04545

>  <SECONDARY_ACCESSION_NUMBERS>
EXPT01847

>  <COMMON_NAME>
Afegostat

>  <CAS_NUMBER>
169105-89-9

>  <UNII>
G23AP190YS

>  <SYNONYMS>
(3R,4R,5R)-5-(hydroxymethyl)piperidine-3,4-diol; Afegostat; Isofagomine

$$$$
