
 OpenBabel10282417233D

 57 60  0  0  0  0  0  0  0  0999 V2000
    0.9676   -0.1214    0.0407 C   0  0  0  0  0  0  0  0  0  0  0  0
    0.4117    0.4792    1.3453 C   0  0  0  0  0  0  0  0  0  0  0  0
    0.8620   -0.3881    2.4461 N   0  0  0  0  0  0  0  0  0  0  0  0
   -1.1327    0.5140    1.3078 C   0  0  0  0  0  0  0  0  0  0  0  0
   -1.6410    1.5092    0.2592 C   0  0  0  0  0  0  0  0  0  0  0  0
   -1.0140    2.8096    0.4908 N   0  0  0  0  0  0  0  0  0  0  0  0
    0.4431    2.8638    0.5022 C   0  0  0  0  0  0  0  0  0  0  0  0
    0.9516    1.9056    1.5783 C   0  0  0  0  0  0  0  0  0  0  0  0
   -1.8001    3.9447    0.5485 C   0  0  0  0  0  0  0  0  0  0  0  0
   -2.7185    4.0937    1.6095 C   0  0  0  0  0  0  0  0  0  0  0  0
   -3.4447    5.2717    1.7892 C   0  0  0  0  0  0  0  0  0  0  0  0
   -3.3012    6.2523    0.8459 C   0  0  0  0  0  0  0  0  0  0  0  0
   -2.5181    6.1028   -0.2320 N   0  0  0  0  0  0  0  0  0  0  0  0
   -1.7260    5.0235   -0.3462 C   0  0  0  0  0  0  0  0  0  0  0  0
   -0.7361    5.0735   -1.3453 N   0  0  0  0  0  0  0  0  0  0  0  0
   -0.4127    6.1222   -2.2007 C   0  0  0  0  0  0  0  0  0  0  0  0
    0.4176    5.9099   -3.0958 O   0  0  0  0  0  0  0  0  0  0  0  0
   -1.0224    7.4887   -2.0686 C   0  0  0  0  0  0  0  0  0  0  0  0
   -1.0662    8.1652   -0.8331 C   0  0  0  0  0  0  0  0  0  0  0  0
   -0.3345    7.7766    0.3032 N   0  0  0  0  0  0  0  0  0  0  0  0
   -1.8149    9.2828   -0.6773 N   0  0  0  0  0  0  0  0  0  0  0  0
   -2.4244    9.7478   -1.7995 C   0  0  0  0  0  0  0  0  0  0  0  0
   -2.3069    9.1424   -3.0471 C   0  0  0  0  0  0  0  0  0  0  0  0
   -1.6196    7.9815   -3.1979 N   0  0  0  0  0  0  0  0  0  0  0  0
   -2.9002    9.7315   -4.2575 C   0  0  0  0  0  0  0  0  0  0  0  0
   -3.8572    9.0810   -5.0377 C   0  0  0  0  0  0  0  0  0  0  0  0
   -4.2966    9.7142   -6.2134 C   0  0  0  0  0  0  0  0  0  0  0  0
   -3.7801   10.9519   -6.5760 C   0  0  0  0  0  0  0  0  0  0  0  0
   -2.8605   11.5399   -5.7306 C   0  0  0  0  0  0  0  0  0  0  0  0
   -2.4292   10.9715   -4.5819 N   0  0  0  0  0  0  0  0  0  0  0  0
   -4.4513    7.7773   -4.5952 C   0  0  0  0  0  0  0  0  0  0  0  0
   -3.5699    6.7519   -4.4999 F   0  0  0  0  0  0  0  0  0  0  0  0
   -5.0630    7.8837   -3.3807 F   0  0  0  0  0  0  0  0  0  0  0  0
   -5.4246    7.3303   -5.4435 F   0  0  0  0  0  0  0  0  0  0  0  0
    0.6567    0.4386   -0.8463 H   0  0  0  0  0  0  0  0  0  0  0  0
    0.6157   -1.1489   -0.1035 H   0  0  0  0  0  0  0  0  0  0  0  0
    2.0629   -0.1277    0.0389 H   0  0  0  0  0  0  0  0  0  0  0  0
    1.8822   -0.3902    2.4851 H   0  0  0  0  0  0  0  0  0  0  0  0
    0.5539   -0.0063    3.3405 H   0  0  0  0  0  0  0  0  0  0  0  0
   -1.5396   -0.4831    1.0975 H   0  0  0  0  0  0  0  0  0  0  0  0
   -1.5233    0.8137    2.2906 H   0  0  0  0  0  0  0  0  0  0  0  0
   -1.3834    1.1689   -0.7506 H   0  0  0  0  0  0  0  0  0  0  0  0
   -2.7359    1.5586    0.2873 H   0  0  0  0  0  0  0  0  0  0  0  0
    0.8304    2.5709   -0.4798 H   0  0  0  0  0  0  0  0  0  0  0  0
    0.8230    3.8701    0.7086 H   0  0  0  0  0  0  0  0  0  0  0  0
    0.6185    2.2721    2.5607 H   0  0  0  0  0  0  0  0  0  0  0  0
    2.0481    1.9136    1.5932 H   0  0  0  0  0  0  0  0  0  0  0  0
   -2.8284    3.3060    2.3501 H   0  0  0  0  0  0  0  0  0  0  0  0
   -4.0960    5.4282    2.6406 H   0  0  0  0  0  0  0  0  0  0  0  0
   -3.7743    7.2268    0.9319 H   0  0  0  0  0  0  0  0  0  0  0  0
   -0.2109    4.2267   -1.5047 H   0  0  0  0  0  0  0  0  0  0  0  0
   -0.8258    8.1813    1.0967 H   0  0  0  0  0  0  0  0  0  0  0  0
   -0.3108    6.7660    0.3831 H   0  0  0  0  0  0  0  0  0  0  0  0
   -3.0168   10.6479   -1.6674 H   0  0  0  0  0  0  0  0  0  0  0  0
   -5.0428    9.2400   -6.8493 H   0  0  0  0  0  0  0  0  0  0  0  0
   -4.0904   11.4444   -7.4919 H   0  0  0  0  0  0  0  0  0  0  0  0
   -2.4275   12.5094   -5.9640 H   0  0  0  0  0  0  0  0  0  0  0  0
  1  2  1  0  0  0  0
  1 35  1  0  0  0  0
  1 36  1  0  0  0  0
  1 37  1  0  0  0  0
  2  3  1  0  0  0  0
  2  4  1  0  0  0  0
  2  8  1  0  0  0  0
  3 38  1  0  0  0  0
  3 39  1  0  0  0  0
  4  5  1  0  0  0  0
  4 40  1  0  0  0  0
  4 41  1  0  0  0  0
  5  6  1  0  0  0  0
  5 42  1  0  0  0  0
  5 43  1  0  0  0  0
  6  7  1  0  0  0  0
  6  9  1  0  0  0  0
  7  8  1  0  0  0  0
  7 44  1  0  0  0  0
  7 45  1  0  0  0  0
  8 46  1  0  0  0  0
  8 47  1  0  0  0  0
  9 10  2  0  0  0  0
  9 14  1  0  0  0  0
 10 11  1  0  0  0  0
 10 48  1  0  0  0  0
 11 12  2  0  0  0  0
 11 49  1  0  0  0  0
 12 13  1  0  0  0  0
 12 50  1  0  0  0  0
 13 14  2  0  0  0  0
 14 15  1  0  0  0  0
 15 16  1  0  0  0  0
 15 51  1  0  0  0  0
 16 17  2  0  0  0  0
 16 18  1  0  0  0  0
 18 19  2  0  0  0  0
 18 24  1  0  0  0  0
 19 20  1  0  0  0  0
 19 21  1  0  0  0  0
 20 52  1  0  0  0  0
 20 53  1  0  0  0  0
 21 22  2  0  0  0  0
 22 23  1  0  0  0  0
 22 54  1  0  0  0  0
 23 24  2  0  0  0  0
 23 25  1  0  0  0  0
 25 26  2  0  0  0  0
 25 30  1  0  0  0  0
 26 27  1  0  0  0  0
 26 31  1  0  0  0  0
 27 28  2  0  0  0  0
 27 55  1  0  0  0  0
 28 29  1  0  0  0  0
 28 56  1  0  0  0  0
 29 30  2  0  0  0  0
 29 57  1  0  0  0  0
 31 32  1  0  0  0  0
 31 33  1  0  0  0  0
 31 34  1  0  0  0  0
M  END
>  <DRUGBANK_ID>
DB16059

>  <COMMON_NAME>
Darovasertib

>  <CAS_NUMBER>
1874276-76-2

>  <UNII>
E0YF0M8O09

$$$$
