MFR
 OpenBabel10282417173D

 29 31  0  0  0  0  0  0  0  0999 V2000
   -2.1521   -0.7130    0.0146 C   0  0  0  0  0  0  0  0  0  0  0  0
   -2.0216    0.6693    0.0026 C   0  0  0  0  0  0  0  0  0  0  0  0
   -1.0038   -1.5107    0.0027 C   0  0  0  0  0  0  0  0  0  0  0  0
    2.2059   -2.5650   -0.0608 C   0  0  0  0  0  0  0  0  0  0  0  0
    4.2590   -4.6403    1.9282 N   0  0  0  0  0  0  0  0  0  0  0  0
    3.4734   -4.1976    0.9064 C   0  0  0  0  0  0  0  0  0  0  0  0
    3.2389   -5.0650   -0.0859 N   0  0  0  0  0  0  0  0  0  0  0  0
    2.4652   -4.6316   -1.0936 C   0  0  0  0  0  0  0  0  0  0  0  0
    1.9167   -3.3767   -1.1367 C   0  0  0  0  0  0  0  0  0  0  0  0
    2.9991   -2.9474    0.9619 N   0  0  0  0  0  0  0  0  0  0  0  0
    1.6253   -1.2317    0.0059 C   0  0  0  0  0  0  0  0  0  0  0  0
    2.3768   -0.0686    0.0414 C   0  0  0  0  0  0  0  0  0  0  0  0
    1.5107    0.9957    0.0245 N   0  0  0  0  0  0  0  0  0  0  0  0
    0.2427   -0.8449    0.0015 C   0  0  0  0  0  0  0  0  0  0  0  0
   -1.0014   -2.8798    0.0013 O   0  0  0  0  0  0  0  0  0  0  0  0
   -2.2658   -3.5275    0.0500 C   0  0  0  0  0  0  0  0  0  0  0  0
    0.2196    0.5464    0.0031 C   0  0  0  0  0  0  0  0  0  0  0  0
   -0.8577    1.3519   -0.0098 N   0  0  0  0  0  0  0  0  0  0  0  0
   -3.1495   -1.1334    0.0367 H   0  0  0  0  0  0  0  0  0  0  0  0
   -2.9123    1.2943    0.0061 H   0  0  0  0  0  0  0  0  0  0  0  0
    4.4551   -4.0135    2.6873 H   0  0  0  0  0  0  0  0  0  0  0  0
    4.6062   -5.5820    1.8719 H   0  0  0  0  0  0  0  0  0  0  0  0
    2.2909   -5.3494   -1.8890 H   0  0  0  0  0  0  0  0  0  0  0  0
    1.2901   -3.0553   -1.9557 H   0  0  0  0  0  0  0  0  0  0  0  0
    3.4465    0.0937    0.0641 H   0  0  0  0  0  0  0  0  0  0  0  0
    1.7578    1.9747    0.0318 H   0  0  0  0  0  0  0  0  0  0  0  0
   -2.8060   -3.2721    0.9678 H   0  0  0  0  0  0  0  0  0  0  0  0
   -2.8607   -3.2899   -0.8382 H   0  0  0  0  0  0  0  0  0  0  0  0
   -2.0917   -4.6074    0.0545 H   0  0  0  0  0  0  0  0  0  0  0  0
  1  2  2  0  0  0  0
  1  3  1  0  0  0  0
  1 19  1  0  0  0  0
  2 18  1  0  0  0  0
  2 20  1  0  0  0  0
  3 14  2  0  0  0  0
  3 15  1  0  0  0  0
  4  9  1  0  0  0  0
  4 10  2  0  0  0  0
  4 11  1  0  0  0  0
  5  6  1  0  0  0  0
  5 21  1  0  0  0  0
  5 22  1  0  0  0  0
  6  7  2  0  0  0  0
  6 10  1  0  0  0  0
  7  8  1  0  0  0  0
  8  9  2  0  0  0  0
  8 23  1  0  0  0  0
  9 24  1  0  0  0  0
 11 12  2  0  0  0  0
 11 14  1  0  0  0  0
 12 13  1  0  0  0  0
 12 25  1  0  0  0  0
 13 17  1  0  0  0  0
 13 26  1  0  0  0  0
 14 17  1  0  0  0  0
 15 16  1  0  0  0  0
 16 27  1  0  0  0  0
 16 28  1  0  0  0  0
 16 29  1  0  0  0  0
 17 18  2  0  0  0  0
M  END
>  <DRUGBANK_ID>
DB08178

>  <COMMON_NAME>
4-(4-methoxy-1H-pyrrolo[2,3-b]pyridin-3-yl)pyrimidin-2-amine

>  <UNII>
MP2RY8OR8X

$$$$
