
 OpenBabel10282417123D

 37 39  0  0  0  0  0  0  0  0999 V2000
    0.9424   -0.0537   -0.0617 P   0  0  0  0  0  0  0  0  0  0  0  0
   -0.7323    3.7070    1.7226 O   0  0  0  0  0  0  0  0  0  0  0  0
   -3.6667    3.3664   -0.4507 O   0  0  0  0  0  0  0  0  0  0  0  0
   -2.5425    1.2644    0.9149 O   0  0  0  0  0  0  0  0  0  0  0  0
    0.8515    1.4361   -0.7605 O   0  0  0  0  0  0  0  0  0  0  0  0
    0.8500   -1.0820   -1.3129 O   0  0  0  0  0  0  0  0  0  0  0  0
   -0.7876   -0.0537   -0.0617 O   0  0  0  0  0  0  0  0  0  0  0  0
    2.4908   -0.0537   -0.0617 O   0  0  0  0  0  0  0  0  0  0  0  0
   -3.0114    3.8866    2.3927 N   0  0  0  0  0  0  0  0  0  0  0  0
   -4.7610    3.1143    3.5547 N   0  0  0  0  0  0  0  0  0  0  0  0
   -4.3188    4.2748    5.5898 N   0  0  0  0  0  0  0  0  0  0  0  0
   -2.3301    5.6053    5.5568 N   0  0  0  0  0  0  0  0  0  0  0  0
   -3.6669    5.4665    7.4324 N   0  0  0  0  0  0  0  0  0  0  0  0
   -2.3234    3.4964   -0.0269 C   0  0  2  0  0  0  0  0  0  0  0  0
   -1.6758    2.1701    0.1892 C   0  0  1  0  0  0  0  0  0  0  0  0
   -2.0658    4.1597    1.3125 C   0  0  2  0  0  0  0  0  0  0  0  0
   -0.4321    2.4821    1.0240 C   0  0  1  0  0  0  0  0  0  0  0  0
    0.8480    2.5256    0.1709 C   0  0  0  0  0  0  0  0  0  0  0  0
   -2.9256    4.4320    3.6434 C   0  0  0  0  0  0  0  0  0  0  0  0
   -4.1469    3.1121    2.3981 C   0  0  0  0  0  0  0  0  0  0  0  0
   -4.0296    3.9571    4.3284 C   0  0  0  0  0  0  0  0  0  0  0  0
   -2.0486    5.2724    4.2838 C   0  0  0  0  0  0  0  0  0  0  0  0
   -3.4360    5.1044    6.1441 C   0  0  0  0  0  0  0  0  0  0  0  0
   -4.5139    5.1359    7.8639 H   0  0  0  0  0  0  0  0  0  0  0  0
   -3.0371    6.1264    7.8532 H   0  0  0  0  0  0  0  0  0  0  0  0
   -3.9143    2.4258   -0.3171 H   0  0  0  0  0  0  0  0  0  0  0  0
   -2.5082    1.4445    1.8734 H   0  0  0  0  0  0  0  0  0  0  0  0
    1.7464   -1.4585   -1.4177 H   0  0  0  0  0  0  0  0  0  0  0  0
   -1.2451   -0.0996    0.7981 H   0  0  0  0  0  0  0  0  0  0  0  0
   -1.7608    4.0134   -0.8145 H   0  0  0  0  0  0  0  0  0  0  0  0
   -1.5010    1.7526   -0.8063 H   0  0  0  0  0  0  0  0  0  0  0  0
   -2.0225    5.2452    1.1947 H   0  0  0  0  0  0  0  0  0  0  0  0
   -0.2702    1.7197    1.8006 H   0  0  0  0  0  0  0  0  0  0  0  0
    1.7418    2.4528    0.8067 H   0  0  0  0  0  0  0  0  0  0  0  0
    0.9363    3.4674   -0.3772 H   0  0  0  0  0  0  0  0  0  0  0  0
   -4.5054    2.5138    1.5729 H   0  0  0  0  0  0  0  0  0  0  0  0
   -1.1512    5.6765    3.8352 H   0  0  0  0  0  0  0  0  0  0  0  0
  1  5  1  0  0  0  0
  1  6  1  0  0  0  0
  1  7  1  0  0  0  0
  1  8  2  0  0  0  0
  2 16  1  0  0  0  0
  2 17  1  0  0  0  0
  3 26  1  0  0  0  0
  4 27  1  0  0  0  0
  5 18  1  0  0  0  0
  6 28  1  0  0  0  0
  7 29  1  0  0  0  0
  9 19  1  0  0  0  0
  9 20  1  0  0  0  0
 10 20  2  0  0  0  0
 10 21  1  0  0  0  0
 11 21  2  0  0  0  0
 11 23  1  0  0  0  0
 12 22  1  0  0  0  0
 12 23  2  0  0  0  0
 13 23  1  0  0  0  0
 13 24  1  0  0  0  0
 13 25  1  0  0  0  0
 14  3  1  0  0  0  0
 14 15  1  0  0  0  0
 14 16  1  0  0  0  0
 14 30  1  6  0  0  0
 15  4  1  0  0  0  0
 15 17  1  0  0  0  0
 15 31  1  6  0  0  0
 16  9  1  0  0  0  0
 16 32  1  6  0  0  0
 17 18  1  0  0  0  0
 17 33  1  1  0  0  0
 18 34  1  0  0  0  0
 18 35  1  0  0  0  0
 19 21  1  0  0  0  0
 19 22  2  0  0  0  0
 20 36  1  0  0  0  0
 22 37  1  0  0  0  0
M  END
>  <DRUGBANK_ID>
DB02770

>  <SECONDARY_ACCESSION_NUMBERS>
EXPT00315

>  <COMMON_NAME>
7-alpha-D-Ribofuranosyl-2-aminopurine-5'-phosphate

$$$$
