
 OpenBabel10282417153D

133136  0  0  1  0  0  0  0  0999 V2000
    0.9510   -7.4863   -1.0386 C   0  0  2  0  0  0  0  0  0  0  0  0
    0.9493   -6.3844   -1.1760 H   0  0  0  0  0  0  0  0  0  0  0  0
    1.9867   -7.9559   -1.8417 O   0  0  0  0  0  0  0  0  0  0  0  0
    3.3424   -7.5296   -1.6124 C   0  0  1  0  0  0  0  0  0  0  0  0
    3.8707   -7.9457   -0.2040 C   0  0  2  0  0  0  0  0  0  0  0  0
    2.9556   -7.2328    0.8211 C   0  0  0  0  0  0  0  0  0  0  0  0
    1.4324   -7.5372    0.5298 C   0  0  0  0  0  0  0  0  0  0  0  0
    5.3092   -7.6459    0.0820 N   0  0  0  0  0  0  0  0  0  0  0  0
    6.2168   -8.0676   -0.9847 C   0  0  0  0  0  0  0  0  0  0  0  0
    5.7711   -8.2992    1.3106 C   0  0  0  0  0  0  0  0  0  0  0  0
    3.9206   -8.2859   -2.7977 C   0  0  0  0  0  0  0  0  0  0  0  0
   -0.4511   -7.9272   -1.7522 O   0  0  0  0  0  0  0  0  0  0  0  0
   -1.3422   -9.4562   -2.1057 C   0  0  2  0  0  0  0  0  0  0  0  0
   -3.0018   -9.6234   -3.2640 C   0  0  1  0  0  0  0  0  0  0  0  0
   -3.7973   -8.3784   -3.1481 C   0  0  0  0  0  0  0  0  0  0  0  0
   -4.7553   -7.9998   -1.9559 C   0  0  1  0  0  0  0  0  0  0  0  0
   -5.9236   -8.6400   -1.1098 C   0  0  1  0  0  0  0  0  0  0  0  0
   -6.0949  -10.2750   -0.5880 C   0  0  1  0  0  0  0  0  0  0  0  0
   -5.7253  -11.3318   -1.4974 O   0  0  0  0  0  0  0  0  0  0  0  0
   -4.3340  -11.4204   -1.5871 C   0  0  0  0  0  0  0  0  0  0  0  0
   -5.3932  -10.6774    0.6818 C   0  0  1  0  0  0  0  0  0  0  0  0
   -6.0359  -10.0401    1.8295 C   0  0  0  0  0  0  0  0  0  0  0  0
   -7.1418  -10.2786    2.7280 C   0  0  0  0  0  0  0  0  0  0  0  0
   -6.8032  -10.1318    4.0697 O   0  0  0  0  0  0  0  0  0  0  0  0
   -5.4558   -9.9653    4.8431 C   0  0  2  0  0  0  0  0  0  0  0  0
   -5.1168   -8.4733    5.1115 C   0  0  0  0  0  0  0  0  0  0  0  0
   -4.2735  -11.0052    4.2181 C   0  0  0  0  0  0  0  0  0  0  0  0
   -3.4865  -10.7672    2.7344 C   0  0  0  0  0  0  0  0  0  0  0  0
   -2.4930  -10.1697    1.9168 C   0  0  0  0  0  0  0  0  0  0  0  0
   -2.0491  -10.2151    0.5107 C   0  0  0  0  0  0  0  0  0  0  0  0
   -1.1607   -9.6736   -0.3688 C   0  0  0  0  0  0  0  0  0  0  0  0
   -8.2778  -10.1684    2.2809 O   0  0  0  0  0  0  0  0  0  0  0  0
   -5.0763  -12.0650    0.8454 O   0  0  0  0  0  0  0  0  0  0  0  0
   -6.0797   -7.6028    0.0117 O   0  0  0  0  0  0  0  0  0  0  0  0
   -4.9110   -7.0769    0.8935 C   0  0  2  0  0  0  0  0  0  0  0  0
   -3.7894   -6.2461    0.3201 O   0  0  0  0  0  0  0  0  0  0  0  0
   -2.3208   -6.0778    0.8677 C   0  0  1  0  0  0  0  0  0  0  0  0
   -1.8770   -6.8993    2.1754 C   0  0  2  0  0  0  0  0  0  0  0  0
   -2.7955   -7.8418    3.0906 C   0  0  1  0  0  0  0  0  0  0  0  0
   -4.4338   -7.9125    2.1908 C   0  0  1  0  0  0  0  0  0  0  0  0
   -5.7662   -7.7116    2.7396 O   0  0  0  0  0  0  0  0  0  0  0  0
   -1.8631   -8.9581    4.2502 N   0  0  0  0  0  0  0  0  0  0  0  0
   -2.6341   -9.1949    5.4728 C   0  0  0  0  0  0  0  0  0  0  0  0
   -1.1700  -10.4140    3.9521 C   0  0  0  0  0  0  0  0  0  0  0  0
   -1.4130   -5.9118    3.1494 O   0  0  0  0  0  0  0  0  0  0  0  0
   -2.4203   -4.9102    3.8281 C   0  0  2  0  0  0  0  0  0  0  0  0
   -3.5853   -5.2756    4.8533 O   0  0  0  0  0  0  0  0  0  0  0  0
   -5.0622   -5.5005    4.3443 C   0  0  2  0  0  0  0  0  0  0  0  0
   -5.5987   -4.6293    3.1157 C   0  0  1  0  0  0  0  0  0  0  0  0
   -4.3721   -4.2985    2.2690 C   0  0  1  0  0  0  0  0  0  0  0  0
   -3.0244   -3.8096    2.8630 C   0  0  0  0  0  0  0  0  0  0  0  0
   -3.9598   -5.5927    2.4453 O   0  0  0  0  0  0  0  0  0  0  0  0
   -4.6904   -3.8945    0.7981 C   0  0  0  0  0  0  0  0  0  0  0  0
   -6.7845   -5.1602    2.3885 O   0  0  0  0  0  0  0  0  0  0  0  0
   -6.2976   -5.9584    5.2324 C   0  0  0  0  0  0  0  0  0  0  0  0
   -1.6482   -4.4480    4.4488 H   0  0  0  0  0  0  0  0  0  0  0  0
   -1.3658   -5.2238   -0.0325 C   0  0  0  0  0  0  0  0  0  0  0  0
   -5.5010   -6.3045    1.2784 H   0  0  0  0  0  0  0  0  0  0  0  0
   -3.7127   -8.0256   -0.9229 C   0  0  0  0  0  0  0  0  0  0  0  0
   -2.6172   -7.1238   -1.2527 C   0  0  0  0  0  0  0  0  0  0  0  0
   -2.6423   -6.1468   -2.1294 O   0  0  0  0  0  0  0  0  0  0  0  0
   -3.7265  -10.3955   -4.5142 C   0  0  0  0  0  0  0  0  0  0  0  0
    3.4800   -6.4408   -1.7321 H   0  0  0  0  0  0  0  0  0  0  0  0
    3.6932   -9.0224   -0.0833 H   0  0  0  0  0  0  0  0  0  0  0  0
    3.1821   -7.5833    1.8441 H   0  0  0  0  0  0  0  0  0  0  0  0
    3.1825   -6.1529    0.8555 H   0  0  0  0  0  0  0  0  0  0  0  0
    1.3140   -8.5456    0.9223 H   0  0  0  0  0  0  0  0  0  0  0  0
    0.8730   -6.8613    1.1974 H   0  0  0  0  0  0  0  0  0  0  0  0
    7.2746   -7.9520   -0.7311 H   0  0  0  0  0  0  0  0  0  0  0  0
    6.0539   -9.1205   -1.2553 H   0  0  0  0  0  0  0  0  0  0  0  0
    6.1047   -7.3964   -1.8368 H   0  0  0  0  0  0  0  0  0  0  0  0
    6.8300   -8.0705    1.4844 H   0  0  0  0  0  0  0  0  0  0  0  0
    5.2396   -7.9321    2.1894 H   0  0  0  0  0  0  0  0  0  0  0  0
    5.6602   -9.3878    1.2499 H   0  0  0  0  0  0  0  0  0  0  0  0
    3.4856   -7.8687   -3.7109 H   0  0  0  0  0  0  0  0  0  0  0  0
    4.9842   -8.2861   -2.9734 H   0  0  0  0  0  0  0  0  0  0  0  0
    3.6108   -9.3351   -2.7243 H   0  0  0  0  0  0  0  0  0  0  0  0
   -0.8670   -9.0932   -3.0066 H   0  0  0  0  0  0  0  0  0  0  0  0
   -3.8584  -10.0603   -2.8277 H   0  0  0  0  0  0  0  0  0  0  0  0
   -3.2215   -7.5728   -3.6012 H   0  0  0  0  0  0  0  0  0  0  0  0
   -3.0672   -8.5815   -2.4345 H   0  0  0  0  0  0  0  0  0  0  0  0
   -5.0397   -6.9363   -2.0906 H   0  0  0  0  0  0  0  0  0  0  0  0
   -6.8300   -8.5271   -1.7212 H   0  0  0  0  0  0  0  0  0  0  0  0
   -7.1430  -10.4119   -0.3105 H   0  0  0  0  0  0  0  0  0  0  0  0
   -4.1077  -10.3899   -1.3985 H   0  0  0  0  0  0  0  0  0  0  0  0
   -3.6078  -11.7784   -0.8795 H   0  0  0  0  0  0  0  0  0  0  0  0
   -3.9787  -11.8946   -2.4862 H   0  0  0  0  0  0  0  0  0  0  0  0
   -4.4497  -10.1832    0.5482 H   0  0  0  0  0  0  0  0  0  0  0  0
   -6.3581   -9.1191    1.3774 H   0  0  0  0  0  0  0  0  0  0  0  0
   -5.3028   -9.8121    2.5576 H   0  0  0  0  0  0  0  0  0  0  0  0
   -5.7548  -10.2411    5.8640 H   0  0  0  0  0  0  0  0  0  0  0  0
   -4.8328   -7.9380    6.0361 H   0  0  0  0  0  0  0  0  0  0  0  0
   -4.3394   -8.1037    4.4975 H   0  0  0  0  0  0  0  0  0  0  0  0
   -5.8183   -7.9159    4.6249 H   0  0  0  0  0  0  0  0  0  0  0  0
   -4.7824  -11.9821    4.1987 H   0  0  0  0  0  0  0  0  0  0  0  0
   -3.4830  -11.3154    4.9097 H   0  0  0  0  0  0  0  0  0  0  0  0
   -4.1288  -11.4926    2.3556 H   0  0  0  0  0  0  0  0  0  0  0  0
   -1.7790   -9.4318    2.2493 H   0  0  0  0  0  0  0  0  0  0  0  0
   -2.7844  -10.6806   -0.0129 H   0  0  0  0  0  0  0  0  0  0  0  0
   -0.4135   -9.0622    0.1491 H   0  0  0  0  0  0  0  0  0  0  0  0
   -4.0921  -12.1633    0.8155 H   0  0  0  0  0  0  0  0  0  0  0  0
   -2.4729   -5.1150    1.2577 H   0  0  0  0  0  0  0  0  0  0  0  0
   -1.0902   -7.5484    1.7717 H   0  0  0  0  0  0  0  0  0  0  0  0
   -2.9702   -7.1779    3.9179 H   0  0  0  0  0  0  0  0  0  0  0  0
   -4.2349   -8.7921    1.6678 H   0  0  0  0  0  0  0  0  0  0  0  0
   -6.3213   -8.3756    3.1769 H   0  0  0  0  0  0  0  0  0  0  0  0
   -3.4074   -9.3837    4.8101 H   0  0  0  0  0  0  0  0  0  0  0  0
   -2.7980  -10.1202    6.0638 H   0  0  0  0  0  0  0  0  0  0  0  0
   -2.9687   -8.3987    6.1344 H   0  0  0  0  0  0  0  0  0  0  0  0
   -1.6184  -11.2768    3.3874 H   0  0  0  0  0  0  0  0  0  0  0  0
   -0.2736  -10.2701    3.3466 H   0  0  0  0  0  0  0  0  0  0  0  0
   -1.0544  -11.0479    4.8427 H   0  0  0  0  0  0  0  0  0  0  0  0
   -4.8221   -6.4363    3.9228 H   0  0  0  0  0  0  0  0  0  0  0  0
   -6.0055   -3.7130    3.4732 H   0  0  0  0  0  0  0  0  0  0  0  0
   -3.2372   -2.9146    3.4122 H   0  0  0  0  0  0  0  0  0  0  0  0
   -2.2533   -3.5747    2.1058 H   0  0  0  0  0  0  0  0  0  0  0  0
   -3.8659   -5.9278    1.5973 H   0  0  0  0  0  0  0  0  0  0  0  0
   -5.1859   -2.9377    0.8191 H   0  0  0  0  0  0  0  0  0  0  0  0
   -3.8157   -3.8055    0.1380 H   0  0  0  0  0  0  0  0  0  0  0  0
   -5.3535   -4.5810    0.2385 H   0  0  0  0  0  0  0  0  0  0  0  0
   -6.8338   -6.1055    2.1056 H   0  0  0  0  0  0  0  0  0  0  0  0
   -6.0652   -6.2625    6.2556 H   0  0  0  0  0  0  0  0  0  0  0  0
   -7.1508   -5.3173    5.0605 H   0  0  0  0  0  0  0  0  0  0  0  0
   -6.9001   -6.8247    4.8689 H   0  0  0  0  0  0  0  0  0  0  0  0
   -1.9626   -4.4999   -0.6170 H   0  0  0  0  0  0  0  0  0  0  0  0
   -0.6486   -4.7083    0.5940 H   0  0  0  0  0  0  0  0  0  0  0  0
   -0.7913   -5.7343   -0.7869 H   0  0  0  0  0  0  0  0  0  0  0  0
   -4.1023   -8.3575   -0.0183 H   0  0  0  0  0  0  0  0  0  0  0  0
   -3.1584   -8.8935   -0.7119 H   0  0  0  0  0  0  0  0  0  0  0  0
   -1.7786   -7.3398   -0.6288 H   0  0  0  0  0  0  0  0  0  0  0  0
   -4.0450  -11.4433   -4.3365 H   0  0  0  0  0  0  0  0  0  0  0  0
   -4.7894   -9.9959   -4.6417 H   0  0  0  0  0  0  0  0  0  0  0  0
   -3.3180  -10.2038   -5.4914 H   0  0  0  0  0  0  0  0  0  0  0  0
  1  3  1  0  0  0  0
  1  7  1  0  0  0  0
  1 12  1  0  0  0  0
  1  2  1  6  0  0  0
  3  4  1  0  0  0  0
  4  5  1  0  0  0  0
  4 11  1  0  0  0  0
  4 63  1  6  0  0  0
  5  6  1  0  0  0  0
  5 64  1  1  0  0  0
  5  8  1  0  0  0  0
  6  7  1  0  0  0  0
  6 65  1  0  0  0  0
  6 66  1  0  0  0  0
  7 67  1  0  0  0  0
  7 68  1  0  0  0  0
  8  9  1  0  0  0  0
  8 10  1  0  0  0  0
  9 69  1  0  0  0  0
  9 70  1  0  0  0  0
  9 71  1  0  0  0  0
 10 72  1  0  0  0  0
 10 73  1  0  0  0  0
 10 74  1  0  0  0  0
 11 75  1  0  0  0  0
 11 76  1  0  0  0  0
 11 77  1  0  0  0  0
 13 12  1  0  0  0  0
 13 31  1  0  0  0  0
 13 78  1  6  0  0  0
 14 13  1  0  0  0  0
 14 62  1  0  0  0  0
 14 79  1  1  0  0  0
 15 14  1  0  0  0  0
 15 80  1  0  0  0  0
 15 81  1  0  0  0  0
 16 15  1  0  0  0  0
 16 82  1  6  0  0  0
 16 59  1  0  0  0  0
 17 16  1  0  0  0  0
 17 83  1  6  0  0  0
 17 34  1  0  0  0  0
 18 17  1  0  0  0  0
 18 19  1  0  0  0  0
 18 84  1  1  0  0  0
 19 20  1  0  0  0  0
 20 85  1  0  0  0  0
 20 86  1  0  0  0  0
 20 87  1  0  0  0  0
 21 18  1  0  0  0  0
 21 88  1  6  0  0  0
 21 33  1  0  0  0  0
 22 21  1  0  0  0  0
 22 89  1  0  0  0  0
 22 90  1  0  0  0  0
 23 22  1  0  0  0  0
 23 32  2  0  0  0  0
 24 23  1  0  0  0  0
 25 24  1  0  0  0  0
 25 91  1  1  0  0  0
 25 26  1  0  0  0  0
 26 92  1  0  0  0  0
 26 93  1  0  0  0  0
 26 94  1  0  0  0  0
 27 25  1  0  0  0  0
 27 28  1  0  0  0  0
 27 95  1  0  0  0  0
 27 96  1  0  0  0  0
 28 29  2  0  0  0  0
 28 97  1  0  0  0  0
 29 98  1  0  0  0  0
 30 29  1  0  0  0  0
 30 99  1  0  0  0  0
 31 30  2  0  0  0  0
 31100  1  0  0  0  0
 33101  1  0  0  0  0
 35 36  1  0  0  0  0
 35 40  1  0  0  0  0
 35 58  1  1  0  0  0
 35 34  1  0  0  0  0
 36 37  1  0  0  0  0
 37 38  1  0  0  0  0
 37 57  1  0  0  0  0
 37102  1  1  0  0  0
 38 39  1  0  0  0  0
 38103  1  6  0  0  0
 38 45  1  0  0  0  0
 39 40  1  0  0  0  0
 39 42  1  0  0  0  0
 39104  1  1  0  0  0
 40105  1  6  0  0  0
 40 41  1  0  0  0  0
 41106  1  0  0  0  0
 42 43  1  0  0  0  0
 42 44  1  0  0  0  0
 43107  1  0  0  0  0
 43108  1  0  0  0  0
 43109  1  0  0  0  0
 44110  1  0  0  0  0
 44111  1  0  0  0  0
 44112  1  0  0  0  0
 45 46  1  0  0  0  0
 46 47  1  0  0  0  0
 46 51  1  0  0  0  0
 46 56  1  1  0  0  0
 47 48  1  0  0  0  0
 48 49  1  0  0  0  0
 48113  1  6  0  0  0
 48 55  1  0  0  0  0
 49 50  1  0  0  0  0
 49 54  1  0  0  0  0
 49114  1  1  0  0  0
 50 51  1  0  0  0  0
 50 52  1  6  0  0  0
 50 53  1  0  0  0  0
 51115  1  0  0  0  0
 51116  1  0  0  0  0
 52117  1  0  0  0  0
 53118  1  0  0  0  0
 53119  1  0  0  0  0
 53120  1  0  0  0  0
 54121  1  0  0  0  0
 55122  1  0  0  0  0
 55123  1  0  0  0  0
 55124  1  0  0  0  0
 57125  1  0  0  0  0
 57126  1  0  0  0  0
 57127  1  0  0  0  0
 59 60  1  0  0  0  0
 59128  1  0  0  0  0
 59129  1  0  0  0  0
 60 61  2  0  0  0  0
 60130  1  0  0  0  0
 62131  1  0  0  0  0
 62132  1  0  0  0  0
 62133  1  0  0  0  0
M  END
>  <DRUGBANK_ID>
DB06145

>  <COMMON_NAME>
Spiramycin

>  <CAS_NUMBER>
24916-50-5

>  <UNII>
033ECH6IFG

>  <SYNONYMS>
Demycarosylturimycin H; Foromacidin A; Foromacidine A; Spiramycin 1; Spiramycin A; Spiramycin I

$$$$
