239
 OpenBabel10282417123D

 42 44  0  0  0  0  0  0  0  0999 V2000
    1.0660    0.0944    0.1002 N   0  0  0  0  0  0  0  0  0  0  0  0
    0.4400    0.9266   -0.6614 C   0  0  0  0  0  0  0  0  0  0  0  0
    1.1137    1.7750   -1.4928 N   0  0  0  0  0  0  0  0  0  0  0  0
   -1.0459    0.9283   -0.6325 C   0  0  0  0  0  0  0  0  0  0  0  0
   -1.7450    1.0860   -1.8210 C   0  0  0  0  0  0  0  0  0  0  0  0
   -3.1383    1.1403   -1.7899 C   0  0  0  0  0  0  0  0  0  0  0  0
   -3.8055    1.4555   -2.9499 C   0  0  0  0  0  0  0  0  0  0  0  0
   -5.1617    1.7279   -2.8823 C   0  0  0  0  0  0  0  0  0  0  0  0
   -5.9601    1.3714   -1.7974 C   0  0  0  0  0  0  0  0  0  0  0  0
   -5.2890    1.0414   -0.6145 C   0  0  0  0  0  0  0  0  0  0  0  0
   -3.8716    0.9752   -0.5881 C   0  0  0  0  0  0  0  0  0  0  0  0
   -3.1440    0.7669    0.5897 C   0  0  0  0  0  0  0  0  0  0  0  0
   -1.7415    0.7588    0.5690 C   0  0  0  0  0  0  0  0  0  0  0  0
   -7.4742    1.3601   -1.8607 C   0  0  0  0  0  0  0  0  0  0  0  0
   -8.1106    1.2403   -0.8204 O   0  0  0  0  0  0  0  0  0  0  0  0
   -8.1792    1.5357   -3.0559 N   0  0  0  0  0  0  0  0  0  0  0  0
   -7.7206    1.4918   -4.3837 C   0  0  0  0  0  0  0  0  0  0  0  0
   -6.8021    0.5171   -4.7897 C   0  0  0  0  0  0  0  0  0  0  0  0
   -6.0716    0.6862   -5.9664 C   0  0  0  0  0  0  0  0  0  0  0  0
   -6.3752    1.7359   -6.8359 C   0  0  0  0  0  0  0  0  0  0  0  0
   -7.4280    2.6063   -6.5064 C   0  0  0  0  0  0  0  0  0  0  0  0
   -8.0704    2.5171   -5.2650 C   0  0  0  0  0  0  0  0  0  0  0  0
   -5.5874    1.9267   -8.1048 C   0  0  0  0  0  0  0  0  0  0  0  0
   -6.4405    1.7046   -9.2606 N   0  0  0  0  0  0  0  0  0  0  0  0
    2.0718    0.1691   -0.0503 H   0  0  0  0  0  0  0  0  0  0  0  0
    0.6314    2.5848   -1.8698 H   0  0  0  0  0  0  0  0  0  0  0  0
    2.1096    1.9039   -1.3666 H   0  0  0  0  0  0  0  0  0  0  0  0
   -1.2071    1.1869   -2.7608 H   0  0  0  0  0  0  0  0  0  0  0  0
   -3.2950    1.5714   -3.9020 H   0  0  0  0  0  0  0  0  0  0  0  0
   -5.5695    2.2203   -3.7497 H   0  0  0  0  0  0  0  0  0  0  0  0
   -5.8588    0.8847    0.3008 H   0  0  0  0  0  0  0  0  0  0  0  0
   -3.6624    0.6358    1.5361 H   0  0  0  0  0  0  0  0  0  0  0  0
   -1.1898    0.6279    1.4956 H   0  0  0  0  0  0  0  0  0  0  0  0
   -9.1588    1.7590   -2.9157 H   0  0  0  0  0  0  0  0  0  0  0  0
   -6.5254   -0.2867   -4.1111 H   0  0  0  0  0  0  0  0  0  0  0  0
   -5.2274    0.0276   -6.1577 H   0  0  0  0  0  0  0  0  0  0  0  0
   -7.7188    3.3821   -7.2135 H   0  0  0  0  0  0  0  0  0  0  0  0
   -8.7492    3.3141   -4.9701 H   0  0  0  0  0  0  0  0  0  0  0  0
   -5.1662    2.9390   -8.1291 H   0  0  0  0  0  0  0  0  0  0  0  0
   -4.7368    1.2344   -8.1377 H   0  0  0  0  0  0  0  0  0  0  0  0
   -5.8853    1.7575  -10.1101 H   0  0  0  0  0  0  0  0  0  0  0  0
   -6.8102    0.7561   -9.2076 H   0  0  0  0  0  0  0  0  0  0  0  0
  1  2  2  0  0  0  0
  1 25  1  0  0  0  0
  2  3  1  0  0  0  0
  2  4  1  0  0  0  0
  3 26  1  0  0  0  0
  3 27  1  0  0  0  0
  4  5  2  0  0  0  0
  4 13  1  0  0  0  0
  5  6  1  0  0  0  0
  5 28  1  0  0  0  0
  6  7  2  0  0  0  0
  6 11  1  0  0  0  0
  7  8  1  0  0  0  0
  7 29  1  0  0  0  0
  8  9  2  0  0  0  0
  8 30  1  0  0  0  0
  9 10  1  0  0  0  0
  9 14  1  0  0  0  0
 10 11  2  0  0  0  0
 10 31  1  0  0  0  0
 11 12  1  0  0  0  0
 12 13  2  0  0  0  0
 12 32  1  0  0  0  0
 13 33  1  0  0  0  0
 14 15  2  0  0  0  0
 14 16  1  0  0  0  0
 16 17  1  0  0  0  0
 16 34  1  0  0  0  0
 17 18  2  0  0  0  0
 17 22  1  0  0  0  0
 18 19  1  0  0  0  0
 18 35  1  0  0  0  0
 19 20  2  0  0  0  0
 19 36  1  0  0  0  0
 20 21  1  0  0  0  0
 20 23  1  0  0  0  0
 21 22  2  0  0  0  0
 21 37  1  0  0  0  0
 22 38  1  0  0  0  0
 23 24  1  0  0  0  0
 23 39  1  0  0  0  0
 23 40  1  0  0  0  0
 24 41  1  0  0  0  0
 24 42  1  0  0  0  0
M  END
>  <DRUGBANK_ID>
DB02398

>  <SECONDARY_ACCESSION_NUMBERS>
EXPT00091

>  <COMMON_NAME>
6-[N-(4-(Aminomethyl)Phenyl)Carbamyl]-2-Naphthalenecarboxamidine

$$$$
