
 OpenBabel10282417193D

 64 67  0  0  0  0  0  0  0  0999 V2000
   -6.4095    3.8084   -6.8902 C   0  0  0  0  0  0  0  0  0  0  0  0
   -7.2390    4.7909   -7.4045 C   0  0  0  0  0  0  0  0  0  0  0  0
   -8.1732    5.3855   -6.5723 C   0  0  0  0  0  0  0  0  0  0  0  0
   -8.2272    5.1436   -5.1950 C   0  0  0  0  0  0  0  0  0  0  0  0
   -7.3770    4.1396   -4.6876 C   0  0  0  0  0  0  0  0  0  0  0  0
   -6.4880    3.4561   -5.5383 C   0  0  0  0  0  0  0  0  0  0  0  0
   -5.6301    2.4050   -4.9135 C   0  0  0  0  0  0  0  0  0  0  0  0
   -7.3088    3.7792   -3.2368 C   0  0  0  0  0  0  0  0  0  0  0  0
   -7.3002    2.2437   -3.0177 C   0  0  2  0  0  0  0  0  0  0  0  0
   -6.2439    1.5312   -3.7936 C   0  0  0  0  0  0  0  0  0  0  0  0
   -5.6809    0.3697   -3.3362 C   0  0  0  0  0  0  0  0  0  0  0  0
   -6.9602    2.0996   -1.5449 C   0  0  0  0  0  0  0  0  0  0  0  0
   -6.6409    0.7137   -1.0063 C   0  0  2  0  0  0  0  0  0  0  0  0
   -5.9097   -0.3366   -1.8252 C   0  0  1  0  0  0  0  0  0  0  0  0
   -6.6723   -1.7531   -0.8212 C   0  0  0  0  0  0  0  0  0  0  0  0
   -6.0877    0.6771    0.4912 C   0  0  1  0  0  0  0  0  0  0  0  0
   -5.9247   -0.8222    0.9310 C   0  0  0  0  0  0  0  0  0  0  0  0
   -7.0325   -1.5246    0.7816 C   0  0  0  0  0  0  0  0  0  0  0  0
   -5.5770    3.1670   -7.7552 O   0  0  0  0  0  0  0  0  0  0  0  0
   -4.4266    2.3511   -5.1554 O   0  0  0  0  0  0  0  0  0  0  0  0
   -4.3853    0.0961   -3.8827 O   0  0  0  0  0  0  0  0  0  0  0  0
   -6.4083   -2.9424   -1.0396 O   0  0  0  0  0  0  0  0  0  0  0  0
   -8.2473   -0.9211    1.5392 C   0  0  0  0  0  0  0  0  0  0  0  0
   -9.0588   -0.2499    1.0097 O   0  0  0  0  0  0  0  0  0  0  0  0
   -8.3541   -1.1410    2.9349 N   0  0  0  0  0  0  0  0  0  0  0  0
   -4.7196   -1.5647    0.5829 O   0  0  0  0  0  0  0  0  0  0  0  0
   -4.9312    1.4363    1.0105 N   0  0  0  0  0  0  0  0  0  0  0  0
   -4.5477    2.5764    0.2191 C   0  0  0  0  0  0  0  0  0  0  0  0
   -3.7287    0.6258    1.2174 C   0  0  0  0  0  0  0  0  0  0  0  0
   -7.6632    0.2925   -1.0610 H   0  0  0  0  0  0  0  0  0  0  0  0
   -8.2693    1.8138   -3.2953 H   0  0  0  0  0  0  0  0  0  0  0  0
   -9.1376    5.9358   -4.2699 C   0  0  0  0  0  0  0  0  0  0  0  0
  -10.3314    6.5620   -4.8728 N   0  0  0  0  0  0  0  0  0  0  0  0
  -11.0882    7.1531   -3.7508 O   0  0  0  0  0  0  0  0  0  0  0  0
  -11.7031    6.1613   -2.9299 C   0  0  0  0  0  0  0  0  0  0  0  0
   -9.9779    7.7723   -5.6296 C   0  0  0  0  0  0  0  0  0  0  0  0
   -4.4803   -0.3708   -1.5027 O   0  0  0  0  0  0  0  0  0  0  0  0
   -7.2056    5.1174   -8.4411 H   0  0  0  0  0  0  0  0  0  0  0  0
   -8.8827    6.0219   -7.0757 H   0  0  0  0  0  0  0  0  0  0  0  0
   -8.1242    4.2001   -2.6462 H   0  0  0  0  0  0  0  0  0  0  0  0
   -6.3958    4.2490   -2.8369 H   0  0  0  0  0  0  0  0  0  0  0  0
   -7.7658    2.5433   -0.9496 H   0  0  0  0  0  0  0  0  0  0  0  0
   -6.1029    2.7386   -1.4213 H   0  0  0  0  0  0  0  0  0  0  0  0
   -6.9482    1.1311    1.0119 H   0  0  0  0  0  0  0  0  0  0  0  0
   -6.1032    2.9326   -8.5403 H   0  0  0  0  0  0  0  0  0  0  0  0
   -4.0791    0.8694   -4.4346 H   0  0  0  0  0  0  0  0  0  0  0  0
   -7.7580   -1.6765    3.5527 H   0  0  0  0  0  0  0  0  0  0  0  0
   -9.1647   -0.7378    3.4134 H   0  0  0  0  0  0  0  0  0  0  0  0
   -4.5019   -1.5497   -0.3885 H   0  0  0  0  0  0  0  0  0  0  0  0
   -3.6490    3.0318    0.6316 H   0  0  0  0  0  0  0  0  0  0  0  0
   -4.3104    2.2789   -0.8090 H   0  0  0  0  0  0  0  0  0  0  0  0
   -5.3301    3.3388    0.2589 H   0  0  0  0  0  0  0  0  0  0  0  0
   -2.9022    1.1569    1.6729 H   0  0  0  0  0  0  0  0  0  0  0  0
   -3.9119   -0.1822    1.9339 H   0  0  0  0  0  0  0  0  0  0  0  0
   -3.3482    0.2521    0.2641 H   0  0  0  0  0  0  0  0  0  0  0  0
   -9.5253    5.1852   -3.5795 H   0  0  0  0  0  0  0  0  0  0  0  0
   -8.5621    6.6573   -3.6721 H   0  0  0  0  0  0  0  0  0  0  0  0
  -12.2112    5.3896   -3.5149 H   0  0  0  0  0  0  0  0  0  0  0  0
  -10.9522    5.7134   -2.2714 H   0  0  0  0  0  0  0  0  0  0  0  0
  -12.4213    6.6609   -2.2761 H   0  0  0  0  0  0  0  0  0  0  0  0
   -9.5014    8.5260   -4.9980 H   0  0  0  0  0  0  0  0  0  0  0  0
   -9.2851    7.6395   -6.4569 H   0  0  0  0  0  0  0  0  0  0  0  0
  -10.8783    8.1713   -6.1030 H   0  0  0  0  0  0  0  0  0  0  0  0
   -3.9963    0.1722   -2.1714 H   0  0  0  0  0  0  0  0  0  0  0  0
  1  2  1  0  0  0  0
  1  6  2  0  0  0  0
  1 19  1  0  0  0  0
  2  3  2  0  0  0  0
  2 38  1  0  0  0  0
  3  4  1  0  0  0  0
  3 39  1  0  0  0  0
  4  5  2  0  0  0  0
  4 32  1  0  0  0  0
  5  8  1  0  0  0  0
  6  5  1  0  0  0  0
  7  6  1  0  0  0  0
  7 10  1  0  0  0  0
  7 20  2  0  0  0  0
  8  9  1  0  0  0  0
  8 40  1  0  0  0  0
  8 41  1  0  0  0  0
  9 12  1  0  0  0  0
  9 31  1  1  0  0  0
 10  9  1  0  0  0  0
 11 10  2  0  0  0  0
 11 14  1  0  0  0  0
 11 21  1  0  0  0  0
 12 13  1  0  0  0  0
 12 42  1  0  0  0  0
 12 43  1  0  0  0  0
 13 16  1  0  0  0  0
 13 30  1  6  0  0  0
 14 13  1  0  0  0  0
 14 37  1  1  0  0  0
 15 14  1  0  0  0  0
 15 18  1  0  0  0  0
 15 22  2  0  0  0  0
 16 17  1  0  0  0  0
 16 44  1  1  0  0  0
 16 27  1  0  0  0  0
 17 18  2  0  0  0  0
 17 26  1  0  0  0  0
 18 23  1  0  0  0  0
 19 45  1  0  0  0  0
 21 46  1  0  0  0  0
 23 24  2  0  0  0  0
 23 25  1  0  0  0  0
 25 47  1  0  0  0  0
 25 48  1  0  0  0  0
 26 49  1  0  0  0  0
 27 28  1  0  0  0  0
 27 29  1  0  0  0  0
 28 50  1  0  0  0  0
 28 51  1  0  0  0  0
 28 52  1  0  0  0  0
 29 53  1  0  0  0  0
 29 54  1  0  0  0  0
 29 55  1  0  0  0  0
 32 33  1  0  0  0  0
 32 56  1  0  0  0  0
 32 57  1  0  0  0  0
 33 34  1  0  0  0  0
 33 36  1  0  0  0  0
 34 35  1  0  0  0  0
 35 58  1  0  0  0  0
 35 59  1  0  0  0  0
 35 60  1  0  0  0  0
 36 61  1  0  0  0  0
 36 62  1  0  0  0  0
 36 63  1  0  0  0  0
 37 64  1  0  0  0  0
M  END
>  <DRUGBANK_ID>
DB12035

>  <COMMON_NAME>
Sarecycline

>  <CAS_NUMBER>
1035654-66-0

>  <UNII>
94O110CX2E

>  <SYNONYMS>
Sareciclina; Sarecycline; SarÃ©cycline; Sarecyclinum

$$$$
