
 OpenBabel10282417233D

 71 76  0  0  1  0  0  0  0  0999 V2000
    0.9774   -0.0348   -0.1233 O   0  0  0  0  0  0  0  0  0  0  0  0
    0.3927   -0.6566    0.9112 C   0  0  0  0  0  0  0  0  0  0  0  0
    1.0192   -1.1412    1.8355 O   0  0  0  0  0  0  0  0  0  0  0  0
   -1.0768   -0.5625    0.8119 C   0  0  0  0  0  0  0  0  0  0  0  0
   -1.7838   -0.9348   -0.3274 C   0  0  0  0  0  0  0  0  0  0  0  0
   -3.1954   -0.9559   -0.3251 C   0  0  0  0  0  0  0  0  0  0  0  0
   -3.8858   -0.6529    0.8601 C   0  0  0  0  0  0  0  0  0  0  0  0
   -5.2262   -0.6464    1.1601 N   0  0  0  0  0  0  0  0  0  0  0  0
   -5.3296   -0.3019    2.4398 C   0  0  0  0  0  0  0  0  0  0  0  0
   -6.6649   -0.1975    3.1822 C   0  0  0  0  0  0  0  0  0  0  0  0
   -6.9412   -1.1794    4.2706 N   0  0  0  0  0  0  0  0  0  0  0  0
   -6.7567   -2.5447    3.7896 C   0  0  0  0  0  0  0  0  0  0  0  0
   -6.8608   -3.4961    4.9834 C   0  0  0  0  0  0  0  0  0  0  0  0
   -5.8231   -3.3384    6.1122 C   0  0  3  0  0  0  0  0  0  0  0  0
   -5.8917   -1.8819    6.5219 C   0  0  0  0  0  0  0  0  0  0  0  0
   -6.0033   -0.9728    5.3454 C   0  0  0  0  0  0  0  0  0  0  0  0
   -6.0272   -4.2336    7.3343 C   0  0  0  0  0  0  0  0  0  0  0  0
   -5.8560   -5.5651    7.2102 N   0  0  0  0  0  0  0  0  0  0  0  0
   -6.3713   -6.3983    8.1233 C   0  0  0  0  0  0  0  0  0  0  0  0
   -6.3078   -7.7644    7.9314 O   0  0  0  0  0  0  0  0  0  0  0  0
   -5.6502   -8.2215    6.7319 C   0  0  0  0  0  0  0  0  0  0  0  0
   -6.4518   -8.0601    5.4529 C   0  0  0  0  0  0  0  0  0  0  0  0
   -7.0821   -9.0987    4.7740 C   0  0  0  0  0  0  0  0  0  0  0  0
   -7.6247   -8.8739    3.4894 C   0  0  0  0  0  0  0  0  0  0  0  0
   -7.7714   -7.5854    2.9897 C   0  0  0  0  0  0  0  0  0  0  0  0
   -7.3399   -6.5425    3.7554 C   0  0  0  0  0  0  0  0  0  0  0  0
   -6.5019   -6.8276    4.8237 C   0  0  0  0  0  0  0  0  0  0  0  0
   -5.5054   -5.9666    5.0456 F   0  0  0  0  0  0  0  0  0  0  0  0
   -8.2334   -7.2859    1.6606 C   0  0  0  0  0  0  0  0  0  0  0  0
   -8.5542   -6.9920    0.5976 N   0  0  0  0  0  0  0  0  0  0  0  0
   -7.0874   -5.9276    9.2016 C   0  0  0  0  0  0  0  0  0  0  0  0
   -7.1948   -4.5535    9.3647 C   0  0  0  0  0  0  0  0  0  0  0  0
   -6.5049   -3.7136    8.5173 C   0  0  0  0  0  0  0  0  0  0  0  0
   -4.0582   -0.0691    2.9573 N   0  0  0  0  0  0  0  0  0  0  0  0
   -3.6142    0.2345    4.3117 C   0  0  0  0  0  0  0  0  0  0  0  0
   -2.9045   -0.9298    5.0712 C   0  0  2  0  0  0  0  0  0  0  0  0
   -1.4868   -1.3866    4.7104 C   0  0  0  0  0  0  0  0  0  0  0  0
   -1.9871   -2.7860    4.9914 C   0  0  0  0  0  0  0  0  0  0  0  0
   -3.3422   -2.3064    4.7624 O   0  0  0  0  0  0  0  0  0  0  0  0
   -3.1455   -0.2440    1.9506 C   0  0  0  0  0  0  0  0  0  0  0  0
   -1.7572   -0.1032    1.9283 C   0  0  0  0  0  0  0  0  0  0  0  0
    1.9399   -0.0848    0.0516 H   0  0  0  0  0  0  0  0  0  0  0  0
   -1.2403   -1.1977   -1.2282 H   0  0  0  0  0  0  0  0  0  0  0  0
   -3.7490   -1.2133   -1.2191 H   0  0  0  0  0  0  0  0  0  0  0  0
   -6.7692    0.8182    3.5849 H   0  0  0  0  0  0  0  0  0  0  0  0
   -7.4786   -0.3026    2.4512 H   0  0  0  0  0  0  0  0  0  0  0  0
   -5.7843   -2.7060    3.2960 H   0  0  0  0  0  0  0  0  0  0  0  0
   -7.5206   -2.7852    3.0404 H   0  0  0  0  0  0  0  0  0  0  0  0
   -6.6562   -4.4278    4.5290 H   0  0  0  0  0  0  0  0  0  0  0  0
   -7.8791   -3.4970    5.3792 H   0  0  0  0  0  0  0  0  0  0  0  0
   -4.8486   -3.6223    5.6995 H   0  0  0  0  0  0  0  0  0  0  0  0
   -6.7725   -1.6586    7.1187 H   0  0  0  0  0  0  0  0  0  0  0  0
   -4.9888   -1.6395    7.1014 H   0  0  0  0  0  0  0  0  0  0  0  0
   -6.0510    0.0461    5.7258 H   0  0  0  0  0  0  0  0  0  0  0  0
   -5.0999   -1.2066    4.8511 H   0  0  0  0  0  0  0  0  0  0  0  0
   -4.6358   -7.8066    6.6427 H   0  0  0  0  0  0  0  0  0  0  0  0
   -5.4909   -9.2979    6.8860 H   0  0  0  0  0  0  0  0  0  0  0  0
   -7.0794  -10.1035    5.1818 H   0  0  0  0  0  0  0  0  0  0  0  0
   -7.9254   -9.7102    2.8697 H   0  0  0  0  0  0  0  0  0  0  0  0
   -7.5182   -5.5348    3.4054 H   0  0  0  0  0  0  0  0  0  0  0  0
   -7.5418   -6.6022    9.9113 H   0  0  0  0  0  0  0  0  0  0  0  0
   -7.8326   -4.1124   10.1205 H   0  0  0  0  0  0  0  0  0  0  0  0
   -6.4143   -2.6647    8.7627 H   0  0  0  0  0  0  0  0  0  0  0  0
   -2.9798    1.1218    4.2902 H   0  0  0  0  0  0  0  0  0  0  0  0
   -4.4734    0.6393    4.8441 H   0  0  0  0  0  0  0  0  0  0  0  0
   -3.0513   -0.7600    6.1501 H   0  0  0  0  0  0  0  0  0  0  0  0
   -1.2217   -1.4208    3.6682 H   0  0  0  0  0  0  0  0  0  0  0  0
   -0.6989   -0.9327    5.2975 H   0  0  0  0  0  0  0  0  0  0  0  0
   -1.6894   -3.5352    4.2484 H   0  0  0  0  0  0  0  0  0  0  0  0
   -1.8179   -3.1618    6.0019 H   0  0  0  0  0  0  0  0  0  0  0  0
   -1.2082    0.2736    2.7835 H   0  0  0  0  0  0  0  0  0  0  0  0
  1  2  1  0  0  0  0
  1 42  1  0  0  0  0
  2  3  2  0  0  0  0
  2  4  1  0  0  0  0
  4  5  2  0  0  0  0
  4 41  1  0  0  0  0
  5  6  1  0  0  0  0
  5 43  1  0  0  0  0
  6  7  2  0  0  0  0
  6 44  1  0  0  0  0
  7  8  1  0  0  0  0
  7 40  1  0  0  0  0
  8  9  2  0  0  0  0
  9 10  1  0  0  0  0
  9 34  1  0  0  0  0
 10 11  1  0  0  0  0
 10 45  1  0  0  0  0
 10 46  1  0  0  0  0
 11 12  1  0  0  0  0
 11 16  1  0  0  0  0
 12 13  1  0  0  0  0
 12 47  1  0  0  0  0
 12 48  1  0  0  0  0
 13 14  1  0  0  0  0
 13 49  1  0  0  0  0
 13 50  1  0  0  0  0
 14 15  1  0  0  0  0
 14 17  1  0  0  0  0
 14 51  1  0  0  0  0
 15 16  1  0  0  0  0
 15 52  1  0  0  0  0
 15 53  1  0  0  0  0
 16 54  1  0  0  0  0
 16 55  1  0  0  0  0
 17 18  2  0  0  0  0
 17 33  1  0  0  0  0
 18 19  1  0  0  0  0
 19 20  1  0  0  0  0
 19 31  2  0  0  0  0
 20 21  1  0  0  0  0
 21 22  1  0  0  0  0
 21 56  1  0  0  0  0
 21 57  1  0  0  0  0
 22 23  2  0  0  0  0
 22 27  1  0  0  0  0
 23 24  1  0  0  0  0
 23 58  1  0  0  0  0
 24 25  2  0  0  0  0
 24 59  1  0  0  0  0
 25 26  1  0  0  0  0
 25 29  1  0  0  0  0
 26 27  2  0  0  0  0
 26 60  1  0  0  0  0
 27 28  1  0  0  0  0
 29 30  3  0  0  0  0
 31 32  1  0  0  0  0
 31 61  1  0  0  0  0
 32 33  2  0  0  0  0
 32 62  1  0  0  0  0
 33 63  1  0  0  0  0
 34 35  1  0  0  0  0
 34 40  1  0  0  0  0
 35 64  1  0  0  0  0
 35 65  1  0  0  0  0
 36 35  1  0  0  0  0
 36 37  1  0  0  0  0
 36 39  1  0  0  0  0
 36 66  1  1  0  0  0
 37 38  1  0  0  0  0
 37 67  1  0  0  0  0
 37 68  1  0  0  0  0
 38 39  1  0  0  0  0
 38 69  1  0  0  0  0
 38 70  1  0  0  0  0
 40 41  2  0  0  0  0
 41 71  1  0  0  0  0
M  END
>  <DRUGBANK_ID>
DB16043

>  <COMMON_NAME>
PF-06882961

>  <CAS_NUMBER>
2230198-02-2

>  <UNII>
DN9IUI24GP

$$$$
