
 OpenBabel10282417193D

 56 57  0  0  0  0  0  0  0  0999 V2000
    1.0314   -0.0276    0.0497 C   0  0  0  0  0  0  0  0  0  0  0  0
    0.4798   -1.2349   -0.4566 O   0  0  0  0  0  0  0  0  0  0  0  0
    0.8021   -1.4776   -1.7725 C   0  0  0  0  0  0  0  0  0  0  0  0
    2.1050   -1.3124   -2.2696 C   0  0  0  0  0  0  0  0  0  0  0  0
    2.4311   -1.7431   -3.5631 C   0  0  0  0  0  0  0  0  0  0  0  0
    1.4834   -2.4330   -4.3232 C   0  0  0  0  0  0  0  0  0  0  0  0
    0.2089   -2.6105   -3.7854 C   0  0  0  0  0  0  0  0  0  0  0  0
   -0.1907   -2.0764   -2.5638 C   0  0  0  0  0  0  0  0  0  0  0  0
   -1.4872   -2.2430   -2.1011 N   0  0  0  0  0  0  0  0  0  0  0  0
   -2.6033   -2.6063   -2.9819 C   0  0  0  0  0  0  0  0  0  0  0  0
   -3.4592   -3.6600   -2.3190 C   0  0  0  0  0  0  0  0  0  0  0  0
   -4.6776   -3.5969   -2.1472 O   0  0  0  0  0  0  0  0  0  0  0  0
   -2.7656   -4.7513   -1.9361 O   0  0  0  0  0  0  0  0  0  0  0  0
    1.7955   -2.9724   -5.6904 C   0  0  0  0  0  0  0  0  0  0  0  0
    1.4122   -4.7120   -5.8648 S   0  0  0  0  0  0  0  0  0  0  0  0
   -0.0097   -4.9292   -5.7416 O   0  0  0  0  0  0  0  0  0  0  0  0
    2.0624   -5.1481   -7.1002 O   0  0  0  0  0  0  0  0  0  0  0  0
    2.1840   -5.5201   -4.5289 C   0  0  0  0  0  0  0  0  0  0  0  0
    3.3883   -5.1555   -4.0547 C   0  0  0  0  0  0  0  0  0  0  0  0
    4.2203   -5.9728   -3.1340 C   0  0  0  0  0  0  0  0  0  0  0  0
    4.9504   -7.0860   -3.6086 C   0  0  0  0  0  0  0  0  0  0  0  0
    5.9055   -7.6995   -2.7745 C   0  0  0  0  0  0  0  0  0  0  0  0
    6.2011   -7.2167   -1.5040 C   0  0  0  0  0  0  0  0  0  0  0  0
    5.5130   -6.1109   -1.0424 C   0  0  0  0  0  0  0  0  0  0  0  0
    4.4696   -5.5574   -1.7948 C   0  0  0  0  0  0  0  0  0  0  0  0
    3.7747   -4.6594   -1.0241 O   0  0  0  0  0  0  0  0  0  0  0  0
    2.5367   -4.2471   -1.5398 C   0  0  0  0  0  0  0  0  0  0  0  0
    7.1046   -7.7517   -0.6295 O   0  0  0  0  0  0  0  0  0  0  0  0
    7.6930   -8.9880   -1.0175 C   0  0  0  0  0  0  0  0  0  0  0  0
    4.9279   -7.7048   -4.8393 O   0  0  0  0  0  0  0  0  0  0  0  0
    3.9362   -7.3543   -5.7832 C   0  0  0  0  0  0  0  0  0  0  0  0
    0.6518    0.1159    1.0651 H   0  0  0  0  0  0  0  0  0  0  0  0
    0.7022    0.8136   -0.5665 H   0  0  0  0  0  0  0  0  0  0  0  0
    2.1230   -0.0630    0.1154 H   0  0  0  0  0  0  0  0  0  0  0  0
    2.9189   -1.0150   -1.6121 H   0  0  0  0  0  0  0  0  0  0  0  0
    3.4742   -1.7104   -3.8764 H   0  0  0  0  0  0  0  0  0  0  0  0
   -0.4856   -3.2346   -4.3289 H   0  0  0  0  0  0  0  0  0  0  0  0
   -1.7196   -1.6725   -1.2919 H   0  0  0  0  0  0  0  0  0  0  0  0
   -3.2076   -1.7230   -3.2151 H   0  0  0  0  0  0  0  0  0  0  0  0
   -2.3181   -3.0312   -3.9481 H   0  0  0  0  0  0  0  0  0  0  0  0
   -3.4139   -5.3367   -1.4997 H   0  0  0  0  0  0  0  0  0  0  0  0
    1.2028   -2.4324   -6.4344 H   0  0  0  0  0  0  0  0  0  0  0  0
    2.8532   -2.8483   -5.9403 H   0  0  0  0  0  0  0  0  0  0  0  0
    1.7119   -6.4494   -4.2369 H   0  0  0  0  0  0  0  0  0  0  0  0
    3.8718   -4.2245   -4.3398 H   0  0  0  0  0  0  0  0  0  0  0  0
    6.4357   -8.5563   -3.1759 H   0  0  0  0  0  0  0  0  0  0  0  0
    5.7564   -5.6837   -0.0698 H   0  0  0  0  0  0  0  0  0  0  0  0
    2.7987   -3.6402   -2.3838 H   0  0  0  0  0  0  0  0  0  0  0  0
    1.8652   -5.0552   -1.8426 H   0  0  0  0  0  0  0  0  0  0  0  0
    2.0229   -3.6214   -0.8148 H   0  0  0  0  0  0  0  0  0  0  0  0
    6.9319   -9.7517   -1.2155 H   0  0  0  0  0  0  0  0  0  0  0  0
    8.3427   -8.8436   -1.8861 H   0  0  0  0  0  0  0  0  0  0  0  0
    8.3121   -9.3466   -0.1904 H   0  0  0  0  0  0  0  0  0  0  0  0
    2.9522   -7.6312   -5.3975 H   0  0  0  0  0  0  0  0  0  0  0  0
    4.0546   -6.3068   -6.0674 H   0  0  0  0  0  0  0  0  0  0  0  0
    4.0422   -7.9156   -6.7112 H   0  0  0  0  0  0  0  0  0  0  0  0
  1  2  1  0  0  0  0
  1 32  1  0  0  0  0
  1 33  1  0  0  0  0
  1 34  1  0  0  0  0
  2  3  1  0  0  0  0
  3  4  2  0  0  0  0
  3  8  1  0  0  0  0
  4  5  1  0  0  0  0
  4 35  1  0  0  0  0
  5  6  2  0  0  0  0
  5 36  1  0  0  0  0
  6  7  1  0  0  0  0
  6 14  1  0  0  0  0
  7  8  2  0  0  0  0
  7 37  1  0  0  0  0
  8  9  1  0  0  0  0
  9 10  1  0  0  0  0
  9 38  1  0  0  0  0
 10 11  1  0  0  0  0
 10 39  1  0  0  0  0
 10 40  1  0  0  0  0
 11 12  2  0  0  0  0
 11 13  1  0  0  0  0
 13 41  1  0  0  0  0
 14 15  1  0  0  0  0
 14 42  1  0  0  0  0
 14 43  1  0  0  0  0
 15 16  2  0  0  0  0
 15 17  2  0  0  0  0
 15 18  1  0  0  0  0
 18 19  2  0  0  0  0
 18 44  1  0  0  0  0
 19 20  1  0  0  0  0
 19 45  1  0  0  0  0
 20 21  2  0  0  0  0
 20 25  1  0  0  0  0
 21 22  1  0  0  0  0
 21 30  1  0  0  0  0
 22 23  2  0  0  0  0
 22 46  1  0  0  0  0
 23 24  1  0  0  0  0
 23 28  1  0  0  0  0
 24 25  2  0  0  0  0
 24 47  1  0  0  0  0
 25 26  1  0  0  0  0
 26 27  1  0  0  0  0
 27 48  1  0  0  0  0
 27 49  1  0  0  0  0
 27 50  1  0  0  0  0
 28 29  1  0  0  0  0
 29 51  1  0  0  0  0
 29 52  1  0  0  0  0
 29 53  1  0  0  0  0
 30 31  1  0  0  0  0
 31 54  1  0  0  0  0
 31 55  1  0  0  0  0
 31 56  1  0  0  0  0
M  END
>  <DRUGBANK_ID>
DB12146

>  <COMMON_NAME>
Rigosertib

>  <CAS_NUMBER>
592542-59-1

>  <UNII>
67DOW7F9GL

>  <SYNONYMS>
Rigosertib

$$$$
