GNR
 OpenBabel10282417123D

 26 27  0  0  0  0  0  0  0  0999 V2000
    3.0752    1.1915   -0.1103 O   0  0  0  0  0  0  0  0  0  0  0  0
    1.9742    0.6785    0.0761 C   0  0  0  0  0  0  0  0  0  0  0  0
    0.8154    1.3778   -0.1936 N   0  0  0  0  0  0  0  0  0  0  0  0
   -0.4850    0.8342   -0.1501 C   0  0  0  0  0  0  0  0  0  0  0  0
   -1.5743    1.6914   -0.0235 C   0  0  0  0  0  0  0  0  0  0  0  0
   -2.8651    1.1627    0.0722 C   0  0  0  0  0  0  0  0  0  0  0  0
   -3.0699   -0.2186    0.0537 C   0  0  0  0  0  0  0  0  0  0  0  0
   -1.9845   -1.0820   -0.0789 C   0  0  0  0  0  0  0  0  0  0  0  0
   -0.6986   -0.5538   -0.2131 C   0  0  0  0  0  0  0  0  0  0  0  0
    0.6993   -1.6399   -0.4222 S   0  0  0  0  0  0  0  0  0  0  0  0
    1.8144   -0.7068    0.7002 C   0  0  2  0  0  0  0  0  0  0  0  0
    1.2845   -0.5977    2.1427 C   0  0  0  0  0  0  0  0  0  0  0  0
    1.6878   -1.7586    3.0199 C   0  0  0  0  0  0  0  0  0  0  0  0
    2.4172   -1.5730    4.0008 O   0  0  0  0  0  0  0  0  0  0  0  0
    1.2420   -3.0090    2.7544 N   0  0  0  0  0  0  0  0  0  0  0  0
    0.2237   -3.3574    1.8640 O   0  0  0  0  0  0  0  0  0  0  0  0
    2.7897   -1.2063    0.6931 H   0  0  0  0  0  0  0  0  0  0  0  0
    0.9438    2.3401   -0.4800 H   0  0  0  0  0  0  0  0  0  0  0  0
   -1.4318    2.7659    0.0454 H   0  0  0  0  0  0  0  0  0  0  0  0
   -3.7173    1.8311    0.1707 H   0  0  0  0  0  0  0  0  0  0  0  0
   -4.0771   -0.6222    0.1346 H   0  0  0  0  0  0  0  0  0  0  0  0
   -2.1521   -2.1574   -0.0658 H   0  0  0  0  0  0  0  0  0  0  0  0
    1.7101    0.3050    2.6073 H   0  0  0  0  0  0  0  0  0  0  0  0
    0.2006   -0.4658    2.2289 H   0  0  0  0  0  0  0  0  0  0  0  0
    1.5352   -3.7554    3.3763 H   0  0  0  0  0  0  0  0  0  0  0  0
    0.1932   -2.6454    1.1998 H   0  0  0  0  0  0  0  0  0  0  0  0
  1  2  2  0  0  0  0
  2  3  1  0  0  0  0
  2 11  1  0  0  0  0
  3  4  1  0  0  0  0
  3 18  1  0  0  0  0
  4  5  2  0  0  0  0
  4  9  1  0  0  0  0
  5  6  1  0  0  0  0
  5 19  1  0  0  0  0
  6  7  2  0  0  0  0
  6 20  1  0  0  0  0
  7  8  1  0  0  0  0
  7 21  1  0  0  0  0
  8  9  2  0  0  0  0
  8 22  1  0  0  0  0
  9 10  1  0  0  0  0
 10 11  1  0  0  0  0
 11 17  1  1  0  0  0
 11 12  1  0  0  0  0
 12 13  1  0  0  0  0
 12 23  1  0  0  0  0
 12 24  1  0  0  0  0
 13 14  2  0  0  0  0
 13 15  1  0  0  0  0
 15 16  1  0  0  0  0
 15 25  1  0  0  0  0
 16 26  1  0  0  0  0
M  END
>  <DRUGBANK_ID>
DB02036

>  <SECONDARY_ACCESSION_NUMBERS>
EXPT01627

>  <COMMON_NAME>
2-(3,4-Dihydro-3-Oxo-2h-Benzo[B][1,4]Thiazin-2-Yl)-N-Hydroxyacetamide

$$$$
