
 OpenBabel10282417223D

221226  0  0  0  0  0  0  0  0999 V2000
  -15.1879    8.0470   -3.1524 C   0  0  0  0  0  0  0  0  0  0  0  0
  -16.0319    7.7253   -2.0802 C   0  0  0  0  0  0  0  0  0  0  0  0
  -15.6969    8.1135   -0.7710 C   0  0  0  0  0  0  0  0  0  0  0  0
  -14.5457    8.8648   -0.5444 C   0  0  0  0  0  0  0  0  0  0  0  0
  -13.7069    9.1885   -1.5918 C   0  0  0  0  0  0  0  0  0  0  0  0
  -13.9874    8.7061   -2.8638 C   0  0  0  0  0  0  0  0  0  0  0  0
  -13.8654    9.9819   -6.7783 N   0  0  0  0  0  0  0  0  0  0  0  0
  -11.6517    6.9657  -17.8784 N   0  0  0  0  0  0  0  0  0  0  0  0
  -10.9726    7.5947  -16.8631 C   0  0  0  0  0  0  0  0  0  0  0  0
   -9.6649    7.5568  -17.2907 C   0  0  0  0  0  0  0  0  0  0  0  0
   -9.5112    6.6106  -18.2561 N   0  0  0  0  0  0  0  0  0  0  0  0
  -10.7264    6.4130  -18.7039 C   0  0  0  0  0  0  0  0  0  0  0  0
   -5.2890    5.8031  -15.4086 C   0  0  0  0  0  0  0  0  0  0  0  0
   -4.5958    6.4780  -16.3846 C   0  0  0  0  0  0  0  0  0  0  0  0
   -3.3656    6.0846  -16.8571 C   0  0  0  0  0  0  0  0  0  0  0  0
   -2.9065    4.8340  -16.5981 C   0  0  0  0  0  0  0  0  0  0  0  0
   -3.6766    4.0235  -15.7862 C   0  0  0  0  0  0  0  0  0  0  0  0
   -4.8357    4.5152  -15.1487 C   0  0  0  0  0  0  0  0  0  0  0  0
  -10.7523   12.6074  -23.3351 N   0  0  0  0  0  0  0  0  0  0  0  0
  -11.8296   12.1055  -22.4796 C   0  0  1  0  0  0  0  0  0  0  0  0
  -12.2344   10.8674  -23.2869 C   0  0  0  0  0  0  0  0  0  0  0  0
  -12.2880   11.4453  -24.6955 C   0  0  0  0  0  0  0  0  0  0  0  0
  -11.2198   12.5404  -24.7000 C   0  0  0  0  0  0  0  0  0  0  0  0
   -9.0558   10.3650  -18.9066 C   0  0  0  0  0  0  0  0  0  0  0  0
   -7.7219   10.5903  -18.9492 C   0  0  0  0  0  0  0  0  0  0  0  0
   -7.0448    9.7797  -19.7952 C   0  0  0  0  0  0  0  0  0  0  0  0
   -9.6543    9.2470  -19.5507 C   0  0  0  0  0  0  0  0  0  0  0  0
   -8.8471    8.2984  -20.1743 C   0  0  0  0  0  0  0  0  0  0  0  0
   -7.5838    8.6710  -20.4879 C   0  0  0  0  0  0  0  0  0  0  0  0
   -7.2301    7.7343  -21.5230 C   0  0  0  0  0  0  0  0  0  0  0  0
   -8.5374    7.4533  -22.1325 C   0  0  0  0  0  0  0  0  0  0  0  0
   -8.9731    7.0393  -20.8164 N   0  0  0  0  0  0  0  0  0  0  0  0
   -5.7504    7.1363  -21.5634 C   0  0  0  0  0  0  0  0  0  0  0  0
   -4.5039    8.0839  -21.1278 C   0  0  2  0  0  0  0  0  0  0  0  0
   -4.8203    8.7095  -19.7990 N   0  0  0  0  0  0  0  0  0  0  0  0
   -4.0667    8.8645  -18.7061 C   0  0  0  0  0  0  0  0  0  0  0  0
   -4.5958    9.7630  -17.3636 C   0  0  1  0  0  0  0  0  0  0  0  0
   -5.0462    9.1440  -16.0584 N   0  0  0  0  0  0  0  0  0  0  0  0
   -3.9567    9.0979  -22.2538 C   0  0  0  0  0  0  0  0  0  0  0  0
   -2.7492    9.2102  -22.4923 O   0  0  0  0  0  0  0  0  0  0  0  0
   -4.7990    9.9106  -22.9867 N   0  0  0  0  0  0  0  0  0  0  0  0
   -6.1852   10.0936  -22.7156 C   0  0  0  0  0  0  0  0  0  0  0  0
   -6.6938   11.3839  -22.1123 C   0  0  0  0  0  0  0  0  0  0  0  0
   -7.9416   11.7899  -22.5425 N   0  0  0  0  0  0  0  0  0  0  0  0
   -6.0197   11.9599  -21.2582 O   0  0  0  0  0  0  0  0  0  0  0  0
   -8.5425   13.0436  -22.0709 C   0  0  2  0  0  0  0  0  0  0  0  0
   -9.7210   13.4793  -23.0424 C   0  0  0  0  0  0  0  0  0  0  0  0
   -7.4390   14.1266  -22.1363 C   0  0  0  0  0  0  0  0  0  0  0  0
   -7.8491   15.4893  -21.6276 C   0  0  0  0  0  0  0  0  0  0  0  0
   -8.2674   15.4407  -20.1577 C   0  0  0  0  0  0  0  0  0  0  0  0
   -7.1438   14.9938  -19.2192 C   0  0  0  0  0  0  0  0  0  0  0  0
   -6.0096   15.9071  -19.3164 N   0  0  0  0  0  0  0  0  0  0  0  0
  -11.3142   11.7370  -21.1564 C   0  0  0  0  0  0  0  0  0  0  0  0
  -10.3668   10.8963  -21.1843 O   0  0  0  0  0  0  0  0  0  0  0  0
  -11.7179   12.3173  -20.0151 N   0  0  0  0  0  0  0  0  0  0  0  0
  -12.6265   13.4576  -19.8710 C   0  0  1  0  0  0  0  0  0  0  0  0
  -13.8445   13.0599  -19.0174 C   0  0  0  0  0  0  0  0  0  0  0  0
  -13.4832   12.7511  -17.5621 C   0  0  0  0  0  0  0  0  0  0  0  0
  -14.8924   14.1679  -19.0870 C   0  0  0  0  0  0  0  0  0  0  0  0
  -11.8904   14.6919  -19.3153 C   0  0  0  0  0  0  0  0  0  0  0  0
   -3.5800   10.8420  -16.9484 C   0  0  0  0  0  0  0  0  0  0  0  0
   -2.2548   10.2835  -16.4131 C   0  0  0  0  0  0  0  0  0  0  0  0
   -1.4251    9.5415  -17.4285 C   0  0  0  0  0  0  0  0  0  0  0  0
   -1.2334   10.3267  -18.6364 N   0  0  0  0  0  0  0  0  0  0  0  0
   -0.0173   10.3645  -19.2088 C   0  0  0  0  0  0  0  0  0  0  0  0
    0.1275   11.2385  -20.2148 N   0  0  0  0  0  0  0  0  0  0  0  0
    0.9633    9.6904  -18.7235 N   0  0  0  0  0  0  0  0  0  0  0  0
  -11.8687   15.7582  -20.1442 O   0  0  0  0  0  0  0  0  0  0  0  0
  -11.3299   14.7219  -18.2242 O   0  0  0  0  0  0  0  0  0  0  0  0
   -9.6544   14.5251  -23.6954 O   0  0  0  0  0  0  0  0  0  0  0  0
   -6.3703    8.9502  -15.6833 C   0  0  0  0  0  0  0  0  0  0  0  0
   -6.7067    7.8887  -14.5367 C   0  0  1  0  0  0  0  0  0  0  0  0
   -8.0791    8.2604  -14.0268 N   0  0  0  0  0  0  0  0  0  0  0  0
   -7.2604    9.5985  -16.2335 O   0  0  0  0  0  0  0  0  0  0  0  0
   -6.6063    6.3700  -14.9538 C   0  0  0  0  0  0  0  0  0  0  0  0
   -9.2256    7.6699  -14.5067 C   0  0  0  0  0  0  0  0  0  0  0  0
  -10.5970    8.3823  -14.4134 C   0  0  2  0  0  0  0  0  0  0  0  0
  -11.5852    8.0155  -15.5703 C   0  0  0  0  0  0  0  0  0  0  0  0
  -10.6189    9.8227  -14.1349 N   0  0  0  0  0  0  0  0  0  0  0  0
   -9.2016    6.5047  -14.9057 O   0  0  0  0  0  0  0  0  0  0  0  0
  -11.0600   10.2586  -12.8989 C   0  0  0  0  0  0  0  0  0  0  0  0
  -11.3871    9.4576  -12.0229 O   0  0  0  0  0  0  0  0  0  0  0  0
  -11.0757   11.7883  -12.6599 C   0  0  2  0  0  0  0  0  0  0  0  0
   -9.6375   12.3567  -12.6169 C   0  0  0  0  0  0  0  0  0  0  0  0
   -9.0876   12.6385  -11.2043 C   0  0  0  0  0  0  0  0  0  0  0  0
   -9.0598   11.3863  -10.3605 C   0  0  0  0  0  0  0  0  0  0  0  0
   -7.8725   10.9973   -9.8877 O   0  0  0  0  0  0  0  0  0  0  0  0
  -10.0744   10.7546  -10.1090 O   0  0  0  0  0  0  0  0  0  0  0  0
  -11.7721   12.0961  -11.4069 N   0  0  0  0  0  0  0  0  0  0  0  0
  -12.9099   12.8315  -11.3004 C   0  0  0  0  0  0  0  0  0  0  0  0
  -13.3295   13.2432   -9.8360 C   0  0  1  0  0  0  0  0  0  0  0  0
  -12.7664   12.3013   -8.8733 N   0  0  0  0  0  0  0  0  0  0  0  0
  -13.4479   13.2401  -12.3238 O   0  0  0  0  0  0  0  0  0  0  0  0
  -13.1087   14.7332   -9.6189 C   0  0  0  0  0  0  0  0  0  0  0  0
  -13.7918   15.5813  -10.7085 C   0  0  0  0  0  0  0  0  0  0  0  0
  -15.6474   15.5280  -10.7442 S   0  0  0  0  0  0  0  0  0  0  0  0
  -16.1133   13.8110  -11.1956 C   0  0  0  0  0  0  0  0  0  0  0  0
  -13.0108   12.2703   -7.5015 C   0  0  0  0  0  0  0  0  0  0  0  0
  -12.6985   10.8755   -6.8552 C   0  0  2  0  0  0  0  0  0  0  0  0
  -14.6210    9.9793   -5.6223 C   0  0  0  0  0  0  0  0  0  0  0  0
  -15.7917    8.9566   -5.5104 C   0  0  2  0  0  0  0  0  0  0  0  0
  -15.5355    7.7278   -4.5929 C   0  0  0  0  0  0  0  0  0  0  0  0
  -14.1661    9.2884    0.6936 O   0  0  0  0  0  0  0  0  0  0  0  0
  -16.2302    8.5114   -6.8517 N   0  0  0  0  0  0  0  0  0  0  0  0
  -14.3015   10.7080   -4.6856 O   0  0  0  0  0  0  0  0  0  0  0  0
  -11.5424   10.2004   -7.5932 C   0  0  0  0  0  0  0  0  0  0  0  0
  -10.4013   11.0526   -7.5434 O   0  0  0  0  0  0  0  0  0  0  0  0
  -13.4681   13.2176   -6.8734 O   0  0  0  0  0  0  0  0  0  0  0  0
  -17.4568    8.9096   -7.3526 C   0  0  0  0  0  0  0  0  0  0  0  0
  -17.7846    8.4495   -8.7891 C   0  0  1  0  0  0  0  0  0  0  0  0
  -19.0095    7.6361   -8.7782 N   0  0  0  0  0  0  0  0  0  0  0  0
  -18.2183    9.6256   -6.7067 O   0  0  0  0  0  0  0  0  0  0  0  0
  -17.9780    9.7080   -9.6494 C   0  0  0  0  0  0  0  0  0  0  0  0
  -16.7588   10.4553   -9.7099 O   0  0  0  0  0  0  0  0  0  0  0  0
   -3.1130    8.1075  -18.7949 O   0  0  0  0  0  0  0  0  0  0  0  0
  -16.9517    7.1681   -2.2476 H   0  0  0  0  0  0  0  0  0  0  0  0
  -16.3502    7.8352    0.0495 H   0  0  0  0  0  0  0  0  0  0  0  0
  -12.8351    9.8162   -1.4360 H   0  0  0  0  0  0  0  0  0  0  0  0
  -13.2656    8.9210   -3.6453 H   0  0  0  0  0  0  0  0  0  0  0  0
  -14.3034    9.6548   -7.6276 H   0  0  0  0  0  0  0  0  0  0  0  0
  -12.6468    6.8818  -18.0074 H   0  0  0  0  0  0  0  0  0  0  0  0
   -8.8015    8.0702  -16.8976 H   0  0  0  0  0  0  0  0  0  0  0  0
  -10.9617    5.9617  -19.6576 H   0  0  0  0  0  0  0  0  0  0  0  0
   -5.0914    7.2737  -16.9002 H   0  0  0  0  0  0  0  0  0  0  0  0
   -2.7924    6.6682  -17.5418 H   0  0  0  0  0  0  0  0  0  0  0  0
   -2.0122    4.5240  -17.1261 H   0  0  0  0  0  0  0  0  0  0  0  0
   -3.3808    2.9887  -15.6891 H   0  0  0  0  0  0  0  0  0  0  0  0
   -5.4227    3.8436  -14.5314 H   0  0  0  0  0  0  0  0  0  0  0  0
  -12.6764   12.7914  -22.4484 H   0  0  0  0  0  0  0  0  0  0  0  0
  -11.4614   10.0837  -23.2440 H   0  0  0  0  0  0  0  0  0  0  0  0
  -13.1727   10.4138  -22.9563 H   0  0  0  0  0  0  0  0  0  0  0  0
  -12.1040   10.6924  -25.4644 H   0  0  0  0  0  0  0  0  0  0  0  0
  -13.2772   11.8824  -24.8672 H   0  0  0  0  0  0  0  0  0  0  0  0
  -10.3625   12.3028  -25.3326 H   0  0  0  0  0  0  0  0  0  0  0  0
  -11.6418   13.5054  -25.0042 H   0  0  0  0  0  0  0  0  0  0  0  0
   -9.6316   11.1441  -18.4443 H   0  0  0  0  0  0  0  0  0  0  0  0
   -7.1983   11.4356  -18.5166 H   0  0  0  0  0  0  0  0  0  0  0  0
   -6.0712   10.2067  -20.0076 H   0  0  0  0  0  0  0  0  0  0  0  0
  -10.7216    9.1853  -19.6639 H   0  0  0  0  0  0  0  0  0  0  0  0
   -9.4929    8.0074  -22.3470 H   0  0  0  0  0  0  0  0  0  0  0  0
   -8.4627    6.2057  -20.5343 H   0  0  0  0  0  0  0  0  0  0  0  0
   -5.5044    6.5881  -22.4775 H   0  0  0  0  0  0  0  0  0  0  0  0
   -5.7951    6.3873  -20.7500 H   0  0  0  0  0  0  0  0  0  0  0  0
   -3.6272    7.4373  -20.9457 H   0  0  0  0  0  0  0  0  0  0  0  0
   -5.6376    8.2574  -19.4271 H   0  0  0  0  0  0  0  0  0  0  0  0
   -5.4700   10.3051  -17.7148 H   0  0  0  0  0  0  0  0  0  0  0  0
   -4.3243    8.6893  -15.5100 H   0  0  0  0  0  0  0  0  0  0  0  0
   -4.3714   10.5718  -23.6150 H   0  0  0  0  0  0  0  0  0  0  0  0
   -6.8534    9.6096  -23.4251 H   0  0  0  0  0  0  0  0  0  0  0  0
   -6.1801    9.4946  -21.8635 H   0  0  0  0  0  0  0  0  0  0  0  0
   -8.5644   11.1092  -22.9646 H   0  0  0  0  0  0  0  0  0  0  0  0
   -8.8890   12.9010  -21.0397 H   0  0  0  0  0  0  0  0  0  0  0  0
   -6.5581   13.8763  -21.5474 H   0  0  0  0  0  0  0  0  0  0  0  0
   -7.0488   14.1686  -23.1599 H   0  0  0  0  0  0  0  0  0  0  0  0
   -7.0030   16.1675  -21.7766 H   0  0  0  0  0  0  0  0  0  0  0  0
   -8.6567   15.9067  -22.2236 H   0  0  0  0  0  0  0  0  0  0  0  0
   -8.6287   16.4323  -19.8695 H   0  0  0  0  0  0  0  0  0  0  0  0
   -9.1199   14.7641  -20.0352 H   0  0  0  0  0  0  0  0  0  0  0  0
   -7.5140   14.9697  -18.1906 H   0  0  0  0  0  0  0  0  0  0  0  0
   -6.8165   13.9736  -19.4495 H   0  0  0  0  0  0  0  0  0  0  0  0
   -5.2412   15.5551  -18.7513 H   0  0  0  0  0  0  0  0  0  0  0  0
   -5.6561   15.9019  -20.2739 H   0  0  0  0  0  0  0  0  0  0  0  0
  -11.2387   12.0236  -19.1696 H   0  0  0  0  0  0  0  0  0  0  0  0
  -12.9959   13.7306  -20.8553 H   0  0  0  0  0  0  0  0  0  0  0  0
  -14.2879   12.1483  -19.4460 H   0  0  0  0  0  0  0  0  0  0  0  0
  -13.0654   13.6257  -17.0580 H   0  0  0  0  0  0  0  0  0  0  0  0
  -14.3684   12.4545  -16.9929 H   0  0  0  0  0  0  0  0  0  0  0  0
  -12.7523   11.9385  -17.4967 H   0  0  0  0  0  0  0  0  0  0  0  0
  -15.1991   14.3417  -20.1245 H   0  0  0  0  0  0  0  0  0  0  0  0
  -15.7810   13.9044  -18.5079 H   0  0  0  0  0  0  0  0  0  0  0  0
  -14.4942   15.1075  -18.6914 H   0  0  0  0  0  0  0  0  0  0  0  0
   -3.4199   11.5395  -17.7761 H   0  0  0  0  0  0  0  0  0  0  0  0
   -4.0211   11.4416  -16.1363 H   0  0  0  0  0  0  0  0  0  0  0  0
   -1.6467   11.0939  -16.0070 H   0  0  0  0  0  0  0  0  0  0  0  0
   -2.4497    9.5908  -15.5859 H   0  0  0  0  0  0  0  0  0  0  0  0
   -0.4888    9.1867  -17.0002 H   0  0  0  0  0  0  0  0  0  0  0  0
   -1.8658    8.5763  -17.5516 H   0  0  0  0  0  0  0  0  0  0  0  0
   -2.0351   10.6175  -19.1829 H   0  0  0  0  0  0  0  0  0  0  0  0
    1.0178   11.2985  -20.6842 H   0  0  0  0  0  0  0  0  0  0  0  0
   -0.6587   11.6521  -20.6943 H   0  0  0  0  0  0  0  0  0  0  0  0
    1.8159    9.8887  -19.2301 H   0  0  0  0  0  0  0  0  0  0  0  0
  -12.2398   15.6554  -21.0414 H   0  0  0  0  0  0  0  0  0  0  0  0
   -6.0171    8.0735  -13.7038 H   0  0  0  0  0  0  0  0  0  0  0  0
   -8.1630    8.7121  -13.1247 H   0  0  0  0  0  0  0  0  0  0  0  0
   -6.9812    5.7610  -14.1174 H   0  0  0  0  0  0  0  0  0  0  0  0
   -7.2554    6.1827  -15.8173 H   0  0  0  0  0  0  0  0  0  0  0  0
  -11.0042    7.8833  -13.5269 H   0  0  0  0  0  0  0  0  0  0  0  0
  -12.1817    7.1590  -15.2204 H   0  0  0  0  0  0  0  0  0  0  0  0
  -12.3037    8.8229  -15.7540 H   0  0  0  0  0  0  0  0  0  0  0  0
  -10.4712   10.4689  -14.9044 H   0  0  0  0  0  0  0  0  0  0  0  0
  -11.6235   12.2361  -13.4978 H   0  0  0  0  0  0  0  0  0  0  0  0
   -8.9446   11.6880  -13.1399 H   0  0  0  0  0  0  0  0  0  0  0  0
   -9.6333   13.3026  -13.1747 H   0  0  0  0  0  0  0  0  0  0  0  0
   -8.0917   13.0821  -11.2644 H   0  0  0  0  0  0  0  0  0  0  0  0
   -9.7179   13.3809  -10.6946 H   0  0  0  0  0  0  0  0  0  0  0  0
   -7.1318   11.6101  -10.0270 H   0  0  0  0  0  0  0  0  0  0  0  0
  -11.4233   11.5991  -10.5906 H   0  0  0  0  0  0  0  0  0  0  0  0
  -14.3719   13.0414   -9.6895 H   0  0  0  0  0  0  0  0  0  0  0  0
  -12.7736   11.3832   -9.2863 H   0  0  0  0  0  0  0  0  0  0  0  0
  -13.4940   15.0513   -8.6425 H   0  0  0  0  0  0  0  0  0  0  0  0
  -12.0317   14.9471   -9.6053 H   0  0  0  0  0  0  0  0  0  0  0  0
  -13.5293   16.6304  -10.5181 H   0  0  0  0  0  0  0  0  0  0  0  0
  -13.3760   15.3986  -11.7042 H   0  0  0  0  0  0  0  0  0  0  0  0
  -15.6634   13.4681  -12.1265 H   0  0  0  0  0  0  0  0  0  0  0  0
  -15.9591   13.0779  -10.4055 H   0  0  0  0  0  0  0  0  0  0  0  0
  -17.1948   13.7712  -11.3305 H   0  0  0  0  0  0  0  0  0  0  0  0
  -12.3254   11.0869   -5.8439 H   0  0  0  0  0  0  0  0  0  0  0  0
  -16.6033    9.5379   -5.0576 H   0  0  0  0  0  0  0  0  0  0  0  0
  -14.7453    7.0899   -5.0080 H   0  0  0  0  0  0  0  0  0  0  0  0
  -16.4440    7.1048   -4.6005 H   0  0  0  0  0  0  0  0  0  0  0  0
  -14.7781    8.9307    1.3535 H   0  0  0  0  0  0  0  0  0  0  0  0
  -15.6188    7.9102   -7.3898 H   0  0  0  0  0  0  0  0  0  0  0  0
  -11.2764    9.2421   -7.1454 H   0  0  0  0  0  0  0  0  0  0  0  0
  -11.8115    9.9598   -8.6290 H   0  0  0  0  0  0  0  0  0  0  0  0
  -10.6197   11.8545   -8.0561 H   0  0  0  0  0  0  0  0  0  0  0  0
  -16.9518    7.8592   -9.1881 H   0  0  0  0  0  0  0  0  0  0  0  0
  -19.2546    7.3400   -9.7201 H   0  0  0  0  0  0  0  0  0  0  0  0
  -18.8851    6.8046   -8.2061 H   0  0  0  0  0  0  0  0  0  0  0  0
  -18.2442    9.4300  -10.6758 H   0  0  0  0  0  0  0  0  0  0  0  0
  -18.7767   10.3560   -9.2669 H   0  0  0  0  0  0  0  0  0  0  0  0
  -16.6668   10.8810   -8.8356 H   0  0  0  0  0  0  0  0  0  0  0  0
  1  2  2  0  0  0  0
  2  3  1  0  0  0  0
  2116  1  0  0  0  0
  3  4  2  0  0  0  0
  3117  1  0  0  0  0
  4  5  1  0  0  0  0
  4103  1  0  0  0  0
  5  6  2  0  0  0  0
  5118  1  0  0  0  0
  6  1  1  0  0  0  0
  6119  1  0  0  0  0
  7100  1  0  0  0  0
  7120  1  0  0  0  0
  8  9  1  0  0  0  0
  8121  1  0  0  0  0
  9 10  2  0  0  0  0
 10 11  1  0  0  0  0
 10122  1  0  0  0  0
 11 12  2  0  0  0  0
 12  8  1  0  0  0  0
 12123  1  0  0  0  0
 13 14  2  0  0  0  0
 14 15  1  0  0  0  0
 14124  1  0  0  0  0
 15 16  2  0  0  0  0
 15125  1  0  0  0  0
 16 17  1  0  0  0  0
 16126  1  0  0  0  0
 17 18  2  0  0  0  0
 17127  1  0  0  0  0
 18 13  1  0  0  0  0
 18128  1  0  0  0  0
 19 20  1  0  0  0  0
 20 21  1  0  0  0  0
 20129  1  1  0  0  0
 20 53  1  0  0  0  0
 21 22  1  0  0  0  0
 21130  1  0  0  0  0
 21131  1  0  0  0  0
 22 23  1  0  0  0  0
 22132  1  0  0  0  0
 22133  1  0  0  0  0
 23 19  1  0  0  0  0
 23134  1  0  0  0  0
 23135  1  0  0  0  0
 24 25  2  0  0  0  0
 24136  1  0  0  0  0
 25 26  1  0  0  0  0
 25137  1  0  0  0  0
 26 29  2  0  0  0  0
 26138  1  0  0  0  0
 27 24  1  0  0  0  0
 27139  1  0  0  0  0
 28 27  2  0  0  0  0
 28 29  1  0  0  0  0
 29 30  1  0  0  0  0
 30 31  2  0  0  0  0
 30 33  1  0  0  0  0
 31 32  1  0  0  0  0
 31140  1  0  0  0  0
 32 28  1  0  0  0  0
 32141  1  0  0  0  0
 33 34  1  0  0  0  0
 33142  1  0  0  0  0
 33143  1  0  0  0  0
 34 35  1  0  0  0  0
 34 39  1  0  0  0  0
 34144  1  1  0  0  0
 35 36  1  0  0  0  0
 35145  1  0  0  0  0
 36 37  1  0  0  0  0
 36115  2  0  0  0  0
 37 61  1  0  0  0  0
 37 38  1  0  0  0  0
 37146  1  6  0  0  0
 38 71  1  0  0  0  0
 38147  1  0  0  0  0
 39 40  2  0  0  0  0
 39 41  1  0  0  0  0
 41 42  1  0  0  0  0
 41148  1  0  0  0  0
 42 43  1  0  0  0  0
 42149  1  0  0  0  0
 42150  1  0  0  0  0
 43 44  1  0  0  0  0
 43 45  2  0  0  0  0
 44151  1  0  0  0  0
 46 48  1  0  0  0  0
 46152  1  1  0  0  0
 46 47  1  0  0  0  0
 46 44  1  0  0  0  0
 47 70  2  0  0  0  0
 47 19  1  0  0  0  0
 48 49  1  0  0  0  0
 48153  1  0  0  0  0
 48154  1  0  0  0  0
 49 50  1  0  0  0  0
 49155  1  0  0  0  0
 49156  1  0  0  0  0
 50 51  1  0  0  0  0
 50157  1  0  0  0  0
 50158  1  0  0  0  0
 51 52  1  0  0  0  0
 51159  1  0  0  0  0
 51160  1  0  0  0  0
 52161  1  0  0  0  0
 52162  1  0  0  0  0
 53 54  2  0  0  0  0
 53 55  1  0  0  0  0
 55 56  1  0  0  0  0
 55163  1  0  0  0  0
 56 57  1  0  0  0  0
 56 60  1  0  0  0  0
 56164  1  6  0  0  0
 57 58  1  0  0  0  0
 57 59  1  0  0  0  0
 57165  1  0  0  0  0
 58166  1  0  0  0  0
 58167  1  0  0  0  0
 58168  1  0  0  0  0
 59169  1  0  0  0  0
 59170  1  0  0  0  0
 59171  1  0  0  0  0
 60 68  1  0  0  0  0
 60 69  2  0  0  0  0
 61 62  1  0  0  0  0
 61172  1  0  0  0  0
 61173  1  0  0  0  0
 62 63  1  0  0  0  0
 62174  1  0  0  0  0
 62175  1  0  0  0  0
 63 64  1  0  0  0  0
 63176  1  0  0  0  0
 63177  1  0  0  0  0
 64 65  1  0  0  0  0
 64178  1  0  0  0  0
 65 66  1  0  0  0  0
 65 67  2  0  0  0  0
 66179  1  0  0  0  0
 66180  1  0  0  0  0
 67181  1  0  0  0  0
 68182  1  0  0  0  0
 71 74  2  0  0  0  0
 72 75  1  0  0  0  0
 72183  1  1  0  0  0
 72 73  1  0  0  0  0
 72 71  1  0  0  0  0
 73 76  1  0  0  0  0
 73184  1  0  0  0  0
 75 13  1  0  0  0  0
 75185  1  0  0  0  0
 75186  1  0  0  0  0
 76 80  2  0  0  0  0
 77 79  1  0  0  0  0
 77187  1  1  0  0  0
 77 78  1  0  0  0  0
 77 76  1  0  0  0  0
 78  9  1  0  0  0  0
 78188  1  0  0  0  0
 78189  1  0  0  0  0
 79 81  1  0  0  0  0
 79190  1  0  0  0  0
 81 82  2  0  0  0  0
 83 89  1  0  0  0  0
 83191  1  6  0  0  0
 83 84  1  0  0  0  0
 83 81  1  0  0  0  0
 84 85  1  0  0  0  0
 84192  1  0  0  0  0
 84193  1  0  0  0  0
 85 86  1  0  0  0  0
 85194  1  0  0  0  0
 85195  1  0  0  0  0
 86 87  1  0  0  0  0
 86 88  2  0  0  0  0
 87196  1  0  0  0  0
 89 90  1  0  0  0  0
 89197  1  0  0  0  0
 90 93  2  0  0  0  0
 91 94  1  0  0  0  0
 91198  1  1  0  0  0
 91 92  1  0  0  0  0
 91 90  1  0  0  0  0
 92 98  1  0  0  0  0
 92199  1  0  0  0  0
 94 95  1  0  0  0  0
 94200  1  0  0  0  0
 94201  1  0  0  0  0
 95 96  1  0  0  0  0
 95202  1  0  0  0  0
 95203  1  0  0  0  0
 96 97  1  0  0  0  0
 97204  1  0  0  0  0
 97205  1  0  0  0  0
 97206  1  0  0  0  0
 98108  2  0  0  0  0
 99106  1  0  0  0  0
 99207  1  1  0  0  0
 99  7  1  0  0  0  0
 99 98  1  0  0  0  0
100101  1  0  0  0  0
100105  2  0  0  0  0
101102  1  0  0  0  0
101104  1  0  0  0  0
101208  1  1  0  0  0
102  1  1  0  0  0  0
102209  1  0  0  0  0
102210  1  0  0  0  0
103211  1  0  0  0  0
104109  1  0  0  0  0
104212  1  0  0  0  0
106107  1  0  0  0  0
106213  1  0  0  0  0
106214  1  0  0  0  0
107215  1  0  0  0  0
109112  2  0  0  0  0
110109  1  0  0  0  0
110111  1  0  0  0  0
110113  1  0  0  0  0
110216  1  6  0  0  0
111217  1  0  0  0  0
111218  1  0  0  0  0
113114  1  0  0  0  0
113219  1  0  0  0  0
113220  1  0  0  0  0
114221  1  0  0  0  0
M  END
>  <DRUGBANK_ID>
DB15687

>  <COMMON_NAME>
Tridecactide

>  <CAS_NUMBER>
22006-64-0

>  <UNII>
T7PQK27HTI

>  <SYNONYMS>
alpha-1-13-corticotropin, human; Tridecactide

$$$$
