4842
 OpenBabel10282417143D

 66 70  0  0  1  0  0  0  0  0999 V2000
    2.4188    0.1007   -0.0040 F   0  0  0  0  0  0  0  0  0  0  0  0
   -5.0001   -2.2488    5.1361 F   0  0  0  0  0  0  0  0  0  0  0  0
   -4.9810    1.4386    2.3144 O   0  0  0  0  0  0  0  0  0  0  0  0
   -8.0382   -0.2346    1.7466 N   0  0  0  0  0  0  0  0  0  0  0  0
   -5.6616   -2.8508   -0.2629 N   0  0  0  0  0  0  0  0  0  0  0  0
   -7.0851    1.2484    3.1487 N   0  0  0  0  0  0  0  0  0  0  0  0
   -6.6360   -0.4250    1.4934 C   0  0  0  0  0  0  0  0  0  0  0  0
   -6.1777   -0.3327    0.0700 C   0  0  0  0  0  0  0  0  0  0  0  0
   -6.3133   -1.7685    2.1061 C   0  0  0  0  0  0  0  0  0  0  0  0
   -6.2829   -1.6242   -0.7889 C   0  0  0  0  0  0  0  0  0  0  0  0
   -6.0883   -3.0603    1.1396 C   0  0  0  0  0  0  0  0  0  0  0  0
   -6.0863    0.8321    2.3290 C   0  0  0  0  0  0  0  0  0  0  0  0
   -8.2025    0.3624    3.0644 C   0  0  0  0  0  0  0  0  0  0  0  0
   -4.2199   -3.1949   -0.6272 C   0  0  0  0  0  0  0  0  0  0  0  0
   -8.9279   -0.9451    0.9882 C   0  0  0  0  0  0  0  0  0  0  0  0
   -3.5050   -2.2518   -1.6026 C   0  0  0  0  0  0  0  0  0  0  0  0
   -3.5371   -0.7376   -1.2588 C   0  0  0  0  0  0  0  0  0  0  0  0
   -3.0408   -0.1666    0.2303 C   0  0  0  0  0  0  0  0  0  0  0  0
   -8.9953   -2.3424    0.8268 C   0  0  0  0  0  0  0  0  0  0  0  0
   -9.6631   -0.2018    0.0957 C   0  0  0  0  0  0  0  0  0  0  0  0
   -1.5948    0.0031    0.0057 C   0  0  0  0  0  0  0  0  0  0  0  0
   -3.1058   -0.8165    1.7111 C   0  0  0  0  0  0  0  0  0  0  0  0
   -9.6101   -2.9679   -0.2620 C   0  0  0  0  0  0  0  0  0  0  0  0
  -10.4876   -0.8250   -0.8349 C   0  0  0  0  0  0  0  0  0  0  0  0
  -10.4243   -2.1999   -1.0589 C   0  0  0  0  0  0  0  0  0  0  0  0
   -1.0051    1.2559   -0.0472 C   0  0  0  0  0  0  0  0  0  0  0  0
   -2.9030   -0.1927    2.9228 C   0  0  0  0  0  0  0  0  0  0  0  0
   -0.8820   -1.1979    0.0085 C   0  0  0  0  0  0  0  0  0  0  0  0
   -3.5714   -2.0877    1.9446 C   0  0  0  0  0  0  0  0  0  0  0  0
    0.3709    1.2754   -0.0468 C   0  0  0  0  0  0  0  0  0  0  0  0
   -3.4420   -0.7398    4.1490 C   0  0  0  0  0  0  0  0  0  0  0  0
    0.4720   -1.1724   -0.0135 C   0  0  0  0  0  0  0  0  0  0  0  0
   -3.9504   -2.7907    3.1434 C   0  0  0  0  0  0  0  0  0  0  0  0
    1.0860    0.0676   -0.0305 C   0  0  0  0  0  0  0  0  0  0  0  0
   -4.0164   -2.0040    4.2464 C   0  0  0  0  0  0  0  0  0  0  0  0
   -6.9596    2.0490    3.7593 H   0  0  0  0  0  0  0  0  0  0  0  0
   -5.1512   -0.1194    0.2319 H   0  0  0  0  0  0  0  0  0  0  0  0
   -6.5044    0.5782   -0.4475 H   0  0  0  0  0  0  0  0  0  0  0  0
   -5.4860   -1.3840    2.6491 H   0  0  0  0  0  0  0  0  0  0  0  0
   -6.9327   -2.0503    2.9663 H   0  0  0  0  0  0  0  0  0  0  0  0
   -5.9711   -1.4823   -1.8264 H   0  0  0  0  0  0  0  0  0  0  0  0
   -7.3357   -1.8073   -0.9471 H   0  0  0  0  0  0  0  0  0  0  0  0
   -6.9713   -3.6734    1.2305 H   0  0  0  0  0  0  0  0  0  0  0  0
   -5.4495   -3.8655    1.5100 H   0  0  0  0  0  0  0  0  0  0  0  0
   -9.1181    0.9291    3.1807 H   0  0  0  0  0  0  0  0  0  0  0  0
   -8.0581   -0.3639    3.8743 H   0  0  0  0  0  0  0  0  0  0  0  0
   -4.1229   -4.2637   -0.8677 H   0  0  0  0  0  0  0  0  0  0  0  0
   -3.4641   -3.2698    0.1644 H   0  0  0  0  0  0  0  0  0  0  0  0
   -3.9136   -2.4566   -2.5977 H   0  0  0  0  0  0  0  0  0  0  0  0
   -2.4459   -2.5239   -1.6898 H   0  0  0  0  0  0  0  0  0  0  0  0
   -4.5069   -0.3215   -1.5334 H   0  0  0  0  0  0  0  0  0  0  0  0
   -2.9905   -0.2173   -2.0682 H   0  0  0  0  0  0  0  0  0  0  0  0
   -3.4951    0.8416    0.2785 H   0  0  0  0  0  0  0  0  0  0  0  0
   -8.5358   -3.0313    1.5096 H   0  0  0  0  0  0  0  0  0  0  0  0
   -9.5485    0.8775    0.1206 H   0  0  0  0  0  0  0  0  0  0  0  0
   -9.4650   -4.0328   -0.4473 H   0  0  0  0  0  0  0  0  0  0  0  0
  -11.1765   -0.2097   -1.3914 H   0  0  0  0  0  0  0  0  0  0  0  0
  -11.0241   -2.6734   -1.8270 H   0  0  0  0  0  0  0  0  0  0  0  0
   -1.6022    2.1680   -0.0170 H   0  0  0  0  0  0  0  0  0  0  0  0
   -2.5536    0.8284    2.9163 H   0  0  0  0  0  0  0  0  0  0  0  0
   -1.4049   -2.1430    0.1277 H   0  0  0  0  0  0  0  0  0  0  0  0
   -4.2310   -2.1639    1.1271 H   0  0  0  0  0  0  0  0  0  0  0  0
    0.8935    2.2212   -0.0226 H   0  0  0  0  0  0  0  0  0  0  0  0
   -3.6129   -0.0777    4.9836 H   0  0  0  0  0  0  0  0  0  0  0  0
    1.0005   -2.1117    0.0343 H   0  0  0  0  0  0  0  0  0  0  0  0
   -4.7116   -3.5890    3.1470 H   0  0  0  0  0  0  0  0  0  0  0  0
  1 34  1  0  0  0  0
  2 35  1  0  0  0  0
  3 12  2  0  0  0  0
  4  7  1  0  0  0  0
  4 13  1  0  0  0  0
  4 15  1  0  0  0  0
  5 10  1  0  0  0  0
  5 11  1  0  0  0  0
  5 14  1  0  0  0  0
  6 12  1  0  0  0  0
  6 13  1  0  0  0  0
  6 36  1  0  0  0  0
  7  8  1  0  0  0  0
  7  9  1  0  0  0  0
  7 12  1  0  0  0  0
  8 10  1  0  0  0  0
  8 37  1  0  0  0  0
  8 38  1  0  0  0  0
  9 11  1  0  0  0  0
  9 39  1  0  0  0  0
  9 40  1  0  0  0  0
 10 41  1  0  0  0  0
 10 42  1  0  0  0  0
 11 43  1  0  0  0  0
 11 44  1  0  0  0  0
 13 45  1  0  0  0  0
 13 46  1  0  0  0  0
 14 16  1  0  0  0  0
 14 47  1  0  0  0  0
 14 48  1  0  0  0  0
 15 19  2  0  0  0  0
 15 20  1  0  0  0  0
 16 17  1  0  0  0  0
 16 49  1  0  0  0  0
 16 50  1  0  0  0  0
 17 18  1  0  0  0  0
 17 51  1  0  0  0  0
 17 52  1  0  0  0  0
 18 21  1  0  0  0  0
 18 22  1  0  0  0  0
 18 53  1  0  0  0  0
 19 23  1  0  0  0  0
 19 54  1  0  0  0  0
 20 24  2  0  0  0  0
 20 55  1  0  0  0  0
 21 26  2  0  0  0  0
 21 28  1  0  0  0  0
 22 27  2  0  0  0  0
 22 29  1  0  0  0  0
 23 25  2  0  0  0  0
 23 56  1  0  0  0  0
 24 25  1  0  0  0  0
 24 57  1  0  0  0  0
 25 58  1  0  0  0  0
 26 30  1  0  0  0  0
 26 59  1  0  0  0  0
 27 31  1  0  0  0  0
 27 60  1  0  0  0  0
 28 32  2  0  0  0  0
 28 61  1  0  0  0  0
 29 33  2  0  0  0  0
 29 62  1  0  0  0  0
 30 34  2  0  0  0  0
 30 63  1  0  0  0  0
 31 35  2  0  0  0  0
 31 64  1  0  0  0  0
 32 34  1  0  0  0  0
 32 65  1  0  0  0  0
 33 35  1  0  0  0  0
 33 66  1  0  0  0  0
M  END
>  <DRUGBANK_ID>
DB04842

>  <COMMON_NAME>
Fluspirilene

>  <CAS_NUMBER>
1841-19-6

>  <UNII>
C5QA4GLR9M

>  <SYNONYMS>
Fluspirilene; Fluspirileno; Fluspirilenum

$$$$
