
 OpenBabel10282417183D

109112  0  0  0  0  0  0  0  0999 V2000
    1.6329   -4.5578    9.0922 C   0  0  2  0  0  0  0  0  0  0  0  0
   -0.3452   -3.9265    8.7948 C   0  0  0  0  0  0  0  0  0  0  0  0
    0.4291   -4.3695    9.6979 O   0  0  0  0  0  0  0  0  0  0  0  0
    2.6321   -4.9760    7.1661 C   0  0  0  0  0  0  0  0  0  0  0  0
    2.5979   -4.0138   10.3936 C   0  0  0  0  0  0  0  0  0  0  0  0
    1.2467   -5.0277    5.7242 C   0  0  1  0  0  0  0  0  0  0  0  0
    2.5869   -2.6455   11.0267 C   0  0  1  0  0  0  0  0  0  0  0  0
    3.4061   -4.7482   10.9322 O   0  0  0  0  0  0  0  0  0  0  0  0
    1.6528   -4.0763    4.5896 C   0  0  1  0  0  0  0  0  0  0  0  0
    0.4100   -6.3566    5.4138 C   0  0  0  0  0  0  0  0  0  0  0  0
    4.1005   -1.9896   10.8514 C   0  0  2  0  0  0  0  0  0  0  0  0
    1.4247   -1.9604   10.3732 C   0  0  0  0  0  0  0  0  0  0  0  0
    1.0459   -2.2923    5.1221 C   0  0  2  0  0  0  0  0  0  0  0  0
    3.3276   -4.3451    4.2303 O   0  0  0  0  0  0  0  0  0  0  0  0
    4.1633   -0.4304   10.7821 C   0  0  2  0  0  0  0  0  0  0  0  0
    2.2952   -1.5395    4.8891 C   0  0  2  0  0  0  0  0  0  0  0  0
    0.5166   -1.4790    6.8106 C   0  0  0  0  0  0  0  0  0  0  0  0
    4.7625    0.8333    9.4490 C   0  0  2  0  0  0  0  0  0  0  0  0
    4.1573    0.1475   12.1464 C   0  0  0  0  0  0  0  0  0  0  0  0
    2.8065   -3.1107    5.8592 O   0  0  0  0  0  0  0  0  0  0  0  0
    2.5587    0.2838    5.5180 C   0  0  2  0  0  0  0  0  0  0  0  0
    3.6365    1.5281    8.1960 O   0  0  0  0  0  0  0  0  0  0  0  0
    6.0699    0.7908    8.6485 C   0  0  0  0  0  0  0  0  0  0  0  0
    3.6751    1.4588    6.6748 C   0  0  0  0  0  0  0  0  0  0  0  0
    1.1943    0.7223    5.7473 C   0  0  0  0  0  0  0  0  0  0  0  0
    4.7149    1.9715    6.2420 O   0  0  0  0  0  0  0  0  0  0  0  0
    3.0795   -3.2250    7.5056 C   0  0  1  0  0  0  0  0  0  0  0  0
    1.3443   -3.7612    7.4061 C   0  0  0  0  0  0  0  0  0  0  0  0
    4.2286   -3.9354    8.2593 O   0  0  0  0  0  0  0  0  0  0  0  0
    1.2344   -5.8985    7.6656 C   0  0  1  0  0  0  0  0  0  0  0  0
    4.4476   -5.3898    8.4625 C   0  0  2  0  0  0  0  0  0  0  0  0
    2.9123   -6.5557    8.5038 C   0  0  2  0  0  0  0  0  0  0  0  0
   -0.0534   -6.0568    7.8219 O   0  0  0  0  0  0  0  0  0  0  0  0
    5.2528   -5.7452    9.6548 C   0  0  0  0  0  0  0  0  0  0  0  0
    3.3382   -7.6276    7.6777 O   0  0  0  0  0  0  0  0  0  0  0  0
   -0.1632   -6.8191    8.9282 C   0  0  0  0  0  0  0  0  0  0  0  0
    4.0379   -3.0023    4.1591 C   0  0  1  0  0  0  0  0  0  0  0  0
    4.4188   -2.1831    5.7829 C   0  0  1  0  0  0  0  0  0  0  0  0
    5.1294   -2.4597    3.4664 O   0  0  0  0  0  0  0  0  0  0  0  0
    4.6949   -0.8724    6.2959 C   0  0  2  0  0  0  0  0  0  0  0  0
    3.2178   -1.5823    6.6143 O   0  0  0  0  0  0  0  0  0  0  0  0
    5.1690   -0.9885    3.7749 C   0  0  1  0  0  0  0  0  0  0  0  0
    5.5321   -0.4465    5.2039 C   0  0  0  0  0  0  0  0  0  0  0  0
    4.6376   -0.8715    7.8159 N   0  0  0  0  0  0  0  0  0  0  0  0
    3.0671   -0.4390    8.5246 C   0  0  0  0  0  0  0  0  0  0  0  0
    5.8481   -1.6815    8.1476 C   0  0  0  0  0  0  0  0  0  0  0  0
    6.3439   -0.6253    2.9872 C   0  0  0  0  0  0  0  0  0  0  0  0
    4.3812   -2.4490    9.6355 O   0  0  0  0  0  0  0  0  0  0  0  0
   -0.9883   -4.3478    7.9406 H   0  0  0  0  0  0  0  0  0  0  0  0
   -0.6015   -3.2353    7.9165 H   0  0  0  0  0  0  0  0  0  0  0  0
    3.5246   -5.3810    6.7378 H   0  0  0  0  0  0  0  0  0  0  0  0
    2.8083   -4.8471    8.2847 H   0  0  0  0  0  0  0  0  0  0  0  0
    0.2394   -4.5897    6.0063 H   0  0  0  0  0  0  0  0  0  0  0  0
    2.3798   -2.7677   12.0774 H   0  0  0  0  0  0  0  0  0  0  0  0
    1.2678   -4.5573    3.7062 H   0  0  0  0  0  0  0  0  0  0  0  0
   -0.0952   -6.9555    6.2088 H   0  0  0  0  0  0  0  0  0  0  0  0
   -0.5206   -5.9951    4.9877 H   0  0  0  0  0  0  0  0  0  0  0  0
    1.1118   -7.1255    5.1386 H   0  0  0  0  0  0  0  0  0  0  0  0
    5.0075   -2.5037   11.2023 H   0  0  0  0  0  0  0  0  0  0  0  0
    1.6999   -2.2816    9.4196 H   0  0  0  0  0  0  0  0  0  0  0  0
    0.4103   -2.2704   10.2024 H   0  0  0  0  0  0  0  0  0  0  0  0
    1.3818   -0.8896   10.3709 H   0  0  0  0  0  0  0  0  0  0  0  0
    0.1185   -2.1521    4.6122 H   0  0  0  0  0  0  0  0  0  0  0  0
    3.0800   -0.3878   10.8614 H   0  0  0  0  0  0  0  0  0  0  0  0
    3.0101   -1.4106    4.1043 H   0  0  0  0  0  0  0  0  0  0  0  0
    1.4651   -1.0503    7.0673 H   0  0  0  0  0  0  0  0  0  0  0  0
    0.7116   -0.7353    7.6320 H   0  0  0  0  0  0  0  0  0  0  0  0
    0.1818   -1.9376    7.7041 H   0  0  0  0  0  0  0  0  0  0  0  0
    4.9703    1.6654   10.0916 H   0  0  0  0  0  0  0  0  0  0  0  0
    3.8281    1.1675   11.9538 H   0  0  0  0  0  0  0  0  0  0  0  0
    3.3817   -0.3426   12.7734 H   0  0  0  0  0  0  0  0  0  0  0  0
    5.1432   -0.0166   12.5424 H   0  0  0  0  0  0  0  0  0  0  0  0
    2.8432    0.6922    4.5151 H   0  0  0  0  0  0  0  0  0  0  0  0
    6.0323    0.4474    7.6110 H   0  0  0  0  0  0  0  0  0  0  0  0
    6.2629    1.7913    8.3333 H   0  0  0  0  0  0  0  0  0  0  0  0
    6.8774    0.2416    9.1182 H   0  0  0  0  0  0  0  0  0  0  0  0
    1.3952    1.6192    6.2761 H   0  0  0  0  0  0  0  0  0  0  0  0
    0.6092    0.3395    4.9198 H   0  0  0  0  0  0  0  0  0  0  0  0
    0.5479    0.4426    6.5414 H   0  0  0  0  0  0  0  0  0  0  0  0
    2.8023   -2.4603    8.1224 H   0  0  0  0  0  0  0  0  0  0  0  0
    0.7955   -3.3441    6.6632 H   0  0  0  0  0  0  0  0  0  0  0  0
    1.1712   -3.0902    8.1764 H   0  0  0  0  0  0  0  0  0  0  0  0
    1.8141   -6.4941    6.7145 H   0  0  0  0  0  0  0  0  0  0  0  0
    5.1093   -5.4234    7.5797 H   0  0  0  0  0  0  0  0  0  0  0  0
    2.5575   -6.6649    9.5258 H   0  0  0  0  0  0  0  0  0  0  0  0
    5.5569   -6.7423    9.3925 H   0  0  0  0  0  0  0  0  0  0  0  0
    5.9560   -4.9399    9.8780 H   0  0  0  0  0  0  0  0  0  0  0  0
    4.7170   -5.9901   10.5652 H   0  0  0  0  0  0  0  0  0  0  0  0
    3.6697   -7.1904    6.8560 H   0  0  0  0  0  0  0  0  0  0  0  0
    0.6530   -7.5233    8.8557 H   0  0  0  0  0  0  0  0  0  0  0  0
   -0.0659   -6.1971    9.7997 H   0  0  0  0  0  0  0  0  0  0  0  0
   -1.1617   -7.0910    8.7076 H   0  0  0  0  0  0  0  0  0  0  0  0
    3.2525   -2.7535    3.3876 H   0  0  0  0  0  0  0  0  0  0  0  0
    5.0659   -2.8860    6.2878 H   0  0  0  0  0  0  0  0  0  0  0  0
    3.9369   -0.2044    6.4929 H   0  0  0  0  0  0  0  0  0  0  0  0
    2.3566   -1.9005    6.4214 H   0  0  0  0  0  0  0  0  0  0  0  0
    4.3186   -0.4123    3.3572 H   0  0  0  0  0  0  0  0  0  0  0  0
    6.4506   -0.8506    5.5665 H   0  0  0  0  0  0  0  0  0  0  0  0
    5.5837    0.6190    5.1021 H   0  0  0  0  0  0  0  0  0  0  0  0
    2.7224   -1.2262    9.0420 H   0  0  0  0  0  0  0  0  0  0  0  0
    2.9586    0.1911    9.3963 H   0  0  0  0  0  0  0  0  0  0  0  0
    2.2071    0.1410    8.1478 H   0  0  0  0  0  0  0  0  0  0  0  0
    5.7846   -2.7450    7.9907 H   0  0  0  0  0  0  0  0  0  0  0  0
    6.6680   -1.4105    7.4959 H   0  0  0  0  0  0  0  0  0  0  0  0
    6.1223   -1.5007    9.1739 H   0  0  0  0  0  0  0  0  0  0  0  0
    6.0872   -0.9296    1.9786 H   0  0  0  0  0  0  0  0  0  0  0  0
    6.5323    0.4399    3.0874 H   0  0  0  0  0  0  0  0  0  0  0  0
    7.1347   -1.2423    3.4194 H   0  0  0  0  0  0  0  0  0  0  0  0
    4.1872   -1.8904    8.8769 H   0  0  0  0  0  0  0  0  0  0  0  0
  1  2  1  0  0  0  0
  1  3  1  6  0  0  0
  1  4  1  0  0  0  0
  1  5  1  0  0  0  0
  2  3  1  0  0  0  0
  2 49  1  0  0  0  0
  2 50  1  0  0  0  0
  4  6  1  0  0  0  0
  4 51  1  0  0  0  0
  4 52  1  0  0  0  0
  5  7  1  0  0  0  0
  5  8  2  0  0  0  0
  6  9  1  0  0  0  0
  6 10  1  0  0  0  0
  6 53  1  1  0  0  0
  7 11  1  0  0  0  0
  7 54  1  1  0  0  0
  7 12  1  0  0  0  0
  9 13  1  0  0  0  0
  9 55  1  6  0  0  0
  9 14  1  0  0  0  0
 10 56  1  0  0  0  0
 10 57  1  0  0  0  0
 10 58  1  0  0  0  0
 11 15  1  0  0  0  0
 11 59  1  1  0  0  0
 11 48  1  0  0  0  0
 12 60  1  0  0  0  0
 12 61  1  0  0  0  0
 12 62  1  0  0  0  0
 13 16  1  0  0  0  0
 13 63  1  6  0  0  0
 13 17  1  0  0  0  0
 15 18  1  0  0  0  0
 15 19  1  0  0  0  0
 15 64  1  6  0  0  0
 16 21  1  0  0  0  0
 16 65  1  6  0  0  0
 16 20  1  0  0  0  0
 17 66  1  0  0  0  0
 17 67  1  0  0  0  0
 17 68  1  0  0  0  0
 18 22  1  0  0  0  0
 18 69  1  1  0  0  0
 18 23  1  0  0  0  0
 19 70  1  0  0  0  0
 19 71  1  0  0  0  0
 19 72  1  0  0  0  0
 21 24  1  0  0  0  0
 21 73  1  6  0  0  0
 21 25  1  0  0  0  0
 22 24  1  0  0  0  0
 23 74  1  0  0  0  0
 23 75  1  0  0  0  0
 23 76  1  0  0  0  0
 24 26  2  0  0  0  0
 25 77  1  0  0  0  0
 25 78  1  0  0  0  0
 25 79  1  0  0  0  0
 27 28  1  0  0  0  0
 27 29  1  0  0  0  0
 27 80  1  1  0  0  0
 27 20  1  0  0  0  0
 28 30  1  0  0  0  0
 28 81  1  0  0  0  0
 28 82  1  0  0  0  0
 29 31  1  0  0  0  0
 30 32  1  0  0  0  0
 30 83  1  6  0  0  0
 30 33  1  0  0  0  0
 31 34  1  0  0  0  0
 31 32  1  0  0  0  0
 31 84  1  6  0  0  0
 32 35  1  0  0  0  0
 32 85  1  1  0  0  0
 33 36  1  0  0  0  0
 34 86  1  0  0  0  0
 34 87  1  0  0  0  0
 34 88  1  0  0  0  0
 35 89  1  0  0  0  0
 36 90  1  0  0  0  0
 36 91  1  0  0  0  0
 36 92  1  0  0  0  0
 37 38  1  0  0  0  0
 37 39  1  0  0  0  0
 37 93  1  6  0  0  0
 37 14  1  0  0  0  0
 38 40  1  0  0  0  0
 38 41  1  0  0  0  0
 38 94  1  1  0  0  0
 39 42  1  0  0  0  0
 40 43  1  0  0  0  0
 40 44  1  0  0  0  0
 40 95  1  6  0  0  0
 41 96  1  0  0  0  0
 42 43  1  0  0  0  0
 42 47  1  0  0  0  0
 42 97  1  6  0  0  0
 43 98  1  0  0  0  0
 43 99  1  0  0  0  0
 44 45  1  0  0  0  0
 44 46  1  0  0  0  0
 45100  1  0  0  0  0
 45101  1  0  0  0  0
 45102  1  0  0  0  0
 46103  1  0  0  0  0
 46104  1  0  0  0  0
 46105  1  0  0  0  0
 47106  1  0  0  0  0
 47107  1  0  0  0  0
 47108  1  0  0  0  0
 48109  1  0  0  0  0
M  END
>  <DRUGBANK_ID>
DB11442

>  <COMMON_NAME>
Oleandomycin

>  <CAS_NUMBER>
3922-90-5

>  <UNII>
P8ZQ646136

>  <SYNONYMS>
Amimycin; Landomycin; Matromycin; Oleandomycin; Oleandomycine; Oleandomycinum; Romicil

$$$$
