
 OpenBabel10282417233D

 57 61  0  0  0  0  0  0  0  0999 V2000
    1.0302    0.1321   -0.0632 C   0  0  0  0  0  0  0  0  0  0  0  0
    0.5770   -0.4669   -1.2999 N   0  0  0  0  0  0  0  0  0  0  0  0
    0.2810    0.3034   -2.3942 N   0  0  0  0  0  0  0  0  0  0  0  0
    0.0377   -0.5616   -3.4265 C   0  0  0  0  0  0  0  0  0  0  0  0
   -0.3638   -0.0391   -4.8564 C   0  0  0  0  0  0  0  0  0  0  0  0
   -0.3130    1.1734   -5.0833 O   0  0  0  0  0  0  0  0  0  0  0  0
   -0.8001   -0.9186   -5.9274 N   0  0  0  0  0  0  0  0  0  0  0  0
   -0.8862   -2.3305   -5.7589 C   0  0  0  0  0  0  0  0  0  0  0  0
   -2.1162   -3.1597   -5.8706 C   0  0  0  0  0  0  0  0  0  0  0  0
   -2.1413   -4.5568   -5.8093 C   0  0  0  0  0  0  0  0  0  0  0  0
   -3.3292   -5.2181   -6.1131 C   0  0  0  0  0  0  0  0  0  0  0  0
   -4.4823   -4.4803   -6.3706 C   0  0  0  0  0  0  0  0  0  0  0  0
   -4.4954   -3.1255   -6.0952 C   0  0  0  0  0  0  0  0  0  0  0  0
   -3.3190   -2.5019   -5.7464 C   0  0  0  0  0  0  0  0  0  0  0  0
   -1.0785   -0.4702   -7.2889 C   0  0  0  0  0  0  0  0  0  0  0  0
   -2.3529    0.3249   -7.3954 C   0  0  0  0  0  0  0  0  0  0  0  0
   -3.5957   -0.2834   -7.6097 C   0  0  0  0  0  0  0  0  0  0  0  0
   -4.7914    0.4224   -7.5564 C   0  0  0  0  0  0  0  0  0  0  0  0
   -4.7527    1.8041   -7.4316 C   0  0  0  0  0  0  0  0  0  0  0  0
   -3.5124    2.4307   -7.2118 C   0  0  0  0  0  0  0  0  0  0  0  0
   -2.3248    1.6989   -7.2100 C   0  0  0  0  0  0  0  0  0  0  0  0
   -5.9536    2.6435   -7.6574 C   0  0  0  0  0  0  0  0  0  0  0  0
   -7.1072    2.0117   -7.9421 O   0  0  0  0  0  0  0  0  0  0  0  0
   -5.8845    3.8773   -7.6553 O   0  0  0  0  0  0  0  0  0  0  0  0
    0.2417   -1.8890   -2.9013 C   0  0  0  0  0  0  0  0  0  0  0  0
    0.5077   -1.8013   -1.5607 C   0  0  0  0  0  0  0  0  0  0  0  0
    0.6885   -3.0274   -0.7836 C   0  0  0  0  0  0  0  0  0  0  0  0
    0.8005   -4.2346   -1.5136 C   0  0  0  0  0  0  0  0  0  0  0  0
    0.8765   -4.2924   -2.8630 O   0  0  0  0  0  0  0  0  0  0  0  0
    0.1351   -3.2603   -3.4556 C   0  0  0  0  0  0  0  0  0  0  0  0
    0.9005   -5.4876   -0.9430 C   0  0  0  0  0  0  0  0  0  0  0  0
    0.9291   -5.5652    0.4270 C   0  0  0  0  0  0  0  0  0  0  0  0
    0.8410   -4.3932    1.1800 C   0  0  0  0  0  0  0  0  0  0  0  0
    0.9084   -4.4865    2.8919 Cl  0  0  0  0  0  0  0  0  0  0  0  0
    0.6990   -3.1347    0.5880 C   0  0  0  0  0  0  0  0  0  0  0  0
    0.6202   -0.4186    0.7812 H   0  0  0  0  0  0  0  0  0  0  0  0
    0.6800    1.1587    0.0366 H   0  0  0  0  0  0  0  0  0  0  0  0
    2.1223    0.0724   -0.0332 H   0  0  0  0  0  0  0  0  0  0  0  0
    0.0050   -2.8082   -6.1834 H   0  0  0  0  0  0  0  0  0  0  0  0
   -0.9906   -2.2590   -4.7217 H   0  0  0  0  0  0  0  0  0  0  0  0
   -1.2733   -5.1410   -5.4990 H   0  0  0  0  0  0  0  0  0  0  0  0
   -3.3594   -6.3021   -6.1667 H   0  0  0  0  0  0  0  0  0  0  0  0
   -5.3844   -4.9583   -6.7311 H   0  0  0  0  0  0  0  0  0  0  0  0
   -5.3866   -2.5202   -6.1999 H   0  0  0  0  0  0  0  0  0  0  0  0
   -3.2976   -1.4497   -5.4771 H   0  0  0  0  0  0  0  0  0  0  0  0
   -0.2164    0.0746   -7.6832 H   0  0  0  0  0  0  0  0  0  0  0  0
   -1.1851   -1.3625   -7.9267 H   0  0  0  0  0  0  0  0  0  0  0  0
   -3.6672   -1.3499   -7.7886 H   0  0  0  0  0  0  0  0  0  0  0  0
   -5.7060   -0.1490   -7.6428 H   0  0  0  0  0  0  0  0  0  0  0  0
   -3.4499    3.5041   -7.0504 H   0  0  0  0  0  0  0  0  0  0  0  0
   -1.3678    2.1988   -7.0689 H   0  0  0  0  0  0  0  0  0  0  0  0
   -7.1176    1.0403   -7.9737 H   0  0  0  0  0  0  0  0  0  0  0  0
    0.5933   -3.2645   -4.4318 H   0  0  0  0  0  0  0  0  0  0  0  0
   -0.9261   -3.5652   -3.4211 H   0  0  0  0  0  0  0  0  0  0  0  0
    0.9538   -6.3638   -1.5847 H   0  0  0  0  0  0  0  0  0  0  0  0
    1.0253   -6.5367    0.8924 H   0  0  0  0  0  0  0  0  0  0  0  0
    0.5862   -2.2786    1.2299 H   0  0  0  0  0  0  0  0  0  0  0  0
  1  2  1  0  0  0  0
  1 36  1  0  0  0  0
  1 37  1  0  0  0  0
  1 38  1  0  0  0  0
  2  3  1  0  0  0  0
  2 26  1  0  0  0  0
  3  4  2  0  0  0  0
  4  5  1  0  0  0  0
  4 25  1  0  0  0  0
  5  6  2  0  0  0  0
  5  7  1  0  0  0  0
  7  8  1  0  0  0  0
  7 15  1  0  0  0  0
  8  9  1  0  0  0  0
  8 39  1  0  0  0  0
  8 40  1  0  0  0  0
  9 10  2  0  0  0  0
  9 14  1  0  0  0  0
 10 11  1  0  0  0  0
 10 41  1  0  0  0  0
 11 12  2  0  0  0  0
 11 42  1  0  0  0  0
 12 13  1  0  0  0  0
 12 43  1  0  0  0  0
 13 14  2  0  0  0  0
 13 44  1  0  0  0  0
 14 45  1  0  0  0  0
 15 16  1  0  0  0  0
 15 46  1  0  0  0  0
 15 47  1  0  0  0  0
 16 17  2  0  0  0  0
 16 21  1  0  0  0  0
 17 18  1  0  0  0  0
 17 48  1  0  0  0  0
 18 19  2  0  0  0  0
 18 49  1  0  0  0  0
 19 20  1  0  0  0  0
 19 22  1  0  0  0  0
 20 21  2  0  0  0  0
 20 50  1  0  0  0  0
 21 51  1  0  0  0  0
 22 23  1  0  0  0  0
 22 24  2  0  0  0  0
 23 52  1  0  0  0  0
 25 26  2  0  0  0  0
 25 30  1  0  0  0  0
 26 27  1  0  0  0  0
 27 28  2  0  0  0  0
 27 35  1  0  0  0  0
 28 29  1  0  0  0  0
 28 31  1  0  0  0  0
 29 30  1  0  0  0  0
 30 53  1  0  0  0  0
 30 54  1  0  0  0  0
 31 32  2  0  0  0  0
 31 55  1  0  0  0  0
 32 33  1  0  0  0  0
 32 56  1  0  0  0  0
 33 34  1  0  0  0  0
 33 35  2  0  0  0  0
 35 57  1  0  0  0  0
M  END
>  <DRUGBANK_ID>
DB16255

>  <COMMON_NAME>
Nidufexor

>  <CAS_NUMBER>
1773489-72-7

>  <UNII>
CJ1PL0TE6J

>  <SYNONYMS>
Nidufexor

$$$$
