
 OpenBabel10282417193D

 41 41  0  0  1  0  0  0  0  0999 V2000
    1.0635   -0.0110   -0.1954 C   0  0  0  0  0  0  0  0  0  0  0  0
    0.5581   -1.1672    0.6646 C   0  0  1  0  0  0  0  0  0  0  0  0
    1.0557   -1.0767    2.0870 C   0  0  0  0  0  0  0  0  0  0  0  0
    1.1748    0.1507    2.7586 C   0  0  0  0  0  0  0  0  0  0  0  0
    1.5815    0.2127    4.0838 C   0  0  0  0  0  0  0  0  0  0  0  0
    1.9008   -0.9626    4.7660 C   0  0  0  0  0  0  0  0  0  0  0  0
    1.8018   -2.1884    4.0846 C   0  0  0  0  0  0  0  0  0  0  0  0
    1.3633   -2.2549    2.7727 C   0  0  0  0  0  0  0  0  0  0  0  0
    2.3443   -0.8830    6.2062 C   0  0  1  0  0  0  0  0  0  0  0  0
    1.3270   -1.5023    7.1925 C   0  0  0  0  0  0  0  0  0  0  0  0
    1.0726   -2.9356    6.9278 N   0  0  0  0  0  0  0  0  0  0  0  0
    0.1143   -3.5833    7.8329 C   0  0  0  0  0  0  0  0  0  0  0  0
   -1.2678   -2.9255    7.6963 C   0  0  0  0  0  0  0  0  0  0  0  0
    0.0038   -5.0502    7.3693 C   0  0  0  0  0  0  0  0  0  0  0  0
    0.6284   -3.5480    9.2735 C   0  0  0  0  0  0  0  0  0  0  0  0
    3.6135   -1.5194    6.3297 O   0  0  0  0  0  0  0  0  0  0  0  0
   -0.9054   -1.2044    0.6619 N   0  0  0  0  0  0  0  0  0  0  0  0
    0.6906    0.9582    0.1531 H   0  0  0  0  0  0  0  0  0  0  0  0
    0.7450   -0.1240   -1.2347 H   0  0  0  0  0  0  0  0  0  0  0  0
    2.1592    0.0288   -0.1722 H   0  0  0  0  0  0  0  0  0  0  0  0
    0.9273   -2.0976    0.2137 H   0  0  0  0  0  0  0  0  0  0  0  0
    0.9580    1.0897    2.2551 H   0  0  0  0  0  0  0  0  0  0  0  0
    1.6609    1.1809    4.5710 H   0  0  0  0  0  0  0  0  0  0  0  0
    2.0592   -3.1267    4.5742 H   0  0  0  0  0  0  0  0  0  0  0  0
    1.2795   -3.2254    2.2899 H   0  0  0  0  0  0  0  0  0  0  0  0
    2.4876    0.1656    6.4953 H   0  0  0  0  0  0  0  0  0  0  0  0
    1.7422   -1.3798    8.1969 H   0  0  0  0  0  0  0  0  0  0  0  0
    0.3982   -0.9275    7.1215 H   0  0  0  0  0  0  0  0  0  0  0  0
    0.6469   -2.9918    6.0013 H   0  0  0  0  0  0  0  0  0  0  0  0
   -1.6128   -2.9527    6.6540 H   0  0  0  0  0  0  0  0  0  0  0  0
   -2.0139   -3.4395    8.3081 H   0  0  0  0  0  0  0  0  0  0  0  0
   -1.2600   -1.8776    8.0118 H   0  0  0  0  0  0  0  0  0  0  0  0
    0.9701   -5.5665    7.4214 H   0  0  0  0  0  0  0  0  0  0  0  0
   -0.7040   -5.6057    7.9945 H   0  0  0  0  0  0  0  0  0  0  0  0
   -0.3499   -5.1221    6.3325 H   0  0  0  0  0  0  0  0  0  0  0  0
    1.6189   -4.0144    9.3458 H   0  0  0  0  0  0  0  0  0  0  0  0
    0.7137   -2.5255    9.6543 H   0  0  0  0  0  0  0  0  0  0  0  0
   -0.0475   -4.0839    9.9455 H   0  0  0  0  0  0  0  0  0  0  0  0
    3.4239   -2.4719    6.2566 H   0  0  0  0  0  0  0  0  0  0  0  0
   -1.2066   -1.9864    1.2441 H   0  0  0  0  0  0  0  0  0  0  0  0
   -1.2481   -0.3719    1.1401 H   0  0  0  0  0  0  0  0  0  0  0  0
  1  2  1  0  0  0  0
  1 18  1  0  0  0  0
  1 19  1  0  0  0  0
  1 20  1  0  0  0  0
  2  3  1  0  0  0  0
  2 17  1  0  0  0  0
  2 21  1  6  0  0  0
  3  4  2  0  0  0  0
  3  8  1  0  0  0  0
  4  5  1  0  0  0  0
  4 22  1  0  0  0  0
  5  6  2  0  0  0  0
  5 23  1  0  0  0  0
  6  7  1  0  0  0  0
  6  9  1  0  0  0  0
  7  8  2  0  0  0  0
  7 24  1  0  0  0  0
  8 25  1  0  0  0  0
  9 10  1  0  0  0  0
  9 16  1  0  0  0  0
  9 26  1  1  0  0  0
 10 11  1  0  0  0  0
 10 27  1  0  0  0  0
 10 28  1  0  0  0  0
 11 12  1  0  0  0  0
 11 29  1  0  0  0  0
 12 13  1  0  0  0  0
 12 14  1  0  0  0  0
 12 15  1  0  0  0  0
 13 30  1  0  0  0  0
 13 31  1  0  0  0  0
 13 32  1  0  0  0  0
 14 33  1  0  0  0  0
 14 34  1  0  0  0  0
 14 35  1  0  0  0  0
 15 36  1  0  0  0  0
 15 37  1  0  0  0  0
 15 38  1  0  0  0  0
 16 39  1  0  0  0  0
 17 40  1  0  0  0  0
 17 41  1  0  0  0  0
M  END
>  <DRUGBANK_ID>
DB12763

>  <COMMON_NAME>
MK-1496

>  <CAS_NUMBER>
1037254-47-9

>  <UNII>
CS17H9370C

$$$$
