
 OpenBabel10282417233D

 46 47  0  0  0  0  0  0  0  0999 V2000
    1.5024   -0.3590   -0.5101 C   0  0  0  0  0  0  0  0  0  0  0  0
    1.0364    0.9750   -0.3893 C   0  0  0  0  0  0  0  0  0  0  0  0
   -0.3281    1.2133   -0.1802 C   0  0  0  0  0  0  0  0  0  0  0  0
   -1.3144    0.2328   -0.2953 C   0  0  0  0  0  0  0  0  0  0  0  0
   -0.8462   -1.0580   -0.5689 C   0  0  0  0  0  0  0  0  0  0  0  0
    0.5405   -1.3838   -0.6863 C   0  0  0  0  0  0  0  0  0  0  0  0
   -2.8144    0.5283   -0.2055 C   0  0  0  0  0  0  0  0  0  0  0  0
   -3.3070    1.2954    0.9991 C   0  0  0  0  0  0  0  0  0  0  0  0
   -2.9484    2.5965    1.2811 C   0  0  0  0  0  0  0  0  0  0  0  0
   -3.2181    3.1865    2.4632 N   0  0  0  0  0  0  0  0  0  0  0  0
   -3.9787    2.5084    3.3097 C   0  0  0  0  0  0  0  0  0  0  0  0
   -4.5174    1.3195    3.0856 N   0  0  0  0  0  0  0  0  0  0  0  0
   -4.1552    0.7232    1.9241 C   0  0  0  0  0  0  0  0  0  0  0  0
   -4.2301    3.1035    4.5317 N   0  0  0  0  0  0  0  0  0  0  0  0
   -2.4426    3.4563    0.3172 N   0  0  0  0  0  0  0  0  0  0  0  0
    0.6560   -2.7470   -0.7782 O   0  0  0  0  0  0  0  0  0  0  0  0
    1.9104   -3.3610   -0.9152 C   0  0  0  0  0  0  0  0  0  0  0  0
    2.7882   -0.4427   -0.0458 O   0  0  0  0  0  0  0  0  0  0  0  0
    3.4234   -1.4992    0.6502 C   0  0  0  0  0  0  0  0  0  0  0  0
    2.8389   -2.1720    1.9519 C   0  0  0  0  0  0  0  0  0  0  0  0
    1.4391   -2.4225    2.0963 O   0  0  0  0  0  0  0  0  0  0  0  0
    0.6849   -1.2425    2.2910 C   0  0  0  0  0  0  0  0  0  0  0  0
    1.7688    2.1337   -0.2272 O   0  0  0  0  0  0  0  0  0  0  0  0
    3.1689    2.0775   -0.4539 C   0  0  0  0  0  0  0  0  0  0  0  0
   -0.5378    2.1921    0.2240 H   0  0  0  0  0  0  0  0  0  0  0  0
   -1.5538   -1.8891   -0.5313 H   0  0  0  0  0  0  0  0  0  0  0  0
   -3.1054    1.0673   -1.1149 H   0  0  0  0  0  0  0  0  0  0  0  0
   -3.3622   -0.4239   -0.2553 H   0  0  0  0  0  0  0  0  0  0  0  0
   -4.6015   -0.2550    1.7732 H   0  0  0  0  0  0  0  0  0  0  0  0
   -3.8222    4.0024    4.6907 H   0  0  0  0  0  0  0  0  0  0  0  0
   -4.8691    2.6481    5.1493 H   0  0  0  0  0  0  0  0  0  0  0  0
   -1.9299    4.2114    0.7601 H   0  0  0  0  0  0  0  0  0  0  0  0
   -2.0077    3.0568   -0.5011 H   0  0  0  0  0  0  0  0  0  0  0  0
    2.5066   -2.8918   -1.7006 H   0  0  0  0  0  0  0  0  0  0  0  0
    2.4003   -3.3980    0.0420 H   0  0  0  0  0  0  0  0  0  0  0  0
    1.8119   -4.4310   -1.0998 H   0  0  0  0  0  0  0  0  0  0  0  0
    3.7865   -2.1796   -0.1216 H   0  0  0  0  0  0  0  0  0  0  0  0
    4.3962   -1.1044    0.9755 H   0  0  0  0  0  0  0  0  0  0  0  0
    3.3011   -3.1689    2.0192 H   0  0  0  0  0  0  0  0  0  0  0  0
    3.1728   -1.6369    2.8434 H   0  0  0  0  0  0  0  0  0  0  0  0
    0.9052   -0.6974    3.2038 H   0  0  0  0  0  0  0  0  0  0  0  0
    0.9805   -0.5422    1.5516 H   0  0  0  0  0  0  0  0  0  0  0  0
   -0.3842   -1.4340    2.1557 H   0  0  0  0  0  0  0  0  0  0  0  0
    3.6667    1.7058    0.4472 H   0  0  0  0  0  0  0  0  0  0  0  0
    3.4160    1.4839   -1.3392 H   0  0  0  0  0  0  0  0  0  0  0  0
    3.5418    3.0909   -0.6284 H   0  0  0  0  0  0  0  0  0  0  0  0
  1  2  2  0  0  0  0
  1 18  1  0  0  0  0
  2  3  1  0  0  0  0
  2 23  1  0  0  0  0
  3  4  2  0  0  0  0
  3 25  1  0  0  0  0
  4  7  1  0  0  0  0
  4  5  1  0  0  0  0
  5  6  2  0  0  0  0
  5 26  1  0  0  0  0
  6  1  1  0  0  0  0
  6 16  1  0  0  0  0
  7  8  1  0  0  0  0
  7 27  1  0  0  0  0
  7 28  1  0  0  0  0
  8  9  2  0  0  0  0
  9 15  1  0  0  0  0
  9 10  1  0  0  0  0
 10 11  2  0  0  0  0
 11 12  1  0  0  0  0
 11 14  1  0  0  0  0
 12 13  2  0  0  0  0
 13  8  1  0  0  0  0
 13 29  1  0  0  0  0
 14 30  1  0  0  0  0
 14 31  1  0  0  0  0
 15 32  1  0  0  0  0
 15 33  1  0  0  0  0
 16 17  1  0  0  0  0
 17 34  1  0  0  0  0
 17 35  1  0  0  0  0
 17 36  1  0  0  0  0
 18 19  1  0  0  0  0
 19 20  1  0  0  0  0
 19 37  1  0  0  0  0
 19 38  1  0  0  0  0
 20 21  1  0  0  0  0
 20 39  1  0  0  0  0
 20 40  1  0  0  0  0
 21 22  1  0  0  0  0
 22 41  1  0  0  0  0
 22 42  1  0  0  0  0
 22 43  1  0  0  0  0
 23 24  1  0  0  0  0
 24 44  1  0  0  0  0
 24 45  1  0  0  0  0
 24 46  1  0  0  0  0
M  END
>  <DRUGBANK_ID>
DB15976

>  <COMMON_NAME>
Tetroxoprim

>  <CAS_NUMBER>
53808-87-0

>  <UNII>
5R6712AY0K

>  <SYNONYMS>
Tetroxoprim; Tetroxoprima; Tetroxoprime; Tetroxoprimum

$$$$
