
 OpenBabel10282417133D

 22 21  0  0  0  0  0  0  0  0999 V2000
    0.9894   -0.1067   -0.0977 C   0  0  0  0  0  0  0  0  0  0  0  0
    0.4689    0.5221   -1.0085 O   0  0  0  0  0  0  0  0  0  0  0  0
    0.2521   -0.8669    1.0106 C   0  0  1  0  0  0  0  0  0  0  0  0
    2.3313   -0.1226    0.0281 O   0  0  0  0  0  0  0  0  0  0  0  0
    0.6202   -2.2961    1.0176 N   0  0  0  0  0  0  0  0  0  0  0  0
   -1.6688    1.5233    2.1867 S   0  0  0  0  0  0  0  0  0  0  0  0
    0.5154   -0.2303    2.3811 C   0  0  0  0  0  0  0  0  0  0  0  0
    0.0876    1.2355    2.4523 C   0  0  0  0  0  0  0  0  0  0  0  0
   -2.4850    0.5898    3.4613 C   0  0  0  0  0  0  0  0  0  0  0  0
   -1.9206    2.9283    2.4481 O   0  0  0  0  0  0  0  0  0  0  0  0
   -2.0677    0.9475    0.9209 O   0  0  0  0  0  0  0  0  0  0  0  0
   -0.8111   -0.8651    0.7816 H   0  0  0  0  0  0  0  0  0  0  0  0
    2.6546    0.3904   -0.7412 H   0  0  0  0  0  0  0  0  0  0  0  0
    0.0484   -2.7783    1.7104 H   0  0  0  0  0  0  0  0  0  0  0  0
    0.3317   -2.6869    0.1174 H   0  0  0  0  0  0  0  0  0  0  0  0
    0.0086   -0.7998    3.1688 H   0  0  0  0  0  0  0  0  0  0  0  0
    1.5884   -0.2899    2.6161 H   0  0  0  0  0  0  0  0  0  0  0  0
    0.3335    1.6518    3.4355 H   0  0  0  0  0  0  0  0  0  0  0  0
    0.6255    1.8342    1.7090 H   0  0  0  0  0  0  0  0  0  0  0  0
   -2.2008    0.9927    4.4335 H   0  0  0  0  0  0  0  0  0  0  0  0
   -3.5621    0.6939    3.3099 H   0  0  0  0  0  0  0  0  0  0  0  0
   -2.2172   -0.4649    3.3801 H   0  0  0  0  0  0  0  0  0  0  0  0
  2  1  2  0  0  0  0
  3  1  1  0  0  0  0
  3  5  1  0  0  0  0
  3 12  1  6  0  0  0
  4  1  1  0  0  0  0
  4 13  1  0  0  0  0
  5 14  1  0  0  0  0
  5 15  1  0  0  0  0
  6 10  2  0  0  0  0
  6 11  2  0  0  0  0
  7  3  1  0  0  0  0
  7 16  1  0  0  0  0
  7 17  1  0  0  0  0
  8  6  1  0  0  0  0
  8  7  1  0  0  0  0
  8 18  1  0  0  0  0
  8 19  1  0  0  0  0
  9  6  1  0  0  0  0
  9 20  1  0  0  0  0
  9 21  1  0  0  0  0
  9 22  1  0  0  0  0
M  END
>  <DRUGBANK_ID>
DB03790

>  <SECONDARY_ACCESSION_NUMBERS>
EXPT02437

>  <COMMON_NAME>
L-methionine sulfone

>  <CAS_NUMBER>
7314-32-1

>  <UNII>
V3Z9QH81BX

>  <SYNONYMS>
(S)-Amino-4-(methylsulphonyl)butyric acid; L-2-amino-4-(methylsulfonyl)butanoic acid; Methionine sulfone; S-dioxymethionine

$$$$
