
 OpenBabel10282417183D

 23 25  0  0  0  0  0  0  0  0999 V2000
    3.4958   -1.0917   -0.4256 C   0  0  0  0  0  0  0  0  0  0  0  0
   -3.4894   -1.0978   -0.4380 C   0  0  0  0  0  0  0  0  0  0  0  0
    3.6112    0.2637   -0.7167 C   0  0  0  0  0  0  0  0  0  0  0  0
   -3.6172    0.2623   -0.6998 C   0  0  0  0  0  0  0  0  0  0  0  0
    2.3203   -1.5919    0.1463 C   0  0  0  0  0  0  0  0  0  0  0  0
   -2.3060   -1.6003    0.1158 C   0  0  0  0  0  0  0  0  0  0  0  0
    2.5526    1.1300   -0.4461 C   0  0  0  0  0  0  0  0  0  0  0  0
   -2.5593    1.1292   -0.4283 C   0  0  0  0  0  0  0  0  0  0  0  0
    1.2444   -0.7337    0.4145 C   0  0  0  0  0  0  0  0  0  0  0  0
   -1.2377   -0.7386    0.4025 C   0  0  0  0  0  0  0  0  0  0  0  0
    1.3641    0.6296    0.0974 C   0  0  0  0  0  0  0  0  0  0  0  0
   -1.3641    0.6270    0.0992 C   0  0  0  0  0  0  0  0  0  0  0  0
    0.0027   -1.2926    0.7831 N   0  0  0  0  0  0  0  0  0  0  0  0
   -0.0010    1.7601    0.3533 S   0  0  0  0  0  0  0  0  0  0  0  0
    4.3087   -1.7712   -0.6707 H   0  0  0  0  0  0  0  0  0  0  0  0
   -4.2998   -1.7779   -0.6892 H   0  0  0  0  0  0  0  0  0  0  0  0
    4.5185    0.6502   -1.1760 H   0  0  0  0  0  0  0  0  0  0  0  0
   -4.5332    0.6524   -1.1384 H   0  0  0  0  0  0  0  0  0  0  0  0
    2.2277   -2.6594    0.3148 H   0  0  0  0  0  0  0  0  0  0  0  0
   -2.2027   -2.6706    0.2583 H   0  0  0  0  0  0  0  0  0  0  0  0
    2.6426    2.1836   -0.6902 H   0  0  0  0  0  0  0  0  0  0  0  0
   -2.6563    2.1856   -0.6568 H   0  0  0  0  0  0  0  0  0  0  0  0
    0.0013   -2.1395    1.3188 H   0  0  0  0  0  0  0  0  0  0  0  0
  1 15  1  0  0  0  0
  2 16  1  0  0  0  0
  3  1  2  0  0  0  0
  3 17  1  0  0  0  0
  4  2  2  0  0  0  0
  4 18  1  0  0  0  0
  5  1  1  0  0  0  0
  5 19  1  0  0  0  0
  6  2  1  0  0  0  0
  6 20  1  0  0  0  0
  7  3  1  0  0  0  0
  7 21  1  0  0  0  0
  8  4  1  0  0  0  0
  8 22  1  0  0  0  0
  9  5  2  0  0  0  0
 10  6  2  0  0  0  0
 11  7  2  0  0  0  0
 11  9  1  0  0  0  0
 12  8  2  0  0  0  0
 12 10  1  0  0  0  0
 13  9  1  0  0  0  0
 13 10  1  0  0  0  0
 13 23  1  0  0  0  0
 14 11  1  0  0  0  0
 14 12  1  0  0  0  0
M  END
>  <DRUGBANK_ID>
DB11447

>  <COMMON_NAME>
Phenothiazine

>  <CAS_NUMBER>
92-84-2

>  <UNII>
GS9EX7QNU6

>  <SYNONYMS>
10H-phenothiazine; dibenzo-1,4-thiazine; Fenotiazina; Phenothiazine; Phenothiazinum; Thiodiphenylamin

$$$$
