SOG
 OpenBabel10282417173D

 48 48  0  0  0  0  0  0  0  0999 V2000
    1.1970    1.4235   -0.4344 C   0  0  2  0  0  0  0  0  0  0  0  0
    1.2811   -0.0513    0.0061 C   0  0  1  0  0  0  0  0  0  0  0  0
    0.0183   -0.8444   -0.3760 C   0  0  2  0  0  0  0  0  0  0  0  0
   -1.2811   -0.1152   -0.0182 C   0  0  1  0  0  0  0  0  0  0  0  0
   -1.2858    1.3323   -0.5226 C   0  0  1  0  0  0  0  0  0  0  0  0
   -2.4577    2.0745    0.1862 C   0  0  0  0  0  0  0  0  0  0  0  0
    2.5504    2.3407    2.1412 C   0  0  0  0  0  0  0  0  0  0  0  0
    1.3538    2.9529    2.8766 C   0  0  0  0  0  0  0  0  0  0  0  0
    0.0955    2.1548    2.6569 C   0  0  0  0  0  0  0  0  0  0  0  0
    0.2190    0.7075    3.1087 C   0  0  0  0  0  0  0  0  0  0  0  0
    0.0789    0.5678    4.5943 C   0  0  0  0  0  0  0  0  0  0  0  0
   -1.2876    1.0797    5.0323 C   0  0  0  0  0  0  0  0  0  0  0  0
   -2.4529    0.3453    4.3535 C   0  0  0  0  0  0  0  0  0  0  0  0
   -2.4029   -1.1453    4.6445 C   0  0  0  0  0  0  0  0  0  0  0  0
    2.5584    2.5258    0.2915 S   0  0  0  0  0  0  0  0  0  0  0  0
    2.4541   -0.6959   -0.5319 O   0  0  0  0  0  0  0  0  0  0  0  0
    0.0385   -2.1383    0.2545 O   0  0  0  0  0  0  0  0  0  0  0  0
   -2.4351   -0.8141   -0.5056 O   0  0  0  0  0  0  0  0  0  0  0  0
   -0.0728    2.0680   -0.3064 O   0  0  0  0  0  0  0  0  0  0  0  0
   -2.4626    3.4644   -0.1215 O   0  0  0  0  0  0  0  0  0  0  0  0
    1.4298    1.4521   -1.5023 H   0  0  0  0  0  0  0  0  0  0  0  0
    1.4243   -0.1401    1.0676 H   0  0  0  0  0  0  0  0  0  0  0  0
    0.0279   -1.0540   -1.4480 H   0  0  0  0  0  0  0  0  0  0  0  0
   -1.4293   -0.1429    1.0549 H   0  0  0  0  0  0  0  0  0  0  0  0
   -1.4829    1.3567   -1.5977 H   0  0  0  0  0  0  0  0  0  0  0  0
   -3.4239    1.6547   -0.1117 H   0  0  0  0  0  0  0  0  0  0  0  0
   -2.3997    1.9903    1.2781 H   0  0  0  0  0  0  0  0  0  0  0  0
    2.7456    1.3028    2.4231 H   0  0  0  0  0  0  0  0  0  0  0  0
    3.4343    2.8771    2.5095 H   0  0  0  0  0  0  0  0  0  0  0  0
    1.5429    3.0015    3.9563 H   0  0  0  0  0  0  0  0  0  0  0  0
    1.1985    3.9878    2.5507 H   0  0  0  0  0  0  0  0  0  0  0  0
   -0.7886    2.6739    3.0317 H   0  0  0  0  0  0  0  0  0  0  0  0
   -0.0924    2.1712    1.6171 H   0  0  0  0  0  0  0  0  0  0  0  0
   -0.5215    0.0831    2.6242 H   0  0  0  0  0  0  0  0  0  0  0  0
    1.1652    0.2466    2.8494 H   0  0  0  0  0  0  0  0  0  0  0  0
    0.2195   -0.4876    4.8498 H   0  0  0  0  0  0  0  0  0  0  0  0
    0.8929    1.1103    5.0819 H   0  0  0  0  0  0  0  0  0  0  0  0
   -1.3553    0.9908    6.1167 H   0  0  0  0  0  0  0  0  0  0  0  0
   -1.3785    2.1506    4.8226 H   0  0  0  0  0  0  0  0  0  0  0  0
   -3.3942    0.7694    4.7141 H   0  0  0  0  0  0  0  0  0  0  0  0
   -2.4639    0.5019    3.2670 H   0  0  0  0  0  0  0  0  0  0  0  0
   -2.3687   -1.3094    5.7251 H   0  0  0  0  0  0  0  0  0  0  0  0
   -3.2791   -1.6508    4.2340 H   0  0  0  0  0  0  0  0  0  0  0  0
   -1.5206   -1.6184    4.1998 H   0  0  0  0  0  0  0  0  0  0  0  0
    2.4386   -0.6375   -1.4871 H   0  0  0  0  0  0  0  0  0  0  0  0
    0.1103   -2.0259    1.2184 H   0  0  0  0  0  0  0  0  0  0  0  0
   -2.3797   -0.8867   -1.4683 H   0  0  0  0  0  0  0  0  0  0  0  0
   -1.6049    3.8112    0.1891 H   0  0  0  0  0  0  0  0  0  0  0  0
  1  2  1  0  0  0  0
  1 15  1  0  0  0  0
  1 19  1  0  0  0  0
  1 21  1  6  0  0  0
  2  3  1  0  0  0  0
  2 16  1  0  0  0  0
  2 22  1  1  0  0  0
  3  4  1  0  0  0  0
  3 17  1  0  0  0  0
  3 23  1  6  0  0  0
  4  5  1  0  0  0  0
  4 18  1  0  0  0  0
  4 24  1  1  0  0  0
  5  6  1  0  0  0  0
  5 19  1  0  0  0  0
  5 25  1  6  0  0  0
  6 20  1  0  0  0  0
  6 26  1  0  0  0  0
  6 27  1  0  0  0  0
  7  8  1  0  0  0  0
  7 15  1  0  0  0  0
  7 28  1  0  0  0  0
  7 29  1  0  0  0  0
  8  9  1  0  0  0  0
  8 30  1  0  0  0  0
  8 31  1  0  0  0  0
  9 10  1  0  0  0  0
  9 32  1  0  0  0  0
  9 33  1  0  0  0  0
 10 11  1  0  0  0  0
 10 34  1  0  0  0  0
 10 35  1  0  0  0  0
 11 12  1  0  0  0  0
 11 36  1  0  0  0  0
 11 37  1  0  0  0  0
 12 13  1  0  0  0  0
 12 38  1  0  0  0  0
 12 39  1  0  0  0  0
 13 14  1  0  0  0  0
 13 40  1  0  0  0  0
 13 41  1  0  0  0  0
 14 42  1  0  0  0  0
 14 43  1  0  0  0  0
 14 44  1  0  0  0  0
 16 45  1  0  0  0  0
 17 46  1  0  0  0  0
 18 47  1  0  0  0  0
 20 48  1  0  0  0  0
M  END
>  <DRUGBANK_ID>
DB08558

>  <COMMON_NAME>
2-HYDROXYMETHYL-6-OCTYLSULFANYL-TETRAHYDRO-PYRAN-3,4,5-TRIOL

$$$$
