NSC
 OpenBabel10282417143D

 48 51  0  0  0  0  0  0  0  0999 V2000
   -1.2800   -0.9716   -0.6133 C   0  0  0  0  0  0  0  0  0  0  0  0
    0.0867   -0.4597   -0.5597 C   0  0  0  0  0  0  0  0  0  0  0  0
    1.6185   -1.1565   -0.7023 C   0  0  0  0  0  0  0  0  0  0  0  0
    2.2405   -2.9104    0.0837 N   0  0  0  0  0  0  0  0  0  0  0  0
    2.4375   -0.0741   -0.6362 C   0  0  0  0  0  0  0  0  0  0  0  0
    2.1845    1.2102   -0.2131 C   0  0  0  0  0  0  0  0  0  0  0  0
    3.5129    1.9014   -0.0038 C   0  0  0  0  0  0  0  0  0  0  0  0
    0.9930    1.6952    0.1111 N   0  0  0  0  0  0  0  0  0  0  0  0
   -0.0465    0.8952   -0.1261 C   0  0  0  0  0  0  0  0  0  0  0  0
   -1.3144    1.4782    0.0639 C   0  0  0  0  0  0  0  0  0  0  0  0
   -2.5365    0.8170   -0.2210 C   0  0  0  0  0  0  0  0  0  0  0  0
   -2.5238   -0.5298   -0.2653 C   0  0  0  0  0  0  0  0  0  0  0  0
   -3.5723   -1.4863    0.0181 N   0  0  0  0  0  0  0  0  0  0  0  0
   -3.6060   -2.8595    0.3336 C   0  0  0  0  0  0  0  0  0  0  0  0
   -4.6890   -3.4560    0.3525 O   0  0  0  0  0  0  0  0  0  0  0  0
   -2.5339   -3.6455    0.6421 N   0  0  0  0  0  0  0  0  0  0  0  0
   -1.2258   -3.3118    0.8507 C   0  0  0  0  0  0  0  0  0  0  0  0
   -0.4875   -3.7587   -0.2437 C   0  0  0  0  0  0  0  0  0  0  0  0
    0.4627   -2.8894   -0.4375 C   0  0  0  0  0  0  0  0  0  0  0  0
    1.6963   -3.0835   -1.8060 C   0  0  0  0  0  0  0  0  0  0  0  0
    1.8628   -4.4454   -2.2935 N   0  0  0  0  0  0  0  0  0  0  0  0
    3.3598   -2.5190   -1.6439 C   0  0  0  0  0  0  0  0  0  0  0  0
    3.9127   -1.8844   -0.1362 C   0  0  0  0  0  0  0  0  0  0  0  0
    5.0842   -0.9417   -0.5420 C   0  0  0  0  0  0  0  0  0  0  0  0
    2.8024   -1.5164    1.2359 N   0  0  0  0  0  0  0  0  0  0  0  0
    1.0608   -1.9365    1.1470 C   0  0  0  0  0  0  0  0  0  0  0  0
    0.2387   -1.5643    2.0988 C   0  0  0  0  0  0  0  0  0  0  0  0
   -0.9557   -2.1593    1.8228 C   0  0  0  0  0  0  0  0  0  0  0  0
   -1.4691   -1.9849   -0.7627 H   0  0  0  0  0  0  0  0  0  0  0  0
    1.6021   -3.5990    0.6014 H   0  0  0  0  0  0  0  0  0  0  0  0
    2.9228   -3.5801   -0.1910 H   0  0  0  0  0  0  0  0  0  0  0  0
    3.2976   -0.1565   -0.0576 H   0  0  0  0  0  0  0  0  0  0  0  0
    3.7354    2.3218   -0.9810 H   0  0  0  0  0  0  0  0  0  0  0  0
    3.5685    2.4658    0.9073 H   0  0  0  0  0  0  0  0  0  0  0  0
    4.3603    1.2234    0.2016 H   0  0  0  0  0  0  0  0  0  0  0  0
   -1.3327    2.5073    0.4166 H   0  0  0  0  0  0  0  0  0  0  0  0
   -3.4046    1.3594   -0.5576 H   0  0  0  0  0  0  0  0  0  0  0  0
   -4.5060   -1.0931    0.0053 H   0  0  0  0  0  0  0  0  0  0  0  0
   -2.6459   -4.6548    0.6051 H   0  0  0  0  0  0  0  0  0  0  0  0
   -0.5165   -4.5901   -0.9328 H   0  0  0  0  0  0  0  0  0  0  0  0
    0.9701   -4.8647   -2.4476 H   0  0  0  0  0  0  0  0  0  0  0  0
    2.5792   -4.5149   -3.0139 H   0  0  0  0  0  0  0  0  0  0  0  0
    4.1467   -2.7799   -2.3369 H   0  0  0  0  0  0  0  0  0  0  0  0
    4.7551   -0.0465   -1.1182 H   0  0  0  0  0  0  0  0  0  0  0  0
    5.5274   -0.6429    0.3921 H   0  0  0  0  0  0  0  0  0  0  0  0
    5.7219   -1.3466   -1.3200 H   0  0  0  0  0  0  0  0  0  0  0  0
    0.5070   -0.6265    2.6037 H   0  0  0  0  0  0  0  0  0  0  0  0
   -1.7721   -1.4474    1.9665 H   0  0  0  0  0  0  0  0  0  0  0  0
  1  2  1  0  0  0  0
  1 12  2  0  0  0  0
  1 29  1  0  0  0  0
  2  3  1  0  0  0  0
  2  9  2  0  0  0  0
  3  4  1  0  0  0  0
  3  5  2  0  0  0  0
  4 30  1  0  0  0  0
  4 31  1  0  0  0  0
  5  6  1  0  0  0  0
  5 32  1  0  0  0  0
  6  7  1  0  0  0  0
  6  8  2  0  0  0  0
  7 33  1  0  0  0  0
  7 34  1  0  0  0  0
  7 35  1  0  0  0  0
  8  9  1  0  0  0  0
  9 10  1  0  0  0  0
 10 11  2  0  0  0  0
 10 36  1  0  0  0  0
 11 12  1  0  0  0  0
 11 37  1  0  0  0  0
 12 13  1  0  0  0  0
 13 14  1  0  0  0  0
 13 38  1  0  0  0  0
 14 15  2  0  0  0  0
 14 16  1  0  0  0  0
 16 17  1  0  0  0  0
 16 39  1  0  0  0  0
 17 18  1  0  0  0  0
 17 28  2  0  0  0  0
 18 19  2  0  0  0  0
 18 40  1  0  0  0  0
 19 20  1  0  0  0  0
 19 26  1  0  0  0  0
 20 21  1  0  0  0  0
 20 22  2  0  0  0  0
 21 41  1  0  0  0  0
 21 42  1  0  0  0  0
 22 23  1  0  0  0  0
 22 43  1  0  0  0  0
 23 24  1  0  0  0  0
 23 25  2  0  0  0  0
 24 44  1  0  0  0  0
 24 45  1  0  0  0  0
 24 46  1  0  0  0  0
 25 26  1  0  0  0  0
 26 27  2  0  0  0  0
 27 28  1  0  0  0  0
 27 47  1  0  0  0  0
 28 48  1  0  0  0  0
M  END
>  <DRUGBANK_ID>
DB04452

>  <SECONDARY_ACCESSION_NUMBERS>
EXPT02388

>  <COMMON_NAME>
Aminoquinuride

>  <CAS_NUMBER>
3811-56-1

>  <UNII>
08T7936572

>  <SYNONYMS>
Aminoquinuride

$$$$
