L41
 OpenBabel10282417173D

 55 56  0  0  0  0  0  0  0  0999 V2000
   -0.0876   -0.9871   -0.2756 C   0  0  0  0  0  0  0  0  0  0  0  0
    0.8070    0.0854   -0.0873 C   0  0  0  0  0  0  0  0  0  0  0  0
   -1.4660   -0.8910   -0.3855 C   0  0  0  0  0  0  0  0  0  0  0  0
    0.2174   -2.4102   -0.2140 C   0  0  0  0  0  0  0  0  0  0  0  0
    0.1675    1.3235   -0.0010 C   0  0  0  0  0  0  0  0  0  0  0  0
    2.1789    0.1062    0.0852 O   0  0  0  0  0  0  0  0  0  0  0  0
   -2.0862    0.2895   -0.1446 C   0  0  0  0  0  0  0  0  0  0  0  0
   -2.1994   -1.9976   -0.7094 O   0  0  0  0  0  0  0  0  0  0  0  0
   -0.3362   -2.9765    1.2649 C   0  0  0  0  0  0  0  0  0  0  0  0
   -1.2588    1.4164    0.0012 C   0  0  0  0  0  0  0  0  0  0  0  0
    3.1419   -0.9887   -0.0087 C   0  0  0  0  0  0  0  0  0  0  0  0
   -3.5657    0.2668   -0.0711 C   0  0  0  0  0  0  0  0  0  0  0  0
   -1.6202   -3.7352    1.4163 C   0  0  0  0  0  0  0  0  0  0  0  0
    3.3669   -1.8216    1.2852 C   0  0  0  0  0  0  0  0  0  0  0  0
   -4.3454   -1.0484   -0.0434 C   0  0  0  0  0  0  0  0  0  0  0  0
   -4.1610    1.3702   -0.0150 O   0  0  0  0  0  0  0  0  0  0  0  0
    2.2213   -2.7022    1.5380 C   0  0  0  0  0  0  0  0  0  0  0  0
    2.2525   -3.5795    0.3510 O   0  0  0  0  0  0  0  0  0  0  0  0
    1.6457   -4.7886    0.2283 C   0  0  0  0  0  0  0  0  0  0  0  0
    1.1548   -5.3119   -0.9941 C   0  0  0  0  0  0  0  0  0  0  0  0
    1.6332   -5.5370    1.3626 C   0  0  0  0  0  0  0  0  0  0  0  0
    1.0515   -6.6952   -1.1223 C   0  0  0  0  0  0  0  0  0  0  0  0
    1.4186   -6.8631    1.2543 C   0  0  0  0  0  0  0  0  0  0  0  0
    1.3172   -7.4681    0.0038 C   0  0  0  0  0  0  0  0  0  0  0  0
    1.5699   -8.8033   -0.1569 O   0  0  0  0  0  0  0  0  0  0  0  0
    2.0641   -9.4102    1.0406 C   0  0  0  0  0  0  0  0  0  0  0  0
    3.3896   -8.8779    1.6385 C   0  0  0  0  0  0  0  0  0  0  0  0
    4.4117   -8.8522    0.7627 O   0  0  0  0  0  0  0  0  0  0  0  0
    3.5486   -8.4610    2.7763 O   0  0  0  0  0  0  0  0  0  0  0  0
   -0.0893   -2.9618   -1.1085 H   0  0  0  0  0  0  0  0  0  0  0  0
    1.2409   -2.2777   -0.5065 H   0  0  0  0  0  0  0  0  0  0  0  0
    0.7616    2.2327    0.0939 H   0  0  0  0  0  0  0  0  0  0  0  0
   -1.7471   -2.8520   -0.7069 H   0  0  0  0  0  0  0  0  0  0  0  0
    0.2908   -3.7374    1.6919 H   0  0  0  0  0  0  0  0  0  0  0  0
   -0.3325   -2.2076    2.0574 H   0  0  0  0  0  0  0  0  0  0  0  0
   -1.7279    2.3901    0.0987 H   0  0  0  0  0  0  0  0  0  0  0  0
    2.9908   -1.5768   -0.9249 H   0  0  0  0  0  0  0  0  0  0  0  0
    4.1305   -0.5420   -0.1662 H   0  0  0  0  0  0  0  0  0  0  0  0
   -1.7279   -4.4361    0.5910 H   0  0  0  0  0  0  0  0  0  0  0  0
   -1.5926   -4.3224    2.3477 H   0  0  0  0  0  0  0  0  0  0  0  0
   -2.4218   -3.0136    1.5259 H   0  0  0  0  0  0  0  0  0  0  0  0
    4.1778   -2.5426    1.1783 H   0  0  0  0  0  0  0  0  0  0  0  0
    3.4795   -1.1855    2.1621 H   0  0  0  0  0  0  0  0  0  0  0  0
   -4.2045   -1.6258   -0.9672 H   0  0  0  0  0  0  0  0  0  0  0  0
   -4.0745   -1.6569    0.8312 H   0  0  0  0  0  0  0  0  0  0  0  0
   -5.4154   -0.8663   -0.0075 H   0  0  0  0  0  0  0  0  0  0  0  0
    2.1594   -3.1903    2.5130 H   0  0  0  0  0  0  0  0  0  0  0  0
    1.4601   -1.9108    1.5973 H   0  0  0  0  0  0  0  0  0  0  0  0
    0.9019   -4.7029   -1.8651 H   0  0  0  0  0  0  0  0  0  0  0  0
    1.8641   -5.1251    2.3304 H   0  0  0  0  0  0  0  0  0  0  0  0
    0.8657   -7.1504   -2.0951 H   0  0  0  0  0  0  0  0  0  0  0  0
    1.5333   -7.3642    2.2012 H   0  0  0  0  0  0  0  0  0  0  0  0
    1.2762   -9.3417    1.8065 H   0  0  0  0  0  0  0  0  0  0  0  0
    2.1880  -10.4745    0.8538 H   0  0  0  0  0  0  0  0  0  0  0  0
    5.1400   -8.4107    1.2495 H   0  0  0  0  0  0  0  0  0  0  0  0
  1  4  1  0  0  0  0
  2  1  2  0  0  0  0
  2  6  1  0  0  0  0
  3  1  1  0  0  0  0
  3  8  1  0  0  0  0
  4  9  1  0  0  0  0
  4 30  1  0  0  0  0
  4 31  1  0  0  0  0
  5  2  1  0  0  0  0
  5 32  1  0  0  0  0
  7  3  2  0  0  0  0
  8 33  1  0  0  0  0
  9 13  1  0  0  0  0
  9 34  1  0  0  0  0
  9 35  1  0  0  0  0
 10  5  2  0  0  0  0
 10  7  1  0  0  0  0
 10 36  1  0  0  0  0
 11  6  1  0  0  0  0
 11 14  1  0  0  0  0
 11 37  1  0  0  0  0
 11 38  1  0  0  0  0
 12  7  1  0  0  0  0
 12 16  2  0  0  0  0
 13 39  1  0  0  0  0
 13 40  1  0  0  0  0
 13 41  1  0  0  0  0
 14 17  1  0  0  0  0
 14 42  1  0  0  0  0
 14 43  1  0  0  0  0
 15 12  1  0  0  0  0
 15 44  1  0  0  0  0
 15 45  1  0  0  0  0
 15 46  1  0  0  0  0
 17 47  1  0  0  0  0
 17 48  1  0  0  0  0
 18 17  1  0  0  0  0
 19 18  1  0  0  0  0
 19 21  1  0  0  0  0
 20 19  2  0  0  0  0
 20 49  1  0  0  0  0
 21 50  1  0  0  0  0
 22 20  1  0  0  0  0
 22 24  2  0  0  0  0
 22 51  1  0  0  0  0
 23 21  2  0  0  0  0
 23 52  1  0  0  0  0
 24 23  1  0  0  0  0
 25 24  1  0  0  0  0
 25 26  1  0  0  0  0
 26 27  1  0  0  0  0
 26 53  1  0  0  0  0
 26 54  1  0  0  0  0
 27 29  2  0  0  0  0
 27 28  1  0  0  0  0
 28 55  1  0  0  0  0
M  END
>  <DRUGBANK_ID>
DB08078

>  <COMMON_NAME>
{4-[3-(4-acetyl-3-hydroxy-2-propylphenoxy)propoxy]phenoxy}acetic acid

>  <UNII>
7RV682Z3FQ

$$$$
