
 OpenBabel10282417123D

 16 16  0  0  0  0  0  0  0  0999 V2000
    0.7830    0.2546   -0.0632 N   0  0  0  0  0  0  0  0  0  0  0  0
    0.2086    1.0681    0.8982 C   0  0  0  0  0  0  0  0  0  0  0  0
    0.6825    2.3131    1.0025 N   0  0  0  0  0  0  0  0  0  0  0  0
    0.0285    3.1011    1.8742 C   0  0  0  0  0  0  0  0  0  0  0  0
    0.4613    4.4025    1.8952 O   0  0  0  0  0  0  0  0  0  0  0  0
   -0.9959    2.7237    2.7162 C   0  0  0  0  0  0  0  0  0  0  0  0
   -1.6389    3.6284    3.5559 N   0  0  0  0  0  0  0  0  0  0  0  0
   -1.3598    1.4084    2.5179 C   0  0  0  0  0  0  0  0  0  0  0  0
   -2.3525    0.8394    3.2738 O   0  0  0  0  0  0  0  0  0  0  0  0
   -0.7988    0.5715    1.6166 N   0  0  0  0  0  0  0  0  0  0  0  0
    0.3330   -0.6417   -0.1643 H   0  0  0  0  0  0  0  0  0  0  0  0
    1.7915    0.2811   -0.0543 H   0  0  0  0  0  0  0  0  0  0  0  0
    1.1348    4.3967    1.1941 H   0  0  0  0  0  0  0  0  0  0  0  0
   -2.2906    3.3899    4.2815 H   0  0  0  0  0  0  0  0  0  0  0  0
   -1.2038    4.5483    3.6111 H   0  0  0  0  0  0  0  0  0  0  0  0
   -2.6560    1.5332    3.8759 H   0  0  0  0  0  0  0  0  0  0  0  0
  1  2  1  0  0  0  0
  1 11  1  0  0  0  0
  1 12  1  0  0  0  0
  2  3  2  0  0  0  0
  2 10  1  0  0  0  0
  3  4  1  0  0  0  0
  4  5  1  0  0  0  0
  4  6  2  0  0  0  0
  5 13  1  0  0  0  0
  6  7  1  0  0  0  0
  6  8  1  0  0  0  0
  7 14  1  0  0  0  0
  7 15  1  0  0  0  0
  8  9  1  0  0  0  0
  8 10  2  0  0  0  0
  9 16  1  0  0  0  0
M  END
>  <DRUGBANK_ID>
DB02037

>  <SECONDARY_ACCESSION_NUMBERS>
EXPT01148

>  <COMMON_NAME>
2,5-Diaminopyrimidin-4,6-diol

>  <CAS_NUMBER>
102783-67-5

$$$$
