
 OpenBabel10282417213D

 81 84  0  0  1  0  0  0  0  0999 V2000
    1.0378    0.0076    0.1010 C   0  0  0  0  0  0  0  0  0  0  0  0
    0.5925    0.2519   -1.3316 C   0  0  0  0  0  0  0  0  0  0  0  0
    1.0913   -0.8720   -2.2405 C   0  0  0  0  0  0  0  0  0  0  0  0
    0.5374   -2.2290   -1.7937 C   0  0  0  0  0  0  0  0  0  0  0  0
   -0.9956   -2.2139   -1.8103 C   0  0  0  0  0  0  0  0  0  0  0  0
   -1.4980   -1.9469   -3.2320 C   0  0  0  0  0  0  0  0  0  0  0  0
   -0.9823   -3.0458   -4.1623 C   0  0  0  0  0  0  0  0  0  0  0  0
   -1.4850   -4.4014   -3.6546 C   0  0  0  0  0  0  0  0  0  0  0  0
   -3.0205   -4.4114   -3.6412 C   0  0  0  0  0  0  0  0  0  0  0  0
   -3.5405   -4.1286   -5.0391 C   0  0  0  0  0  0  0  0  0  0  0  0
   -3.1361   -5.3686   -5.7428 C   0  0  0  0  0  0  0  0  0  0  0  0
   -3.8377   -6.3761   -5.6321 O   0  0  0  0  0  0  0  0  0  0  0  0
   -1.9216   -5.2774   -6.3540 O   0  0  0  0  0  0  0  0  0  0  0  0
   -1.3974   -6.3766   -7.1287 C   0  0  1  0  0  0  0  0  0  0  0  0
   -1.4232   -7.7802   -6.4766 C   0  0  0  0  0  0  0  0  0  0  0  0
   -1.9523   -8.7344   -7.5598 C   0  0  0  0  0  0  0  0  0  0  0  0
   -1.8395   -7.9409   -8.8650 C   0  0  2  0  0  0  0  0  0  0  0  0
   -2.1592   -6.5028   -8.4607 C   0  0  2  0  0  0  0  0  0  0  0  0
   -1.6874   -5.5590   -9.5650 C   0  0  0  0  0  0  0  0  0  0  0  0
   -2.4658   -5.8575  -10.8565 C   0  0  0  0  0  0  0  0  0  0  0  0
   -2.4921   -7.3696  -11.2352 C   0  0  1  0  0  0  0  0  0  0  0  0
   -2.7372   -8.3400  -10.0317 C   0  0  1  0  0  0  0  0  0  0  0  0
   -2.4933   -9.7874  -10.4390 C   0  0  0  0  0  0  0  0  0  0  0  0
   -3.3150  -10.1844  -11.6545 C   0  0  0  0  0  0  0  0  0  0  0  0
   -3.2384   -9.1878  -12.7862 C   0  0  0  0  0  0  0  0  0  0  0  0
   -3.0148   -9.6280  -14.0362 C   0  0  0  0  0  0  0  0  0  0  0  0
   -3.1558   -8.7278  -15.2028 C   0  0  0  0  0  0  0  0  0  0  0  0
   -2.9578   -9.1664  -16.3326 O   0  0  0  0  0  0  0  0  0  0  0  0
   -3.6676   -7.3334  -14.9534 C   0  0  0  0  0  0  0  0  0  0  0  0
   -3.1040   -6.8064  -13.6416 C   0  0  0  0  0  0  0  0  0  0  0  0
   -3.4543   -7.7118  -12.4290 C   0  0  2  0  0  0  0  0  0  0  0  0
   -4.9419   -7.4959  -12.0606 C   0  0  0  0  0  0  0  0  0  0  0  0
   -3.6736   -6.2623   -8.2793 C   0  0  0  0  0  0  0  0  0  0  0  0
    0.6419   -0.9311    0.5025 H   0  0  0  0  0  0  0  0  0  0  0  0
    0.6842    0.8027    0.7575 H   0  0  0  0  0  0  0  0  0  0  0  0
    2.1296   -0.0433    0.1445 H   0  0  0  0  0  0  0  0  0  0  0  0
   -0.5001    0.3380   -1.3686 H   0  0  0  0  0  0  0  0  0  0  0  0
    0.9714    1.2118   -1.6915 H   0  0  0  0  0  0  0  0  0  0  0  0
    0.8080   -0.6545   -3.2779 H   0  0  0  0  0  0  0  0  0  0  0  0
    2.1846   -0.9052   -2.2455 H   0  0  0  0  0  0  0  0  0  0  0  0
    0.9455   -3.0188   -2.4336 H   0  0  0  0  0  0  0  0  0  0  0  0
    0.8930   -2.5051   -0.7986 H   0  0  0  0  0  0  0  0  0  0  0  0
   -1.3753   -3.1596   -1.4107 H   0  0  0  0  0  0  0  0  0  0  0  0
   -1.4142   -1.4742   -1.1246 H   0  0  0  0  0  0  0  0  0  0  0  0
   -2.5911   -1.8872   -3.2342 H   0  0  0  0  0  0  0  0  0  0  0  0
   -1.1904   -0.9671   -3.6060 H   0  0  0  0  0  0  0  0  0  0  0  0
   -1.2887   -2.8327   -5.1901 H   0  0  0  0  0  0  0  0  0  0  0  0
    0.1081   -3.0584   -4.2378 H   0  0  0  0  0  0  0  0  0  0  0  0
   -1.0610   -5.2032   -4.2642 H   0  0  0  0  0  0  0  0  0  0  0  0
   -1.1119   -4.6527   -2.6594 H   0  0  0  0  0  0  0  0  0  0  0  0
   -3.3652   -5.3958   -3.3021 H   0  0  0  0  0  0  0  0  0  0  0  0
   -3.4446   -3.7003   -2.9288 H   0  0  0  0  0  0  0  0  0  0  0  0
   -4.6313   -4.0514   -5.0587 H   0  0  0  0  0  0  0  0  0  0  0  0
   -3.1859   -3.2151   -5.5288 H   0  0  0  0  0  0  0  0  0  0  0  0
   -0.3357   -6.1485   -7.3210 H   0  0  0  0  0  0  0  0  0  0  0  0
   -2.0201   -7.8354   -5.5643 H   0  0  0  0  0  0  0  0  0  0  0  0
   -0.4112   -8.0933   -6.1835 H   0  0  0  0  0  0  0  0  0  0  0  0
   -2.9867   -9.0161   -7.3350 H   0  0  0  0  0  0  0  0  0  0  0  0
   -1.3665   -9.6598   -7.6028 H   0  0  0  0  0  0  0  0  0  0  0  0
   -0.7916   -8.0165   -9.1942 H   0  0  0  0  0  0  0  0  0  0  0  0
   -0.6115   -5.6735   -9.7484 H   0  0  0  0  0  0  0  0  0  0  0  0
   -1.8448   -4.5148   -9.2664 H   0  0  0  0  0  0  0  0  0  0  0  0
   -2.0186   -5.2688  -11.6629 H   0  0  0  0  0  0  0  0  0  0  0  0
   -3.4833   -5.4673  -10.7563 H   0  0  0  0  0  0  0  0  0  0  0  0
   -1.4649   -7.5774  -11.5742 H   0  0  0  0  0  0  0  0  0  0  0  0
   -3.7833   -8.2829   -9.7110 H   0  0  0  0  0  0  0  0  0  0  0  0
   -2.7583  -10.4530   -9.6084 H   0  0  0  0  0  0  0  0  0  0  0  0
   -1.4277   -9.9331  -10.6445 H   0  0  0  0  0  0  0  0  0  0  0  0
   -4.3675  -10.2900  -11.3631 H   0  0  0  0  0  0  0  0  0  0  0  0
   -2.9843  -11.1774  -11.9787 H   0  0  0  0  0  0  0  0  0  0  0  0
   -2.8154  -10.6681  -14.2668 H   0  0  0  0  0  0  0  0  0  0  0  0
   -3.3466   -6.6869  -15.7758 H   0  0  0  0  0  0  0  0  0  0  0  0
   -4.7621   -7.3590  -14.9473 H   0  0  0  0  0  0  0  0  0  0  0  0
   -2.0120   -6.7348  -13.7422 H   0  0  0  0  0  0  0  0  0  0  0  0
   -3.4727   -5.7857  -13.4808 H   0  0  0  0  0  0  0  0  0  0  0  0
   -5.2669   -8.1212  -11.2238 H   0  0  0  0  0  0  0  0  0  0  0  0
   -5.1450   -6.4562  -11.7859 H   0  0  0  0  0  0  0  0  0  0  0  0
   -5.6034   -7.7431  -12.8975 H   0  0  0  0  0  0  0  0  0  0  0  0
   -4.0910   -7.0160   -7.6137 H   0  0  0  0  0  0  0  0  0  0  0  0
   -3.8483   -5.2387   -7.9350 H   0  0  0  0  0  0  0  0  0  0  0  0
   -4.2969   -6.3422   -9.1641 H   0  0  0  0  0  0  0  0  0  0  0  0
  1  2  1  0  0  0  0
  1 34  1  0  0  0  0
  1 35  1  0  0  0  0
  1 36  1  0  0  0  0
  2  3  1  0  0  0  0
  2 37  1  0  0  0  0
  2 38  1  0  0  0  0
  3  4  1  0  0  0  0
  3 39  1  0  0  0  0
  3 40  1  0  0  0  0
  4  5  1  0  0  0  0
  4 41  1  0  0  0  0
  4 42  1  0  0  0  0
  5  6  1  0  0  0  0
  5 43  1  0  0  0  0
  5 44  1  0  0  0  0
  6  7  1  0  0  0  0
  6 45  1  0  0  0  0
  6 46  1  0  0  0  0
  7  8  1  0  0  0  0
  7 47  1  0  0  0  0
  7 48  1  0  0  0  0
  8  9  1  0  0  0  0
  8 49  1  0  0  0  0
  8 50  1  0  0  0  0
  9 10  1  0  0  0  0
  9 51  1  0  0  0  0
  9 52  1  0  0  0  0
 10 11  1  0  0  0  0
 10 53  1  0  0  0  0
 10 54  1  0  0  0  0
 11 12  2  0  0  0  0
 11 13  1  0  0  0  0
 14 13  1  0  0  0  0
 14 15  1  0  0  0  0
 14 18  1  0  0  0  0
 14 55  1  6  0  0  0
 15 16  1  0  0  0  0
 15 56  1  0  0  0  0
 15 57  1  0  0  0  0
 16 58  1  0  0  0  0
 16 59  1  0  0  0  0
 17 16  1  0  0  0  0
 17 18  1  0  0  0  0
 17 22  1  0  0  0  0
 17 60  1  6  0  0  0
 18 19  1  0  0  0  0
 18 33  1  1  0  0  0
 19 20  1  0  0  0  0
 19 61  1  0  0  0  0
 19 62  1  0  0  0  0
 20 63  1  0  0  0  0
 20 64  1  0  0  0  0
 21 20  1  0  0  0  0
 21 22  1  0  0  0  0
 21 31  1  0  0  0  0
 21 65  1  6  0  0  0
 22 23  1  0  0  0  0
 22 66  1  1  0  0  0
 23 24  1  0  0  0  0
 23 67  1  0  0  0  0
 23 68  1  0  0  0  0
 24 25  1  0  0  0  0
 24 69  1  0  0  0  0
 24 70  1  0  0  0  0
 25 26  2  0  0  0  0
 25 31  1  0  0  0  0
 26 27  1  0  0  0  0
 26 71  1  0  0  0  0
 27 28  2  0  0  0  0
 27 29  1  0  0  0  0
 29 30  1  0  0  0  0
 29 72  1  0  0  0  0
 29 73  1  0  0  0  0
 30 31  1  0  0  0  0
 30 74  1  0  0  0  0
 30 75  1  0  0  0  0
 31 32  1  1  0  0  0
 32 76  1  0  0  0  0
 32 77  1  0  0  0  0
 32 78  1  0  0  0  0
 33 79  1  0  0  0  0
 33 80  1  0  0  0  0
 33 81  1  0  0  0  0
M  END
>  <DRUGBANK_ID>
DB13946

>  <SECONDARY_ACCESSION_NUMBERS>
DBSALT001033

>  <COMMON_NAME>
Testosterone undecanoate

>  <CAS_NUMBER>
5949-44-0

>  <UNII>
H16A5VCT9C

>  <SYNONYMS>
Testosterone undecanoate; Testosterone undeconate; Testosterone undecylate

$$$$
