
 OpenBabel10282417113D

 53 58  0  0  0  0  0  0  0  0999 V2000
   -0.7028    1.6467   -0.1943 C   0  0  0  0  0  0  0  0  0  0  0  0
   -0.3749    0.3632   -0.5498 C   0  0  0  0  0  0  0  0  0  0  0  0
   -2.9243    0.1659    0.0194 C   0  0  0  0  0  0  0  0  0  0  0  0
   -2.2340   -1.0444   -0.0330 C   0  0  0  0  0  0  0  0  0  0  0  0
   -0.9138   -0.8975   -0.3494 C   0  0  0  0  0  0  0  0  0  0  0  0
   -2.1745    1.5092   -0.0478 C   0  0  0  0  0  0  0  0  0  0  0  0
    1.1900   -1.0739   -1.1978 C   0  0  1  0  0  0  0  0  0  0  0  0
    2.3137   -1.2158    0.0639 C   0  0  2  0  0  0  0  0  0  0  0  0
    3.2571   -0.0610    0.4706 C   0  0  0  0  0  0  0  0  0  0  0  0
    3.1226    1.1386   -0.4021 C   0  0  0  0  0  0  0  0  0  0  0  0
    1.1093    1.8561   -1.7267 C   0  0  1  0  0  0  0  0  0  0  0  0
   -0.5613    2.5707   -2.1932 N   0  0  0  0  0  0  0  0  0  0  0  0
    1.6303    1.2072   -0.4831 C   0  0  2  0  0  0  0  0  0  0  0  0
    1.3790    2.0381    0.9064 O   0  0  0  0  0  0  0  0  0  0  0  0
    0.6945    2.9008   -0.8611 C   0  0  0  0  0  0  0  0  0  0  0  0
    0.6941    0.3696   -1.6078 C   0  0  1  0  0  0  0  0  0  0  0  0
    0.2050    1.1753   -3.3974 C   0  0  0  0  0  0  0  0  0  0  0  0
   -1.1975    1.7481   -3.1545 C   0  0  0  0  0  0  0  0  0  0  0  0
    3.2304   -2.3157    0.0381 O   0  0  0  0  0  0  0  0  0  0  0  0
    0.0028   -1.8497   -0.7256 O   0  0  0  0  0  0  0  0  0  0  0  0
   -2.8216   -2.2750   -0.0485 O   0  0  0  0  0  0  0  0  0  0  0  0
   -1.0758    3.8488   -1.3823 C   0  0  0  0  0  0  0  0  0  0  0  0
   -0.0847    5.0014   -1.7180 C   0  0  0  0  0  0  0  0  0  0  0  0
    1.6239    5.0651   -1.5523 C   0  0  0  0  0  0  0  0  0  0  0  0
    0.0029    6.1104   -0.6812 C   0  0  0  0  0  0  0  0  0  0  0  0
    1.4109    6.4864   -1.2588 C   0  0  0  0  0  0  0  0  0  0  0  0
   -4.0263    0.0973    0.0020 H   0  0  0  0  0  0  0  0  0  0  0  0
   -2.9038    2.3206   -0.1228 H   0  0  0  0  0  0  0  0  0  0  0  0
    1.5533   -1.5349   -2.1004 H   0  0  0  0  0  0  0  0  0  0  0  0
    1.7137   -1.4359    0.9572 H   0  0  0  0  0  0  0  0  0  0  0  0
    4.3175   -0.3117    0.5693 H   0  0  0  0  0  0  0  0  0  0  0  0
    2.9542    0.2015    1.5035 H   0  0  0  0  0  0  0  0  0  0  0  0
    3.6433    1.9746    0.1156 H   0  0  0  0  0  0  0  0  0  0  0  0
    3.5252    1.1676   -1.4040 H   0  0  0  0  0  0  0  0  0  0  0  0
    1.9374    1.6504   -2.4905 H   0  0  0  0  0  0  0  0  0  0  0  0
    1.4694    3.0422    0.8080 H   0  0  0  0  0  0  0  0  0  0  0  0
    0.9706    3.3246   -1.9181 H   0  0  0  0  0  0  0  0  0  0  0  0
    1.8233    3.0234   -0.7297 H   0  0  0  0  0  0  0  0  0  0  0  0
    0.2020    2.1079   -4.2412 H   0  0  0  0  0  0  0  0  0  0  0  0
    0.9664    2.2093   -3.5236 H   0  0  0  0  0  0  0  0  0  0  0  0
   -1.6161    2.2508   -4.0570 H   0  0  0  0  0  0  0  0  0  0  0  0
   -1.7621    0.8574   -2.9239 H   0  0  0  0  0  0  0  0  0  0  0  0
    3.0849   -2.9003   -0.7107 H   0  0  0  0  0  0  0  0  0  0  0  0
   -3.3744   -2.4066    0.7408 H   0  0  0  0  0  0  0  0  0  0  0  0
   -2.1517    3.9585   -1.4311 H   0  0  0  0  0  0  0  0  0  0  0  0
   -0.9493    3.7781   -0.2519 H   0  0  0  0  0  0  0  0  0  0  0  0
   -0.3503    5.1986   -2.7503 H   0  0  0  0  0  0  0  0  0  0  0  0
    2.1886    4.6463   -0.6942 H   0  0  0  0  0  0  0  0  0  0  0  0
    2.1847    4.7926   -2.4564 H   0  0  0  0  0  0  0  0  0  0  0  0
   -0.8200    6.7937   -0.8352 H   0  0  0  0  0  0  0  0  0  0  0  0
    0.0147    5.7370    0.3580 H   0  0  0  0  0  0  0  0  0  0  0  0
    2.1977    6.8115   -0.5780 H   0  0  0  0  0  0  0  0  0  0  0  0
    1.4559    6.9454   -2.2404 H   0  0  0  0  0  0  0  0  0  0  0  0
  1  6  2  0  0  0  0
  2  1  1  0  0  0  0
  3  4  2  0  0  0  0
  3  6  1  0  0  0  0
  3 27  1  0  0  0  0
  4  5  1  0  0  0  0
  4 21  1  0  0  0  0
  5  2  2  0  0  0  0
  5 20  1  0  0  0  0
  6 28  1  0  0  0  0
  7  8  1  0  0  0  0
  7 20  1  0  0  0  0
  7 29  1  1  0  0  0
  8  9  1  0  0  0  0
  8 19  1  0  0  0  0
  8 30  1  1  0  0  0
  9 10  1  0  0  0  0
  9 31  1  0  0  0  0
  9 32  1  0  0  0  0
 10 13  1  0  0  0  0
 10 33  1  0  0  0  0
 10 34  1  0  0  0  0
 11 12  1  0  0  0  0
 11 15  1  0  0  0  0
 11 35  1  1  0  0  0
 12 18  1  0  0  0  0
 12 22  1  0  0  0  0
 13 11  1  0  0  0  0
 13 14  1  1  0  0  0
 14 36  1  0  0  0  0
 15  1  1  0  0  0  0
 15 37  1  0  0  0  0
 15 38  1  0  0  0  0
 16  2  1  6  0  0  0
 16 13  1  0  0  0  0
 16  7  1  0  0  0  0
 16 17  1  0  0  0  0
 17 18  1  0  0  0  0
 17 39  1  0  0  0  0
 17 40  1  0  0  0  0
 18 41  1  0  0  0  0
 18 42  1  0  0  0  0
 19 43  1  0  0  0  0
 21 44  1  0  0  0  0
 22 23  1  0  0  0  0
 22 45  1  0  0  0  0
 22 46  1  0  0  0  0
 23 24  1  0  0  0  0
 23 25  1  0  0  0  0
 23 47  1  0  0  0  0
 24 48  1  0  0  0  0
 24 49  1  0  0  0  0
 25 26  1  0  0  0  0
 25 50  1  0  0  0  0
 25 51  1  0  0  0  0
 26 24  1  0  0  0  0
 26 52  1  0  0  0  0
 26 53  1  0  0  0  0
M  END
>  <DRUGBANK_ID>
DB00844

>  <SECONDARY_ACCESSION_NUMBERS>
APRD01132

>  <COMMON_NAME>
Nalbuphine

>  <CAS_NUMBER>
20594-83-6

>  <UNII>
L2T84IQI2K

>  <SYNONYMS>
N-cyclobutylmethyl-4,5α-epoxy-3,6α,14-morphinantriol; Nalbufina; Nalbuphin; Nalbuphine; Nalbuphinum

$$$$
