
 OpenBabel10282417163D

  6  4  0  0  0  0  0  0  0  0999 V2000
    2.7501   -0.4237   -1.2995 Cl  0  5  0  0  0  0  0  0  0  0  0  0
    0.5259    0.0445    0.3577 N   0  3  0  0  0  0  0  0  0  0  0  0
    0.4617    1.0343    0.5778 H   0  0  0  0  0  0  0  0  0  0  0  0
   -0.0579   -0.2338   -0.4328 H   0  0  0  0  0  0  0  0  0  0  0  0
    0.4764   -0.5945    1.1471 H   0  0  0  0  0  0  0  0  0  0  0  0
    1.4906   -0.0881   -0.0660 H   0  0  0  0  0  0  0  0  0  0  0  0
  2  3  1  0  0  0  0
  2  4  1  0  0  0  0
  2  5  1  0  0  0  0
  2  6  1  0  0  0  0
M  CHG  2   1  -1   2   1
M  END
>  <DRUGBANK_ID>
DB06767

>  <COMMON_NAME>
Ammonium chloride

>  <CAS_NUMBER>
12125-02-9

>  <UNII>
01Q9PC255D

>  <SYNONYMS>
Ammonium chloride; Ammoniumchlorid; Chlorammonic; Chlorid ammonia

$$$$
