
 OpenBabel10282417133D

 23 23  0  0  0  0  0  0  0  0999 V2000
    0.7345    1.1504   -0.2352 O   0  0  0  0  0  0  0  0  0  0  0  0
    1.4439   -0.0216    0.1992 C   0  0  1  0  0  0  0  0  0  0  0  0
   -0.6011    1.2265    0.2782 C   0  0  1  0  0  0  0  0  0  0  0  0
   -1.4317    0.0089   -0.1794 C   0  0  1  0  0  0  0  0  0  0  0  0
   -0.7203   -1.2836    0.2343 C   0  0  2  0  0  0  0  0  0  0  0  0
    0.7185   -1.2909   -0.2856 C   0  0  1  0  0  0  0  0  0  0  0  0
   -0.5716    1.4206    1.6860 O   0  0  0  0  0  0  0  0  0  0  0  0
   -2.7580    0.0321    0.3525 O   0  0  0  0  0  0  0  0  0  0  0  0
   -1.4634   -2.4036   -0.2608 O   0  0  0  0  0  0  0  0  0  0  0  0
    0.6751   -1.3606   -1.7212 O   0  0  0  0  0  0  0  0  0  0  0  0
    2.8667    0.0468   -0.3393 C   0  0  0  0  0  0  0  0  0  0  0  0
    1.5020   -0.0158    1.2949 H   0  0  0  0  0  0  0  0  0  0  0  0
   -1.0622    2.1313   -0.1333 H   0  0  0  0  0  0  0  0  0  0  0  0
   -1.5235    0.0296   -1.2742 H   0  0  0  0  0  0  0  0  0  0  0  0
   -0.7264   -1.3788    1.3251 H   0  0  0  0  0  0  0  0  0  0  0  0
    1.2380   -2.1911    0.0588 H   0  0  0  0  0  0  0  0  0  0  0  0
   -0.4810    0.5613    2.1286 H   0  0  0  0  0  0  0  0  0  0  0  0
   -2.9687   -0.8807    0.6302 H   0  0  0  0  0  0  0  0  0  0  0  0
   -1.3240   -2.4210   -1.2291 H   0  0  0  0  0  0  0  0  0  0  0  0
    0.5594   -0.4530   -2.0627 H   0  0  0  0  0  0  0  0  0  0  0  0
    3.3721    0.9498    0.0192 H   0  0  0  0  0  0  0  0  0  0  0  0
    3.4423   -0.8252   -0.0125 H   0  0  0  0  0  0  0  0  0  0  0  0
    2.8818    0.0890   -1.4328 H   0  0  0  0  0  0  0  0  0  0  0  0
  2  1  1  0  0  0  0
  2 11  1  0  0  0  0
  2 12  1  1  0  0  0
  3  1  1  0  0  0  0
  3  7  1  0  0  0  0
  3  4  1  0  0  0  0
  3 13  1  6  0  0  0
  4  5  1  0  0  0  0
  4 14  1  6  0  0  0
  4  8  1  0  0  0  0
  5  9  1  0  0  0  0
  5  6  1  0  0  0  0
  5 15  1  1  0  0  0
  6  2  1  0  0  0  0
  6 10  1  0  0  0  0
  6 16  1  1  0  0  0
  7 17  1  0  0  0  0
  8 18  1  0  0  0  0
  9 19  1  0  0  0  0
 10 20  1  0  0  0  0
 11 21  1  0  0  0  0
 11 22  1  0  0  0  0
 11 23  1  0  0  0  0
M  END
>  <DRUGBANK_ID>
DB03485

>  <SECONDARY_ACCESSION_NUMBERS>
EXPT01400

>  <COMMON_NAME>
alpha-D-Fucopyranose

>  <CAS_NUMBER>
6189-71-5

>  <UNII>
K15K52FOK4

>  <SYNONYMS>
6-deoxy-alpha-D-galactopyranose; 6-deoxy-α-D-galactopyranose; alpha-D-fucose; α-D-fucopyranose

$$$$
