
 OpenBabel10282417153D

 46 47  0  0  1  0  0  0  0  0999 V2000
    0.7511    0.1856    0.0178 O   0  0  0  0  0  0  0  0  0  0  0  0
    2.4426   -0.6803    5.7474 O   0  0  0  0  0  0  0  0  0  0  0  0
    1.0169    3.4897    3.8698 O   0  0  0  0  0  0  0  0  0  0  0  0
    1.9881    2.1549    5.9465 O   0  0  0  0  0  0  0  0  0  0  0  0
    6.8408   -2.0011    1.0530 O   0  0  0  0  0  0  0  0  0  0  0  0
    5.1472   -4.6494    1.0951 O   0  0  0  0  0  0  0  0  0  0  0  0
    0.5018   -0.6384    1.1685 C   0  0  1  0  0  0  0  0  0  0  0  0
    1.1444   -2.0293    0.9912 C   0  0  0  0  0  0  0  0  0  0  0  0
    0.8972    0.0677    2.4605 C   0  0  0  0  0  0  0  0  0  0  0  0
    2.6653   -2.0512    1.0161 C   0  0  0  0  0  0  0  0  0  0  0  0
    0.7802    1.4517    2.5607 C   0  0  0  0  0  0  0  0  0  0  0  0
    1.4321   -0.6327    3.5573 C   0  0  0  0  0  0  0  0  0  0  0  0
    1.8567    0.0065    4.7198 C   0  0  0  0  0  0  0  0  0  0  0  0
    1.1491    2.1246    3.7325 C   0  0  0  0  0  0  0  0  0  0  0  0
    3.3162   -3.2812    1.0372 C   0  0  0  0  0  0  0  0  0  0  0  0
    3.4572   -0.8950    1.0685 C   0  0  0  0  0  0  0  0  0  0  0  0
    1.6821    1.4000    4.8325 C   0  0  0  0  0  0  0  0  0  0  0  0
    4.7159   -3.3582    1.0626 C   0  0  0  0  0  0  0  0  0  0  0  0
    4.8402   -0.9632    1.0810 C   0  0  0  0  0  0  0  0  0  0  0  0
    5.4924   -2.1898    1.0614 C   0  0  0  0  0  0  0  0  0  0  0  0
    2.6895   -2.0738    5.6421 C   0  0  0  0  0  0  0  0  0  0  0  0
    0.4810    4.1962    2.7518 C   0  0  0  0  0  0  0  0  0  0  0  0
    2.4690    1.4779    7.1036 C   0  0  0  0  0  0  0  0  0  0  0  0
    7.6873   -3.1203    0.9908 C   0  0  0  0  0  0  0  0  0  0  0  0
    1.6611    0.0310   -0.2889 H   0  0  0  0  0  0  0  0  0  0  0  0
    6.1108   -4.6994    1.1044 H   0  0  0  0  0  0  0  0  0  0  0  0
   -0.5861   -0.7592    1.1962 H   0  0  0  0  0  0  0  0  0  0  0  0
    0.7718   -2.6873    1.7905 H   0  0  0  0  0  0  0  0  0  0  0  0
    0.8091   -2.4716    0.0459 H   0  0  0  0  0  0  0  0  0  0  0  0
    0.4107    1.9841    1.6890 H   0  0  0  0  0  0  0  0  0  0  0  0
    1.5775   -1.7025    3.4827 H   0  0  0  0  0  0  0  0  0  0  0  0
    2.7425   -4.2066    1.0496 H   0  0  0  0  0  0  0  0  0  0  0  0
    3.0488    0.1065    1.1441 H   0  0  0  0  0  0  0  0  0  0  0  0
    5.4038   -0.0316    1.1166 H   0  0  0  0  0  0  0  0  0  0  0  0
    1.7612   -2.6331    5.4927 H   0  0  0  0  0  0  0  0  0  0  0  0
    3.4224   -2.2888    4.8582 H   0  0  0  0  0  0  0  0  0  0  0  0
    3.1163   -2.3993    6.5964 H   0  0  0  0  0  0  0  0  0  0  0  0
    1.1547    4.1341    1.8888 H   0  0  0  0  0  0  0  0  0  0  0  0
   -0.5215    3.8355    2.4914 H   0  0  0  0  0  0  0  0  0  0  0  0
    0.3865    5.2511    3.0223 H   0  0  0  0  0  0  0  0  0  0  0  0
    1.7521    0.7284    7.4618 H   0  0  0  0  0  0  0  0  0  0  0  0
    3.4598    1.0465    6.9186 H   0  0  0  0  0  0  0  0  0  0  0  0
    2.5893    2.2036    7.9111 H   0  0  0  0  0  0  0  0  0  0  0  0
    7.5849   -3.7109    1.9052 H   0  0  0  0  0  0  0  0  0  0  0  0
    7.4895   -3.6998    0.0842 H   0  0  0  0  0  0  0  0  0  0  0  0
    8.7192   -2.7678    0.9403 H   0  0  0  0  0  0  0  0  0  0  0  0
  1 25  1  0  0  0  0
  2 13  1  0  0  0  0
  2 21  1  0  0  0  0
  3 14  1  0  0  0  0
  3 22  1  0  0  0  0
  4 17  1  0  0  0  0
  4 23  1  0  0  0  0
  5 20  1  0  0  0  0
  5 24  1  0  0  0  0
  6 18  1  0  0  0  0
  6 26  1  0  0  0  0
  7  1  1  0  0  0  0
  7  8  1  0  0  0  0
  7  9  1  0  0  0  0
  7 27  1  1  0  0  0
  8 10  1  0  0  0  0
  8 28  1  0  0  0  0
  8 29  1  0  0  0  0
  9 11  2  0  0  0  0
  9 12  1  0  0  0  0
 10 15  2  0  0  0  0
 10 16  1  0  0  0  0
 11 14  1  0  0  0  0
 11 30  1  0  0  0  0
 12 13  2  0  0  0  0
 12 31  1  0  0  0  0
 13 17  1  0  0  0  0
 14 17  2  0  0  0  0
 15 18  1  0  0  0  0
 15 32  1  0  0  0  0
 16 19  2  0  0  0  0
 16 33  1  0  0  0  0
 18 20  2  0  0  0  0
 19 20  1  0  0  0  0
 19 34  1  0  0  0  0
 21 35  1  0  0  0  0
 21 36  1  0  0  0  0
 21 37  1  0  0  0  0
 22 38  1  0  0  0  0
 22 39  1  0  0  0  0
 22 40  1  0  0  0  0
 23 41  1  0  0  0  0
 23 42  1  0  0  0  0
 23 43  1  0  0  0  0
 24 44  1  0  0  0  0
 24 45  1  0  0  0  0
 24 46  1  0  0  0  0
M  END
>  <DRUGBANK_ID>
DB05284

>  <COMMON_NAME>
CA4P

>  <CAS_NUMBER>
222030-63-9

$$$$
