
 OpenBabel10282417183D

191195  0  0  1  0  0  0  0  0999 V2000
   -2.6922   -0.8105    3.0726 C   0  0  0  0  0  0  0  0  0  0  0  0
   -1.2459   -0.5670    2.9960 C   0  0  0  0  0  0  0  0  0  0  0  0
   -0.5114   -1.4594    3.9328 C   0  0  0  0  0  0  0  0  0  0  0  0
   -0.7604   -0.5445    1.5537 C   0  0  1  0  0  0  0  0  0  0  0  0
   -1.1693   -1.7971    0.7118 C   0  0  0  0  0  0  0  0  0  0  0  0
   -1.2481   -1.7484   -0.5248 O   0  0  0  0  0  0  0  0  0  0  0  0
   -1.5118   -2.9461    1.3812 N   0  0  0  0  0  0  0  0  0  0  0  0
   -2.8334   -3.4479    1.1370 C   0  0  2  0  0  0  0  0  0  0  0  0
   -3.2982   -4.2781    2.2960 C   0  0  0  0  0  0  0  0  0  0  0  0
   -2.4755   -4.8147    3.1718 O   0  0  0  0  0  0  0  0  0  0  0  0
   -4.6298   -4.3237    2.3996 N   0  0  0  0  0  0  0  0  0  0  0  0
   -5.5249   -2.9001    3.3037 C   0  0  2  0  0  0  0  0  0  0  0  0
   -7.3036   -2.6758    3.7187 C   0  0  0  0  0  0  0  0  0  0  0  0
   -8.2615   -3.4595    3.5506 O   0  0  0  0  0  0  0  0  0  0  0  0
   -7.7230   -1.4631    4.1458 N   0  0  0  0  0  0  0  0  0  0  0  0
   -7.8186   -0.3390    3.2104 C   0  0  2  0  0  0  0  0  0  0  0  0
   -7.9451    0.9002    3.9450 C   0  0  0  0  0  0  0  0  0  0  0  0
   -8.6055    0.8743    4.9843 O   0  0  0  0  0  0  0  0  0  0  0  0
   -7.4650    1.9981    3.2291 N   0  0  0  0  0  0  0  0  0  0  0  0
   -6.0251    2.3168    3.3502 C   0  0  1  0  0  0  0  0  0  0  0  0
   -5.3705    3.0052    2.1431 C   0  0  0  0  0  0  0  0  0  0  0  0
   -6.0593    3.4157    1.2140 O   0  0  0  0  0  0  0  0  0  0  0  0
   -3.9707    3.0884    2.1620 N   0  0  0  0  0  0  0  0  0  0  0  0
   -3.2089    2.2677    1.2072 C   0  0  2  0  0  0  0  0  0  0  0  0
   -1.8007    1.7859    1.6202 C   0  0  0  0  0  0  0  0  0  0  0  0
   -1.2450    2.2838    2.5960 O   0  0  0  0  0  0  0  0  0  0  0  0
   -1.3365    0.6619    0.9207 N   0  0  0  0  0  0  0  0  0  0  0  0
   -3.0441    2.9980   -0.1189 C   0  0  0  0  0  0  0  0  0  0  0  0
   -2.8991    2.1101   -1.3347 C   0  0  0  0  0  0  0  0  0  0  0  0
   -4.0648    1.2039   -1.3600 C   0  0  0  0  0  0  0  0  0  0  0  0
   -5.4544    1.8282   -1.4419 C   0  0  0  0  0  0  0  0  0  0  0  0
   -5.5711    2.4317   -2.7404 N   0  0  0  0  0  0  0  0  0  0  0  0
   -5.9314    3.2822    4.5104 C   0  0  0  0  0  0  0  0  0  0  0  0
   -6.5028    2.6884    5.7508 C   0  0  0  0  0  0  0  0  0  0  0  0
   -7.7245    3.0209    6.3079 C   0  0  0  0  0  0  0  0  0  0  0  0
   -8.0312    2.0643    7.2460 N   0  0  0  0  0  0  0  0  0  0  0  0
   -7.0085    1.1395    7.3398 C   0  0  0  0  0  0  0  0  0  0  0  0
   -6.0417    1.5009    6.4017 C   0  0  0  0  0  0  0  0  0  0  0  0
   -4.9319    0.6555    6.2050 C   0  0  0  0  0  0  0  0  0  0  0  0
   -4.7596   -0.4506    7.0354 C   0  0  0  0  0  0  0  0  0  0  0  0
   -5.7209   -0.7679    7.9911 C   0  0  0  0  0  0  0  0  0  0  0  0
   -6.8917   -0.0119    8.1259 C   0  0  0  0  0  0  0  0  0  0  0  0
   -8.7201   -0.2893    2.0221 C   0  0  0  0  0  0  0  0  0  0  0  0
  -10.1357   -0.3715    2.2377 C   0  0  0  0  0  0  0  0  0  0  0  0
  -10.6579    0.6680    2.9503 C   0  0  0  0  0  0  0  0  0  0  0  0
  -11.9730    0.6416    3.2104 C   0  0  0  0  0  0  0  0  0  0  0  0
  -12.7321   -0.3802    2.6494 C   0  0  0  0  0  0  0  0  0  0  0  0
  -12.2010   -1.4386    1.9183 C   0  0  0  0  0  0  0  0  0  0  0  0
  -10.8580   -1.4617    1.7248 C   0  0  0  0  0  0  0  0  0  0  0  0
  -14.0777   -0.3272    2.7893 O   0  0  0  0  0  0  0  0  0  0  0  0
   -5.4339   -1.5744    2.5928 C   0  0  0  0  0  0  0  0  0  0  0  0
   -5.9262   -1.3079    1.1352 C   0  0  0  0  0  0  0  0  0  0  0  0
   -7.1440   -1.7080    0.5541 C   0  0  0  0  0  0  0  0  0  0  0  0
   -7.6952   -1.5949   -0.7234 C   0  0  0  0  0  0  0  0  0  0  0  0
   -6.8745   -1.1060   -1.6411 C   0  0  0  0  0  0  0  0  0  0  0  0
   -5.5630   -1.0095   -1.2282 C   0  0  0  0  0  0  0  0  0  0  0  0
   -5.0824   -1.0447    0.1216 C   0  0  0  0  0  0  0  0  0  0  0  0
   -5.3478   -5.7466    1.5329 C   0  0  0  0  0  0  0  0  0  0  0  0
   -2.9557   -3.9609   -0.2649 C   0  0  0  0  0  0  0  0  0  0  0  0
   -3.9997   -4.9948   -0.3876 C   0  0  0  0  0  0  0  0  0  0  0  0
   -5.7979   -4.2814   -0.4739 S   0  0  0  0  0  0  0  0  0  0  0  0
   -6.7072   -4.0498    1.5811 C   0  0  0  0  0  0  0  0  0  0  0  0
   -6.5674   -4.9408    3.2899 C   0  0  0  0  0  0  0  0  0  0  0  0
   -5.8411   -4.7371    4.2956 O   0  0  0  0  0  0  0  0  0  0  0  0
   -7.3406   -5.9427    3.6139 N   0  0  0  0  0  0  0  0  0  0  0  0
   -8.1731   -6.4851    2.6780 C   0  0  0  0  0  0  0  0  0  0  0  0
   -7.5394   -7.6570    1.9371 C   0  0  1  0  0  0  0  0  0  0  0  0
   -7.1275   -8.7710    2.8907 C   0  0  0  0  0  0  0  0  0  0  0  0
   -7.7844   -9.8108    2.9519 O   0  0  0  0  0  0  0  0  0  0  0  0
   -6.0335   -8.6621    3.7187 N   0  0  0  0  0  0  0  0  0  0  0  0
   -4.8835   -7.7574    3.8481 C   0  0  1  0  0  0  0  0  0  0  0  0
   -4.9231   -6.8559    5.1743 C   0  0  0  0  0  0  0  0  0  0  0  0
   -4.3810   -7.4547    6.4101 C   0  0  0  0  0  0  0  0  0  0  0  0
   -2.9298   -7.4931    5.9776 C   0  0  0  0  0  0  0  0  0  0  0  0
   -1.8922   -6.4685    5.9518 C   0  0  0  0  0  0  0  0  0  0  0  0
   -1.8748   -6.0430    7.3060 N   0  0  0  0  0  0  0  0  0  0  0  0
   -3.5555   -8.4128    3.3042 C   0  0  0  0  0  0  0  0  0  0  0  0
   -2.8849   -7.8689    2.4122 O   0  0  0  0  0  0  0  0  0  0  0  0
   -2.9932   -9.4619    4.0309 N   0  0  0  0  0  0  0  0  0  0  0  0
   -3.4741  -10.0889    5.3905 C   0  0  1  0  0  0  0  0  0  0  0  0
   -3.9832  -11.4788    5.1860 C   0  0  0  0  0  0  0  0  0  0  0  0
   -2.8180  -12.6084    4.4208 S   0  0  0  0  0  0  0  0  0  0  0  0
   -2.8010   -9.9209    7.0016 C   0  0  0  0  0  0  0  0  0  0  0  0
   -3.4398   -9.5368    7.9858 O   0  0  0  0  0  0  0  0  0  0  0  0
   -1.4134   -9.8794    7.0847 N   0  0  0  0  0  0  0  0  0  0  0  0
   -0.6515  -10.5384    6.0866 C   0  0  1  0  0  0  0  0  0  0  0  0
    0.4966   -9.7443    5.4384 C   0  0  0  0  0  0  0  0  0  0  0  0
    1.6342   -9.4463    6.3952 C   0  0  0  0  0  0  0  0  0  0  0  0
    2.2454  -10.7539    6.8649 C   0  0  0  0  0  0  0  0  0  0  0  0
    2.7123  -11.7649    5.8432 C   0  0  0  0  0  0  0  0  0  0  0  0
    3.8791  -11.1922    5.2377 N   0  0  0  0  0  0  0  0  0  0  0  0
   -0.4847  -11.9793    6.6694 C   0  0  0  0  0  0  0  0  0  0  0  0
   -0.3556  -12.9859    5.9841 O   0  0  0  0  0  0  0  0  0  0  0  0
   -0.1955  -12.0922    8.0156 N   0  0  0  0  0  0  0  0  0  0  0  0
   -8.5702   -7.9315    0.9504 N   0  0  0  0  0  0  0  0  0  0  0  0
   -2.8602   -1.8673    2.9294 H   0  0  0  0  0  0  0  0  0  0  0  0
   -3.2003   -0.2204    2.3020 H   0  0  0  0  0  0  0  0  0  0  0  0
   -3.1519   -0.5990    4.0334 H   0  0  0  0  0  0  0  0  0  0  0  0
   -1.1635    0.4042    3.4570 H   0  0  0  0  0  0  0  0  0  0  0  0
   -0.4218   -2.4977    3.6440 H   0  0  0  0  0  0  0  0  0  0  0  0
    0.4890   -1.0526    4.0144 H   0  0  0  0  0  0  0  0  0  0  0  0
   -1.0451   -1.4390    4.8853 H   0  0  0  0  0  0  0  0  0  0  0  0
    0.3212   -0.4808    1.4584 H   0  0  0  0  0  0  0  0  0  0  0  0
   -1.2976   -3.1043    2.3528 H   0  0  0  0  0  0  0  0  0  0  0  0
   -3.5034   -2.6047    1.1943 H   0  0  0  0  0  0  0  0  0  0  0  0
   -5.0295   -2.8193    4.3011 H   0  0  0  0  0  0  0  0  0  0  0  0
   -8.5308   -1.5327    4.7683 H   0  0  0  0  0  0  0  0  0  0  0  0
   -6.8916   -0.1412    2.7456 H   0  0  0  0  0  0  0  0  0  0  0  0
   -7.8557    2.1664    2.3055 H   0  0  0  0  0  0  0  0  0  0  0  0
   -5.4634    1.3830    3.4959 H   0  0  0  0  0  0  0  0  0  0  0  0
   -3.4815    3.2824    3.0280 H   0  0  0  0  0  0  0  0  0  0  0  0
   -3.8232    1.3645    1.2174 H   0  0  0  0  0  0  0  0  0  0  0  0
   -1.1393    0.7222   -0.0688 H   0  0  0  0  0  0  0  0  0  0  0  0
   -3.9181    3.6309   -0.2692 H   0  0  0  0  0  0  0  0  0  0  0  0
   -2.1784    3.6515   -0.0630 H   0  0  0  0  0  0  0  0  0  0  0  0
   -2.8380    2.6471   -2.2740 H   0  0  0  0  0  0  0  0  0  0  0  0
   -2.0277    1.4583   -1.3325 H   0  0  0  0  0  0  0  0  0  0  0  0
   -3.7896    0.4717   -2.1172 H   0  0  0  0  0  0  0  0  0  0  0  0
   -3.9947    0.7144   -0.4168 H   0  0  0  0  0  0  0  0  0  0  0  0
   -6.3229    1.1951   -1.2649 H   0  0  0  0  0  0  0  0  0  0  0  0
   -5.5838    2.5526   -0.6550 H   0  0  0  0  0  0  0  0  0  0  0  0
   -6.4438    2.9497   -2.7585 H   0  0  0  0  0  0  0  0  0  0  0  0
   -4.8227    3.1148   -2.8103 H   0  0  0  0  0  0  0  0  0  0  0  0
   -4.9025    3.5913    4.6736 H   0  0  0  0  0  0  0  0  0  0  0  0
   -6.5182    4.1638    4.2166 H   0  0  0  0  0  0  0  0  0  0  0  0
   -8.4756    3.7284    5.9750 H   0  0  0  0  0  0  0  0  0  0  0  0
   -8.9444    1.9498    7.6629 H   0  0  0  0  0  0  0  0  0  0  0  0
   -4.1979    0.8789    5.4396 H   0  0  0  0  0  0  0  0  0  0  0  0
   -3.8591   -1.0518    6.9473 H   0  0  0  0  0  0  0  0  0  0  0  0
   -5.5554   -1.6152    8.6516 H   0  0  0  0  0  0  0  0  0  0  0  0
   -7.6608   -0.2954    8.8364 H   0  0  0  0  0  0  0  0  0  0  0  0
   -8.3968    0.4527    1.2735 H   0  0  0  0  0  0  0  0  0  0  0  0
   -8.7385   -1.2053    1.5492 H   0  0  0  0  0  0  0  0  0  0  0  0
  -10.0473    1.4759    3.3201 H   0  0  0  0  0  0  0  0  0  0  0  0
  -12.3341    1.4547    3.8168 H   0  0  0  0  0  0  0  0  0  0  0  0
  -12.8130   -2.2219    1.4971 H   0  0  0  0  0  0  0  0  0  0  0  0
  -10.3844   -2.2869    1.1808 H   0  0  0  0  0  0  0  0  0  0  0  0
  -14.2436    0.4977    3.2716 H   0  0  0  0  0  0  0  0  0  0  0  0
   -5.6185   -0.8866    3.4397 H   0  0  0  0  0  0  0  0  0  0  0  0
   -4.4529   -1.3359    2.5431 H   0  0  0  0  0  0  0  0  0  0  0  0
   -7.8135   -2.3327    1.0962 H   0  0  0  0  0  0  0  0  0  0  0  0
   -8.6824   -1.9815   -0.9435 H   0  0  0  0  0  0  0  0  0  0  0  0
   -7.1710   -0.8754   -2.6504 H   0  0  0  0  0  0  0  0  0  0  0  0
   -4.9377   -0.7970   -2.0679 H   0  0  0  0  0  0  0  0  0  0  0  0
   -4.0278   -0.9240    0.3388 H   0  0  0  0  0  0  0  0  0  0  0  0
   -5.8650   -6.3039    2.2125 H   0  0  0  0  0  0  0  0  0  0  0  0
   -6.3218   -5.7048    0.9490 H   0  0  0  0  0  0  0  0  0  0  0  0
   -4.8483   -6.5300    0.9729 H   0  0  0  0  0  0  0  0  0  0  0  0
   -3.1768   -3.1400   -0.9418 H   0  0  0  0  0  0  0  0  0  0  0  0
   -1.9917   -4.4087   -0.5215 H   0  0  0  0  0  0  0  0  0  0  0  0
   -3.9106   -5.6187   -1.2750 H   0  0  0  0  0  0  0  0  0  0  0  0
   -3.6339   -5.6878    0.3743 H   0  0  0  0  0  0  0  0  0  0  0  0
   -5.9796   -3.2794    1.4933 H   0  0  0  0  0  0  0  0  0  0  0  0
   -7.7360   -3.9218    1.4025 H   0  0  0  0  0  0  0  0  0  0  0  0
   -6.9069   -6.5587    4.2709 H   0  0  0  0  0  0  0  0  0  0  0  0
   -9.0146   -6.7246    3.3145 H   0  0  0  0  0  0  0  0  0  0  0  0
   -8.4294   -5.6650    2.0115 H   0  0  0  0  0  0  0  0  0  0  0  0
   -6.6591   -7.5834    1.3013 H   0  0  0  0  0  0  0  0  0  0  0  0
   -5.9316   -9.4997    4.2614 H   0  0  0  0  0  0  0  0  0  0  0  0
   -4.9115   -7.0367    3.0987 H   0  0  0  0  0  0  0  0  0  0  0  0
   -4.2973   -5.9639    5.0227 H   0  0  0  0  0  0  0  0  0  0  0  0
   -5.8909   -6.5241    5.5371 H   0  0  0  0  0  0  0  0  0  0  0  0
   -4.5810   -6.8948    7.3240 H   0  0  0  0  0  0  0  0  0  0  0  0
   -5.0249   -8.3405    6.5492 H   0  0  0  0  0  0  0  0  0  0  0  0
   -2.3316   -8.2922    6.2333 H   0  0  0  0  0  0  0  0  0  0  0  0
   -2.9443   -7.6081    4.9434 H   0  0  0  0  0  0  0  0  0  0  0  0
   -0.9717   -6.9952    5.6494 H   0  0  0  0  0  0  0  0  0  0  0  0
   -2.1218   -5.7585    5.1654 H   0  0  0  0  0  0  0  0  0  0  0  0
   -1.3450   -5.1909    7.3420 H   0  0  0  0  0  0  0  0  0  0  0  0
   -2.8389   -5.8347    7.5705 H   0  0  0  0  0  0  0  0  0  0  0  0
   -1.9986   -9.4318    3.8181 H   0  0  0  0  0  0  0  0  0  0  0  0
   -4.4180   -9.5876    5.5020 H   0  0  0  0  0  0  0  0  0  0  0  0
   -4.3885  -11.8135    6.1445 H   0  0  0  0  0  0  0  0  0  0  0  0
   -4.7887  -11.4053    4.4570 H   0  0  0  0  0  0  0  0  0  0  0  0
   -1.9489  -11.6839    3.9636 H   0  0  0  0  0  0  0  0  0  0  0  0
   -0.9927   -9.4240    7.8951 H   0  0  0  0  0  0  0  0  0  0  0  0
   -1.3036  -10.5994    5.2493 H   0  0  0  0  0  0  0  0  0  0  0  0
    0.8558  -10.3042    4.5646 H   0  0  0  0  0  0  0  0  0  0  0  0
    0.1400   -8.8008    5.0012 H   0  0  0  0  0  0  0  0  0  0  0  0
    2.3851   -8.7942    5.9418 H   0  0  0  0  0  0  0  0  0  0  0  0
    1.2089   -8.9023    7.2482 H   0  0  0  0  0  0  0  0  0  0  0  0
    2.8271  -10.6779    7.7835 H   0  0  0  0  0  0  0  0  0  0  0  0
    1.4265  -11.2898    7.2073 H   0  0  0  0  0  0  0  0  0  0  0  0
    2.8854  -12.7315    6.3349 H   0  0  0  0  0  0  0  0  0  0  0  0
    1.9414  -11.9761    5.0880 H   0  0  0  0  0  0  0  0  0  0  0  0
    4.1707  -11.7852    4.4683 H   0  0  0  0  0  0  0  0  0  0  0  0
    3.6114  -10.2952    4.8354 H   0  0  0  0  0  0  0  0  0  0  0  0
    0.1778  -11.2693    8.4841 H   0  0  0  0  0  0  0  0  0  0  0  0
    0.4005  -12.9072    8.1461 H   0  0  0  0  0  0  0  0  0  0  0  0
   -8.3501   -8.7966    0.4786 H   0  0  0  0  0  0  0  0  0  0  0  0
   -9.4384   -8.0434    1.4649 H   0  0  0  0  0  0  0  0  0  0  0  0
  1  2  1  0  0  0  0
  1 96  1  0  0  0  0
  1 97  1  0  0  0  0
  1 98  1  0  0  0  0
  2  3  1  0  0  0  0
  2 99  1  0  0  0  0
  3100  1  0  0  0  0
  3101  1  0  0  0  0
  3102  1  0  0  0  0
  4  5  1  0  0  0  0
  4 27  1  0  0  0  0
  4103  1  6  0  0  0
  4  2  1  0  0  0  0
  5  6  2  0  0  0  0
  5  7  1  0  0  0  0
  7  8  1  0  0  0  0
  7104  1  0  0  0  0
  8  9  1  0  0  0  0
  8105  1  1  0  0  0
  8 59  1  0  0  0  0
  9 10  2  0  0  0  0
  9 11  1  0  0  0  0
 11 12  1  0  0  0  0
 11 58  1  0  0  0  0
 12 13  1  0  0  0  0
 12106  1  1  0  0  0
 12 51  1  0  0  0  0
 13 14  2  0  0  0  0
 13 15  1  0  0  0  0
 15 16  1  0  0  0  0
 15107  1  0  0  0  0
 16 17  1  0  0  0  0
 16108  1  6  0  0  0
 16 43  1  0  0  0  0
 17 18  2  0  0  0  0
 17 19  1  0  0  0  0
 19 20  1  0  0  0  0
 19109  1  0  0  0  0
 20 21  1  0  0  0  0
 20 33  1  0  0  0  0
 20110  1  1  0  0  0
 21 22  2  0  0  0  0
 21 23  1  0  0  0  0
 23 24  1  0  0  0  0
 23111  1  0  0  0  0
 24 25  1  0  0  0  0
 24112  1  6  0  0  0
 24 28  1  0  0  0  0
 25 26  2  0  0  0  0
 25 27  1  0  0  0  0
 27113  1  0  0  0  0
 28 29  1  0  0  0  0
 28114  1  0  0  0  0
 28115  1  0  0  0  0
 29 30  1  0  0  0  0
 29116  1  0  0  0  0
 29117  1  0  0  0  0
 30 31  1  0  0  0  0
 30118  1  0  0  0  0
 30119  1  0  0  0  0
 31 32  1  0  0  0  0
 31120  1  0  0  0  0
 31121  1  0  0  0  0
 32122  1  0  0  0  0
 32123  1  0  0  0  0
 33 34  1  0  0  0  0
 33124  1  0  0  0  0
 33125  1  0  0  0  0
 34 35  2  0  0  0  0
 34 38  1  0  0  0  0
 35 36  1  0  0  0  0
 35126  1  0  0  0  0
 36 37  1  0  0  0  0
 36127  1  0  0  0  0
 37 38  1  0  0  0  0
 37 42  2  0  0  0  0
 38 39  2  0  0  0  0
 39 40  1  0  0  0  0
 39128  1  0  0  0  0
 40 41  2  0  0  0  0
 40129  1  0  0  0  0
 41 42  1  0  0  0  0
 41130  1  0  0  0  0
 42131  1  0  0  0  0
 43 44  1  0  0  0  0
 43132  1  0  0  0  0
 43133  1  0  0  0  0
 44 45  2  0  0  0  0
 44 49  1  0  0  0  0
 45 46  1  0  0  0  0
 45134  1  0  0  0  0
 46 47  2  0  0  0  0
 46135  1  0  0  0  0
 47 48  1  0  0  0  0
 47 50  1  0  0  0  0
 48 49  2  0  0  0  0
 48136  1  0  0  0  0
 49137  1  0  0  0  0
 50138  1  0  0  0  0
 51 52  1  0  0  0  0
 51139  1  0  0  0  0
 51140  1  0  0  0  0
 52 53  2  0  0  0  0
 52 57  1  0  0  0  0
 53 54  1  0  0  0  0
 53141  1  0  0  0  0
 54 55  2  0  0  0  0
 54142  1  0  0  0  0
 55 56  1  0  0  0  0
 55143  1  0  0  0  0
 56 57  2  0  0  0  0
 56144  1  0  0  0  0
 57145  1  0  0  0  0
 58146  1  0  0  0  0
 58147  1  0  0  0  0
 58148  1  0  0  0  0
 59 60  1  0  0  0  0
 59149  1  0  0  0  0
 59150  1  0  0  0  0
 60 61  1  0  0  0  0
 60151  1  0  0  0  0
 60152  1  0  0  0  0
 61 62  1  0  0  0  0
 62 63  1  0  0  0  0
 62153  1  0  0  0  0
 62154  1  0  0  0  0
 63 64  2  0  0  0  0
 63 65  1  0  0  0  0
 65 66  1  0  0  0  0
 65155  1  0  0  0  0
 66 67  1  0  0  0  0
 66156  1  0  0  0  0
 66157  1  0  0  0  0
 67 68  1  0  0  0  0
 67 95  1  0  0  0  0
 67158  1  6  0  0  0
 68 69  2  0  0  0  0
 68 70  1  0  0  0  0
 70159  1  0  0  0  0
 71 70  1  0  0  0  0
 71 72  1  0  0  0  0
 71 77  1  0  0  0  0
 71160  1  6  0  0  0
 72 73  1  0  0  0  0
 72161  1  0  0  0  0
 72162  1  0  0  0  0
 73 74  1  0  0  0  0
 73163  1  0  0  0  0
 73164  1  0  0  0  0
 74 75  1  0  0  0  0
 74165  1  0  0  0  0
 74166  1  0  0  0  0
 75 76  1  0  0  0  0
 75167  1  0  0  0  0
 75168  1  0  0  0  0
 76169  1  0  0  0  0
 76170  1  0  0  0  0
 77 78  2  0  0  0  0
 77 79  1  0  0  0  0
 79171  1  0  0  0  0
 80 79  1  0  0  0  0
 80 81  1  0  0  0  0
 80 83  1  0  0  0  0
 80172  1  1  0  0  0
 81 82  1  0  0  0  0
 81173  1  0  0  0  0
 81174  1  0  0  0  0
 82175  1  0  0  0  0
 83 84  2  0  0  0  0
 83 85  1  0  0  0  0
 85176  1  0  0  0  0
 86 85  1  0  0  0  0
 86 87  1  0  0  0  0
 86 92  1  0  0  0  0
 86177  1  6  0  0  0
 87 88  1  0  0  0  0
 87178  1  0  0  0  0
 87179  1  0  0  0  0
 88 89  1  0  0  0  0
 88180  1  0  0  0  0
 88181  1  0  0  0  0
 89 90  1  0  0  0  0
 89182  1  0  0  0  0
 89183  1  0  0  0  0
 90 91  1  0  0  0  0
 90184  1  0  0  0  0
 90185  1  0  0  0  0
 91186  1  0  0  0  0
 91187  1  0  0  0  0
 92 93  2  0  0  0  0
 92 94  1  0  0  0  0
 94188  1  0  0  0  0
 94189  1  0  0  0  0
 95190  1  0  0  0  0
 95191  1  0  0  0  0
M  END
>  <DRUGBANK_ID>
DB11628

>  <COMMON_NAME>
Depreotide

>  <CAS_NUMBER>
161982-62-3

>  <UNII>
NDP0H8E844

>  <SYNONYMS>
Depreotide

$$$$
