
 OpenBabel10282417233D

 13 12  0  0  0  0  0  0  0  0999 V2000
    0.8794    0.0191   -0.1260 O   0  0  0  0  0  0  0  0  0  0  0  0
    0.3043   -0.8164   -1.0002 C   0  0  0  0  0  0  0  0  0  0  0  0
    0.9573   -1.5730   -1.7013 O   0  0  0  0  0  0  0  0  0  0  0  0
   -1.1813   -0.8100   -0.9558 C   0  0  0  0  0  0  0  0  0  0  0  0
   -1.7204   -1.2294    0.3699 C   0  0  0  0  0  0  0  0  0  0  0  0
   -2.4885   -0.5105    1.0034 O   0  0  0  0  0  0  0  0  0  0  0  0
   -1.3516   -2.6326    0.9152 C   0  0  0  0  0  0  0  0  0  0  0  0
   -0.6110   -3.4345    0.1406 O   0  0  0  0  0  0  0  0  0  0  0  0
   -1.7575   -2.9932    2.0092 O   0  0  0  0  0  0  0  0  0  0  0  0
    1.8526   -0.0787   -0.2167 H   0  0  0  0  0  0  0  0  0  0  0  0
   -1.5392    0.1938   -1.2073 H   0  0  0  0  0  0  0  0  0  0  0  0
   -1.5762   -1.4867   -1.7217 H   0  0  0  0  0  0  0  0  0  0  0  0
   -0.2639   -3.1522   -0.7279 H   0  0  0  0  0  0  0  0  0  0  0  0
  1  2  1  0  0  0  0
  1 10  1  0  0  0  0
  2  3  2  0  0  0  0
  2  4  1  0  0  0  0
  4  5  1  0  0  0  0
  4 11  1  0  0  0  0
  4 12  1  0  0  0  0
  5  6  2  0  0  0  0
  5  7  1  0  0  0  0
  7  8  1  0  0  0  0
  7  9  2  0  0  0  0
  8 13  1  0  0  0  0
M  END
>  <DRUGBANK_ID>
DB16921

>  <COMMON_NAME>
Oxaloacetic acid

>  <CAS_NUMBER>
328-42-7

>  <UNII>
2F399MM81J

>  <SYNONYMS>
2-oxobutanedioic acid; Anhydrous enol-oxaloacetate; Bioepg; Ketosuccinic acid; Oxalacetic acid; Oxalacetic acid trans-(z)-enol form; Oxaloacetate; Oxosuccinic acid

$$$$
