11F
 OpenBabel10282417163D

 49 51  0  0  0  0  0  0  0  0999 V2000
    1.2977   -0.2162    0.4717 C   0  0  0  0  0  0  0  0  0  0  0  0
    0.4299   -1.3034    0.3249 C   0  0  0  0  0  0  0  0  0  0  0  0
   -0.9285   -1.0877    0.1065 C   0  0  0  0  0  0  0  0  0  0  0  0
   -1.4250    0.2130    0.0747 C   0  0  0  0  0  0  0  0  0  0  0  0
   -0.5451    1.2949    0.1307 C   0  0  0  0  0  0  0  0  0  0  0  0
    0.8410    1.0835    0.2103 C   0  0  0  0  0  0  0  0  0  0  0  0
    1.7646    2.1628   -0.1912 C   0  0  0  0  0  0  0  0  0  0  0  0
    2.4855    2.1908   -1.4068 C   0  0  0  0  0  0  0  0  0  0  0  0
    3.2582    3.3255   -1.7194 C   0  0  0  0  0  0  0  0  0  0  0  0
    2.5597    1.2851   -2.4397 O   0  0  0  0  0  0  0  0  0  0  0  0
    1.9506    0.0166   -2.3271 C   0  0  0  0  0  0  0  0  0  0  0  0
    1.8394    3.3067    0.6321 C   0  0  0  0  0  0  0  0  0  0  0  0
    2.5946    4.4357    0.2834 C   0  0  0  0  0  0  0  0  0  0  0  0
    3.3587    4.4510   -0.8829 C   0  0  0  0  0  0  0  0  0  0  0  0
    4.2870    5.6336   -1.1919 C   0  0  2  0  0  0  0  0  0  0  0  0
    3.4959    6.9332   -1.3545 C   0  0  0  0  0  0  0  0  0  0  0  0
    5.0696    5.3718   -2.4684 C   0  0  0  0  0  0  0  0  0  0  0  0
    5.7408    5.1473   -3.5634 C   0  0  0  0  0  0  0  0  0  0  0  0
    6.4746    4.9107   -4.7807 C   0  0  0  0  0  0  0  0  0  0  0  0
    6.6687    3.6418   -5.3012 C   0  0  0  0  0  0  0  0  0  0  0  0
    6.1325    2.4117   -4.6269 C   0  0  0  0  0  0  0  0  0  0  0  0
    7.3553    3.4263   -6.4560 N   0  0  0  0  0  0  0  0  0  0  0  0
    7.8498    4.4968   -7.0817 C   0  0  0  0  0  0  0  0  0  0  0  0
    8.5411    4.2935   -8.2487 N   0  0  0  0  0  0  0  0  0  0  0  0
    7.7235    5.7533   -6.6548 N   0  0  0  0  0  0  0  0  0  0  0  0
    7.0396    5.9507   -5.5091 C   0  0  0  0  0  0  0  0  0  0  0  0
    6.9041    7.2690   -5.1203 N   0  0  0  0  0  0  0  0  0  0  0  0
    5.0007    5.7290   -0.3643 H   0  0  0  0  0  0  0  0  0  0  0  0
    2.3647   -0.4019    0.5890 H   0  0  0  0  0  0  0  0  0  0  0  0
    0.8341   -2.3124    0.2831 H   0  0  0  0  0  0  0  0  0  0  0  0
   -1.5955   -1.9301   -0.0549 H   0  0  0  0  0  0  0  0  0  0  0  0
   -2.4871    0.3889   -0.0710 H   0  0  0  0  0  0  0  0  0  0  0  0
   -0.9381    2.3037    0.0225 H   0  0  0  0  0  0  0  0  0  0  0  0
    3.7769    3.3010   -2.6745 H   0  0  0  0  0  0  0  0  0  0  0  0
    2.4713   -0.5710   -1.5705 H   0  0  0  0  0  0  0  0  0  0  0  0
    0.8737    0.1142   -2.1774 H   0  0  0  0  0  0  0  0  0  0  0  0
    2.0785   -0.5512   -3.2515 H   0  0  0  0  0  0  0  0  0  0  0  0
    1.2856    3.3288    1.5692 H   0  0  0  0  0  0  0  0  0  0  0  0
    2.5699    5.3033    0.9376 H   0  0  0  0  0  0  0  0  0  0  0  0
    2.9288    7.1798   -0.4509 H   0  0  0  0  0  0  0  0  0  0  0  0
    4.1646    7.7753   -1.5644 H   0  0  0  0  0  0  0  0  0  0  0  0
    2.7805    6.8629   -2.1831 H   0  0  0  0  0  0  0  0  0  0  0  0
    5.4174    1.9050   -5.2814 H   0  0  0  0  0  0  0  0  0  0  0  0
    6.9515    1.7292   -4.3830 H   0  0  0  0  0  0  0  0  0  0  0  0
    5.6196    2.6345   -3.6906 H   0  0  0  0  0  0  0  0  0  0  0  0
    8.9063    5.0983   -8.7243 H   0  0  0  0  0  0  0  0  0  0  0  0
    8.6423    3.3559   -8.5902 H   0  0  0  0  0  0  0  0  0  0  0  0
    7.3689    7.9651   -5.6824 H   0  0  0  0  0  0  0  0  0  0  0  0
    6.4684    7.5087   -4.2439 H   0  0  0  0  0  0  0  0  0  0  0  0
  1  2  1  0  0  0  0
  1 29  1  0  0  0  0
  2  3  2  0  0  0  0
  2 30  1  0  0  0  0
  3 31  1  0  0  0  0
  4  3  1  0  0  0  0
  4 32  1  0  0  0  0
  5  4  2  0  0  0  0
  5 33  1  0  0  0  0
  6  1  2  0  0  0  0
  6  5  1  0  0  0  0
  7  6  1  0  0  0  0
  8  7  2  0  0  0  0
  8 10  1  0  0  0  0
  9  8  1  0  0  0  0
  9 34  1  0  0  0  0
 11 10  1  0  0  0  0
 11 35  1  0  0  0  0
 11 36  1  0  0  0  0
 11 37  1  0  0  0  0
 12  7  1  0  0  0  0
 12 38  1  0  0  0  0
 13 12  2  0  0  0  0
 13 39  1  0  0  0  0
 14  9  2  0  0  0  0
 14 13  1  0  0  0  0
 15 14  1  0  0  0  0
 15 16  1  0  0  0  0
 15 28  1  1  0  0  0
 16 40  1  0  0  0  0
 16 41  1  0  0  0  0
 16 42  1  0  0  0  0
 17 15  1  0  0  0  0
 18 17  3  0  0  0  0
 19 18  1  0  0  0  0
 19 20  1  0  0  0  0
 20 21  1  0  0  0  0
 21 43  1  0  0  0  0
 21 44  1  0  0  0  0
 21 45  1  0  0  0  0
 22 20  2  0  0  0  0
 23 22  1  0  0  0  0
 24 23  1  0  0  0  0
 24 46  1  0  0  0  0
 24 47  1  0  0  0  0
 25 23  2  0  0  0  0
 25 26  1  0  0  0  0
 26 19  2  0  0  0  0
 27 26  1  0  0  0  0
 27 48  1  0  0  0  0
 27 49  1  0  0  0  0
M  END
>  <DRUGBANK_ID>
DB06847

>  <COMMON_NAME>
5-[(3S)-3-(2-methoxybiphenyl-4-yl)but-1-yn-1-yl]-6-methylpyrimidine-2,4-diamine

$$$$
