
 OpenBabel10282417233D

 84 87  0  0  1  0  0  0  0  0999 V2000
   -8.7994   -4.7943   -7.3485 H   0  0  0  0  0  0  0  0  0  0  0  0
   -8.9228   -3.6713   -7.2561 C   0  0  1  0  0  0  0  0  0  0  0  0
   -8.7499   -3.4150   -8.7395 C   0  0  0  0  0  0  0  0  0  0  0  0
   -7.4961   -3.3011   -8.0492 C   0  0  0  0  0  0  0  0  0  0  0  0
   -7.4961   -1.5134   -8.0264 C   0  0  2  0  0  0  0  0  0  0  0  0
   -7.5743   -2.5505   -6.2194 N   0  0  0  0  0  0  0  0  0  0  0  0
   -8.4059   -1.2143   -4.9986 C   0  0  0  0  0  0  0  0  0  0  0  0
   -9.1349   -0.1174   -5.3923 O   0  0  0  0  0  0  0  0  0  0  0  0
   -9.2658   -1.6091   -3.8555 C   0  0  2  0  0  0  0  0  0  0  0  0
  -10.8207   -1.6301   -4.1954 C   0  0  0  0  0  0  0  0  0  0  0  0
  -11.2227   -2.1390   -5.5895 N   0  0  0  0  0  0  0  0  0  0  0  0
  -11.3294   -3.7387   -5.8079 C   0  0  0  0  0  0  0  0  0  0  0  0
  -10.7729   -3.8897   -7.1735 C   0  0  0  0  0  0  0  0  0  0  0  0
  -11.0521   -1.2457   -6.6269 C   0  0  0  0  0  0  0  0  0  0  0  0
  -11.8588   -0.3725   -6.8780 O   0  0  0  0  0  0  0  0  0  0  0  0
   -9.8667   -1.3964   -7.4902 C   0  0  0  0  0  0  0  0  0  0  0  0
   -8.5545   -1.6076   -6.7422 C   0  0  0  0  0  0  0  0  0  0  0  0
   -8.7993   -3.2924   -5.3591 C   0  0  0  0  0  0  0  0  0  0  0  0
   -6.2954   -1.8428   -6.9662 C   0  0  0  0  0  0  0  0  0  0  0  0
   -8.5202   -1.4233   -2.7192 N   0  0  0  0  0  0  0  0  0  0  0  0
   -8.0922   -0.2417   -2.2810 C   0  0  0  0  0  0  0  0  0  0  0  0
   -7.4656   -0.2643   -1.2258 O   0  0  0  0  0  0  0  0  0  0  0  0
   -8.4090    1.0494   -3.0926 C   0  0  2  0  0  0  0  0  0  0  0  0
   -7.3322    1.2703   -4.1605 C   0  0  0  0  0  0  0  0  0  0  0  0
   -8.3940    2.1840   -2.1688 N   0  0  0  0  0  0  0  0  0  0  0  0
   -9.4103    1.9728   -1.1465 C   0  0  0  0  0  0  0  0  0  0  0  0
   -7.4856   -1.2603   -9.4319 C   0  0  0  0  0  0  0  0  0  0  0  0
   -7.2583   -2.1813  -10.1839 O   0  0  0  0  0  0  0  0  0  0  0  0
   -8.0773   -0.0895   -9.7051 N   0  0  0  0  0  0  0  0  0  0  0  0
   -7.9354    1.1632   -8.9794 C   0  0  0  0  0  0  0  0  0  0  0  0
   -6.8225    1.8559   -9.6924 C   0  0  0  0  0  0  0  0  0  0  0  0
   -7.0743    3.0947  -10.2162 C   0  0  0  0  0  0  0  0  0  0  0  0
   -6.3327    3.9131  -10.9805 C   0  0  0  0  0  0  0  0  0  0  0  0
   -5.0608    3.5110  -11.0980 C   0  0  0  0  0  0  0  0  0  0  0  0
   -4.6490    2.3313  -10.4584 C   0  0  0  0  0  0  0  0  0  0  0  0
   -5.5401    1.4259   -9.8698 C   0  0  0  0  0  0  0  0  0  0  0  0
   -9.2545    1.8879   -8.8284 C   0  0  0  0  0  0  0  0  0  0  0  0
  -10.2045    1.5269   -7.9361 C   0  0  0  0  0  0  0  0  0  0  0  0
  -11.3824    2.1991   -7.6805 C   0  0  0  0  0  0  0  0  0  0  0  0
  -11.5451    3.4252   -8.2347 C   0  0  0  0  0  0  0  0  0  0  0  0
  -10.5374    3.9197   -8.9835 C   0  0  0  0  0  0  0  0  0  0  0  0
   -9.6745    2.9970   -9.4932 C   0  0  0  0  0  0  0  0  0  0  0  0
   -9.0574   -2.4633   -9.1877 H   0  0  0  0  0  0  0  0  0  0  0  0
   -9.7158   -3.7631   -9.0545 H   0  0  0  0  0  0  0  0  0  0  0  0
   -6.6250   -3.8143   -7.2542 H   0  0  0  0  0  0  0  0  0  0  0  0
   -7.1668   -4.2120   -8.4599 H   0  0  0  0  0  0  0  0  0  0  0  0
   -6.9059   -0.3819   -7.6196 H   0  0  0  0  0  0  0  0  0  0  0  0
   -9.0434   -2.5933   -3.6946 H   0  0  0  0  0  0  0  0  0  0  0  0
  -11.2460   -0.7610   -3.7090 H   0  0  0  0  0  0  0  0  0  0  0  0
  -11.4178   -2.3544   -3.6784 H   0  0  0  0  0  0  0  0  0  0  0  0
  -11.1001   -3.9507   -4.7498 H   0  0  0  0  0  0  0  0  0  0  0  0
  -10.5702   -4.5794   -5.7619 H   0  0  0  0  0  0  0  0  0  0  0  0
  -11.5533   -3.3325   -7.7451 H   0  0  0  0  0  0  0  0  0  0  0  0
  -10.9614   -4.8308   -7.7469 H   0  0  0  0  0  0  0  0  0  0  0  0
  -10.2070   -2.2011   -8.0388 H   0  0  0  0  0  0  0  0  0  0  0  0
   -9.5614   -0.6892   -8.2139 H   0  0  0  0  0  0  0  0  0  0  0  0
   -7.9898   -0.5396   -6.5061 H   0  0  0  0  0  0  0  0  0  0  0  0
   -8.4838   -4.3929   -5.6050 H   0  0  0  0  0  0  0  0  0  0  0  0
   -7.8707   -3.3672   -4.5716 H   0  0  0  0  0  0  0  0  0  0  0  0
   -9.6987   -3.1815   -5.0001 H   0  0  0  0  0  0  0  0  0  0  0  0
   -5.6151   -1.2149   -7.6122 H   0  0  0  0  0  0  0  0  0  0  0  0
   -5.6846   -2.1185   -6.1068 H   0  0  0  0  0  0  0  0  0  0  0  0
   -5.8932   -2.5804   -8.0700 H   0  0  0  0  0  0  0  0  0  0  0  0
   -8.1310   -2.2861   -2.3400 H   0  0  0  0  0  0  0  0  0  0  0  0
   -9.4065    1.0022   -3.5518 H   0  0  0  0  0  0  0  0  0  0  0  0
   -6.8828    2.2556   -4.1004 H   0  0  0  0  0  0  0  0  0  0  0  0
   -6.5545    0.5012   -4.1172 H   0  0  0  0  0  0  0  0  0  0  0  0
   -7.7439    1.2661   -5.1713 H   0  0  0  0  0  0  0  0  0  0  0  0
   -7.4719    2.1854   -1.7284 H   0  0  0  0  0  0  0  0  0  0  0  0
   -9.2505    1.0545   -0.5746 H   0  0  0  0  0  0  0  0  0  0  0  0
   -9.3831    2.7978   -0.4391 H   0  0  0  0  0  0  0  0  0  0  0  0
  -10.4036    1.9159   -1.5998 H   0  0  0  0  0  0  0  0  0  0  0  0
   -8.5252   -0.1552  -10.5939 H   0  0  0  0  0  0  0  0  0  0  0  0
   -7.5804    1.1208   -7.9330 H   0  0  0  0  0  0  0  0  0  0  0  0
   -7.8692    3.6588   -9.8568 H   0  0  0  0  0  0  0  0  0  0  0  0
   -6.7851    4.8476  -11.2803 H   0  0  0  0  0  0  0  0  0  0  0  0
   -4.4016    4.1412  -11.6600 H   0  0  0  0  0  0  0  0  0  0  0  0
   -3.5927    2.1483  -10.4123 H   0  0  0  0  0  0  0  0  0  0  0  0
   -5.2247    0.4406   -9.5519 H   0  0  0  0  0  0  0  0  0  0  0  0
  -10.0672    0.6459   -7.4115 H   0  0  0  0  0  0  0  0  0  0  0  0
  -12.1164    1.7837   -7.0090 H   0  0  0  0  0  0  0  0  0  0  0  0
  -12.4460    3.9856   -8.1265 H   0  0  0  0  0  0  0  0  0  0  0  0
  -10.4988    4.9216   -9.3633 H   0  0  0  0  0  0  0  0  0  0  0  0
   -9.3417    3.2619  -10.4754 H   0  0  0  0  0  0  0  0  0  0  0  0
  2  3  1  0  0  0  0
  2  6  1  0  0  0  0
  2 13  1  0  0  0  0
  2  1  1  1  0  0  0
  3  4  1  0  0  0  0
  3 43  1  0  0  0  0
  3 44  1  0  0  0  0
  4 45  1  0  0  0  0
  4 46  1  0  0  0  0
  5  4  1  0  0  0  0
  5  6  1  0  0  0  0
  5 47  1  1  0  0  0
  5 27  1  0  0  0  0
  6  7  1  0  0  0  0
  7  8  2  0  0  0  0
  9  7  1  0  0  0  0
  9 10  1  0  0  0  0
  9 20  1  0  0  0  0
  9 48  1  6  0  0  0
 10 11  1  0  0  0  0
 10 49  1  0  0  0  0
 10 50  1  0  0  0  0
 11 12  1  0  0  0  0
 11 14  1  0  0  0  0
 12 13  1  0  0  0  0
 12 51  1  0  0  0  0
 12 52  1  0  0  0  0
 13 53  1  0  0  0  0
 13 54  1  0  0  0  0
 14 15  2  0  0  0  0
 14 16  1  0  0  0  0
 16 17  1  0  0  0  0
 16 55  1  0  0  0  0
 16 56  1  0  0  0  0
 17 18  1  0  0  0  0
 17 19  1  0  0  0  0
 17 57  1  0  0  0  0
 18 58  1  0  0  0  0
 18 59  1  0  0  0  0
 18 60  1  0  0  0  0
 19 61  1  0  0  0  0
 19 62  1  0  0  0  0
 19 63  1  0  0  0  0
 20 21  1  0  0  0  0
 20 64  1  0  0  0  0
 21 22  2  0  0  0  0
 23 25  1  0  0  0  0
 23 65  1  6  0  0  0
 23 24  1  0  0  0  0
 23 21  1  0  0  0  0
 24 66  1  0  0  0  0
 24 67  1  0  0  0  0
 24 68  1  0  0  0  0
 25 26  1  0  0  0  0
 25 69  1  0  0  0  0
 26 70  1  0  0  0  0
 26 71  1  0  0  0  0
 26 72  1  0  0  0  0
 27 28  2  0  0  0  0
 27 29  1  0  0  0  0
 29 30  1  0  0  0  0
 29 73  1  0  0  0  0
 30 31  1  0  0  0  0
 30 37  1  0  0  0  0
 30 74  1  0  0  0  0
 31 32  2  0  0  0  0
 31 36  1  0  0  0  0
 32 33  1  0  0  0  0
 32 75  1  0  0  0  0
 33 34  2  0  0  0  0
 33 76  1  0  0  0  0
 34 35  1  0  0  0  0
 34 77  1  0  0  0  0
 35 36  2  0  0  0  0
 35 78  1  0  0  0  0
 36 79  1  0  0  0  0
 37 38  2  0  0  0  0
 37 42  1  0  0  0  0
 38 39  1  0  0  0  0
 38 80  1  0  0  0  0
 39 40  2  0  0  0  0
 39 81  1  0  0  0  0
 40 41  1  0  0  0  0
 40 82  1  0  0  0  0
 41 42  2  0  0  0  0
 41 83  1  0  0  0  0
 42 84  1  0  0  0  0
M  END
>  <DRUGBANK_ID>
DB16305

>  <COMMON_NAME>
Xevinapant

>  <CAS_NUMBER>
1071992-99-8

>  <UNII>
N65WC8PXDD

>  <SYNONYMS>
(5S,8S, 10aR)-N-benzhydryl-5-((S)-2-(methylamino)propanamido)-3-(3-methylbutanoyl)-6-oxodecahydropyrrolo[1,2-a][1,5] diazocine-8-carboxyamide; Iap inhibitor at-406; PYRROLO(1,2-A)(1,5)DIAZOCINE-8-CARBOXAMIDE, N-(DIPHENYLMETHYL)DECAHYDRO-5-(((2S)-2-(METHYLAMINO)-1-OXOPROPYL)AMINO)-3-(3-METHYL-1-OXOBUTYL)-6-OXO-, (5S,8S,10AR)-; Xevinapant

$$$$
