
 OpenBabel10282417133D

 40 40  0  0  1  0  0  0  0  0999 V2000
   -1.5338   -1.7388    0.0114 C   0  0  0  0  0  0  0  0  0  0  0  0
   -0.9674    5.5781    1.1464 C   0  0  0  0  0  0  0  0  0  0  0  0
    1.8832   -0.4424   -0.1781 C   0  0  0  0  0  0  0  0  0  0  0  0
    0.2083    3.1072   -0.3090 C   0  0  0  0  0  0  0  0  0  0  0  0
    3.0979    1.7258   -0.0615 C   0  0  0  0  0  0  0  0  0  0  0  0
   -0.4037   -0.7463   -0.0885 C   0  0  0  0  0  0  0  0  0  0  0  0
    0.5087    5.3001    1.0481 C   0  0  2  0  0  0  0  0  0  0  0  0
    1.7826    0.9526   -0.2872 C   0  0  0  0  0  0  0  0  0  0  0  0
    0.4552    1.5489   -0.3136 C   0  0  0  0  0  0  0  0  0  0  0  0
   -0.6329    0.6425   -0.1825 C   0  0  0  0  0  0  0  0  0  0  0  0
    0.8377   -1.2903   -0.0962 N   0  0  0  0  0  0  0  0  0  0  0  0
    0.6852    3.8488    0.8935 N   0  0  0  0  0  0  0  0  0  0  0  0
   -1.9462    1.0292   -0.1088 O   0  0  0  0  0  0  0  0  0  0  0  0
    0.6745    4.6316    3.6483 O   0  0  0  0  0  0  0  0  0  0  0  0
    2.8381    5.2285    2.4157 O   0  0  0  0  0  0  0  0  0  0  0  0
    1.2885    7.0817    3.1948 O   0  0  0  0  0  0  0  0  0  0  0  0
    3.6446    3.1353    2.7864 O   0  0  0  0  0  0  0  0  0  0  0  0
    1.5005    2.0964    1.8200 O   0  0  0  0  0  0  0  0  0  0  0  0
    1.8856    2.0631    3.8928 O   0  0  0  0  0  0  0  0  0  0  0  0
    3.7437    1.5233    1.2464 O   0  0  0  0  0  0  0  0  0  0  0  0
    1.3331    5.7199    2.6587 P   0  0  0  0  0  0  0  0  0  0  0  0
    2.7632    1.8082    2.6429 P   0  0  0  0  0  0  0  0  0  0  0  0
    1.0431    5.8377    0.2651 H   0  0  0  0  0  0  0  0  0  0  0  0
   -1.5109   -2.3970   -0.8632 H   0  0  0  0  0  0  0  0  0  0  0  0
   -1.4316   -2.3535    0.9130 H   0  0  0  0  0  0  0  0  0  0  0  0
   -2.5213   -1.2701    0.0449 H   0  0  0  0  0  0  0  0  0  0  0  0
   -1.4028    5.0530    2.0077 H   0  0  0  0  0  0  0  0  0  0  0  0
   -1.1403    6.6437    1.2799 H   0  0  0  0  0  0  0  0  0  0  0  0
   -1.4796    5.2358    0.2477 H   0  0  0  0  0  0  0  0  0  0  0  0
    2.8510   -0.9325   -0.0770 H   0  0  0  0  0  0  0  0  0  0  0  0
    0.6947    3.5168   -1.1925 H   0  0  0  0  0  0  0  0  0  0  0  0
   -0.8586    3.2932   -0.3851 H   0  0  0  0  0  0  0  0  0  0  0  0
    3.8202    1.4333   -0.8307 H   0  0  0  0  0  0  0  0  0  0  0  0
    2.9480    2.8013   -0.1931 H   0  0  0  0  0  0  0  0  0  0  0  0
    0.1968    3.4248    1.7312 H   0  0  0  0  0  0  0  0  0  0  0  0
   -2.0438    1.9743    0.0544 H   0  0  0  0  0  0  0  0  0  0  0  0
   -0.0835    4.9959    4.1443 H   0  0  0  0  0  0  0  0  0  0  0  0
    2.9721    4.5309    1.7524 H   0  0  0  0  0  0  0  0  0  0  0  0
    4.2368    3.0169    3.5623 H   0  0  0  0  0  0  0  0  0  0  0  0
    1.6592    2.9528    1.4037 H   0  0  0  0  0  0  0  0  0  0  0  0
  1 24  1  0  0  0  0
  1 25  1  0  0  0  0
  1 26  1  0  0  0  0
  2 27  1  0  0  0  0
  2 28  1  0  0  0  0
  2 29  1  0  0  0  0
  3 30  1  0  0  0  0
  4 31  1  0  0  0  0
  4 32  1  0  0  0  0
  5 33  1  0  0  0  0
  5 34  1  0  0  0  0
  6  1  1  0  0  0  0
  7  2  1  0  0  0  0
  7 23  1  6  0  0  0
  8  3  1  0  0  0  0
  8  5  1  0  0  0  0
  9  4  1  0  0  0  0
  9  8  2  0  0  0  0
 10  6  2  0  0  0  0
 10  9  1  0  0  0  0
 11  3  2  0  0  0  0
 11  6  1  0  0  0  0
 12  4  1  0  0  0  0
 12  7  1  0  0  0  0
 12 35  1  0  0  0  0
 13 10  1  0  0  0  0
 13 36  1  0  0  0  0
 14 37  1  0  0  0  0
 15 38  1  0  0  0  0
 17 39  1  0  0  0  0
 18 40  1  0  0  0  0
 20  5  1  0  0  0  0
 21  7  1  0  0  0  0
 21 14  1  0  0  0  0
 21 15  1  0  0  0  0
 21 16  2  0  0  0  0
 22 17  1  0  0  0  0
 22 18  1  0  0  0  0
 22 19  2  0  0  0  0
 22 20  1  0  0  0  0
M  END
>  <DRUGBANK_ID>
DB03327

>  <SECONDARY_ACCESSION_NUMBERS>
EXPT01879

>  <COMMON_NAME>
{1-[(3-Hydroxy-Methyl-5-Phosphonooxy-Methyl-Pyridin-4-Ylmethyl)-Amino]-Ethyl}-Phosphonic Acid

$$$$
