
 OpenBabel10282417133D

100103  0  0  0  0  0  0  0  0999 V2000
   -1.2528    0.5434    0.3491 C   0  0  1  0  0  0  0  0  0  0  0  0
    0.4930    0.9574    0.5921 C   0  0  2  0  0  0  0  0  0  0  0  0
   -0.3974    1.4699   -0.3693 O   0  0  0  0  0  0  0  0  0  0  0  0
   -1.3245   -0.8909   -0.2706 C   0  0  0  0  0  0  0  0  0  0  0  0
   -2.7326    1.1272    0.7760 C   0  0  0  0  0  0  0  0  0  0  0  0
    1.5898   -0.0165   -0.0115 C   0  0  0  0  0  0  0  0  0  0  0  0
    1.3511    1.9885    1.3300 C   0  0  0  0  0  0  0  0  0  0  0  0
   -0.1435   -1.6535    0.3149 C   0  0  0  0  0  0  0  0  0  0  0  0
   -2.4487   -1.7846    0.2009 C   0  0  0  0  0  0  0  0  0  0  0  0
   -1.4608   -0.8551   -1.8036 C   0  0  0  0  0  0  0  0  0  0  0  0
   -3.8996    0.4020    0.9508 C   0  0  0  0  0  0  0  0  0  0  0  0
    1.0780   -1.3475   -0.4852 C   0  0  2  0  0  0  0  0  0  0  0  0
   -5.3773    0.5170    1.0693 C   0  0  0  0  0  0  0  0  0  0  0  0
    2.0212   -2.3910   -0.2857 O   0  0  0  0  0  0  0  0  0  0  0  0
   -6.2216   -0.5695    0.9858 C   0  0  0  0  0  0  0  0  0  0  0  0
   -5.8115    1.8970    1.3809 C   0  0  0  0  0  0  0  0  0  0  0  0
   -7.6606   -0.5525    1.2727 C   0  0  0  0  0  0  0  0  0  0  0  0
   -8.5771   -1.5401    1.2886 C   0  0  0  0  0  0  0  0  0  0  0  0
   -9.9982   -1.3091    1.6730 C   0  0  0  0  0  0  0  0  0  0  0  0
  -10.9008   -2.2990    1.6809 C   0  0  0  0  0  0  0  0  0  0  0  0
  -10.3657    0.1135    2.0610 C   0  0  0  0  0  0  0  0  0  0  0  0
  -12.3131   -2.1512    2.0400 C   0  0  0  0  0  0  0  0  0  0  0  0
  -13.1872   -3.1345    2.0360 C   0  0  0  0  0  0  0  0  0  0  0  0
  -14.5897   -2.9461    2.4031 C   0  0  0  0  0  0  0  0  0  0  0  0
  -15.5531   -3.8796    2.4399 C   0  0  0  0  0  0  0  0  0  0  0  0
  -16.9623   -3.5764    2.8349 C   0  0  0  0  0  0  0  0  0  0  0  0
  -15.2655   -5.3226    2.0626 C   0  0  0  0  0  0  0  0  0  0  0  0
  -17.4197   -2.3567    3.1997 C   0  0  0  0  0  0  0  0  0  0  0  0
  -18.7853   -1.8993    3.5210 C   0  0  0  0  0  0  0  0  0  0  0  0
  -19.1350   -0.5886    3.7707 C   0  0  0  0  0  0  0  0  0  0  0  0
  -20.5589   -0.1371    3.8601 C   0  0  0  0  0  0  0  0  0  0  0  0
  -18.0903    0.4647    3.8936 C   0  0  0  0  0  0  0  0  0  0  0  0
  -21.3240    0.9087    4.3476 C   0  0  0  0  0  0  0  0  0  0  0  0
  -22.8821    0.8264    4.7908 C   0  0  2  0  0  0  0  0  0  0  0  0
  -24.3734    1.8034    4.5953 C   0  0  2  0  0  0  0  0  0  0  0  0
  -23.3665    1.9541    5.5668 O   0  0  0  0  0  0  0  0  0  0  0  0
  -23.2623   -0.5788    5.3927 C   0  0  0  0  0  0  0  0  0  0  0  0
  -25.7288    1.2465    5.1821 C   0  0  0  0  0  0  0  0  0  0  0  0
  -24.8114    3.0828    3.8839 C   0  0  0  0  0  0  0  0  0  0  0  0
  -24.6507   -0.8881    4.8264 C   0  0  0  0  0  0  0  0  0  0  0  0
  -22.4861   -1.7872    4.8891 C   0  0  0  0  0  0  0  0  0  0  0  0
  -23.1103   -0.6252    6.9253 C   0  0  0  0  0  0  0  0  0  0  0  0
  -25.6878   -0.1840    5.6457 C   0  0  2  0  0  0  0  0  0  0  0  0
  -26.9446   -0.8296    5.4916 O   0  0  0  0  0  0  0  0  0  0  0  0
   -2.8320    2.2090    0.7033 H   0  0  0  0  0  0  0  0  0  0  0  0
    2.1685    0.4675   -0.8111 H   0  0  0  0  0  0  0  0  0  0  0  0
    2.3283   -0.2332    0.7770 H   0  0  0  0  0  0  0  0  0  0  0  0
    1.8553    1.4785    2.1711 H   0  0  0  0  0  0  0  0  0  0  0  0
    2.2207    2.2662    0.6919 H   0  0  0  0  0  0  0  0  0  0  0  0
    0.9243    2.9178    1.6916 H   0  0  0  0  0  0  0  0  0  0  0  0
   -0.3167   -2.7294    0.3814 H   0  0  0  0  0  0  0  0  0  0  0  0
   -0.0041   -1.3558    1.3744 H   0  0  0  0  0  0  0  0  0  0  0  0
   -3.3445   -1.5323   -0.3783 H   0  0  0  0  0  0  0  0  0  0  0  0
   -2.3361   -2.8509    0.0236 H   0  0  0  0  0  0  0  0  0  0  0  0
   -2.5057   -1.6903    1.2953 H   0  0  0  0  0  0  0  0  0  0  0  0
   -0.6681   -0.3106   -2.3233 H   0  0  0  0  0  0  0  0  0  0  0  0
   -1.4815   -1.8843   -2.1800 H   0  0  0  0  0  0  0  0  0  0  0  0
   -2.3966   -0.3699   -2.1054 H   0  0  0  0  0  0  0  0  0  0  0  0
   -3.8767   -0.6478    1.1134 H   0  0  0  0  0  0  0  0  0  0  0  0
    0.8979   -1.3071   -1.5580 H   0  0  0  0  0  0  0  0  0  0  0  0
    1.8119   -2.8213    0.5610 H   0  0  0  0  0  0  0  0  0  0  0  0
   -5.8572   -1.5702    0.7273 H   0  0  0  0  0  0  0  0  0  0  0  0
   -5.2497    2.2345    2.2536 H   0  0  0  0  0  0  0  0  0  0  0  0
   -5.6053    2.5281    0.5153 H   0  0  0  0  0  0  0  0  0  0  0  0
   -6.8684    1.9892    1.6223 H   0  0  0  0  0  0  0  0  0  0  0  0
   -8.0153    0.4268    1.5550 H   0  0  0  0  0  0  0  0  0  0  0  0
   -8.3064   -2.5656    1.0290 H   0  0  0  0  0  0  0  0  0  0  0  0
  -10.6050   -3.3137    1.4017 H   0  0  0  0  0  0  0  0  0  0  0  0
   -9.7879    0.4294    2.9350 H   0  0  0  0  0  0  0  0  0  0  0  0
  -10.1865    0.7920    1.2218 H   0  0  0  0  0  0  0  0  0  0  0  0
  -11.4090    0.2639    2.3354 H   0  0  0  0  0  0  0  0  0  0  0  0
  -12.6715   -1.1622    2.3296 H   0  0  0  0  0  0  0  0  0  0  0  0
  -12.8472   -4.1284    1.7497 H   0  0  0  0  0  0  0  0  0  0  0  0
  -14.8186   -1.9141    2.6680 H   0  0  0  0  0  0  0  0  0  0  0  0
  -17.6417   -4.4281    2.7874 H   0  0  0  0  0  0  0  0  0  0  0  0
  -15.4597   -5.9923    2.9037 H   0  0  0  0  0  0  0  0  0  0  0  0
  -15.8553   -5.6280    1.1943 H   0  0  0  0  0  0  0  0  0  0  0  0
  -14.2235   -5.5041    1.7818 H   0  0  0  0  0  0  0  0  0  0  0  0
  -16.7040   -1.5477    3.2131 H   0  0  0  0  0  0  0  0  0  0  0  0
  -19.5316   -2.6975    3.4906 H   0  0  0  0  0  0  0  0  0  0  0  0
  -21.0618   -0.9678    3.4048 H   0  0  0  0  0  0  0  0  0  0  0  0
  -17.3173    0.1662    4.6121 H   0  0  0  0  0  0  0  0  0  0  0  0
  -17.6384    0.6168    2.9090 H   0  0  0  0  0  0  0  0  0  0  0  0
  -18.5092    1.4085    4.2362 H   0  0  0  0  0  0  0  0  0  0  0  0
  -20.7936    1.7660    4.7637 H   0  0  0  0  0  0  0  0  0  0  0  0
  -26.1106    1.8857    5.9912 H   0  0  0  0  0  0  0  0  0  0  0  0
  -26.4962    1.3035    4.3939 H   0  0  0  0  0  0  0  0  0  0  0  0
  -25.4539    2.7997    3.0315 H   0  0  0  0  0  0  0  0  0  0  0  0
  -25.5288    3.6349    4.5310 H   0  0  0  0  0  0  0  0  0  0  0  0
  -24.0788    3.8072    3.5435 H   0  0  0  0  0  0  0  0  0  0  0  0
  -24.8530   -1.9579    4.7470 H   0  0  0  0  0  0  0  0  0  0  0  0
  -24.6910   -0.5430    3.7731 H   0  0  0  0  0  0  0  0  0  0  0  0
  -21.4771   -1.7956    5.3113 H   0  0  0  0  0  0  0  0  0  0  0  0
  -22.9136   -2.7504    5.1684 H   0  0  0  0  0  0  0  0  0  0  0  0
  -22.5415   -1.7880    3.7967 H   0  0  0  0  0  0  0  0  0  0  0  0
  -23.6614    0.1515    7.4629 H   0  0  0  0  0  0  0  0  0  0  0  0
  -23.4515   -1.6018    7.2900 H   0  0  0  0  0  0  0  0  0  0  0  0
  -22.0630   -0.5047    7.2244 H   0  0  0  0  0  0  0  0  0  0  0  0
  -25.4783   -0.2067    6.7129 H   0  0  0  0  0  0  0  0  0  0  0  0
  -26.9051   -1.3926    4.7005 H   0  0  0  0  0  0  0  0  0  0  0  0
  1  2  1  0  0  0  0
  1  3  1  0  0  0  0
  1  4  1  0  0  0  0
  1  5  1  1  0  0  0
  2  6  1  0  0  0  0
  2  7  1  1  0  0  0
  2  3  1  0  0  0  0
  4  8  1  0  0  0  0
  4  9  1  0  0  0  0
  4 10  1  0  0  0  0
  5 11  2  0  0  0  0
  5 45  1  0  0  0  0
  6 12  1  0  0  0  0
  6 46  1  0  0  0  0
  6 47  1  0  0  0  0
  7 48  1  0  0  0  0
  7 49  1  0  0  0  0
  7 50  1  0  0  0  0
  8 12  1  0  0  0  0
  8 51  1  0  0  0  0
  8 52  1  0  0  0  0
  9 53  1  0  0  0  0
  9 54  1  0  0  0  0
  9 55  1  0  0  0  0
 10 56  1  0  0  0  0
 10 57  1  0  0  0  0
 10 58  1  0  0  0  0
 11 13  1  0  0  0  0
 11 59  1  0  0  0  0
 12 60  1  6  0  0  0
 12 14  1  0  0  0  0
 13 15  2  0  0  0  0
 13 16  1  0  0  0  0
 14 61  1  0  0  0  0
 15 17  1  0  0  0  0
 15 62  1  0  0  0  0
 16 63  1  0  0  0  0
 16 64  1  0  0  0  0
 16 65  1  0  0  0  0
 17 18  2  0  0  0  0
 17 66  1  0  0  0  0
 18 19  1  0  0  0  0
 18 67  1  0  0  0  0
 19 20  2  0  0  0  0
 19 21  1  0  0  0  0
 20 22  1  0  0  0  0
 20 68  1  0  0  0  0
 21 69  1  0  0  0  0
 21 70  1  0  0  0  0
 21 71  1  0  0  0  0
 22 23  2  0  0  0  0
 22 72  1  0  0  0  0
 23 24  1  0  0  0  0
 23 73  1  0  0  0  0
 24 25  2  0  0  0  0
 24 74  1  0  0  0  0
 25 27  1  0  0  0  0
 25 26  1  0  0  0  0
 26 28  2  0  0  0  0
 26 75  1  0  0  0  0
 27 76  1  0  0  0  0
 27 77  1  0  0  0  0
 27 78  1  0  0  0  0
 28 29  1  0  0  0  0
 28 79  1  0  0  0  0
 29 30  2  0  0  0  0
 29 80  1  0  0  0  0
 30 31  1  0  0  0  0
 30 32  1  0  0  0  0
 31 33  2  0  0  0  0
 31 81  1  0  0  0  0
 32 82  1  0  0  0  0
 32 83  1  0  0  0  0
 32 84  1  0  0  0  0
 33 85  1  0  0  0  0
 34 35  1  0  0  0  0
 34 36  1  0  0  0  0
 34 37  1  0  0  0  0
 34 33  1  6  0  0  0
 35 38  1  0  0  0  0
 35 39  1  6  0  0  0
 35 36  1  0  0  0  0
 37 40  1  0  0  0  0
 37 41  1  0  0  0  0
 37 42  1  0  0  0  0
 38 43  1  0  0  0  0
 38 86  1  0  0  0  0
 38 87  1  0  0  0  0
 39 88  1  0  0  0  0
 39 89  1  0  0  0  0
 39 90  1  0  0  0  0
 40 43  1  0  0  0  0
 40 91  1  0  0  0  0
 40 92  1  0  0  0  0
 41 93  1  0  0  0  0
 41 94  1  0  0  0  0
 41 95  1  0  0  0  0
 42 96  1  0  0  0  0
 42 97  1  0  0  0  0
 42 98  1  0  0  0  0
 43 99  1  1  0  0  0
 43 44  1  0  0  0  0
 44100  1  0  0  0  0
M  END
>  <DRUGBANK_ID>
DB03460

>  <SECONDARY_ACCESSION_NUMBERS>
EXPT03252

>  <COMMON_NAME>
Violaxanthin

>  <CAS_NUMBER>
126-29-4

>  <UNII>
51C926029A

>  <SYNONYMS>
all-trans-violaxanthin; trans-violaxanthin; zeaxanthin diepoxide

$$$$
