328
 OpenBabel10282417163D

 45 47  0  0  0  0  0  0  0  0999 V2000
    1.6542   -1.1663    0.0519 C   0  0  0  0  0  0  0  0  0  0  0  0
    0.2493   -1.1880   -0.0380 C   0  0  0  0  0  0  0  0  0  0  0  0
   -0.4681    0.0092   -0.0472 C   0  0  0  0  0  0  0  0  0  0  0  0
   -1.9077    0.0008   -0.0220 C   0  0  0  0  0  0  0  0  0  0  0  0
    9.0774    9.4229    0.8192 C   0  0  0  0  0  0  0  0  0  0  0  0
    4.5624    2.3343    1.1568 C   0  0  0  0  0  0  0  0  0  0  0  0
    5.2801    1.5907   -1.0664 C   0  0  0  0  0  0  0  0  0  0  0  0
    6.7271    2.0166   -0.7939 C   0  0  0  0  0  0  0  0  0  0  0  0
    6.7960    3.1706    0.2284 C   0  0  0  0  0  0  0  0  0  0  0  0
    5.9889    2.7956    1.4828 C   0  0  0  0  0  0  0  0  0  0  0  0
    3.8679    0.0574    0.2180 C   0  0  0  0  0  0  0  0  0  0  0  0
    8.9459    7.0638    0.5193 C   0  0  0  0  0  0  0  0  0  0  0  0
   10.0392    7.0423   -0.3287 C   0  0  0  0  0  0  0  0  0  0  0  0
   10.4541    5.8124   -0.8123 C   0  0  0  0  0  0  0  0  0  0  0  0
    8.3026    5.8573    0.8104 C   0  0  0  0  0  0  0  0  0  0  0  0
   -3.0612    0.0004    0.0333 N   0  0  0  0  0  0  0  0  0  0  0  0
    2.3616    0.0541    0.1264 C   0  0  0  0  0  0  0  0  0  0  0  0
    1.6289    1.2390    0.0346 C   0  0  0  0  0  0  0  0  0  0  0  0
    0.2283    1.2202   -0.0376 C   0  0  0  0  0  0  0  0  0  0  0  0
    8.1744    3.4573    0.6799 N   0  0  0  0  0  0  0  0  0  0  0  0
    4.5626    1.2720    0.1523 N   0  0  0  0  0  0  0  0  0  0  0  0
    4.4595   -1.0203    0.1793 O   0  0  0  0  0  0  0  0  0  0  0  0
    8.4337    8.1844    1.1203 O   0  0  0  0  0  0  0  0  0  0  0  0
    8.7799    4.6543    0.2894 C   0  0  0  0  0  0  0  0  0  0  0  0
    9.8675    4.6237   -0.5060 N   0  0  0  0  0  0  0  0  0  0  0  0
    2.1852   -2.1188    0.0626 H   0  0  0  0  0  0  0  0  0  0  0  0
   -0.2791   -2.1410   -0.0828 H   0  0  0  0  0  0  0  0  0  0  0  0
   10.1218    9.4219    1.1517 H   0  0  0  0  0  0  0  0  0  0  0  0
    9.0086    9.6514   -0.2501 H   0  0  0  0  0  0  0  0  0  0  0  0
    8.5614   10.2227    1.3600 H   0  0  0  0  0  0  0  0  0  0  0  0
    4.0455    2.0123    2.0651 H   0  0  0  0  0  0  0  0  0  0  0  0
    4.0174    3.1823    0.7270 H   0  0  0  0  0  0  0  0  0  0  0  0
    4.7261    2.4206   -1.5242 H   0  0  0  0  0  0  0  0  0  0  0  0
    5.2328    0.7470   -1.7628 H   0  0  0  0  0  0  0  0  0  0  0  0
    7.1863    2.3189   -1.7424 H   0  0  0  0  0  0  0  0  0  0  0  0
    7.2858    1.1491   -0.4235 H   0  0  0  0  0  0  0  0  0  0  0  0
    6.3438    4.0587   -0.2358 H   0  0  0  0  0  0  0  0  0  0  0  0
    6.5180    1.9977    2.0203 H   0  0  0  0  0  0  0  0  0  0  0  0
    5.9584    3.6624    2.1546 H   0  0  0  0  0  0  0  0  0  0  0  0
   10.5767    7.9373   -0.6144 H   0  0  0  0  0  0  0  0  0  0  0  0
   11.3095    5.7611   -1.4831 H   0  0  0  0  0  0  0  0  0  0  0  0
    7.4715    5.8349    1.5052 H   0  0  0  0  0  0  0  0  0  0  0  0
    2.1298    2.1981    0.0184 H   0  0  0  0  0  0  0  0  0  0  0  0
   -0.3097    2.1657   -0.0722 H   0  0  0  0  0  0  0  0  0  0  0  0
    8.8151    2.6712    0.6423 H   0  0  0  0  0  0  0  0  0  0  0  0
  1  2  2  0  0  0  0
  1 17  1  0  0  0  0
  1 26  1  0  0  0  0
  2  3  1  0  0  0  0
  2 27  1  0  0  0  0
  3  4  1  0  0  0  0
  3 19  2  0  0  0  0
  4 16  3  0  0  0  0
  5 23  1  0  0  0  0
  5 28  1  0  0  0  0
  5 29  1  0  0  0  0
  5 30  1  0  0  0  0
  6 10  1  0  0  0  0
  6 21  1  0  0  0  0
  6 31  1  0  0  0  0
  6 32  1  0  0  0  0
  7  8  1  0  0  0  0
  7 21  1  0  0  0  0
  7 33  1  0  0  0  0
  7 34  1  0  0  0  0
  8  9  1  0  0  0  0
  8 35  1  0  0  0  0
  8 36  1  0  0  0  0
  9 10  1  0  0  0  0
  9 20  1  0  0  0  0
  9 37  1  0  0  0  0
 10 38  1  0  0  0  0
 10 39  1  0  0  0  0
 11 17  1  0  0  0  0
 11 21  1  0  0  0  0
 11 22  2  0  0  0  0
 12 13  2  0  0  0  0
 12 15  1  0  0  0  0
 12 23  1  0  0  0  0
 13 14  1  0  0  0  0
 13 40  1  0  0  0  0
 14 25  2  0  0  0  0
 14 41  1  0  0  0  0
 15 24  2  0  0  0  0
 15 42  1  0  0  0  0
 17 18  2  0  0  0  0
 18 19  1  0  0  0  0
 18 43  1  0  0  0  0
 19 44  1  0  0  0  0
 20 24  1  0  0  0  0
 20 45  1  0  0  0  0
 24 25  1  0  0  0  0
M  END
>  <DRUGBANK_ID>
DB07002

>  <COMMON_NAME>
4-({4-[(4-methoxypyridin-2-yl)amino]piperidin-1-yl}carbonyl)benzonitrile

$$$$
