
 OpenBabel10282417133D

 14 14  0  0  0  0  0  0  0  0999 V2000
    0.8565    0.0387    0.0021 O   0  0  0  0  0  0  0  0  0  0  0  0
    2.0876   -2.0584   -3.6458 O   0  0  0  0  0  0  0  0  0  0  0  0
    0.9595   -1.0587   -1.9668 N   0  0  0  0  0  0  0  0  0  0  0  0
    2.0256    0.2090   -3.5817 N   0  0  0  0  0  0  0  0  0  0  0  0
    0.3970    0.0811   -1.3262 C   0  0  2  0  0  0  0  0  0  0  0  0
    0.8403    1.3581   -1.9384 C   0  0  0  0  0  0  0  0  0  0  0  0
    1.7065   -1.0280   -3.0990 C   0  0  0  0  0  0  0  0  0  0  0  0
    1.6172    1.3848   -3.0228 C   0  0  0  0  0  0  0  0  0  0  0  0
    0.6880   -1.9732   -1.6397 H   0  0  0  0  0  0  0  0  0  0  0  0
    2.6058    0.2103   -4.4122 H   0  0  0  0  0  0  0  0  0  0  0  0
    1.8250    0.0098   -0.0830 H   0  0  0  0  0  0  0  0  0  0  0  0
   -0.6927   -0.0060   -1.3436 H   0  0  0  0  0  0  0  0  0  0  0  0
    0.4959    2.2772   -1.4772 H   0  0  0  0  0  0  0  0  0  0  0  0
    1.9434    2.3053   -3.4947 H   0  0  0  0  0  0  0  0  0  0  0  0
  1 11  1  0  0  0  0
  2  7  2  0  0  0  0
  3  5  1  0  0  0  0
  3  7  1  0  0  0  0
  3  9  1  0  0  0  0
  4  7  1  0  0  0  0
  4  8  1  0  0  0  0
  4 10  1  0  0  0  0
  5  1  1  0  0  0  0
  5  6  1  0  0  0  0
  5 12  1  6  0  0  0
  6  8  2  0  0  0  0
  6 13  1  0  0  0  0
  8 14  1  0  0  0  0
M  END
>  <DRUGBANK_ID>
DB03939

>  <SECONDARY_ACCESSION_NUMBERS>
EXPT01777

>  <COMMON_NAME>
(4S)-4-hydroxy-3,4-dihydro-2(1H)-pyrimidinone

$$$$
