780
 OpenBabel10282417113D

 22 22  0  0  0  0  0  0  0  0999 V2000
    0.5916    0.0406    0.1780 N   0  0  0  0  0  0  0  0  0  0  0  0
    0.3433    0.3226   -1.2172 N   0  0  0  0  0  0  0  0  0  0  0  0
    1.0087   -2.4213   -0.5436 C   0  0  0  0  0  0  0  0  0  0  0  0
    2.5227   -2.4581   -0.5413 C   0  0  0  0  0  0  0  0  0  0  0  0
    0.3715   -1.3979    0.4359 C   0  0  0  0  0  0  0  0  0  0  0  0
    3.2855   -1.2890   -0.6399 C   0  0  0  0  0  0  0  0  0  0  0  0
    3.2082   -3.6750   -0.4362 C   0  0  0  0  0  0  0  0  0  0  0  0
    4.6564   -1.2874   -0.4215 C   0  0  0  0  0  0  0  0  0  0  0  0
    4.5968   -3.6867   -0.2765 C   0  0  0  0  0  0  0  0  0  0  0  0
    5.3162   -2.4941   -0.2323 C   0  0  0  0  0  0  0  0  0  0  0  0
    1.5531    0.2607    0.4600 H   0  0  0  0  0  0  0  0  0  0  0  0
   -0.6608    0.3389   -1.4095 H   0  0  0  0  0  0  0  0  0  0  0  0
    0.6976    1.2411   -1.4958 H   0  0  0  0  0  0  0  0  0  0  0  0
    0.6324   -3.4079   -0.2360 H   0  0  0  0  0  0  0  0  0  0  0  0
    0.6433   -2.2729   -1.5662 H   0  0  0  0  0  0  0  0  0  0  0  0
    0.7369   -1.6055    1.4508 H   0  0  0  0  0  0  0  0  0  0  0  0
   -0.7122   -1.5605    0.4662 H   0  0  0  0  0  0  0  0  0  0  0  0
    2.8266   -0.3409   -0.8935 H   0  0  0  0  0  0  0  0  0  0  0  0
    2.6689   -4.6182   -0.4727 H   0  0  0  0  0  0  0  0  0  0  0  0
    5.1948   -0.3453   -0.4040 H   0  0  0  0  0  0  0  0  0  0  0  0
    5.1207   -4.6332   -0.1674 H   0  0  0  0  0  0  0  0  0  0  0  0
    6.3900   -2.4985   -0.0814 H   0  0  0  0  0  0  0  0  0  0  0  0
  1  2  1  0  0  0  0
  1  5  1  0  0  0  0
  1 11  1  0  0  0  0
  2 12  1  0  0  0  0
  2 13  1  0  0  0  0
  3  4  1  0  0  0  0
  3  5  1  0  0  0  0
  3 14  1  0  0  0  0
  3 15  1  0  0  0  0
  4  6  2  0  0  0  0
  4  7  1  0  0  0  0
  5 16  1  0  0  0  0
  5 17  1  0  0  0  0
  6  8  1  0  0  0  0
  6 18  1  0  0  0  0
  7  9  2  0  0  0  0
  7 19  1  0  0  0  0
  8 10  2  0  0  0  0
  8 20  1  0  0  0  0
  9 10  1  0  0  0  0
  9 21  1  0  0  0  0
 10 22  1  0  0  0  0
M  END
>  <DRUGBANK_ID>
DB00780

>  <SECONDARY_ACCESSION_NUMBERS>
APRD00099

>  <COMMON_NAME>
Phenelzine

>  <CAS_NUMBER>
51-71-8

>  <UNII>
O408N561GF

>  <SYNONYMS>
Fenelzina; Phenelzin; Phenelzine; Ph√©nelzine; Phenelzinum

$$$$
