
 OpenBabel10282417213D

  1  0  0  0  0  0  0  0  0  0999 V2000
    1.0076    0.0399    0.0914 Ga  0  1  0  0  0  0  0  0  0  0  0  0
M  ISO  1   1  67
M  CHG  1   1   3
M  END
>  <DRUGBANK_ID>
DB14549

>  <COMMON_NAME>
Gallium cation Ga-67

>  <UNII>
99T03J52W0

>  <SYNONYMS>
Gallium (67Ga)cation; Gallium cation Ga 67; Gallium Ga-67 cation

$$$$
