
 OpenBabel10282417223D

 62 64  0  0  1  0  0  0  0  0999 V2000
    0.5325    0.3156    0.4518 O   0  0  0  0  0  0  0  0  0  0  0  0
    0.4260   -0.5612    1.5284 N   0  0  0  0  0  0  0  0  0  0  0  0
    1.4314   -0.9227    2.3645 C   0  0  0  0  0  0  0  0  0  0  0  0
    1.1265   -1.3726    3.4745 O   0  0  0  0  0  0  0  0  0  0  0  0
    2.9089   -0.7490    2.0008 C   0  0  0  0  0  0  0  0  0  0  0  0
    3.4338   -1.5948    0.8352 C   0  0  0  0  0  0  0  0  0  0  0  0
    2.9377   -1.1657   -0.5146 C   0  0  0  0  0  0  0  0  0  0  0  0
    2.1951   -2.0875   -1.1667 N   0  0  0  0  0  0  0  0  0  0  0  0
    1.4761   -1.6662   -2.2161 C   0  0  0  0  0  0  0  0  0  0  0  0
    1.4316   -0.3503   -2.6295 C   0  0  0  0  0  0  0  0  0  0  0  0
    0.5091   -0.0127   -3.7516 C   0  0  0  0  0  0  0  0  0  0  0  0
    1.0972   -0.4565   -5.0131 N   0  0  0  0  0  0  0  0  0  0  0  0
    0.4894    0.1583   -6.2096 C   0  0  1  0  0  0  0  0  0  0  0  0
    0.7694    1.6795   -6.4163 C   0  0  0  0  0  0  0  0  0  0  0  0
    1.6652    2.2429   -5.3085 C   0  0  0  0  0  0  0  0  0  0  0  0
    1.9874    3.7010   -5.3423 C   0  0  0  0  0  0  0  0  0  0  0  0
    0.6711    4.4659   -5.3698 C   0  0  0  0  0  0  0  0  0  0  0  0
   -0.1996    4.0098   -6.5418 C   0  0  0  0  0  0  0  0  0  0  0  0
   -0.5281    2.5090   -6.4956 C   0  0  0  0  0  0  0  0  0  0  0  0
    0.9603   -0.6022   -7.4567 C   0  0  0  0  0  0  0  0  0  0  0  0
    0.1608   -1.2095   -8.1864 O   0  0  0  0  0  0  0  0  0  0  0  0
    2.3026   -0.4929   -7.6876 O   0  0  0  0  0  0  0  0  0  0  0  0
    2.8448   -1.1126   -8.8733 C   0  0  0  0  0  0  0  0  0  0  0  0
    2.2797   -0.5530  -10.1792 C   0  0  0  0  0  0  0  0  0  0  0  0
    2.3997   -1.6841  -11.1959 C   0  0  0  0  0  0  0  0  0  0  0  0
    2.7178   -2.9611  -10.4189 C   0  0  0  0  0  0  0  0  0  0  0  0
    2.5922   -2.6151   -8.9459 C   0  0  0  0  0  0  0  0  0  0  0  0
    2.2547    0.5853   -1.9862 C   0  0  0  0  0  0  0  0  0  0  0  0
    3.0682    0.1589   -0.9415 C   0  0  0  0  0  0  0  0  0  0  0  0
    1.4642    0.5661    0.4561 H   0  0  0  0  0  0  0  0  0  0  0  0
   -0.5264   -0.6817    1.8557 H   0  0  0  0  0  0  0  0  0  0  0  0
    3.1447    0.3143    1.8868 H   0  0  0  0  0  0  0  0  0  0  0  0
    3.4722   -1.0743    2.8881 H   0  0  0  0  0  0  0  0  0  0  0  0
    4.5287   -1.5585    0.8047 H   0  0  0  0  0  0  0  0  0  0  0  0
    3.1539   -2.6429    1.0010 H   0  0  0  0  0  0  0  0  0  0  0  0
    0.8779   -2.4142   -2.7284 H   0  0  0  0  0  0  0  0  0  0  0  0
   -0.4889   -0.4390   -3.6243 H   0  0  0  0  0  0  0  0  0  0  0  0
    0.2863    1.0368   -3.6124 H   0  0  0  0  0  0  0  0  0  0  0  0
    2.1088   -0.3145   -5.0283 H   0  0  0  0  0  0  0  0  0  0  0  0
   -0.5885   -0.0449   -6.1604 H   0  0  0  0  0  0  0  0  0  0  0  0
    1.2850    1.8264   -7.3747 H   0  0  0  0  0  0  0  0  0  0  0  0
    1.0892    2.2473   -4.4002 H   0  0  0  0  0  0  0  0  0  0  0  0
    2.5679    1.6490   -5.1577 H   0  0  0  0  0  0  0  0  0  0  0  0
    2.5241    3.9266   -4.4105 H   0  0  0  0  0  0  0  0  0  0  0  0
    2.6406    3.9222   -6.1857 H   0  0  0  0  0  0  0  0  0  0  0  0
    0.1182    4.2970   -4.4325 H   0  0  0  0  0  0  0  0  0  0  0  0
    0.8865    5.5346   -5.4214 H   0  0  0  0  0  0  0  0  0  0  0  0
   -1.1262    4.5910   -6.5540 H   0  0  0  0  0  0  0  0  0  0  0  0
    0.3386    4.2212   -7.4725 H   0  0  0  0  0  0  0  0  0  0  0  0
   -1.0999    2.2343   -7.3924 H   0  0  0  0  0  0  0  0  0  0  0  0
   -1.1786    2.2949   -5.6364 H   0  0  0  0  0  0  0  0  0  0  0  0
    3.9311   -0.9370   -8.8658 H   0  0  0  0  0  0  0  0  0  0  0  0
    1.2342   -0.2499  -10.0805 H   0  0  0  0  0  0  0  0  0  0  0  0
    2.8150    0.3455  -10.5071 H   0  0  0  0  0  0  0  0  0  0  0  0
    1.4646   -1.7865  -11.7585 H   0  0  0  0  0  0  0  0  0  0  0  0
    3.1914   -1.4785  -11.9243 H   0  0  0  0  0  0  0  0  0  0  0  0
    2.0313   -3.7722  -10.6855 H   0  0  0  0  0  0  0  0  0  0  0  0
    3.7332   -3.3006  -10.6476 H   0  0  0  0  0  0  0  0  0  0  0  0
    3.2857   -3.1783   -8.3136 H   0  0  0  0  0  0  0  0  0  0  0  0
    1.5949   -2.8921   -8.6015 H   0  0  0  0  0  0  0  0  0  0  0  0
    2.1886    1.6504   -2.2078 H   0  0  0  0  0  0  0  0  0  0  0  0
    3.6151    0.8897   -0.3495 H   0  0  0  0  0  0  0  0  0  0  0  0
  1  2  1  0  0  0  0
  1 30  1  0  0  0  0
  2  3  1  0  0  0  0
  2 31  1  0  0  0  0
  3  4  2  0  0  0  0
  3  5  1  0  0  0  0
  5  6  1  0  0  0  0
  5 32  1  0  0  0  0
  5 33  1  0  0  0  0
  6  7  1  0  0  0  0
  6 34  1  0  0  0  0
  6 35  1  0  0  0  0
  7  8  2  0  0  0  0
  7 29  1  0  0  0  0
  8  9  1  0  0  0  0
  9 10  2  0  0  0  0
  9 36  1  0  0  0  0
 10 11  1  0  0  0  0
 10 28  1  0  0  0  0
 11 12  1  0  0  0  0
 11 37  1  0  0  0  0
 11 38  1  0  0  0  0
 12 39  1  0  0  0  0
 13 12  1  0  0  0  0
 13 14  1  0  0  0  0
 13 20  1  0  0  0  0
 13 40  1  1  0  0  0
 14 15  1  0  0  0  0
 14 19  1  0  0  0  0
 14 41  1  0  0  0  0
 15 16  1  0  0  0  0
 15 42  1  0  0  0  0
 15 43  1  0  0  0  0
 16 17  1  0  0  0  0
 16 44  1  0  0  0  0
 16 45  1  0  0  0  0
 17 18  1  0  0  0  0
 17 46  1  0  0  0  0
 17 47  1  0  0  0  0
 18 19  1  0  0  0  0
 18 48  1  0  0  0  0
 18 49  1  0  0  0  0
 19 50  1  0  0  0  0
 19 51  1  0  0  0  0
 20 21  2  0  0  0  0
 20 22  1  0  0  0  0
 22 23  1  0  0  0  0
 23 24  1  0  0  0  0
 23 27  1  0  0  0  0
 23 52  1  0  0  0  0
 24 25  1  0  0  0  0
 24 53  1  0  0  0  0
 24 54  1  0  0  0  0
 25 26  1  0  0  0  0
 25 55  1  0  0  0  0
 25 56  1  0  0  0  0
 26 27  1  0  0  0  0
 26 57  1  0  0  0  0
 26 58  1  0  0  0  0
 27 59  1  0  0  0  0
 27 60  1  0  0  0  0
 28 29  2  0  0  0  0
 28 61  1  0  0  0  0
 29 62  1  0  0  0  0
M  END
>  <DRUGBANK_ID>
DB15440

>  <COMMON_NAME>
GSK-3117391

>  <CAS_NUMBER>
1018673-42-1

>  <UNII>
CKA3P0O1VI

>  <SYNONYMS>
GSK3117391

$$$$
