
 OpenBabel10282417133D

 21 20  0  0  0  0  0  0  0  0999 V2000
    3.3096    0.8449   -3.4756 O   0  0  0  0  0  0  0  0  0  0  0  0
    2.4507    0.3126   -2.4541 C   0  0  0  0  0  0  0  0  0  0  0  0
    2.4558    0.0749    0.0874 C   0  0  2  0  0  0  0  0  0  0  0  0
    3.0207   -0.4597   -1.2553 C   0  0  2  0  0  0  0  0  0  0  0  0
    1.0366   -0.4198    0.3173 C   0  0  0  0  0  0  0  0  0  0  0  0
    2.4984    1.4998    0.1689 O   0  0  0  0  0  0  0  0  0  0  0  0
    4.4460   -0.4676   -1.1940 O   0  0  0  0  0  0  0  0  0  0  0  0
    0.9911    1.5063   -4.5582 O   0  0  0  0  0  0  0  0  0  0  0  0
    2.6253    3.1434   -3.3799 O   0  0  0  0  0  0  0  0  0  0  0  0
    0.0941   -0.2155   -0.4572 O   0  0  0  0  0  0  0  0  0  0  0  0
    0.8771   -0.9834    1.2491 H   0  0  0  0  0  0  0  0  0  0  0  0
    2.4126    1.8856   -4.3454 P   0  0  0  0  0  0  0  0  0  0  0  0
    3.1975    2.4574   -5.6012 O   0  0  0  0  0  0  0  0  0  0  0  0
    1.8779    1.1598   -2.0685 H   0  0  0  0  0  0  0  0  0  0  0  0
    1.7375   -0.3408   -2.9619 H   0  0  0  0  0  0  0  0  0  0  0  0
    3.0618   -0.2972    0.9195 H   0  0  0  0  0  0  0  0  0  0  0  0
    2.7116   -1.5081   -1.3589 H   0  0  0  0  0  0  0  0  0  0  0  0
    3.3841    1.7984   -0.0869 H   0  0  0  0  0  0  0  0  0  0  0  0
    4.7707    0.4407   -1.2810 H   0  0  0  0  0  0  0  0  0  0  0  0
    3.4670    3.0132   -2.9067 H   0  0  0  0  0  0  0  0  0  0  0  0
    2.7248    3.2826   -5.8473 H   0  0  0  0  0  0  0  0  0  0  0  0
  1 12  1  0  0  0  0
  1  2  1  0  0  0  0
  2 14  1  0  0  0  0
  2 15  1  0  0  0  0
  3  6  1  0  0  0  0
  3  5  1  0  0  0  0
  3 16  1  1  0  0  0
  4  7  1  0  0  0  0
  4 17  1  6  0  0  0
  4  3  1  0  0  0  0
  4  2  1  0  0  0  0
  5 10  2  0  0  0  0
  6 18  1  0  0  0  0
  7 19  1  0  0  0  0
  8 12  2  0  0  0  0
  9 12  1  0  0  0  0
  9 20  1  0  0  0  0
 11  5  1  0  0  0  0
 12 13  1  0  0  0  0
 13 21  1  0  0  0  0
M  END
>  <DRUGBANK_ID>
DB03937

>  <SECONDARY_ACCESSION_NUMBERS>
EXPT01316

>  <COMMON_NAME>
D-erythrose 4-phosphate

>  <CAS_NUMBER>
585-18-2

>  <UNII>
2156QF7O8M

>  <SYNONYMS>
4-O-phosphono-D-erythrose; Erythose-4-phosphate

$$$$
