
 OpenBabel10282417133D

 81 85  0  0  1  0  0  0  0  0999 V2000
    0.8802   -7.4545    4.3408 C   0  0  0  0  0  0  0  0  0  0  0  0
    3.0053   -5.0636    0.3132 C   0  0  0  0  0  0  0  0  0  0  0  0
    0.9694   -6.2240    2.2111 C   0  0  0  0  0  0  0  0  0  0  0  0
    1.8035   -6.1582   -3.1195 C   0  0  0  0  0  0  0  0  0  0  0  0
   -3.9384    5.9385   -0.7069 C   0  0  0  0  0  0  0  0  0  0  0  0
   -6.4290    5.2392   -4.3510 C   0  0  0  0  0  0  0  0  0  0  0  0
   -2.5414    4.7975   -5.4062 C   0  0  0  0  0  0  0  0  0  0  0  0
    0.5028   -7.2658    2.9102 C   0  0  0  0  0  0  0  0  0  0  0  0
    3.3585   -5.7100   -1.0571 C   0  0  1  0  0  0  0  0  0  0  0  0
    2.3466   -5.1338   -2.0323 C   0  0  2  0  0  0  0  0  0  0  0  0
   -2.4229    6.1063   -1.1580 C   0  0  2  0  0  0  0  0  0  0  0  0
    1.5157   -4.9061    0.2517 C   0  0  2  0  0  0  0  0  0  0  0  0
   -4.0699    6.2413   -4.9562 C   0  0  0  0  0  0  0  0  0  0  0  0
   -2.2796    7.0973   -2.3040 C   0  0  2  0  0  0  0  0  0  0  0  0
   -1.2999    6.4409   -3.3143 C   0  0  2  0  0  0  0  0  0  0  0  0
   -5.1820    7.1235   -4.8326 C   0  0  0  0  0  0  0  0  0  0  0  0
   -4.2138    5.0787   -4.2462 C   0  0  0  0  0  0  0  0  0  0  0  0
   -0.3579   -8.2004    2.1450 C   0  0  0  0  0  0  0  0  0  0  0  0
   -1.7081    4.9988   -3.1661 C   0  0  2  0  0  0  0  0  0  0  0  0
    0.0161   -7.0068    0.1969 C   0  0  0  0  0  0  0  0  0  0  0  0
   -5.2120    8.5023   -5.0477 N   0  0  0  0  0  0  0  0  0  0  0  0
    5.3974   -3.1063   -1.2285 N   0  5  0  0  0  0  0  0  0  0  0  0
   -6.3831    6.5866   -4.4812 N   0  0  0  0  0  0  0  0  0  0  0  0
   -5.3800    4.4201   -4.3928 N   0  0  0  0  0  0  0  0  0  0  0  0
   -2.9215    6.0445   -5.7408 N   0  0  0  0  0  0  0  0  0  0  0  0
   -0.5950   -8.0257    0.8860 N   0  0  0  0  0  0  0  0  0  0  0  0
    4.7458   -5.3895   -1.4528 N   0  0  0  0  0  0  0  0  0  0  0  0
    5.0686   -4.1804   -1.3623 N   0  3  0  0  0  0  0  0  0  0  0  0
    0.7755   -6.0518    0.8498 N   0  0  0  0  0  0  0  0  0  0  0  0
   -2.9053    4.6102   -4.0605 N   0  0  0  0  0  0  0  0  0  0  0  0
   -1.8458    8.3875   -1.8983 O   0  0  0  0  0  0  0  0  0  0  0  0
    0.0874    6.5838   -2.9329 O   0  0  0  0  0  0  0  0  0  0  0  0
   -0.7553   -9.1057    2.8963 O   0  5  0  0  0  0  0  0  0  0  0  0
    0.0276   -7.0699   -1.0359 O   0  0  0  0  0  0  0  0  0  0  0  0
   -0.9358   -6.9323   -3.2267 O   0  5  0  0  0  0  0  0  0  0  0  0
   -0.1333   -4.3201   -2.3177 O   0  0  0  0  0  0  0  0  0  0  0  0
   -3.0111    3.5468   -1.6835 O   0  5  0  0  0  0  0  0  0  0  0  0
   -5.7499    4.3454   -1.9822 O   0  0  0  0  0  0  0  0  0  0  0  0
   -2.6829   -4.6166   -4.5420 O   0  5  0  0  0  0  0  0  0  0  0  0
   -4.4240   -4.6676   -2.5048 O   0  0  0  0  0  0  0  0  0  0  0  0
   -3.5294    0.6425   -2.2909 O   0  5  0  0  0  0  0  0  0  0  0  0
   -6.0866    1.0133   -3.5347 O   0  0  0  0  0  0  0  0  0  0  0  0
   -3.3131   -1.3302   -3.0550 O   0  0  0  0  0  0  0  0  0  0  0  0
   -5.7281   -1.4058   -4.1995 O   0  0  0  0  0  0  0  0  0  0  0  0
    0.7799   -5.7124   -4.0633 O   0  0  0  0  0  0  0  0  0  0  0  0
   -4.4657    4.6679   -0.2750 O   0  0  0  0  0  0  0  0  0  0  0  0
    1.4793   -4.5174   -1.0897 O   0  0  0  0  0  0  0  0  0  0  0  0
   -1.6563    5.0394   -1.6853 O   0  0  0  0  0  0  0  0  0  0  0  0
   -2.1231   -5.1338   -2.2720 O   0  0  0  0  0  0  0  0  0  0  0  0
   -4.4890    2.5171   -2.9852 O   0  0  0  0  0  0  0  0  0  0  0  0
   -4.1870   -3.0192   -4.0722 O   0  0  0  0  0  0  0  0  0  0  0  0
   -5.5121   -0.6239   -1.9560 O   0  0  0  0  0  0  0  0  0  0  0  0
   -0.6716   -5.4231   -3.1676 P   0  0  3  0  0  0  0  0  0  0  0  0
   -4.4774    3.5925   -1.6301 P   0  0  3  0  0  0  0  0  0  0  0  0
   -3.1551   -4.0765   -3.1721 P   0  0  3  0  0  0  0  0  0  0  0  0
   -5.0006    0.9466   -2.4706 P   0  0  3  0  0  0  0  0  0  0  0  0
   -4.8496   -1.8216   -3.0141 P   0  0  3  0  0  0  0  0  0  0  0  0
    3.2232   -6.7953   -0.9940 H   0  0  0  0  0  0  0  0  0  0  0  0
    2.7481   -4.3124   -2.6446 H   0  0  0  0  0  0  0  0  0  0  0  0
   -1.8930    6.4189   -0.2538 H   0  0  0  0  0  0  0  0  0  0  0  0
    1.1136   -4.0307    0.7844 H   0  0  0  0  0  0  0  0  0  0  0  0
   -3.2581    7.2258   -2.7662 H   0  0  0  0  0  0  0  0  0  0  0  0
   -1.3551    6.8652   -4.3099 H   0  0  0  0  0  0  0  0  0  0  0  0
   -0.9455    4.2567   -3.4511 H   0  0  0  0  0  0  0  0  0  0  0  0
    0.6307   -8.4415    4.7374 H   0  0  0  0  0  0  0  0  0  0  0  0
    0.3821   -6.7061    4.9617 H   0  0  0  0  0  0  0  0  0  0  0  0
    1.9649   -7.3532    4.4493 H   0  0  0  0  0  0  0  0  0  0  0  0
    3.3711   -5.6263    1.1666 H   0  0  0  0  0  0  0  0  0  0  0  0
    3.3992   -4.0409    0.3845 H   0  0  0  0  0  0  0  0  0  0  0  0
    1.5895   -5.4790    2.6906 H   0  0  0  0  0  0  0  0  0  0  0  0
    2.6584   -6.4220   -3.7524 H   0  0  0  0  0  0  0  0  0  0  0  0
    1.4864   -7.1031   -2.6778 H   0  0  0  0  0  0  0  0  0  0  0  0
   -4.6261    6.3393   -1.4606 H   0  0  0  0  0  0  0  0  0  0  0  0
   -4.0798    6.6163    0.1432 H   0  0  0  0  0  0  0  0  0  0  0  0
   -7.3884    4.7594   -4.1697 H   0  0  0  0  0  0  0  0  0  0  0  0
   -1.8804    4.0540   -5.8346 H   0  0  0  0  0  0  0  0  0  0  0  0
   -4.3583    9.0104   -4.8985 H   0  0  0  0  0  0  0  0  0  0  0  0
   -6.0922    8.8876   -4.7167 H   0  0  0  0  0  0  0  0  0  0  0  0
   -2.1495    8.9598   -2.6174 H   0  0  0  0  0  0  0  0  0  0  0  0
    0.2854    7.5225   -3.0086 H   0  0  0  0  0  0  0  0  0  0  0  0
   -2.8898   -1.2310   -2.1844 H   0  0  0  0  0  0  0  0  0  0  0  0
  1 65  1  0  0  0  0
  1 66  1  0  0  0  0
  1 67  1  0  0  0  0
  2 68  1  0  0  0  0
  2 69  1  0  0  0  0
  3 70  1  0  0  0  0
  4 71  1  0  0  0  0
  4 72  1  0  0  0  0
  5 73  1  0  0  0  0
  5 74  1  0  0  0  0
  6 75  1  0  0  0  0
  7 76  1  0  0  0  0
  8  1  1  0  0  0  0
  8  3  2  0  0  0  0
  9  2  1  0  0  0  0
  9 58  1  1  0  0  0
  9 27  1  0  0  0  0
 10  9  1  0  0  0  0
 10 59  1  6  0  0  0
 10  4  1  0  0  0  0
 11  5  1  0  0  0  0
 11 60  1  1  0  0  0
 12  2  1  0  0  0  0
 12 61  1  1  0  0  0
 12 29  1  0  0  0  0
 14 11  1  0  0  0  0
 14 62  1  6  0  0  0
 14 31  1  0  0  0  0
 15 14  1  0  0  0  0
 15 63  1  6  0  0  0
 15 32  1  0  0  0  0
 16 13  2  0  0  0  0
 17 13  1  0  0  0  0
 18  8  1  0  0  0  0
 19 15  1  0  0  0  0
 19 30  1  0  0  0  0
 19 64  1  6  0  0  0
 21 16  1  0  0  0  0
 21 77  1  0  0  0  0
 21 78  1  0  0  0  0
 23  6  2  0  0  0  0
 23 16  1  0  0  0  0
 24  6  1  0  0  0  0
 24 17  2  0  0  0  0
 25  7  2  0  0  0  0
 25 13  1  0  0  0  0
 26 18  2  0  0  0  0
 26 20  1  0  0  0  0
 28 22  2  0  0  0  0
 28 27  2  0  0  0  0
 29  3  1  0  0  0  0
 29 20  1  0  0  0  0
 30  7  1  0  0  0  0
 30 17  1  0  0  0  0
 31 79  1  0  0  0  0
 32 80  1  0  0  0  0
 33 18  1  0  0  0  0
 34 20  2  0  0  0  0
 43 81  1  0  0  0  0
 45  4  1  0  0  0  0
 46  5  1  0  0  0  0
 47 10  1  0  0  0  0
 47 12  1  0  0  0  0
 48 11  1  0  0  0  0
 48 19  1  0  0  0  0
 53 35  1  0  0  0  0
 53 36  2  0  0  0  0
 53 45  1  0  0  0  0
 53 49  1  0  0  0  0
 54 37  1  0  0  0  0
 54 38  2  0  0  0  0
 54 46  1  0  0  0  0
 54 50  1  0  0  0  0
 55 39  1  0  0  0  0
 55 40  2  0  0  0  0
 55 49  1  0  0  0  0
 55 51  1  0  0  0  0
 56 41  1  0  0  0  0
 56 42  2  0  0  0  0
 56 50  1  0  0  0  0
 56 52  1  0  0  0  0
 57 43  1  0  0  0  0
 57 44  2  0  0  0  0
 57 51  1  0  0  0  0
 57 52  1  0  0  0  0
M  CHG  7  22  -1  28   1  33  -1  35  -1  37  -1  39  -1  41  -1
M  END
>  <DRUGBANK_ID>
DB03845

>  <SECONDARY_ACCESSION_NUMBERS>
EXPT03281

>  <COMMON_NAME>
P1-(5'-Adenosyl)P5-(5'-(3'azido-3'-Deoxythymidyl))Pentaphosphate

$$$$
