A11
 OpenBabel10282417163D

 37 38  0  0  0  0  0  0  0  0999 V2000
   -2.1783    0.1461    0.0101 Cl  0  0  0  0  0  0  0  0  0  0  0  0
   -0.4625    0.0991    0.0159 C   0  0  0  0  0  0  0  0  0  0  0  0
    0.2917    1.2580    0.0137 C   0  0  0  0  0  0  0  0  0  0  0  0
    1.6649    1.1151    0.0058 C   0  0  0  0  0  0  0  0  0  0  0  0
    2.2864   -0.0905   -0.0081 N   0  0  0  0  0  0  0  0  0  0  0  0
    1.5153   -1.2044   -0.0283 C   0  0  0  0  0  0  0  0  0  0  0  0
    0.1506   -1.1352    0.0002 C   0  0  0  0  0  0  0  0  0  0  0  0
    2.1456   -2.3991   -0.1736 N   0  0  0  0  0  0  0  0  0  0  0  0
    1.7150   -3.7898   -0.0153 C   0  0  0  0  0  0  0  0  0  0  0  0
    0.5090   -4.5050   -0.6523 C   0  0  0  0  0  0  0  0  0  0  0  0
   -0.6777   -4.8402    0.2594 C   0  0  0  0  0  0  0  0  0  0  0  0
   -0.2315   -5.3534    1.5479 N   0  0  0  0  0  0  0  0  0  0  0  0
    0.6801   -4.4605    2.2439 C   0  0  0  0  0  0  0  0  0  0  0  0
    1.9604   -4.2537    1.4219 C   0  0  0  0  0  0  0  0  0  0  0  0
   -0.6458   -6.6012    2.0030 C   0  0  0  0  0  0  0  0  0  0  0  0
   -1.3346   -7.3646    1.3153 O   0  0  0  0  0  0  0  0  0  0  0  0
   -0.2395   -6.9160    3.2676 O   0  0  0  0  0  0  0  0  0  0  0  0
   -0.6437   -8.2063    3.7960 C   0  0  0  0  0  0  0  0  0  0  0  0
   -2.1479   -8.3182    4.0105 C   0  0  0  0  0  0  0  0  0  0  0  0
   -0.1760    2.2333    0.0126 H   0  0  0  0  0  0  0  0  0  0  0  0
    2.3159    1.9878   -0.0031 H   0  0  0  0  0  0  0  0  0  0  0  0
   -0.4265   -2.0396   -0.0211 H   0  0  0  0  0  0  0  0  0  0  0  0
    3.1517   -2.2623   -0.0575 H   0  0  0  0  0  0  0  0  0  0  0  0
    2.4785   -4.1897   -0.6885 H   0  0  0  0  0  0  0  0  0  0  0  0
    0.1740   -4.0835   -1.6037 H   0  0  0  0  0  0  0  0  0  0  0  0
    0.9157   -5.5019   -0.9034 H   0  0  0  0  0  0  0  0  0  0  0  0
   -1.2748   -3.9453    0.4498 H   0  0  0  0  0  0  0  0  0  0  0  0
   -1.3401   -5.5614   -0.2356 H   0  0  0  0  0  0  0  0  0  0  0  0
    0.9274   -4.8384    3.2385 H   0  0  0  0  0  0  0  0  0  0  0  0
    0.1533   -3.5066    2.3782 H   0  0  0  0  0  0  0  0  0  0  0  0
    2.4993   -5.2040    1.3501 H   0  0  0  0  0  0  0  0  0  0  0  0
    2.6022   -3.5475    1.9586 H   0  0  0  0  0  0  0  0  0  0  0  0
   -0.2695   -9.0148    3.1559 H   0  0  0  0  0  0  0  0  0  0  0  0
   -0.1508   -8.3266    4.7699 H   0  0  0  0  0  0  0  0  0  0  0  0
   -2.6987   -8.2225    3.0718 H   0  0  0  0  0  0  0  0  0  0  0  0
   -2.4154   -9.2861    4.4481 H   0  0  0  0  0  0  0  0  0  0  0  0
   -2.5019   -7.5220    4.6716 H   0  0  0  0  0  0  0  0  0  0  0  0
  1  2  1  0  0  0  0
  2  3  1  0  0  0  0
  2  7  2  0  0  0  0
  3  4  2  0  0  0  0
  3 20  1  0  0  0  0
  4  5  1  0  0  0  0
  4 21  1  0  0  0  0
  5  6  2  0  0  0  0
  6  7  1  0  0  0  0
  6  8  1  0  0  0  0
  7 22  1  0  0  0  0
  8  9  1  0  0  0  0
  8 23  1  0  0  0  0
  9 10  1  0  0  0  0
  9 14  1  0  0  0  0
  9 24  1  0  0  0  0
 10 11  1  0  0  0  0
 10 25  1  0  0  0  0
 10 26  1  0  0  0  0
 11 12  1  0  0  0  0
 11 27  1  0  0  0  0
 11 28  1  0  0  0  0
 12 13  1  0  0  0  0
 12 15  1  0  0  0  0
 13 14  1  0  0  0  0
 13 29  1  0  0  0  0
 13 30  1  0  0  0  0
 14 31  1  0  0  0  0
 14 32  1  0  0  0  0
 15 16  2  0  0  0  0
 15 17  1  0  0  0  0
 17 18  1  0  0  0  0
 18 19  1  0  0  0  0
 18 33  1  0  0  0  0
 18 34  1  0  0  0  0
 19 35  1  0  0  0  0
 19 36  1  0  0  0  0
 19 37  1  0  0  0  0
M  END
>  <DRUGBANK_ID>
DB07306

>  <COMMON_NAME>
ETHYL 4-[(4-CHLOROPYRIDIN-2-YL)AMINO]PIPERIDINE-1-CARBOXYLATE

$$$$
