BFU
 OpenBabel10282417163D

 43 45  0  0  0  0  0  0  0  0999 V2000
    2.6880   -5.7381   -4.2579 Br  0  0  0  0  0  0  0  0  0  0  0  0
    3.0332   -5.7156   -2.4063 C   0  0  0  0  0  0  0  0  0  0  0  0
    3.6794   -4.6525   -1.8368 C   0  0  0  0  0  0  0  0  0  0  0  0
    3.8467   -4.5082   -0.4900 N   0  0  0  0  0  0  0  0  0  0  0  0
    3.1059   -5.2555    0.3476 C   0  0  0  0  0  0  0  0  0  0  0  0
    2.5430   -6.4296   -0.1372 C   0  0  0  0  0  0  0  0  0  0  0  0
    2.5441   -6.6737   -1.5324 C   0  0  0  0  0  0  0  0  0  0  0  0
    2.7750   -4.7882    1.6498 N   0  0  0  0  0  0  0  0  0  0  0  0
    2.7668   -3.5347    2.2170 C   0  0  0  0  0  0  0  0  0  0  0  0
    2.7251   -3.4319    3.4494 O   0  0  0  0  0  0  0  0  0  0  0  0
    2.6792   -2.3851    1.4743 N   0  0  0  0  0  0  0  0  0  0  0  0
    2.7840   -2.3259    0.0665 C   0  0  1  0  0  0  0  0  0  0  0  0
    1.6149   -3.0458   -0.6466 C   0  0  0  0  0  0  0  0  0  0  0  0
    2.1065   -1.7384   -1.1106 C   0  0  1  0  0  0  0  0  0  0  0  0
    1.0726   -0.7271   -1.2576 C   0  0  0  0  0  0  0  0  0  0  0  0
   -0.1415   -1.0377   -1.8759 C   0  0  0  0  0  0  0  0  0  0  0  0
   -0.3481   -2.2711   -2.3666 F   0  0  0  0  0  0  0  0  0  0  0  0
   -1.1150   -0.0850   -2.0323 C   0  0  0  0  0  0  0  0  0  0  0  0
   -0.8649    1.1982   -1.5464 C   0  0  0  0  0  0  0  0  0  0  0  0
    0.3811    1.5490   -0.9661 C   0  0  0  0  0  0  0  0  0  0  0  0
    1.3724    0.5787   -0.9032 C   0  0  0  0  0  0  0  0  0  0  0  0
    2.6961    0.6996   -0.5727 O   0  0  0  0  0  0  0  0  0  0  0  0
    0.5383    2.9257   -0.4318 C   0  0  0  0  0  0  0  0  0  0  0  0
   -0.3802    3.7453   -0.6120 O   0  0  0  0  0  0  0  0  0  0  0  0
    1.7923    3.3389    0.3037 C   0  0  0  0  0  0  0  0  0  0  0  0
    2.0350    2.5427    1.5866 C   0  0  0  0  0  0  0  0  0  0  0  0
    3.8464   -2.3694   -0.1692 H   0  0  0  0  0  0  0  0  0  0  0  0
    2.8241   -1.6831   -1.9325 H   0  0  0  0  0  0  0  0  0  0  0  0
    3.8459   -3.7382   -2.4129 H   0  0  0  0  0  0  0  0  0  0  0  0
    2.0280   -7.1211    0.5187 H   0  0  0  0  0  0  0  0  0  0  0  0
    2.0852   -7.5704   -1.9327 H   0  0  0  0  0  0  0  0  0  0  0  0
    2.4435   -5.4774    2.3097 H   0  0  0  0  0  0  0  0  0  0  0  0
    2.8956   -1.5499    2.0076 H   0  0  0  0  0  0  0  0  0  0  0  0
    1.5808   -3.7474   -1.4611 H   0  0  0  0  0  0  0  0  0  0  0  0
    0.7380   -3.2097   -0.0285 H   0  0  0  0  0  0  0  0  0  0  0  0
   -2.0425   -0.3629   -2.5194 H   0  0  0  0  0  0  0  0  0  0  0  0
   -1.6566    1.9377   -1.6436 H   0  0  0  0  0  0  0  0  0  0  0  0
    3.0087    1.5799   -0.3623 H   0  0  0  0  0  0  0  0  0  0  0  0
    2.6285    3.3159   -0.4068 H   0  0  0  0  0  0  0  0  0  0  0  0
    1.7088    4.3974    0.5671 H   0  0  0  0  0  0  0  0  0  0  0  0
    2.0196    1.4550    1.4748 H   0  0  0  0  0  0  0  0  0  0  0  0
    3.0113    2.7955    2.0102 H   0  0  0  0  0  0  0  0  0  0  0  0
    1.2512    2.7528    2.3162 H   0  0  0  0  0  0  0  0  0  0  0  0
  1  2  1  0  0  0  0
  2  3  2  0  0  0  0
  2  7  1  0  0  0  0
  3  4  1  0  0  0  0
  3 29  1  0  0  0  0
  4  5  2  0  0  0  0
  5  6  1  0  0  0  0
  5  8  1  0  0  0  0
  6  7  2  0  0  0  0
  6 30  1  0  0  0  0
  7 31  1  0  0  0  0
  8  9  1  0  0  0  0
  8 32  1  0  0  0  0
  9 10  2  0  0  0  0
  9 11  1  0  0  0  0
 11 33  1  0  0  0  0
 12 13  1  0  0  0  0
 12 14  1  0  0  0  0
 12 27  1  6  0  0  0
 12 11  1  0  0  0  0
 13 14  1  0  0  0  0
 13 34  1  0  0  0  0
 13 35  1  0  0  0  0
 14 15  1  0  0  0  0
 14 28  1  6  0  0  0
 15 16  2  0  0  0  0
 15 21  1  0  0  0  0
 16 17  1  0  0  0  0
 16 18  1  0  0  0  0
 18 19  2  0  0  0  0
 18 36  1  0  0  0  0
 19 20  1  0  0  0  0
 19 37  1  0  0  0  0
 20 21  2  0  0  0  0
 20 23  1  0  0  0  0
 21 22  1  0  0  0  0
 22 38  1  0  0  0  0
 23 24  2  0  0  0  0
 23 25  1  0  0  0  0
 25 26  1  0  0  0  0
 25 39  1  0  0  0  0
 25 40  1  0  0  0  0
 26 41  1  0  0  0  0
 26 42  1  0  0  0  0
 26 43  1  0  0  0  0
M  END
>  <DRUGBANK_ID>
DB07451

>  <COMMON_NAME>
1-(5-BROMO-PYRIDIN-2-YL)-3-[2-(6-FLUORO-2-HYDROXY-3-PROPIONYL-PHENYL)-CYCLOPROPYL]-UREA

$$$$
