
 OpenBabel10282417133D

 50 50  0  0  0  0  0  0  0  0999 V2000
    0.3139    0.7808    1.2184 I   0  0  0  0  0  0  0  0  0  0  0  0
   -0.6095    5.5448   -0.4076 S   0  0  0  0  0  0  0  0  0  0  0  0
   -2.9610    1.6978    1.4121 O   0  0  0  0  0  0  0  0  0  0  0  0
   -1.0154    6.1369    3.6436 O   0  0  0  0  0  0  0  0  0  0  0  0
   -2.9650    6.2635    4.7405 O   0  0  0  0  0  0  0  0  0  0  0  0
   -3.8145    4.7769    6.0562 O   0  0  0  0  0  0  0  0  0  0  0  0
   -5.4340    5.9241   -0.0686 O   0  0  0  0  0  0  0  0  0  0  0  0
   -5.0196    3.9466    0.9518 O   0  0  0  0  0  0  0  0  0  0  0  0
   -1.5606    3.3166    1.7967 N   0  0  0  0  0  0  0  0  0  0  0  0
   -2.8658    5.4708    2.4457 N   0  0  0  0  0  0  0  0  0  0  0  0
   -0.5057    3.9044    5.8621 N   0  0  0  0  0  0  0  0  0  0  0  0
   -0.6321    4.4049    2.1891 C   0  0  1  0  0  0  0  0  0  0  0  0
   -2.3718    2.4306    4.8455 C   0  0  0  0  0  0  0  0  0  0  0  0
   -3.2886    2.5504    3.6160 C   0  0  0  0  0  0  0  0  0  0  0  0
    0.0640    5.4228    1.2659 C   0  0  0  0  0  0  0  0  0  0  0  0
   -1.7142    3.8143    5.0295 C   0  0  1  0  0  0  0  0  0  0  0  0
   -2.5713    2.5165    2.2568 C   0  0  0  0  0  0  0  0  0  0  0  0
   -1.5189    5.4095    2.8233 C   0  0  0  0  0  0  0  0  0  0  0  0
   -0.6890    3.7296   -0.8730 C   0  0  0  0  0  0  0  0  0  0  0  0
   -2.8514    5.0285    5.3199 C   0  0  0  0  0  0  0  0  0  0  0  0
    0.7180    3.2129   -0.7822 C   0  0  0  0  0  0  0  0  0  0  0  0
   -3.3520    5.7008    1.1077 C   0  0  0  0  0  0  0  0  0  0  0  0
    1.2764    2.2006    0.0183 C   0  0  0  0  0  0  0  0  0  0  0  0
    1.5891    3.9868   -1.5788 C   0  0  0  0  0  0  0  0  0  0  0  0
    2.6629    2.0154    0.0103 C   0  0  0  0  0  0  0  0  0  0  0  0
    2.9478    3.7931   -1.5869 C   0  0  0  0  0  0  0  0  0  0  0  0
   -4.6767    5.1275    0.6953 C   0  0  0  0  0  0  0  0  0  0  0  0
    3.4838    2.7930   -0.8011 C   0  0  0  0  0  0  0  0  0  0  0  0
   -1.1080    2.7137    1.1425 H   0  0  0  0  0  0  0  0  0  0  0  0
   -3.5542    5.7325    3.1473 H   0  0  0  0  0  0  0  0  0  0  0  0
    0.2753    3.4007    5.4225 H   0  0  0  0  0  0  0  0  0  0  0  0
   -0.6681    3.4500    6.7516 H   0  0  0  0  0  0  0  0  0  0  0  0
   -2.3211    6.6712    4.0988 H   0  0  0  0  0  0  0  0  0  0  0  0
   -5.0795    6.8247   -0.2213 H   0  0  0  0  0  0  0  0  0  0  0  0
    0.1390    3.9904    2.8618 H   0  0  0  0  0  0  0  0  0  0  0  0
   -2.8989    2.1548    5.7622 H   0  0  0  0  0  0  0  0  0  0  0  0
   -1.6567    1.6120    4.6400 H   0  0  0  0  0  0  0  0  0  0  0  0
   -3.9177    3.4379    3.6671 H   0  0  0  0  0  0  0  0  0  0  0  0
   -3.9950    1.7048    3.6295 H   0  0  0  0  0  0  0  0  0  0  0  0
    1.1518    5.3180    1.3308 H   0  0  0  0  0  0  0  0  0  0  0  0
   -0.0480    6.4562    1.6628 H   0  0  0  0  0  0  0  0  0  0  0  0
   -1.2253    3.7557    4.0959 H   0  0  0  0  0  0  0  0  0  0  0  0
   -1.0422    3.7461   -1.9035 H   0  0  0  0  0  0  0  0  0  0  0  0
   -1.4642    3.0939   -0.4468 H   0  0  0  0  0  0  0  0  0  0  0  0
   -3.3082    6.7845    0.9606 H   0  0  0  0  0  0  0  0  0  0  0  0
   -2.7064    5.1963    0.4256 H   0  0  0  0  0  0  0  0  0  0  0  0
    1.1864    4.8132   -2.1690 H   0  0  0  0  0  0  0  0  0  0  0  0
    3.1242    1.2376    0.6162 H   0  0  0  0  0  0  0  0  0  0  0  0
    3.5577    4.4299   -2.2143 H   0  0  0  0  0  0  0  0  0  0  0  0
    4.5474    2.5994   -0.8368 H   0  0  0  0  0  0  0  0  0  0  0  0
  1 23  1  0  0  0  0
  2 15  1  0  0  0  0
  2 19  1  0  0  0  0
  3 17  2  0  0  0  0
  4 18  2  0  0  0  0
  5 20  1  0  0  0  0
  5 33  1  0  0  0  0
  6 20  2  0  0  0  0
  7 27  1  0  0  0  0
  7 34  1  0  0  0  0
  8 27  2  0  0  0  0
  9 17  1  0  0  0  0
  9 29  1  0  0  0  0
 10 18  1  0  0  0  0
 10 22  1  0  0  0  0
 10 30  1  0  0  0  0
 11 31  1  0  0  0  0
 11 32  1  0  0  0  0
 12 18  1  0  0  0  0
 12 35  1  1  0  0  0
 12 15  1  0  0  0  0
 12  9  1  0  0  0  0
 13 14  1  0  0  0  0
 13 36  1  0  0  0  0
 13 37  1  0  0  0  0
 14 17  1  0  0  0  0
 14 38  1  0  0  0  0
 14 39  1  0  0  0  0
 15 40  1  0  0  0  0
 15 41  1  0  0  0  0
 16 20  1  0  0  0  0
 16 42  1  6  0  0  0
 16 13  1  0  0  0  0
 16 11  1  0  0  0  0
 19 21  1  0  0  0  0
 19 43  1  0  0  0  0
 19 44  1  0  0  0  0
 21 23  1  0  0  0  0
 21 24  2  0  0  0  0
 22 27  1  0  0  0  0
 22 45  1  0  0  0  0
 22 46  1  0  0  0  0
 23 25  2  0  0  0  0
 24 26  1  0  0  0  0
 24 47  1  0  0  0  0
 25 28  1  0  0  0  0
 25 48  1  0  0  0  0
 26 28  2  0  0  0  0
 26 49  1  0  0  0  0
 28 50  1  0  0  0  0
M  END
>  <DRUGBANK_ID>
DB03597

>  <SECONDARY_ACCESSION_NUMBERS>
EXPT01826

>  <COMMON_NAME>
gamma-Glutamyl[S-(2-iodobenzyl)cysteinyl]glycine

$$$$
