
 OpenBabel10282417143D

 28 30  0  0  1  0  0  0  0  0999 V2000
    0.7846    1.3805   -0.1074 N   0  0  0  0  0  0  0  0  0  0  0  0
    0.5995   -0.9790   -0.2266 C   0  0  3  0  0  0  0  0  0  0  0  0
   -0.7462   -0.2981   -0.3910 C   0  0  3  0  0  0  0  0  0  0  0  0
   -0.6586   -1.4634    0.5161 C   0  0  0  0  0  0  0  0  0  0  0  0
    1.4840    0.1470    0.2950 C   0  0  0  0  0  0  0  0  0  0  0  0
   -0.6293    1.1046    0.1670 C   0  0  0  0  0  0  0  0  0  0  0  0
    1.4343   -2.1384   -0.8169 C   0  0  0  0  0  0  0  0  0  0  0  0
    2.4374   -2.7317    0.0105 C   0  0  0  0  0  0  0  0  0  0  0  0
    1.4480   -2.5743   -2.1420 C   0  0  0  0  0  0  0  0  0  0  0  0
    3.4126   -3.6346   -0.4658 C   0  0  0  0  0  0  0  0  0  0  0  0
    2.4173   -3.4986   -2.6272 C   0  0  0  0  0  0  0  0  0  0  0  0
    3.4218   -4.0254   -1.7938 C   0  0  0  0  0  0  0  0  0  0  0  0
    4.4745   -4.9609   -2.3351 C   0  0  0  0  0  0  0  0  0  0  0  0
    0.8772    1.4532   -1.1238 H   0  0  0  0  0  0  0  0  0  0  0  0
   -1.5254   -0.3850   -1.1308 H   0  0  0  0  0  0  0  0  0  0  0  0
   -1.1932   -2.3356    0.1439 H   0  0  0  0  0  0  0  0  0  0  0  0
   -0.7550   -1.3120    1.5806 H   0  0  0  0  0  0  0  0  0  0  0  0
    2.4838    0.1382   -0.1500 H   0  0  0  0  0  0  0  0  0  0  0  0
    1.5741    0.0913    1.3846 H   0  0  0  0  0  0  0  0  0  0  0  0
   -0.8020    1.1508    1.2515 H   0  0  0  0  0  0  0  0  0  0  0  0
   -1.2692    1.8523   -0.3113 H   0  0  0  0  0  0  0  0  0  0  0  0
    2.5091   -2.4320    1.0534 H   0  0  0  0  0  0  0  0  0  0  0  0
    0.7271   -2.1718   -2.8520 H   0  0  0  0  0  0  0  0  0  0  0  0
    4.1816   -3.9969    0.2209 H   0  0  0  0  0  0  0  0  0  0  0  0
    2.4044   -3.7828   -3.6747 H   0  0  0  0  0  0  0  0  0  0  0  0
    4.0163   -5.8659   -2.7472 H   0  0  0  0  0  0  0  0  0  0  0  0
    5.0630   -4.4749   -3.1214 H   0  0  0  0  0  0  0  0  0  0  0  0
    5.1810   -5.2813   -1.5576 H   0  0  0  0  0  0  0  0  0  0  0  0
  1  5  1  0  0  0  0
  1  6  1  0  0  0  0
  1 14  1  0  0  0  0
  2  3  1  0  0  0  0
  2  4  1  0  0  0  0
  2  5  1  0  0  0  0
  2  7  1  0  0  0  0
  3  4  1  0  0  0  0
  3  6  1  0  0  0  0
  3 15  1  0  0  0  0
  4 16  1  0  0  0  0
  4 17  1  0  0  0  0
  5 18  1  0  0  0  0
  5 19  1  0  0  0  0
  6 20  1  0  0  0  0
  6 21  1  0  0  0  0
  7  8  2  0  0  0  0
  7  9  1  0  0  0  0
  8 10  1  0  0  0  0
  8 22  1  0  0  0  0
  9 11  2  0  0  0  0
  9 23  1  0  0  0  0
 10 12  2  0  0  0  0
 10 24  1  0  0  0  0
 11 12  1  0  0  0  0
 11 25  1  0  0  0  0
 12 13  1  0  0  0  0
 13 26  1  0  0  0  0
 13 27  1  0  0  0  0
 13 28  1  0  0  0  0
M  END
>  <DRUGBANK_ID>
DB04889

>  <COMMON_NAME>
Bicifadine

>  <CAS_NUMBER>
71195-57-8

>  <UNII>
B0SV3N7J3H

>  <SYNONYMS>
Bicifadine

$$$$
