
 OpenBabel10282417173D

 18 18  0  0  0  0  0  0  0  0999 V2000
    1.3860   -0.0239    0.2439 N   0  0  0  0  0  0  0  0  0  0  0  0
    0.6748   -1.1741   -0.3193 C   0  0  0  0  0  0  0  0  0  0  0  0
   -0.7769   -1.2337    0.1688 C   0  0  0  0  0  0  0  0  0  0  0  0
   -1.4684    0.0900    0.0250 C   0  0  0  0  0  0  0  0  0  0  0  0
   -0.7755    1.2415   -0.0913 C   0  0  0  0  0  0  0  0  0  0  0  0
    0.7266    1.2543   -0.0593 C   0  0  0  0  0  0  0  0  0  0  0  0
   -1.5651    2.4925   -0.2542 C   0  0  0  0  0  0  0  0  0  0  0  0
   -0.8562    3.6324   -0.3701 O   0  0  0  0  0  0  0  0  0  0  0  0
   -2.7883    2.5085   -0.3000 O   0  0  0  0  0  0  0  0  0  0  0  0
    2.3378   -0.0087   -0.1212 H   0  0  0  0  0  0  0  0  0  0  0  0
    0.7047   -1.1383   -1.4158 H   0  0  0  0  0  0  0  0  0  0  0  0
    1.1893   -2.0943   -0.0187 H   0  0  0  0  0  0  0  0  0  0  0  0
   -1.3172   -1.9954   -0.4045 H   0  0  0  0  0  0  0  0  0  0  0  0
   -0.8107   -1.5351    1.2230 H   0  0  0  0  0  0  0  0  0  0  0  0
   -2.5561    0.0816    0.0159 H   0  0  0  0  0  0  0  0  0  0  0  0
    1.0573    1.9583    0.7132 H   0  0  0  0  0  0  0  0  0  0  0  0
    1.0979    1.6239   -1.0223 H   0  0  0  0  0  0  0  0  0  0  0  0
    0.1117    3.5920   -0.3151 H   0  0  0  0  0  0  0  0  0  0  0  0
  1  2  1  0  0  0  0
  1  6  1  0  0  0  0
  1 10  1  0  0  0  0
  2  3  1  0  0  0  0
  2 11  1  0  0  0  0
  2 12  1  0  0  0  0
  3  4  1  0  0  0  0
  3 13  1  0  0  0  0
  3 14  1  0  0  0  0
  4  5  2  0  0  0  0
  4 15  1  0  0  0  0
  5  6  1  0  0  0  0
  5  7  1  0  0  0  0
  6 16  1  0  0  0  0
  6 17  1  0  0  0  0
  7  8  1  0  0  0  0
  7  9  2  0  0  0  0
  8 18  1  0  0  0  0
M  END
>  <DRUGBANK_ID>
DB08848

>  <COMMON_NAME>
Guvacine

>  <CAS_NUMBER>
498-96-4

>  <UNII>
41538P325K

$$$$
