
 OpenBabel10282417153D

 35 36  0  0  0  0  0  0  0  0999 V2000
    1.1857   -0.9759    0.0633 C   0  0  0  0  0  0  0  0  0  0  0  0
    1.4406    0.3178   -0.0331 N   0  0  0  0  0  0  0  0  0  0  0  0
    0.4259    1.0544   -0.4147 C   0  0  0  0  0  0  0  0  0  0  0  0
   -0.8590    0.6316   -0.5475 N   0  0  0  0  0  0  0  0  0  0  0  0
   -1.1274   -0.6261   -0.2047 C   0  0  0  0  0  0  0  0  0  0  0  0
   -2.4825   -1.0802   -0.2059 N   0  0  0  0  0  0  0  0  0  0  0  0
   -3.9410   -0.2108   -0.1241 S   0  0  0  0  0  0  0  0  0  0  0  0
   -4.6099   -0.4911   -1.3654 O   0  0  0  0  0  0  0  0  0  0  0  0
   -4.5739   -0.6498    1.1242 O   0  0  0  0  0  0  0  0  0  0  0  0
   -3.7873    1.5599    0.0614 C   0  0  0  0  0  0  0  0  0  0  0  0
   -4.7884    2.4810   -0.2723 C   0  0  0  0  0  0  0  0  0  0  0  0
   -4.5417    3.8961   -0.2165 C   0  0  0  0  0  0  0  0  0  0  0  0
   -3.3249    4.3937    0.2062 C   0  0  0  0  0  0  0  0  0  0  0  0
   -2.8807    5.7060    0.2025 N   0  0  0  0  0  0  0  0  0  0  0  0
   -2.5847    3.4812    0.9117 C   0  0  0  0  0  0  0  0  0  0  0  0
   -2.7516    2.0909    0.7799 C   0  0  0  0  0  0  0  0  0  0  0  0
   -0.0950   -1.5142    0.0166 C   0  0  0  0  0  0  0  0  0  0  0  0
    2.3563   -1.6546    0.1217 O   0  0  0  0  0  0  0  0  0  0  0  0
    2.2432   -3.0532    0.0570 C   0  0  0  0  0  0  0  0  0  0  0  0
    0.8091    2.3400   -0.7632 O   0  0  0  0  0  0  0  0  0  0  0  0
   -0.2470    3.1913   -0.4426 C   0  0  0  0  0  0  0  0  0  0  0  0
   -2.6455   -2.0667    0.0069 H   0  0  0  0  0  0  0  0  0  0  0  0
   -5.7969    2.1280   -0.4744 H   0  0  0  0  0  0  0  0  0  0  0  0
   -5.3339    4.5987   -0.4494 H   0  0  0  0  0  0  0  0  0  0  0  0
   -1.8687    5.8484    0.1466 H   0  0  0  0  0  0  0  0  0  0  0  0
   -3.4155    6.4482   -0.2224 H   0  0  0  0  0  0  0  0  0  0  0  0
   -1.7613    3.8820    1.4958 H   0  0  0  0  0  0  0  0  0  0  0  0
   -2.0054    1.4416    1.2114 H   0  0  0  0  0  0  0  0  0  0  0  0
   -0.2698   -2.5758    0.1115 H   0  0  0  0  0  0  0  0  0  0  0  0
    1.7219   -3.4024    0.9503 H   0  0  0  0  0  0  0  0  0  0  0  0
    1.7340   -3.3650   -0.8612 H   0  0  0  0  0  0  0  0  0  0  0  0
    3.2527   -3.4644    0.0514 H   0  0  0  0  0  0  0  0  0  0  0  0
   -1.0713    3.0363   -1.1516 H   0  0  0  0  0  0  0  0  0  0  0  0
   -0.4473    2.9436    0.5960 H   0  0  0  0  0  0  0  0  0  0  0  0
   -0.0257    4.2619   -0.4219 H   0  0  0  0  0  0  0  0  0  0  0  0
  1  2  2  0  0  0  0
  1 17  1  0  0  0  0
  2  3  1  0  0  0  0
  3 20  1  0  0  0  0
  3  4  2  0  0  0  0
  4  5  1  0  0  0  0
  5  6  1  0  0  0  0
  5 17  2  0  0  0  0
  6  7  1  0  0  0  0
  6 22  1  0  0  0  0
  7  8  2  0  0  0  0
  7  9  2  0  0  0  0
  7 10  1  0  0  0  0
 10 11  2  0  0  0  0
 10 16  1  0  0  0  0
 11 12  1  0  0  0  0
 11 23  1  0  0  0  0
 12 13  2  0  0  0  0
 12 24  1  0  0  0  0
 13 14  1  0  0  0  0
 13 15  1  0  0  0  0
 14 25  1  0  0  0  0
 14 26  1  0  0  0  0
 15 16  2  0  0  0  0
 15 27  1  0  0  0  0
 16 28  1  0  0  0  0
 17 29  1  0  0  0  0
 18  1  1  0  0  0  0
 18 19  1  0  0  0  0
 19 30  1  0  0  0  0
 19 31  1  0  0  0  0
 19 32  1  0  0  0  0
 20 21  1  0  0  0  0
 21 33  1  0  0  0  0
 21 34  1  0  0  0  0
 21 35  1  0  0  0  0
M  END
>  <DRUGBANK_ID>
DB06150

>  <COMMON_NAME>
Sulfadimethoxine

>  <CAS_NUMBER>
122-11-2

>  <UNII>
30CPC5LDEX

>  <SYNONYMS>
2,4-dimethoxy-6-sulfanilamido-1,3-diazine; 2,6-dimethoxy-4-(p-aminobenzenesulfonamido)pyrimidine; 2,6-dimethoxy-4-sulfanilamidopyrimidine; 4-amino-N-(2,6-dimethoxy-4-pyrimidinyl)benzenesulfonamide; 6-sulfanilamido-2,4-dimethoxypyrimidine; N(1)-(2,6-Dimethoxy-4-pyrimidinyl)sulfanilamide; Sulfadimethoxine; Sulfadimethoxinum; Sulfadimethoxydiazine; Sulfadimetoxina; Sulphadimethoxine

$$$$
