909
 OpenBabel10282417113D

 22 23  0  0  0  0  0  0  0  0999 V2000
    1.0101    0.0582    0.0500 S   0  0  0  0  0  0  0  0  0  0  0  0
    3.5540    3.0956   -1.6713 O   0  0  0  0  0  0  0  0  0  0  0  0
    0.4974    1.2204    0.7323 O   0  0  0  0  0  0  0  0  0  0  0  0
    0.5239   -0.3452   -1.2534 O   0  0  0  0  0  0  0  0  0  0  0  0
    3.0989    2.3868   -0.5744 N   0  0  0  0  0  0  0  0  0  0  0  0
    0.5947   -1.2125    1.0831 N   0  0  0  0  0  0  0  0  0  0  0  0
    2.8206    0.0389    0.0629 C   0  0  0  0  0  0  0  0  0  0  0  0
    3.3285    1.0944   -0.8491 C   0  0  0  0  0  0  0  0  0  0  0  0
    4.0448    0.9486   -2.0662 C   0  0  0  0  0  0  0  0  0  0  0  0
    4.1175    2.2394   -2.5616 C   0  0  0  0  0  0  0  0  0  0  0  0
    4.6082   -0.0946   -2.8204 C   0  0  0  0  0  0  0  0  0  0  0  0
    4.6820    2.5846   -3.7859 C   0  0  0  0  0  0  0  0  0  0  0  0
    5.2029    0.2201   -4.0523 C   0  0  0  0  0  0  0  0  0  0  0  0
    5.2269    1.5342   -4.5306 C   0  0  0  0  0  0  0  0  0  0  0  0
    0.8308   -0.9953    2.0530 H   0  0  0  0  0  0  0  0  0  0  0  0
   -0.4237   -1.3240    1.0114 H   0  0  0  0  0  0  0  0  0  0  0  0
    3.1546    0.2038    1.0919 H   0  0  0  0  0  0  0  0  0  0  0  0
    3.1377   -0.9566   -0.2646 H   0  0  0  0  0  0  0  0  0  0  0  0
    4.5921   -1.1214   -2.4686 H   0  0  0  0  0  0  0  0  0  0  0  0
    4.6914    3.6091   -4.1378 H   0  0  0  0  0  0  0  0  0  0  0  0
    5.6448   -0.5745   -4.6506 H   0  0  0  0  0  0  0  0  0  0  0  0
    5.6773    1.7451   -5.4987 H   0  0  0  0  0  0  0  0  0  0  0  0
  1  3  2  0  0  0  0
  1  4  2  0  0  0  0
  1  6  1  0  0  0  0
  1  7  1  0  0  0  0
  2  5  1  0  0  0  0
  2 10  1  0  0  0  0
  5  8  2  0  0  0  0
  6 15  1  0  0  0  0
  6 16  1  0  0  0  0
  7  8  1  0  0  0  0
  7 17  1  0  0  0  0
  7 18  1  0  0  0  0
  8  9  1  0  0  0  0
  9 10  1  0  0  0  0
  9 11  2  0  0  0  0
 10 12  2  0  0  0  0
 11 13  1  0  0  0  0
 11 19  1  0  0  0  0
 12 14  1  0  0  0  0
 12 20  1  0  0  0  0
 13 14  2  0  0  0  0
 13 21  1  0  0  0  0
 14 22  1  0  0  0  0
M  END
>  <DRUGBANK_ID>
DB00909

>  <SECONDARY_ACCESSION_NUMBERS>
APRD00004

>  <COMMON_NAME>
Zonisamide

>  <CAS_NUMBER>
68291-97-4

>  <UNII>
459384H98V

>  <SYNONYMS>
1,2-Benzisoxazole-3-methanesulfonamide; 3-(Sulfamoylmethyl)-1,2-benzisoxazole; Benzo[d]isoxazol-3-yl-methanesulfonamide; Zonisamida; Zonisamide; Zonisamidum

$$$$
