1083
 OpenBabel10282417113D

 88 88  0  0  1  0  0  0  0  0999 V2000
    0.2404   -0.9538   -0.3901 O   0  0  0  0  0  0  0  0  0  0  0  0
    4.3531    0.6140    0.5216 O   0  0  0  0  0  0  0  0  0  0  0  0
   -1.7805    0.0671    0.0816 O   0  0  0  0  0  0  0  0  0  0  0  0
    2.4638    0.9045    1.8331 O   0  0  0  0  0  0  0  0  0  0  0  0
    6.8314   -1.7920    3.4209 O   0  0  0  0  0  0  0  0  0  0  0  0
    5.0078   -0.4956    3.1310 N   0  0  0  0  0  0  0  0  0  0  0  0
    1.4256   -0.1858   -0.0451 C   0  0  2  0  0  0  0  0  0  0  0  0
    0.5392    1.1207   -0.0651 C   0  0  2  0  0  0  0  0  0  0  0  0
    2.5618   -0.2971   -1.0394 C   0  0  0  0  0  0  0  0  0  0  0  0
    0.5502    2.2766    0.9523 C   0  0  0  0  0  0  0  0  0  0  0  0
    3.6772    0.7389   -0.7842 C   0  0  2  0  0  0  0  0  0  0  0  0
   -0.5843    0.0732   -0.0119 C   0  0  0  0  0  0  0  0  0  0  0  0
    4.7230    0.6486   -1.9274 C   0  0  0  0  0  0  0  0  0  0  0  0
    1.7729    3.1977    0.7313 C   0  0  0  0  0  0  0  0  0  0  0  0
    4.1020    0.7999   -3.3361 C   0  0  0  0  0  0  0  0  0  0  0  0
    1.8396    3.8112   -0.6490 C   0  0  0  0  0  0  0  0  0  0  0  0
    3.4184    2.1550   -3.5243 C   0  0  0  0  0  0  0  0  0  0  0  0
    4.4193    3.2994   -3.3592 C   0  0  0  0  0  0  0  0  0  0  0  0
    0.7116    4.7780   -0.8612 C   0  0  0  0  0  0  0  0  0  0  0  0
    5.4963    3.1831   -4.4412 C   0  0  0  0  0  0  0  0  0  0  0  0
    3.6686    0.7636    1.6886 C   0  0  0  0  0  0  0  0  0  0  0  0
    4.3912    0.7883    2.9788 C   0  0  2  0  0  0  0  0  0  0  0  0
    4.8540    3.2745   -5.8303 C   0  0  0  0  0  0  0  0  0  0  0  0
    0.7955    5.9029    0.1588 C   0  0  0  0  0  0  0  0  0  0  0  0
    5.2339    2.0427    3.0985 C   0  0  0  0  0  0  0  0  0  0  0  0
    4.1454    4.6229   -5.9914 C   0  0  0  0  0  0  0  0  0  0  0  0
    4.4740    3.3737    2.9702 C   0  0  0  0  0  0  0  0  0  0  0  0
    5.1529    5.7679   -5.8407 C   0  0  0  0  0  0  0  0  0  0  0  0
    2.1131    6.6526    0.0210 C   0  0  0  0  0  0  0  0  0  0  0  0
    6.2412    5.6783   -6.9167 C   0  0  0  0  0  0  0  0  0  0  0  0
    3.3491    3.5226    3.9950 C   0  0  0  0  0  0  0  0  0  0  0  0
    5.4725    4.5154    3.0886 C   0  0  0  0  0  0  0  0  0  0  0  0
    5.6399    5.7390   -8.3216 C   0  0  0  0  0  0  0  0  0  0  0  0
    6.3305   -0.6841    3.3224 C   0  0  0  0  0  0  0  0  0  0  0  0
    4.8937    7.0481   -8.5216 C   0  0  0  0  0  0  0  0  0  0  0  0
    4.4303   -1.3277    3.0446 H   0  0  0  0  0  0  0  0  0  0  0  0
    1.7658   -0.6549    0.8790 H   0  0  0  0  0  0  0  0  0  0  0  0
    0.4849    1.5678   -1.0659 H   0  0  0  0  0  0  0  0  0  0  0  0
    3.0144   -1.2921   -0.9925 H   0  0  0  0  0  0  0  0  0  0  0  0
    2.1258   -0.1759   -2.0349 H   0  0  0  0  0  0  0  0  0  0  0  0
   -0.3582    2.8791    0.8608 H   0  0  0  0  0  0  0  0  0  0  0  0
    0.5226    1.9228    1.9908 H   0  0  0  0  0  0  0  0  0  0  0  0
    3.2924    1.7489   -0.8449 H   0  0  0  0  0  0  0  0  0  0  0  0
    5.4997    1.4106   -1.7743 H   0  0  0  0  0  0  0  0  0  0  0  0
    5.2607   -0.3012   -1.8697 H   0  0  0  0  0  0  0  0  0  0  0  0
    1.8508    3.9352    1.5353 H   0  0  0  0  0  0  0  0  0  0  0  0
    2.7134    2.6827    0.7916 H   0  0  0  0  0  0  0  0  0  0  0  0
    4.8705    0.6461   -4.1000 H   0  0  0  0  0  0  0  0  0  0  0  0
    3.3813    0.0074   -3.5496 H   0  0  0  0  0  0  0  0  0  0  0  0
    2.8300    4.2518   -0.8221 H   0  0  0  0  0  0  0  0  0  0  0  0
    1.7525    3.0396   -1.3969 H   0  0  0  0  0  0  0  0  0  0  0  0
    2.9093    2.1992   -4.4930 H   0  0  0  0  0  0  0  0  0  0  0  0
    2.5935    2.2588   -2.8346 H   0  0  0  0  0  0  0  0  0  0  0  0
    3.9011    4.2638   -3.4004 H   0  0  0  0  0  0  0  0  0  0  0  0
    4.8826    3.3029   -2.3690 H   0  0  0  0  0  0  0  0  0  0  0  0
    0.7600    5.1545   -1.8864 H   0  0  0  0  0  0  0  0  0  0  0  0
   -0.2398    4.2433   -0.7725 H   0  0  0  0  0  0  0  0  0  0  0  0
    6.2606    3.9502   -4.2900 H   0  0  0  0  0  0  0  0  0  0  0  0
    6.0577    2.2491   -4.3553 H   0  0  0  0  0  0  0  0  0  0  0  0
    3.6167    0.8039    3.7612 H   0  0  0  0  0  0  0  0  0  0  0  0
    5.6136    3.1140   -6.5999 H   0  0  0  0  0  0  0  0  0  0  0  0
    4.1435    2.4622   -6.0110 H   0  0  0  0  0  0  0  0  0  0  0  0
   -0.0548    6.5697    0.0172 H   0  0  0  0  0  0  0  0  0  0  0  0
    0.7015    5.5201    1.1819 H   0  0  0  0  0  0  0  0  0  0  0  0
    5.7235    2.0236    4.0769 H   0  0  0  0  0  0  0  0  0  0  0  0
    6.0080    2.0182    2.3232 H   0  0  0  0  0  0  0  0  0  0  0  0
    3.6272    4.6549   -6.9537 H   0  0  0  0  0  0  0  0  0  0  0  0
    3.3353    4.7484   -5.2657 H   0  0  0  0  0  0  0  0  0  0  0  0
    4.0630    3.4603    1.9669 H   0  0  0  0  0  0  0  0  0  0  0  0
    4.6301    6.7267   -5.8760 H   0  0  0  0  0  0  0  0  0  0  0  0
    5.6177    5.7678   -4.8492 H   0  0  0  0  0  0  0  0  0  0  0  0
    2.2110    7.0419   -0.9964 H   0  0  0  0  0  0  0  0  0  0  0  0
    2.1608    7.4738    0.7353 H   0  0  0  0  0  0  0  0  0  0  0  0
    2.9851    6.0175    0.2187 H   0  0  0  0  0  0  0  0  0  0  0  0
    6.9643    6.4869   -6.7753 H   0  0  0  0  0  0  0  0  0  0  0  0
    6.8226    4.7542   -6.8095 H   0  0  0  0  0  0  0  0  0  0  0  0
    3.7427    3.4473    5.0130 H   0  0  0  0  0  0  0  0  0  0  0  0
    2.8484    4.4910    3.8910 H   0  0  0  0  0  0  0  0  0  0  0  0
    2.5769    2.7556    3.8755 H   0  0  0  0  0  0  0  0  0  0  0  0
    6.2381    4.4220    2.3102 H   0  0  0  0  0  0  0  0  0  0  0  0
    4.9755    5.4805    2.9578 H   0  0  0  0  0  0  0  0  0  0  0  0
    5.9660    4.4954    4.0636 H   0  0  0  0  0  0  0  0  0  0  0  0
    6.4338    5.6356   -9.0662 H   0  0  0  0  0  0  0  0  0  0  0  0
    4.9610    4.8965   -8.5000 H   0  0  0  0  0  0  0  0  0  0  0  0
    6.9101    0.2457    3.3960 H   0  0  0  0  0  0  0  0  0  0  0  0
    5.5782    7.8893   -8.3792 H   0  0  0  0  0  0  0  0  0  0  0  0
    4.4601    7.0984   -9.5206 H   0  0  0  0  0  0  0  0  0  0  0  0
    4.0671    7.1639   -7.8130 H   0  0  0  0  0  0  0  0  0  0  0  0
  1  7  1  0  0  0  0
  1 12  1  0  0  0  0
  2 21  1  0  0  0  0
  3 12  2  0  0  0  0
  4 21  2  0  0  0  0
  5 34  2  0  0  0  0
  6 34  1  0  0  0  0
  6 36  1  0  0  0  0
  7  8  1  0  0  0  0
  7  9  1  0  0  0  0
  7 37  1  1  0  0  0
  8 10  1  0  0  0  0
  8 12  1  0  0  0  0
  8 38  1  6  0  0  0
  9 11  1  0  0  0  0
  9 39  1  0  0  0  0
  9 40  1  0  0  0  0
 10 14  1  0  0  0  0
 10 41  1  0  0  0  0
 10 42  1  0  0  0  0
 11  2  1  0  0  0  0
 11 13  1  0  0  0  0
 11 43  1  6  0  0  0
 13 15  1  0  0  0  0
 13 44  1  0  0  0  0
 13 45  1  0  0  0  0
 14 16  1  0  0  0  0
 14 46  1  0  0  0  0
 14 47  1  0  0  0  0
 15 17  1  0  0  0  0
 15 48  1  0  0  0  0
 15 49  1  0  0  0  0
 16 19  1  0  0  0  0
 16 50  1  0  0  0  0
 16 51  1  0  0  0  0
 17 18  1  0  0  0  0
 17 52  1  0  0  0  0
 17 53  1  0  0  0  0
 18 20  1  0  0  0  0
 18 54  1  0  0  0  0
 18 55  1  0  0  0  0
 19 24  1  0  0  0  0
 19 56  1  0  0  0  0
 19 57  1  0  0  0  0
 20 23  1  0  0  0  0
 20 58  1  0  0  0  0
 20 59  1  0  0  0  0
 21 22  1  0  0  0  0
 22  6  1  0  0  0  0
 22 25  1  0  0  0  0
 22 60  1  1  0  0  0
 23 26  1  0  0  0  0
 23 61  1  0  0  0  0
 23 62  1  0  0  0  0
 24 29  1  0  0  0  0
 24 63  1  0  0  0  0
 24 64  1  0  0  0  0
 25 27  1  0  0  0  0
 25 65  1  0  0  0  0
 25 66  1  0  0  0  0
 26 28  1  0  0  0  0
 26 67  1  0  0  0  0
 26 68  1  0  0  0  0
 27 31  1  0  0  0  0
 27 32  1  0  0  0  0
 27 69  1  0  0  0  0
 28 30  1  0  0  0  0
 28 70  1  0  0  0  0
 28 71  1  0  0  0  0
 29 72  1  0  0  0  0
 29 73  1  0  0  0  0
 29 74  1  0  0  0  0
 30 33  1  0  0  0  0
 30 75  1  0  0  0  0
 30 76  1  0  0  0  0
 31 77  1  0  0  0  0
 31 78  1  0  0  0  0
 31 79  1  0  0  0  0
 32 80  1  0  0  0  0
 32 81  1  0  0  0  0
 32 82  1  0  0  0  0
 33 35  1  0  0  0  0
 33 83  1  0  0  0  0
 33 84  1  0  0  0  0
 34 85  1  0  0  0  0
 35 86  1  0  0  0  0
 35 87  1  0  0  0  0
 35 88  1  0  0  0  0
M  END
>  <DRUGBANK_ID>
DB01083

>  <SECONDARY_ACCESSION_NUMBERS>
APRD00255

>  <COMMON_NAME>
Orlistat

>  <CAS_NUMBER>
96829-58-2

>  <UNII>
95M8R751W8

>  <SYNONYMS>
(-)-Tetrahydrolipstatin; Orlipastat; Orlipastatum; Orlistat; Tetrahydrolipstatin

$$$$
