
 OpenBabel10282417143D

 15 15  0  0  0  0  0  0  0  0999 V2000
    2.2510    0.0078    0.0094 O   0  0  0  0  0  0  0  0  0  0  0  0
    0.8883   -0.0213    0.0117 C   0  0  0  0  0  0  0  0  0  0  0  0
    0.1744   -1.2179    0.0104 C   0  0  0  0  0  0  0  0  0  0  0  0
   -1.2257   -1.1846   -0.0021 C   0  0  0  0  0  0  0  0  0  0  0  0
   -1.8910    0.0517   -0.0123 C   0  0  0  0  0  0  0  0  0  0  0  0
   -1.1650    1.2492    0.0001 C   0  0  0  0  0  0  0  0  0  0  0  0
    0.2298    1.2051    0.0133 C   0  0  0  0  0  0  0  0  0  0  0  0
   -3.3596    0.0955   -0.0398 N   0  3  0  0  0  0  0  0  0  0  0  0
   -3.9032    1.2104   -0.0513 O   0  5  0  0  0  0  0  0  0  0  0  0
   -3.9693   -0.9825   -0.0523 O   0  0  0  0  0  0  0  0  0  0  0  0
    2.5990   -0.8984   -0.0196 H   0  0  0  0  0  0  0  0  0  0  0  0
    0.6838   -2.1775    0.0191 H   0  0  0  0  0  0  0  0  0  0  0  0
   -1.7803   -2.1211   -0.0051 H   0  0  0  0  0  0  0  0  0  0  0  0
   -1.6634    2.2159   -0.0022 H   0  0  0  0  0  0  0  0  0  0  0  0
    0.8056    2.1269    0.0226 H   0  0  0  0  0  0  0  0  0  0  0  0
  1  2  1  0  0  0  0
  1 11  1  0  0  0  0
  2  3  2  0  0  0  0
  2  7  1  0  0  0  0
  3  4  1  0  0  0  0
  3 12  1  0  0  0  0
  4  5  2  0  0  0  0
  4 13  1  0  0  0  0
  5  6  1  0  0  0  0
  5  8  1  0  0  0  0
  6  7  2  0  0  0  0
  6 14  1  0  0  0  0
  7 15  1  0  0  0  0
  8  9  1  0  0  0  0
  8 10  2  0  0  0  0
M  CHG  2   8   1   9  -1
M  END
>  <DRUGBANK_ID>
DB04417

>  <SECONDARY_ACCESSION_NUMBERS>
EXPT02385

>  <COMMON_NAME>
P-Nitrophenol

>  <CAS_NUMBER>
100-02-7

>  <UNII>
Y92ZL45L4R

$$$$
