622
 OpenBabel10282417103D

 64 66  0  0  1  0  0  0  0  0999 V2000
    0.9294    0.0933   -0.1204 O   0  0  0  0  0  0  0  0  0  0  0  0
   -5.5608   -2.1025   -3.3287 O   0  0  0  0  0  0  0  0  0  0  0  0
    0.9843   -0.4362   -2.3196 O   0  0  0  0  0  0  0  0  0  0  0  0
   -3.8941   -3.4024   -2.7631 O   0  0  0  0  0  0  0  0  0  0  0  0
    2.5534   -4.1578   -4.8181 O   0  5  0  0  0  0  0  0  0  0  0  0
    2.5698   -3.6142   -2.6930 O   0  0  0  0  0  0  0  0  0  0  0  0
   -3.1081    0.7319   -0.5047 N   0  0  0  0  0  0  0  0  0  0  0  0
    2.3599   -0.1671    2.4599 N   0  0  0  0  0  0  0  0  0  0  0  0
    2.0114   -3.7105   -3.7966 N   0  3  0  0  0  0  0  0  0  0  0  0
   -1.9804   -1.5538   -1.6777 C   0  0  3  0  0  0  0  0  0  0  0  0
   -1.1293   -0.3421   -1.1290 C   0  0  0  0  0  0  0  0  0  0  0  0
   -3.5498   -1.1986   -1.8763 C   0  0  0  0  0  0  0  0  0  0  0  0
   -1.3026   -2.1722   -2.9072 C   0  0  0  0  0  0  0  0  0  0  0  0
   -1.7523    0.7264   -0.5882 C   0  0  0  0  0  0  0  0  0  0  0  0
   -3.9262   -0.0273   -1.2842 C   0  0  0  0  0  0  0  0  0  0  0  0
    0.3463   -0.2435   -1.2757 C   0  0  0  0  0  0  0  0  0  0  0  0
   -0.0602   -2.8219   -2.7712 C   0  0  0  0  0  0  0  0  0  0  0  0
   -1.8703   -2.1141   -4.1859 C   0  0  0  0  0  0  0  0  0  0  0  0
   -1.1749    2.0280   -0.1113 C   0  0  0  0  0  0  0  0  0  0  0  0
   -4.3824   -2.2737   -2.6450 C   0  0  0  0  0  0  0  0  0  0  0  0
   -5.2212    0.6606   -1.3531 C   0  0  0  0  0  0  0  0  0  0  0  0
    2.8254    0.5942    1.2780 C   0  0  0  0  0  0  0  0  0  0  0  0
    2.3648    0.0440   -0.0729 C   0  0  0  0  0  0  0  0  0  0  0  0
    0.6181   -3.2724   -3.9066 C   0  0  0  0  0  0  0  0  0  0  0  0
   -1.3088   -2.7956   -5.2554 C   0  0  0  0  0  0  0  0  0  0  0  0
    2.9000    0.4093    3.7046 C   0  0  0  0  0  0  0  0  0  0  0  0
   -0.0210   -3.2965   -5.1472 C   0  0  0  0  0  0  0  0  0  0  0  0
    2.4558    1.8298    3.9854 C   0  0  0  0  0  0  0  0  0  0  0  0
    0.8974   -0.2420    2.5437 C   0  0  0  0  0  0  0  0  0  0  0  0
    1.2983    2.0649    4.7403 C   0  0  0  0  0  0  0  0  0  0  0  0
    3.1452    2.9205    3.4356 C   0  0  0  0  0  0  0  0  0  0  0  0
   -6.5870   -1.1213   -3.1640 C   0  0  0  0  0  0  0  0  0  0  0  0
    0.8521    3.3643    4.9585 C   0  0  0  0  0  0  0  0  0  0  0  0
    2.7211    4.2210    3.6878 C   0  0  0  0  0  0  0  0  0  0  0  0
    1.5670    4.4408    4.4365 C   0  0  0  0  0  0  0  0  0  0  0  0
   -3.5228    1.5924   -0.1472 H   0  0  0  0  0  0  0  0  0  0  0  0
   -1.9766   -2.3334   -0.8943 H   0  0  0  0  0  0  0  0  0  0  0  0
    0.4347   -2.8566   -1.8002 H   0  0  0  0  0  0  0  0  0  0  0  0
   -2.8098   -1.6050   -4.3701 H   0  0  0  0  0  0  0  0  0  0  0  0
   -1.5287    2.8280   -0.7733 H   0  0  0  0  0  0  0  0  0  0  0  0
   -1.5486    2.2358    0.8985 H   0  0  0  0  0  0  0  0  0  0  0  0
   -0.0930    2.0820   -0.0923 H   0  0  0  0  0  0  0  0  0  0  0  0
   -5.8150    0.7566   -0.4466 H   0  0  0  0  0  0  0  0  0  0  0  0
   -5.2637    1.5263   -2.0217 H   0  0  0  0  0  0  0  0  0  0  0  0
   -5.7129   -0.0932   -1.8233 H   0  0  0  0  0  0  0  0  0  0  0  0
    3.9245    0.6199    1.2797 H   0  0  0  0  0  0  0  0  0  0  0  0
    2.4694    1.6289    1.3226 H   0  0  0  0  0  0  0  0  0  0  0  0
    2.7007   -0.9894   -0.1941 H   0  0  0  0  0  0  0  0  0  0  0  0
    2.7807    0.6757   -0.8667 H   0  0  0  0  0  0  0  0  0  0  0  0
   -1.8879   -2.9186   -6.1649 H   0  0  0  0  0  0  0  0  0  0  0  0
    2.6033   -0.2297    4.5482 H   0  0  0  0  0  0  0  0  0  0  0  0
    3.9968    0.3626    3.7029 H   0  0  0  0  0  0  0  0  0  0  0  0
    0.4634   -3.6914   -6.0333 H   0  0  0  0  0  0  0  0  0  0  0  0
    0.4333    0.7511    2.5119 H   0  0  0  0  0  0  0  0  0  0  0  0
    0.4661   -0.8479    1.7474 H   0  0  0  0  0  0  0  0  0  0  0  0
    0.5788   -0.7574    3.4538 H   0  0  0  0  0  0  0  0  0  0  0  0
    0.7225    1.2274    5.1288 H   0  0  0  0  0  0  0  0  0  0  0  0
    3.9939    2.7587    2.7738 H   0  0  0  0  0  0  0  0  0  0  0  0
   -6.9140   -1.1828   -2.1133 H   0  0  0  0  0  0  0  0  0  0  0  0
   -6.1779   -0.1765   -3.5510 H   0  0  0  0  0  0  0  0  0  0  0  0
   -7.5265   -1.2570   -3.6964 H   0  0  0  0  0  0  0  0  0  0  0  0
   -0.0484    3.5329    5.5413 H   0  0  0  0  0  0  0  0  0  0  0  0
    3.2933    5.0585    3.2996 H   0  0  0  0  0  0  0  0  0  0  0  0
    1.2216    5.4552    4.6091 H   0  0  0  0  0  0  0  0  0  0  0  0
  1 16  1  0  0  0  0
  1 23  1  0  0  0  0
  2 20  1  0  0  0  0
  2 32  1  0  0  0  0
  3 16  2  0  0  0  0
  4 20  2  0  0  0  0
  5  9  1  0  0  0  0
  6  9  2  0  0  0  0
  7 14  1  0  0  0  0
  7 15  1  0  0  0  0
  7 36  1  0  0  0  0
  8 22  1  0  0  0  0
  8 26  1  0  0  0  0
  8 29  1  0  0  0  0
  9 24  1  0  0  0  0
 10 11  1  0  0  0  0
 10 12  1  0  0  0  0
 10 13  1  0  0  0  0
 10 37  1  0  0  0  0
 11 14  2  0  0  0  0
 11 16  1  0  0  0  0
 12 15  2  0  0  0  0
 12 20  1  0  0  0  0
 13 17  2  0  0  0  0
 13 18  1  0  0  0  0
 14 19  1  0  0  0  0
 15 21  1  0  0  0  0
 17 24  1  0  0  0  0
 17 38  1  0  0  0  0
 18 25  2  0  0  0  0
 18 39  1  0  0  0  0
 19 40  1  0  0  0  0
 19 41  1  0  0  0  0
 19 42  1  0  0  0  0
 21 43  1  0  0  0  0
 21 44  1  0  0  0  0
 21 45  1  0  0  0  0
 22 23  1  0  0  0  0
 22 46  1  0  0  0  0
 22 47  1  0  0  0  0
 23 48  1  0  0  0  0
 23 49  1  0  0  0  0
 24 27  2  0  0  0  0
 25 27  1  0  0  0  0
 25 50  1  0  0  0  0
 26 28  1  0  0  0  0
 26 51  1  0  0  0  0
 26 52  1  0  0  0  0
 27 53  1  0  0  0  0
 28 30  2  0  0  0  0
 28 31  1  0  0  0  0
 29 54  1  0  0  0  0
 29 55  1  0  0  0  0
 29 56  1  0  0  0  0
 30 33  1  0  0  0  0
 30 57  1  0  0  0  0
 31 34  2  0  0  0  0
 31 58  1  0  0  0  0
 32 59  1  0  0  0  0
 32 60  1  0  0  0  0
 32 61  1  0  0  0  0
 33 35  2  0  0  0  0
 33 62  1  0  0  0  0
 34 35  1  0  0  0  0
 34 63  1  0  0  0  0
 35 64  1  0  0  0  0
M  CHG  2   5  -1   9   1
M  END
>  <DRUGBANK_ID>
DB00622

>  <SECONDARY_ACCESSION_NUMBERS>
APRD00088

>  <COMMON_NAME>
Nicardipine

>  <CAS_NUMBER>
55985-32-5

>  <UNII>
CZ5312222S

>  <SYNONYMS>
Nicardipine; Nicardipino; Nicardipinum

$$$$
