
 OpenBabel10282417153D

 50 51  0  0  0  0  0  0  0  0999 V2000
    1.0603   -0.0530    0.0098 C   0  0  0  0  0  0  0  0  0  0  0  0
    0.6468    1.3288    0.4818 C   0  0  0  0  0  0  0  0  0  0  0  0
    1.2029    2.3780   -0.4861 C   0  0  0  0  0  0  0  0  0  0  0  0
    0.6306    2.1837   -1.9014 C   0  0  0  0  0  0  0  0  0  0  0  0
   -0.8936    2.2050   -1.8546 C   0  0  0  0  0  0  0  0  0  0  0  0
   -1.3090    3.5275   -1.2300 C   0  0  0  0  0  0  0  0  0  0  0  0
   -1.0558    4.6824   -2.2078 C   0  0  0  0  0  0  0  0  0  0  0  0
   -1.6169    4.6175   -3.6614 C   0  0  3  0  0  0  0  0  0  0  0  0
   -3.1191    4.5616   -3.8499 N   0  0  0  0  0  0  0  0  0  0  0  0
   -3.7417    5.8484   -4.1490 C   0  0  0  0  0  0  0  0  0  0  0  0
   -3.7851    6.5452   -2.8038 C   0  0  0  0  0  0  0  0  0  0  0  0
   -4.2141    5.4357   -1.8674 C   0  0  0  0  0  0  0  0  0  0  0  0
   -3.8659    4.1599   -2.6466 C   0  0  0  0  0  0  0  0  0  0  0  0
   -0.8970    5.6409   -4.6222 C   0  0  0  0  0  0  0  0  0  0  0  0
   -0.2819    5.2661   -5.6423 O   0  0  0  0  0  0  0  0  0  0  0  0
   -0.9889    7.1204   -4.4033 C   0  0  0  0  0  0  0  0  0  0  0  0
   -0.8078    7.6935   -3.1427 C   0  0  0  0  0  0  0  0  0  0  0  0
   -1.2250    8.9994   -2.8855 C   0  0  0  0  0  0  0  0  0  0  0  0
   -1.6579    9.8047   -3.9295 C   0  0  0  0  0  0  0  0  0  0  0  0
   -1.7188    9.2876   -5.2231 C   0  0  0  0  0  0  0  0  0  0  0  0
   -1.4366    7.9373   -5.4538 C   0  0  0  0  0  0  0  0  0  0  0  0
    0.6553   -0.2862   -0.9809 H   0  0  0  0  0  0  0  0  0  0  0  0
    0.6979   -0.8236    0.6890 H   0  0  0  0  0  0  0  0  0  0  0  0
    2.1508   -0.1003   -0.0547 H   0  0  0  0  0  0  0  0  0  0  0  0
   -0.4472    1.3781    0.5658 H   0  0  0  0  0  0  0  0  0  0  0  0
    1.0154    1.5238    1.4919 H   0  0  0  0  0  0  0  0  0  0  0  0
    0.9898    3.3792   -0.0944 H   0  0  0  0  0  0  0  0  0  0  0  0
    2.2929    2.3491   -0.5200 H   0  0  0  0  0  0  0  0  0  0  0  0
    1.0069    2.9693   -2.5653 H   0  0  0  0  0  0  0  0  0  0  0  0
    0.9748    1.2507   -2.3538 H   0  0  0  0  0  0  0  0  0  0  0  0
   -1.3180    2.0560   -2.8524 H   0  0  0  0  0  0  0  0  0  0  0  0
   -1.3093    1.3678   -1.2836 H   0  0  0  0  0  0  0  0  0  0  0  0
   -2.2965    3.4482   -0.7752 H   0  0  0  0  0  0  0  0  0  0  0  0
   -0.7915    3.7806   -0.3040 H   0  0  0  0  0  0  0  0  0  0  0  0
   -1.4286    5.5531   -1.6829 H   0  0  0  0  0  0  0  0  0  0  0  0
    0.0310    4.8321   -2.2820 H   0  0  0  0  0  0  0  0  0  0  0  0
   -1.2683    3.6605   -4.0829 H   0  0  0  0  0  0  0  0  0  0  0  0
   -4.7633    5.6804   -4.5055 H   0  0  0  0  0  0  0  0  0  0  0  0
   -3.2664    6.3651   -4.9722 H   0  0  0  0  0  0  0  0  0  0  0  0
   -2.8160    6.8533   -2.4380 H   0  0  0  0  0  0  0  0  0  0  0  0
   -4.3976    7.4460   -2.7947 H   0  0  0  0  0  0  0  0  0  0  0  0
   -3.6923    5.5213   -0.9052 H   0  0  0  0  0  0  0  0  0  0  0  0
   -5.2874    5.5152   -1.6863 H   0  0  0  0  0  0  0  0  0  0  0  0
   -3.3286    3.4072   -2.1174 H   0  0  0  0  0  0  0  0  0  0  0  0
   -4.7792    3.5972   -2.8554 H   0  0  0  0  0  0  0  0  0  0  0  0
   -0.4606    7.1178   -2.2989 H   0  0  0  0  0  0  0  0  0  0  0  0
   -1.2413    9.3618   -1.8600 H   0  0  0  0  0  0  0  0  0  0  0  0
   -1.9503   10.8320   -3.7303 H   0  0  0  0  0  0  0  0  0  0  0  0
   -2.0222    9.9292   -6.0459 H   0  0  0  0  0  0  0  0  0  0  0  0
   -1.6543    7.5067   -6.4315 H   0  0  0  0  0  0  0  0  0  0  0  0
  1  2  1  0  0  0  0
  1 22  1  0  0  0  0
  1 23  1  0  0  0  0
  1 24  1  0  0  0  0
  2  3  1  0  0  0  0
  2 25  1  0  0  0  0
  2 26  1  0  0  0  0
  3  4  1  0  0  0  0
  3 27  1  0  0  0  0
  3 28  1  0  0  0  0
  4  5  1  0  0  0  0
  4 29  1  0  0  0  0
  4 30  1  0  0  0  0
  5  6  1  0  0  0  0
  5 31  1  0  0  0  0
  5 32  1  0  0  0  0
  6  7  1  0  0  0  0
  6 33  1  0  0  0  0
  6 34  1  0  0  0  0
  7  8  1  0  0  0  0
  7 35  1  0  0  0  0
  7 36  1  0  0  0  0
  8  9  1  0  0  0  0
  8 14  1  0  0  0  0
  8 37  1  0  0  0  0
  9 10  1  0  0  0  0
  9 13  1  0  0  0  0
 10 11  1  0  0  0  0
 10 38  1  0  0  0  0
 10 39  1  0  0  0  0
 11 12  1  0  0  0  0
 11 40  1  0  0  0  0
 11 41  1  0  0  0  0
 12 13  1  0  0  0  0
 12 42  1  0  0  0  0
 12 43  1  0  0  0  0
 13 44  1  0  0  0  0
 13 45  1  0  0  0  0
 14 15  2  0  0  0  0
 14 16  1  0  0  0  0
 16 17  2  0  0  0  0
 16 21  1  0  0  0  0
 17 18  1  0  0  0  0
 17 46  1  0  0  0  0
 18 19  2  0  0  0  0
 18 47  1  0  0  0  0
 19 20  1  0  0  0  0
 19 48  1  0  0  0  0
 20 21  2  0  0  0  0
 20 49  1  0  0  0  0
 21 50  1  0  0  0  0
M  END
>  <DRUGBANK_ID>
DB05531

>  <COMMON_NAME>
alpha-Pyrrolidinononanophenone

>  <CAS_NUMBER>
13415-58-2

>  <UNII>
S3FKL8RY1D

>  <SYNONYMS>
alpha-Pnp; alpha-Pyrrolidinononanophenone

$$$$
