
 OpenBabel10282417203D

 63 66  0  0  0  0  0  0  0  0999 V2000
    1.3312   -0.2299    0.0309 C   0  0  0  0  0  0  0  0  0  0  0  0
    0.3922   -1.4577    0.2304 C   0  0  0  0  0  0  0  0  0  0  0  0
    0.3008   -2.3470   -1.0073 C   0  0  0  0  0  0  0  0  0  0  0  0
    0.2018   -1.9845   -2.3807 C   0  0  0  0  0  0  0  0  0  0  0  0
    0.1047   -2.9395   -3.4155 C   0  0  0  0  0  0  0  0  0  0  0  0
    0.0127   -4.2408   -3.0719 C   0  0  0  0  0  0  0  0  0  0  0  0
    0.0695   -4.5676   -1.7452 C   0  0  0  0  0  0  0  0  0  0  0  0
    0.3245   -3.6998   -0.6652 C   0  0  0  0  0  0  0  0  0  0  0  0
    0.5787   -3.9188    0.7679 N   0  0  0  0  0  0  0  0  0  0  0  0
    0.6799   -2.5756    1.3573 C   0  0  0  0  0  0  0  0  0  0  0  0
    0.8411   -2.2952    2.5370 O   0  0  0  0  0  0  0  0  0  0  0  0
    0.7377   -5.1146    1.5676 C   0  0  0  0  0  0  0  0  0  0  0  0
    0.8553   -5.0905    2.8231 O   0  0  0  0  0  0  0  0  0  0  0  0
    0.7731   -6.4239    1.0781 N   0  0  0  0  0  0  0  0  0  0  0  0
    0.7587   -6.8526   -0.2859 C   0  0  0  0  0  0  0  0  0  0  0  0
    1.9993   -7.2184   -1.1601 C   0  0  0  0  0  0  0  0  0  0  0  0
    1.8582   -7.3498   -2.7246 C   0  0  0  0  0  0  0  0  0  0  0  0
    0.8637   -8.4173   -3.1413 C   0  0  0  0  0  0  0  0  0  0  0  0
    1.2443   -9.7086   -2.5517 N   0  0  0  0  0  0  0  0  0  0  0  0
    1.5021   -9.6024   -1.1152 C   0  0  0  0  0  0  0  0  0  0  0  0
    2.4906   -8.5480   -0.6553 C   0  0  0  0  0  0  0  0  0  0  0  0
    0.2311  -10.7534   -2.8701 C   0  0  0  0  0  0  0  0  0  0  0  0
   -1.2572  -10.4845   -2.4409 C   0  0  0  0  0  0  0  0  0  0  0  0
   -1.4005  -10.2977   -0.9222 C   0  0  0  0  0  0  0  0  0  0  0  0
   -2.8125  -10.1167   -0.4547 C   0  0  0  0  0  0  0  0  0  0  0  0
   -3.6033  -11.1995   -0.8879 O   0  0  0  0  0  0  0  0  0  0  0  0
   -3.5883  -11.3476   -2.3085 C   0  0  0  0  0  0  0  0  0  0  0  0
   -2.1812  -11.6301   -2.8467 C   0  0  0  0  0  0  0  0  0  0  0  0
   -1.7293   -9.3465   -3.1826 O   0  0  0  0  0  0  0  0  0  0  0  0
   -0.1806   -5.2278   -3.9599 F   0  0  0  0  0  0  0  0  0  0  0  0
   -0.8994   -0.6974    0.6498 C   0  0  0  0  0  0  0  0  0  0  0  0
    1.1875    0.5419    0.8078 H   0  0  0  0  0  0  0  0  0  0  0  0
    1.0436    0.2960   -0.8964 H   0  0  0  0  0  0  0  0  0  0  0  0
    2.4005   -0.4261   -0.0109 H   0  0  0  0  0  0  0  0  0  0  0  0
    0.1862   -0.9493   -2.6919 H   0  0  0  0  0  0  0  0  0  0  0  0
    0.0403   -2.7301   -4.4746 H   0  0  0  0  0  0  0  0  0  0  0  0
   -0.1148   -5.6213   -1.7700 H   0  0  0  0  0  0  0  0  0  0  0  0
    0.8092   -7.1513    1.7863 H   0  0  0  0  0  0  0  0  0  0  0  0
   -0.2391   -7.2144   -0.5884 H   0  0  0  0  0  0  0  0  0  0  0  0
    0.8547   -5.8553   -0.5027 H   0  0  0  0  0  0  0  0  0  0  0  0
    2.7366   -6.4231   -1.0049 H   0  0  0  0  0  0  0  0  0  0  0  0
    1.6070   -6.4152   -3.2282 H   0  0  0  0  0  0  0  0  0  0  0  0
    2.8330   -7.6254   -3.1498 H   0  0  0  0  0  0  0  0  0  0  0  0
   -0.1037   -8.0486   -2.7990 H   0  0  0  0  0  0  0  0  0  0  0  0
    0.8040   -8.5059   -4.2377 H   0  0  0  0  0  0  0  0  0  0  0  0
    1.6881  -10.5645   -0.6396 H   0  0  0  0  0  0  0  0  0  0  0  0
    0.6214   -9.2218   -0.6549 H   0  0  0  0  0  0  0  0  0  0  0  0
    3.5032   -8.7490   -0.9936 H   0  0  0  0  0  0  0  0  0  0  0  0
    2.4794   -8.5104    0.4400 H   0  0  0  0  0  0  0  0  0  0  0  0
    0.2621  -10.9063   -3.9600 H   0  0  0  0  0  0  0  0  0  0  0  0
    0.5797  -11.7026   -2.4408 H   0  0  0  0  0  0  0  0  0  0  0  0
   -0.9238  -11.1457   -0.4078 H   0  0  0  0  0  0  0  0  0  0  0  0
   -1.0043   -9.3616   -0.5673 H   0  0  0  0  0  0  0  0  0  0  0  0
   -2.8094  -10.0534    0.6401 H   0  0  0  0  0  0  0  0  0  0  0  0
   -3.1981   -9.1571   -0.8224 H   0  0  0  0  0  0  0  0  0  0  0  0
   -4.2539  -12.1744   -2.5514 H   0  0  0  0  0  0  0  0  0  0  0  0
   -4.0111  -10.4414   -2.7592 H   0  0  0  0  0  0  0  0  0  0  0  0
   -2.2246  -11.7140   -3.9391 H   0  0  0  0  0  0  0  0  0  0  0  0
   -1.8022  -12.5742   -2.4397 H   0  0  0  0  0  0  0  0  0  0  0  0
   -2.5318   -8.9829   -2.7821 H   0  0  0  0  0  0  0  0  0  0  0  0
   -0.6933   -0.0887    1.5503 H   0  0  0  0  0  0  0  0  0  0  0  0
   -1.1972    0.0234   -0.1248 H   0  0  0  0  0  0  0  0  0  0  0  0
   -1.7531   -1.3231    0.9023 H   0  0  0  0  0  0  0  0  0  0  0  0
  1  2  1  0  0  0  0
  1 32  1  0  0  0  0
  1 33  1  0  0  0  0
  1 34  1  0  0  0  0
  2  3  1  0  0  0  0
  2 10  1  0  0  0  0
  2 31  1  0  0  0  0
  3  4  2  0  0  0  0
  3  8  1  0  0  0  0
  4  5  1  0  0  0  0
  4 35  1  0  0  0  0
  5  6  2  0  0  0  0
  5 36  1  0  0  0  0
  6  7  1  0  0  0  0
  6 30  1  0  0  0  0
  7  8  2  0  0  0  0
  7 37  1  0  0  0  0
  8  9  1  0  0  0  0
  9 10  1  0  0  0  0
  9 12  1  0  0  0  0
 10 11  2  0  0  0  0
 12 13  2  0  0  0  0
 12 14  1  0  0  0  0
 14 15  1  0  0  0  0
 14 38  1  0  0  0  0
 15 16  1  0  0  0  0
 15 39  1  0  0  0  0
 15 40  1  0  0  0  0
 16 17  1  0  0  0  0
 16 21  1  0  0  0  0
 16 41  1  0  0  0  0
 17 18  1  0  0  0  0
 17 42  1  0  0  0  0
 17 43  1  0  0  0  0
 18 19  1  0  0  0  0
 18 44  1  0  0  0  0
 18 45  1  0  0  0  0
 19 20  1  0  0  0  0
 19 22  1  0  0  0  0
 20 21  1  0  0  0  0
 20 46  1  0  0  0  0
 20 47  1  0  0  0  0
 21 48  1  0  0  0  0
 21 49  1  0  0  0  0
 22 23  1  0  0  0  0
 22 50  1  0  0  0  0
 22 51  1  0  0  0  0
 23 24  1  0  0  0  0
 23 28  1  0  0  0  0
 23 29  1  0  0  0  0
 24 25  1  0  0  0  0
 24 52  1  0  0  0  0
 24 53  1  0  0  0  0
 25 26  1  0  0  0  0
 25 54  1  0  0  0  0
 25 55  1  0  0  0  0
 26 27  1  0  0  0  0
 27 28  1  0  0  0  0
 27 56  1  0  0  0  0
 27 57  1  0  0  0  0
 28 58  1  0  0  0  0
 28 59  1  0  0  0  0
 29 60  1  0  0  0  0
 31 61  1  0  0  0  0
 31 62  1  0  0  0  0
 31 63  1  0  0  0  0
M  END
>  <DRUGBANK_ID>
DB12949

>  <COMMON_NAME>
PF-03382792

>  <CAS_NUMBER>
1400811-63-3

>  <UNII>
QPE81T4KH0

$$$$
