
 OpenBabel10282417183D

 44 46  0  0  1  0  0  0  0  0999 V2000
    3.0143   -0.7267    0.0296 C   0  0  0  0  0  0  0  0  0  0  0  0
    1.6664   -0.2177    0.1005 N   0  0  0  0  0  0  0  0  0  0  0  0
    0.5052   -0.9335    0.1653 C   0  0  0  0  0  0  0  0  0  0  0  0
   -0.5131   -0.0099    0.0299 C   0  0  0  0  0  0  0  0  0  0  0  0
    0.1357    1.2355    0.0028 C   0  0  0  0  0  0  0  0  0  0  0  0
    1.4671    1.1159    0.0078 N   0  0  0  0  0  0  0  0  0  0  0  0
   -2.1956   -0.2310   -0.0060 Cl  0  0  0  0  0  0  0  0  0  0  0  0
    0.3586   -2.4102    0.2191 C   0  0  0  0  0  0  0  0  0  0  0  0
   -0.2972   -3.0720   -0.8278 C   0  0  0  0  0  0  0  0  0  0  0  0
   -0.4917   -4.4283   -0.6701 C   0  0  0  0  0  0  0  0  0  0  0  0
    0.3270   -4.9052    0.7877 S   0  0  0  0  0  0  0  0  0  0  0  0
    0.8213   -3.3088    1.1306 C   0  0  0  0  0  0  0  0  0  0  0  0
    1.7335   -2.9652    2.5415 Cl  0  0  0  0  0  0  0  0  0  0  0  0
   -1.2076   -5.4370   -1.4689 C   0  0  0  0  0  0  0  0  0  0  0  0
   -1.2576   -6.6300   -1.1770 O   0  0  0  0  0  0  0  0  0  0  0  0
   -1.8926   -5.0851   -2.6220 N   0  0  0  0  0  0  0  0  0  0  0  0
   -2.0380   -3.7899   -3.2840 C   0  0  1  0  0  0  0  0  0  0  0  0
   -1.2680   -3.6442   -4.5888 C   0  0  0  0  0  0  0  0  0  0  0  0
   -1.9371   -4.4327   -5.6573 C   0  0  0  0  0  0  0  0  0  0  0  0
   -1.7590   -5.8203   -5.6829 C   0  0  0  0  0  0  0  0  0  0  0  0
   -2.4292   -6.5872   -6.6208 C   0  0  0  0  0  0  0  0  0  0  0  0
   -3.2615   -5.9626   -7.5475 C   0  0  0  0  0  0  0  0  0  0  0  0
   -3.4522   -4.5846   -7.5011 C   0  0  0  0  0  0  0  0  0  0  0  0
   -2.8085   -3.8103   -6.5531 C   0  0  0  0  0  0  0  0  0  0  0  0
   -4.2708   -3.9948   -8.3802 F   0  0  0  0  0  0  0  0  0  0  0  0
   -3.4546   -3.2104   -3.2599 C   0  0  0  0  0  0  0  0  0  0  0  0
   -3.9953   -3.2544   -1.9014 N   0  0  0  0  0  0  0  0  0  0  0  0
    3.4990   -0.3248   -0.8640 H   0  0  0  0  0  0  0  0  0  0  0  0
    3.5304   -0.4047    0.9346 H   0  0  0  0  0  0  0  0  0  0  0  0
    3.0083   -1.8163   -0.0355 H   0  0  0  0  0  0  0  0  0  0  0  0
   -0.3084    2.2224   -0.0200 H   0  0  0  0  0  0  0  0  0  0  0  0
   -0.5729   -2.4246   -1.6293 H   0  0  0  0  0  0  0  0  0  0  0  0
   -2.3694   -5.8745   -3.0442 H   0  0  0  0  0  0  0  0  0  0  0  0
   -1.5374   -3.0815   -2.6997 H   0  0  0  0  0  0  0  0  0  0  0  0
   -1.2073   -2.5829   -4.8677 H   0  0  0  0  0  0  0  0  0  0  0  0
   -0.2270   -3.9771   -4.4710 H   0  0  0  0  0  0  0  0  0  0  0  0
   -1.1106   -6.3035   -4.9523 H   0  0  0  0  0  0  0  0  0  0  0  0
   -2.2923   -7.6640   -6.6254 H   0  0  0  0  0  0  0  0  0  0  0  0
   -3.7634   -6.5450   -8.3099 H   0  0  0  0  0  0  0  0  0  0  0  0
   -3.0019   -2.7414   -6.5093 H   0  0  0  0  0  0  0  0  0  0  0  0
   -3.3996   -2.1600   -3.5730 H   0  0  0  0  0  0  0  0  0  0  0  0
   -4.1173   -3.7456   -3.9398 H   0  0  0  0  0  0  0  0  0  0  0  0
   -4.9590   -2.9291   -1.9049 H   0  0  0  0  0  0  0  0  0  0  0  0
   -4.0070   -4.2235   -1.5802 H   0  0  0  0  0  0  0  0  0  0  0  0
  1  2  1  0  0  0  0
  1 28  1  0  0  0  0
  1 29  1  0  0  0  0
  1 30  1  0  0  0  0
  2  3  1  0  0  0  0
  2  6  1  0  0  0  0
  3  4  2  0  0  0  0
  3  8  1  0  0  0  0
  4  5  1  0  0  0  0
  4  7  1  0  0  0  0
  5  6  2  0  0  0  0
  5 31  1  0  0  0  0
  8  9  1  0  0  0  0
  8 12  2  0  0  0  0
  9 10  2  0  0  0  0
  9 32  1  0  0  0  0
 10 11  1  0  0  0  0
 10 14  1  0  0  0  0
 11 12  1  0  0  0  0
 12 13  1  0  0  0  0
 14 15  2  0  0  0  0
 14 16  1  0  0  0  0
 16 33  1  0  0  0  0
 17 16  1  0  0  0  0
 17 18  1  0  0  0  0
 17 26  1  0  0  0  0
 17 34  1  1  0  0  0
 18 19  1  0  0  0  0
 18 35  1  0  0  0  0
 18 36  1  0  0  0  0
 19 20  2  0  0  0  0
 19 24  1  0  0  0  0
 20 21  1  0  0  0  0
 20 37  1  0  0  0  0
 21 22  2  0  0  0  0
 21 38  1  0  0  0  0
 22 23  1  0  0  0  0
 22 39  1  0  0  0  0
 23 24  2  0  0  0  0
 23 25  1  0  0  0  0
 24 40  1  0  0  0  0
 26 27  1  0  0  0  0
 26 41  1  0  0  0  0
 26 42  1  0  0  0  0
 27 43  1  0  0  0  0
 27 44  1  0  0  0  0
M  END
>  <DRUGBANK_ID>
DB11648

>  <COMMON_NAME>
Afuresertib

>  <CAS_NUMBER>
1047644-62-1

>  <UNII>
8739X25QI3

>  <SYNONYMS>
Afuresertib

$$$$
