
 OpenBabel10282417123D

 21 22  0  0  0  0  0  0  0  0999 V2000
    1.2706   -1.3672    0.0003 C   0  0  0  0  0  0  0  0  0  0  0  0
    2.4496    0.7477   -0.0008 C   0  0  0  0  0  0  0  0  0  0  0  0
   -2.5093    0.6361    0.0007 C   0  0  0  0  0  0  0  0  0  0  0  0
    2.4595   -0.6434    0.0000 C   0  0  0  0  0  0  0  0  0  0  0  0
    0.0430   -0.6784   -0.0005 C   0  0  0  0  0  0  0  0  0  0  0  0
    1.2324    1.4271   -0.0010 C   0  0  0  0  0  0  0  0  0  0  0  0
   -1.2772    1.4360   -0.0007 C   0  0  0  0  0  0  0  0  0  0  0  0
   -2.5082   -0.6980    0.0010 C   0  0  0  0  0  0  0  0  0  0  0  0
    0.0198    0.7218   -0.0007 C   0  0  0  0  0  0  0  0  0  0  0  0
   -1.2189   -1.4551   -0.0021 C   0  0  0  0  0  0  0  0  0  0  0  0
    3.6771   -1.2573    0.0003 O   0  0  0  0  0  0  0  0  0  0  0  0
    1.2302    2.7924   -0.0018 O   0  0  0  0  0  0  0  0  0  0  0  0
   -1.3984    2.6559   -0.0008 O   0  0  0  0  0  0  0  0  0  0  0  0
   -3.6910   -1.4171    0.0038 O   0  0  0  0  0  0  0  0  0  0  0  0
   -1.1901   -2.6823   -0.0065 O   0  0  0  0  0  0  0  0  0  0  0  0
    1.2831   -2.4556    0.0008 H   0  0  0  0  0  0  0  0  0  0  0  0
    3.3934    1.2851   -0.0014 H   0  0  0  0  0  0  0  0  0  0  0  0
   -3.4205    1.2221    0.0017 H   0  0  0  0  0  0  0  0  0  0  0  0
    3.5596   -2.2228    0.0006 H   0  0  0  0  0  0  0  0  0  0  0  0
    2.1297    3.1532   -0.0026 H   0  0  0  0  0  0  0  0  0  0  0  0
   -4.4437   -0.8015    0.0074 H   0  0  0  0  0  0  0  0  0  0  0  0
  1  4  2  0  0  0  0
  1  5  1  0  0  0  0
  1 16  1  0  0  0  0
  2  4  1  0  0  0  0
  2  6  2  0  0  0  0
  2 17  1  0  0  0  0
  3  7  1  0  0  0  0
  3  8  2  0  0  0  0
  3 18  1  0  0  0  0
  4 11  1  0  0  0  0
  5  9  2  0  0  0  0
  5 10  1  0  0  0  0
  6  9  1  0  0  0  0
  6 12  1  0  0  0  0
  7  9  1  0  0  0  0
  7 13  2  0  0  0  0
  8 10  1  0  0  0  0
  8 14  1  0  0  0  0
 10 15  2  0  0  0  0
 11 19  1  0  0  0  0
 12 20  1  0  0  0  0
 14 21  1  0  0  0  0
M  END
>  <DRUGBANK_ID>
DB02521

>  <SECONDARY_ACCESSION_NUMBERS>
EXPT01448

>  <COMMON_NAME>
Flaviolin

>  <CAS_NUMBER>
479-05-0

>  <UNII>
TH7ZC8J7OE

>  <SYNONYMS>
2,5,7-Trihydroxy-1,4-naphthalenedione; 2,5,7-trihydroxynaphthoquinone

$$$$
