
 OpenBabel10282417203D

 36 36  0  0  1  0  0  0  0  0999 V2000
    0.9446    0.1367    0.0685 C   0  0  0  0  0  0  0  0  0  0  0  0
    0.4704   -0.4396   -1.2488 C   0  0  0  0  0  0  0  0  0  0  0  0
    0.9179   -1.9081   -1.4760 C   0  0  0  0  0  0  0  0  0  0  0  0
    0.3824   -2.8298   -0.3552 C   0  0  0  0  0  0  0  0  0  0  0  0
   -1.1386   -2.8535   -0.2772 C   0  0  0  0  0  0  0  0  0  0  0  0
    0.4598   -2.3688   -2.8918 C   0  0  1  0  0  0  0  0  0  0  0  0
    0.9915   -1.4411   -3.9946 C   0  0  0  0  0  0  0  0  0  0  0  0
    2.4136   -1.4914   -4.0302 O   0  0  0  0  0  0  0  0  0  0  0  0
    0.8869   -3.7745   -3.1529 N   0  0  0  0  0  0  0  0  0  0  0  0
    0.3424   -4.5263   -4.5841 S   0  0  0  0  0  0  0  0  0  0  0  0
    0.7036   -3.7362   -5.7428 O   0  0  0  0  0  0  0  0  0  0  0  0
    0.7541   -5.9052   -4.4958 O   0  0  0  0  0  0  0  0  0  0  0  0
   -1.4387   -4.5917   -4.5802 C   0  0  0  0  0  0  0  0  0  0  0  0
   -2.2719   -5.6930   -4.5466 C   0  0  0  0  0  0  0  0  0  0  0  0
   -3.6476   -5.3434   -4.4818 C   0  0  0  0  0  0  0  0  0  0  0  0
   -3.8118   -3.9847   -4.5206 C   0  0  0  0  0  0  0  0  0  0  0  0
   -2.3537   -3.1404   -4.6752 S   0  0  0  0  0  0  0  0  0  0  0  0
   -5.3072   -3.1416   -4.4614 Cl  0  0  0  0  0  0  0  0  0  0  0  0
    0.5588   -0.4210    0.9232 H   0  0  0  0  0  0  0  0  0  0  0  0
    0.5993    1.1694    0.1661 H   0  0  0  0  0  0  0  0  0  0  0  0
    2.0379    0.1295    0.1023 H   0  0  0  0  0  0  0  0  0  0  0  0
   -0.6204   -0.3575   -1.3281 H   0  0  0  0  0  0  0  0  0  0  0  0
    0.8703    0.2183   -2.0241 H   0  0  0  0  0  0  0  0  0  0  0  0
    2.0140   -1.9502   -1.4184 H   0  0  0  0  0  0  0  0  0  0  0  0
    0.7597   -3.8493   -0.4924 H   0  0  0  0  0  0  0  0  0  0  0  0
    0.7856   -2.5087    0.6128 H   0  0  0  0  0  0  0  0  0  0  0  0
   -1.5741   -3.2561   -1.1951 H   0  0  0  0  0  0  0  0  0  0  0  0
   -1.4721   -3.4802    0.5519 H   0  0  0  0  0  0  0  0  0  0  0  0
   -1.5507   -1.8531   -0.1166 H   0  0  0  0  0  0  0  0  0  0  0  0
   -0.6256   -2.3341   -2.8820 H   0  0  0  0  0  0  0  0  0  0  0  0
    0.6059   -1.7046   -4.9753 H   0  0  0  0  0  0  0  0  0  0  0  0
    0.6581   -0.4115   -3.8682 H   0  0  0  0  0  0  0  0  0  0  0  0
    2.7489   -1.1263   -3.1948 H   0  0  0  0  0  0  0  0  0  0  0  0
    1.9063   -3.8772   -3.1199 H   0  0  0  0  0  0  0  0  0  0  0  0
   -1.8749   -6.6999   -4.5511 H   0  0  0  0  0  0  0  0  0  0  0  0
   -4.4601   -6.0540   -4.4183 H   0  0  0  0  0  0  0  0  0  0  0  0
  1  2  1  0  0  0  0
  1 19  1  0  0  0  0
  1 20  1  0  0  0  0
  1 21  1  0  0  0  0
  2  3  1  0  0  0  0
  2 22  1  0  0  0  0
  2 23  1  0  0  0  0
  3  4  1  0  0  0  0
  3  6  1  0  0  0  0
  3 24  1  0  0  0  0
  4  5  1  0  0  0  0
  4 25  1  0  0  0  0
  4 26  1  0  0  0  0
  5 27  1  0  0  0  0
  5 28  1  0  0  0  0
  5 29  1  0  0  0  0
  6  7  1  0  0  0  0
  6  9  1  0  0  0  0
  6 30  1  6  0  0  0
  7  8  1  0  0  0  0
  7 31  1  0  0  0  0
  7 32  1  0  0  0  0
  8 33  1  0  0  0  0
  9 10  1  0  0  0  0
  9 34  1  0  0  0  0
 10 11  2  0  0  0  0
 10 12  2  0  0  0  0
 10 13  1  0  0  0  0
 13 14  2  0  0  0  0
 13 17  1  0  0  0  0
 14 15  1  0  0  0  0
 14 35  1  0  0  0  0
 15 16  2  0  0  0  0
 15 36  1  0  0  0  0
 16 17  1  0  0  0  0
 16 18  1  0  0  0  0
M  END
>  <DRUGBANK_ID>
DB12819

>  <COMMON_NAME>
GSI-136

>  <CAS_NUMBER>
443989-01-3

>  <UNII>
51JV4753AD

$$$$
