
 OpenBabel10282417223D

258262  0  0  1  0  0  0  0  0999 V2000
    1.0748   -0.0633   -0.0073 C   0  0  0  0  0  0  0  0  0  0  0  0
    0.5714    1.2503    0.5573 C   0  0  0  0  0  0  0  0  0  0  0  0
    1.0763    2.3943   -0.2982 C   0  0  0  0  0  0  0  0  0  0  0  0
    0.5684    2.2341   -1.7204 C   0  0  0  0  0  0  0  0  0  0  0  0
   -0.9347    2.2880   -1.6529 C   0  0  0  0  0  0  0  0  0  0  0  0
   -0.6508    3.9667    0.5646 C   0  0  0  0  0  0  0  0  0  0  0  0
    0.6255    4.3461    3.9406 C   0  0  0  0  0  0  0  0  0  0  0  0
   -0.1185    4.7778    1.4264 O   0  0  0  0  0  0  0  0  0  0  0  0
    1.7457    4.1503    7.6119 N   0  0  0  0  0  0  0  0  0  0  0  0
    2.6614    3.8062   12.0252 C   0  0  0  0  0  0  0  0  0  0  0  0
    3.2580    3.2625   16.9007 C   0  0  0  0  0  0  0  0  0  0  0  0
    3.6569    2.4751   22.2320 S   0  0  0  0  0  0  0  0  0  0  0  0
    3.7510    1.2082   27.5124 S   0  0  0  0  0  0  0  0  0  0  0  0
    3.3630    0.2159   31.9665 C   0  0  0  0  0  0  0  0  0  0  0  0
    1.9959    0.5156   33.4727 C   0  0  2  0  0  0  0  0  0  0  0  0
    2.7109    1.5423   32.7185 N   0  0  0  0  0  0  0  0  0  0  0  0
    2.5258    1.6378   31.2711 C   0  0  0  0  0  0  0  0  0  0  0  0
    1.7554    0.8505   30.6726 O   0  0  0  0  0  0  0  0  0  0  0  0
    3.2763    2.7307   30.4863 C   0  0  0  0  0  0  0  0  0  0  0  0
    4.1762    3.5123   31.4257 C   0  0  0  0  0  0  0  0  0  0  0  0
    4.8934    4.4878   30.6964 O   0  0  0  0  0  0  0  0  0  0  0  0
    3.8493    2.5486   29.0822 N   0  0  0  0  0  0  0  0  0  0  0  0
    3.7286    2.5610   27.9465 C   0  0  0  0  0  0  0  0  0  0  0  0
    3.0248    3.1800   27.6778 O   0  0  0  0  0  0  0  0  0  0  0  0
    4.9167    1.5298   26.9075 C   0  0  1  0  0  0  0  0  0  0  0  0
    3.9832    0.8604   26.0625 N   0  0  0  0  0  0  0  0  0  0  0  0
    3.9842    1.1174   24.6529 C   0  0  0  0  0  0  0  0  0  0  0  0
    5.0019    1.8348   24.0100 O   0  0  0  0  0  0  0  0  0  0  0  0
    3.0992    0.3791   23.7071 C   0  0  0  0  0  0  0  0  0  0  0  0
    2.3439   -0.6724   24.4866 C   0  0  0  0  0  0  0  0  0  0  0  0
    1.4739   -1.4792   23.5426 C   0  0  0  0  0  0  0  0  0  0  0  0
    2.3464   -2.1573   22.5016 C   0  0  0  0  0  0  0  0  0  0  0  0
    3.3020   -3.0613   23.1655 N   0  0  0  0  0  0  0  0  0  0  0  0
    3.2963   -4.4915   22.8638 C   0  0  0  0  0  0  0  0  0  0  0  0
    4.2440   -5.3774   23.5269 N   0  0  0  0  0  0  0  0  0  0  0  0
    2.4348   -4.9722   21.9954 N   0  0  0  0  0  0  0  0  0  0  0  0
    2.1384    1.2730   23.0300 N   0  0  0  0  0  0  0  0  0  0  0  0
    2.1576    1.3920   21.5707 C   0  0  0  0  0  0  0  0  0  0  0  0
    2.9838    0.7333   20.8855 O   0  0  0  0  0  0  0  0  0  0  0  0
    1.1694    2.3269   20.8800 C   0  0  2  0  0  0  0  0  0  0  0  0
    0.2953    1.5164   19.9379 C   0  0  0  0  0  0  0  0  0  0  0  0
    1.1557    0.6517   19.0197 C   0  0  0  0  0  0  0  0  0  0  0  0
    1.0008   -0.7506   19.0421 O   0  0  0  0  0  0  0  0  0  0  0  0
    2.0059    1.1783   18.2526 O   0  0  0  0  0  0  0  0  0  0  0  0
    1.8997    3.3513   20.1164 N   0  0  0  0  0  0  0  0  0  0  0  0
    1.7082    3.4547   18.6713 C   0  0  0  0  0  0  0  0  0  0  0  0
    0.9227    2.6877   18.0611 O   0  0  0  0  0  0  0  0  0  0  0  0
    2.4541    4.5417   17.8872 C   0  0  1  0  0  0  0  0  0  0  0  0
    3.3534    5.3240   18.8252 C   0  0  0  0  0  0  0  0  0  0  0  0
    4.1115    6.3739   18.0419 C   0  0  0  0  0  0  0  0  0  0  0  0
    3.1266    7.3008   17.3541 C   0  0  0  0  0  0  0  0  0  0  0  0
    2.2530    7.9764   18.3929 C   0  0  0  0  0  0  0  0  0  0  0  0
    3.2312    4.2365   16.4163 N   0  0  0  0  0  0  0  0  0  0  0  0
    3.1190    4.1632   15.4186 C   0  0  0  0  0  0  0  0  0  0  0  0
    2.2318    4.9698   15.0832 O   0  0  0  0  0  0  0  0  0  0  0  0
    4.0012    3.4733   14.4036 C   0  0  0  0  0  0  0  0  0  0  0  0
    4.9906    2.5489   15.0873 C   0  0  0  0  0  0  0  0  0  0  0  0
    5.8650    1.8755   14.0483 C   0  0  0  0  0  0  0  0  0  0  0  0
    6.6265    2.9292   13.2643 C   0  0  0  0  0  0  0  0  0  0  0  0
    7.4790    3.7098   14.1781 N   0  0  0  0  0  0  0  0  0  0  0  0
    8.9289    3.7369   13.9909 C   0  0  0  0  0  0  0  0  0  0  0  0
    9.7639    4.5099   14.9006 N   0  0  0  0  0  0  0  0  0  0  0  0
    9.4725    3.0630   13.0024 N   0  0  0  0  0  0  0  0  0  0  0  0
    3.1573    2.6886   13.4898 N   0  0  0  0  0  0  0  0  0  0  0  0
    3.2812    2.6410   12.1298 C   0  0  0  0  0  0  0  0  0  0  0  0
    4.1443    3.9352   11.5617 O   0  0  0  0  0  0  0  0  0  0  0  0
    2.2718    2.1855   11.0950 C   0  0  0  0  0  0  0  0  0  0  0  0
    1.3157    3.0934   10.4290 N   0  0  0  0  0  0  0  0  0  0  0  0
    1.3006    3.1917    8.9776 C   0  0  0  0  0  0  0  0  0  0  0  0
    2.1489    2.5187    8.2870 O   0  0  0  0  0  0  0  0  0  0  0  0
    0.3207    4.1483    8.2928 C   0  0  1  0  0  0  0  0  0  0  0  0
   -0.5332    4.8209    9.3198 C   0  0  0  0  0  0  0  0  0  0  0  0
    0.9669    5.3039    7.5689 N   0  0  0  0  0  0  0  0  0  0  0  0
    0.8213    5.3332    6.0641 C   0  0  0  0  0  0  0  0  0  0  0  0
    0.0863    4.4889    5.4689 O   0  0  0  0  0  0  0  0  0  0  0  0
    1.6468    6.3419    5.2801 C   0  0  2  0  0  0  0  0  0  0  0  0
    0.6612    7.2564    4.5952 C   0  0  0  0  0  0  0  0  0  0  0  0
   -0.2472    7.9655    5.5669 C   0  0  0  0  0  0  0  0  0  0  0  0
    0.0736    9.2413    5.8239 C   0  0  0  0  0  0  0  0  0  0  0  0
   -0.7128   10.0069    6.6470 C   0  0  0  0  0  0  0  0  0  0  0  0
   -1.7893    9.4730    7.2936 C   0  0  0  0  0  0  0  0  0  0  0  0
   -2.1244    8.2256    6.9578 C   0  0  0  0  0  0  0  0  0  0  0  0
   -1.2892    7.3531    6.2381 C   0  0  0  0  0  0  0  0  0  0  0  0
    2.4874    5.8679    4.2865 N   0  0  0  0  0  0  0  0  0  0  0  0
    2.2953    6.0272    2.8493 C   0  0  0  0  0  0  0  0  0  0  0  0
    1.4065    6.7886    2.4724 O   0  0  0  0  0  0  0  0  0  0  0  0
    3.4462    5.3768    2.2176 C   0  0  0  0  0  0  0  0  0  0  0  0
    4.1910    4.3544    2.4853 C   0  0  0  0  0  0  0  0  0  0  0  0
    5.0357    3.6925    1.4445 C   0  0  0  0  0  0  0  0  0  0  0  0
    5.0022    2.3483    1.2053 C   0  0  0  0  0  0  0  0  0  0  0  0
    5.8235    2.1257    0.1247 N   0  0  0  0  0  0  0  0  0  0  0  0
    6.3410    3.3508   -0.2315 C   0  0  0  0  0  0  0  0  0  0  0  0
    5.8859    4.3149    0.5305 N   0  0  0  0  0  0  0  0  0  0  0  0
    2.4875    4.2486    4.5095 N   0  0  0  0  0  0  0  0  0  0  0  0
    2.6752    4.1725    7.8555 C   0  0  0  0  0  0  0  0  0  0  0  0
    2.6748    4.4144    5.4228 O   0  0  0  0  0  0  0  0  0  0  0  0
    5.7500    2.6390   26.1532 C   0  0  1  0  0  0  0  0  0  0  0  0
    4.4366    3.8742   25.5267 C   0  0  0  0  0  0  0  0  0  0  0  0
    6.5009    3.5110   27.1453 C   0  0  0  0  0  0  0  0  0  0  0  0
    7.5034    2.5856   27.7942 C   0  0  0  0  0  0  0  0  0  0  0  0
    1.1175    1.1896   34.5321 C   0  0  0  0  0  0  0  0  0  0  0  0
   -0.1307    1.0247   34.5052 O   0  0  0  0  0  0  0  0  0  0  0  0
    1.7339    2.0222   35.5559 N   0  0  0  0  0  0  0  0  0  0  0  0
    3.1864    2.2241   35.5979 C   0  0  1  0  0  0  0  0  0  0  0  0
    3.5130    3.6944   35.4423 C   0  0  0  0  0  0  0  0  0  0  0  0
    2.8880    4.4806   36.5655 C   0  0  0  0  0  0  0  0  0  0  0  0
    2.4394    3.9036   37.5843 C   0  0  0  0  0  0  0  0  0  0  0  0
    2.1782    4.7405   38.5226 C   0  0  0  0  0  0  0  0  0  0  0  0
    2.2099    5.9636   38.8102 C   0  0  0  0  0  0  0  0  0  0  0  0
    1.7827    6.6582   39.9596 O   0  0  0  0  0  0  0  0  0  0  0  0
    2.7697    6.4948   37.7774 C   0  0  0  0  0  0  0  0  0  0  0  0
    2.9495    5.8547   36.5351 C   0  0  0  0  0  0  0  0  0  0  0  0
    3.7518    1.7044   36.9249 C   0  0  0  0  0  0  0  0  0  0  0  0
    4.5997    0.7802   36.9361 O   0  0  0  0  0  0  0  0  0  0  0  0
    3.3358    2.2635   38.2128 N   0  0  0  0  0  0  0  0  0  0  0  0
    4.1698    2.7916   39.2348 C   0  0  0  0  0  0  0  0  0  0  0  0
    4.0226    4.2743   39.3936 C   0  0  1  0  0  0  0  0  0  0  0  0
    2.8539    4.6907   39.9429 N   0  0  0  0  0  0  0  0  0  0  0  0
    1.2843    3.5927   39.0640 C   0  0  0  0  0  0  0  0  0  0  0  0
    0.3700    4.1692   39.4464 O   0  0  0  0  0  0  0  0  0  0  0  0
    1.8389    2.5137   38.6477 C   0  0  2  0  0  0  0  0  0  0  0  0
    1.4946    1.5116   39.5138 C   0  0  0  0  0  0  0  0  0  0  0  0
    0.0410    1.6878   39.9015 C   0  0  0  0  0  0  0  0  0  0  0  0
   -0.8330    1.5923   38.6634 C   0  0  0  0  0  0  0  0  0  0  0  0
   -0.6558    0.2731   38.0331 N   0  0  0  0  0  0  0  0  0  0  0  0
   -1.7970   -0.6281   37.8772 C   0  0  0  0  0  0  0  0  0  0  0  0
   -1.6124   -1.9324   37.2548 N   0  0  0  0  0  0  0  0  0  0  0  0
   -2.9845   -0.2572   38.3005 N   0  0  0  0  0  0  0  0  0  0  0  0
    4.9141    4.7419   40.5135 C   0  0  0  0  0  0  0  0  0  0  0  0
    5.9660    5.7122   40.2334 N   0  0  0  0  0  0  0  0  0  0  0  0
    4.7522    4.2877   41.6776 O   0  0  0  0  0  0  0  0  0  0  0  0
    0.7185   -0.1841   -1.0122 H   0  0  0  0  0  0  0  0  0  0  0  0
    0.7185   -0.8756    0.5943 H   0  0  0  0  0  0  0  0  0  0  0  0
    2.1478   -0.0652   -0.0093 H   0  0  0  0  0  0  0  0  0  0  0  0
   -0.5025    1.2506    0.5604 H   0  0  0  0  0  0  0  0  0  0  0  0
    0.9261    1.3686    1.5625 H   0  0  0  0  0  0  0  0  0  0  0  0
    0.7242    3.3229    0.1037 H   0  0  0  0  0  0  0  0  0  0  0  0
    2.1480    2.4008   -0.2976 H   0  0  0  0  0  0  0  0  0  0  0  0
    0.9266    3.0447   -2.3248 H   0  0  0  0  0  0  0  0  0  0  0  0
    0.9265    1.3073   -2.1228 H   0  0  0  0  0  0  0  0  0  0  0  0
   -1.3094    2.1207   -2.7237 H   0  0  0  0  0  0  0  0  0  0  0  0
   -1.3097    1.4238   -1.1184 H   0  0  0  0  0  0  0  0  0  0  0  0
   -2.4344    3.5781   -1.0717 H   0  0  0  0  0  0  0  0  0  0  0  0
   -1.1667    3.5661   -0.0745 H   0  0  0  0  0  0  0  0  0  0  0  0
    1.5878    4.5190    5.0760 H   0  0  0  0  0  0  0  0  0  0  0  0
    2.6118    3.7943    9.5557 H   0  0  0  0  0  0  0  0  0  0  0  0
    3.9616    3.3279   19.8314 H   0  0  0  0  0  0  0  0  0  0  0  0
    4.0019    3.4009   19.8215 H   0  0  0  0  0  0  0  0  0  0  0  0
    2.5547   -1.0057   34.4529 H   0  0  0  0  0  0  0  0  0  0  0  0
    3.6087   -0.8990   33.4247 H   0  0  0  0  0  0  0  0  0  0  0  0
    1.3783   -0.0586   32.8173 H   0  0  0  0  0  0  0  0  0  0  0  0
    3.3665    2.1647   33.2030 H   0  0  0  0  0  0  0  0  0  0  0  0
    2.6068    3.3502   29.9993 H   0  0  0  0  0  0  0  0  0  0  0  0
    3.5652    3.9784   32.1670 H   0  0  0  0  0  0  0  0  0  0  0  0
    4.8684    2.9145   31.9217 H   0  0  0  0  0  0  0  0  0  0  0  0
    5.4595    4.0495   30.0144 H   0  0  0  0  0  0  0  0  0  0  0  0
    4.9414    1.4011   29.7176 H   0  0  0  0  0  0  0  0  0  0  0  0
    5.5381    0.9950   27.4917 H   0  0  0  0  0  0  0  0  0  0  0  0
    3.4031    0.1245   26.4498 H   0  0  0  0  0  0  0  0  0  0  0  0
    3.7227   -0.0933   22.9688 H   0  0  0  0  0  0  0  0  0  0  0  0
    3.0414   -1.3260   24.9774 H   0  0  0  0  0  0  0  0  0  0  0  0
    1.7284   -0.1960   25.2261 H   0  0  0  0  0  0  0  0  0  0  0  0
    0.9350   -2.2230   24.0971 H   0  0  0  0  0  0  0  0  0  0  0  0
    0.7741   -0.8256   23.0559 H   0  0  0  0  0  0  0  0  0  0  0  0
    1.7287   -2.7224   21.8304 H   0  0  0  0  0  0  0  0  0  0  0  0
    2.8810   -1.4126   21.9434 H   0  0  0  0  0  0  0  0  0  0  0  0
    3.9672   -2.6763   23.8384 H   0  0  0  0  0  0  0  0  0  0  0  0
    4.2452   -6.3820   23.3194 H   0  0  0  0  0  0  0  0  0  0  0  0
    4.9157   -5.0100   24.2025 H   0  0  0  0  0  0  0  0  0  0  0  0
    2.4316   -5.9724   21.7848 H   0  0  0  0  0  0  0  0  0  0  0  0
    1.4840    1.8170   23.5894 H   0  0  0  0  0  0  0  0  0  0  0  0
    0.5525    2.8053   21.6173 H   0  0  0  0  0  0  0  0  0  0  0  0
   -0.3581    0.8957   20.5105 H   0  0  0  0  0  0  0  0  0  0  0  0
   -0.2939    2.1936   19.3430 H   0  0  0  0  0  0  0  0  0  0  0  0
    0.3365   -1.1781   19.6489 H   0  0  0  0  0  0  0  0  0  0  0  0
    2.5384    3.9819   20.6036 H   0  0  0  0  0  0  0  0  0  0  0  0
    1.7802    5.1648   17.3951 H   0  0  0  0  0  0  0  0  0  0  0  0
    2.7382    5.7938   19.5649 H   0  0  0  0  0  0  0  0  0  0  0  0
    4.0522    4.6802   19.3152 H   0  0  0  0  0  0  0  0  0  0  0  0
    4.7304    6.9414   18.7097 H   0  0  0  0  0  0  0  0  0  0  0  0
    4.7307    5.8968   17.3058 H   0  0  0  0  0  0  0  0  0  0  0  0
    3.6618    8.0446   16.7968 H   0  0  0  0  0  0  0  0  0  0  0  0
    2.5100    6.7339   16.6828 H   0  0  0  0  0  0  0  0  0  0  0  0
    2.8679    8.5451   19.0636 H   0  0  0  0  0  0  0  0  0  0  0  0
    1.5552    8.6302   17.9088 H   0  0  0  0  0  0  0  0  0  0  0  0
    1.7147    7.2336   18.9495 H   0  0  0  0  0  0  0  0  0  0  0  0
    4.2859    3.1196   16.9864 H   0  0  0  0  0  0  0  0  0  0  0  0
    4.5372    4.2220   13.8483 H   0  0  0  0  0  0  0  0  0  0  0  0
    5.6066    3.1173   15.7598 H   0  0  0  0  0  0  0  0  0  0  0  0
    4.4549    1.8042   15.6455 H   0  0  0  0  0  0  0  0  0  0  0  0
    6.5607    1.2191   14.5343 H   0  0  0  0  0  0  0  0  0  0  0  0
    5.2486    1.3040   13.3795 H   0  0  0  0  0  0  0  0  0  0  0  0
    7.2396    2.4515   12.5250 H   0  0  0  0  0  0  0  0  0  0  0  0
    5.9302    3.5822   12.7741 H   0  0  0  0  0  0  0  0  0  0  0  0
    7.0459    4.2298   14.9426 H   0  0  0  0  0  0  0  0  0  0  0  0
   10.7818    4.5333   14.7747 H   0  0  0  0  0  0  0  0  0  0  0  0
    9.3477    5.0357   15.6707 H   0  0  0  0  0  0  0  0  0  0  0  0
   10.4861    3.0826   12.8721 H   0  0  0  0  0  0  0  0  0  0  0  0
    2.5752    1.9418   13.8480 H   0  0  0  0  0  0  0  0  0  0  0  0
    1.7397    1.4555   11.6541 H   0  0  0  0  0  0  0  0  0  0  0  0
    2.8936    1.7227   10.3644 H   0  0  0  0  0  0  0  0  0  0  0  0
    0.6549    3.6339   10.9861 H   0  0  0  0  0  0  0  0  0  0  0  0
   -0.2768    3.5763    7.6108 H   0  0  0  0  0  0  0  0  0  0  0  0
   -1.2302    5.4756    8.8357 H   0  0  0  0  0  0  0  0  0  0  0  0
   -1.0700    4.0776    9.8765 H   0  0  0  0  0  0  0  0  0  0  0  0
    0.0824    5.3908    9.9903 H   0  0  0  0  0  0  0  0  0  0  0  0
    1.7121    5.8016    7.9996 H   0  0  0  0  0  0  0  0  0  0  0  0
    2.2685    6.8980    5.9460 H   0  0  0  0  0  0  0  0  0  0  0  0
    1.2383    7.9800    4.0436 H   0  0  0  0  0  0  0  0  0  0  0  0
    0.0692    6.6819    3.9053 H   0  0  0  0  0  0  0  0  0  0  0  0
    0.9535    9.6589    5.3826 H   0  0  0  0  0  0  0  0  0  0  0  0
   -0.4779   11.0422    6.7824 H   0  0  0  0  0  0  0  0  0  0  0  0
   -2.3381   10.0194    8.0315 H   0  0  0  0  0  0  0  0  0  0  0  0
   -3.0895    7.8794    7.2549 H   0  0  0  0  0  0  0  0  0  0  0  0
   -1.4484    6.2890    6.2107 H   0  0  0  0  0  0  0  0  0  0  0  0
    3.2848    5.0900    4.5490 H   0  0  0  0  0  0  0  0  0  0  0  0
    3.7095    6.0424    1.2465 H   0  0  0  0  0  0  0  0  0  0  0  0
    4.7830    4.9326    3.1574 H   0  0  0  0  0  0  0  0  0  0  0  0
    3.6404    3.6121    3.0382 H   0  0  0  0  0  0  0  0  0  0  0  0
    4.4444    1.6137    1.7514 H   0  0  0  0  0  0  0  0  0  0  0  0
    6.0127    1.2300   -0.3247 H   0  0  0  0  0  0  0  0  0  0  0  0
    7.0336    3.4986   -1.0365 H   0  0  0  0  0  0  0  0  0  0  0  0
    1.9622    3.9197    2.0273 H   0  0  0  0  0  0  0  0  0  0  0  0
    6.2022    2.2407   25.4409 H   0  0  0  0  0  0  0  0  0  0  0  0
    3.9759    4.1222   26.3404 H   0  0  0  0  0  0  0  0  0  0  0  0
    5.0959    4.4119   25.0065 H   0  0  0  0  0  0  0  0  0  0  0  0
    3.7289    3.4272   24.8576 H   0  0  0  0  0  0  0  0  0  0  0  0
    7.0049    4.2681   26.5860 H   0  0  0  0  0  0  0  0  0  0  0  0
    5.9011    3.9860   27.9077 H   0  0  0  0  0  0  0  0  0  0  0  0
    8.0990    2.1180   27.0339 H   0  0  0  0  0  0  0  0  0  0  0  0
    8.1378    3.1461   28.4501 H   0  0  0  0  0  0  0  0  0  0  0  0
    6.9907    1.8291   28.3570 H   0  0  0  0  0  0  0  0  0  0  0  0
    1.1455    2.4807   36.2541 H   0  0  0  0  0  0  0  0  0  0  0  0
    3.6239    1.7039   34.7921 H   0  0  0  0  0  0  0  0  0  0  0  0
    4.5788    3.8321   35.4610 H   0  0  0  0  0  0  0  0  0  0  0  0
    3.1272    4.0511   34.5070 H   0  0  0  0  0  0  0  0  0  0  0  0
    2.3387    2.8550   37.4712 H   0  0  0  0  0  0  0  0  0  0  0  0
    1.8633    4.0272   40.0199 H   0  0  0  0  0  0  0  0  0  0  0  0
    1.3742    6.1913   40.7471 H   0  0  0  0  0  0  0  0  0  0  0  0
    3.0869    7.5031   37.8840 H   0  0  0  0  0  0  0  0  0  0  0  0
    3.1270    6.3987   35.6267 H   0  0  0  0  0  0  0  0  0  0  0  0
    3.9135    2.3123   40.1586 H   0  0  0  0  0  0  0  0  0  0  0  0
    5.1818    2.5734   38.9810 H   0  0  0  0  0  0  0  0  0  0  0  0
    4.2589    4.7484   38.4575 H   0  0  0  0  0  0  0  0  0  0  0  0
    2.4318    5.4514   40.3512 H   0  0  0  0  0  0  0  0  0  0  0  0
    1.2538    2.6001   37.6287 H   0  0  0  0  0  0  0  0  0  0  0  0
    1.6340    0.5568   39.0517 H   0  0  0  0  0  0  0  0  0  0  0  0
    2.1154    1.5835   40.3839 H   0  0  0  0  0  0  0  0  0  0  0  0
   -0.2356    0.9239   40.5969 H   0  0  0  0  0  0  0  0  0  0  0  0
   -0.0943    2.6479   40.3645 H   0  0  0  0  0  0  0  0  0  0  0  0
   -1.8605    1.7211   38.9411 H   0  0  0  0  0  0  0  0  0  0  0  0
   -0.5576    2.3643   37.9688 H   0  0  0  0  0  0  0  0  0  0  0  0
    0.2711   -0.0053   37.7079 H   0  0  0  0  0  0  0  0  0  0  0  0
   -2.4090   -2.5690   37.1422 H   0  0  0  0  0  0  0  0  0  0  0  0
   -0.6925   -2.2264   36.9239 H   0  0  0  0  0  0  0  0  0  0  0  0
   -3.7817   -0.8874   38.1910 H   0  0  0  0  0  0  0  0  0  0  0  0
    6.5827    6.0285   40.9876 H   0  0  0  0  0  0  0  0  0  0  0  0
    6.0984    6.0834   39.2916 H   0  0  0  0  0  0  0  0  0  0  0  0
  1  2  1  0  0  0  0
  1132  1  0  0  0  0
  1133  1  0  0  0  0
  1134  1  0  0  0  0
  2  3  1  0  0  0  0
  2135  1  0  0  0  0
  2136  1  0  0  0  0
  3  4  1  0  0  0  0
  3137  1  0  0  0  0
  3138  1  0  0  0  0
  4  5  1  0  0  0  0
  4139  1  0  0  0  0
  4140  1  0  0  0  0
  5  6  1  0  0  0  0
  5141  1  0  0  0  0
  5142  1  0  0  0  0
  6  7  1  0  0  0  0
  6143  1  0  0  0  0
  6144  1  0  0  0  0
  7  8  2  0  0  0  0
  7  9  1  0  0  0  0
  9145  1  0  0  0  0
 10  9  1  0  0  0  0
 10 11  1  0  0  0  0
 10 95  1  0  0  0  0
 10146  1  0  0  0  0
 11 12  1  0  0  0  0
 11147  1  0  0  0  0
 11148  1  0  0  0  0
 12 13  1  0  0  0  0
 13 14  1  0  0  0  0
 14149  1  0  0  0  0
 14150  1  0  0  0  0
 15 14  1  0  0  0  0
 15 16  1  0  0  0  0
 15101  1  0  0  0  0
 15151  1  6  0  0  0
 16 17  1  0  0  0  0
 16152  1  0  0  0  0
 17 18  2  0  0  0  0
 19 17  1  0  0  0  0
 19 20  1  0  0  0  0
 19 22  1  0  0  0  0
 19153  1  0  0  0  0
 20 21  1  0  0  0  0
 20154  1  0  0  0  0
 20155  1  0  0  0  0
 21156  1  0  0  0  0
 22 23  1  0  0  0  0
 22157  1  0  0  0  0
 23 24  2  0  0  0  0
 25 23  1  0  0  0  0
 25 26  1  0  0  0  0
 25158  1  1  0  0  0
 25 97  1  0  0  0  0
 26 27  1  0  0  0  0
 26159  1  0  0  0  0
 27 28  2  0  0  0  0
 29 27  1  0  0  0  0
 29 30  1  0  0  0  0
 29 37  1  0  0  0  0
 29160  1  0  0  0  0
 30 31  1  0  0  0  0
 30161  1  0  0  0  0
 30162  1  0  0  0  0
 31 32  1  0  0  0  0
 31163  1  0  0  0  0
 31164  1  0  0  0  0
 32 33  1  0  0  0  0
 32165  1  0  0  0  0
 32166  1  0  0  0  0
 33 34  1  0  0  0  0
 33167  1  0  0  0  0
 34 35  1  0  0  0  0
 34 36  2  0  0  0  0
 35168  1  0  0  0  0
 35169  1  0  0  0  0
 36170  1  0  0  0  0
 37 38  1  0  0  0  0
 37171  1  0  0  0  0
 38 39  2  0  0  0  0
 40 38  1  0  0  0  0
 40 45  1  0  0  0  0
 40172  1  1  0  0  0
 40 41  1  0  0  0  0
 41 42  1  0  0  0  0
 41173  1  0  0  0  0
 41174  1  0  0  0  0
 42 43  1  0  0  0  0
 42 44  2  0  0  0  0
 43175  1  0  0  0  0
 45 46  1  0  0  0  0
 45176  1  0  0  0  0
 46 47  2  0  0  0  0
 48 46  1  0  0  0  0
 48 49  1  0  0  0  0
 48 53  1  0  0  0  0
 48177  1  6  0  0  0
 49 50  1  0  0  0  0
 49178  1  0  0  0  0
 49179  1  0  0  0  0
 50 51  1  0  0  0  0
 50180  1  0  0  0  0
 50181  1  0  0  0  0
 51 52  1  0  0  0  0
 51182  1  0  0  0  0
 51183  1  0  0  0  0
 52184  1  0  0  0  0
 52185  1  0  0  0  0
 52186  1  0  0  0  0
 53 54  1  0  0  0  0
 53187  1  0  0  0  0
 54 55  2  0  0  0  0
 56 54  1  0  0  0  0
 56 57  1  0  0  0  0
 56 64  1  0  0  0  0
 56188  1  0  0  0  0
 57 58  1  0  0  0  0
 57189  1  0  0  0  0
 57190  1  0  0  0  0
 58 59  1  0  0  0  0
 58191  1  0  0  0  0
 58192  1  0  0  0  0
 59 60  1  0  0  0  0
 59193  1  0  0  0  0
 59194  1  0  0  0  0
 60 61  1  0  0  0  0
 60195  1  0  0  0  0
 61 62  1  0  0  0  0
 61 63  2  0  0  0  0
 62196  1  0  0  0  0
 62197  1  0  0  0  0
 63198  1  0  0  0  0
 64 65  1  0  0  0  0
 64199  1  0  0  0  0
 65 66  2  0  0  0  0
 65 67  1  0  0  0  0
 67 68  1  0  0  0  0
 67200  1  0  0  0  0
 67201  1  0  0  0  0
 68 69  1  0  0  0  0
 68202  1  0  0  0  0
 69 70  2  0  0  0  0
 71 69  1  0  0  0  0
 71 72  1  0  0  0  0
 71 73  1  0  0  0  0
 71203  1  6  0  0  0
 72204  1  0  0  0  0
 72205  1  0  0  0  0
 72206  1  0  0  0  0
 73 74  1  0  0  0  0
 73207  1  0  0  0  0
 74 75  2  0  0  0  0
 76 74  1  0  0  0  0
 76 84  1  0  0  0  0
 76208  1  1  0  0  0
 76 77  1  0  0  0  0
 77 78  1  0  0  0  0
 77209  1  0  0  0  0
 77210  1  0  0  0  0
 78 79  2  0  0  0  0
 78 83  1  0  0  0  0
 79 80  1  0  0  0  0
 79211  1  0  0  0  0
 80 81  2  0  0  0  0
 80212  1  0  0  0  0
 81 82  1  0  0  0  0
 81213  1  0  0  0  0
 82 83  2  0  0  0  0
 82214  1  0  0  0  0
 83215  1  0  0  0  0
 84 85  1  0  0  0  0
 84216  1  0  0  0  0
 85 86  2  0  0  0  0
 87 85  1  0  0  0  0
 87 88  1  0  0  0  0
 87 94  1  0  0  0  0
 87217  1  0  0  0  0
 88 89  1  0  0  0  0
 88218  1  0  0  0  0
 88219  1  0  0  0  0
 89 90  2  0  0  0  0
 89 93  1  0  0  0  0
 90 91  1  0  0  0  0
 90220  1  0  0  0  0
 91 92  1  0  0  0  0
 91221  1  0  0  0  0
 92 93  2  0  0  0  0
 92222  1  0  0  0  0
 94 95  1  0  0  0  0
 94223  1  0  0  0  0
 95 96  2  0  0  0  0
 97 98  1  0  0  0  0
 97 99  1  0  0  0  0
 97224  1  6  0  0  0
 98225  1  0  0  0  0
 98226  1  0  0  0  0
 98227  1  0  0  0  0
 99100  1  0  0  0  0
 99228  1  0  0  0  0
 99229  1  0  0  0  0
100230  1  0  0  0  0
100231  1  0  0  0  0
100232  1  0  0  0  0
101102  2  0  0  0  0
101103  1  0  0  0  0
103233  1  0  0  0  0
104103  1  0  0  0  0
104105  1  0  0  0  0
104113  1  0  0  0  0
104234  1  6  0  0  0
105106  1  0  0  0  0
105235  1  0  0  0  0
105236  1  0  0  0  0
106107  2  0  0  0  0
106112  1  0  0  0  0
107108  1  0  0  0  0
107237  1  0  0  0  0
108109  2  0  0  0  0
108238  1  0  0  0  0
109110  1  0  0  0  0
109111  1  0  0  0  0
110239  1  0  0  0  0
111112  2  0  0  0  0
111240  1  0  0  0  0
112241  1  0  0  0  0
113114  2  0  0  0  0
113115  1  0  0  0  0
115116  1  0  0  0  0
116242  1  0  0  0  0
116243  1  0  0  0  0
117116  1  0  0  0  0
117118  1  0  0  0  0
117129  1  0  0  0  0
117244  1  6  0  0  0
118119  1  0  0  0  0
118245  1  0  0  0  0
119120  2  0  0  0  0
121119  1  0  0  0  0
121115  1  0  0  0  0
121122  1  0  0  0  0
121246  1  6  0  0  0
122123  1  0  0  0  0
122247  1  0  0  0  0
122248  1  0  0  0  0
123124  1  0  0  0  0
123249  1  0  0  0  0
123250  1  0  0  0  0
124125  1  0  0  0  0
124251  1  0  0  0  0
124252  1  0  0  0  0
125126  1  0  0  0  0
125253  1  0  0  0  0
126127  1  0  0  0  0
126128  2  0  0  0  0
127254  1  0  0  0  0
127255  1  0  0  0  0
128256  1  0  0  0  0
129130  1  0  0  0  0
129131  2  0  0  0  0
130257  1  0  0  0  0
130258  1  0  0  0  0
M  END
>  <DRUGBANK_ID>
DB15355

>  <COMMON_NAME>
PL-3994

>  <CAS_NUMBER>
952295-80-6

>  <UNII>
YI2S0GUQ2C

$$$$
