3UN
 OpenBabel10282417163D

 65 65  0  0  0  0  0  0  0  0999 V2000
    0.9327    0.0685   -0.1342 N   0  0  0  0  0  0  0  0  0  0  0  0
   -4.9189    1.3425    4.6322 O   0  0  0  0  0  0  0  0  0  0  0  0
   -4.1048    1.7105    3.7933 C   0  0  0  0  0  0  0  0  0  0  0  0
   -3.8583    1.0290    2.6440 O   0  0  0  0  0  0  0  0  0  0  0  0
   -4.3687   -0.3218    2.4858 C   0  0  0  0  0  0  0  0  0  0  0  0
   -4.1407   -1.2791    3.6658 C   0  0  0  0  0  0  0  0  0  0  0  0
   -3.1483    2.9257    3.9833 C   0  0  0  0  0  0  0  0  0  0  0  0
   -3.8072    3.6946    5.2278 C   0  0  0  0  0  0  0  0  0  0  0  0
   -3.2891    5.0717    5.6513 C   0  0  0  0  0  0  0  0  0  0  0  0
   -3.3304    6.0288    4.5666 N   0  0  0  0  0  0  0  0  0  0  0  0
   -3.9247    7.2268    4.5181 C   0  0  0  0  0  0  0  0  0  0  0  0
   -3.9222    7.8592    3.4569 O   0  0  0  0  0  0  0  0  0  0  0  0
   -4.4379    7.6094    5.6970 O   0  0  0  0  0  0  0  0  0  0  0  0
   -5.0704    8.8977    5.7723 C   0  0  0  0  0  0  0  0  0  0  0  0
   -4.0722   10.0126    5.4465 C   0  0  0  0  0  0  0  0  0  0  0  0
   -6.3022    8.9408    4.8657 C   0  0  0  0  0  0  0  0  0  0  0  0
   -5.5271    9.0659    7.2272 C   0  0  0  0  0  0  0  0  0  0  0  0
   -3.4113    3.8696    2.7596 C   0  0  0  0  0  0  0  0  0  0  0  0
   -2.4883    4.7984    2.3454 O   0  0  0  0  0  0  0  0  0  0  0  0
   -1.0983    4.5407    2.4781 C   0  0  0  0  0  0  0  0  0  0  0  0
   -0.5722    5.0064    3.8282 C   0  0  0  0  0  0  0  0  0  0  0  0
   -4.5568    4.0001    2.3193 O   0  0  0  0  0  0  0  0  0  0  0  0
   -1.7082    2.2997    4.4153 C   0  0  0  0  0  0  0  0  0  0  0  0
   -0.7821    1.6164    3.3932 C   0  0  0  0  0  0  0  0  0  0  0  0
    0.4004    2.1438    2.8307 C   0  0  0  0  0  0  0  0  0  0  0  0
    0.8674    1.7018    1.5906 C   0  0  0  0  0  0  0  0  0  0  0  0
   -1.1970    0.4182    2.8701 C   0  0  0  0  0  0  0  0  0  0  0  0
   -0.6405   -0.1407    1.7320 C   0  0  0  0  0  0  0  0  0  0  0  0
    0.3343    0.5511    1.0401 C   0  0  0  0  0  0  0  0  0  0  0  0
    0.1080   -0.7210   -1.3299 S   0  0  0  0  0  0  0  0  0  0  0  0
    0.3799   -0.0124   -2.5567 O   0  0  0  0  0  0  0  0  0  0  0  0
    0.3818   -2.1330   -1.2114 O   0  0  0  0  0  0  0  0  0  0  0  0
   -1.4588   -0.5309   -1.0278 O   0  0  0  0  0  0  0  0  0  0  0  0
    1.9451   -0.0107   -0.1505 H   0  0  0  0  0  0  0  0  0  0  0  0
   -5.4231   -0.2746    2.2084 H   0  0  0  0  0  0  0  0  0  0  0  0
   -3.8250   -0.7352    1.6250 H   0  0  0  0  0  0  0  0  0  0  0  0
   -4.5439   -0.8954    4.6028 H   0  0  0  0  0  0  0  0  0  0  0  0
   -4.6042   -2.2463    3.4644 H   0  0  0  0  0  0  0  0  0  0  0  0
   -3.0868   -1.4935    3.8645 H   0  0  0  0  0  0  0  0  0  0  0  0
   -4.8819    3.8337    5.0269 H   0  0  0  0  0  0  0  0  0  0  0  0
   -3.7553    3.0444    6.1112 H   0  0  0  0  0  0  0  0  0  0  0  0
   -3.8756    5.4546    6.4884 H   0  0  0  0  0  0  0  0  0  0  0  0
   -2.2767    5.0044    6.0571 H   0  0  0  0  0  0  0  0  0  0  0  0
   -2.9326    5.8484    3.6520 H   0  0  0  0  0  0  0  0  0  0  0  0
   -3.6883    9.9444    4.4254 H   0  0  0  0  0  0  0  0  0  0  0  0
   -4.5382   10.9951    5.5526 H   0  0  0  0  0  0  0  0  0  0  0  0
   -3.1991    9.9556    6.1066 H   0  0  0  0  0  0  0  0  0  0  0  0
   -6.9971    8.1321    5.1199 H   0  0  0  0  0  0  0  0  0  0  0  0
   -6.8191    9.8990    4.9575 H   0  0  0  0  0  0  0  0  0  0  0  0
   -6.0465    8.8052    3.8115 H   0  0  0  0  0  0  0  0  0  0  0  0
   -6.2213    8.2701    7.5214 H   0  0  0  0  0  0  0  0  0  0  0  0
   -4.6790    9.0108    7.9198 H   0  0  0  0  0  0  0  0  0  0  0  0
   -6.0260   10.0298    7.3687 H   0  0  0  0  0  0  0  0  0  0  0  0
   -1.1164    3.4980    2.2604 H   0  0  0  0  0  0  0  0  0  0  0  0
   -0.4705    4.9294    1.6742 H   0  0  0  0  0  0  0  0  0  0  0  0
   -1.2876    4.7302    4.5675 H   0  0  0  0  0  0  0  0  0  0  0  0
    0.3578    4.5699    4.1978 H   0  0  0  0  0  0  0  0  0  0  0  0
   -0.5230    6.0868    3.9284 H   0  0  0  0  0  0  0  0  0  0  0  0
   -1.8980    1.5850    5.2304 H   0  0  0  0  0  0  0  0  0  0  0  0
   -1.0744    2.9960    4.9519 H   0  0  0  0  0  0  0  0  0  0  0  0
    0.8884    3.0387    3.1916 H   0  0  0  0  0  0  0  0  0  0  0  0
    1.6063    2.2926    1.0487 H   0  0  0  0  0  0  0  0  0  0  0  0
   -2.0119   -0.0689    3.3533 H   0  0  0  0  0  0  0  0  0  0  0  0
   -1.0179   -1.0981    1.3982 H   0  0  0  0  0  0  0  0  0  0  0  0
   -1.9606   -0.9544   -1.7524 H   0  0  0  0  0  0  0  0  0  0  0  0
  1 29  1  0  0  0  0
  1 30  1  0  0  0  0
  1 34  1  0  0  0  0
  2  3  2  0  0  0  0
  3  4  1  0  0  0  0
  3  7  1  0  0  0  0
  4  5  1  0  0  0  0
  5  6  1  0  0  0  0
  5 35  1  0  0  0  0
  5 36  1  0  0  0  0
  6 37  1  0  0  0  0
  6 38  1  0  0  0  0
  6 39  1  0  0  0  0
  7  8  1  0  0  0  0
  7 18  1  0  0  0  0
  7 23  1  0  0  0  0
  8  9  1  0  0  0  0
  8 40  1  0  0  0  0
  8 41  1  0  0  0  0
  9 10  1  0  0  0  0
  9 42  1  0  0  0  0
  9 43  1  0  0  0  0
 10 11  1  0  0  0  0
 10 44  1  0  0  0  0
 11 12  2  0  0  0  0
 11 13  1  0  0  0  0
 13 14  1  0  0  0  0
 14 15  1  0  0  0  0
 14 16  1  0  0  0  0
 14 17  1  0  0  0  0
 15 45  1  0  0  0  0
 15 46  1  0  0  0  0
 15 47  1  0  0  0  0
 16 48  1  0  0  0  0
 16 49  1  0  0  0  0
 16 50  1  0  0  0  0
 17 51  1  0  0  0  0
 17 52  1  0  0  0  0
 17 53  1  0  0  0  0
 18 19  1  0  0  0  0
 18 22  2  0  0  0  0
 19 20  1  0  0  0  0
 20 21  1  0  0  0  0
 20 54  1  0  0  0  0
 20 55  1  0  0  0  0
 21 56  1  0  0  0  0
 21 57  1  0  0  0  0
 21 58  1  0  0  0  0
 23 24  1  0  0  0  0
 23 59  1  0  0  0  0
 23 60  1  0  0  0  0
 24 25  2  0  0  0  0
 24 27  1  0  0  0  0
 25 26  1  0  0  0  0
 25 61  1  0  0  0  0
 26 29  2  0  0  0  0
 26 62  1  0  0  0  0
 27 28  2  0  0  0  0
 27 63  1  0  0  0  0
 28 29  1  0  0  0  0
 28 64  1  0  0  0  0
 30 31  2  0  0  0  0
 30 32  2  0  0  0  0
 30 33  1  0  0  0  0
 33 65  1  0  0  0  0
M  END
>  <DRUGBANK_ID>
DB07068

>  <COMMON_NAME>
(4-{4-[(TERT-BUTOXYCARBONYL)AMINO]-2,2-BIS(ETHOXYCARBONYL)BUTYL}PHENYL)SULFAMIC ACID

$$$$
