
 OpenBabel10282417203D

 49 51  0  0  1  0  0  0  0  0999 V2000
    1.0736    0.0532   -0.3369 C   0  0  0  0  0  0  0  0  0  0  0  0
    0.6968   -1.4452   -0.4886 C   0  0  1  0  0  0  0  0  0  0  0  0
    1.4432   -2.2217    0.6991 C   0  0  1  0  0  0  0  0  0  0  0  0
    1.0671   -2.1012    2.1755 C   0  0  0  0  0  0  0  0  0  0  0  0
    0.7415   -3.1933    3.0049 C   0  0  0  0  0  0  0  0  0  0  0  0
    0.3768   -3.0063    4.3544 C   0  0  0  0  0  0  0  0  0  0  0  0
    0.3885   -1.7361    4.9218 C   0  0  0  0  0  0  0  0  0  0  0  0
    0.7370   -0.6574    4.1399 C   0  0  0  0  0  0  0  0  0  0  0  0
    1.0547   -0.8540    2.7992 C   0  0  0  0  0  0  0  0  0  0  0  0
    1.3432   -3.5808    0.3429 O   0  0  0  0  0  0  0  0  0  0  0  0
   -0.7112   -1.7070   -0.8831 N   0  0  0  0  0  0  0  0  0  0  0  0
   -1.5191   -2.9141   -0.9849 C   0  0  0  0  0  0  0  0  0  0  0  0
   -1.6292   -3.9133    0.1699 C   0  0  0  0  0  0  0  0  0  0  0  0
   -2.0026   -3.3754    1.4820 N   0  0  0  0  0  0  0  0  0  0  0  0
   -2.2408   -4.2854    2.5077 C   0  0  0  0  0  0  0  0  0  0  0  0
   -2.5785   -3.6898    3.6307 N   0  0  0  0  0  0  0  0  0  0  0  0
   -2.4702   -2.3480    3.3716 C   0  0  0  0  0  0  0  0  0  0  0  0
   -2.1105   -2.0952    2.0723 C   0  0  0  0  0  0  0  0  0  0  0  0
   -1.8541   -0.6950    1.7186 C   0  0  0  0  0  0  0  0  0  0  0  0
   -1.6638   -0.2378    0.6207 O   0  0  0  0  0  0  0  0  0  0  0  0
   -1.8406    0.2622    2.7251 N   0  0  0  0  0  0  0  0  0  0  0  0
   -2.2102   -0.0099    4.0123 C   0  0  0  0  0  0  0  0  0  0  0  0
   -2.1679    0.8879    4.8608 O   0  0  0  0  0  0  0  0  0  0  0  0
   -2.5690   -1.3278    4.3203 N   0  0  0  0  0  0  0  0  0  0  0  0
   -2.8455   -1.6089    5.7063 C   0  0  0  0  0  0  0  0  0  0  0  0
   -1.3386    1.6026    2.3455 C   0  0  0  0  0  0  0  0  0  0  0  0
    0.6971    0.5185    0.5642 H   0  0  0  0  0  0  0  0  0  0  0  0
    0.7135    0.7120   -1.1277 H   0  0  0  0  0  0  0  0  0  0  0  0
    2.1670    0.1310   -0.2697 H   0  0  0  0  0  0  0  0  0  0  0  0
    1.1903   -1.7449   -1.4178 H   0  0  0  0  0  0  0  0  0  0  0  0
    2.5091   -1.9935    0.6273 H   0  0  0  0  0  0  0  0  0  0  0  0
    0.6233   -4.1952    2.5922 H   0  0  0  0  0  0  0  0  0  0  0  0
   -0.0749   -3.8259    4.9144 H   0  0  0  0  0  0  0  0  0  0  0  0
   -0.0312   -1.5470    5.9055 H   0  0  0  0  0  0  0  0  0  0  0  0
    0.6040    0.3599    4.5045 H   0  0  0  0  0  0  0  0  0  0  0  0
    1.1746    0.0491    2.2373 H   0  0  0  0  0  0  0  0  0  0  0  0
    0.4297   -3.5107    0.0705 H   0  0  0  0  0  0  0  0  0  0  0  0
   -1.3031   -1.0235   -0.4115 H   0  0  0  0  0  0  0  0  0  0  0  0
   -2.5672   -2.5900   -1.1229 H   0  0  0  0  0  0  0  0  0  0  0  0
   -1.2639   -3.3988   -1.9322 H   0  0  0  0  0  0  0  0  0  0  0  0
   -2.3441   -4.7085   -0.0971 H   0  0  0  0  0  0  0  0  0  0  0  0
   -0.7532   -4.5698    0.2692 H   0  0  0  0  0  0  0  0  0  0  0  0
   -2.1024   -5.3581    2.3688 H   0  0  0  0  0  0  0  0  0  0  0  0
   -3.8362   -2.0500    5.7736 H   0  0  0  0  0  0  0  0  0  0  0  0
   -2.0947   -2.2845    6.1234 H   0  0  0  0  0  0  0  0  0  0  0  0
   -2.8200   -0.6904    6.3007 H   0  0  0  0  0  0  0  0  0  0  0  0
   -0.2727    1.5580    2.0937 H   0  0  0  0  0  0  0  0  0  0  0  0
   -1.8326    1.9548    1.4330 H   0  0  0  0  0  0  0  0  0  0  0  0
   -1.4313    2.3495    3.1344 H   0  0  0  0  0  0  0  0  0  0  0  0
  1 27  1  0  0  0  0
  1 28  1  0  0  0  0
  1 29  1  0  0  0  0
  2  1  1  0  0  0  0
  2  3  1  0  0  0  0
  2 11  1  0  0  0  0
  2 30  1  6  0  0  0
  3  4  1  0  0  0  0
  3 10  1  0  0  0  0
  3 31  1  6  0  0  0
  4  5  2  0  0  0  0
  4  9  1  0  0  0  0
  5  6  1  0  0  0  0
  5 32  1  0  0  0  0
  6  7  2  0  0  0  0
  6 33  1  0  0  0  0
  7  8  1  0  0  0  0
  7 34  1  0  0  0  0
  8  9  2  0  0  0  0
  8 35  1  0  0  0  0
  9 36  1  0  0  0  0
 10 37  1  0  0  0  0
 11 12  1  0  0  0  0
 11 38  1  0  0  0  0
 12 13  1  0  0  0  0
 12 39  1  0  0  0  0
 12 40  1  0  0  0  0
 13 14  1  0  0  0  0
 13 41  1  0  0  0  0
 13 42  1  0  0  0  0
 14 15  1  0  0  0  0
 14 18  1  0  0  0  0
 15 16  2  0  0  0  0
 15 43  1  0  0  0  0
 16 17  1  0  0  0  0
 17 18  2  0  0  0  0
 17 24  1  0  0  0  0
 18 19  1  0  0  0  0
 19 20  2  0  0  0  0
 19 21  1  0  0  0  0
 21 22  1  0  0  0  0
 21 26  1  0  0  0  0
 22 23  2  0  0  0  0
 22 24  1  0  0  0  0
 24 25  1  0  0  0  0
 25 44  1  0  0  0  0
 25 45  1  0  0  0  0
 25 46  1  0  0  0  0
 26 47  1  0  0  0  0
 26 48  1  0  0  0  0
 26 49  1  0  0  0  0
M  END
>  <DRUGBANK_ID>
DB12926

>  <COMMON_NAME>
Cafedrine

>  <CAS_NUMBER>
58166-83-9

>  <UNII>
0UYY5V4U2Q

>  <SYNONYMS>
Cafedrine

$$$$
