NC3
 OpenBabel10282417173D

 30 30  0  0  0  0  0  0  0  0999 V2000
   -1.4435    0.3295   -0.3129 C   0  0  0  0  0  0  0  0  0  0  0  0
   -1.6305    0.3577   -1.7758 N   0  0  0  0  0  0  0  0  0  0  0  0
   -2.8457    0.6447   -2.3500 C   0  0  0  0  0  0  0  0  0  0  0  0
   -2.8485    0.5919   -3.7228 N   0  0  0  0  0  0  0  0  0  0  0  0
   -4.0545    0.9277   -4.4872 C   0  0  0  0  0  0  0  0  0  0  0  0
   -3.9187    2.1967   -5.3336 C   0  0  0  0  0  0  0  0  0  0  0  0
   -4.1986    2.0397   -6.6516 O   0  0  0  0  0  0  0  0  0  0  0  0
   -3.8561    0.8792   -1.6979 O   0  0  0  0  0  0  0  0  0  0  0  0
   -3.5646    3.2848   -4.8937 O   0  0  0  0  0  0  0  0  0  0  0  0
   -1.0011   -1.0578    0.1797 C   0  0  0  0  0  0  0  0  0  0  0  0
    0.4281   -1.3931   -0.2443 C   0  0  0  0  0  0  0  0  0  0  0  0
    1.4145   -0.3270    0.2243 C   0  0  0  0  0  0  0  0  0  0  0  0
    0.9971    1.0649   -0.2431 C   0  0  0  0  0  0  0  0  0  0  0  0
   -0.4396    1.3921    0.1639 C   0  0  0  0  0  0  0  0  0  0  0  0
   -2.4082    0.5539    0.1571 H   0  0  0  0  0  0  0  0  0  0  0  0
   -0.8285    0.1930   -2.3640 H   0  0  0  0  0  0  0  0  0  0  0  0
   -1.9749    0.4996   -4.2180 H   0  0  0  0  0  0  0  0  0  0  0  0
   -4.2909    0.0699   -5.1245 H   0  0  0  0  0  0  0  0  0  0  0  0
   -4.9088    1.0837   -3.8196 H   0  0  0  0  0  0  0  0  0  0  0  0
   -4.4595    1.1482   -6.9489 H   0  0  0  0  0  0  0  0  0  0  0  0
   -1.0493   -1.0778    1.2782 H   0  0  0  0  0  0  0  0  0  0  0  0
   -1.6881   -1.8316   -0.1794 H   0  0  0  0  0  0  0  0  0  0  0  0
    0.7180   -2.3677    0.1642 H   0  0  0  0  0  0  0  0  0  0  0  0
    0.4754   -1.4789   -1.3358 H   0  0  0  0  0  0  0  0  0  0  0  0
    1.4783   -0.3428    1.3200 H   0  0  0  0  0  0  0  0  0  0  0  0
    2.4162   -0.5587   -0.1550 H   0  0  0  0  0  0  0  0  0  0  0  0
    1.6804    1.8122    0.1764 H   0  0  0  0  0  0  0  0  0  0  0  0
    1.0897    1.1259   -1.3332 H   0  0  0  0  0  0  0  0  0  0  0  0
   -0.7171    2.3819   -0.2142 H   0  0  0  0  0  0  0  0  0  0  0  0
   -0.4805    1.4507    1.2614 H   0  0  0  0  0  0  0  0  0  0  0  0
  1  2  1  0  0  0  0
  1 10  1  0  0  0  0
  1 14  1  0  0  0  0
  1 15  1  0  0  0  0
  2  3  1  0  0  0  0
  2 16  1  0  0  0  0
  3  4  1  0  0  0  0
  3  8  2  0  0  0  0
  4  5  1  0  0  0  0
  4 17  1  0  0  0  0
  5  6  1  0  0  0  0
  5 18  1  0  0  0  0
  5 19  1  0  0  0  0
  6  7  1  0  0  0  0
  6  9  2  0  0  0  0
  7 20  1  0  0  0  0
 10 11  1  0  0  0  0
 10 21  1  0  0  0  0
 10 22  1  0  0  0  0
 11 12  1  0  0  0  0
 11 23  1  0  0  0  0
 11 24  1  0  0  0  0
 12 13  1  0  0  0  0
 12 25  1  0  0  0  0
 12 26  1  0  0  0  0
 13 14  1  0  0  0  0
 13 27  1  0  0  0  0
 13 28  1  0  0  0  0
 14 29  1  0  0  0  0
 14 30  1  0  0  0  0
M  END
>  <DRUGBANK_ID>
DB08256

>  <COMMON_NAME>
N-[(CYCLOHEXYLAMINO)CARBONYL]GLYCINE

$$$$
