II4
 OpenBabel10282417173D

 30 32  0  0  0  0  0  0  0  0999 V2000
   -2.1386   -0.7302    0.0359 C   0  0  0  0  0  0  0  0  0  0  0  0
   -0.9047   -1.3971    0.0136 C   0  0  0  0  0  0  0  0  0  0  0  0
    0.2887   -0.6506    0.0143 C   0  0  0  0  0  0  0  0  0  0  0  0
    0.2200    0.7411    0.0467 C   0  0  0  0  0  0  0  0  0  0  0  0
   -0.9923    1.4343    0.0363 C   0  0  0  0  0  0  0  0  0  0  0  0
    2.1796    5.3619    2.4958 C   0  0  0  0  0  0  0  0  0  0  0  0
    1.5350    1.1524    0.0040 N   0  0  0  0  0  0  0  0  0  0  0  0
    2.3159    0.0225   -0.0583 C   0  0  0  0  0  0  0  0  0  0  0  0
    1.5913   -1.0823   -0.0355 N   0  0  0  0  0  0  0  0  0  0  0  0
   -3.3273   -1.4396   -0.0964 N   0  0  0  0  0  0  0  0  0  0  0  0
    2.2992    4.5572    1.2342 C   0  0  0  0  0  0  0  0  0  0  0  0
    1.6909    3.3005    1.1212 C   0  0  0  0  0  0  0  0  0  0  0  0
   -2.1634    0.6686    0.0187 C   0  0  0  0  0  0  0  0  0  0  0  0
    2.8194    2.9427   -1.0057 C   0  0  0  0  0  0  0  0  0  0  0  0
    2.0085    2.4805    0.0313 C   0  0  0  0  0  0  0  0  0  0  0  0
    3.3018    4.2499   -0.9587 C   0  0  0  0  0  0  0  0  0  0  0  0
    3.0851    5.0340    0.1769 C   0  0  0  0  0  0  0  0  0  0  0  0
   -0.8501   -2.4793   -0.0159 H   0  0  0  0  0  0  0  0  0  0  0  0
   -1.0309    2.5182    0.0058 H   0  0  0  0  0  0  0  0  0  0  0  0
    3.1703    5.4793    2.9507 H   0  0  0  0  0  0  0  0  0  0  0  0
    1.7617    6.3507    2.2877 H   0  0  0  0  0  0  0  0  0  0  0  0
    1.5389    4.8645    3.2310 H   0  0  0  0  0  0  0  0  0  0  0  0
    3.3937    0.0621   -0.0640 H   0  0  0  0  0  0  0  0  0  0  0  0
   -3.3236   -2.4407    0.0537 H   0  0  0  0  0  0  0  0  0  0  0  0
   -4.2043   -0.9559    0.0516 H   0  0  0  0  0  0  0  0  0  0  0  0
    1.0389    2.9411    1.9141 H   0  0  0  0  0  0  0  0  0  0  0  0
   -3.1168    1.1905   -0.0139 H   0  0  0  0  0  0  0  0  0  0  0  0
    3.0368    2.3234   -1.8730 H   0  0  0  0  0  0  0  0  0  0  0  0
    3.8631    4.6548   -1.7965 H   0  0  0  0  0  0  0  0  0  0  0  0
    3.5473    6.0178    0.2394 H   0  0  0  0  0  0  0  0  0  0  0  0
  1  2  1  0  0  0  0
  1 10  1  0  0  0  0
  1 13  2  0  0  0  0
  2  3  2  0  0  0  0
  2 18  1  0  0  0  0
  3  4  1  0  0  0  0
  3  9  1  0  0  0  0
  4  5  2  0  0  0  0
  4  7  1  0  0  0  0
  5 13  1  0  0  0  0
  5 19  1  0  0  0  0
  6 11  1  0  0  0  0
  6 20  1  0  0  0  0
  6 21  1  0  0  0  0
  6 22  1  0  0  0  0
  7  8  1  0  0  0  0
  7 15  1  0  0  0  0
  8  9  2  0  0  0  0
  8 23  1  0  0  0  0
 10 24  1  0  0  0  0
 10 25  1  0  0  0  0
 11 12  1  0  0  0  0
 11 17  2  0  0  0  0
 12 15  2  0  0  0  0
 12 26  1  0  0  0  0
 13 27  1  0  0  0  0
 14 15  1  0  0  0  0
 14 16  2  0  0  0  0
 14 28  1  0  0  0  0
 16 17  1  0  0  0  0
 16 29  1  0  0  0  0
 17 30  1  0  0  0  0
M  END
>  <DRUGBANK_ID>
DB07972

>  <COMMON_NAME>
1-(3-METHYLPHENYL)-1H-BENZIMIDAZOL-5-AMINE

$$$$
