
 OpenBabel10282417183D

 54 55  0  0  0  0  0  0  0  0999 V2000
    1.4001    0.1340    0.7782 C   0  0  0  0  0  0  0  0  0  0  0  0
    3.2043   -2.1408   -4.9728 C   0  0  0  0  0  0  0  0  0  0  0  0
    0.7634    1.5073    1.0665 C   0  0  0  0  0  0  0  0  0  0  0  0
    2.3176   -1.0031   -4.5842 C   0  0  0  0  0  0  0  0  0  0  0  0
    0.9798    2.7299    0.1120 C   0  0  0  0  0  0  0  0  0  0  0  0
    0.9074   -1.1909   -5.3425 C   0  0  0  0  0  0  0  0  0  0  0  0
    0.1645    2.7367   -1.1561 C   0  0  0  0  0  0  0  0  0  0  0  0
   -1.6221    1.1751   -0.8620 C   0  0  0  0  0  0  0  0  0  0  0  0
   -0.8440   -0.2084   -1.0016 C   0  0  0  0  0  0  0  0  0  0  0  0
    0.9938    0.6243   -2.5501 C   0  0  0  0  0  0  0  0  0  0  0  0
    0.2094    0.8020   -3.7791 C   0  0  0  0  0  0  0  0  0  0  0  0
    0.4184   -3.4519   -4.7894 C   0  0  0  0  0  0  0  0  0  0  0  0
   -1.7130   -2.9875   -3.0029 C   0  0  0  0  0  0  0  0  0  0  0  0
   -1.8235   -0.4711   -3.6252 C   0  0  0  0  0  0  0  0  0  0  0  0
   -0.9246   -6.3933   -3.5311 C   0  0  0  0  0  0  0  0  0  0  0  0
   -0.0176   -2.1796   -4.5997 C   0  0  0  0  0  0  0  0  0  0  0  0
   -1.1533   -1.8748   -3.7416 C   0  0  0  0  0  0  0  0  0  0  0  0
   -0.2303   -4.5067   -4.1240 C   0  0  0  0  0  0  0  0  0  0  0  0
   -1.2578   -4.2442   -3.2616 C   0  0  0  0  0  0  0  0  0  0  0  0
   -1.1591    2.3795   -1.4851 O   0  0  0  0  0  0  0  0  0  0  0  0
    0.3862   -0.3393   -1.7218 O   0  0  0  0  0  0  0  0  0  0  0  0
   -1.1750    0.7166   -4.0954 O   0  0  0  0  0  0  0  0  0  0  0  0
    0.0604   -5.7708   -4.3707 O   0  0  0  0  0  0  0  0  0  0  0  0
   -1.7839   -5.4510   -2.8457 O   0  0  0  0  0  0  0  0  0  0  0  0
    1.2621   -0.2187   -0.1937 H   0  0  0  0  0  0  0  0  0  0  0  0
    0.8991   -0.6914    1.3074 H   0  0  0  0  0  0  0  0  0  0  0  0
    2.4822    0.0955    0.7049 H   0  0  0  0  0  0  0  0  0  0  0  0
    3.1244   -2.2402   -6.0522 H   0  0  0  0  0  0  0  0  0  0  0  0
    4.2357   -2.0170   -4.6514 H   0  0  0  0  0  0  0  0  0  0  0  0
    2.8446   -3.0349   -4.4608 H   0  0  0  0  0  0  0  0  0  0  0  0
   -0.2984    1.3473    1.2166 H   0  0  0  0  0  0  0  0  0  0  0  0
    1.1289    1.8008    2.0380 H   0  0  0  0  0  0  0  0  0  0  0  0
    2.7825   -0.0290   -4.8074 H   0  0  0  0  0  0  0  0  0  0  0  0
    2.3136   -1.0866   -3.4836 H   0  0  0  0  0  0  0  0  0  0  0  0
    0.7596    3.6846    0.5651 H   0  0  0  0  0  0  0  0  0  0  0  0
    2.0410    2.6949   -0.2082 H   0  0  0  0  0  0  0  0  0  0  0  0
    1.0574   -1.3688   -6.3962 H   0  0  0  0  0  0  0  0  0  0  0  0
    0.3073   -0.3006   -5.5220 H   0  0  0  0  0  0  0  0  0  0  0  0
    0.6279    3.3104   -1.9894 H   0  0  0  0  0  0  0  0  0  0  0  0
    0.4994    1.7535   -1.1399 H   0  0  0  0  0  0  0  0  0  0  0  0
   -1.7340    1.4664    0.1705 H   0  0  0  0  0  0  0  0  0  0  0  0
   -2.6652    1.0286   -1.1523 H   0  0  0  0  0  0  0  0  0  0  0  0
   -0.9597   -0.8211   -0.0891 H   0  0  0  0  0  0  0  0  0  0  0  0
   -1.3955   -1.0024   -1.4776 H   0  0  0  0  0  0  0  0  0  0  0  0
    1.1738    1.6746   -2.5286 H   0  0  0  0  0  0  0  0  0  0  0  0
    2.0914    0.4717   -2.4594 H   0  0  0  0  0  0  0  0  0  0  0  0
    0.7514    1.4240   -4.4981 H   0  0  0  0  0  0  0  0  0  0  0  0
    0.4424   -0.1997   -3.8197 H   0  0  0  0  0  0  0  0  0  0  0  0
    1.2067   -3.6944   -5.4667 H   0  0  0  0  0  0  0  0  0  0  0  0
   -2.5137   -2.8503   -2.2626 H   0  0  0  0  0  0  0  0  0  0  0  0
   -1.9661   -0.0798   -2.6608 H   0  0  0  0  0  0  0  0  0  0  0  0
   -2.9193   -0.5535   -3.6960 H   0  0  0  0  0  0  0  0  0  0  0  0
   -1.5204   -7.0600   -4.1642 H   0  0  0  0  0  0  0  0  0  0  0  0
   -0.3829   -6.9769   -2.7844 H   0  0  0  0  0  0  0  0  0  0  0  0
  1 25  1  0  0  0  0
  1 26  1  0  0  0  0
  1 27  1  0  0  0  0
  2 28  1  0  0  0  0
  2 29  1  0  0  0  0
  2 30  1  0  0  0  0
  3  1  1  0  0  0  0
  3 31  1  0  0  0  0
  3 32  1  0  0  0  0
  4  2  1  0  0  0  0
  4 33  1  0  0  0  0
  4 34  1  0  0  0  0
  5  3  1  0  0  0  0
  5 35  1  0  0  0  0
  5 36  1  0  0  0  0
  6  4  1  0  0  0  0
  6 37  1  0  0  0  0
  6 38  1  0  0  0  0
  7  5  1  0  0  0  0
  7 39  1  0  0  0  0
  7 40  1  0  0  0  0
  8 41  1  0  0  0  0
  8 42  1  0  0  0  0
  9  8  1  0  0  0  0
  9 43  1  0  0  0  0
  9 44  1  0  0  0  0
 10 45  1  0  0  0  0
 10 46  1  0  0  0  0
 11 10  1  0  0  0  0
 11 47  1  0  0  0  0
 11 48  1  0  0  0  0
 12 49  1  0  0  0  0
 13 50  1  0  0  0  0
 14 51  1  0  0  0  0
 14 52  1  0  0  0  0
 15 53  1  0  0  0  0
 15 54  1  0  0  0  0
 16  6  1  0  0  0  0
 16 12  2  0  0  0  0
 17 13  2  0  0  0  0
 17 14  1  0  0  0  0
 17 16  1  0  0  0  0
 18 12  1  0  0  0  0
 19 13  1  0  0  0  0
 19 18  2  0  0  0  0
 20  7  1  0  0  0  0
 20  8  1  0  0  0  0
 21  9  1  0  0  0  0
 21 10  1  0  0  0  0
 22 11  1  0  0  0  0
 22 14  1  0  0  0  0
 23 15  1  0  0  0  0
 23 18  1  0  0  0  0
 24 15  1  0  0  0  0
 24 19  1  0  0  0  0
M  END
>  <DRUGBANK_ID>
DB09350

>  <COMMON_NAME>
Piperonyl butoxide

>  <CAS_NUMBER>
51-03-6

>  <UNII>
LWK91TU9AH

$$$$
