
 OpenBabel10282417133D

 27 28  0  0  0  0  0  0  0  0999 V2000
    1.7617    0.9475    0.2759 N   0  0  0  0  0  0  0  0  0  0  0  0
    2.2487   -0.2275   -0.5076 C   0  0  1  0  0  0  0  0  0  0  0  0
    1.0769   -1.1983   -0.6273 C   0  0  0  0  0  0  0  0  0  0  0  0
    0.2062   -0.8275    0.5661 C   0  0  1  0  0  0  0  0  0  0  0  0
    0.6679   -1.2618    1.4652 H   0  0  0  0  0  0  0  0  0  0  0  0
    0.3514    0.6909    0.6178 C   0  0  2  0  0  0  0  0  0  0  0  0
    0.1417    1.0540    1.6317 H   0  0  0  0  0  0  0  0  0  0  0  0
   -0.5761    1.4285   -0.3555 C   0  0  0  0  0  0  0  0  0  0  0  0
   -2.0192    0.9689   -0.1848 C   0  0  0  0  0  0  0  0  0  0  0  0
   -2.1330   -0.5295   -0.4425 C   0  0  0  0  0  0  0  0  0  0  0  0
   -1.2363   -1.3271    0.5000 C   0  0  0  0  0  0  0  0  0  0  0  0
    2.8291    0.1930   -1.8557 C   0  0  0  0  0  0  0  0  0  0  0  0
    3.9848    0.0093   -2.2156 O   0  0  0  0  0  0  0  0  0  0  0  0
    1.9537    0.7992   -2.6835 O   0  0  0  0  0  0  0  0  0  0  0  0
    2.3050    0.9842    1.1396 H   0  0  0  0  0  0  0  0  0  0  0  0
    3.0583   -0.7023    0.0615 H   0  0  0  0  0  0  0  0  0  0  0  0
    1.4090   -2.2403   -0.5694 H   0  0  0  0  0  0  0  0  0  0  0  0
    0.5391   -1.0758   -1.5734 H   0  0  0  0  0  0  0  0  0  0  0  0
   -0.2777    1.2546   -1.3961 H   0  0  0  0  0  0  0  0  0  0  0  0
   -0.5083    2.5101   -0.1897 H   0  0  0  0  0  0  0  0  0  0  0  0
   -2.6672    1.5135   -0.8802 H   0  0  0  0  0  0  0  0  0  0  0  0
   -2.3663    1.2007    0.8296 H   0  0  0  0  0  0  0  0  0  0  0  0
   -3.1738   -0.8468   -0.3106 H   0  0  0  0  0  0  0  0  0  0  0  0
   -1.8654   -0.7462   -1.4834 H   0  0  0  0  0  0  0  0  0  0  0  0
   -1.6666   -1.2619    1.5080 H   0  0  0  0  0  0  0  0  0  0  0  0
   -1.2572   -2.3869    0.2208 H   0  0  0  0  0  0  0  0  0  0  0  0
    2.4802    1.0361   -3.4736 H   0  0  0  0  0  0  0  0  0  0  0  0
  1 15  1  0  0  0  0
  2  1  1  0  0  0  0
  2 12  1  0  0  0  0
  2 16  1  1  0  0  0
  3  2  1  0  0  0  0
  3 17  1  0  0  0  0
  3 18  1  0  0  0  0
  4  3  1  0  0  0  0
  4  5  1  1  0  0  0
  4  6  1  0  0  0  0
  6  1  1  0  0  0  0
  6  7  1  1  0  0  0
  8  6  1  0  0  0  0
  8 19  1  0  0  0  0
  8 20  1  0  0  0  0
  9  8  1  0  0  0  0
  9 10  1  0  0  0  0
  9 21  1  0  0  0  0
  9 22  1  0  0  0  0
 10 11  1  0  0  0  0
 10 23  1  0  0  0  0
 10 24  1  0  0  0  0
 11  4  1  0  0  0  0
 11 25  1  0  0  0  0
 11 26  1  0  0  0  0
 13 12  2  0  0  0  0
 14 12  1  0  0  0  0
 14 27  1  0  0  0  0
M  END
>  <DRUGBANK_ID>
DB03409

>  <SECONDARY_ACCESSION_NUMBERS>
EXPT02426

>  <COMMON_NAME>
L-Octahydroindole-2-carboxylic acid

>  <CAS_NUMBER>
80875-98-5

>  <UNII>
9ID44U804I

>  <SYNONYMS>
(2S,3aS,7aS)-2-Carboxyoctahydroindole; (2S,3aS,7aS)-Octahydroindole-2-carboxylic acid; Perindopril impurity A

$$$$
