
 OpenBabel10282417163D

 73 73  0  0  0  0  0  0  0  0999 V2000
   -1.5480   -1.7530    0.0190 C   0  0  0  0  0  0  0  0  0  0  0  0
   -5.2144    5.4402   -2.1353 C   0  0  0  0  0  0  0  0  0  0  0  0
    0.6810    5.0029    1.2146 C   0  0  0  0  0  0  0  0  0  0  0  0
   -0.8068    5.3136    1.1932 C   0  0  0  0  0  0  0  0  0  0  0  0
    1.7670    0.9240    0.0220 C   0  0  0  0  0  0  0  0  0  0  0  0
   -3.3815    3.0631    0.8889 C   0  0  0  0  0  0  0  0  0  0  0  0
    0.2739    2.9704    0.0041 C   0  0  0  0  0  0  0  0  0  0  0  0
   -2.8846    5.0335    2.3622 C   0  0  0  0  0  0  0  0  0  0  0  0
    0.2384    2.9655    2.4043 C   0  0  0  0  0  0  0  0  0  0  0  0
   -1.2494    3.2762    2.3829 C   0  0  0  0  0  0  0  0  0  0  0  0
    3.2730   -1.0837   -0.0462 C   0  0  0  0  0  0  0  0  0  0  0  0
   -3.6507    1.0829   -0.6309 C   0  0  0  0  0  0  0  0  0  0  0  0
   -0.4080   -0.7750    0.0030 C   0  0  0  0  0  0  0  0  0  0  0  0
   -4.5481    4.6418   -1.0514 C   0  0  0  0  0  0  0  0  0  0  0  0
    0.4770    1.4640    0.0040 C   0  0  0  0  0  0  0  0  0  0  0  0
   -3.5085    4.4382    1.1106 C   0  0  0  0  0  0  0  0  0  0  0  0
    1.8820   -0.4720   -0.0110 C   0  0  0  0  0  0  0  0  0  0  0  0
   -3.8259    2.5650   -0.3430 C   0  0  0  0  0  0  0  0  0  0  0  0
   -1.2494    3.2762    2.3829 C   0  0  0  0  0  0  0  0  0  0  0  0
   -1.8733    2.6809    1.1312 C   0  0  0  0  0  0  0  0  0  0  0  0
   -0.6210    0.6040   -0.0140 C   0  0  0  0  0  0  0  0  0  0  0  0
   -4.0908    5.2358    0.1256 C   0  0  0  0  0  0  0  0  0  0  0  0
    0.8270   -1.2900   -0.0130 N   0  0  0  0  0  0  0  0  0  0  0  0
   -4.3960    3.3313   -1.2757 N   0  0  0  0  0  0  0  0  0  0  0  0
    0.8774    3.5461    1.2145 N   0  0  0  0  0  0  0  0  0  0  0  0
   -1.4457    4.7330    2.3829 N   0  0  0  0  0  0  0  0  0  0  0  0
   -2.0962    2.3287    2.3684 O   0  0  0  0  0  0  0  0  0  0  0  0
   -1.6930    4.6251    2.3791 O   0  5  0  0  0  0  0  0  0  0  0  0
   -1.1513    2.0410    0.3040 O   0  0  0  0  0  0  0  0  0  0  0  0
   -3.2630    2.8397    0.8862 O   0  5  0  0  0  0  0  0  0  0  0  0
   -1.8870    1.1350   -0.0060 O   0  0  0  0  0  0  0  0  0  0  0  0
   -4.2380    6.5814    0.3548 O   0  0  0  0  0  0  0  0  0  0  0  0
    3.9553   -2.2551    3.4625 O   0  0  0  0  0  0  0  0  0  0  0  0
    4.3076    0.2495    1.8558 O   0  0  0  0  0  0  0  0  0  0  0  0
    3.1182   -0.1184    3.8154 O   0  0  0  0  0  0  0  0  0  0  0  0
   -6.3991    2.2531   -0.0232 O   0  0  0  0  0  0  0  0  0  0  0  0
   -6.8220   -0.7106    0.1040 O   0  0  0  0  0  0  0  0  0  0  0  0
   -6.7986    0.8736    1.8010 O   0  0  0  0  0  0  0  0  0  0  0  0
    3.4545   -1.9127    1.0923 O   0  0  0  0  0  0  0  0  0  0  0  0
   -4.9214    0.4916   -0.8594 O   0  0  0  0  0  0  0  0  0  0  0  0
    3.2771   -0.9659    2.5293 P   0  0  0  0  0  0  0  0  0  0  0  0
   -5.9120    0.6932    0.5445 P   0  0  0  0  0  0  0  0  0  0  0  0
    0.9290   -0.0225    0.0667 Mn  0  2  0  0  0  0  0  0  0  0  0  0
   -1.5019   -2.3688   -0.8548 H   0  0  0  0  0  0  0  0  0  0  0  0
   -1.4787   -2.3673    0.8923 H   0  0  0  0  0  0  0  0  0  0  0  0
   -2.4755   -1.2195    0.0309 H   0  0  0  0  0  0  0  0  0  0  0  0
   -4.6426    5.3647   -3.0366 H   0  0  0  0  0  0  0  0  0  0  0  0
   -6.1996    5.0588   -2.3049 H   0  0  0  0  0  0  0  0  0  0  0  0
   -5.2755    6.4658   -1.8365 H   0  0  0  0  0  0  0  0  0  0  0  0
    1.1202    5.4220    2.0957 H   0  0  0  0  0  0  0  0  0  0  0  0
    1.1461    5.4256    0.3486 H   0  0  0  0  0  0  0  0  0  0  0  0
   -0.9497    6.3740    1.1932 H   0  0  0  0  0  0  0  0  0  0  0  0
   -1.2460    4.8946    0.3121 H   0  0  0  0  0  0  0  0  0  0  0  0
    2.6322    1.5524    0.0595 H   0  0  0  0  0  0  0  0  0  0  0  0
   -2.9614    2.4168    1.6309 H   0  0  0  0  0  0  0  0  0  0  0  0
    0.7390    3.3930   -0.8620 H   0  0  0  0  0  0  0  0  0  0  0  0
   -0.7734    3.1891   -0.0110 H   0  0  0  0  0  0  0  0  0  0  0  0
   -3.3497    4.6109    3.2283 H   0  0  0  0  0  0  0  0  0  0  0  0
   -3.0275    6.0939    2.3623 H   0  0  0  0  0  0  0  0  0  0  0  0
    0.3814    1.9051    2.4042 H   0  0  0  0  0  0  0  0  0  0  0  0
    0.6776    3.3846    3.2854 H   0  0  0  0  0  0  0  0  0  0  0  0
   -0.2021    3.0575    2.3980 H   0  0  0  0  0  0  0  0  0  0  0  0
   -1.7145    2.8536    3.2489 H   0  0  0  0  0  0  0  0  0  0  0  0
    3.3828   -1.6693   -0.9349 H   0  0  0  0  0  0  0  0  0  0  0  0
    4.0058   -0.3040   -0.0400 H   0  0  0  0  0  0  0  0  0  0  0  0
   -3.0380    0.9582   -1.4992 H   0  0  0  0  0  0  0  0  0  0  0  0
   -3.1826    0.6097    0.2069 H   0  0  0  0  0  0  0  0  0  0  0  0
   -2.0132    2.1269   -0.0186 H   0  0  0  0  0  0  0  0  0  0  0  0
   -3.9017    6.9833    1.2065 H   0  0  0  0  0  0  0  0  0  0  0  0
    3.2241   -2.8626    3.7726 H   0  0  0  0  0  0  0  0  0  0  0  0
    4.6029   -0.0323    0.9429 H   0  0  0  0  0  0  0  0  0  0  0  0
   -5.7670    2.9463    0.3233 H   0  0  0  0  0  0  0  0  0  0  0  0
   -6.4575   -1.0910   -0.7460 H   0  0  0  0  0  0  0  0  0  0  0  0
  1 44  1  0  0  0  0
  1 45  1  0  0  0  0
  1 46  1  0  0  0  0
  2 47  1  0  0  0  0
  2 48  1  0  0  0  0
  2 49  1  0  0  0  0
  3 50  1  0  0  0  0
  3 51  1  0  0  0  0
  4  3  1  0  0  0  0
  4 52  1  0  0  0  0
  4 53  1  0  0  0  0
  5 54  1  0  0  0  0
  6 55  1  0  0  0  0
  7 56  1  0  0  0  0
  7 57  1  0  0  0  0
  8 58  1  0  0  0  0
  8 59  1  0  0  0  0
  9 60  1  0  0  0  0
  9 61  1  0  0  0  0
 10 62  1  0  0  0  0
 10 63  1  0  0  0  0
 11 64  1  0  0  0  0
 11 65  1  0  0  0  0
 12 66  1  0  0  0  0
 12 67  1  0  0  0  0
 13  1  1  0  0  0  0
 14  2  1  0  0  0  0
 15  5  2  0  0  0  0
 15  7  1  0  0  0  0
 16  6  2  0  0  0  0
 16  8  1  0  0  0  0
 17  5  1  0  0  0  0
 17 11  1  0  0  0  0
 18  6  1  0  0  0  0
 18 12  1  0  0  0  0
 19  9  1  0  0  0  0
 20 10  1  0  0  0  0
 21 13  2  0  0  0  0
 21 15  1  0  0  0  0
 22 14  2  0  0  0  0
 22 16  1  0  0  0  0
 23 13  1  0  0  0  0
 23 17  2  0  0  0  0
 24 14  1  0  0  0  0
 24 18  2  0  0  0  0
 25  3  1  0  0  0  0
 25  7  1  0  0  0  0
 25  9  1  0  0  0  0
 26  4  1  0  0  0  0
 26  8  1  0  0  0  0
 26 10  1  0  0  0  0
 27 19  2  0  0  0  0
 28 19  1  0  0  0  0
 29 20  2  0  0  0  0
 30 20  1  0  0  0  0
 31 21  1  0  0  0  0
 31 68  1  0  0  0  0
 32 22  1  0  0  0  0
 32 69  1  0  0  0  0
 33 70  1  0  0  0  0
 34 71  1  0  0  0  0
 36 72  1  0  0  0  0
 37 73  1  0  0  0  0
 39 11  1  0  0  0  0
 40 12  1  0  0  0  0
 41 33  1  0  0  0  0
 41 34  1  0  0  0  0
 41 35  2  0  0  0  0
 41 39  1  0  0  0  0
 42 36  1  0  0  0  0
 42 37  1  0  0  0  0
 42 38  2  0  0  0  0
 42 40  1  0  0  0  0
M  CHG  3  28  -1  30  -1  43   2
M  END
>  <DRUGBANK_ID>
DB06796

>  <COMMON_NAME>
Mangafodipir

>  <CAS_NUMBER>
155319-91-8

>  <UNII>
N02W67RKJS

>  <SYNONYMS>
Mangafodipir

$$$$
