
 OpenBabel10282417223D

 40 41  0  0  1  0  0  0  0  0999 V2000
    2.6002    3.1954    0.5961 H   0  0  0  0  0  0  0  0  0  0  0  0
    2.0266    2.3133    0.7904 C   0  0  0  0  0  0  0  0  0  0  0  0
    1.4030    2.4744    1.6449 H   0  0  0  0  0  0  0  0  0  0  0  0
    1.4162    2.0903   -0.0596 H   0  0  0  0  0  0  0  0  0  0  0  0
    2.5332    0.9172    1.1138 C   0  0  2  0  0  0  0  0  0  0  0  0
    2.0599    0.0034    0.1353 O   0  0  0  0  0  0  0  0  0  0  0  0
    2.0266    0.4992    2.4845 C   0  0  0  0  0  0  0  0  0  0  0  0
    2.3832   -0.4836    2.7121 H   0  0  0  0  0  0  0  0  0  0  0  0
    2.3832    1.1877    3.2218 H   0  0  0  0  0  0  0  0  0  0  0  0
    0.5066    0.4992    2.4845 C   0  0  0  0  0  0  0  0  0  0  0  0
   -0.0001    1.8953    2.1611 C   0  0  0  0  0  0  0  0  0  0  0  0
    0.5066    2.3133    0.7904 C   0  0  0  0  0  0  0  0  0  0  0  0
    0.0166    1.3674   -0.2225 N   0  0  0  0  0  0  0  0  0  0  0  0
   -0.6067    1.7770   -1.3963 C   0  0  0  0  0  0  0  0  0  0  0  0
   -0.8947    3.0077   -1.5286 O   0  0  0  0  0  0  0  0  0  0  0  0
   -0.9113    0.9604   -2.3705 N   0  0  0  0  0  0  0  0  0  0  0  0
   -1.5760    1.4960   -3.5673 C   0  0  0  0  0  0  0  0  0  0  0  0
   -0.6356   -0.3538   -2.3121 C   0  0  0  0  0  0  0  0  0  0  0  0
    0.0301   -0.8934   -1.1169 C   0  0  0  0  0  0  0  0  0  0  0  0
    0.1839   -2.1874   -1.3095 N   0  0  0  0  0  0  0  0  0  0  0  0
    0.8065   -3.1250   -0.3640 C   0  0  0  0  0  0  0  0  0  0  0  0
   -0.3432   -2.5236   -2.5630 C   0  0  0  0  0  0  0  0  0  0  0  0
   -0.8327   -1.4255   -3.1605 N   0  0  0  0  0  0  0  0  0  0  0  0
    0.3610    0.0400   -0.0400 C   0  0  0  0  0  0  0  0  0  0  0  0
    0.9412   -0.3528    1.0204 O   0  0  0  0  0  0  0  0  0  0  0  0
    3.6032    0.9172    1.1138 H   0  0  0  0  0  0  0  0  0  0  0  0
    2.9325   -0.4157   -0.1154 H   0  0  0  0  0  0  0  0  0  0  0  0
    0.1499   -0.1894    1.7472 H   0  0  0  0  0  0  0  0  0  0  0  0
    0.1499    0.2049    3.4494 H   0  0  0  0  0  0  0  0  0  0  0  0
   -1.0701    1.8953    2.1611 H   0  0  0  0  0  0  0  0  0  0  0  0
    0.3566    2.5838    2.8985 H   0  0  0  0  0  0  0  0  0  0  0  0
    0.1499    3.2961    0.5628 H   0  0  0  0  0  0  0  0  0  0  0  0
    1.5766    2.3133    0.7904 H   0  0  0  0  0  0  0  0  0  0  0  0
   -0.9662    1.3111   -4.4268 H   0  0  0  0  0  0  0  0  0  0  0  0
   -2.5244    1.0169   -3.6930 H   0  0  0  0  0  0  0  0  0  0  0  0
   -1.7211    2.5500   -3.4530 H   0  0  0  0  0  0  0  0  0  0  0  0
    1.8171   -2.8263   -0.1787 H   0  0  0  0  0  0  0  0  0  0  0  0
    0.2591   -3.1206    0.5554 H   0  0  0  0  0  0  0  0  0  0  0  0
    0.7966   -4.1107   -0.7802 H   0  0  0  0  0  0  0  0  0  0  0  0
   -0.3542   -3.5083   -2.9816 H   0  0  0  0  0  0  0  0  0  0  0  0
  1  2  1  0  0  0  0
  2  3  1  0  0  0  0
  2  4  1  0  0  0  0
  5  7  1  0  0  0  0
  5 26  1  1  0  0  0
  5  6  1  0  0  0  0
  5  2  1  0  0  0  0
  6 27  1  0  0  0  0
  7  8  1  0  0  0  0
  7  9  1  0  0  0  0
  7 10  1  0  0  0  0
 10 11  1  0  0  0  0
 10 28  1  0  0  0  0
 10 29  1  0  0  0  0
 11 12  1  0  0  0  0
 11 30  1  0  0  0  0
 11 31  1  0  0  0  0
 12 13  1  0  0  0  0
 12 32  1  0  0  0  0
 12 33  1  0  0  0  0
 13 14  1  0  0  0  0
 13 24  1  0  0  0  0
 14 15  2  0  0  0  0
 14 16  1  0  0  0  0
 16 17  1  0  0  0  0
 16 18  1  0  0  0  0
 17 34  1  0  0  0  0
 17 35  1  0  0  0  0
 17 36  1  0  0  0  0
 18 19  2  0  0  0  0
 18 23  1  0  0  0  0
 19 20  1  0  0  0  0
 19 24  1  0  0  0  0
 20 21  1  0  0  0  0
 20 22  1  0  0  0  0
 21 37  1  0  0  0  0
 21 38  1  0  0  0  0
 21 39  1  0  0  0  0
 22 23  2  0  0  0  0
 22 40  1  0  0  0  0
 24 25  2  0  0  0  0
M  ISO  5   1   2   3   2   4   2   8   2   9   2
M  END
>  <DRUGBANK_ID>
DB15122

>  <COMMON_NAME>
PCS-499

>  <CAS_NUMBER>
1268605-91-9

>  <UNII>
FLV771E8ZV

>  <SYNONYMS>
Deuterated S-lisofylline

$$$$
