1347
 OpenBabel10282417113D

 60 64  0  0  0  0  0  0  0  0999 V2000
    1.0273    0.0654    0.0821 Br  0  0  0  0  0  0  0  0  0  0  0  0
    0.9930   -2.6361   -3.4397 S   0  0  0  0  0  0  0  0  0  0  0  0
    1.4165   -5.2828   -3.3258 F   0  0  0  0  0  0  0  0  0  0  0  0
   -0.4311   -4.6007   -2.3051 F   0  0  0  0  0  0  0  0  0  0  0  0
   -0.3513   -4.7587   -4.4681 F   0  0  0  0  0  0  0  0  0  0  0  0
    0.1634    3.5504   -0.3825 O   0  0  0  0  0  0  0  0  0  0  0  0
    5.0036   -0.8922    0.1308 O   0  0  0  0  0  0  0  0  0  0  0  0
   -0.1488   -1.7381   -3.3571 O   0  0  0  0  0  0  0  0  0  0  0  0
    1.8943   -2.4835   -4.5717 O   0  0  0  0  0  0  0  0  0  0  0  0
    3.4102    5.2234   -1.2090 N   0  0  0  0  0  0  0  0  0  0  0  0
    2.6348    5.9973   -3.1220 N   0  0  0  0  0  0  0  0  0  0  0  0
    1.7435    3.6839    0.9997 N   0  0  0  0  0  0  0  0  0  0  0  0
    1.9152   -2.2572   -2.0748 N   0  0  0  0  0  0  0  0  0  0  0  0
    0.3432    4.8911   -3.2608 C   0  0  0  0  0  0  0  0  0  0  0  0
   -0.9647    4.9708   -2.4983 C   0  0  0  0  0  0  0  0  0  0  0  0
   -0.4518    3.6331   -2.9489 C   0  0  0  0  0  0  0  0  0  0  0  0
    1.6587    5.2212   -2.5080 C   0  0  0  0  0  0  0  0  0  0  0  0
    2.0426    4.8439   -1.2181 C   0  0  0  0  0  0  0  0  0  0  0  0
    3.6765    6.0551   -2.3092 C   0  0  0  0  0  0  0  0  0  0  0  0
    4.3587    4.7840   -0.1842 C   0  0  0  0  0  0  0  0  0  0  0  0
    4.9102    6.9504   -2.5551 C   0  0  0  0  0  0  0  0  0  0  0  0
    1.2454    4.0758   -0.2205 C   0  0  0  0  0  0  0  0  0  0  0  0
    4.6700    3.2789   -0.2244 C   0  0  0  0  0  0  0  0  0  0  0  0
    5.6098    6.7531   -3.9096 C   0  0  0  0  0  0  0  0  0  0  0  0
    3.6688    2.3199   -0.4062 C   0  0  0  0  0  0  0  0  0  0  0  0
    5.9433    2.7541   -0.0007 C   0  0  0  0  0  0  0  0  0  0  0  0
    3.7993    0.9747   -0.0919 C   0  0  0  0  0  0  0  0  0  0  0  0
    5.0767    0.4842    0.0599 C   0  0  0  0  0  0  0  0  0  0  0  0
    6.1860    1.3451    0.0589 C   0  0  0  0  0  0  0  0  0  0  0  0
    2.9013   -0.0866    0.0457 C   0  0  0  0  0  0  0  0  0  0  0  0
    3.6595   -1.2220    0.0759 C   0  0  0  0  0  0  0  0  0  0  0  0
    3.2782   -2.6179    0.0060 C   0  0  0  0  0  0  0  0  0  0  0  0
    2.4371   -3.1091   -1.0236 C   0  0  0  0  0  0  0  0  0  0  0  0
    3.6652   -3.4641    1.0698 C   0  0  0  0  0  0  0  0  0  0  0  0
    2.0391   -4.4249   -0.8682 C   0  0  0  0  0  0  0  0  0  0  0  0
    3.3843   -4.8263    1.0445 C   0  0  0  0  0  0  0  0  0  0  0  0
    2.5803   -5.3113    0.0477 C   0  0  0  0  0  0  0  0  0  0  0  0
    0.3824   -4.3883   -3.3856 C   0  0  0  0  0  0  0  0  0  0  0  0
    2.7019    3.7036    1.2725 H   0  0  0  0  0  0  0  0  0  0  0  0
    1.3054    2.7855    1.2119 H   0  0  0  0  0  0  0  0  0  0  0  0
    2.3151   -1.3195   -2.1702 H   0  0  0  0  0  0  0  0  0  0  0  0
    0.3333    5.2189   -4.2938 H   0  0  0  0  0  0  0  0  0  0  0  0
   -0.9397    5.2993   -1.4653 H   0  0  0  0  0  0  0  0  0  0  0  0
   -1.8515    5.3413   -3.0019 H   0  0  0  0  0  0  0  0  0  0  0  0
   -1.0855    3.1087   -3.6535 H   0  0  0  0  0  0  0  0  0  0  0  0
    0.0233    2.8834   -2.3308 H   0  0  0  0  0  0  0  0  0  0  0  0
    3.8892    5.0666    0.7683 H   0  0  0  0  0  0  0  0  0  0  0  0
    5.2658    5.3895   -0.2221 H   0  0  0  0  0  0  0  0  0  0  0  0
    4.5983    8.0070   -2.5241 H   0  0  0  0  0  0  0  0  0  0  0  0
    5.6649    6.8468   -1.7690 H   0  0  0  0  0  0  0  0  0  0  0  0
    4.9488    6.9812   -4.7534 H   0  0  0  0  0  0  0  0  0  0  0  0
    6.4795    7.4228   -4.0122 H   0  0  0  0  0  0  0  0  0  0  0  0
    5.9796    5.7310   -4.0236 H   0  0  0  0  0  0  0  0  0  0  0  0
    2.6977    2.5246   -0.8044 H   0  0  0  0  0  0  0  0  0  0  0  0
    6.7882    3.4382    0.0697 H   0  0  0  0  0  0  0  0  0  0  0  0
    7.1985    0.9635    0.1028 H   0  0  0  0  0  0  0  0  0  0  0  0
    4.1690   -3.0562    1.9422 H   0  0  0  0  0  0  0  0  0  0  0  0
    1.2436   -4.8829   -1.3925 H   0  0  0  0  0  0  0  0  0  0  0  0
    3.7387   -5.5044    1.8114 H   0  0  0  0  0  0  0  0  0  0  0  0
    2.2923   -6.3568   -0.0196 H   0  0  0  0  0  0  0  0  0  0  0  0
  1 30  1  0  0  0  0
  2  8  2  0  0  0  0
  2  9  2  0  0  0  0
  2 13  1  0  0  0  0
  2 38  1  0  0  0  0
  3 38  1  0  0  0  0
  4 38  1  0  0  0  0
  5 38  1  0  0  0  0
  6 22  2  0  0  0  0
  7 28  1  0  0  0  0
  7 31  1  0  0  0  0
 10 18  1  0  0  0  0
 10 19  1  0  0  0  0
 10 20  1  0  0  0  0
 11 17  1  0  0  0  0
 11 19  2  0  0  0  0
 12 22  1  0  0  0  0
 12 39  1  0  0  0  0
 12 40  1  0  0  0  0
 13 33  1  0  0  0  0
 13 41  1  0  0  0  0
 14 15  1  0  0  0  0
 14 16  1  0  0  0  0
 14 17  1  0  0  0  0
 14 42  1  0  0  0  0
 15 16  1  0  0  0  0
 15 43  1  0  0  0  0
 15 44  1  0  0  0  0
 16 45  1  0  0  0  0
 16 46  1  0  0  0  0
 17 18  2  0  0  0  0
 18 22  1  0  0  0  0
 19 21  1  0  0  0  0
 20 23  1  0  0  0  0
 20 47  1  0  0  0  0
 20 48  1  0  0  0  0
 21 24  1  0  0  0  0
 21 49  1  0  0  0  0
 21 50  1  0  0  0  0
 23 25  2  0  0  0  0
 23 26  1  0  0  0  0
 24 51  1  0  0  0  0
 24 52  1  0  0  0  0
 24 53  1  0  0  0  0
 25 27  1  0  0  0  0
 25 54  1  0  0  0  0
 26 29  2  0  0  0  0
 26 55  1  0  0  0  0
 27 28  2  0  0  0  0
 27 30  1  0  0  0  0
 28 29  1  0  0  0  0
 29 56  1  0  0  0  0
 30 31  2  0  0  0  0
 31 32  1  0  0  0  0
 32 33  1  0  0  0  0
 32 34  2  0  0  0  0
 33 35  2  0  0  0  0
 34 36  1  0  0  0  0
 34 57  1  0  0  0  0
 35 37  1  0  0  0  0
 35 58  1  0  0  0  0
 36 37  2  0  0  0  0
 36 59  1  0  0  0  0
 37 60  1  0  0  0  0
M  END
>  <DRUGBANK_ID>
DB01347

>  <COMMON_NAME>
Saprisartan

>  <CAS_NUMBER>
146623-69-0

>  <UNII>
HS64NG1G69

>  <SYNONYMS>
Saprisartan

$$$$
