
 OpenBabel10282417183D

 60 61  0  0  1  0  0  0  0  0999 V2000
    1.0695    1.3227   -2.3481 C   0  0  0  0  0  0  0  0  0  0  0  0
    0.4263    1.2044   -0.9937 C   0  0  2  0  0  0  0  0  0  0  0  0
    0.9695    0.0038   -0.1738 C   0  0  1  0  0  0  0  0  0  0  0  0
    1.9997   -0.9907   -0.8756 C   0  0  0  0  0  0  0  0  0  0  0  0
    3.1078   -1.1536   -0.3472 O   0  0  0  0  0  0  0  0  0  0  0  0
    1.5914   -1.8067   -1.9508 N   0  0  0  0  0  0  0  0  0  0  0  0
    0.7229   -1.5488   -3.1148 C   0  0  0  0  0  0  0  0  0  0  0  0
    0.1123   -2.8626   -3.4257 C   0  0  0  0  0  0  0  0  0  0  0  0
    1.2861   -3.7863   -3.2219 C   0  0  0  0  0  0  0  0  0  0  0  0
    2.2012   -3.1347   -2.1556 C   0  0  1  0  0  0  0  0  0  0  0  0
    3.6954   -3.1712   -2.6106 C   0  0  0  0  0  0  0  0  0  0  0  0
    4.3388   -2.1525   -2.8744 O   0  0  0  0  0  0  0  0  0  0  0  0
    4.3060   -4.4142   -2.6013 N   0  0  0  0  0  0  0  0  0  0  0  0
    3.8776   -5.6288   -3.2507 C   0  0  0  0  0  0  0  0  0  0  0  0
    4.3407   -6.7178   -2.3069 C   0  0  0  0  0  0  0  0  0  0  0  0
    5.6803   -6.1890   -1.8049 C   0  0  0  0  0  0  0  0  0  0  0  0
    5.5224   -4.6514   -1.8337 C   0  0  1  0  0  0  0  0  0  0  0  0
    6.8070   -4.0388   -2.4189 C   0  0  0  0  0  0  0  0  0  0  0  0
    7.0561   -4.0416   -3.6317 O   0  0  0  0  0  0  0  0  0  0  0  0
    7.7859   -3.6139   -1.5603 N   0  0  0  0  0  0  0  0  0  0  0  0
    7.7086   -3.5115   -0.0995 C   0  0  1  0  0  0  0  0  0  0  0  0
    8.7753   -4.3902    0.5867 C   0  0  1  0  0  0  0  0  0  0  0  0
   10.2077   -3.9623    0.3125 C   0  0  0  0  0  0  0  0  0  0  0  0
    8.5650   -4.4572    1.9977 O   0  0  0  0  0  0  0  0  0  0  0  0
    7.7277   -2.0534    0.3796 C   0  0  0  0  0  0  0  0  0  0  0  0
    6.8305   -1.5894    1.1107 O   0  0  0  0  0  0  0  0  0  0  0  0
    8.8152   -1.2877    0.1172 N   0  0  0  0  0  0  0  0  0  0  0  0
    1.5382    0.5951    1.0823 N   0  0  0  0  0  0  0  0  0  0  0  0
   -0.9988    1.0968   -1.1502 O   0  0  0  0  0  0  0  0  0  0  0  0
    1.0467    0.3380   -2.6729 H   0  0  0  0  0  0  0  0  0  0  0  0
    2.1486    1.4721   -2.3899 H   0  0  0  0  0  0  0  0  0  0  0  0
    0.4842    1.7790   -3.1463 H   0  0  0  0  0  0  0  0  0  0  0  0
    0.5927    2.1617   -0.4869 H   0  0  0  0  0  0  0  0  0  0  0  0
    0.1544   -0.6471    0.1727 H   0  0  0  0  0  0  0  0  0  0  0  0
    1.3782   -1.2032   -3.9379 H   0  0  0  0  0  0  0  0  0  0  0  0
   -0.1263   -0.8754   -2.9892 H   0  0  0  0  0  0  0  0  0  0  0  0
   -0.6845   -3.0291   -2.6937 H   0  0  0  0  0  0  0  0  0  0  0  0
   -0.3176   -2.8733   -4.4313 H   0  0  0  0  0  0  0  0  0  0  0  0
    0.9167   -4.7638   -2.9090 H   0  0  0  0  0  0  0  0  0  0  0  0
    1.8090   -3.8761   -4.1801 H   0  0  0  0  0  0  0  0  0  0  0  0
    2.1345   -3.6575   -1.1936 H   0  0  0  0  0  0  0  0  0  0  0  0
    4.4213   -5.6793   -4.2015 H   0  0  0  0  0  0  0  0  0  0  0  0
    2.8156   -5.6743   -3.4590 H   0  0  0  0  0  0  0  0  0  0  0  0
    3.6402   -6.8073   -1.4681 H   0  0  0  0  0  0  0  0  0  0  0  0
    4.4191   -7.6917   -2.7977 H   0  0  0  0  0  0  0  0  0  0  0  0
    5.9123   -6.5646   -0.8024 H   0  0  0  0  0  0  0  0  0  0  0  0
    6.4837   -6.5341   -2.4687 H   0  0  0  0  0  0  0  0  0  0  0  0
    5.3001   -4.2694   -0.8395 H   0  0  0  0  0  0  0  0  0  0  0  0
    8.5782   -3.2086   -2.0438 H   0  0  0  0  0  0  0  0  0  0  0  0
    6.7534   -3.8996    0.2532 H   0  0  0  0  0  0  0  0  0  0  0  0
    8.6553   -5.4176    0.2176 H   0  0  0  0  0  0  0  0  0  0  0  0
   10.4334   -3.0104    0.7976 H   0  0  0  0  0  0  0  0  0  0  0  0
   10.9173   -4.6718    0.7438 H   0  0  0  0  0  0  0  0  0  0  0  0
   10.3988   -3.8807   -0.7619 H   0  0  0  0  0  0  0  0  0  0  0  0
    8.5592   -3.5504    2.3576 H   0  0  0  0  0  0  0  0  0  0  0  0
    9.6101   -1.5851   -0.4317 H   0  0  0  0  0  0  0  0  0  0  0  0
    8.8564   -0.3710    0.5466 H   0  0  0  0  0  0  0  0  0  0  0  0
    2.0059   -0.1272    1.6300 H   0  0  0  0  0  0  0  0  0  0  0  0
    2.2832    1.2437    0.8216 H   0  0  0  0  0  0  0  0  0  0  0  0
   -1.2343    0.1636   -1.2820 H   0  0  0  0  0  0  0  0  0  0  0  0
  1 30  1  0  0  0  0
  1 31  1  0  0  0  0
  1 32  1  0  0  0  0
  2 29  1  0  0  0  0
  2 33  1  1  0  0  0
  2  3  1  0  0  0  0
  2  1  1  0  0  0  0
  3  4  1  0  0  0  0
  3 28  1  0  0  0  0
  3 34  1  1  0  0  0
  4  5  2  0  0  0  0
  4  6  1  0  0  0  0
  6  7  1  0  0  0  0
  6 10  1  0  0  0  0
  7  8  1  0  0  0  0
  7 35  1  0  0  0  0
  7 36  1  0  0  0  0
  8  9  1  0  0  0  0
  8 37  1  0  0  0  0
  8 38  1  0  0  0  0
  9 10  1  0  0  0  0
  9 39  1  0  0  0  0
  9 40  1  0  0  0  0
 10 41  1  1  0  0  0
 10 11  1  0  0  0  0
 11 12  2  0  0  0  0
 11 13  1  0  0  0  0
 13 14  1  0  0  0  0
 13 17  1  0  0  0  0
 14 15  1  0  0  0  0
 14 42  1  0  0  0  0
 14 43  1  0  0  0  0
 15 16  1  0  0  0  0
 15 44  1  0  0  0  0
 15 45  1  0  0  0  0
 16 17  1  0  0  0  0
 16 46  1  0  0  0  0
 16 47  1  0  0  0  0
 17 48  1  1  0  0  0
 17 18  1  0  0  0  0
 18 19  2  0  0  0  0
 18 20  1  0  0  0  0
 20 49  1  0  0  0  0
 21 20  1  0  0  0  0
 21 22  1  0  0  0  0
 21 25  1  0  0  0  0
 21 50  1  1  0  0  0
 22 23  1  0  0  0  0
 22 24  1  0  0  0  0
 22 51  1  6  0  0  0
 23 52  1  0  0  0  0
 23 53  1  0  0  0  0
 23 54  1  0  0  0  0
 24 55  1  0  0  0  0
 25 26  2  0  0  0  0
 25 27  1  0  0  0  0
 27 56  1  0  0  0  0
 27 57  1  0  0  0  0
 28 58  1  0  0  0  0
 28 59  1  0  0  0  0
 29 60  1  0  0  0  0
M  END
>  <DRUGBANK_ID>
DB11801

>  <COMMON_NAME>
Rapastinel

>  <CAS_NUMBER>
117928-94-6

>  <UNII>
6A1X56B95E

>  <SYNONYMS>
Rapastinel

$$$$
