
 OpenBabel10282417143D

 54 53  0  0  0  0  0  0  0  0999 V2000
    1.0061   -0.0557   -0.0536 C   0  0  0  0  0  0  0  0  0  0  0  0
    0.3414   -0.9255    0.7064 C   0  0  0  0  0  0  0  0  0  0  0  0
    0.3027    0.8900   -0.9594 C   0  0  0  0  0  0  0  0  0  0  0  0
   -1.1422   -0.9590    0.7300 C   0  0  0  0  0  0  0  0  0  0  0  0
    0.6934    2.2901   -0.6746 C   0  0  0  0  0  0  0  0  0  0  0  0
   -1.6590   -2.3031    0.3699 C   0  0  0  0  0  0  0  0  0  0  0  0
    1.2418    3.0734   -1.6042 C   0  0  0  0  0  0  0  0  0  0  0  0
   -2.4658   -2.9798    1.1862 C   0  0  0  0  0  0  0  0  0  0  0  0
    1.5004    2.6240   -3.0146 C   0  0  0  0  0  0  0  0  0  0  0  0
   -2.8515   -2.4501    2.5198 C   0  0  0  0  0  0  0  0  0  0  0  0
    0.7657    3.4925   -4.0244 C   0  0  0  0  0  0  0  0  0  0  0  0
   -4.3249   -2.3865    2.6526 C   0  0  0  0  0  0  0  0  0  0  0  0
    1.2276    4.9429   -3.9950 C   0  0  0  0  0  0  0  0  0  0  0  0
   -4.9726   -3.0400    3.6165 C   0  0  0  0  0  0  0  0  0  0  0  0
    2.7184    5.0621   -4.2358 C   0  0  0  0  0  0  0  0  0  0  0  0
   -4.2761   -3.8628    4.6616 C   0  0  0  0  0  0  0  0  0  0  0  0
    3.0511    5.7638   -5.3339 O   0  0  0  0  0  0  0  0  0  0  0  0
    3.5808    4.5792   -3.5100 O   0  0  0  0  0  0  0  0  0  0  0  0
   -4.5187   -3.2841    6.0469 C   0  0  0  0  0  0  0  0  0  0  0  0
   -5.9909   -3.3834    6.4371 C   0  0  0  0  0  0  0  0  0  0  0  0
   -6.5086   -4.8222    6.3535 C   0  0  0  0  0  0  0  0  0  0  0  0
   -5.7382   -5.7376    7.2926 C   0  0  0  0  0  0  0  0  0  0  0  0
    2.0934   -0.0502   -0.0499 H   0  0  0  0  0  0  0  0  0  0  0  0
    0.8838   -1.6037    1.3604 H   0  0  0  0  0  0  0  0  0  0  0  0
    0.5110    0.5162   -1.9576 H   0  0  0  0  0  0  0  0  0  0  0  0
   -0.7837    0.9021   -0.9243 H   0  0  0  0  0  0  0  0  0  0  0  0
   -1.3990   -0.5670    1.7105 H   0  0  0  0  0  0  0  0  0  0  0  0
   -1.6714   -0.2853    0.0615 H   0  0  0  0  0  0  0  0  0  0  0  0
    0.4970    2.6791    0.3241 H   0  0  0  0  0  0  0  0  0  0  0  0
   -1.3980   -2.7139   -0.6019 H   0  0  0  0  0  0  0  0  0  0  0  0
    1.5204    4.0835   -1.3137 H   0  0  0  0  0  0  0  0  0  0  0  0
   -2.8336   -3.9612    0.8977 H   0  0  0  0  0  0  0  0  0  0  0  0
    2.5771    2.5821   -3.1777 H   0  0  0  0  0  0  0  0  0  0  0  0
    1.1835    1.6052   -3.2283 H   0  0  0  0  0  0  0  0  0  0  0  0
   -2.3196   -3.0789    3.2278 H   0  0  0  0  0  0  0  0  0  0  0  0
   -2.5137   -1.4504    2.7812 H   0  0  0  0  0  0  0  0  0  0  0  0
    0.9168    3.0648   -5.0226 H   0  0  0  0  0  0  0  0  0  0  0  0
   -0.3160    3.4405   -3.8279 H   0  0  0  0  0  0  0  0  0  0  0  0
   -4.8732   -1.7526    1.9570 H   0  0  0  0  0  0  0  0  0  0  0  0
    0.6626    5.5092   -4.7408 H   0  0  0  0  0  0  0  0  0  0  0  0
    1.0015    5.4104   -3.0305 H   0  0  0  0  0  0  0  0  0  0  0  0
   -6.0544   -2.9416    3.6577 H   0  0  0  0  0  0  0  0  0  0  0  0
   -4.5937   -4.9016    4.5520 H   0  0  0  0  0  0  0  0  0  0  0  0
   -3.1956   -3.9257    4.5543 H   0  0  0  0  0  0  0  0  0  0  0  0
    2.2982    6.1461   -5.8177 H   0  0  0  0  0  0  0  0  0  0  0  0
   -3.8892   -3.8210    6.7656 H   0  0  0  0  0  0  0  0  0  0  0  0
   -4.1809   -2.2404    6.0933 H   0  0  0  0  0  0  0  0  0  0  0  0
   -6.1216   -2.9912    7.4500 H   0  0  0  0  0  0  0  0  0  0  0  0
   -6.5937   -2.7412    5.7842 H   0  0  0  0  0  0  0  0  0  0  0  0
   -7.5736   -4.8385    6.5982 H   0  0  0  0  0  0  0  0  0  0  0  0
   -6.4421   -5.2100    5.3301 H   0  0  0  0  0  0  0  0  0  0  0  0
   -5.8391   -5.3841    8.3226 H   0  0  0  0  0  0  0  0  0  0  0  0
   -6.1130   -6.7605    7.2262 H   0  0  0  0  0  0  0  0  0  0  0  0
   -4.6704   -5.7745    7.0517 H   0  0  0  0  0  0  0  0  0  0  0  0
  1  2  2  0  0  0  0
  1  3  1  0  0  0  0
  1 23  1  0  0  0  0
  2  4  1  0  0  0  0
  2 24  1  0  0  0  0
  3  5  1  0  0  0  0
  3 25  1  0  0  0  0
  3 26  1  0  0  0  0
  4  6  1  0  0  0  0
  4 27  1  0  0  0  0
  4 28  1  0  0  0  0
  5  7  2  0  0  0  0
  5 29  1  0  0  0  0
  6  8  2  0  0  0  0
  6 30  1  0  0  0  0
  7  9  1  0  0  0  0
  7 31  1  0  0  0  0
  8 10  1  0  0  0  0
  8 32  1  0  0  0  0
  9 11  1  0  0  0  0
  9 33  1  0  0  0  0
  9 34  1  0  0  0  0
 10 12  1  0  0  0  0
 10 35  1  0  0  0  0
 10 36  1  0  0  0  0
 11 13  1  0  0  0  0
 11 37  1  0  0  0  0
 11 38  1  0  0  0  0
 12 14  2  0  0  0  0
 12 39  1  0  0  0  0
 13 15  1  0  0  0  0
 13 40  1  0  0  0  0
 13 41  1  0  0  0  0
 14 16  1  0  0  0  0
 14 42  1  0  0  0  0
 15 17  1  0  0  0  0
 15 18  2  0  0  0  0
 16 19  1  0  0  0  0
 16 43  1  0  0  0  0
 16 44  1  0  0  0  0
 17 45  1  0  0  0  0
 19 20  1  0  0  0  0
 19 46  1  0  0  0  0
 19 47  1  0  0  0  0
 20 21  1  0  0  0  0
 20 48  1  0  0  0  0
 20 49  1  0  0  0  0
 21 22  1  0  0  0  0
 21 50  1  0  0  0  0
 21 51  1  0  0  0  0
 22 52  1  0  0  0  0
 22 53  1  0  0  0  0
 22 54  1  0  0  0  0
M  END
>  <DRUGBANK_ID>
DB04557

>  <SECONDARY_ACCESSION_NUMBERS>
EXPT00409

>  <COMMON_NAME>
Arachidonic Acid

>  <CAS_NUMBER>
506-32-1

>  <UNII>
27YG812J1I

$$$$
