
 OpenBabel10282417163D

 54 59  0  0  1  0  0  0  0  0999 V2000
   -1.3704   -0.2810   -0.5284 C   0  0  0  0  0  0  0  0  0  0  0  0
   -2.2104    0.5321   -1.2749 O   0  0  0  0  0  0  0  0  0  0  0  0
   -1.6296    0.9617   -2.5728 C   0  0  2  0  0  0  0  0  0  0  0  0
   -0.2685    0.4367   -2.5116 C   0  0  2  0  0  0  0  0  0  0  0  0
   -0.0421   -0.3859   -1.2240 C   0  0  2  0  0  0  0  0  0  0  0  0
   -1.0150   -0.4902   -5.2744 C   0  0  2  0  0  0  0  0  0  0  0  0
   -0.2392   -0.3790   -3.9570 C   0  0  1  0  0  0  0  0  0  0  0  0
   -0.3095   -2.1673   -6.0339 C   0  0  2  0  0  0  0  0  0  0  0  0
   -0.8864   -2.6805   -4.7038 C   0  0  2  0  0  0  0  0  0  0  0  0
   -0.6416   -1.7239   -3.6473 O   0  0  0  0  0  0  0  0  0  0  0  0
   -0.6641   -4.0493   -4.3790 O   0  0  0  0  0  0  0  0  0  0  0  0
   -0.2541   -4.5509   -5.5612 C   0  0  0  0  0  0  0  0  0  0  0  0
    0.7969   -3.6493   -5.9378 C   0  0  2  0  0  0  0  0  0  0  0  0
   -1.5947   -0.6552    0.6175 O   0  0  0  0  0  0  0  0  0  0  0  0
   -2.2874    0.3127   -4.0233 C   0  0  1  0  0  0  0  0  0  0  0  0
   -0.4265    0.5033   -6.5194 C   0  0  1  0  0  0  0  0  0  0  0  0
    1.1276   -1.6168   -7.0163 C   0  0  1  0  0  0  0  0  0  0  0  0
    0.2795   -0.5136   -7.6752 C   0  0  0  0  0  0  0  0  0  0  0  0
   -0.8350   -5.3957   -6.2879 O   0  0  0  0  0  0  0  0  0  0  0  0
    0.4644    1.6688   -2.3011 O   0  0  0  0  0  0  0  0  0  0  0  0
   -3.4695   -0.1545   -3.3102 O   0  0  0  0  0  0  0  0  0  0  0  0
    0.8364   -1.5664   -1.5515 C   0  0  0  0  0  0  0  0  0  0  0  0
    0.5248    0.9424   -4.5736 C   0  0  0  0  0  0  0  0  0  0  0  0
   -0.1773    1.5401   -5.5807 O   0  0  0  0  0  0  0  0  0  0  0  0
    1.6711    1.2686   -4.3000 O   0  0  0  0  0  0  0  0  0  0  0  0
    1.7122   -4.0998   -4.8586 O   0  0  0  0  0  0  0  0  0  0  0  0
    2.5629   -1.3723   -6.1828 C   0  0  0  0  0  0  0  0  0  0  0  0
    3.6403   -2.4404   -5.9010 C   0  0  0  0  0  0  0  0  0  0  0  0
    3.2941   -0.0408   -6.2853 C   0  0  0  0  0  0  0  0  0  0  0  0
    1.9072   -1.3076   -4.8935 C   0  0  0  0  0  0  0  0  0  0  0  0
   -1.7095    2.0668   -2.5455 H   0  0  0  0  0  0  0  0  0  0  0  0
    0.5692    0.0569   -0.4174 H   0  0  0  0  0  0  0  0  0  0  0  0
   -1.9637   -2.7182   -4.8738 H   0  0  0  0  0  0  0  0  0  0  0  0
    1.3012   -3.9917   -6.8705 H   0  0  0  0  0  0  0  0  0  0  0  0
   -2.7339    1.1288   -4.6067 H   0  0  0  0  0  0  0  0  0  0  0  0
    0.6007    0.8582   -6.7750 H   0  0  0  0  0  0  0  0  0  0  0  0
    1.4872   -2.2545   -7.8647 H   0  0  0  0  0  0  0  0  0  0  0  0
    0.7864   -0.1371   -8.6023 H   0  0  0  0  0  0  0  0  0  0  0  0
   -0.5825   -0.9961   -8.1547 H   0  0  0  0  0  0  0  0  0  0  0  0
    1.1574    1.5988   -1.6226 H   0  0  0  0  0  0  0  0  0  0  0  0
   -3.6392    0.5233   -2.5634 H   0  0  0  0  0  0  0  0  0  0  0  0
    0.9314   -1.7027   -2.6036 H   0  0  0  0  0  0  0  0  0  0  0  0
    1.8844   -1.2822   -1.4162 H   0  0  0  0  0  0  0  0  0  0  0  0
    0.5491   -2.5485   -1.1940 H   0  0  0  0  0  0  0  0  0  0  0  0
    2.1270   -3.4329   -4.2886 H   0  0  0  0  0  0  0  0  0  0  0  0
    4.5774   -2.2913   -6.4335 H   0  0  0  0  0  0  0  0  0  0  0  0
    3.9056   -2.3889   -4.8245 H   0  0  0  0  0  0  0  0  0  0  0  0
    3.3536   -3.4607   -6.1243 H   0  0  0  0  0  0  0  0  0  0  0  0
    2.6681    0.7833   -6.6163 H   0  0  0  0  0  0  0  0  0  0  0  0
    3.6633    0.2177   -5.2766 H   0  0  0  0  0  0  0  0  0  0  0  0
    4.1665   -0.1144   -6.9290 H   0  0  0  0  0  0  0  0  0  0  0  0
    1.1945   -0.6561   -5.2703 H   0  0  0  0  0  0  0  0  0  0  0  0
    1.2974   -2.1210   -4.6591 H   0  0  0  0  0  0  0  0  0  0  0  0
    2.2924   -1.0312   -3.9368 H   0  0  0  0  0  0  0  0  0  0  0  0
  1  2  1  0  0  0  0
  1 14  2  0  0  0  0
  3  2  1  0  0  0  0
  3  4  1  0  0  0  0
  3 15  1  0  0  0  0
  3 31  1  1  0  0  0
  4  5  1  0  0  0  0
  4 20  1  1  0  0  0
  5  1  1  0  0  0  0
  5 22  1  0  0  0  0
  5 32  1  1  0  0  0
  6  7  1  0  0  0  0
  6  8  1  0  0  0  0
  6 16  1  0  0  0  0
  7  4  1  0  0  0  0
  7 23  1  0  0  0  0
  8  9  1  0  0  0  0
  8 17  1  0  0  0  0
  9 10  1  0  0  0  0
  9 11  1  0  0  0  0
  9 33  1  0  0  0  0
 10  7  1  0  0  0  0
 11 12  1  0  0  0  0
 12 13  1  0  0  0  0
 12 19  2  0  0  0  0
 13  8  1  0  0  0  0
 13 34  1  0  0  0  0
 13 26  1  0  0  0  0
 15  6  1  0  0  0  0
 15 35  1  0  0  0  0
 15 21  1  0  0  0  0
 16 18  1  0  0  0  0
 16 36  1  0  0  0  0
 17 18  1  0  0  0  0
 17 37  1  0  0  0  0
 17 27  1  0  0  0  0
 18 38  1  0  0  0  0
 18 39  1  0  0  0  0
 20 40  1  0  0  0  0
 21 41  1  0  0  0  0
 22 42  1  0  0  0  0
 22 43  1  0  0  0  0
 22 44  1  0  0  0  0
 23 24  1  0  0  0  0
 23 25  2  0  0  0  0
 24 16  1  0  0  0  0
 26 45  1  0  0  0  0
 27 28  1  0  0  0  0
 27 29  1  0  0  0  0
 27 30  1  0  0  0  0
 28 46  1  0  0  0  0
 28 47  1  0  0  0  0
 28 48  1  0  0  0  0
 29 49  1  0  0  0  0
 29 50  1  0  0  0  0
 29 51  1  0  0  0  0
 30 52  1  0  0  0  0
 30 53  1  0  0  0  0
 30 54  1  0  0  0  0
M  END
>  <DRUGBANK_ID>
DB06744

>  <COMMON_NAME>
ginkgolide-B

$$$$
