
 OpenBabel10282417133D

 33 33  0  0  0  0  0  0  0  0999 V2000
    3.7213    1.5225    0.1082 S   0  0  3  0  0  0  0  0  0  0  0  0
    5.1452    1.0291   -0.0096 O   0  5  0  0  0  0  0  0  0  0  0  0
    3.3616    1.9986    1.4898 O   0  0  0  0  0  0  0  0  0  0  0  0
   -0.0792    1.7795   -1.2938 O   0  0  0  0  0  0  0  0  0  0  0  0
    0.6858    2.4966    0.6748 O   0  0  0  0  0  0  0  0  0  0  0  0
   -0.6675   -2.5684    4.6735 O   0  0  0  0  0  0  0  0  0  0  0  0
    2.8922   -2.4021    1.0075 N   0  0  0  0  0  0  0  0  0  0  0  0
    0.4852   -0.5371    1.1294 N   0  0  0  0  0  0  0  0  0  0  0  0
    1.6559   -2.7650    0.5952 N   0  0  0  0  0  0  0  0  0  0  0  0
    1.5677   -4.0802    0.6191 N   0  0  0  0  0  0  0  0  0  0  0  0
    2.7556   -0.0990   -0.0081 C   0  0  2  0  0  0  0  0  0  0  0  0
    1.1989    0.1529    0.0172 C   0  0  2  0  0  0  0  0  0  0  0  0
    3.2773   -0.9970    1.1335 C   0  0  0  0  0  0  0  0  0  0  0  0
    3.2106   -0.6721   -1.3774 C   0  0  0  0  0  0  0  0  0  0  0  0
    0.6520    1.5948   -0.1599 C   0  0  0  0  0  0  0  0  0  0  0  0
    3.6482   -3.5156    1.2227 C   0  0  0  0  0  0  0  0  0  0  0  0
   -0.1871   -0.0244    2.2016 C   0  0  0  0  0  0  0  0  0  0  0  0
    2.7855   -4.5599    0.9854 C   0  0  0  0  0  0  0  0  0  0  0  0
   -0.5791   -0.6355    3.3234 C   0  0  0  0  0  0  0  0  0  0  0  0
   -0.2533   -2.0358    3.6481 C   0  0  0  0  0  0  0  0  0  0  0  0
   -0.2032    0.9741   -1.8237 H   0  0  0  0  0  0  0  0  0  0  0  0
    0.7073   -1.5328    1.1802 H   0  0  0  0  0  0  0  0  0  0  0  0
    0.8185   -0.4106   -0.8513 H   0  0  0  0  0  0  0  0  0  0  0  0
    4.3724   -1.0051    1.1824 H   0  0  0  0  0  0  0  0  0  0  0  0
    2.9254   -0.6530    2.1148 H   0  0  0  0  0  0  0  0  0  0  0  0
    2.8197   -1.6792   -1.5510 H   0  0  0  0  0  0  0  0  0  0  0  0
    2.8789   -0.0455   -2.2117 H   0  0  0  0  0  0  0  0  0  0  0  0
    4.3027   -0.7627   -1.4451 H   0  0  0  0  0  0  0  0  0  0  0  0
    4.6854   -3.4611    1.5092 H   0  0  0  0  0  0  0  0  0  0  0  0
   -0.4469    1.0257    2.0937 H   0  0  0  0  0  0  0  0  0  0  0  0
    2.9642   -5.6209    1.0453 H   0  0  0  0  0  0  0  0  0  0  0  0
   -1.1468   -0.0929    4.0680 H   0  0  0  0  0  0  0  0  0  0  0  0
    0.3863   -2.5782    2.9382 H   0  0  0  0  0  0  0  0  0  0  0  0
  1  2  1  0  0  0  0
  1  3  2  0  0  0  0
  4 15  1  0  0  0  0
  4 21  1  0  0  0  0
  5 15  2  0  0  0  0
  6 20  2  0  0  0  0
  7  9  1  0  0  0  0
  7 13  1  0  0  0  0
  7 16  1  0  0  0  0
  8 17  1  0  0  0  0
  8 22  1  0  0  0  0
  9 10  2  0  0  0  0
 10 18  1  0  0  0  0
 11 13  1  1  0  0  0
 11 14  1  0  0  0  0
 11 12  1  0  0  0  0
 11  1  1  0  0  0  0
 12  8  1  0  0  0  0
 12 15  1  0  0  0  0
 12 23  1  6  0  0  0
 13 24  1  0  0  0  0
 13 25  1  0  0  0  0
 14 26  1  0  0  0  0
 14 27  1  0  0  0  0
 14 28  1  0  0  0  0
 16 18  2  0  0  0  0
 16 29  1  0  0  0  0
 17 19  2  0  0  0  0
 17 30  1  0  0  0  0
 18 31  1  0  0  0  0
 19 20  1  0  0  0  0
 19 32  1  0  0  0  0
 20 33  1  0  0  0  0
M  CHG  1   2  -1
M  END
>  <DRUGBANK_ID>
DB03834

>  <SECONDARY_ACCESSION_NUMBERS>
EXPT03014

>  <COMMON_NAME>
(3S)-3-(dioxidosulfanyl)-N-[(1Z)-3-oxoprop-1-en-1-yl]-4-(1H-1,2,3-triazol-1-yl)-D-valine

>  <SYNONYMS>
Tazobactam Intermediate

$$$$
