
 OpenBabel10282417133D

 35 36  0  0  0  0  0  0  0  0999 V2000
   -0.1203   -1.1970    0.2732 N   0  0  0  0  0  0  0  0  0  0  0  0
    1.0895   -0.4817    0.2236 C   0  0  0  0  0  0  0  0  0  0  0  0
   -1.2877   -0.5323   -0.0061 C   0  0  0  0  0  0  0  0  0  0  0  0
    1.0835    0.8506   -0.0631 N   0  0  0  0  0  0  0  0  0  0  0  0
   -0.0500    1.4755   -0.0229 C   0  0  0  0  0  0  0  0  0  0  0  0
   -1.3340    0.7832    0.1193 C   0  0  0  0  0  0  0  0  0  0  0  0
   -0.3232   -2.6569    0.6085 C   0  0  2  0  0  0  0  0  0  0  0  0
    0.2930   -3.0368    1.8613 O   0  0  0  0  0  0  0  0  0  0  0  0
   -0.2047   -3.6934   -0.5212 C   0  0  1  0  0  0  0  0  0  0  0  0
    1.0754   -4.2510    1.8552 C   0  0  1  0  0  0  0  0  0  0  0  0
    0.4678   -5.0406    0.6269 C   0  0  1  0  0  0  0  0  0  0  0  0
    0.1964   -3.8303   -1.9915 O   0  0  0  0  0  0  0  0  0  0  0  0
    2.2017   -0.9876    0.4873 O   0  0  0  0  0  0  0  0  0  0  0  0
   -0.5398   -6.0140    0.6033 O   0  0  0  0  0  0  0  0  0  0  0  0
   -0.0211    2.8218   -0.1619 N   0  0  0  0  0  0  0  0  0  0  0  0
    2.7036   -3.8761    2.1707 C   0  0  0  0  0  0  0  0  0  0  0  0
    3.3500   -2.7231    1.6174 O   0  0  0  0  0  0  0  0  0  0  0  0
    1.5527   -4.2235   -0.9923 P   0  0  0  0  0  0  0  0  0  0  0  0
    2.3002   -4.8950   -2.2747 O   0  0  0  0  0  0  0  0  0  0  0  0
    2.2396   -2.8611   -1.0824 O   0  0  0  0  0  0  0  0  0  0  0  0
    2.9091   -4.6167    0.0070 O   0  0  0  0  0  0  0  0  0  0  0  0
   -2.1734   -1.1342   -0.1688 H   0  0  0  0  0  0  0  0  0  0  0  0
   -2.2546    1.3245    0.2221 H   0  0  0  0  0  0  0  0  0  0  0  0
   -1.3961   -2.8212    0.7218 H   0  0  0  0  0  0  0  0  0  0  0  0
    0.2812   -2.7395   -0.8376 H   0  0  0  0  0  0  0  0  0  0  0  0
    0.8696   -4.9127    2.7004 H   0  0  0  0  0  0  0  0  0  0  0  0
    1.2774   -5.7760    0.3272 H   0  0  0  0  0  0  0  0  0  0  0  0
   -1.3065   -5.6084    0.1759 H   0  0  0  0  0  0  0  0  0  0  0  0
   -0.8565    3.3815   -0.2181 H   0  0  0  0  0  0  0  0  0  0  0  0
    0.8742    3.2436   -0.3772 H   0  0  0  0  0  0  0  0  0  0  0  0
    2.8250   -3.7427    3.2460 H   0  0  0  0  0  0  0  0  0  0  0  0
    3.4202   -4.6989    1.9808 H   0  0  0  0  0  0  0  0  0  0  0  0
    2.8876   -2.3026    0.8559 H   0  0  0  0  0  0  0  0  0  0  0  0
    2.2167   -5.8384   -2.4511 H   0  0  0  0  0  0  0  0  0  0  0  0
    3.5031   -3.8322   -0.1150 H   0  0  0  0  0  0  0  0  0  0  0  0
  1  2  1  0  0  0  0
  1  3  1  0  0  0  0
  2 13  2  0  0  0  0
  2  4  1  0  0  0  0
  3  6  2  0  0  0  0
  3 22  1  0  0  0  0
  4  5  2  0  0  0  0
  5 15  1  0  0  0  0
  6  5  1  0  0  0  0
  6 23  1  0  0  0  0
  7  1  1  0  0  0  0
  7  8  1  0  0  0  0
  7  9  1  0  0  0  0
  7 24  1  1  0  0  0
  8 10  1  0  0  0  0
  9 11  1  0  0  0  0
  9 25  1  1  0  0  0
  9 12  1  0  0  0  0
 10 11  1  0  0  0  0
 10 26  1  1  0  0  0
 10 16  1  0  0  0  0
 11 14  1  0  0  0  0
 11 27  1  6  0  0  0
 12 18  1  0  0  0  0
 14 28  1  0  0  0  0
 15 29  1  0  0  0  0
 15 30  1  0  0  0  0
 16 17  1  0  0  0  0
 16 31  1  0  0  0  0
 16 32  1  0  0  0  0
 17 33  1  0  0  0  0
 18 19  1  0  0  0  0
 18 20  2  0  0  0  0
 18 21  1  0  0  0  0
 19 34  1  0  0  0  0
 21 35  1  0  0  0  0
M  END
>  <DRUGBANK_ID>
DB03765

>  <SECONDARY_ACCESSION_NUMBERS>
EXPT00808

>  <COMMON_NAME>
2'-cytidylic acid

>  <CAS_NUMBER>
85-94-9

>  <UNII>
KBN4598ZJQ

>  <SYNONYMS>
2'-CMP; 2'-cytidinephosphoric acid; Cytidine 2'-phosphate; Cytidine-2'-monophosphate; Cytidine, 2'-phosphate

$$$$
