T3S
 OpenBabel10282417173D

 45 47  0  0  0  0  0  0  0  0999 V2000
    0.7725    1.3743    0.2651 C   0  0  0  0  0  0  0  0  0  0  0  0
   -0.7366    1.4149    0.5471 C   0  0  0  0  0  0  0  0  0  0  0  0
   -1.4418    0.1232    0.2104 C   0  0  0  0  0  0  0  0  0  0  0  0
   -0.6128   -0.9790    0.8850 C   0  0  0  0  0  0  0  0  0  0  0  0
    0.8321   -1.0398    0.4071 C   0  0  0  0  0  0  0  0  0  0  0  0
    1.5621    0.1798    0.5988 N   0  0  0  0  0  0  0  0  0  0  0  0
    2.8093    0.0481   -0.2183 C   0  0  0  0  0  0  0  0  0  0  0  0
    2.7657   -0.0454   -1.8129 C   0  0  1  0  0  0  0  0  0  0  0  0
    2.0540   -1.2357   -2.3275 O   0  0  0  0  0  0  0  0  0  0  0  0
    2.1268    1.1567   -2.5072 C   0  0  1  0  0  0  0  0  0  0  0  0
    2.8477    1.5358   -3.6806 O   0  0  0  0  0  0  0  0  0  0  0  0
    0.7276    0.6628   -2.9182 C   0  0  0  0  0  0  0  0  0  0  0  0
    0.9296   -0.8309   -3.1754 C   0  0  2  0  0  0  0  0  0  0  0  0
   -0.3230   -1.7170   -3.0836 N   0  0  0  0  0  0  0  0  0  0  0  0
   -0.9385   -2.1447   -1.9223 C   0  0  0  0  0  0  0  0  0  0  0  0
   -2.0533   -2.8549   -1.6831 C   0  0  0  0  0  0  0  0  0  0  0  0
   -2.7231   -3.2991   -0.3656 C   0  0  0  0  0  0  0  0  0  0  0  0
   -2.7957   -3.1076   -2.9179 C   0  0  0  0  0  0  0  0  0  0  0  0
   -3.8415   -3.7368   -2.8970 O   0  0  0  0  0  0  0  0  0  0  0  0
   -2.2681   -2.5461   -4.0581 N   0  0  0  0  0  0  0  0  0  0  0  0
   -1.0212   -1.9624   -4.2513 C   0  0  0  0  0  0  0  0  0  0  0  0
   -0.6161   -1.6735   -5.3521 O   0  0  0  0  0  0  0  0  0  0  0  0
    3.8187   -0.1396   -2.1214 H   0  0  0  0  0  0  0  0  0  0  0  0
    2.1848    2.0587   -1.8868 H   0  0  0  0  0  0  0  0  0  0  0  0
    1.3045   -0.9049   -4.1993 H   0  0  0  0  0  0  0  0  0  0  0  0
    0.7871    1.5605   -0.7812 H   0  0  0  0  0  0  0  0  0  0  0  0
    1.2673    2.2555    0.6691 H   0  0  0  0  0  0  0  0  0  0  0  0
   -1.1908    2.2204   -0.0471 H   0  0  0  0  0  0  0  0  0  0  0  0
   -0.8959    1.6149    1.6023 H   0  0  0  0  0  0  0  0  0  0  0  0
   -2.4815    0.1104    0.5594 H   0  0  0  0  0  0  0  0  0  0  0  0
   -1.5592    0.0510   -0.8822 H   0  0  0  0  0  0  0  0  0  0  0  0
   -0.6820   -0.9260    1.9666 H   0  0  0  0  0  0  0  0  0  0  0  0
   -1.0107   -1.9453    0.6654 H   0  0  0  0  0  0  0  0  0  0  0  0
    1.3152   -1.9823    0.7041 H   0  0  0  0  0  0  0  0  0  0  0  0
    0.8840   -1.1263   -0.6538 H   0  0  0  0  0  0  0  0  0  0  0  0
    3.4558    0.8776    0.0847 H   0  0  0  0  0  0  0  0  0  0  0  0
    3.3217   -0.8630    0.1358 H   0  0  0  0  0  0  0  0  0  0  0  0
    2.8688    0.7821   -4.2904 H   0  0  0  0  0  0  0  0  0  0  0  0
   -0.0473    0.7506   -2.1619 H   0  0  0  0  0  0  0  0  0  0  0  0
    0.3355    1.2165   -3.7730 H   0  0  0  0  0  0  0  0  0  0  0  0
   -0.5152   -1.7271   -1.1003 H   0  0  0  0  0  0  0  0  0  0  0  0
   -3.7277   -2.8720   -0.2520 H   0  0  0  0  0  0  0  0  0  0  0  0
   -2.7923   -4.3902   -0.3277 H   0  0  0  0  0  0  0  0  0  0  0  0
   -2.2568   -3.0887    0.6000 H   0  0  0  0  0  0  0  0  0  0  0  0
   -2.8123   -2.6666   -4.8906 H   0  0  0  0  0  0  0  0  0  0  0  0
  1  2  1  0  0  0  0
  1  6  1  0  0  0  0
  1 26  1  0  0  0  0
  1 27  1  0  0  0  0
  2  3  1  0  0  0  0
  2 28  1  0  0  0  0
  2 29  1  0  0  0  0
  3  4  1  0  0  0  0
  3 30  1  0  0  0  0
  3 31  1  0  0  0  0
  4  5  1  0  0  0  0
  4 32  1  0  0  0  0
  4 33  1  0  0  0  0
  5  6  1  0  0  0  0
  5 34  1  0  0  0  0
  5 35  1  0  0  0  0
  6  7  1  0  0  0  0
  7 36  1  0  0  0  0
  7 37  1  0  0  0  0
  8  7  1  0  0  0  0
  8  9  1  0  0  0  0
  8 10  1  0  0  0  0
  8 23  1  6  0  0  0
  9 13  1  0  0  0  0
 10 11  1  0  0  0  0
 10 12  1  0  0  0  0
 10 24  1  1  0  0  0
 11 38  1  0  0  0  0
 12 13  1  0  0  0  0
 12 39  1  0  0  0  0
 12 40  1  0  0  0  0
 13 25  1  6  0  0  0
 13 14  1  0  0  0  0
 14 15  1  0  0  0  0
 14 21  1  0  0  0  0
 15 16  2  0  0  0  0
 15 41  1  0  0  0  0
 16 17  1  0  0  0  0
 16 18  1  0  0  0  0
 17 42  1  0  0  0  0
 17 43  1  0  0  0  0
 17 44  1  0  0  0  0
 18 19  2  0  0  0  0
 18 20  1  0  0  0  0
 20 21  1  0  0  0  0
 20 45  1  0  0  0  0
 21 22  2  0  0  0  0
M  END
>  <DRUGBANK_ID>
DB08596

>  <COMMON_NAME>
5'-deoxy-5'-piperidin-1-ylthymidine

$$$$
