
 OpenBabel10282417123D

 80 84  0  0  1  0  0  0  0  0999 V2000
    0.9381    0.0088   -0.1317 C   0  0  0  0  0  0  0  0  0  0  0  0
    2.3903   -0.0715    2.9731 C   0  0  0  0  0  0  0  0  0  0  0  0
    0.7179   -6.4611    6.7425 C   0  0  0  0  0  0  0  0  0  0  0  0
   -4.0539   -8.0406    0.0521 C   0  0  0  0  0  0  0  0  0  0  0  0
    0.9766   -6.2233    5.4596 C   0  0  0  0  0  0  0  0  0  0  0  0
   -0.2091   -5.4531    6.8125 C   0  0  0  0  0  0  0  0  0  0  0  0
   -2.7422   -8.2057    0.2843 C   0  0  0  0  0  0  0  0  0  0  0  0
   -4.8924   -7.9634    1.1759 C   0  0  0  0  0  0  0  0  0  0  0  0
    0.3369   -5.1746    4.2648 C   0  0  0  0  0  0  0  0  0  0  0  0
   -0.8407   -4.4192    5.6169 C   0  0  0  0  0  0  0  0  0  0  0  0
   -2.3662   -8.3478    1.6091 C   0  0  0  0  0  0  0  0  0  0  0  0
   -4.4215   -7.9170    2.5241 C   0  0  0  0  0  0  0  0  0  0  0  0
    1.7009   -4.9818   -0.8625 C   0  0  0  0  0  0  0  0  0  0  0  0
    1.7656   -3.7798    5.6307 C   0  0  0  0  0  0  0  0  0  0  0  0
    2.6086   -3.9234   -0.9348 C   0  0  0  0  0  0  0  0  0  0  0  0
    1.1112   -2.4688    5.7768 C   0  0  0  0  0  0  0  0  0  0  0  0
   -0.9220   -3.6881    2.8555 C   0  0  0  0  0  0  0  0  0  0  0  0
   -0.0228   -3.4165   -0.2970 C   0  0  0  0  0  0  0  0  0  0  0  0
    2.6614   -3.6820    3.4612 C   0  0  0  0  0  0  0  0  0  0  0  0
   -2.4306   -7.9438    4.1621 C   0  0  0  0  0  0  0  0  0  0  0  0
   -0.5038   -5.9051   -0.0685 C   0  0  0  0  0  0  0  0  0  0  0  0
    1.8328   -6.4351    3.5550 C   0  0  0  0  0  0  0  0  0  0  0  0
   -2.6091   -5.6056    4.0955 C   0  0  0  0  0  0  0  0  0  0  0  0
   -0.5971   -4.1934    4.2465 C   0  0  0  0  0  0  0  0  0  0  0  0
   -3.0856   -8.1427    2.7864 C   0  0  0  0  0  0  0  0  0  0  0  0
    0.3905   -4.7482   -0.4520 C   0  0  0  0  0  0  0  0  0  0  0  0
    2.4214   -4.7203    4.3510 C   0  0  0  0  0  0  0  0  0  0  0  0
   -1.6638   -4.7885    1.9682 C   0  0  2  0  0  0  0  0  0  0  0  0
    2.2155   -2.6246   -0.6016 C   0  0  0  0  0  0  0  0  0  0  0  0
    1.3692   -1.6542    4.7801 C   0  0  0  0  0  0  0  0  0  0  0  0
   -2.9480   -5.1856    2.7015 C   0  0  2  0  0  0  0  0  0  0  0  0
    0.8964   -2.3665   -0.2467 C   0  0  0  0  0  0  0  0  0  0  0  0
    2.1763   -2.2377    3.7107 C   0  0  0  0  0  0  0  0  0  0  0  0
   -0.1115   -7.0268    2.0091 C   0  0  0  0  0  0  0  0  0  0  0  0
   -1.5333   -6.7648    4.2551 N   0  0  0  0  0  0  0  0  0  0  0  0
   -0.7712   -5.9561    1.3741 N   0  0  0  0  0  0  0  0  0  0  0  0
    0.0201   -6.9997    3.3336 N   0  0  0  0  0  0  0  0  0  0  0  0
    3.1369   -1.6213   -0.6372 O   0  0  0  0  0  0  0  0  0  0  0  0
    0.8761   -0.3845    4.9655 O   0  0  0  0  0  0  0  0  0  0  0  0
   -3.9144   -4.1069    2.7911 O   0  0  0  0  0  0  0  0  0  0  0  0
    0.5158   -7.9827    1.5209 O   0  0  0  0  0  0  0  0  0  0  0  0
    0.3976   -1.2221    0.3194 O   0  0  0  0  0  0  0  0  0  0  0  0
    2.6495   -1.4329    2.7016 O   0  0  0  0  0  0  0  0  0  0  0  0
   -2.0826   -4.3089    1.0737 H   0  0  0  0  0  0  0  0  0  0  0  0
   -3.4563   -5.9282    2.1501 H   0  0  0  0  0  0  0  0  0  0  0  0
    0.5294    0.8103    0.4923 H   0  0  0  0  0  0  0  0  0  0  0  0
    0.6219    0.1729   -1.1624 H   0  0  0  0  0  0  0  0  0  0  0  0
    2.0187    0.1018   -0.0295 H   0  0  0  0  0  0  0  0  0  0  0  0
    1.3145    0.1321    2.8760 H   0  0  0  0  0  0  0  0  0  0  0  0
    2.7903    0.2307    3.9546 H   0  0  0  0  0  0  0  0  0  0  0  0
    2.9145    0.4968    2.2243 H   0  0  0  0  0  0  0  0  0  0  0  0
    1.5997   -6.8190    7.2956 H   0  0  0  0  0  0  0  0  0  0  0  0
   -4.3531   -7.9978   -0.9856 H   0  0  0  0  0  0  0  0  0  0  0  0
    2.0646   -6.5767    5.4320 H   0  0  0  0  0  0  0  0  0  0  0  0
    0.0660   -4.9226    7.7337 H   0  0  0  0  0  0  0  0  0  0  0  0
   -1.9592   -8.2269   -0.4744 H   0  0  0  0  0  0  0  0  0  0  0  0
   -5.9533   -7.9262    1.0015 H   0  0  0  0  0  0  0  0  0  0  0  0
    0.6871   -5.0781    3.1598 H   0  0  0  0  0  0  0  0  0  0  0  0
   -1.5014   -3.6543    5.9700 H   0  0  0  0  0  0  0  0  0  0  0  0
   -1.3389   -8.5311    1.5703 H   0  0  0  0  0  0  0  0  0  0  0  0
   -5.0690   -7.5466    3.3175 H   0  0  0  0  0  0  0  0  0  0  0  0
    2.0254   -5.9890   -1.1156 H   0  0  0  0  0  0  0  0  0  0  0  0
    1.2069   -4.1056    6.4872 H   0  0  0  0  0  0  0  0  0  0  0  0
    3.6364   -4.1402   -1.2020 H   0  0  0  0  0  0  0  0  0  0  0  0
    0.2353   -2.2372    6.4479 H   0  0  0  0  0  0  0  0  0  0  0  0
   -0.0407   -3.4132    2.2376 H   0  0  0  0  0  0  0  0  0  0  0  0
   -1.4877   -2.7570    2.9294 H   0  0  0  0  0  0  0  0  0  0  0  0
   -1.0629   -3.1700   -0.1159 H   0  0  0  0  0  0  0  0  0  0  0  0
    3.1096   -3.9503    2.5264 H   0  0  0  0  0  0  0  0  0  0  0  0
   -1.8759   -8.8004    4.5278 H   0  0  0  0  0  0  0  0  0  0  0  0
   -3.2319   -7.7893    4.9239 H   0  0  0  0  0  0  0  0  0  0  0  0
   -1.4446   -5.8473   -0.6202 H   0  0  0  0  0  0  0  0  0  0  0  0
   -0.0184   -6.8451   -0.3688 H   0  0  0  0  0  0  0  0  0  0  0  0
    2.1256   -7.4413    4.0033 H   0  0  0  0  0  0  0  0  0  0  0  0
    2.2689   -6.5053    2.5364 H   0  0  0  0  0  0  0  0  0  0  0  0
   -2.5169   -4.5798    4.4799 H   0  0  0  0  0  0  0  0  0  0  0  0
   -3.4087   -5.6980    4.8657 H   0  0  0  0  0  0  0  0  0  0  0  0
    3.9887   -1.9535   -0.9526 H   0  0  0  0  0  0  0  0  0  0  0  0
    0.4529   -0.2932    5.8445 H   0  0  0  0  0  0  0  0  0  0  0  0
   -3.9423   -3.6476    1.9374 H   0  0  0  0  0  0  0  0  0  0  0  0
  1 46  1  0  0  0  0
  1 47  1  0  0  0  0
  1 48  1  0  0  0  0
  2 49  1  0  0  0  0
  2 50  1  0  0  0  0
  2 51  1  0  0  0  0
  3 52  1  0  0  0  0
  4 53  1  0  0  0  0
  5  3  2  0  0  0  0
  5 54  1  0  0  0  0
  6  3  1  0  0  0  0
  6 55  1  0  0  0  0
  7  4  2  0  0  0  0
  7 56  1  0  0  0  0
  8  4  1  0  0  0  0
  8 57  1  0  0  0  0
  9  5  1  0  0  0  0
  9 58  1  0  0  0  0
 10  6  2  0  0  0  0
 10 59  1  0  0  0  0
 11  7  1  0  0  0  0
 11 60  1  0  0  0  0
 12  8  2  0  0  0  0
 12 61  1  0  0  0  0
 13 62  1  0  0  0  0
 14 63  1  0  0  0  0
 15 13  2  0  0  0  0
 15 64  1  0  0  0  0
 16 14  2  0  0  0  0
 16 65  1  0  0  0  0
 17 66  1  0  0  0  0
 17 67  1  0  0  0  0
 18 68  1  0  0  0  0
 19 69  1  0  0  0  0
 20 70  1  0  0  0  0
 20 71  1  0  0  0  0
 21 72  1  0  0  0  0
 21 73  1  0  0  0  0
 22 74  1  0  0  0  0
 22 75  1  0  0  0  0
 23 76  1  0  0  0  0
 23 77  1  0  0  0  0
 24  9  2  0  0  0  0
 24 10  1  0  0  0  0
 24 17  1  0  0  0  0
 25 11  2  0  0  0  0
 25 12  1  0  0  0  0
 25 20  1  0  0  0  0
 26 13  1  0  0  0  0
 26 18  2  0  0  0  0
 26 21  1  0  0  0  0
 27 14  1  0  0  0  0
 27 19  2  0  0  0  0
 27 22  1  0  0  0  0
 28 44  1  6  0  0  0
 28 17  1  0  0  0  0
 29 15  1  0  0  0  0
 30 16  1  0  0  0  0
 31 23  1  0  0  0  0
 31 28  1  0  0  0  0
 31 45  1  6  0  0  0
 31 40  1  0  0  0  0
 32 18  1  0  0  0  0
 32 29  2  0  0  0  0
 33 19  1  0  0  0  0
 33 30  2  0  0  0  0
 35 20  1  0  0  0  0
 35 23  1  0  0  0  0
 36 21  1  0  0  0  0
 36 28  1  0  0  0  0
 36 34  1  0  0  0  0
 37 22  1  0  0  0  0
 37 34  1  0  0  0  0
 37 35  1  0  0  0  0
 38 29  1  0  0  0  0
 38 78  1  0  0  0  0
 39 30  1  0  0  0  0
 39 79  1  0  0  0  0
 40 80  1  0  0  0  0
 41 34  2  0  0  0  0
 42  1  1  0  0  0  0
 42 32  1  0  0  0  0
 43  2  1  0  0  0  0
 43 33  1  0  0  0  0
M  END
>  <DRUGBANK_ID>
DB02804

>  <SECONDARY_ACCESSION_NUMBERS>
EXPT00377

>  <COMMON_NAME>
A-98881

$$$$
