
 OpenBabel10282417173D

 64 68  0  0  0  0  0  0  0  0999 V2000
    2.2802   -5.3649   -4.0599 N   0  0  0  0  0  0  0  0  0  0  0  0
    2.6780   -5.8410   -2.8033 C   0  0  0  0  0  0  0  0  0  0  0  0
    2.9338   -5.4420   -5.3593 C   0  0  2  0  0  0  0  0  0  0  0  0
    1.5578   -4.2375   -3.8739 N   0  0  0  0  0  0  0  0  0  0  0  0
    1.9773   -5.0271   -1.9267 C   0  0  0  0  0  0  0  0  0  0  0  0
    3.5287   -6.8152   -2.4236 N   0  0  0  0  0  0  0  0  0  0  0  0
    3.3307   -3.9763   -5.6908 C   0  0  0  0  0  0  0  0  0  0  0  0
    2.2803   -5.9231   -6.7058 C   0  0  1  0  0  0  0  0  0  0  0  0
    1.5098   -3.9536   -2.5933 N   0  0  0  0  0  0  0  0  0  0  0  0
    1.8549   -5.3892   -0.5816 C   0  0  0  0  0  0  0  0  0  0  0  0
    3.5030   -7.0075   -1.0668 C   0  0  0  0  0  0  0  0  0  0  0  0
    2.5236   -3.5456   -6.9219 C   0  0  1  0  0  0  0  0  0  0  0  0
    1.5847   -4.7223   -7.2990 C   0  0  1  0  0  0  0  0  0  0  0  0
    3.3349   -6.2606   -7.6516 O   0  0  0  0  0  0  0  0  0  0  0  0
    2.6310   -6.4429   -0.1835 N   0  0  0  0  0  0  0  0  0  0  0  0
    0.9692   -4.7170    0.3158 N   0  0  0  0  0  0  0  0  0  0  0  0
    1.8520   -2.3052   -6.7095 O   0  0  0  0  0  0  0  0  0  0  0  0
    1.2629   -4.8667   -8.6901 O   0  0  0  0  0  0  0  0  0  0  0  0
    4.8668   -8.0078   -0.4292 S   0  0  0  0  0  0  0  0  0  0  0  0
    4.7927   -7.9302    1.4208 C   0  0  0  0  0  0  0  0  0  0  0  0
    5.2079   -6.6178    2.1038 C   0  0  0  0  0  0  0  0  0  0  0  0
    0.7155   -2.0833   -7.5418 C   0  0  0  0  0  0  0  0  0  0  0  0
    0.9453   -2.0614   -9.0716 C   0  0  0  0  0  0  0  0  0  0  0  0
    2.1239   -2.6259   -9.6397 O   0  0  0  0  0  0  0  0  0  0  0  0
    4.2994   -5.4603    1.7696 C   0  0  0  0  0  0  0  0  0  0  0  0
    0.1678   -3.5591   -0.1794 C   0  0  1  0  0  0  0  0  0  0  0  0
   -1.1832   -3.9203   -0.8383 C   0  0  1  0  0  0  0  0  0  0  0  0
   -1.1347   -2.9868    0.3181 C   0  0  0  0  0  0  0  0  0  0  0  0
   -1.5473   -3.5875   -2.2691 C   0  0  0  0  0  0  0  0  0  0  0  0
   -1.0943   -4.4441   -3.2674 C   0  0  0  0  0  0  0  0  0  0  0  0
   -1.2672   -4.2140   -4.6216 C   0  0  0  0  0  0  0  0  0  0  0  0
   -2.0816   -3.1736   -5.0451 C   0  0  0  0  0  0  0  0  0  0  0  0
   -2.7335   -2.4273   -4.0839 C   0  0  0  0  0  0  0  0  0  0  0  0
   -2.4544   -2.6083   -2.7108 C   0  0  0  0  0  0  0  0  0  0  0  0
   -0.6746   -5.0283   -5.4828 F   0  0  0  0  0  0  0  0  0  0  0  0
   -2.2883   -2.9667   -6.3476 F   0  0  0  0  0  0  0  0  0  0  0  0
    3.8008   -6.0862   -5.2034 H   0  0  0  0  0  0  0  0  0  0  0  0
    4.4058   -3.9479   -5.8634 H   0  0  0  0  0  0  0  0  0  0  0  0
    3.1751   -3.2374   -4.8952 H   0  0  0  0  0  0  0  0  0  0  0  0
    1.6081   -6.7866   -6.6687 H   0  0  0  0  0  0  0  0  0  0  0  0
    3.3093   -3.3289   -7.6452 H   0  0  0  0  0  0  0  0  0  0  0  0
    0.6149   -4.5887   -6.8559 H   0  0  0  0  0  0  0  0  0  0  0  0
    3.8495   -5.4610   -7.8702 H   0  0  0  0  0  0  0  0  0  0  0  0
    1.2762   -4.7911    1.2807 H   0  0  0  0  0  0  0  0  0  0  0  0
    2.0012   -5.1797   -9.2415 H   0  0  0  0  0  0  0  0  0  0  0  0
    3.8110   -8.2679    1.7670 H   0  0  0  0  0  0  0  0  0  0  0  0
    5.5079   -8.6898    1.7726 H   0  0  0  0  0  0  0  0  0  0  0  0
    5.1808   -6.7606    3.1930 H   0  0  0  0  0  0  0  0  0  0  0  0
    6.2415   -6.3575    1.8513 H   0  0  0  0  0  0  0  0  0  0  0  0
   -0.0816   -2.7819   -7.2647 H   0  0  0  0  0  0  0  0  0  0  0  0
    0.2760   -1.1182   -7.2584 H   0  0  0  0  0  0  0  0  0  0  0  0
    0.0707   -2.5121   -9.5552 H   0  0  0  0  0  0  0  0  0  0  0  0
    1.0142   -1.0223   -9.3724 H   0  0  0  0  0  0  0  0  0  0  0  0
    2.3456   -3.4105   -9.1335 H   0  0  0  0  0  0  0  0  0  0  0  0
    3.2653   -5.7420    1.9922 H   0  0  0  0  0  0  0  0  0  0  0  0
    4.5177   -4.5561    2.3365 H   0  0  0  0  0  0  0  0  0  0  0  0
    4.4268   -5.1944    0.7183 H   0  0  0  0  0  0  0  0  0  0  0  0
    0.8218   -2.7378   -0.4743 H   0  0  0  0  0  0  0  0  0  0  0  0
   -1.5251   -4.9226   -0.5814 H   0  0  0  0  0  0  0  0  0  0  0  0
   -1.6122   -3.3330    1.2240 H   0  0  0  0  0  0  0  0  0  0  0  0
   -1.2978   -1.9268    0.1313 H   0  0  0  0  0  0  0  0  0  0  0  0
   -0.4958   -5.3129   -2.9951 H   0  0  0  0  0  0  0  0  0  0  0  0
   -3.4943   -1.7204   -4.4128 H   0  0  0  0  0  0  0  0  0  0  0  0
   -2.9983   -2.0194   -1.9825 H   0  0  0  0  0  0  0  0  0  0  0  0
  1  2  1  0  0  0  0
  1  4  1  0  0  0  0
  2  5  2  0  0  0  0
  2  6  1  0  0  0  0
  3  1  1  0  0  0  0
  3  7  1  0  0  0  0
  3  8  1  0  0  0  0
  3 37  1  1  0  0  0
  4  9  2  0  0  0  0
  5 10  1  0  0  0  0
  5  9  1  0  0  0  0
  6 11  2  0  0  0  0
  7 12  1  0  0  0  0
  7 38  1  0  0  0  0
  7 39  1  0  0  0  0
  8 13  1  0  0  0  0
  8 14  1  0  0  0  0
  8 40  1  1  0  0  0
 10 15  2  0  0  0  0
 10 16  1  0  0  0  0
 11 15  1  0  0  0  0
 11 19  1  0  0  0  0
 12 13  1  0  0  0  0
 12 41  1  6  0  0  0
 12 17  1  0  0  0  0
 13 18  1  0  0  0  0
 13 42  1  1  0  0  0
 14 43  1  0  0  0  0
 16 44  1  0  0  0  0
 17 22  1  0  0  0  0
 18 45  1  0  0  0  0
 19 20  1  0  0  0  0
 20 21  1  0  0  0  0
 20 46  1  0  0  0  0
 20 47  1  0  0  0  0
 21 25  1  0  0  0  0
 21 48  1  0  0  0  0
 21 49  1  0  0  0  0
 22 23  1  0  0  0  0
 22 50  1  0  0  0  0
 22 51  1  0  0  0  0
 23 24  1  0  0  0  0
 23 52  1  0  0  0  0
 23 53  1  0  0  0  0
 24 54  1  0  0  0  0
 25 55  1  0  0  0  0
 25 56  1  0  0  0  0
 25 57  1  0  0  0  0
 26 27  1  0  0  0  0
 26 58  1  6  0  0  0
 26 16  1  0  0  0  0
 27 28  1  0  0  0  0
 27 29  1  0  0  0  0
 27 59  1  1  0  0  0
 28 26  1  0  0  0  0
 28 60  1  0  0  0  0
 28 61  1  0  0  0  0
 29 30  2  0  0  0  0
 29 34  1  0  0  0  0
 30 31  1  0  0  0  0
 30 62  1  0  0  0  0
 31 32  2  0  0  0  0
 31 35  1  0  0  0  0
 32 33  1  0  0  0  0
 32 36  1  0  0  0  0
 33 34  2  0  0  0  0
 33 63  1  0  0  0  0
 34 64  1  0  0  0  0
M  END
>  <DRUGBANK_ID>
DB08816

>  <SECONDARY_ACCESSION_NUMBERS>
DB04902

>  <COMMON_NAME>
Ticagrelor

>  <CAS_NUMBER>
274693-27-5

>  <UNII>
GLH0314RVC

>  <SYNONYMS>
(1S,2S,3R,5S)-3-(7-((1R,2S)-2-(3,4-Difluorophenyl)cyclopropylamino)-5-(propylthio)-3H-(1,2,3)triazolo(4,5-d)pyrimidin-3-yl)-5-(2-hydroxyethoxy)cyclopentane-1,2-diol; Ticagrelor

$$$$
