
 OpenBabel10282417173D

 43 45  0  0  0  0  0  0  0  0999 V2000
    1.2978   -0.2901    0.2917 C   0  0  0  0  0  0  0  0  0  0  0  0
   -0.0887   -2.6272    0.1448 N   0  0  0  0  0  0  0  0  0  0  0  0
   -3.4710   -3.5278   -0.3015 C   0  0  0  0  0  0  0  0  0  0  0  0
    2.8144   -0.5404    0.2718 C   0  0  0  0  0  0  0  0  0  0  0  0
    0.2721   -1.2367    0.2752 C   0  0  0  0  0  0  0  0  0  0  0  0
   -1.6521   -3.5285   -0.0045 C   0  0  0  0  0  0  0  0  0  0  0  0
   -3.7886   -3.0397    0.7479 C   0  0  0  0  0  0  0  0  0  0  0  0
   -3.7853   -4.5743    1.0410 C   0  0  0  0  0  0  0  0  0  0  0  0
   -5.1432   -3.8879   -0.7109 C   0  0  0  0  0  0  0  0  0  0  0  0
   -3.2661   -1.9913   -0.0165 N   0  0  0  0  0  0  0  0  0  0  0  0
    3.7200    0.4923    0.2011 O   0  0  0  0  0  0  0  0  0  0  0  0
    3.2452   -1.6891    0.2890 O   0  0  0  0  0  0  0  0  0  0  0  0
   -4.5735   -5.6186    0.2868 C   0  0  0  0  0  0  0  0  0  0  0  0
   -1.4056   -3.5449   -1.2398 C   0  0  0  0  0  0  0  0  0  0  0  0
   -5.5795   -5.1479   -0.4342 C   0  0  0  0  0  0  0  0  0  0  0  0
    3.3722    1.8749    0.0368 C   0  0  0  0  0  0  0  0  0  0  0  0
   -2.1001   -2.3289   -1.1555 C   0  0  0  0  0  0  0  0  0  0  0  0
    2.7459    2.1719   -1.3890 C   0  0  3  0  0  0  0  0  0  0  0  0
   -3.8466   -7.0640   -0.3898 Cl  0  0  0  0  0  0  0  0  0  0  0  0
    0.7758    1.0656    0.3690 C   0  0  0  0  0  0  0  0  0  0  0  0
    1.7386    1.3060   -1.9317 O   0  0  0  0  0  0  0  0  0  0  0  0
   -0.8627   -0.6745    0.7148 C   0  0  0  0  0  0  0  0  0  0  0  0
    3.1609    4.5511   -1.2659 O   0  0  0  0  0  0  0  0  0  0  0  0
    2.1377    3.5834   -1.3931 C   0  0  0  0  0  0  0  0  0  0  0  0
   -0.5425    1.4363    0.1847 C   0  0  0  0  0  0  0  0  0  0  0  0
   -1.3830    0.4208    0.1235 C   0  0  0  0  0  0  0  0  0  0  0  0
    0.7537   -3.2172    0.0177 H   0  0  0  0  0  0  0  0  0  0  0  0
   -2.8022   -5.0928    0.8201 H   0  0  0  0  0  0  0  0  0  0  0  0
   -6.0598   -3.2276   -0.5190 H   0  0  0  0  0  0  0  0  0  0  0  0
   -1.3771   -4.6625   -0.9676 H   0  0  0  0  0  0  0  0  0  0  0  0
   -6.5321   -5.6548   -0.2875 H   0  0  0  0  0  0  0  0  0  0  0  0
    2.8367    2.1851    0.9510 H   0  0  0  0  0  0  0  0  0  0  0  0
    4.2582    2.5075    0.1606 H   0  0  0  0  0  0  0  0  0  0  0  0
   -1.6994   -1.3823   -1.4567 H   0  0  0  0  0  0  0  0  0  0  0  0
    3.5496    2.0573   -2.1098 H   0  0  0  0  0  0  0  0  0  0  0  0
    1.2816    1.9935    0.3794 H   0  0  0  0  0  0  0  0  0  0  0  0
    1.9578    0.3780   -1.7587 H   0  0  0  0  0  0  0  0  0  0  0  0
   -1.4304   -1.3907    1.2498 H   0  0  0  0  0  0  0  0  0  0  0  0
    3.5865    4.4248   -0.4016 H   0  0  0  0  0  0  0  0  0  0  0  0
    1.5642    3.7419   -2.3127 H   0  0  0  0  0  0  0  0  0  0  0  0
    1.4123    3.7601   -0.5836 H   0  0  0  0  0  0  0  0  0  0  0  0
   -0.9033    2.4532    0.1722 H   0  0  0  0  0  0  0  0  0  0  0  0
   -2.4376    0.4956   -0.0354 H   0  0  0  0  0  0  0  0  0  0  0  0
  2  5  1  0  0  0  0
  2 27  1  0  0  0  0
  3  6  2  0  0  0  0
  4  1  1  0  0  0  0
  5  1  2  0  0  0  0
  6  2  1  0  0  0  0
  7  3  1  0  0  0  0
  8  7  1  0  0  0  0
  8 28  1  0  0  0  0
  9  3  1  0  0  0  0
  9 29  1  0  0  0  0
 10 17  1  0  0  0  0
 10  7  2  0  0  0  0
 11  4  1  0  0  0  0
 12  4  2  0  0  0  0
 13 15  1  0  0  0  0
 13  8  2  0  0  0  0
 14  6  1  0  0  0  0
 14 30  1  0  0  0  0
 15  9  2  0  0  0  0
 15 31  1  0  0  0  0
 16 11  1  0  0  0  0
 16 32  1  0  0  0  0
 16 33  1  0  0  0  0
 17 14  2  0  0  0  0
 17 34  1  0  0  0  0
 18 16  1  0  0  0  0
 18 35  1  0  0  0  0
 19 13  1  0  0  0  0
 20  1  1  0  0  0  0
 20 36  1  0  0  0  0
 21 18  1  0  0  0  0
 21 37  1  0  0  0  0
 22  5  1  0  0  0  0
 22 38  1  0  0  0  0
 23 24  1  0  0  0  0
 23 39  1  0  0  0  0
 24 18  1  0  0  0  0
 24 40  1  0  0  0  0
 24 41  1  0  0  0  0
 25 20  2  0  0  0  0
 25 42  1  0  0  0  0
 26 25  1  0  0  0  0
 26 22  2  0  0  0  0
 26 43  1  0  0  0  0
M  END
>  <DRUGBANK_ID>
DB08963

>  <COMMON_NAME>
Glafenine

>  <CAS_NUMBER>
3820-67-5

>  <UNII>
46HL4I09AH

>  <SYNONYMS>
Glafenina; Glafenine; Glaf√©nine; Glafeninum; Glycerylaminophenaquine

$$$$
