237
 OpenBabel10282417103D

 31 31  0  0  1  0  0  0  0  0999 V2000
   -2.3977   -1.1014   -0.1169 O   0  0  0  0  0  0  0  0  0  0  0  0
    2.4272   -1.0914   -0.0692 O   0  0  0  0  0  0  0  0  0  0  0  0
    0.0045    2.6602   -0.0107 O   0  0  0  0  0  0  0  0  0  0  0  0
   -1.1420    0.7200    0.0310 N   0  0  0  0  0  0  0  0  0  0  0  0
    1.1600    0.7258    0.0207 N   0  0  0  0  0  0  0  0  0  0  0  0
    0.0179   -1.4731   -0.1203 C   0  0  0  0  0  0  0  0  0  0  0  0
   -0.0059   -2.5393    1.0490 C   0  0  3  0  0  0  0  0  0  0  0  0
    0.0669   -2.1027   -1.5344 C   0  0  0  0  0  0  0  0  0  0  0  0
   -1.2529   -3.4733    1.0944 C   0  0  0  0  0  0  0  0  0  0  0  0
   -1.2628   -0.6330   -0.0403 C   0  0  0  0  0  0  0  0  0  0  0  0
    1.2892   -0.6273   -0.0141 C   0  0  0  0  0  0  0  0  0  0  0  0
    1.2502   -3.4314    1.1131 C   0  0  0  0  0  0  0  0  0  0  0  0
    0.1473   -1.1253   -2.6893 C   0  0  0  0  0  0  0  0  0  0  0  0
   -1.4177   -4.4228   -0.0858 C   0  0  0  0  0  0  0  0  0  0  0  0
    0.0071    1.4294    0.0122 C   0  0  0  0  0  0  0  0  0  0  0  0
   -2.0068    1.2422    0.0160 H   0  0  0  0  0  0  0  0  0  0  0  0
    2.0226    1.2505   -0.0027 H   0  0  0  0  0  0  0  0  0  0  0  0
   -0.0206   -1.9676    1.9922 H   0  0  0  0  0  0  0  0  0  0  0  0
    0.8734   -2.8402   -1.6132 H   0  0  0  0  0  0  0  0  0  0  0  0
   -0.8634   -2.6011   -1.7633 H   0  0  0  0  0  0  0  0  0  0  0  0
   -1.1966   -4.0829    2.0049 H   0  0  0  0  0  0  0  0  0  0  0  0
   -2.1706   -2.8937    1.2223 H   0  0  0  0  0  0  0  0  0  0  0  0
    2.1667   -2.8634    1.2764 H   0  0  0  0  0  0  0  0  0  0  0  0
    1.1874   -4.1326    1.9516 H   0  0  0  0  0  0  0  0  0  0  0  0
    1.3789   -4.0124    0.1971 H   0  0  0  0  0  0  0  0  0  0  0  0
    1.0563   -0.5259   -2.6616 H   0  0  0  0  0  0  0  0  0  0  0  0
    0.1231   -1.6917   -3.6253 H   0  0  0  0  0  0  0  0  0  0  0  0
   -0.7296   -0.4714   -2.6809 H   0  0  0  0  0  0  0  0  0  0  0  0
   -0.5056   -4.9911   -0.2833 H   0  0  0  0  0  0  0  0  0  0  0  0
   -2.2402   -5.1190    0.0759 H   0  0  0  0  0  0  0  0  0  0  0  0
   -1.7124   -3.9123   -0.9941 H   0  0  0  0  0  0  0  0  0  0  0  0
  1 10  2  0  0  0  0
  2 11  2  0  0  0  0
  3 15  2  0  0  0  0
  4 10  1  0  0  0  0
  4 15  1  0  0  0  0
  4 16  1  0  0  0  0
  5 11  1  0  0  0  0
  5 15  1  0  0  0  0
  5 17  1  0  0  0  0
  6  7  1  0  0  0  0
  6  8  1  0  0  0  0
  6 10  1  0  0  0  0
  6 11  1  0  0  0  0
  7  9  1  0  0  0  0
  7 12  1  0  0  0  0
  7 18  1  0  0  0  0
  8 13  1  0  0  0  0
  8 19  1  0  0  0  0
  8 20  1  0  0  0  0
  9 14  1  0  0  0  0
  9 21  1  0  0  0  0
  9 22  1  0  0  0  0
 12 23  1  0  0  0  0
 12 24  1  0  0  0  0
 12 25  1  0  0  0  0
 13 26  1  0  0  0  0
 13 27  1  0  0  0  0
 13 28  1  0  0  0  0
 14 29  1  0  0  0  0
 14 30  1  0  0  0  0
 14 31  1  0  0  0  0
M  END
>  <DRUGBANK_ID>
DB00237

>  <SECONDARY_ACCESSION_NUMBERS>
APRD00752

>  <COMMON_NAME>
Butabarbital

>  <CAS_NUMBER>
125-40-6

>  <UNII>
P0078O25A9

>  <SYNONYMS>
5-ethyl-5-(1-methylpropyl)-2,4,6(1H,3H,5H)-pyrimidinetrione; 5-ethyl-5-(1-methylpropyl)barbituric acid; 5-sec-butyl-5-ethyl-2,4,6(1H,3H,5H)-pyrimidinetrione; 5-sec-butyl-5-ethylbarbituric acid; 5-sec-butyl-5-ethylpyrimidine-2,4,6(1H,3H,5H)-trione; Butabarbital; Secbutabarbital; Secbutabarbitale; Secbutabarbitalum

$$$$
