
 OpenBabel10282417223D

 27 28  0  0  1  0  0  0  0  0999 V2000
   -1.3866   -1.5887    0.0821 O   0  0  0  0  0  0  0  0  0  0  0  0
   -0.3662   -0.7538   -0.4534 C   0  0  1  0  0  0  0  0  0  0  0  0
   -0.4096    0.5821    0.2268 C   0  0  2  0  0  0  0  0  0  0  0  0
   -1.3951    1.4517   -0.3118 O   0  0  0  0  0  0  0  0  0  0  0  0
    0.9808    1.1459    0.0940 C   0  0  2  0  0  0  0  0  0  0  0  0
    1.8599   -0.0095   -0.0154 O   0  0  0  0  0  0  0  0  0  0  0  0
    1.0316   -1.2036   -0.0592 C   0  0  2  0  0  0  0  0  0  0  0  0
    1.5460   -2.2222   -1.0632 C   0  0  0  0  0  0  0  0  0  0  0  0
    1.9458   -3.3386   -0.3961 F   0  0  0  0  0  0  0  0  0  0  0  0
    1.4465    2.0478    1.1490 N   0  0  0  0  0  0  0  0  0  0  0  0
    2.7469    2.5535    1.1024 C   0  0  0  0  0  0  0  0  0  0  0  0
    2.8410    3.4754    2.1106 C   0  0  0  0  0  0  0  0  0  0  0  0
    1.6660    3.5586    2.7830 N   0  0  0  0  0  0  0  0  0  0  0  0
    0.8287    2.7094    2.2034 C   0  0  0  0  0  0  0  0  0  0  0  0
   -0.5189    2.6300    2.7626 N   0  3  0  0  0  0  0  0  0  0  0  0
   -0.7359    3.2893    3.7827 O   0  5  0  0  0  0  0  0  0  0  0  0
   -1.3822    1.9313    2.2331 O   0  0  0  0  0  0  0  0  0  0  0  0
   -1.3992   -2.4419   -0.3796 H   0  0  0  0  0  0  0  0  0  0  0  0
   -0.5248   -0.6419   -1.5299 H   0  0  0  0  0  0  0  0  0  0  0  0
   -0.5976    0.3222    1.2683 H   0  0  0  0  0  0  0  0  0  0  0  0
   -1.2500    1.5936   -1.2599 H   0  0  0  0  0  0  0  0  0  0  0  0
    1.0910    1.7098   -0.8447 H   0  0  0  0  0  0  0  0  0  0  0  0
    1.0449   -1.6348    0.9507 H   0  0  0  0  0  0  0  0  0  0  0  0
    0.7618   -2.5396   -1.7586 H   0  0  0  0  0  0  0  0  0  0  0  0
    2.3971   -1.8420   -1.6308 H   0  0  0  0  0  0  0  0  0  0  0  0
    3.4723    2.2308    0.3649 H   0  0  0  0  0  0  0  0  0  0  0  0
    3.6852    4.0929    2.3903 H   0  0  0  0  0  0  0  0  0  0  0  0
  1 18  1  0  0  0  0
  2  1  1  0  0  0  0
  2  3  1  0  0  0  0
  2  7  1  0  0  0  0
  2 19  1  6  0  0  0
  3  4  1  0  0  0  0
  3  5  1  0  0  0  0
  3 20  1  1  0  0  0
  4 21  1  0  0  0  0
  5  6  1  0  0  0  0
  5 10  1  0  0  0  0
  5 22  1  6  0  0  0
  7  6  1  0  0  0  0
  7 23  1  1  0  0  0
  7  8  1  0  0  0  0
  8  9  1  0  0  0  0
  8 24  1  0  0  0  0
  8 25  1  0  0  0  0
 10 11  1  0  0  0  0
 10 14  1  0  0  0  0
 11 12  2  0  0  0  0
 11 26  1  0  0  0  0
 12 13  1  0  0  0  0
 12 27  1  0  0  0  0
 13 14  2  0  0  0  0
 14 15  1  0  0  0  0
 15 16  1  0  0  0  0
 15 17  2  0  0  0  0
M  ISO  1   9  18
M  CHG  2  15   1  16  -1
M  END
>  <DRUGBANK_ID>
DB15134

>  <COMMON_NAME>
Fluoroazomycin arabinoside F-18

>  <CAS_NUMBER>
864084-85-5

>  <UNII>
UG7I3Y42PV

>  <SYNONYMS>
18F-FAZA

$$$$
