
 OpenBabel10282417163D

 22 22  0  0  0  0  0  0  0  0999 V2000
    1.4174   -0.1883    0.0012 C   0  0  0  0  0  0  0  0  0  0  0  0
    0.5326   -1.2730    0.0189 C   0  0  0  0  0  0  0  0  0  0  0  0
   -0.8554   -1.0678    0.0110 C   0  0  0  0  0  0  0  0  0  0  0  0
   -1.3454    0.2467   -0.0030 C   0  0  0  0  0  0  0  0  0  0  0  0
   -0.4687    1.3331    0.0102 C   0  0  0  0  0  0  0  0  0  0  0  0
    0.9115    1.1122   -0.0414 C   0  0  0  0  0  0  0  0  0  0  0  0
   -1.8124   -2.2337    0.0656 C   0  0  0  0  0  0  0  0  0  0  0  0
   -2.6527   -2.1526    1.2549 N   0  0  0  0  0  0  0  0  0  0  0  0
    1.9569    2.5132   -0.3357 S   0  0  0  0  0  0  0  0  0  0  0  0
    1.6474    3.0208   -1.6505 O   0  0  0  0  0  0  0  0  0  0  0  0
    1.9478    3.3536    0.8405 O   0  0  0  0  0  0  0  0  0  0  0  0
    3.5228    1.8927   -0.4752 N   0  0  0  0  0  0  0  0  0  0  0  0
    2.4857   -0.3797    0.0235 H   0  0  0  0  0  0  0  0  0  0  0  0
    0.9335   -2.2844    0.0342 H   0  0  0  0  0  0  0  0  0  0  0  0
   -2.4208    0.4209   -0.0135 H   0  0  0  0  0  0  0  0  0  0  0  0
   -0.8699    2.3431    0.0567 H   0  0  0  0  0  0  0  0  0  0  0  0
   -2.4385   -2.2402   -0.8339 H   0  0  0  0  0  0  0  0  0  0  0  0
   -1.2612   -3.1810    0.0819 H   0  0  0  0  0  0  0  0  0  0  0  0
   -3.2429   -2.9782    1.3155 H   0  0  0  0  0  0  0  0  0  0  0  0
   -2.0542   -2.1577    2.0800 H   0  0  0  0  0  0  0  0  0  0  0  0
    3.6113    1.3198   -1.3147 H   0  0  0  0  0  0  0  0  0  0  0  0
    4.1672    2.6869   -0.5285 H   0  0  0  0  0  0  0  0  0  0  0  0
  1  2  1  0  0  0  0
  1  6  2  0  0  0  0
  1 13  1  0  0  0  0
  2  3  2  0  0  0  0
  2 14  1  0  0  0  0
  3  4  1  0  0  0  0
  3  7  1  0  0  0  0
  4  5  2  0  0  0  0
  4 15  1  0  0  0  0
  5  6  1  0  0  0  0
  5 16  1  0  0  0  0
  6  9  1  0  0  0  0
  7  8  1  0  0  0  0
  7 17  1  0  0  0  0
  7 18  1  0  0  0  0
  8 19  1  0  0  0  0
  8 20  1  0  0  0  0
  9 10  2  0  0  0  0
  9 12  1  0  0  0  0
 11  9  2  0  0  0  0
 12 21  1  0  0  0  0
 12 22  1  0  0  0  0
M  END
>  <DRUGBANK_ID>
DB06795

>  <COMMON_NAME>
Mafenide

>  <CAS_NUMBER>
138-39-6

>  <UNII>
58447S8P4L

>  <SYNONYMS>
4-(aminomethyl)benzenesulfonamide; 4-Homosufanilamide; Bensulfamide; Mafenide; Maphenidum

$$$$
