1296
 OpenBabel10282417113D

 25 25  0  0  1  0  0  0  0  0999 V2000
    0.7328    1.1801   -0.2324 O   0  0  0  0  0  0  0  0  0  0  0  0
   -1.4586   -2.4040   -0.3011 O   0  0  0  0  0  0  0  0  0  0  0  0
    1.3892   -2.4256    0.2785 O   0  0  0  0  0  0  0  0  0  0  0  0
   -0.5779    1.4392    1.6805 O   0  0  0  0  0  0  0  0  0  0  0  0
    3.5494    1.2076    0.1098 O   0  0  0  0  0  0  0  0  0  0  0  0
   -2.8401    0.0416    0.2521 N   0  0  0  0  0  0  0  0  0  0  0  0
   -0.7536   -1.2663    0.2216 C   0  0  1  0  0  0  0  0  0  0  0  0
    0.7158   -1.2744   -0.2322 C   0  0  1  0  0  0  0  0  0  0  0  0
   -1.4419    0.0404   -0.2117 C   0  0  2  0  0  0  0  0  0  0  0  0
    1.4333    0.0079    0.2164 C   0  0  1  0  0  0  0  0  0  0  0  0
   -0.6021    1.2558    0.2743 C   0  0  3  0  0  0  0  0  0  0  0  0
    2.8617    0.0429   -0.3442 C   0  0  0  0  0  0  0  0  0  0  0  0
   -1.3966   -2.3889   -1.2709 H   0  0  0  0  0  0  0  0  0  0  0  0
    1.1466   -2.5344    1.2159 H   0  0  0  0  0  0  0  0  0  0  0  0
   -0.5634    0.5700    2.1140 H   0  0  0  0  0  0  0  0  0  0  0  0
    2.9856    1.9657   -0.1335 H   0  0  0  0  0  0  0  0  0  0  0  0
   -3.3108   -0.7864   -0.1231 H   0  0  0  0  0  0  0  0  0  0  0  0
   -3.3342    0.8570   -0.1074 H   0  0  0  0  0  0  0  0  0  0  0  0
   -0.7958   -1.3765    1.3117 H   0  0  0  0  0  0  0  0  0  0  0  0
    0.7422   -1.3510   -1.3266 H   0  0  0  0  0  0  0  0  0  0  0  0
   -1.4610    0.0556   -1.3105 H   0  0  0  0  0  0  0  0  0  0  0  0
    1.5135    0.0453    1.3104 H   0  0  0  0  0  0  0  0  0  0  0  0
   -1.0479    2.1665   -0.1415 H   0  0  0  0  0  0  0  0  0  0  0  0
    3.4328   -0.8296   -0.0134 H   0  0  0  0  0  0  0  0  0  0  0  0
    2.8579    0.0674   -1.4385 H   0  0  0  0  0  0  0  0  0  0  0  0
  1 10  1  0  0  0  0
  1 11  1  0  0  0  0
  2 13  1  0  0  0  0
  3 14  1  0  0  0  0
  4 11  1  0  0  0  0
  4 15  1  0  0  0  0
  5 12  1  0  0  0  0
  5 16  1  0  0  0  0
  6 17  1  0  0  0  0
  6 18  1  0  0  0  0
  7  2  1  0  0  0  0
  7  8  1  0  0  0  0
  7  9  1  0  0  0  0
  7 19  1  1  0  0  0
  8 10  1  0  0  0  0
  8 20  1  6  0  0  0
  8  3  1  0  0  0  0
  9 11  1  0  0  0  0
  9 21  1  6  0  0  0
  9  6  1  0  0  0  0
 10 12  1  0  0  0  0
 10 22  1  1  0  0  0
 11 23  1  0  0  0  0
 12 24  1  0  0  0  0
 12 25  1  0  0  0  0
M  END
>  <DRUGBANK_ID>
DB01296

>  <SECONDARY_ACCESSION_NUMBERS>
EXPT01563

>  <COMMON_NAME>
Glucosamine

>  <CAS_NUMBER>
3416-24-8

>  <UNII>
N08U5BOQ1K

>  <SYNONYMS>
2-amino-2-deoxy-D-glucose; Chitosamine; D-Glucosamine; Glucosamina; Glucosamine

$$$$
