
 OpenBabel10282417143D

 73 75  0  0  0  0  0  0  0  0999 V2000
    1.0337   -0.2184    0.1246 O   0  0  0  0  0  0  0  0  0  0  0  0
    3.2983    2.3783   -5.4597 O   0  0  0  0  0  0  0  0  0  0  0  0
    5.8790   -5.2931   -0.9788 O   0  0  0  0  0  0  0  0  0  0  0  0
    4.2879   -4.2593   -2.1304 O   0  0  0  0  0  0  0  0  0  0  0  0
    3.0040   -1.1686   -0.2005 N   0  0  0  0  0  0  0  0  0  0  0  0
    4.4532   -1.2565   -0.2697 C   0  0  1  0  0  0  0  0  0  0  0  0
    4.9305   -2.3823    0.6421 C   0  0  0  0  0  0  0  0  0  0  0  0
    4.9424   -1.4460   -1.6904 C   0  0  0  0  0  0  0  0  0  0  0  0
    1.0657    2.6089   -0.4793 C   0  0  0  0  0  0  0  0  0  0  0  0
    2.5370    2.2921   -0.6343 C   0  0  0  0  0  0  0  0  0  0  0  0
    0.8085    3.0273    0.9757 C   0  0  0  0  0  0  0  0  0  0  0  0
    2.9687    1.2275    0.3560 C   0  0  0  0  0  0  0  0  0  0  0  0
    1.4368    4.3966    1.2519 C   0  0  0  0  0  0  0  0  0  0  0  0
    2.2556   -0.0800    0.0808 C   0  0  0  0  0  0  0  0  0  0  0  0
    4.4360   -3.7929    0.2762 C   0  0  0  0  0  0  0  0  0  0  0  0
    4.5293   -0.4301   -2.6855 C   0  0  0  0  0  0  0  0  0  0  0  0
    1.0461    5.4850    0.2242 C   0  0  0  0  0  0  0  0  0  0  0  0
    3.5759   -0.8028   -3.6295 C   0  0  0  0  0  0  0  0  0  0  0  0
    5.0169    0.8665   -2.6431 C   0  0  0  0  0  0  0  0  0  0  0  0
   -0.4392    5.7766    0.2246 C   0  0  0  0  0  0  0  0  0  0  0  0
    4.8563   -4.4317   -1.0465 C   0  0  0  0  0  0  0  0  0  0  0  0
    3.0715    0.1522   -4.4788 C   0  0  0  0  0  0  0  0  0  0  0  0
    4.5239    1.8059   -3.5431 C   0  0  0  0  0  0  0  0  0  0  0  0
    3.5956    1.4353   -4.5167 C   0  0  0  0  0  0  0  0  0  0  0  0
   -1.4051    4.7612    0.1594 C   0  0  0  0  0  0  0  0  0  0  0  0
   -0.9020    7.0805    0.3405 C   0  0  0  0  0  0  0  0  0  0  0  0
   -2.7292    4.9635    0.5056 C   0  0  0  0  0  0  0  0  0  0  0  0
   -2.2577    7.3140    0.5911 C   0  0  0  0  0  0  0  0  0  0  0  0
   -3.1636    6.2561    0.7032 C   0  0  0  0  0  0  0  0  0  0  0  0
    2.4892    1.9968   -6.5899 C   0  0  0  0  0  0  0  0  0  0  0  0
    3.0487    0.8827   -7.4625 C   0  0  0  0  0  0  0  0  0  0  0  0
    4.1946    1.0598   -8.2419 C   0  0  0  0  0  0  0  0  0  0  0  0
    2.4695   -0.3984   -7.4113 C   0  0  0  0  0  0  0  0  0  0  0  0
    4.7654   -0.0344   -8.9019 C   0  0  0  0  0  0  0  0  0  0  0  0
    3.1267   -1.5069   -7.9303 C   0  0  0  0  0  0  0  0  0  0  0  0
    4.2485   -1.3189   -8.7225 C   0  0  0  0  0  0  0  0  0  0  0  0
    2.4306   -1.9483   -0.5069 H   0  0  0  0  0  0  0  0  0  0  0  0
    6.0349   -5.6549   -0.0897 H   0  0  0  0  0  0  0  0  0  0  0  0
    4.9115   -0.3498    0.1167 H   0  0  0  0  0  0  0  0  0  0  0  0
    6.0236   -2.3445    0.6925 H   0  0  0  0  0  0  0  0  0  0  0  0
    4.5706   -2.1412    1.6567 H   0  0  0  0  0  0  0  0  0  0  0  0
    6.0179   -1.6304   -1.7320 H   0  0  0  0  0  0  0  0  0  0  0  0
    4.4232   -2.3068   -2.0462 H   0  0  0  0  0  0  0  0  0  0  0  0
    0.7948    3.3682   -1.2202 H   0  0  0  0  0  0  0  0  0  0  0  0
    0.4372    1.7635   -0.7674 H   0  0  0  0  0  0  0  0  0  0  0  0
    3.1494    3.1903   -0.4836 H   0  0  0  0  0  0  0  0  0  0  0  0
    2.7175    1.9757   -1.6590 H   0  0  0  0  0  0  0  0  0  0  0  0
   -0.2453    2.9935    1.2440 H   0  0  0  0  0  0  0  0  0  0  0  0
    1.1684    2.2956    1.6979 H   0  0  0  0  0  0  0  0  0  0  0  0
    2.7997    1.4750    1.4052 H   0  0  0  0  0  0  0  0  0  0  0  0
    4.0476    1.1936    0.3011 H   0  0  0  0  0  0  0  0  0  0  0  0
    1.1656    4.7092    2.2656 H   0  0  0  0  0  0  0  0  0  0  0  0
    2.5304    4.2926    1.2611 H   0  0  0  0  0  0  0  0  0  0  0  0
    4.7528   -4.4610    1.0814 H   0  0  0  0  0  0  0  0  0  0  0  0
    3.3403   -3.8075    0.3004 H   0  0  0  0  0  0  0  0  0  0  0  0
    1.6126    6.3876    0.4895 H   0  0  0  0  0  0  0  0  0  0  0  0
    1.3797    5.2406   -0.7902 H   0  0  0  0  0  0  0  0  0  0  0  0
    3.1942   -1.8233   -3.6982 H   0  0  0  0  0  0  0  0  0  0  0  0
    5.7480    1.1415   -1.8910 H   0  0  0  0  0  0  0  0  0  0  0  0
    2.2511   -0.1646   -5.0895 H   0  0  0  0  0  0  0  0  0  0  0  0
    4.8294    2.8411   -3.4450 H   0  0  0  0  0  0  0  0  0  0  0  0
   -1.1662    3.7553   -0.1522 H   0  0  0  0  0  0  0  0  0  0  0  0
   -0.2154    7.9162    0.2351 H   0  0  0  0  0  0  0  0  0  0  0  0
   -3.3905    4.1062    0.5989 H   0  0  0  0  0  0  0  0  0  0  0  0
   -2.6085    8.3305    0.7252 H   0  0  0  0  0  0  0  0  0  0  0  0
   -4.2147    6.4357    0.8952 H   0  0  0  0  0  0  0  0  0  0  0  0
    1.4778    1.7615   -6.2372 H   0  0  0  0  0  0  0  0  0  0  0  0
    2.3911    2.8959   -7.2082 H   0  0  0  0  0  0  0  0  0  0  0  0
    4.6541    2.0410   -8.3317 H   0  0  0  0  0  0  0  0  0  0  0  0
    1.5411   -0.5641   -6.8692 H   0  0  0  0  0  0  0  0  0  0  0  0
    5.6422    0.1053   -9.5275 H   0  0  0  0  0  0  0  0  0  0  0  0
    2.7703   -2.5062   -7.6941 H   0  0  0  0  0  0  0  0  0  0  0  0
    4.7132   -2.1755   -9.2011 H   0  0  0  0  0  0  0  0  0  0  0  0
  1 14  2  0  0  0  0
  2 24  1  0  0  0  0
  2 30  1  0  0  0  0
  3 21  1  0  0  0  0
  3 38  1  0  0  0  0
  4 21  2  0  0  0  0
  5 14  1  0  0  0  0
  5 37  1  0  0  0  0
  6  5  1  0  0  0  0
  6  7  1  0  0  0  0
  6  8  1  0  0  0  0
  6 39  1  1  0  0  0
  7 15  1  0  0  0  0
  7 40  1  0  0  0  0
  7 41  1  0  0  0  0
  8 16  1  0  0  0  0
  8 42  1  0  0  0  0
  8 43  1  0  0  0  0
  9 10  1  0  0  0  0
  9 11  1  0  0  0  0
  9 44  1  0  0  0  0
  9 45  1  0  0  0  0
 10 12  1  0  0  0  0
 10 46  1  0  0  0  0
 10 47  1  0  0  0  0
 11 13  1  0  0  0  0
 11 48  1  0  0  0  0
 11 49  1  0  0  0  0
 12 14  1  0  0  0  0
 12 50  1  0  0  0  0
 12 51  1  0  0  0  0
 13 17  1  0  0  0  0
 13 52  1  0  0  0  0
 13 53  1  0  0  0  0
 15 21  1  0  0  0  0
 15 54  1  0  0  0  0
 15 55  1  0  0  0  0
 16 18  2  0  0  0  0
 16 19  1  0  0  0  0
 17 20  1  0  0  0  0
 17 56  1  0  0  0  0
 17 57  1  0  0  0  0
 18 22  1  0  0  0  0
 18 58  1  0  0  0  0
 19 23  2  0  0  0  0
 19 59  1  0  0  0  0
 20 25  2  0  0  0  0
 20 26  1  0  0  0  0
 22 24  2  0  0  0  0
 22 60  1  0  0  0  0
 23 24  1  0  0  0  0
 23 61  1  0  0  0  0
 25 27  1  0  0  0  0
 25 62  1  0  0  0  0
 26 28  2  0  0  0  0
 26 63  1  0  0  0  0
 27 29  2  0  0  0  0
 27 64  1  0  0  0  0
 28 29  1  0  0  0  0
 28 65  1  0  0  0  0
 29 66  1  0  0  0  0
 30 31  1  0  0  0  0
 30 67  1  0  0  0  0
 30 68  1  0  0  0  0
 31 32  2  0  0  0  0
 31 33  1  0  0  0  0
 32 34  1  0  0  0  0
 32 69  1  0  0  0  0
 33 35  2  0  0  0  0
 33 70  1  0  0  0  0
 34 36  2  0  0  0  0
 34 71  1  0  0  0  0
 35 36  1  0  0  0  0
 35 72  1  0  0  0  0
 36 73  1  0  0  0  0
M  END
>  <DRUGBANK_ID>
DB04287

>  <SECONDARY_ACCESSION_NUMBERS>
EXPT00701

>  <COMMON_NAME>
KH064

>  <CAS_NUMBER>
393569-31-8

>  <SYNONYMS>
(S)-5-(4-Benzyloxy-phenyl)-4-(7-phenyl-heptanoylamino)-pentanoic acid; 5-(4-Benzyloxyphenyl)-4S-(7-phenylheptanoylamino)pentanoic acid

$$$$
