
 OpenBabel10282417243D

 30 31  0  0  0  0  0  0  0  0999 V2000
    1.6944   -1.4789   -0.0765 O   0  0  0  0  0  0  0  0  0  0  0  0
    0.5027   -0.8215   -0.0133 C   0  0  0  0  0  0  0  0  0  0  0  0
   -0.7449   -1.4499   -0.0357 C   0  0  0  0  0  0  0  0  0  0  0  0
   -1.9343   -0.6753   -0.0169 C   0  0  0  0  0  0  0  0  0  0  0  0
   -1.8587    0.7139    0.1282 C   0  0  0  0  0  0  0  0  0  0  0  0
   -2.9905    1.5623    0.0308 N   0  0  0  0  0  0  0  0  0  0  0  0
   -3.0811    2.9650   -0.0201 C   0  0  0  0  0  0  0  0  0  0  0  0
   -4.1792    3.5005    0.0431 O   0  0  0  0  0  0  0  0  0  0  0  0
   -1.8732    3.8518   -0.1346 C   0  0  0  0  0  0  0  0  0  0  0  0
   -0.8613    3.6081   -1.0850 C   0  0  0  0  0  0  0  0  0  0  0  0
    0.4119    4.1834   -0.9265 C   0  0  0  0  0  0  0  0  0  0  0  0
    0.6127    5.1351    0.0656 C   0  0  0  0  0  0  0  0  0  0  0  0
    1.8284    5.7334    0.2549 O   0  0  0  0  0  0  0  0  0  0  0  0
   -0.4373    5.4864    0.9139 C   0  0  0  0  0  0  0  0  0  0  0  0
   -0.2571    6.4573    1.8595 O   0  0  0  0  0  0  0  0  0  0  0  0
   -1.6687    4.8344    0.8452 C   0  0  0  0  0  0  0  0  0  0  0  0
   -0.6023    1.2358    0.3804 C   0  0  0  0  0  0  0  0  0  0  0  0
    0.5596    0.5396    0.1508 C   0  0  0  0  0  0  0  0  0  0  0  0
    1.7189    1.2566    0.1246 O   0  0  0  0  0  0  0  0  0  0  0  0
    1.5279   -2.4323   -0.0059 H   0  0  0  0  0  0  0  0  0  0  0  0
   -0.8143   -2.5325   -0.0790 H   0  0  0  0  0  0  0  0  0  0  0  0
   -2.8937   -1.1841   -0.0947 H   0  0  0  0  0  0  0  0  0  0  0  0
   -3.9063    1.1241   -0.0054 H   0  0  0  0  0  0  0  0  0  0  0  0
   -0.9879    2.8141   -1.8194 H   0  0  0  0  0  0  0  0  0  0  0  0
    1.2404    3.8005   -1.5173 H   0  0  0  0  0  0  0  0  0  0  0  0
    2.4580    5.3579   -0.3863 H   0  0  0  0  0  0  0  0  0  0  0  0
    0.6411    6.8089    1.6987 H   0  0  0  0  0  0  0  0  0  0  0  0
   -2.4329    5.0542    1.5848 H   0  0  0  0  0  0  0  0  0  0  0  0
   -0.4712    2.2282    0.7674 H   0  0  0  0  0  0  0  0  0  0  0  0
    2.4311    0.6107   -0.0246 H   0  0  0  0  0  0  0  0  0  0  0  0
  1  2  1  0  0  0  0
  1 20  1  0  0  0  0
  2  3  2  0  0  0  0
  2 18  1  0  0  0  0
  3  4  1  0  0  0  0
  3 21  1  0  0  0  0
  4  5  2  0  0  0  0
  4 22  1  0  0  0  0
  5  6  1  0  0  0  0
  5 17  1  0  0  0  0
  6  7  1  0  0  0  0
  6 23  1  0  0  0  0
  7  8  2  0  0  0  0
  7  9  1  0  0  0  0
  9 10  2  0  0  0  0
  9 16  1  0  0  0  0
 10 11  1  0  0  0  0
 10 24  1  0  0  0  0
 11 12  2  0  0  0  0
 11 25  1  0  0  0  0
 12 13  1  0  0  0  0
 12 14  1  0  0  0  0
 13 26  1  0  0  0  0
 14 15  1  0  0  0  0
 14 16  2  0  0  0  0
 15 27  1  0  0  0  0
 16 28  1  0  0  0  0
 17 18  2  0  0  0  0
 17 29  1  0  0  0  0
 18 19  1  0  0  0  0
 19 30  1  0  0  0  0
M  END
>  <DRUGBANK_ID>
DB18298

>  <COMMON_NAME>
PTI-110

>  <CAS_NUMBER>
633700-15-9

>  <UNII>
YI3H6V056C

>  <SYNONYMS>
3,4-dihydroxybenzoic acid 3,4-dihydroxyanilide; Benzamide, n-(3,4-dihydroxyphenyl)-3,4-dihydroxy-; N-(3,4-dihydroxyphenyl)-3,4-dihydroxybenzamide; Systebryl

$$$$
