421
 OpenBabel10282417193D

 53 57  0  0  1  0  0  0  0  0999 V2000
   -3.0285   -0.2118   -4.7829 O   0  0  0  0  0  0  0  0  0  0  0  0
   -4.3408   -2.0648   -4.5375 O   0  0  0  0  0  0  0  0  0  0  0  0
    7.1178    3.0408   -6.9953 O   0  0  0  0  0  0  0  0  0  0  0  0
   -0.4141   -0.5755   -5.0797 C   0  0  1  0  0  0  0  0  0  0  0  0
    0.2936    0.7628   -5.2387 C   0  0  2  0  0  0  0  0  0  0  0  0
    1.7076    0.6945   -4.7967 C   0  0  1  0  0  0  0  0  0  0  0  0
   -1.8897    0.0622   -5.6047 C   0  0  2  0  0  0  0  0  0  0  0  0
    2.4161   -0.0232   -5.9408 C   0  0  1  0  0  0  0  0  0  0  0  0
    0.4674   -1.6743   -5.9379 C   0  0  0  0  0  0  0  0  0  0  0  0
   -0.6608    1.7599   -4.6260 C   0  0  0  0  0  0  0  0  0  0  0  0
    3.8555    0.6625   -6.2170 C   0  0  2  0  0  0  0  0  0  0  0  0
    2.0028   -1.5612   -5.6522 C   0  0  0  0  0  0  0  0  0  0  0  0
   -1.7782    1.6179   -5.6336 C   0  0  0  0  0  0  0  0  0  0  0  0
    2.2848    1.9935   -4.4678 C   0  0  0  0  0  0  0  0  0  0  0  0
   -0.4551   -1.1907   -3.6443 C   0  0  0  0  0  0  0  0  0  0  0  0
   -2.1253   -0.7083   -6.8607 C   0  0  0  0  0  0  0  0  0  0  0  0
    4.5982    1.3309   -5.0746 C   0  0  0  0  0  0  0  0  0  0  0  0
    3.6016    2.2168   -4.4074 C   0  0  0  0  0  0  0  0  0  0  0  0
    3.7888    2.3766   -6.9972 C   0  0  0  0  0  0  0  0  0  0  0  0
    4.7158   -0.6826   -6.3807 C   0  0  0  0  0  0  0  0  0  0  0  0
   -2.5034   -1.9947   -6.1259 C   0  0  0  0  0  0  0  0  0  0  0  0
   -3.4813   -1.4711   -5.1052 C   0  0  0  0  0  0  0  0  0  0  0  0
    4.8770    3.5994   -6.4665 C   0  0  0  0  0  0  0  0  0  0  0  0
    5.8880    1.6006   -5.5069 C   0  0  0  0  0  0  0  0  0  0  0  0
    6.1132    2.8323   -6.3424 C   0  0  0  0  0  0  0  0  0  0  0  0
    0.3201    0.9743   -6.3274 H   0  0  0  0  0  0  0  0  0  0  0  0
    1.7702    0.1402   -3.8562 H   0  0  0  0  0  0  0  0  0  0  0  0
    1.9589    0.0824   -6.9369 H   0  0  0  0  0  0  0  0  0  0  0  0
    0.1533   -2.7156   -5.7425 H   0  0  0  0  0  0  0  0  0  0  0  0
    0.3752   -1.5760   -7.0257 H   0  0  0  0  0  0  0  0  0  0  0  0
   -0.3095    2.7816   -4.5395 H   0  0  0  0  0  0  0  0  0  0  0  0
   -1.0062    1.4329   -3.6394 H   0  0  0  0  0  0  0  0  0  0  0  0
    2.1803   -1.8874   -4.6130 H   0  0  0  0  0  0  0  0  0  0  0  0
    2.5082   -2.3136   -6.2772 H   0  0  0  0  0  0  0  0  0  0  0  0
   -1.4685    2.0314   -6.6081 H   0  0  0  0  0  0  0  0  0  0  0  0
   -2.6244    2.2256   -5.2864 H   0  0  0  0  0  0  0  0  0  0  0  0
    1.6250    2.8479   -4.3957 H   0  0  0  0  0  0  0  0  0  0  0  0
    0.5376   -1.2506   -3.1892 H   0  0  0  0  0  0  0  0  0  0  0  0
   -1.1133   -0.6603   -2.9587 H   0  0  0  0  0  0  0  0  0  0  0  0
   -0.7797   -2.2412   -3.6543 H   0  0  0  0  0  0  0  0  0  0  0  0
   -2.9157   -0.3815   -7.5376 H   0  0  0  0  0  0  0  0  0  0  0  0
   -1.2081   -0.6603   -7.4481 H   0  0  0  0  0  0  0  0  0  0  0  0
    3.7704    3.2673   -4.2346 H   0  0  0  0  0  0  0  0  0  0  0  0
    2.8270    2.8734   -6.7440 H   0  0  0  0  0  0  0  0  0  0  0  0
    3.8249    2.3995   -8.0889 H   0  0  0  0  0  0  0  0  0  0  0  0
    4.8088   -1.0876   -7.3850 H   0  0  0  0  0  0  0  0  0  0  0  0
    5.6696   -0.7541   -5.8365 H   0  0  0  0  0  0  0  0  0  0  0  0
    4.2645   -1.4941   -5.7810 H   0  0  0  0  0  0  0  0  0  0  0  0
   -2.7430   -2.8459   -6.7376 H   0  0  0  0  0  0  0  0  0  0  0  0
   -1.7617   -2.3846   -5.4318 H   0  0  0  0  0  0  0  0  0  0  0  0
    4.7899    4.0373   -5.4544 H   0  0  0  0  0  0  0  0  0  0  0  0
    4.9790    4.5146   -7.0629 H   0  0  0  0  0  0  0  0  0  0  0  0
    6.3929    0.8984   -6.1971 H   0  0  0  0  0  0  0  0  0  0  0  0
  1 22  1  0  0  0  0
  2 22  2  0  0  0  0
  3 25  2  0  0  0  0
  4  5  1  0  0  0  0
  4  7  1  0  0  0  0
  4  9  1  0  0  0  0
  4 15  1  1  0  0  0
  5  6  1  0  0  0  0
  5 10  1  0  0  0  0
  5 26  1  6  0  0  0
  6  8  1  0  0  0  0
  6 14  1  0  0  0  0
  6 27  1  1  0  0  0
  7  1  1  1  0  0  0
  7 13  1  0  0  0  0
  7 16  1  0  0  0  0
  8 11  1  0  0  0  0
  8 12  1  0  0  0  0
  8 28  1  6  0  0  0
  9 12  1  0  0  0  0
  9 29  1  0  0  0  0
  9 30  1  0  0  0  0
 10 13  1  0  0  0  0
 10 31  1  0  0  0  0
 10 32  1  0  0  0  0
 11 17  1  0  0  0  0
 11 19  1  0  0  0  0
 11 20  1  6  0  0  0
 12 33  1  0  0  0  0
 12 34  1  0  0  0  0
 13 35  1  0  0  0  0
 13 36  1  0  0  0  0
 14 18  2  0  0  0  0
 14 37  1  0  0  0  0
 15 38  1  0  0  0  0
 15 39  1  0  0  0  0
 15 40  1  0  0  0  0
 16 21  1  0  0  0  0
 16 41  1  0  0  0  0
 16 42  1  0  0  0  0
 17 18  1  0  0  0  0
 17 24  2  0  0  0  0
 18 43  1  0  0  0  0
 19 23  1  0  0  0  0
 19 44  1  0  0  0  0
 19 45  1  0  0  0  0
 20 46  1  0  0  0  0
 20 47  1  0  0  0  0
 20 48  1  0  0  0  0
 21 22  1  0  0  0  0
 21 49  1  0  0  0  0
 21 50  1  0  0  0  0
 23 25  1  0  0  0  0
 23 51  1  0  0  0  0
 23 52  1  0  0  0  0
 24 25  1  0  0  0  0
 24 53  1  0  0  0  0
M  END
>  <DRUGBANK_ID>
DB12221

>  <COMMON_NAME>
Canrenone

>  <CAS_NUMBER>
976-71-6

>  <UNII>
78O20X9J0U

>  <SYNONYMS>
Canrenone

$$$$
