
 OpenBabel10282417173D

 57 59  0  0  0  0  0  0  0  0999 V2000
   -1.2341    0.4691   -0.1673 O   0  0  0  0  0  0  0  0  0  0  0  0
    0.0493    0.9795   -0.0882 N   0  0  0  0  0  0  0  0  0  0  0  0
    0.8461   -0.0932   -0.0298 C   0  0  0  0  0  0  0  0  0  0  0  0
    2.3082    0.0475    0.0043 C   0  0  0  0  0  0  0  0  0  0  0  0
    0.1160   -1.2922   -0.0226 C   0  0  0  0  0  0  0  0  0  0  0  0
   -1.1835   -0.8871   -0.0704 C   0  0  0  0  0  0  0  0  0  0  0  0
   -2.4441   -1.6372    0.0349 C   0  0  0  0  0  0  0  0  0  0  0  0
   -3.1436   -1.2939    1.3576 C   0  0  0  0  0  0  0  0  0  0  0  0
   -3.6083    0.1741    1.4137 C   0  0  0  0  0  0  0  0  0  0  0  0
   -4.4394    0.4736    0.1931 C   0  0  0  0  0  0  0  0  0  0  0  0
   -5.5957   -0.5034    0.2295 C   0  0  0  0  0  0  0  0  0  0  0  0
   -6.7157   -0.0901    1.1768 C   0  0  0  0  0  0  0  0  0  0  0  0
   -7.1788    1.3641    1.0297 C   0  0  0  0  0  0  0  0  0  0  0  0
   -8.0269    1.6812   -0.1035 O   0  0  0  0  0  0  0  0  0  0  0  0
   -7.5672    1.4639   -1.3734 C   0  0  0  0  0  0  0  0  0  0  0  0
   -7.3374    0.1910   -1.8706 C   0  0  0  0  0  0  0  0  0  0  0  0
   -6.5420   -0.0055   -3.0131 C   0  0  0  0  0  0  0  0  0  0  0  0
   -6.4073    1.0322   -3.9052 C   0  0  0  0  0  0  0  0  0  0  0  0
   -7.0152    2.2508   -3.5968 C   0  0  0  0  0  0  0  0  0  0  0  0
   -7.5027    2.4957   -2.2944 C   0  0  0  0  0  0  0  0  0  0  0  0
   -5.6604    0.8664   -5.1683 C   0  0  0  0  0  0  0  0  0  0  0  0
   -4.8234    1.7019   -5.6570 N   0  0  0  0  0  0  0  0  0  0  0  0
   -4.5292    1.1464   -6.9931 C   0  0  1  0  0  0  0  0  0  0  0  0
   -3.0424    1.2331   -7.3218 C   0  0  0  0  0  0  0  0  0  0  0  0
   -2.7629    0.7345   -8.7332 C   0  0  0  0  0  0  0  0  0  0  0  0
   -5.0625   -0.2743   -6.9463 C   0  0  0  0  0  0  0  0  0  0  0  0
   -5.9570   -0.2817   -5.8390 O   0  0  0  0  0  0  0  0  0  0  0  0
    2.6527    0.5913   -0.8788 H   0  0  0  0  0  0  0  0  0  0  0  0
    2.6288    0.5745    0.9064 H   0  0  0  0  0  0  0  0  0  0  0  0
    2.7746   -0.9429   -0.0004 H   0  0  0  0  0  0  0  0  0  0  0  0
    0.4598   -2.3105    0.0347 H   0  0  0  0  0  0  0  0  0  0  0  0
   -3.0614   -1.4719   -0.8571 H   0  0  0  0  0  0  0  0  0  0  0  0
   -2.2350   -2.7117    0.0219 H   0  0  0  0  0  0  0  0  0  0  0  0
   -3.9828   -1.9867    1.4832 H   0  0  0  0  0  0  0  0  0  0  0  0
   -2.5149   -1.5062    2.2222 H   0  0  0  0  0  0  0  0  0  0  0  0
   -4.2009    0.3531    2.3159 H   0  0  0  0  0  0  0  0  0  0  0  0
   -2.7754    0.8753    1.4740 H   0  0  0  0  0  0  0  0  0  0  0  0
   -4.7450    1.5212    0.1329 H   0  0  0  0  0  0  0  0  0  0  0  0
   -3.8846    0.3537   -0.7464 H   0  0  0  0  0  0  0  0  0  0  0  0
   -5.7970   -0.6355   -0.8032 H   0  0  0  0  0  0  0  0  0  0  0  0
   -5.3840   -1.5564    0.4135 H   0  0  0  0  0  0  0  0  0  0  0  0
   -7.5674   -0.7688    1.0699 H   0  0  0  0  0  0  0  0  0  0  0  0
   -6.3464   -0.2474    2.2028 H   0  0  0  0  0  0  0  0  0  0  0  0
   -7.7854    1.5753    1.9229 H   0  0  0  0  0  0  0  0  0  0  0  0
   -6.3526    2.0807    1.1244 H   0  0  0  0  0  0  0  0  0  0  0  0
   -7.6129   -0.6702   -1.2688 H   0  0  0  0  0  0  0  0  0  0  0  0
   -6.0124   -0.9473   -3.1581 H   0  0  0  0  0  0  0  0  0  0  0  0
   -7.1142    3.0067   -4.3675 H   0  0  0  0  0  0  0  0  0  0  0  0
   -7.8656    3.4828   -2.0294 H   0  0  0  0  0  0  0  0  0  0  0  0
   -5.0951    1.7399   -7.7216 H   0  0  0  0  0  0  0  0  0  0  0  0
   -2.7035    2.2726   -7.2329 H   0  0  0  0  0  0  0  0  0  0  0  0
   -2.4520    0.6528   -6.6016 H   0  0  0  0  0  0  0  0  0  0  0  0
   -3.3210    1.3246   -9.4675 H   0  0  0  0  0  0  0  0  0  0  0  0
   -1.6977    0.8149   -8.9678 H   0  0  0  0  0  0  0  0  0  0  0  0
   -3.0542   -0.3143   -8.8497 H   0  0  0  0  0  0  0  0  0  0  0  0
   -5.5954   -0.5284   -7.8704 H   0  0  0  0  0  0  0  0  0  0  0  0
   -4.2836   -1.0275   -6.7804 H   0  0  0  0  0  0  0  0  0  0  0  0
  2  1  1  0  0  0  0
  3  2  2  0  0  0  0
  3  4  1  0  0  0  0
  3  5  1  0  0  0  0
  4 28  1  0  0  0  0
  4 29  1  0  0  0  0
  4 30  1  0  0  0  0
  5  6  2  0  0  0  0
  5 31  1  0  0  0  0
  6  1  1  0  0  0  0
  7  6  1  0  0  0  0
  7  8  1  0  0  0  0
  7 32  1  0  0  0  0
  7 33  1  0  0  0  0
  8  9  1  0  0  0  0
  8 34  1  0  0  0  0
  8 35  1  0  0  0  0
  9 10  1  0  0  0  0
  9 36  1  0  0  0  0
  9 37  1  0  0  0  0
 10 11  1  0  0  0  0
 10 38  1  0  0  0  0
 10 39  1  0  0  0  0
 11 12  1  0  0  0  0
 11 40  1  0  0  0  0
 11 41  1  0  0  0  0
 12 13  1  0  0  0  0
 12 42  1  0  0  0  0
 12 43  1  0  0  0  0
 13 14  1  0  0  0  0
 13 44  1  0  0  0  0
 13 45  1  0  0  0  0
 15 14  1  0  0  0  0
 15 16  2  0  0  0  0
 15 20  1  0  0  0  0
 16 17  1  0  0  0  0
 16 46  1  0  0  0  0
 17 18  2  0  0  0  0
 17 47  1  0  0  0  0
 18 19  1  0  0  0  0
 19 20  2  0  0  0  0
 19 48  1  0  0  0  0
 20 49  1  0  0  0  0
 21 18  1  0  0  0  0
 21 22  2  0  0  0  0
 21 27  1  0  0  0  0
 23 22  1  0  0  0  0
 23 24  1  0  0  0  0
 23 26  1  0  0  0  0
 23 50  1  6  0  0  0
 24 25  1  0  0  0  0
 24 51  1  0  0  0  0
 24 52  1  0  0  0  0
 25 53  1  0  0  0  0
 25 54  1  0  0  0  0
 25 55  1  0  0  0  0
 26 27  1  0  0  0  0
 26 56  1  0  0  0  0
 26 57  1  0  0  0  0
M  END
>  <DRUGBANK_ID>
DB08725

>  <COMMON_NAME>
(S)-5-(7-(4-(4-Ethyl-4,5-dihydro-2-oxazolyl)phenoxy)heptyl)-3-methylisoxazole

>  <CAS_NUMBER>
112270-39-0

$$$$
