767
 OpenBabel10282417113D

 61 63  0  0  1  0  0  0  0  0999 V2000
    1.3271    0.6678    0.2931 O   0  0  0  0  0  0  0  0  0  0  0  0
    3.4735    5.2005    1.5051 O   0  0  0  0  0  0  0  0  0  0  0  0
   -3.3444   -0.8502   -1.4335 O   0  0  0  0  0  0  0  0  0  0  0  0
   -5.3932    1.1715   -1.7975 O   0  0  0  0  0  0  0  0  0  0  0  0
    2.8182   -0.8235   -0.5341 O   0  0  0  0  0  0  0  0  0  0  0  0
    0.3998    4.0151   -1.7573 N   0  0  3  0  0  0  0  0  0  0  0  0
    4.5051    3.7305    0.0948 N   0  0  0  0  0  0  0  0  0  0  0  0
   -0.0251    2.6017   -1.5722 C   0  0  3  0  0  0  0  0  0  0  0  0
    1.9324    3.6676    0.4677 C   0  0  3  0  0  0  0  0  0  0  0  0
    0.1054    2.3224   -0.1187 C   0  0  0  0  0  0  0  0  0  0  0  0
    1.1302    2.0603    0.8816 C   0  0  3  0  0  0  0  0  0  0  0  0
    1.7292    4.1977   -1.1170 C   0  0  0  0  0  0  0  0  0  0  0  0
   -0.5508    4.9596   -1.1652 C   0  0  0  0  0  0  0  0  0  0  0  0
   -1.4411    2.2204   -1.6739 C   0  0  0  0  0  0  0  0  0  0  0  0
   -1.9525    4.6875   -1.7023 C   0  0  0  0  0  0  0  0  0  0  0  0
   -2.3690    3.2396   -1.6905 C   0  0  0  0  0  0  0  0  0  0  0  0
    3.3747    4.2058    0.7730 C   0  0  0  0  0  0  0  0  0  0  0  0
   -1.7988    0.8600   -1.5107 C   0  0  0  0  0  0  0  0  0  0  0  0
   -3.6896    2.8739   -1.7355 C   0  0  0  0  0  0  0  0  0  0  0  0
   -3.1313    0.5002   -1.5396 C   0  0  0  0  0  0  0  0  0  0  0  0
   -4.0807    1.5254   -1.6908 C   0  0  0  0  0  0  0  0  0  0  0  0
    4.4854    2.6500   -0.8860 C   0  0  0  0  0  0  0  0  0  0  0  0
    5.8496    4.2114    0.4791 C   0  0  0  0  0  0  0  0  0  0  0  0
    2.5279    0.0634    0.2081 C   0  0  0  0  0  0  0  0  0  0  0  0
    5.1120    2.9396   -2.2233 C   0  0  0  0  0  0  0  0  0  0  0  0
    6.2058    5.6010   -0.0318 C   0  0  0  0  0  0  0  0  0  0  0  0
    3.4041    0.7564    1.1758 C   0  0  0  0  0  0  0  0  0  0  0  0
   -4.6871   -1.2845   -1.5974 C   0  0  0  0  0  0  0  0  0  0  0  0
   -6.3305    2.2076   -2.0028 C   0  0  0  0  0  0  0  0  0  0  0  0
    0.5761    1.9052   -2.1967 H   0  0  0  0  0  0  0  0  0  0  0  0
    1.2956    4.3568    1.0606 H   0  0  0  0  0  0  0  0  0  0  0  0
   -0.3829    3.1507    0.4108 H   0  0  0  0  0  0  0  0  0  0  0  0
    1.0883    2.2981   -0.5837 H   0  0  0  0  0  0  0  0  0  0  0  0
    0.4530    1.9227    1.7533 H   0  0  0  0  0  0  0  0  0  0  0  0
    2.4047    3.6698   -1.7941 H   0  0  0  0  0  0  0  0  0  0  0  0
    2.0515    5.2429   -1.2222 H   0  0  0  0  0  0  0  0  0  0  0  0
   -0.5730    4.9360   -0.0685 H   0  0  0  0  0  0  0  0  0  0  0  0
   -0.2419    5.9851   -1.3927 H   0  0  0  0  0  0  0  0  0  0  0  0
   -2.6502    5.2668   -1.0898 H   0  0  0  0  0  0  0  0  0  0  0  0
   -1.9973    5.0305   -2.7374 H   0  0  0  0  0  0  0  0  0  0  0  0
   -1.0331    0.0972   -1.3286 H   0  0  0  0  0  0  0  0  0  0  0  0
   -4.4001    3.6814   -1.8271 H   0  0  0  0  0  0  0  0  0  0  0  0
    5.0324    1.8171   -0.4459 H   0  0  0  0  0  0  0  0  0  0  0  0
    3.4699    2.3076   -1.0610 H   0  0  0  0  0  0  0  0  0  0  0  0
    5.9424    4.1809    1.5702 H   0  0  0  0  0  0  0  0  0  0  0  0
    6.5938    3.5051    0.0893 H   0  0  0  0  0  0  0  0  0  0  0  0
    6.1933    3.0509   -2.1234 H   0  0  0  0  0  0  0  0  0  0  0  0
    4.9195    2.0797   -2.8730 H   0  0  0  0  0  0  0  0  0  0  0  0
    4.6937    3.8362   -2.6840 H   0  0  0  0  0  0  0  0  0  0  0  0
    5.5593    6.3676    0.4020 H   0  0  0  0  0  0  0  0  0  0  0  0
    7.2402    5.8477    0.2397 H   0  0  0  0  0  0  0  0  0  0  0  0
    6.1261    5.6604   -1.1215 H   0  0  0  0  0  0  0  0  0  0  0  0
    3.3247    1.7920    0.9121 H   0  0  0  0  0  0  0  0  0  0  0  0
    3.0038    0.6756    2.1798 H   0  0  0  0  0  0  0  0  0  0  0  0
    4.4363    0.4797    1.0498 H   0  0  0  0  0  0  0  0  0  0  0  0
   -5.3125   -0.9042   -0.7824 H   0  0  0  0  0  0  0  0  0  0  0  0
   -5.0683   -1.0014   -2.5857 H   0  0  0  0  0  0  0  0  0  0  0  0
   -4.7218   -2.3740   -1.5437 H   0  0  0  0  0  0  0  0  0  0  0  0
   -6.3529    2.8752   -1.1359 H   0  0  0  0  0  0  0  0  0  0  0  0
   -6.1200    2.7519   -2.9298 H   0  0  0  0  0  0  0  0  0  0  0  0
   -7.3073    1.7352   -2.0981 H   0  0  0  0  0  0  0  0  0  0  0  0
  1 11  1  0  0  0  0
  1 24  1  0  0  0  0
  2 17  2  0  0  0  0
  3 20  1  0  0  0  0
  3 28  1  0  0  0  0
  4 21  1  0  0  0  0
  4 29  1  0  0  0  0
  5 24  2  0  0  0  0
  6  8  1  0  0  0  0
  6 12  1  0  0  0  0
  6 13  1  0  0  0  0
  7 17  1  0  0  0  0
  7 22  1  0  0  0  0
  7 23  1  0  0  0  0
  8 10  1  0  0  0  0
  8 14  1  0  0  0  0
  8 30  1  0  0  0  0
  9 11  1  0  0  0  0
  9 12  1  0  0  0  0
  9 17  1  0  0  0  0
  9 31  1  0  0  0  0
 10 11  1  0  0  0  0
 10 32  1  0  0  0  0
 10 33  1  0  0  0  0
 11 34  1  0  0  0  0
 12 35  1  0  0  0  0
 12 36  1  0  0  0  0
 13 15  1  0  0  0  0
 13 37  1  0  0  0  0
 13 38  1  0  0  0  0
 14 16  1  0  0  0  0
 14 18  2  0  0  0  0
 15 16  1  0  0  0  0
 15 39  1  0  0  0  0
 15 40  1  0  0  0  0
 16 19  2  0  0  0  0
 18 20  1  0  0  0  0
 18 41  1  0  0  0  0
 19 21  1  0  0  0  0
 19 42  1  0  0  0  0
 20 21  2  0  0  0  0
 22 25  1  0  0  0  0
 22 43  1  0  0  0  0
 22 44  1  0  0  0  0
 23 26  1  0  0  0  0
 23 45  1  0  0  0  0
 23 46  1  0  0  0  0
 24 27  1  0  0  0  0
 25 47  1  0  0  0  0
 25 48  1  0  0  0  0
 25 49  1  0  0  0  0
 26 50  1  0  0  0  0
 26 51  1  0  0  0  0
 26 52  1  0  0  0  0
 27 53  1  0  0  0  0
 27 54  1  0  0  0  0
 27 55  1  0  0  0  0
 28 56  1  0  0  0  0
 28 57  1  0  0  0  0
 28 58  1  0  0  0  0
 29 59  1  0  0  0  0
 29 60  1  0  0  0  0
 29 61  1  0  0  0  0
M  END
>  <DRUGBANK_ID>
DB00767

>  <SECONDARY_ACCESSION_NUMBERS>
APRD00820

>  <COMMON_NAME>
Benzquinamide

>  <CAS_NUMBER>
63-12-7

>  <UNII>
0475EA27Q3

>  <SYNONYMS>
benzquinamida; Benzquinamide; BZQ

$$$$
