
 OpenBabel10282417203D

 57 60  0  0  0  0  0  0  0  0999 V2000
    0.1418    0.7389   -0.6493 C   0  0  2  0  0  0  0  0  0  0  0  0
   -0.5848   -0.5018   -0.3927 N   0  0  0  0  0  0  0  0  0  0  0  0
   -0.0196   -1.7234   -0.1574 C   0  0  0  0  0  0  0  0  0  0  0  0
    1.3247   -1.7845    0.0452 C   0  0  0  0  0  0  0  0  0  0  0  0
    2.2520   -0.5669    0.0002 C   0  0  0  0  0  0  0  0  0  0  0  0
    1.4607    0.9936    0.4999 S   0  0  0  0  0  0  0  0  0  0  0  0
   -1.1656    1.4693   -0.4337 C   0  0  1  0  0  0  0  0  0  0  0  0
   -1.7139    0.0928    0.0659 C   0  0  0  0  0  0  0  0  0  0  0  0
   -1.4012    2.6986    0.3106 N   0  0  0  0  0  0  0  0  0  0  0  0
   -2.1543    3.7895   -0.1470 C   0  0  0  0  0  0  0  0  0  0  0  0
   -2.1694    4.7669    0.5986 O   0  0  0  0  0  0  0  0  0  0  0  0
   -2.6671   -0.4020    0.6077 O   0  0  0  0  0  0  0  0  0  0  0  0
   -2.8815    3.8013   -1.5771 C   0  0  0  0  0  0  0  0  0  0  0  0
    2.0811   -3.0569    0.3668 C   0  0  0  0  0  0  0  0  0  0  0  0
   -2.9663    2.6315   -2.4926 C   0  0  0  0  0  0  0  0  0  0  0  0
    0.4580    0.8213   -1.7000 H   0  0  0  0  0  0  0  0  0  0  0  0
    1.6416   -3.8991    1.9055 S   0  0  0  0  0  0  0  0  0  0  0  0
    1.6655   -2.7610    3.2208 C   0  0  0  0  0  0  0  0  0  0  0  0
   -2.5301    2.6471   -3.8108 C   0  0  0  0  0  0  0  0  0  0  0  0
   -2.4689    1.0517   -4.4514 S   0  0  0  0  0  0  0  0  0  0  0  0
   -3.0085    0.4315   -2.9494 C   0  0  0  0  0  0  0  0  0  0  0  0
   -3.3373    1.3442   -2.0609 N   0  0  0  0  0  0  0  0  0  0  0  0
   -3.4229    4.8757   -2.0972 N   0  0  0  0  0  0  0  0  0  0  0  0
    1.8814   -3.2167    4.4326 N   0  0  0  0  0  0  0  0  0  0  0  0
    1.8635   -2.1858    5.3560 C   0  0  0  0  0  0  0  0  0  0  0  0
    1.6164   -0.9326    4.8309 C   0  0  0  0  0  0  0  0  0  0  0  0
    1.2941   -1.1003    3.1712 S   0  0  0  0  0  0  0  0  0  0  0  0
   -0.8754   -2.9930   -0.1719 C   0  0  0  0  0  0  0  0  0  0  0  0
   -2.2012   -2.8299   -0.3546 O   0  0  0  0  0  0  0  0  0  0  0  0
   -0.4178   -4.1257   -0.1612 O   0  0  0  0  0  0  0  0  0  0  0  0
   -2.9539   -0.8803   -2.6652 N   0  0  0  0  0  0  0  0  0  0  0  0
    2.6869    1.2913    5.0318 C   0  0  0  0  0  0  0  0  0  0  0  0
    1.5589    0.3982    5.5052 C   0  0  0  0  0  0  0  0  0  0  0  0
    2.2907    2.4983    4.5641 O   0  0  0  0  0  0  0  0  0  0  0  0
    3.8703    0.9867    5.0885 O   0  0  0  0  0  0  0  0  0  0  0  0
    2.1111   -2.5307    6.7721 C   0  0  0  0  0  0  0  0  0  0  0  0
   -3.3827    5.9856   -1.2469 O   0  0  0  0  0  0  0  0  0  0  0  0
   -4.1091    7.0657   -1.8243 C   0  0  0  0  0  0  0  0  0  0  0  0
    2.6635   -0.4560   -1.0096 H   0  0  0  0  0  0  0  0  0  0  0  0
    3.0907   -0.6895    0.6887 H   0  0  0  0  0  0  0  0  0  0  0  0
   -1.3420    1.7166   -1.4538 H   0  0  0  0  0  0  0  0  0  0  0  0
   -1.0189    2.8470    1.2411 H   0  0  0  0  0  0  0  0  0  0  0  0
    1.9524   -3.7520   -0.4734 H   0  0  0  0  0  0  0  0  0  0  0  0
    3.1585   -2.8711    0.3980 H   0  0  0  0  0  0  0  0  0  0  0  0
   -2.1707    3.4827   -4.3942 H   0  0  0  0  0  0  0  0  0  0  0  0
   -2.5362   -1.9414   -0.1279 H   0  0  0  0  0  0  0  0  0  0  0  0
   -2.9440   -1.5663   -3.4135 H   0  0  0  0  0  0  0  0  0  0  0  0
   -3.4460   -1.2053   -1.8398 H   0  0  0  0  0  0  0  0  0  0  0  0
    0.5808    0.8649    5.3500 H   0  0  0  0  0  0  0  0  0  0  0  0
    1.6814    0.2944    6.5872 H   0  0  0  0  0  0  0  0  0  0  0  0
    1.3294    2.6602    4.5473 H   0  0  0  0  0  0  0  0  0  0  0  0
    1.3390   -3.2194    7.1258 H   0  0  0  0  0  0  0  0  0  0  0  0
    3.0914   -3.0021    6.8718 H   0  0  0  0  0  0  0  0  0  0  0  0
    2.0920   -1.6467    7.4123 H   0  0  0  0  0  0  0  0  0  0  0  0
   -3.6292    7.3986   -2.7495 H   0  0  0  0  0  0  0  0  0  0  0  0
   -5.1498    6.7848   -2.0172 H   0  0  0  0  0  0  0  0  0  0  0  0
   -4.1041    7.8970   -1.1128 H   0  0  0  0  0  0  0  0  0  0  0  0
  1  2  1  0  0  0  0
  1  6  1  0  0  0  0
  1  7  1  0  0  0  0
  1 16  1  6  0  0  0
  2  3  1  0  0  0  0
  2  8  1  0  0  0  0
  3  4  2  0  0  0  0
  3 28  1  0  0  0  0
  4  5  1  0  0  0  0
  4 14  1  0  0  0  0
  5  6  1  0  0  0  0
  5 39  1  0  0  0  0
  5 40  1  0  0  0  0
  7  8  1  0  0  0  0
  7  9  1  0  0  0  0
  7 41  1  6  0  0  0
  8 12  2  0  0  0  0
  9 10  1  0  0  0  0
  9 42  1  0  0  0  0
 10 11  2  0  0  0  0
 10 13  1  0  0  0  0
 13 15  1  0  0  0  0
 13 23  2  0  0  0  0
 14 17  1  0  0  0  0
 14 43  1  0  0  0  0
 14 44  1  0  0  0  0
 15 19  2  0  0  0  0
 15 22  1  0  0  0  0
 17 18  1  0  0  0  0
 18 24  2  0  0  0  0
 18 27  1  0  0  0  0
 19 20  1  0  0  0  0
 19 45  1  0  0  0  0
 20 21  1  0  0  0  0
 21 22  2  0  0  0  0
 21 31  1  0  0  0  0
 23 37  1  0  0  0  0
 24 25  1  0  0  0  0
 25 26  2  0  0  0  0
 25 36  1  0  0  0  0
 26 27  1  0  0  0  0
 26 33  1  0  0  0  0
 28 29  1  0  0  0  0
 28 30  2  0  0  0  0
 29 46  1  0  0  0  0
 31 47  1  0  0  0  0
 31 48  1  0  0  0  0
 32 33  1  0  0  0  0
 32 34  1  0  0  0  0
 32 35  2  0  0  0  0
 33 49  1  0  0  0  0
 33 50  1  0  0  0  0
 34 51  1  0  0  0  0
 36 52  1  0  0  0  0
 36 53  1  0  0  0  0
 36 54  1  0  0  0  0
 37 38  1  0  0  0  0
 38 55  1  0  0  0  0
 38 56  1  0  0  0  0
 38 57  1  0  0  0  0
M  END
>  <DRUGBANK_ID>
DB13470

>  <COMMON_NAME>
Cefodizime

>  <CAS_NUMBER>
69739-16-8

>  <UNII>
Z31298J4HQ

>  <SYNONYMS>
CDZM; Cefodizima; Cefodizime; Cefodizimum

$$$$
