
 OpenBabel10282417103D

 20 19  0  0  0  0  0  0  0  0999 V2000
    0.1809    0.0019    0.1849 N   0  0  0  0  0  0  0  0  0  0  0  0
   -1.1041   -0.9248   -1.3470 N   0  0  0  0  0  0  0  0  0  0  0  0
    0.1142   -0.7089   -0.9901 C   0  0  0  0  0  0  0  0  0  0  0  0
    1.1495   -1.1986   -1.7996 N   0  0  0  0  0  0  0  0  0  0  0  0
    3.0158   -1.9684   -3.0722 N   0  0  0  0  0  0  0  0  0  0  0  0
    2.5378   -1.3429   -2.0381 C   0  0  0  0  0  0  0  0  0  0  0  0
    3.1361   -0.1100   -0.0001 C   0  0  0  0  0  0  0  0  0  0  0  0
    3.4866   -0.8156   -1.1665 N   0  0  0  0  0  0  0  0  0  0  0  0
    4.9261   -0.8988   -1.3041 C   0  0  0  0  0  0  0  0  0  0  0  0
   -0.6507    0.2966    0.6721 H   0  0  0  0  0  0  0  0  0  0  0  0
    0.9577    0.3244    0.7181 H   0  0  0  0  0  0  0  0  0  0  0  0
   -1.6973   -0.4877   -0.6244 H   0  0  0  0  0  0  0  0  0  0  0  0
    0.6525   -1.6600   -2.5624 H   0  0  0  0  0  0  0  0  0  0  0  0
    2.3050   -2.3484   -3.7004 H   0  0  0  0  0  0  0  0  0  0  0  0
    3.3312   -0.6214    0.9422 H   0  0  0  0  0  0  0  0  0  0  0  0
    3.3312    0.9620   -0.0156 H   0  0  0  0  0  0  0  0  0  0  0  0
    2.1216   -0.1764   -0.1097 H   0  0  0  0  0  0  0  0  0  0  0  0
    5.2777   -1.9306   -1.2595 H   0  0  0  0  0  0  0  0  0  0  0  0
    5.2777   -0.3804   -2.1972 H   0  0  0  0  0  0  0  0  0  0  0  0
    5.3953   -0.3821   -0.4498 H   0  0  0  0  0  0  0  0  0  0  0  0
  1  3  1  0  0  0  0
  1 10  1  0  0  0  0
  1 11  1  0  0  0  0
  2 12  1  0  0  0  0
  3  2  2  0  0  0  0
  3  4  1  0  0  0  0
  4  6  1  0  0  0  0
  4 13  1  0  0  0  0
  5 14  1  0  0  0  0
  6  5  2  0  0  0  0
  6  8  1  0  0  0  0
  7 15  1  0  0  0  0
  7 16  1  0  0  0  0
  7 17  1  0  0  0  0
  8  7  1  0  0  0  0
  8  9  1  0  0  0  0
  9 18  1  0  0  0  0
  9 19  1  0  0  0  0
  9 20  1  0  0  0  0
M  END
>  <DRUGBANK_ID>
DB00331

>  <SECONDARY_ACCESSION_NUMBERS>
APRD01099

>  <COMMON_NAME>
Metformin

>  <CAS_NUMBER>
657-24-9

>  <UNII>
9100L32L2N

>  <SYNONYMS>
1,1-Dimethylbiguanide; Dimethylbiguanid; Metformin; Metformina; Metformine; Metforminum

$$$$
