
 OpenBabel10282417193D

 82 86  0  0  0  0  0  0  0  0999 V2000
    1.0628    0.2865   -0.1240 C   0  0  0  0  0  0  0  0  0  0  0  0
    0.4863   -0.9833   -0.5167 C   0  0  0  0  0  0  0  0  0  0  0  0
    0.9970   -1.7641    0.6391 C   0  0  0  0  0  0  0  0  0  0  0  0
    0.4772   -1.7778    2.0616 C   0  0  0  0  0  0  0  0  0  0  0  0
   -1.0329   -1.9931    2.0307 C   0  0  0  0  0  0  0  0  0  0  0  0
   -1.7200   -0.9146    1.8327 N   0  0  0  0  0  0  0  0  0  0  0  0
   -3.1170   -1.3492    1.8933 C   0  0  0  0  0  0  0  0  0  0  0  0
   -3.8972   -0.7998    0.7114 C   0  0  0  0  0  0  0  0  0  0  0  0
   -5.2189   -0.3872    1.3470 C   0  0  0  0  0  0  0  0  0  0  0  0
   -4.7772    0.2239    2.6691 C   0  0  0  0  0  0  0  0  0  0  0  0
   -3.7471   -0.7793    3.1670 C   0  0  0  0  0  0  0  0  0  0  0  0
   -3.0513   -2.8574    1.9751 C   0  0  0  0  0  0  0  0  0  0  0  0
   -3.9941   -3.6307    2.0518 O   0  0  0  0  0  0  0  0  0  0  0  0
   -1.7284   -3.1615    2.1060 N   0  0  0  0  0  0  0  0  0  0  0  0
   -1.3967   -4.5690    2.4328 C   0  0  0  0  0  0  0  0  0  0  0  0
   -0.6227   -5.2280    1.4078 C   0  0  0  0  0  0  0  0  0  0  0  0
    0.4131   -4.2814    0.7564 C   0  0  0  0  0  0  0  0  0  0  0  0
    1.4861   -5.2042   -0.8066 C   0  0  0  0  0  0  0  0  0  0  0  0
    1.3262   -6.2986   -1.4952 C   0  0  0  0  0  0  0  0  0  0  0  0
    0.2157   -6.9833   -0.8734 C   0  0  0  0  0  0  0  0  0  0  0  0
   -0.7720   -6.6318    0.5665 C   0  0  0  0  0  0  0  0  0  0  0  0
    0.0178   -8.1074   -1.7174 C   0  0  0  0  0  0  0  0  0  0  0  0
    0.2664   -8.9998   -0.6625 O   0  0  0  0  0  0  0  0  0  0  0  0
    1.5323   -8.7485    0.0591 C   0  0  0  0  0  0  0  0  0  0  0  0
    2.7035   -8.8753   -0.8759 C   0  0  0  0  0  0  0  0  0  0  0  0
    2.0873   -6.1821   -2.6844 C   0  0  0  0  0  0  0  0  0  0  0  0
    3.5207   -6.2039   -2.5330 C   0  0  0  0  0  0  0  0  0  0  0  0
    4.2969   -6.3701   -3.6248 C   0  0  0  0  0  0  0  0  0  0  0  0
    3.6389   -6.4134   -4.8407 C   0  0  0  0  0  0  0  0  0  0  0  0
    2.2465   -6.1875   -4.9661 C   0  0  0  0  0  0  0  0  0  0  0  0
    1.4737   -5.8730   -3.8746 C   0  0  0  0  0  0  0  0  0  0  0  0
   -0.1615   -5.0829   -4.0617 S   0  0  0  0  0  0  0  0  0  0  0  0
   -0.0069   -3.9563   -4.9648 O   0  0  0  0  0  0  0  0  0  0  0  0
   -1.0468   -6.1670   -4.4455 O   0  0  0  0  0  0  0  0  0  0  0  0
   -0.7177   -4.2757   -2.6683 N   0  0  0  0  0  0  0  0  0  0  0  0
   -0.0056   -3.9883   -1.4729 C   0  0  0  0  0  0  0  0  0  0  0  0
    1.5797   -3.3170   -1.1267 C   0  0  0  0  0  0  0  0  0  0  0  0
    2.3143   -3.9902    0.3869 C   0  0  0  0  0  0  0  0  0  0  0  0
    1.2829   -5.6175    0.7106 O   0  0  0  0  0  0  0  0  0  0  0  0
   -0.3313   -5.0609   -0.6121 N   0  0  0  0  0  0  0  0  0  0  0  0
    3.7116   -4.0876    0.7137 C   0  0  0  0  0  0  0  0  0  0  0  0
    2.3411   -3.2021   -2.3915 C   0  0  0  0  0  0  0  0  0  0  0  0
    0.7054    0.4867    0.8849 H   0  0  0  0  0  0  0  0  0  0  0  0
    0.7096    0.9909   -0.8419 H   0  0  0  0  0  0  0  0  0  0  0  0
    2.1572    0.1671   -0.1024 H   0  0  0  0  0  0  0  0  0  0  0  0
   -0.5979   -1.1378   -0.5661 H   0  0  0  0  0  0  0  0  0  0  0  0
    0.8589   -1.3111   -1.5039 H   0  0  0  0  0  0  0  0  0  0  0  0
    0.3862   -2.5074    0.2302 H   0  0  0  0  0  0  0  0  0  0  0  0
    2.0953   -1.8982    0.5712 H   0  0  0  0  0  0  0  0  0  0  0  0
    0.9082   -2.5220    2.7496 H   0  0  0  0  0  0  0  0  0  0  0  0
    0.8419   -0.8484    2.4500 H   0  0  0  0  0  0  0  0  0  0  0  0
   -3.3923    0.0761    0.2785 H   0  0  0  0  0  0  0  0  0  0  0  0
   -4.0307   -1.5293   -0.0911 H   0  0  0  0  0  0  0  0  0  0  0  0
   -5.8102    0.2917    0.7302 H   0  0  0  0  0  0  0  0  0  0  0  0
   -5.8298   -1.2777    1.5401 H   0  0  0  0  0  0  0  0  0  0  0  0
   -4.3170    1.2089    2.5178 H   0  0  0  0  0  0  0  0  0  0  0  0
   -5.6011    0.3468    3.3747 H   0  0  0  0  0  0  0  0  0  0  0  0
   -4.2524   -1.5702    3.7338 H   0  0  0  0  0  0  0  0  0  0  0  0
   -3.0160   -0.3151    3.8367 H   0  0  0  0  0  0  0  0  0  0  0  0
   -0.6938   -4.5931    3.2673 H   0  0  0  0  0  0  0  0  0  0  0  0
   -2.2450   -5.2485    2.4072 H   0  0  0  0  0  0  0  0  0  0  0  0
    0.8664   -3.7428    1.5857 H   0  0  0  0  0  0  0  0  0  0  0  0
    2.5797   -4.9685   -1.0257 H   0  0  0  0  0  0  0  0  0  0  0  0
   -1.8283   -6.7414    0.2378 H   0  0  0  0  0  0  0  0  0  0  0  0
   -0.9343   -7.8770   -2.1940 H   0  0  0  0  0  0  0  0  0  0  0  0
    0.8046   -8.1203   -2.4904 H   0  0  0  0  0  0  0  0  0  0  0  0
    1.6161   -7.7858    0.6036 H   0  0  0  0  0  0  0  0  0  0  0  0
    1.5525   -9.4677    0.8564 H   0  0  0  0  0  0  0  0  0  0  0  0
    2.7041   -8.1418   -1.6590 H   0  0  0  0  0  0  0  0  0  0  0  0
    3.6497   -8.7347   -0.3646 H   0  0  0  0  0  0  0  0  0  0  0  0
    2.6120   -9.7981   -1.4299 H   0  0  0  0  0  0  0  0  0  0  0  0
    3.9998   -6.0817   -1.5471 H   0  0  0  0  0  0  0  0  0  0  0  0
    5.3516   -6.5598   -3.4872 H   0  0  0  0  0  0  0  0  0  0  0  0
    4.2235   -6.6133   -5.7253 H   0  0  0  0  0  0  0  0  0  0  0  0
    1.7576   -6.3816   -5.9082 H   0  0  0  0  0  0  0  0  0  0  0  0
   -1.7355   -4.2823   -2.5274 H   0  0  0  0  0  0  0  0  0  0  0  0
    3.7570   -3.3777    1.5254 H   0  0  0  0  0  0  0  0  0  0  0  0
    3.9578   -5.1298    0.9241 H   0  0  0  0  0  0  0  0  0  0  0  0
    4.1808   -3.7495   -0.2145 H   0  0  0  0  0  0  0  0  0  0  0  0
    2.8271   -2.2963   -2.1831 H   0  0  0  0  0  0  0  0  0  0  0  0
    3.1198   -3.9463   -2.5010 H   0  0  0  0  0  0  0  0  0  0  0  0
    1.6777   -3.3541   -3.2494 H   0  0  0  0  0  0  0  0  0  0  0  0
  1  2  1  0  0  0  0
  1 43  1  0  0  0  0
  1 44  1  0  0  0  0
  1 45  1  0  0  0  0
  2  3  1  0  0  0  0
  2 46  1  0  0  0  0
  2 47  1  0  0  0  0
  3  4  1  0  0  0  0
  3 48  1  0  0  0  0
  3 49  1  0  0  0  0
  4  5  1  0  0  0  0
  4 50  1  0  0  0  0
  4 51  1  0  0  0  0
  5  6  2  0  0  0  0
  5 14  1  0  0  0  0
  6  7  1  0  0  0  0
  7  8  1  0  0  0  0
  7 11  1  0  0  0  0
  7 12  1  0  0  0  0
  8  9  1  0  0  0  0
  8 52  1  0  0  0  0
  8 53  1  0  0  0  0
  9 10  1  0  0  0  0
  9 54  1  0  0  0  0
  9 55  1  0  0  0  0
 10 11  1  0  0  0  0
 10 56  1  0  0  0  0
 10 57  1  0  0  0  0
 11 58  1  0  0  0  0
 11 59  1  0  0  0  0
 12 13  2  0  0  0  0
 12 14  1  0  0  0  0
 14 15  1  0  0  0  0
 15 16  1  0  0  0  0
 15 60  1  0  0  0  0
 15 61  1  0  0  0  0
 16 17  2  0  0  0  0
 16 21  1  0  0  0  0
 17 18  1  0  0  0  0
 17 62  1  0  0  0  0
 18 19  2  0  0  0  0
 18 63  1  0  0  0  0
 19 20  1  0  0  0  0
 19 26  1  0  0  0  0
 20 21  2  0  0  0  0
 20 22  1  0  0  0  0
 21 64  1  0  0  0  0
 22 23  1  0  0  0  0
 22 65  1  0  0  0  0
 22 66  1  0  0  0  0
 23 24  1  0  0  0  0
 24 25  1  0  0  0  0
 24 67  1  0  0  0  0
 24 68  1  0  0  0  0
 25 69  1  0  0  0  0
 25 70  1  0  0  0  0
 25 71  1  0  0  0  0
 26 27  2  0  0  0  0
 26 31  1  0  0  0  0
 27 28  1  0  0  0  0
 27 72  1  0  0  0  0
 28 29  2  0  0  0  0
 28 73  1  0  0  0  0
 29 30  1  0  0  0  0
 29 74  1  0  0  0  0
 30 31  2  0  0  0  0
 30 75  1  0  0  0  0
 31 32  1  0  0  0  0
 32 33  2  0  0  0  0
 32 34  2  0  0  0  0
 32 35  1  0  0  0  0
 35 36  1  0  0  0  0
 35 76  1  0  0  0  0
 36 37  1  0  0  0  0
 36 40  2  0  0  0  0
 37 38  2  0  0  0  0
 37 42  1  0  0  0  0
 38 39  1  0  0  0  0
 38 41  1  0  0  0  0
 39 40  1  0  0  0  0
 41 77  1  0  0  0  0
 41 78  1  0  0  0  0
 41 79  1  0  0  0  0
 42 80  1  0  0  0  0
 42 81  1  0  0  0  0
 42 82  1  0  0  0  0
M  END
>  <DRUGBANK_ID>
DB12548

>  <SECONDARY_ACCESSION_NUMBERS>
DB05206

>  <COMMON_NAME>
Sparsentan

>  <CAS_NUMBER>
254740-64-2

>  <UNII>
9242RO5URM

>  <SYNONYMS>
Sparsentan

$$$$
