
 OpenBabel10282417123D

 81 84  0  0  0  0  0  0  0  0999 V2000
    0.9453   -0.2860   -0.0827 S   0  0  0  0  0  0  0  0  0  0  0  0
    0.4183   -1.6244   -0.2677 O   0  0  0  0  0  0  0  0  0  0  0  0
    0.4691    0.4884    1.0486 O   0  0  0  0  0  0  0  0  0  0  0  0
    4.0770    1.8358   -4.7047 O   0  0  0  0  0  0  0  0  0  0  0  0
    1.6107    6.3285   -2.2796 O   0  0  0  0  0  0  0  0  0  0  0  0
    3.7798    6.3904   -1.7313 O   0  0  0  0  0  0  0  0  0  0  0  0
    2.6787    1.9400   -2.9986 N   0  0  0  0  0  0  0  0  0  0  0  0
    3.1306    4.9129   -3.3773 N   0  0  0  0  0  0  0  0  0  0  0  0
    2.1815    2.3036   -1.6725 C   0  0  2  0  0  0  0  0  0  0  0  0
    0.7019    2.0608   -1.5490 C   0  0  0  0  0  0  0  0  0  0  0  0
    2.3035    3.7120   -1.2048 C   0  0  0  0  0  0  0  0  0  0  0  0
    0.3482    0.6113   -1.5232 C   0  0  0  0  0  0  0  0  0  0  0  0
    2.0548    4.4111    0.1090 C   0  0  0  0  0  0  0  0  0  0  0  0
    2.8582   -0.3996   -0.1466 C   0  0  0  0  0  0  0  0  0  0  0  0
    3.6556    2.5184   -3.7660 C   0  0  0  0  0  0  0  0  0  0  0  0
    4.2474    3.9289   -3.4365 C   0  0  2  0  0  0  0  0  0  0  0  0
    2.7097    3.8229    1.2989 C   0  0  0  0  0  0  0  0  0  0  0  0
    5.1730    3.8836   -2.2119 C   0  0  0  0  0  0  0  0  0  0  0  0
    3.3709   -1.1096    1.0711 C   0  0  0  0  0  0  0  0  0  0  0  0
    3.2115    4.5444    2.3653 C   0  0  0  0  0  0  0  0  0  0  0  0
    2.5081    2.4888    1.4710 C   0  0  0  0  0  0  0  0  0  0  0  0
    6.3587    3.0213   -2.3365 C   0  0  0  0  0  0  0  0  0  0  0  0
    3.9873   -0.4414    2.1429 C   0  0  0  0  0  0  0  0  0  0  0  0
    3.1858   -2.4664    1.1725 C   0  0  0  0  0  0  0  0  0  0  0  0
    3.4648    3.8835    3.5718 C   0  0  0  0  0  0  0  0  0  0  0  0
    2.5171    1.9025    2.7002 C   0  0  0  0  0  0  0  0  0  0  0  0
    7.5758    3.6687   -2.2236 C   0  0  0  0  0  0  0  0  0  0  0  0
    6.2326    1.6256   -2.2776 C   0  0  0  0  0  0  0  0  0  0  0  0
    2.9417    5.9774   -2.4857 C   0  0  0  0  0  0  0  0  0  0  0  0
    3.1402    2.5434    3.7290 C   0  0  0  0  0  0  0  0  0  0  0  0
    3.9919   -1.0003    3.4169 C   0  0  0  0  0  0  0  0  0  0  0  0
    3.3173   -3.0734    2.4126 C   0  0  0  0  0  0  0  0  0  0  0  0
    3.6604   -2.3340    3.5467 C   0  0  0  0  0  0  0  0  0  0  0  0
    8.7071    2.9040   -2.1054 C   0  0  0  0  0  0  0  0  0  0  0  0
    7.3666    0.8661   -2.1183 C   0  0  0  0  0  0  0  0  0  0  0  0
    8.6024    1.5096   -2.0753 C   0  0  0  0  0  0  0  0  0  0  0  0
    0.5290    6.1978   -3.2348 C   0  0  0  0  0  0  0  0  0  0  0  0
    1.0196    6.8238   -4.4998 C   0  0  0  0  0  0  0  0  0  0  0  0
    0.9947    8.2124   -4.5971 C   0  0  0  0  0  0  0  0  0  0  0  0
    1.7564    6.0804   -5.4342 C   0  0  0  0  0  0  0  0  0  0  0  0
    1.7153    8.8344   -5.6067 C   0  0  0  0  0  0  0  0  0  0  0  0
    2.6430    6.7139   -6.2862 C   0  0  0  0  0  0  0  0  0  0  0  0
    2.5619    8.0888   -6.4286 C   0  0  0  0  0  0  0  0  0  0  0  0
    2.6575    0.9421   -3.2270 H   0  0  0  0  0  0  0  0  0  0  0  0
    2.2827    4.5212   -3.7335 H   0  0  0  0  0  0  0  0  0  0  0  0
    2.8289    1.7124   -1.0862 H   0  0  0  0  0  0  0  0  0  0  0  0
    0.2069    2.5784   -2.3861 H   0  0  0  0  0  0  0  0  0  0  0  0
    0.3095    2.5428   -0.6444 H   0  0  0  0  0  0  0  0  0  0  0  0
    3.3037    3.9769   -1.3103 H   0  0  0  0  0  0  0  0  0  0  0  0
    1.6478    4.1858   -1.9073 H   0  0  0  0  0  0  0  0  0  0  0  0
    0.6726    0.1042   -2.4285 H   0  0  0  0  0  0  0  0  0  0  0  0
   -0.7492    0.5862   -1.4825 H   0  0  0  0  0  0  0  0  0  0  0  0
    2.4255    5.4365    0.0319 H   0  0  0  0  0  0  0  0  0  0  0  0
    0.9788    4.4770    0.2540 H   0  0  0  0  0  0  0  0  0  0  0  0
    3.0941   -0.8947   -1.0886 H   0  0  0  0  0  0  0  0  0  0  0  0
    3.4227    0.5194   -0.1091 H   0  0  0  0  0  0  0  0  0  0  0  0
    4.8194    4.2144   -4.3233 H   0  0  0  0  0  0  0  0  0  0  0  0
    5.4556    4.9030   -1.9416 H   0  0  0  0  0  0  0  0  0  0  0  0
    4.8283    3.4426   -1.2696 H   0  0  0  0  0  0  0  0  0  0  0  0
    3.3471    5.6170    2.2797 H   0  0  0  0  0  0  0  0  0  0  0  0
    2.1764    1.9077    0.6569 H   0  0  0  0  0  0  0  0  0  0  0  0
    4.3602    0.5771    2.0398 H   0  0  0  0  0  0  0  0  0  0  0  0
    2.9073   -3.0258    0.2863 H   0  0  0  0  0  0  0  0  0  0  0  0
    3.8223    4.4284    4.4333 H   0  0  0  0  0  0  0  0  0  0  0  0
    2.0988    0.9073    2.7878 H   0  0  0  0  0  0  0  0  0  0  0  0
    7.6061    4.7559   -2.1630 H   0  0  0  0  0  0  0  0  0  0  0  0
    5.2652    1.1302   -2.2877 H   0  0  0  0  0  0  0  0  0  0  0  0
    3.3388    1.9798    4.6288 H   0  0  0  0  0  0  0  0  0  0  0  0
    4.2053   -0.3890    4.2935 H   0  0  0  0  0  0  0  0  0  0  0  0
    3.0953   -4.1279    2.4951 H   0  0  0  0  0  0  0  0  0  0  0  0
    3.7049   -2.8043    4.5221 H   0  0  0  0  0  0  0  0  0  0  0  0
    9.6583    3.4092   -2.0059 H   0  0  0  0  0  0  0  0  0  0  0  0
    7.2795   -0.2097   -2.0053 H   0  0  0  0  0  0  0  0  0  0  0  0
    9.5024    0.9153   -2.0047 H   0  0  0  0  0  0  0  0  0  0  0  0
    0.1812    5.1620   -3.3406 H   0  0  0  0  0  0  0  0  0  0  0  0
   -0.3216    6.7617   -2.8263 H   0  0  0  0  0  0  0  0  0  0  0  0
    0.4396    8.8038   -3.8710 H   0  0  0  0  0  0  0  0  0  0  0  0
    1.7635    4.9952   -5.4328 H   0  0  0  0  0  0  0  0  0  0  0  0
    1.6482    9.9093   -5.7243 H   0  0  0  0  0  0  0  0  0  0  0  0
    3.3868    6.1321   -6.8251 H   0  0  0  0  0  0  0  0  0  0  0  0
    3.1487    8.5746   -7.1994 H   0  0  0  0  0  0  0  0  0  0  0  0
  1  2  2  0  0  0  0
  1  3  2  0  0  0  0
  1 12  1  0  0  0  0
  1 14  1  0  0  0  0
  4 15  2  0  0  0  0
  5 29  1  0  0  0  0
  5 37  1  0  0  0  0
  6 29  2  0  0  0  0
  7 15  1  0  0  0  0
  7 44  1  0  0  0  0
  8 29  1  0  0  0  0
  8 45  1  0  0  0  0
  9  7  1  0  0  0  0
  9 10  1  0  0  0  0
  9 11  1  0  0  0  0
  9 46  1  1  0  0  0
 10 12  1  0  0  0  0
 10 47  1  0  0  0  0
 10 48  1  0  0  0  0
 11 13  1  0  0  0  0
 11 49  1  0  0  0  0
 11 50  1  0  0  0  0
 12 51  1  0  0  0  0
 12 52  1  0  0  0  0
 13 17  1  0  0  0  0
 13 53  1  0  0  0  0
 13 54  1  0  0  0  0
 14 19  1  0  0  0  0
 14 55  1  0  0  0  0
 14 56  1  0  0  0  0
 15 16  1  0  0  0  0
 16  8  1  0  0  0  0
 16 18  1  0  0  0  0
 16 57  1  6  0  0  0
 17 20  2  0  0  0  0
 17 21  1  0  0  0  0
 18 22  1  0  0  0  0
 18 58  1  0  0  0  0
 18 59  1  0  0  0  0
 19 23  2  0  0  0  0
 19 24  1  0  0  0  0
 20 25  1  0  0  0  0
 20 60  1  0  0  0  0
 21 26  2  0  0  0  0
 21 61  1  0  0  0  0
 22 27  2  0  0  0  0
 22 28  1  0  0  0  0
 23 31  1  0  0  0  0
 23 62  1  0  0  0  0
 24 32  2  0  0  0  0
 24 63  1  0  0  0  0
 25 30  2  0  0  0  0
 25 64  1  0  0  0  0
 26 30  1  0  0  0  0
 26 65  1  0  0  0  0
 27 34  1  0  0  0  0
 27 66  1  0  0  0  0
 28 35  2  0  0  0  0
 28 67  1  0  0  0  0
 30 68  1  0  0  0  0
 31 33  2  0  0  0  0
 31 69  1  0  0  0  0
 32 33  1  0  0  0  0
 32 70  1  0  0  0  0
 33 71  1  0  0  0  0
 34 36  2  0  0  0  0
 34 72  1  0  0  0  0
 35 36  1  0  0  0  0
 35 73  1  0  0  0  0
 36 74  1  0  0  0  0
 37 38  1  0  0  0  0
 37 75  1  0  0  0  0
 37 76  1  0  0  0  0
 38 39  2  0  0  0  0
 38 40  1  0  0  0  0
 39 41  1  0  0  0  0
 39 77  1  0  0  0  0
 40 42  2  0  0  0  0
 40 78  1  0  0  0  0
 41 43  2  0  0  0  0
 41 79  1  0  0  0  0
 42 43  1  0  0  0  0
 42 80  1  0  0  0  0
 43 81  1  0  0  0  0
M  END
>  <DRUGBANK_ID>
DB02200

>  <SECONDARY_ACCESSION_NUMBERS>
EXPT03232

>  <COMMON_NAME>
3-[N-[benzyloxycarbonyl]-phenylalaninyl-amino]-5-phenyl-pentane-1-sulfonylmethylbenzene

$$$$
