
 OpenBabel10282417193D

 37 38  0  0  0  0  0  0  0  0999 V2000
    0.9853   -0.0678   -0.1236 C   0  0  0  0  0  0  0  0  0  0  0  0
    0.4560   -0.2830    1.1704 O   0  0  0  0  0  0  0  0  0  0  0  0
    0.9003   -1.4162    1.7905 C   0  0  0  0  0  0  0  0  0  0  0  0
    2.2360   -1.8735    1.8213 C   0  0  0  0  0  0  0  0  0  0  0  0
    2.6537   -2.9352    2.6830 C   0  0  0  0  0  0  0  0  0  0  0  0
    1.7303   -3.5435    3.5201 C   0  0  0  0  0  0  0  0  0  0  0  0
    0.4642   -3.0399    3.4102 C   0  0  0  0  0  0  0  0  0  0  0  0
   -0.0348   -2.0792    2.5506 C   0  0  0  0  0  0  0  0  0  0  0  0
   -1.4145   -1.7516    2.5163 N   0  0  0  0  0  0  0  0  0  0  0  0
   -2.4869   -2.4151    2.9993 C   0  0  0  0  0  0  0  0  0  0  0  0
   -3.6212   -1.9175    3.0741 O   0  0  0  0  0  0  0  0  0  0  0  0
   -2.3638   -3.6938    3.3655 N   0  0  0  0  0  0  0  0  0  0  0  0
    2.0512   -4.3659    4.6677 N   0  0  0  0  0  0  0  0  0  0  0  0
    0.9657   -5.2293    5.7236 S   0  0  0  0  0  0  0  0  0  0  0  0
    0.6981   -6.4879    5.0598 O   0  0  0  0  0  0  0  0  0  0  0  0
    1.6321   -5.2314    7.0099 O   0  0  0  0  0  0  0  0  0  0  0  0
   -0.6201   -4.4587    6.0715 C   0  0  0  0  0  0  0  0  0  0  0  0
   -1.8076   -5.2077    6.0142 C   0  0  0  0  0  0  0  0  0  0  0  0
   -3.0616   -4.5819    6.1317 C   0  0  0  0  0  0  0  0  0  0  0  0
   -3.1485   -3.1967    6.2197 C   0  0  0  0  0  0  0  0  0  0  0  0
   -1.9817   -2.4468    6.2725 C   0  0  0  0  0  0  0  0  0  0  0  0
   -0.7272   -3.0763    6.2703 C   0  0  0  0  0  0  0  0  0  0  0  0
    0.3545   -2.2958    6.1375 F   0  0  0  0  0  0  0  0  0  0  0  0
   -2.0459   -1.1211    6.0731 F   0  0  0  0  0  0  0  0  0  0  0  0
   -4.3180   -2.5936    5.9553 F   0  0  0  0  0  0  0  0  0  0  0  0
   -4.1728   -5.2789    5.8433 F   0  0  0  0  0  0  0  0  0  0  0  0
   -1.8085   -6.4944    5.6411 F   0  0  0  0  0  0  0  0  0  0  0  0
    0.5985    0.8898   -0.4831 H   0  0  0  0  0  0  0  0  0  0  0  0
    0.6396   -0.8582   -0.7951 H   0  0  0  0  0  0  0  0  0  0  0  0
    2.0743    0.0006   -0.1156 H   0  0  0  0  0  0  0  0  0  0  0  0
    2.9914   -1.3835    1.2154 H   0  0  0  0  0  0  0  0  0  0  0  0
    3.7108   -3.1875    2.7248 H   0  0  0  0  0  0  0  0  0  0  0  0
   -0.1539   -3.3260    4.1928 H   0  0  0  0  0  0  0  0  0  0  0  0
   -1.6781   -0.9330    1.9783 H   0  0  0  0  0  0  0  0  0  0  0  0
   -1.4899   -4.0998    3.6133 H   0  0  0  0  0  0  0  0  0  0  0  0
   -3.1618   -4.0336    3.8744 H   0  0  0  0  0  0  0  0  0  0  0  0
    2.8844   -4.9514    4.5300 H   0  0  0  0  0  0  0  0  0  0  0  0
  1  2  1  0  0  0  0
  1 28  1  0  0  0  0
  1 29  1  0  0  0  0
  1 30  1  0  0  0  0
  2  3  1  0  0  0  0
  3  4  2  0  0  0  0
  3  8  1  0  0  0  0
  4  5  1  0  0  0  0
  4 31  1  0  0  0  0
  5  6  2  0  0  0  0
  5 32  1  0  0  0  0
  6  7  1  0  0  0  0
  6 13  1  0  0  0  0
  7  8  2  0  0  0  0
  7 33  1  0  0  0  0
  8  9  1  0  0  0  0
  9 10  1  0  0  0  0
  9 34  1  0  0  0  0
 10 11  2  0  0  0  0
 10 12  1  0  0  0  0
 12 35  1  0  0  0  0
 12 36  1  0  0  0  0
 13 14  1  0  0  0  0
 13 37  1  0  0  0  0
 14 15  2  0  0  0  0
 14 16  2  0  0  0  0
 14 17  1  0  0  0  0
 17 18  2  0  0  0  0
 17 22  1  0  0  0  0
 18 19  1  0  0  0  0
 18 27  1  0  0  0  0
 19 20  2  0  0  0  0
 19 26  1  0  0  0  0
 20 21  1  0  0  0  0
 20 25  1  0  0  0  0
 21 22  2  0  0  0  0
 21 24  1  0  0  0  0
 22 23  1  0  0  0  0
M  END
>  <DRUGBANK_ID>
DB12068

>  <COMMON_NAME>
T-900607

>  <CAS_NUMBER>
261944-52-9

>  <UNII>
IC9O2HT1X1

$$$$
