
 OpenBabel10282417123D

 50 50  0  0  0  0  0  0  0  0999 V2000
    0.8905   -0.0569    0.0080 C   0  0  0  0  0  0  0  0  0  0  0  0
    0.4412   -1.3920   -0.5191 C   0  0  0  0  0  0  0  0  0  0  0  0
   -0.4004   -2.1887    0.3715 C   0  0  0  0  0  0  0  0  0  0  0  0
   -0.8896   -3.3927    0.0484 C   0  0  0  0  0  0  0  0  0  0  0  0
   -1.7450   -4.2045    0.8716 C   0  0  0  0  0  0  0  0  0  0  0  0
   -2.2518   -5.4007    0.5071 C   0  0  0  0  0  0  0  0  0  0  0  0
   -1.9444   -6.0834   -0.8165 C   0  0  0  0  0  0  0  0  0  0  0  0
   -3.1535   -6.1560    1.3803 C   0  0  0  0  0  0  0  0  0  0  0  0
   -3.4834   -5.8581    2.6525 C   0  0  0  0  0  0  0  0  0  0  0  0
   -4.2822   -6.6981    3.5466 C   0  0  0  0  0  0  0  0  0  0  0  0
   -4.0015   -8.0166    3.6873 C   0  0  0  0  0  0  0  0  0  0  0  0
   -2.8698   -8.7763    3.0363 C   0  0  0  0  0  0  0  0  0  0  0  0
   -4.8111   -8.8632    4.6152 C   0  0  0  0  0  0  0  0  0  0  0  0
   -4.4950  -10.0455    4.8014 O   0  0  0  0  0  0  0  0  0  0  0  0
   -5.9753   -8.2726    5.3625 C   0  0  0  0  0  0  0  0  0  0  0  0
   -6.4763   -6.9575    4.7902 C   0  0  0  0  0  0  0  0  0  0  0  0
   -5.3437   -5.9756    4.4132 C   0  0  0  0  0  0  0  0  0  0  0  0
   -4.6865   -5.4382    5.7065 C   0  0  0  0  0  0  0  0  0  0  0  0
   -6.0054   -4.7623    3.7124 C   0  0  0  0  0  0  0  0  0  0  0  0
    0.8128   -1.7923   -1.7542 C   0  0  0  0  0  0  0  0  0  0  0  0
    1.6565   -1.0219   -2.7116 C   0  0  0  0  0  0  0  0  0  0  0  0
    2.8103   -1.7925   -3.0009 O   0  0  0  0  0  0  0  0  0  0  0  0
    0.5281    0.1552    1.0171 H   0  0  0  0  0  0  0  0  0  0  0  0
    0.5273    0.7435   -0.6467 H   0  0  0  0  0  0  0  0  0  0  0  0
    1.9853   -0.0197    0.0370 H   0  0  0  0  0  0  0  0  0  0  0  0
   -0.6430   -1.7626    1.3439 H   0  0  0  0  0  0  0  0  0  0  0  0
   -0.6474   -3.7990   -0.9191 H   0  0  0  0  0  0  0  0  0  0  0  0
   -1.9797   -3.7757    1.8408 H   0  0  0  0  0  0  0  0  0  0  0  0
   -1.4163   -7.0305   -0.6582 H   0  0  0  0  0  0  0  0  0  0  0  0
   -2.8626   -6.2736   -1.3804 H   0  0  0  0  0  0  0  0  0  0  0  0
   -1.3053   -5.5028   -1.4851 H   0  0  0  0  0  0  0  0  0  0  0  0
   -3.5263   -7.0848    0.9448 H   0  0  0  0  0  0  0  0  0  0  0  0
   -3.1343   -4.9393    3.1128 H   0  0  0  0  0  0  0  0  0  0  0  0
   -2.2129   -9.2073    3.7984 H   0  0  0  0  0  0  0  0  0  0  0  0
   -3.2674   -9.5780    2.4060 H   0  0  0  0  0  0  0  0  0  0  0  0
   -2.2111   -8.1722    2.4121 H   0  0  0  0  0  0  0  0  0  0  0  0
   -5.6670   -8.1481    6.4056 H   0  0  0  0  0  0  0  0  0  0  0  0
   -6.7929   -9.0029    5.3385 H   0  0  0  0  0  0  0  0  0  0  0  0
   -7.1489   -6.4967    5.5274 H   0  0  0  0  0  0  0  0  0  0  0  0
   -7.0959   -7.1666    3.9077 H   0  0  0  0  0  0  0  0  0  0  0  0
   -5.4097   -4.8675    6.3033 H   0  0  0  0  0  0  0  0  0  0  0  0
   -4.3042   -6.2417    6.3438 H   0  0  0  0  0  0  0  0  0  0  0  0
   -3.8505   -4.7669    5.4826 H   0  0  0  0  0  0  0  0  0  0  0  0
   -6.5509   -5.0596    2.8109 H   0  0  0  0  0  0  0  0  0  0  0  0
   -6.7204   -4.2678    4.3833 H   0  0  0  0  0  0  0  0  0  0  0  0
   -5.2715   -3.9992    3.4310 H   0  0  0  0  0  0  0  0  0  0  0  0
    0.4969   -2.7478   -2.1635 H   0  0  0  0  0  0  0  0  0  0  0  0
    1.1012   -0.8531   -3.6380 H   0  0  0  0  0  0  0  0  0  0  0  0
    1.9780   -0.0526   -2.3268 H   0  0  0  0  0  0  0  0  0  0  0  0
    3.2581   -1.9499   -2.1515 H   0  0  0  0  0  0  0  0  0  0  0  0
  1  2  1  0  0  0  0
  1 23  1  0  0  0  0
  1 24  1  0  0  0  0
  1 25  1  0  0  0  0
  2  3  1  0  0  0  0
  2 20  2  0  0  0  0
  3  4  2  0  0  0  0
  3 26  1  0  0  0  0
  4  5  1  0  0  0  0
  4 27  1  0  0  0  0
  5  6  2  0  0  0  0
  5 28  1  0  0  0  0
  6  7  1  0  0  0  0
  6  8  1  0  0  0  0
  7 29  1  0  0  0  0
  7 30  1  0  0  0  0
  7 31  1  0  0  0  0
  8  9  2  0  0  0  0
  8 32  1  0  0  0  0
  9 10  1  0  0  0  0
  9 33  1  0  0  0  0
 10 11  2  0  0  0  0
 10 17  1  0  0  0  0
 11 12  1  0  0  0  0
 11 13  1  0  0  0  0
 12 34  1  0  0  0  0
 12 35  1  0  0  0  0
 12 36  1  0  0  0  0
 13 14  2  0  0  0  0
 13 15  1  0  0  0  0
 15 16  1  0  0  0  0
 15 37  1  0  0  0  0
 15 38  1  0  0  0  0
 16 17  1  0  0  0  0
 16 39  1  0  0  0  0
 16 40  1  0  0  0  0
 17 18  1  0  0  0  0
 17 19  1  0  0  0  0
 18 41  1  0  0  0  0
 18 42  1  0  0  0  0
 18 43  1  0  0  0  0
 19 44  1  0  0  0  0
 19 45  1  0  0  0  0
 19 46  1  0  0  0  0
 20 21  1  0  0  0  0
 20 47  1  0  0  0  0
 21 22  1  0  0  0  0
 21 48  1  0  0  0  0
 21 49  1  0  0  0  0
 22 50  1  0  0  0  0
M  END
>  <DRUGBANK_ID>
DB02699

>  <SECONDARY_ACCESSION_NUMBERS>
EXPT02464

>  <COMMON_NAME>
4-Oxoretinol

>  <CAS_NUMBER>
62702-55-0

>  <UNII>
6FFM6M3NPT

$$$$
