
 OpenBabel10282417143D

 33 33  0  0  1  0  0  0  0  0999 V2000
    0.1060   -2.1060    0.3470 O   0  0  0  0  0  0  0  0  0  0  0  0
    0.0300   -0.7940   -0.1950 C   0  0  2  0  0  0  0  0  0  0  0  0
    1.2410   -0.0130    0.2510 C   0  0  1  0  0  0  0  0  0  0  0  0
    2.4200   -0.5880   -0.3070 O   0  0  0  0  0  0  0  0  0  0  0  0
    1.1210    1.4260   -0.1770 C   0  0  2  0  0  0  0  0  0  0  0  0
    2.3066    2.1937    0.3846 C   0  0  0  0  0  0  0  0  0  0  0  0
    3.5126    1.6293   -0.1088 O   0  0  0  0  0  0  0  0  0  0  0  0
    3.6428   -0.4682    0.5076 V   0  0  0  0  0  0  0  0  0  0  0  0
    3.6212   -0.5892    2.6941 O   0  0  0  0  0  0  0  0  0  0  0  0
    2.1139   -1.4581   -0.2167 O   0  0  0  0  0  0  0  0  0  0  0  0
    5.3074   -1.2472   -0.1735 O   0  0  0  0  0  0  0  0  0  0  0  0
   -0.0700    2.0150    0.3210 O   0  0  0  0  0  0  0  0  0  0  0  0
   -1.2310    1.3770   -0.2060 C   0  0  2  0  0  0  0  0  0  0  0  0
   -2.3935    2.0192    0.2966 O   0  0  0  0  0  0  0  0  0  0  0  0
   -2.4104    1.9124    2.0232 P   0  0  0  0  0  0  0  0  0  0  0  0
   -1.0563    2.9862    2.1029 O   0  0  0  0  0  0  0  0  0  0  0  0
   -4.0198    2.5467    2.0466 O   0  0  0  0  0  0  0  0  0  0  0  0
   -2.4256    1.8169    3.5685 O   0  0  0  0  0  0  0  0  0  0  0  0
   -1.2390   -0.0840    0.2110 C   0  0  1  0  0  0  0  0  0  0  0  0
   -2.3970   -0.7560   -0.2730 O   0  0  0  0  0  0  0  0  0  0  0  0
    0.9587   -2.5387    0.0544 H   0  0  0  0  0  0  0  0  0  0  0  0
    0.0122   -0.8675   -1.2623 H   0  0  0  0  0  0  0  0  0  0  0  0
    1.3019   -0.0507    1.3186 H   0  0  0  0  0  0  0  0  0  0  0  0
    2.3669   -0.5546   -1.3050 H   0  0  0  0  0  0  0  0  0  0  0  0
    1.1119    1.4720   -1.2460 H   0  0  0  0  0  0  0  0  0  0  0  0
    2.2430    3.2184    0.0835 H   0  0  0  0  0  0  0  0  0  0  0  0
    2.2961    2.1345    1.4529 H   0  0  0  0  0  0  0  0  0  0  0  0
    4.4012   -0.0841    3.0636 H   0  0  0  0  0  0  0  0  0  0  0  0
   -1.2206    1.4431   -1.2739 H   0  0  0  0  0  0  0  0  0  0  0  0
   -0.2087    2.4561    2.0784 H   0  0  0  0  0  0  0  0  0  0  0  0
   -4.3207    2.7271    1.1102 H   0  0  0  0  0  0  0  0  0  0  0  0
   -1.2782   -0.1073    1.2800 H   0  0  0  0  0  0  0  0  0  0  0  0
   -2.3911   -0.7521   -1.2730 H   0  0  0  0  0  0  0  0  0  0  0  0
  1 21  1  0  0  0  0
  2  1  1  0  0  0  0
  2  3  1  0  0  0  0
  2 19  1  0  0  0  0
  2 22  1  6  0  0  0
  3  4  1  0  0  0  0
  3  5  1  0  0  0  0
  3 23  1  1  0  0  0
  4 24  1  0  0  0  0
  5  6  1  0  0  0  0
  5 12  1  0  0  0  0
  5 25  1  6  0  0  0
  6  7  1  0  0  0  0
  6 26  1  0  0  0  0
  6 27  1  0  0  0  0
  7  8  1  0  0  0  0
  8  9  1  0  0  0  0
  8 10  2  0  0  0  0
  8 11  2  0  0  0  0
  9 28  1  0  0  0  0
 12 13  1  0  0  0  0
 13 14  1  0  0  0  0
 13 19  1  0  0  0  0
 13 29  1  6  0  0  0
 14 15  1  0  0  0  0
 15 16  1  0  0  0  0
 15 17  1  0  0  0  0
 15 18  2  0  0  0  0
 16 30  1  0  0  0  0
 17 31  1  0  0  0  0
 19 20  1  0  0  0  0
 19 32  1  1  0  0  0
 20 33  1  0  0  0  0
M  END
>  <DRUGBANK_ID>
DB04397

>  <SECONDARY_ACCESSION_NUMBERS>
EXPT03221

>  <COMMON_NAME>
Alpha-D-Glucose-1-Phosphate-6-Vanadate

$$$$
