718
 OpenBabel10282417103D

 66 67  0  0  0  0  0  0  0  0999 V2000
    0.9101    0.0133   -0.0417 P   0  0  0  0  0  0  0  0  0  0  0  0
    3.1961    1.3329   -0.4610 O   0  0  0  0  0  0  0  0  0  0  0  0
   -0.8751   -1.8644   -3.1629 O   0  0  0  0  0  0  0  0  0  0  0  0
    3.0170   -0.7061    2.5546 O   0  0  0  0  0  0  0  0  0  0  0  0
    1.0507   -1.7045   -0.6291 O   0  0  0  0  0  0  0  0  0  0  0  0
    0.9999    0.0760    1.6193 O   0  0  0  0  0  0  0  0  0  0  0  0
   -2.2860   -3.1296   -1.9821 O   0  0  0  0  0  0  0  0  0  0  0  0
    1.2533   -1.8624    3.3684 O   0  0  0  0  0  0  0  0  0  0  0  0
   -0.6383    0.0133   -0.0417 O   0  0  0  0  0  0  0  0  0  0  0  0
    2.9409   -0.6721   -2.7623 N   0  0  0  0  0  0  0  0  0  0  0  0
    3.3870   -2.9670   -2.3638 N   0  0  0  0  0  0  0  0  0  0  0  0
    0.1525   -0.5897   -1.8885 N   0  0  0  0  0  0  0  0  0  0  0  0
   -0.2938   -3.1241   -0.2582 N   0  0  0  0  0  0  0  0  0  0  0  0
    0.8995   -5.0407   -0.7023 N   0  0  0  0  0  0  0  0  0  0  0  0
   -2.9938   -0.9412   -2.7777 C   0  0  0  0  0  0  0  0  0  0  0  0
    3.1901   -3.1274    2.5476 C   0  0  0  0  0  0  0  0  0  0  0  0
   -2.7908    0.5047   -2.2537 C   0  0  0  0  0  0  0  0  0  0  0  0
   -2.9628   -0.9516   -4.2941 C   0  0  0  0  0  0  0  0  0  0  0  0
   -4.2293   -1.5281   -2.1145 C   0  0  0  0  0  0  0  0  0  0  0  0
    3.2781   -3.5252    1.0968 C   0  0  0  0  0  0  0  0  0  0  0  0
    4.6275   -3.0027    2.9886 C   0  0  0  0  0  0  0  0  0  0  0  0
    2.4591   -4.2635    3.2720 C   0  0  0  0  0  0  0  0  0  0  0  0
   -2.0542   -2.0964   -2.5981 C   0  0  0  0  0  0  0  0  0  0  0  0
    2.3663   -1.8558    2.8573 C   0  0  0  0  0  0  0  0  0  0  0  0
    3.3328    0.7290   -2.8562 C   0  0  0  0  0  0  0  0  0  0  0  0
    2.7672    1.6787   -1.7718 C   0  0  0  0  0  0  0  0  0  0  0  0
    2.7401    0.0133   -0.0417 C   0  0  0  0  0  0  0  0  0  0  0  0
    1.7934   -1.1093   -2.2088 C   0  0  0  0  0  0  0  0  0  0  0  0
    0.2564   -2.4390   -2.4193 C   0  0  0  0  0  0  0  0  0  0  0  0
    2.1486    0.4427    2.3844 C   0  0  0  0  0  0  0  0  0  0  0  0
    2.2517   -2.7213   -1.6885 C   0  0  0  0  0  0  0  0  0  0  0  0
    3.7362   -1.8128   -2.9342 C   0  0  0  0  0  0  0  0  0  0  0  0
    1.0721   -3.6959   -0.7502 C   0  0  0  0  0  0  0  0  0  0  0  0
   -0.7501   -1.7983   -0.7615 C   0  0  0  0  0  0  0  0  0  0  0  0
    1.4859   -5.6211   -1.2493 H   0  0  0  0  0  0  0  0  0  0  0  0
   -0.0113   -5.2547   -0.2768 H   0  0  0  0  0  0  0  0  0  0  0  0
   -1.8861    1.0063   -2.6205 H   0  0  0  0  0  0  0  0  0  0  0  0
   -3.6390    1.1215   -2.5902 H   0  0  0  0  0  0  0  0  0  0  0  0
   -2.7890    0.5963   -1.1590 H   0  0  0  0  0  0  0  0  0  0  0  0
   -2.9164   -1.9952   -4.6424 H   0  0  0  0  0  0  0  0  0  0  0  0
   -3.8239   -0.4602   -4.7150 H   0  0  0  0  0  0  0  0  0  0  0  0
   -2.0376   -0.4711   -4.6587 H   0  0  0  0  0  0  0  0  0  0  0  0
   -4.3229   -2.5935   -2.3600 H   0  0  0  0  0  0  0  0  0  0  0  0
   -4.1320   -1.4754   -1.0163 H   0  0  0  0  0  0  0  0  0  0  0  0
   -5.1311   -1.0370   -2.4468 H   0  0  0  0  0  0  0  0  0  0  0  0
    3.7262   -2.7690    0.4499 H   0  0  0  0  0  0  0  0  0  0  0  0
    3.7716   -4.4865    0.8937 H   0  0  0  0  0  0  0  0  0  0  0  0
    2.2585   -3.6913    0.8573 H   0  0  0  0  0  0  0  0  0  0  0  0
    4.6719   -2.7194    4.0364 H   0  0  0  0  0  0  0  0  0  0  0  0
    5.1498   -3.9546    2.8382 H   0  0  0  0  0  0  0  0  0  0  0  0
    5.1492   -2.2463    2.3879 H   0  0  0  0  0  0  0  0  0  0  0  0
    2.4089   -4.0404    4.3390 H   0  0  0  0  0  0  0  0  0  0  0  0
    1.4250   -4.3662    2.9057 H   0  0  0  0  0  0  0  0  0  0  0  0
    2.9552   -5.2251    3.1234 H   0  0  0  0  0  0  0  0  0  0  0  0
    2.9784    1.0611   -3.8296 H   0  0  0  0  0  0  0  0  0  0  0  0
    4.4275    0.7623   -2.7953 H   0  0  0  0  0  0  0  0  0  0  0  0
    1.6762    1.7508   -1.7785 H   0  0  0  0  0  0  0  0  0  0  0  0
    3.1289    2.7012   -1.9442 H   0  0  0  0  0  0  0  0  0  0  0  0
    3.4088   -0.1569    0.7740 H   0  0  0  0  0  0  0  0  0  0  0  0
    3.3065   -0.7183   -0.5995 H   0  0  0  0  0  0  0  0  0  0  0  0
    0.9221   -2.2295   -3.2995 H   0  0  0  0  0  0  0  0  0  0  0  0
    0.3199   -3.5136   -2.5492 H   0  0  0  0  0  0  0  0  0  0  0  0
    2.6981    1.2730    1.8955 H   0  0  0  0  0  0  0  0  0  0  0  0
    1.9425    0.8672    3.3674 H   0  0  0  0  0  0  0  0  0  0  0  0
    4.6203   -1.7570   -3.5414 H   0  0  0  0  0  0  0  0  0  0  0  0
   -1.6547   -1.4969   -0.1968 H   0  0  0  0  0  0  0  0  0  0  0  0
  1  5  1  0  0  0  0
  1  6  1  0  0  0  0
  1  9  2  0  0  0  0
  1 27  1  0  0  0  0
  2 26  1  0  0  0  0
  2 27  1  0  0  0  0
  3 23  1  0  0  0  0
  3 29  1  0  0  0  0
  4 24  1  0  0  0  0
  4 30  1  0  0  0  0
  5 29  1  0  0  0  0
  6 30  1  0  0  0  0
  7 23  2  0  0  0  0
  8 24  2  0  0  0  0
 10 25  1  0  0  0  0
 10 28  1  0  0  0  0
 10 32  1  0  0  0  0
 11 31  1  0  0  0  0
 11 32  2  0  0  0  0
 12 28  2  0  0  0  0
 12 34  1  0  0  0  0
 13 33  1  0  0  0  0
 13 34  2  0  0  0  0
 14 33  1  0  0  0  0
 14 35  1  0  0  0  0
 14 36  1  0  0  0  0
 15 17  1  0  0  0  0
 15 18  1  0  0  0  0
 15 19  1  0  0  0  0
 15 23  1  0  0  0  0
 16 20  1  0  0  0  0
 16 21  1  0  0  0  0
 16 22  1  0  0  0  0
 16 24  1  0  0  0  0
 17 37  1  0  0  0  0
 17 38  1  0  0  0  0
 17 39  1  0  0  0  0
 18 40  1  0  0  0  0
 18 41  1  0  0  0  0
 18 42  1  0  0  0  0
 19 43  1  0  0  0  0
 19 44  1  0  0  0  0
 19 45  1  0  0  0  0
 20 46  1  0  0  0  0
 20 47  1  0  0  0  0
 20 48  1  0  0  0  0
 21 49  1  0  0  0  0
 21 50  1  0  0  0  0
 21 51  1  0  0  0  0
 22 52  1  0  0  0  0
 22 53  1  0  0  0  0
 22 54  1  0  0  0  0
 25 26  1  0  0  0  0
 25 55  1  0  0  0  0
 25 56  1  0  0  0  0
 26 57  1  0  0  0  0
 26 58  1  0  0  0  0
 27 59  1  0  0  0  0
 27 60  1  0  0  0  0
 28 31  1  0  0  0  0
 29 61  1  0  0  0  0
 29 62  1  0  0  0  0
 30 63  1  0  0  0  0
 30 64  1  0  0  0  0
 31 33  2  0  0  0  0
 32 65  1  0  0  0  0
 34 66  1  0  0  0  0
M  END
>  <DRUGBANK_ID>
DB00718

>  <SECONDARY_ACCESSION_NUMBERS>
APRD00781

>  <COMMON_NAME>
Adefovir dipivoxil

>  <CAS_NUMBER>
142340-99-6

>  <UNII>
U6Q8Z01514

>  <SYNONYMS>
Adefovir di(pivaloyloxymethyl) ester; Adefovir dipivoxil; Adefovir pivoxil; bis-POM PMEA

$$$$
