
 OpenBabel10282417133D

 35 34  0  0  0  0  0  0  0  0999 V2000
    1.0282   -0.0549    0.0757 C   0  0  2  0  0  0  0  0  0  0  0  0
    0.8285    1.4156   -0.2471 C   0  0  0  0  0  0  0  0  0  0  0  0
    0.3854   -0.9259   -0.8920 N   0  0  0  0  0  0  0  0  0  0  0  0
    0.5012   -0.4623    1.4746 C   0  0  0  0  0  0  0  0  0  0  0  0
    1.1691    1.7904   -1.7396 C   0  0  0  0  0  0  0  0  0  0  0  0
   -1.0490   -0.7044   -1.0697 C   0  0  0  0  0  0  0  0  0  0  0  0
    1.4617   -0.8900    2.3238 O   0  0  0  0  0  0  0  0  0  0  0  0
   -0.6793   -0.4606    1.8027 O   0  0  0  0  0  0  0  0  0  0  0  0
    0.6689    0.9901   -3.1714 C   0  0  0  0  0  0  0  0  0  0  0  0
   -1.8124    0.6847   -0.9660 C   0  0  0  0  0  0  0  0  0  0  0  0
   -0.7981    0.6814   -3.6357 N   0  0  0  0  0  0  0  0  0  0  0  0
   -1.8087    2.0554   -1.7212 C   0  0  0  0  0  0  0  0  0  0  0  0
   -1.5474    1.3319   -4.5860 C   0  0  0  0  0  0  0  0  0  0  0  0
   -3.0662    2.3151   -2.0880 O   0  0  0  0  0  0  0  0  0  0  0  0
   -0.9728    2.8308   -2.2069 O   0  0  0  0  0  0  0  0  0  0  0  0
   -2.9190    1.3484   -4.4440 N   0  0  0  0  0  0  0  0  0  0  0  0
   -1.0140    2.0659   -5.4921 N   0  0  0  0  0  0  0  0  0  0  0  0
    2.1097   -0.2338    0.0399 H   0  0  0  0  0  0  0  0  0  0  0  0
   -0.1426    1.7909    0.0722 H   0  0  0  0  0  0  0  0  0  0  0  0
    1.4344    2.0115    0.4581 H   0  0  0  0  0  0  0  0  0  0  0  0
    0.9079   -1.0384   -1.7525 H   0  0  0  0  0  0  0  0  0  0  0  0
    0.9922    2.8745   -1.8010 H   0  0  0  0  0  0  0  0  0  0  0  0
    2.2685    1.7914   -1.7608 H   0  0  0  0  0  0  0  0  0  0  0  0
   -1.3377   -1.2932   -1.9514 H   0  0  0  0  0  0  0  0  0  0  0  0
   -1.5176   -1.3184   -0.2913 H   0  0  0  0  0  0  0  0  0  0  0  0
    2.3580   -0.8899    1.9445 H   0  0  0  0  0  0  0  0  0  0  0  0
    1.1374    1.5609   -3.9766 H   0  0  0  0  0  0  0  0  0  0  0  0
    1.2105    0.0383   -3.1873 H   0  0  0  0  0  0  0  0  0  0  0  0
   -2.8139    0.3388   -1.2360 H   0  0  0  0  0  0  0  0  0  0  0  0
   -1.8804    0.9743    0.0794 H   0  0  0  0  0  0  0  0  0  0  0  0
   -1.3210   -0.0257   -3.1588 H   0  0  0  0  0  0  0  0  0  0  0  0
   -2.8282    2.3023   -3.0443 H   0  0  0  0  0  0  0  0  0  0  0  0
   -3.4573    1.9743   -5.0448 H   0  0  0  0  0  0  0  0  0  0  0  0
   -3.5369    0.8636   -3.7840 H   0  0  0  0  0  0  0  0  0  0  0  0
   -1.7367    2.5733   -5.9995 H   0  0  0  0  0  0  0  0  0  0  0  0
  1  2  1  0  0  0  0
  1  3  1  0  0  0  0
  1  4  1  0  0  0  0
  1 18  1  6  0  0  0
  2  5  1  0  0  0  0
  2 19  1  0  0  0  0
  2 20  1  0  0  0  0
  3  6  1  0  0  0  0
  3 21  1  0  0  0  0
  4  7  1  0  0  0  0
  4  8  2  0  0  0  0
  5  9  1  0  0  0  0
  5 22  1  0  0  0  0
  5 23  1  0  0  0  0
  6 10  1  0  0  0  0
  6 24  1  0  0  0  0
  6 25  1  0  0  0  0
  7 26  1  0  0  0  0
  9 11  1  0  0  0  0
  9 27  1  0  0  0  0
  9 28  1  0  0  0  0
 10 12  1  0  0  0  0
 10 29  1  0  0  0  0
 10 30  1  0  0  0  0
 11 13  1  0  0  0  0
 11 31  1  0  0  0  0
 12 14  1  0  0  0  0
 12 15  2  0  0  0  0
 13 16  1  0  0  0  0
 13 17  2  0  0  0  0
 14 32  1  0  0  0  0
 16 33  1  0  0  0  0
 16 34  1  0  0  0  0
 17 35  1  0  0  0  0
M  END
>  <DRUGBANK_ID>
DB04189

>  <SECONDARY_ACCESSION_NUMBERS>
EXPT00953

>  <COMMON_NAME>
N(2)-(2-carboxyethyl)-L-arginine

>  <SYNONYMS>
L-N2-(2-Carboxyethyl)arginine; N2-(2-Carboxyethyl)-L-arginine; N2-(2-carboxyethyl)arginine; N2-(carboxyethyl)-L-arginine

$$$$
