
 OpenBabel10282417153D

400402  0  0  0  0  0  0  0  0999 V2000
  -13.7259   -1.0975  -12.5877 C   0  0  0  0  0  0  0  0  0  0  0  0
  -12.2427   -3.0072  -13.7867 C   0  0  0  0  0  0  0  0  0  0  0  0
  -14.8680   -7.1615   -8.3937 C   0  0  0  0  0  0  0  0  0  0  0  0
  -14.6540   -9.2038   -9.4365 C   0  0  0  0  0  0  0  0  0  0  0  0
  -13.0058   -6.8318  -15.5875 C   0  0  0  0  0  0  0  0  0  0  0  0
  -13.2593   -8.2954  -15.0396 C   0  0  0  0  0  0  0  0  0  0  0  0
  -13.6147   -5.6585  -15.4475 C   0  0  0  0  0  0  0  0  0  0  0  0
  -11.3157    1.4357   -6.3994 C   0  0  0  0  0  0  0  0  0  0  0  0
  -12.8700    4.2029   -2.7162 C   0  0  0  0  0  0  0  0  0  0  0  0
  -12.6500    1.1764   -7.1899 C   0  0  0  0  0  0  0  0  0  0  0  0
  -11.4581    4.6045   -3.3049 C   0  0  0  0  0  0  0  0  0  0  0  0
  -14.4290   -1.3507   -3.9231 C   0  0  0  0  0  0  0  0  0  0  0  0
  -15.9057    5.6689   -6.2470 C   0  0  0  0  0  0  0  0  0  0  0  0
  -16.9471   13.0496   -8.0655 C   0  0  0  0  0  0  0  0  0  0  0  0
  -12.3870    9.0274   -6.6351 C   0  0  0  0  0  0  0  0  0  0  0  0
  -13.8873   16.5850   -6.6075 C   0  0  0  0  0  0  0  0  0  0  0  0
  -18.1704   18.4862   -5.2107 C   0  0  0  0  0  0  0  0  0  0  0  0
  -14.2686   -8.6911  -14.1297 C   0  0  0  0  0  0  0  0  0  0  0  0
  -14.2237   -5.9740  -14.3947 C   0  0  0  0  0  0  0  0  0  0  0  0
  -11.3039    2.7290   -5.7461 C   0  0  0  0  0  0  0  0  0  0  0  0
  -13.9169    5.1083   -3.1324 C   0  0  0  0  0  0  0  0  0  0  0  0
  -14.1722   -0.2582   -4.8996 C   0  0  0  0  0  0  0  0  0  0  0  0
  -15.4297    6.8854   -6.8588 C   0  0  0  0  0  0  0  0  0  0  0  0
  -16.3596   14.3475   -8.3084 C   0  0  0  0  0  0  0  0  0  0  0  0
  -12.7609   10.2186   -5.9297 C   0  0  0  0  0  0  0  0  0  0  0  0
  -14.6307   17.6924   -6.0386 C   0  0  0  0  0  0  0  0  0  0  0  0
  -18.6595   19.4605   -6.2395 C   0  0  0  0  0  0  0  0  0  0  0  0
  -17.9629   -2.9589   -5.4723 C   0  0  0  0  0  0  0  0  0  0  0  0
  -16.2780   -3.1256   -6.4176 C   0  0  0  0  0  0  0  0  0  0  0  0
  -22.2588   -4.7408  -12.9890 C   0  0  0  0  0  0  0  0  0  0  0  0
  -21.3962   -4.2388  -10.7221 C   0  0  0  0  0  0  0  0  0  0  0  0
  -18.6693   -4.2651   -5.4994 C   0  0  0  0  0  0  0  0  0  0  0  0
  -16.9143   -4.8537   -6.2686 C   0  0  0  0  0  0  0  0  0  0  0  0
  -22.5471   -3.4621  -13.1241 C   0  0  0  0  0  0  0  0  0  0  0  0
  -21.6511   -2.9815  -10.8353 C   0  0  0  0  0  0  0  0  0  0  0  0
  -16.3917   12.2391   -4.4368 C   0  0  0  0  0  0  0  0  0  0  0  0
  -16.3952   -5.1491  -15.1098 C   0  0  0  0  0  0  0  0  0  0  0  0
  -15.4967   11.3764   -3.6942 C   0  0  0  0  0  0  0  0  0  0  0  0
  -16.3660   -3.9201  -14.5644 C   0  0  0  0  0  0  0  0  0  0  0  0
  -12.9515    2.2340   -8.1619 C   0  0  0  0  0  0  0  0  0  0  0  0
  -11.0899    5.9890   -2.9973 C   0  0  0  0  0  0  0  0  0  0  0  0
  -14.2165   -1.1143   -2.5541 C   0  0  0  0  0  0  0  0  0  0  0  0
  -16.4035    5.8867   -4.8098 C   0  0  0  0  0  0  0  0  0  0  0  0
  -18.0223   13.0866   -6.9648 C   0  0  0  0  0  0  0  0  0  0  0  0
  -13.2344    8.8153   -7.8880 C   0  0  0  0  0  0  0  0  0  0  0  0
  -14.0987   16.4576   -8.1242 C   0  0  0  0  0  0  0  0  0  0  0  0
  -16.9292   18.9503   -4.4234 C   0  0  0  0  0  0  0  0  0  0  0  0
  -14.2073   -2.7933  -12.4377 C   0  0  0  0  0  0  0  0  0  0  0  0
  -16.8501   -8.6843   -8.2686 C   0  0  0  0  0  0  0  0  0  0  0  0
  -16.1171   -7.3596  -12.7356 C   0  0  0  0  0  0  0  0  0  0  0  0
  -15.6956   -1.5851   -5.9239 C   0  0  0  0  0  0  0  0  0  0  0  0
  -19.5643   -6.4025  -12.3541 C   0  0  0  0  0  0  0  0  0  0  0  0
  -20.4557   -4.5564  -13.9860 C   0  0  0  0  0  0  0  0  0  0  0  0
  -11.8156   -2.2853   -3.4878 C   0  0  0  0  0  0  0  0  0  0  0  0
  -18.6329   -5.0105  -13.3142 C   0  0  0  0  0  0  0  0  0  0  0  0
  -17.8222   -3.7771  -10.0347 C   0  0  0  0  0  0  0  0  0  0  0  0
  -12.9035   -5.1750   -9.2455 C   0  0  0  0  0  0  0  0  0  0  0  0
  -22.2571   -8.3261  -12.7983 C   0  0  0  0  0  0  0  0  0  0  0  0
  -16.6726   -3.7593   -8.0168 C   0  0  0  0  0  0  0  0  0  0  0  0
  -13.0254   -5.2423  -11.8912 C   0  0  0  0  0  0  0  0  0  0  0  0
  -13.5037   -2.1901  -13.5849 C   0  0  0  0  0  0  0  0  0  0  0  0
  -15.6552   -8.2303   -8.9467 C   0  0  0  0  0  0  0  0  0  0  0  0
  -14.9162   -7.4374  -13.8126 C   0  0  0  0  0  0  0  0  0  0  0  0
  -17.0163   -2.1930   -6.1504 C   0  0  0  0  0  0  0  0  0  0  0  0
  -21.1368   -4.8479  -12.0820 C   0  0  0  0  0  0  0  0  0  0  0  0
  -18.2304   -5.2804   -6.1083 C   0  0  0  0  0  0  0  0  0  0  0  0
  -22.2142   -2.6429  -12.0445 C   0  0  0  0  0  0  0  0  0  0  0  0
  -14.9545   -4.4453   -6.9297 C   0  0  1  0  0  0  0  0  0  0  0  0
  -13.2394   -6.7638  -11.6415 C   0  0  1  0  0  0  0  0  0  0  0  0
  -12.7581    0.0673   -4.6896 C   0  0  1  0  0  0  0  0  0  0  0  0
  -12.5327    2.7184   -4.8888 C   0  0  1  0  0  0  0  0  0  0  0  0
  -13.8355    5.0824   -4.6235 C   0  0  1  0  0  0  0  0  0  0  0  0
  -14.3998    7.4034   -5.9059 C   0  0  1  0  0  0  0  0  0  0  0  0
  -15.8929   14.8128   -6.9653 C   0  0  1  0  0  0  0  0  0  0  0  0
  -14.2302   10.1053   -5.6625 C   0  0  1  0  0  0  0  0  0  0  0  0
  -16.0652   17.5004   -6.4807 C   0  0  1  0  0  0  0  0  0  0  0  0
  -15.7426   12.3588   -5.7675 C   0  0  1  0  0  0  0  0  0  0  0  0
  -16.5432   -6.0791  -13.9235 C   0  0  1  0  0  0  0  0  0  0  0  0
  -17.6153   19.9198   -7.3155 C   0  0  1  0  0  0  0  0  0  0  0  0
  -16.3129   -2.7265  -11.8976 C   0  0  1  0  0  0  0  0  0  0  0  0
  -13.9498   -2.4743   -5.9400 C   0  0  1  0  0  0  0  0  0  0  0  0
  -17.4282   -5.4023  -12.1262 C   0  0  1  0  0  0  0  0  0  0  0  0
  -19.1847   -6.8560  -14.3876 C   0  0  1  0  0  0  0  0  0  0  0  0
  -20.9682   -6.4025  -12.9662 C   0  0  1  0  0  0  0  0  0  0  0  0
  -17.9779   -7.9113   -7.8304 C   0  0  1  0  0  0  0  0  0  0  0  0
  -17.8066   -5.9293   -9.9459 C   0  0  1  0  0  0  0  0  0  0  0  0
  -14.1583   -4.9389   -9.9259 C   0  0  1  0  0  0  0  0  0  0  0  0
  -21.4102   -8.3873  -14.0809 C   0  0  1  0  0  0  0  0  0  0  0  0
  -13.9592   11.9172   -3.5744 C   0  0  0  0  0  0  0  0  0  0  0  0
  -19.7860   -2.9442  -13.2507 C   0  0  0  0  0  0  0  0  0  0  0  0
  -11.2202   -1.8041   -4.7206 C   0  0  0  0  0  0  0  0  0  0  0  0
  -17.9525   -6.9349  -12.7791 C   0  0  0  0  0  0  0  0  0  0  0  0
  -15.4246   -3.4225  -13.7433 C   0  0  0  0  0  0  0  0  0  0  0  0
  -13.4945   -3.7867   -7.0983 C   0  0  0  0  0  0  0  0  0  0  0  0
  -14.3153   -7.2434  -10.8398 C   0  0  0  0  0  0  0  0  0  0  0  0
  -17.5236   -2.5418  -13.4939 C   0  0  0  0  0  0  0  0  0  0  0  0
  -13.0830   -3.7178   -4.7424 C   0  0  0  0  0  0  0  0  0  0  0  0
  -12.3331    0.8475   -3.5349 C   0  0  0  0  0  0  0  0  0  0  0  0
  -13.9786    2.8979   -5.2732 C   0  0  0  0  0  0  0  0  0  0  0  0
  -12.8643    5.7280   -5.5716 C   0  0  0  0  0  0  0  0  0  0  0  0
  -14.5499    8.1048   -4.5825 C   0  0  0  0  0  0  0  0  0  0  0  0
  -16.6340   15.3464   -5.7870 C   0  0  0  0  0  0  0  0  0  0  0  0
  -15.3985   10.2549   -6.6015 C   0  0  0  0  0  0  0  0  0  0  0  0
  -16.7181   17.7828   -7.8377 C   0  0  0  0  0  0  0  0  0  0  0  0
  -14.5751   13.1516   -6.1897 C   0  0  0  0  0  0  0  0  0  0  0  0
  -15.9922   -6.0931  -11.6067 C   0  0  0  0  0  0  0  0  0  0  0  0
  -18.2419   -7.5849  -15.2874 C   0  0  0  0  0  0  0  0  0  0  0  0
  -19.0691   -5.0558  -10.9027 C   0  0  0  0  0  0  0  0  0  0  0  0
  -19.8659   -8.2524  -13.0179 C   0  0  0  0  0  0  0  0  0  0  0  0
  -19.1315   -6.9111   -9.3744 C   0  0  0  0  0  0  0  0  0  0  0  0
  -15.2298   -3.6121  -10.9397 C   0  0  0  0  0  0  0  0  0  0  0  0
  -21.2702   -7.1885  -15.0563 C   0  0  0  0  0  0  0  0  0  0  0  0
  -16.3620   20.7392   -6.8628 C   0  0  0  0  0  0  0  0  0  0  0  0
  -17.2301   -7.0148   -7.1536 C   0  0  0  0  0  0  0  0  0  0  0  0
  -15.8831   -0.4395   -1.1731 C   0  0  0  0  0  0  0  0  0  0  0  0
  -18.5424    6.4145   -4.0280 C   0  0  0  0  0  0  0  0  0  0  0  0
  -20.3214   13.4472   -7.1269 C   0  0  0  0  0  0  0  0  0  0  0  0
  -12.8577    9.5228  -10.0824 C   0  0  0  0  0  0  0  0  0  0  0  0
  -12.8809   17.4075   -9.8836 C   0  0  0  0  0  0  0  0  0  0  0  0
  -16.7743   20.1476   -2.4075 C   0  0  0  0  0  0  0  0  0  0  0  0
  -11.9056    1.9207   -9.0675 N   0  0  0  0  0  0  0  0  0  0  0  0
  -10.8808    5.7958   -1.6079 N   0  0  0  0  0  0  0  0  0  0  0  0
  -15.4195   -4.3891   -5.0622 N   0  0  0  0  0  0  0  0  0  0  0  0
  -13.0240   -7.5660  -12.6679 N   0  0  0  0  0  0  0  0  0  0  0  0
  -13.2724   12.0546   -2.5291 N   0  0  0  0  0  0  0  0  0  0  0  0
  -19.3443   -2.2721  -14.3173 N   0  0  0  0  0  0  0  0  0  0  0  0
  -16.8384    0.3413   -0.8589 N   0  0  0  0  0  0  0  0  0  0  0  0
  -15.5903   -1.5791   -0.4972 N   0  0  0  0  0  0  0  0  0  0  0  0
  -19.6038    7.1265   -4.0526 N   0  0  0  0  0  0  0  0  0  0  0  0
  -18.4897    5.2254   -3.3727 N   0  0  0  0  0  0  0  0  0  0  0  0
  -21.3268   14.1173   -7.5433 N   0  0  0  0  0  0  0  0  0  0  0  0
  -20.4539   12.1950   -6.6152 N   0  0  0  0  0  0  0  0  0  0  0  0
  -12.5815   10.4285  -10.9413 N   0  0  0  0  0  0  0  0  0  0  0  0
  -12.8090    8.2004  -10.3922 N   0  0  0  0  0  0  0  0  0  0  0  0
  -12.3402   18.4112  -10.4622 N   0  0  0  0  0  0  0  0  0  0  0  0
  -12.5982   16.1300  -10.2507 N   0  0  0  0  0  0  0  0  0  0  0  0
  -17.1121   21.1286   -1.6588 N   0  0  0  0  0  0  0  0  0  0  0  0
  -16.0843   19.0828   -1.9204 N   0  0  0  0  0  0  0  0  0  0  0  0
  -15.1071   -0.1440   -2.1974 N   0  0  0  0  0  0  0  0  0  0  0  0
  -17.4414    6.8101   -4.6693 N   0  0  0  0  0  0  0  0  0  0  0  0
  -19.0895   13.9513   -7.2015 N   0  0  0  0  0  0  0  0  0  0  0  0
  -13.1823    9.8452   -8.8298 N   0  0  0  0  0  0  0  0  0  0  0  0
  -13.7241   17.5795   -8.8648 N   0  0  0  0  0  0  0  0  0  0  0  0
  -17.1089   20.1287   -3.7001 N   0  0  0  0  0  0  0  0  0  0  0  0
  -18.2556   -3.8917  -14.1238 N   0  0  0  0  0  0  0  0  0  0  0  0
  -12.5957   -3.4856   -3.5874 N   0  0  0  0  0  0  0  0  0  0  0  0
  -11.6531   -0.7968   -5.3816 N   0  0  0  0  0  0  0  0  0  0  0  0
  -17.9027   -6.7935  -11.1769 N   0  0  0  0  0  0  0  0  0  0  0  0
  -12.2339    2.0860   -3.5935 N   0  0  0  0  0  0  0  0  0  0  0  0
  -14.6073    3.9639   -5.1285 N   0  0  0  0  0  0  0  0  0  0  0  0
  -13.1197    6.7767   -6.1950 N   0  0  0  0  0  0  0  0  0  0  0  0
  -14.4510    9.3410   -4.4405 N   0  0  0  0  0  0  0  0  0  0  0  0
  -16.7010   16.5670   -5.5350 N   0  0  0  0  0  0  0  0  0  0  0  0
  -14.5853   14.2820   -6.7039 N   0  0  0  0  0  0  0  0  0  0  0  0
  -16.1317   11.2640   -6.6354 N   0  0  0  0  0  0  0  0  0  0  0  0
  -16.9418   -7.2411  -15.3380 N   0  0  0  0  0  0  0  0  0  0  0  0
  -17.2860   18.8405   -8.2516 N   0  0  0  0  0  0  0  0  0  0  0  0
  -13.4079   -2.5430   -7.2519 N   0  0  0  0  0  0  0  0  0  0  0  0
  -16.4499   -4.6962  -10.7894 N   0  0  0  0  0  0  0  0  0  0  0  0
  -16.2716   -4.2730  -12.2367 N   0  0  0  0  0  0  0  0  0  0  0  0
  -20.2232   -6.5420  -15.2741 N   0  0  0  0  0  0  0  0  0  0  0  0
  -20.2009   -5.7491  -11.0173 N   0  0  0  0  0  0  0  0  0  0  0  0
  -19.1923   -7.5126   -8.3164 N   0  0  0  0  0  0  0  0  0  0  0  0
  -14.7822   -6.1742  -10.2832 N   0  0  0  0  0  0  0  0  0  0  0  0
  -20.2592   -9.1690  -13.7638 N   0  0  0  0  0  0  0  0  0  0  0  0
  -18.0763   -3.3884  -11.2794 O   0  0  0  0  0  0  0  0  0  0  0  0
  -11.9193   -5.2387  -10.1689 O   0  0  0  0  0  0  0  0  0  0  0  0
  -21.7507   -8.2041  -11.4380 O   0  0  0  0  0  0  0  0  0  0  0  0
  -18.9418   -6.4533   -5.9576 O   0  0  0  0  0  0  0  0  0  0  0  0
  -22.7079   -1.4106  -12.0836 O   0  0  0  0  0  0  0  0  0  0  0  0
  -13.1687   12.1474   -4.5772 O   0  0  0  0  0  0  0  0  0  0  0  0
  -19.6528   -2.5092  -11.9717 O   0  0  0  0  0  0  0  0  0  0  0  0
  -10.2723   -2.6140   -5.1445 O   0  0  0  0  0  0  0  0  0  0  0  0
  -17.3866   -8.2424  -13.7394 O   0  0  0  0  0  0  0  0  0  0  0  0
  -15.5120   -2.1784  -13.5248 O   0  0  0  0  0  0  0  0  0  0  0  0
  -14.7458   -4.6355  -12.5698 O   0  0  0  0  0  0  0  0  0  0  0  0
  -12.3435   -4.2825   -7.5212 O   0  0  0  0  0  0  0  0  0  0  0  0
  -15.0693   -8.7828  -11.2870 O   0  0  0  0  0  0  0  0  0  0  0  0
  -16.7590   -1.5203  -14.6572 O   0  0  0  0  0  0  0  0  0  0  0  0
  -13.4795   -5.0492   -4.8751 O   0  0  0  0  0  0  0  0  0  0  0  0
  -11.7955    0.2894   -2.4743 O   0  0  0  0  0  0  0  0  0  0  0  0
  -14.8323    1.9502   -5.4722 O   0  0  0  0  0  0  0  0  0  0  0  0
  -11.8412    5.1438   -6.1130 O   0  0  0  0  0  0  0  0  0  0  0  0
  -14.4701    7.5191   -3.4284 O   0  0  0  0  0  0  0  0  0  0  0  0
  -16.9816   14.6351   -4.7558 O   0  0  0  0  0  0  0  0  0  0  0  0
  -15.9979    9.2741   -7.2029 O   0  0  0  0  0  0  0  0  0  0  0  0
  -16.9241   16.7747   -8.6489 O   0  0  0  0  0  0  0  0  0  0  0  0
  -13.4403   12.6563   -6.5392 O   0  0  0  0  0  0  0  0  0  0  0  0
  -16.7012   -7.8527  -11.0307 O   0  0  0  0  0  0  0  0  0  0  0  0
  -18.8199   -8.7572  -15.6086 O   0  0  0  0  0  0  0  0  0  0  0  0
  -19.1135   -4.7325   -9.1902 O   0  0  0  0  0  0  0  0  0  0  0  0
  -18.7179   -8.7299  -12.2285 O   0  0  0  0  0  0  0  0  0  0  0  0
  -20.2913   -7.2867   -9.8474 O   0  0  0  0  0  0  0  0  0  0  0  0
  -15.1846   -2.0535  -10.4483 O   0  0  0  0  0  0  0  0  0  0  0  0
  -22.2758   -6.6560  -15.6779 O   0  0  0  0  0  0  0  0  0  0  0  0
  -16.2950   21.9499   -6.9380 O   0  0  0  0  0  0  0  0  0  0  0  0
  -15.2638   20.1126   -6.4206 O   0  0  0  0  0  0  0  0  0  0  0  0
  -16.6986   -7.2046   -6.0645 O   0  0  0  0  0  0  0  0  0  0  0  0
  -17.3268   -5.9545   -7.9756 O   0  0  0  0  0  0  0  0  0  0  0  0
  -15.5566   -4.2796   -8.8683 S   0  0  0  0  0  0  0  0  0  0  0  0
  -13.1941   -3.2724  -10.3638 S   0  0  0  0  0  0  0  0  0  0  0  0
  -14.5134   -5.4771   -6.7237 H   0  0  0  0  0  0  0  0  0  0  0  0
  -12.5109   -7.2140  -11.1287 H   0  0  0  0  0  0  0  0  0  0  0  0
  -12.8670    0.8979   -5.2657 H   0  0  0  0  0  0  0  0  0  0  0  0
  -12.5310    3.7018   -4.6698 H   0  0  0  0  0  0  0  0  0  0  0  0
  -14.4455    5.8651   -4.7934 H   0  0  0  0  0  0  0  0  0  0  0  0
  -14.3003    8.3171   -6.3184 H   0  0  0  0  0  0  0  0  0  0  0  0
  -15.6901   15.7669   -7.2175 H   0  0  0  0  0  0  0  0  0  0  0  0
  -14.3953   11.0605   -5.3666 H   0  0  0  0  0  0  0  0  0  0  0  0
  -16.4412   18.4126   -6.2356 H   0  0  0  0  0  0  0  0  0  0  0  0
  -16.2837   13.1322   -6.1150 H   0  0  0  0  0  0  0  0  0  0  0  0
  -15.6815   -5.8020  -13.8115 H   0  0  0  0  0  0  0  0  0  0  0  0
  -18.1834   20.6079   -7.9514 H   0  0  0  0  0  0  0  0  0  0  0  0
  -16.7624   -1.9328  -11.2854 H   0  0  0  0  0  0  0  0  0  0  0  0
  -13.2354   -1.7239   -5.8581 H   0  0  0  0  0  0  0  0  0  0  0  0
  -17.2202   -5.1265  -12.9817 H   0  0  0  0  0  0  0  0  0  0  0  0
  -18.4421   -6.1176  -14.6419 H   0  0  0  0  0  0  0  0  0  0  0  0
  -21.7128   -6.5628  -12.2492 H   0  0  0  0  0  0  0  0  0  0  0  0
  -18.4369   -8.4029   -7.0567 H   0  0  0  0  0  0  0  0  0  0  0  0
  -16.9648   -6.3879   -9.5592 H   0  0  0  0  0  0  0  0  0  0  0  0
  -14.3595   -3.4022   -9.2553 H   0  0  0  0  0  0  0  0  0  0  0  0
  -21.6612   -9.0714  -14.8141 H   0  0  0  0  0  0  0  0  0  0  0  0
  -13.1700   -1.3256  -11.6684 H   0  0  0  0  0  0  0  0  0  0  0  0
  -14.7766   -0.8195  -12.2093 H   0  0  0  0  0  0  0  0  0  0  0  0
  -13.4818   -0.3063  -13.1859 H   0  0  0  0  0  0  0  0  0  0  0  0
  -11.8147   -3.2411  -12.8136 H   0  0  0  0  0  0  0  0  0  0  0  0
  -12.4028   -3.9735  -14.3261 H   0  0  0  0  0  0  0  0  0  0  0  0
  -11.8644   -2.2605  -14.3918 H   0  0  0  0  0  0  0  0  0  0  0  0
  -14.3032   -6.7435   -7.6494 H   0  0  0  0  0  0  0  0  0  0  0  0
  -14.0565   -6.8664   -8.9685 H   0  0  0  0  0  0  0  0  0  0  0  0
  -15.5874   -6.4774   -8.5552 H   0  0  0  0  0  0  0  0  0  0  0  0
  -15.2449  -10.0349   -9.8221 H   0  0  0  0  0  0  0  0  0  0  0  0
  -13.8439   -9.0718  -10.3655 H   0  0  0  0  0  0  0  0  0  0  0  0
  -13.8017   -8.8610   -8.9349 H   0  0  0  0  0  0  0  0  0  0  0  0
  -12.1559   -6.6092  -16.1506 H   0  0  0  0  0  0  0  0  0  0  0  0
  -12.4404   -8.9987  -14.8775 H   0  0  0  0  0  0  0  0  0  0  0  0
  -13.7434   -4.6125  -15.7169 H   0  0  0  0  0  0  0  0  0  0  0  0
  -10.4973    1.1159   -6.9860 H   0  0  0  0  0  0  0  0  0  0  0  0
  -11.0349    0.9533   -5.4716 H   0  0  0  0  0  0  0  0  0  0  0  0
  -12.7537    3.9370   -1.6991 H   0  0  0  0  0  0  0  0  0  0  0  0
  -13.4662    3.3491   -3.0365 H   0  0  0  0  0  0  0  0  0  0  0  0
  -12.8786    0.1391   -7.4222 H   0  0  0  0  0  0  0  0  0  0  0  0
  -13.5499    1.3076   -6.6722 H   0  0  0  0  0  0  0  0  0  0  0  0
  -10.6970    3.8248   -3.3232 H   0  0  0  0  0  0  0  0  0  0  0  0
  -11.3832    4.7400   -4.3410 H   0  0  0  0  0  0  0  0  0  0  0  0
  -15.0834   -2.1917   -3.9322 H   0  0  0  0  0  0  0  0  0  0  0  0
  -13.6549   -1.9143   -4.2267 H   0  0  0  0  0  0  0  0  0  0  0  0
  -16.5785    5.0235   -6.7423 H   0  0  0  0  0  0  0  0  0  0  0  0
  -14.9672    5.1661   -6.4994 H   0  0  0  0  0  0  0  0  0  0  0  0
  -17.2936   12.4362   -8.8522 H   0  0  0  0  0  0  0  0  0  0  0  0
  -15.9549   12.6047   -7.9345 H   0  0  0  0  0  0  0  0  0  0  0  0
  -11.3753    8.8194   -6.8505 H   0  0  0  0  0  0  0  0  0  0  0  0
  -12.4934    8.4536   -5.7078 H   0  0  0  0  0  0  0  0  0  0  0  0
  -12.8627   16.4180   -6.3966 H   0  0  0  0  0  0  0  0  0  0  0  0
  -14.3185   15.9033   -5.8678 H   0  0  0  0  0  0  0  0  0  0  0  0
  -18.7913   17.9810   -4.4925 H   0  0  0  0  0  0  0  0  0  0  0  0
  -18.1455   17.6641   -5.9349 H   0  0  0  0  0  0  0  0  0  0  0  0
  -13.5531   -9.3012  -13.1929 H   0  0  0  0  0  0  0  0  0  0  0  0
  -14.5300   -5.0038  -14.0651 H   0  0  0  0  0  0  0  0  0  0  0  0
  -11.3251    3.4236   -6.5421 H   0  0  0  0  0  0  0  0  0  0  0  0
  -10.3841    2.8678   -5.1553 H   0  0  0  0  0  0  0  0  0  0  0  0
  -13.6571    6.0328   -2.6949 H   0  0  0  0  0  0  0  0  0  0  0  0
  -14.8981    4.7766   -2.7538 H   0  0  0  0  0  0  0  0  0  0  0  0
  -15.0432    0.3343   -4.7465 H   0  0  0  0  0  0  0  0  0  0  0  0
  -14.2054   -0.3580   -6.0290 H   0  0  0  0  0  0  0  0  0  0  0  0
  -16.3005    7.4785   -6.9244 H   0  0  0  0  0  0  0  0  0  0  0  0
  -15.0099    6.6823   -7.8608 H   0  0  0  0  0  0  0  0  0  0  0  0
  -17.1598   14.9179   -8.6925 H   0  0  0  0  0  0  0  0  0  0  0  0
  -15.5358   14.2666   -9.0433 H   0  0  0  0  0  0  0  0  0  0  0  0
  -12.5092   11.0125   -6.5832 H   0  0  0  0  0  0  0  0  0  0  0  0
  -12.1809   10.2704   -4.9871 H   0  0  0  0  0  0  0  0  0  0  0  0
  -14.1715   18.5448   -6.4619 H   0  0  0  0  0  0  0  0  0  0  0  0
  -14.5111   17.6879   -4.9363 H   0  0  0  0  0  0  0  0  0  0  0  0
  -19.0014   20.2976   -5.6619 H   0  0  0  0  0  0  0  0  0  0  0  0
  -19.5095   18.9550   -6.7340 H   0  0  0  0  0  0  0  0  0  0  0  0
  -18.1339   -2.5723   -4.5347 H   0  0  0  0  0  0  0  0  0  0  0  0
  -15.3818   -2.6997   -7.4779 H   0  0  0  0  0  0  0  0  0  0  0  0
  -22.1288   -5.2659  -13.9846 H   0  0  0  0  0  0  0  0  0  0  0  0
  -20.8792   -4.5297   -9.7736 H   0  0  0  0  0  0  0  0  0  0  0  0
  -19.2623   -4.8221   -4.8084 H   0  0  0  0  0  0  0  0  0  0  0  0
  -16.0200   -5.7478   -6.7076 H   0  0  0  0  0  0  0  0  0  0  0  0
  -22.5557   -3.1425  -14.1818 H   0  0  0  0  0  0  0  0  0  0  0  0
  -21.2231   -2.3962  -10.0498 H   0  0  0  0  0  0  0  0  0  0  0  0
  -16.3864   13.1235   -3.8614 H   0  0  0  0  0  0  0  0  0  0  0  0
  -17.4156   11.8164   -4.5380 H   0  0  0  0  0  0  0  0  0  0  0  0
  -15.5497   -4.6764  -15.5700 H   0  0  0  0  0  0  0  0  0  0  0  0
  -17.2684   -5.2488  -15.6885 H   0  0  0  0  0  0  0  0  0  0  0  0
  -15.8125   10.9909   -2.7574 H   0  0  0  0  0  0  0  0  0  0  0  0
  -15.8498   10.5286   -4.3036 H   0  0  0  0  0  0  0  0  0  0  0  0
  -16.9466   -3.2814  -15.2465 H   0  0  0  0  0  0  0  0  0  0  0  0
  -16.8338   -3.9751  -13.6257 H   0  0  0  0  0  0  0  0  0  0  0  0
  -13.9735    2.1150   -8.5293 H   0  0  0  0  0  0  0  0  0  0  0  0
  -12.8941    3.2273   -7.6960 H   0  0  0  0  0  0  0  0  0  0  0  0
  -10.2201    6.2746   -3.5926 H   0  0  0  0  0  0  0  0  0  0  0  0
  -11.9001    6.6815   -3.2618 H   0  0  0  0  0  0  0  0  0  0  0  0
  -13.9426   -2.0160   -2.0255 H   0  0  0  0  0  0  0  0  0  0  0  0
  -13.3331   -0.6624   -2.3535 H   0  0  0  0  0  0  0  0  0  0  0  0
  -16.3623    5.0147   -4.1717 H   0  0  0  0  0  0  0  0  0  0  0  0
  -15.7875    6.3913   -4.1280 H   0  0  0  0  0  0  0  0  0  0  0  0
  -18.1806   12.1515   -6.4436 H   0  0  0  0  0  0  0  0  0  0  0  0
  -17.7997   13.5370   -6.0422 H   0  0  0  0  0  0  0  0  0  0  0  0
  -13.3154    7.7873   -8.2075 H   0  0  0  0  0  0  0  0  0  0  0  0
  -14.2784    8.8589   -7.8123 H   0  0  0  0  0  0  0  0  0  0  0  0
  -13.9474   15.4661   -8.5309 H   0  0  0  0  0  0  0  0  0  0  0  0
  -15.0773   16.4551   -8.5037 H   0  0  0  0  0  0  0  0  0  0  0  0
  -16.2852   18.1735   -4.0155 H   0  0  0  0  0  0  0  0  0  0  0  0
  -16.1226   19.3272   -4.9732 H   0  0  0  0  0  0  0  0  0  0  0  0
  -13.8144   -3.6716  -13.2238 H   0  0  0  0  0  0  0  0  0  0  0  0
  -13.4872   -3.4874  -12.1342 H   0  0  0  0  0  0  0  0  0  0  0  0
  -16.2055   -8.7367   -7.4182 H   0  0  0  0  0  0  0  0  0  0  0  0
  -17.3533   -9.4117   -8.8405 H   0  0  0  0  0  0  0  0  0  0  0  0
  -15.5325   -7.4880  -11.9436 H   0  0  0  0  0  0  0  0  0  0  0  0
  -16.3861   -8.4136  -12.5669 H   0  0  0  0  0  0  0  0  0  0  0  0
  -16.0946   -1.3582   -4.9422 H   0  0  0  0  0  0  0  0  0  0  0  0
  -15.7240   -0.8383   -6.7141 H   0  0  0  0  0  0  0  0  0  0  0  0
  -20.0607   -7.3082  -11.7498 H   0  0  0  0  0  0  0  0  0  0  0  0
  -19.3095   -6.9994  -11.5001 H   0  0  0  0  0  0  0  0  0  0  0  0
  -19.8057   -4.7356  -14.9006 H   0  0  0  0  0  0  0  0  0  0  0  0
  -20.9672   -3.7149  -14.2826 H   0  0  0  0  0  0  0  0  0  0  0  0
  -12.3754   -1.4209   -3.4719 H   0  0  0  0  0  0  0  0  0  0  0  0
  -11.4770   -2.0977   -2.4997 H   0  0  0  0  0  0  0  0  0  0  0  0
  -18.9869   -4.5165  -12.4796 H   0  0  0  0  0  0  0  0  0  0  0  0
  -19.3882   -5.4903  -13.5371 H   0  0  0  0  0  0  0  0  0  0  0  0
  -18.1708   -3.0023   -9.3914 H   0  0  0  0  0  0  0  0  0  0  0  0
  -16.9619   -3.1309  -10.0155 H   0  0  0  0  0  0  0  0  0  0  0  0
  -13.3745   -4.2889   -8.7901 H   0  0  0  0  0  0  0  0  0  0  0  0
  -12.8067   -6.0000   -8.6598 H   0  0  0  0  0  0  0  0  0  0  0  0
  -22.9435   -7.4960  -12.9793 H   0  0  0  0  0  0  0  0  0  0  0  0
  -22.5404   -9.3072  -12.6679 H   0  0  0  0  0  0  0  0  0  0  0  0
  -16.9674   -2.7314   -8.2508 H   0  0  0  0  0  0  0  0  0  0  0  0
  -17.7426   -3.9701   -7.6494 H   0  0  0  0  0  0  0  0  0  0  0  0
  -12.4265   -4.9556  -12.6849 H   0  0  0  0  0  0  0  0  0  0  0  0
  -13.8664   -5.8070  -12.4922 H   0  0  0  0  0  0  0  0  0  0  0  0
  -14.0619   -2.4514  -14.5556 H   0  0  0  0  0  0  0  0  0  0  0  0
  -16.3598   -7.8572   -9.5621 H   0  0  0  0  0  0  0  0  0  0  0  0
  -11.9268    2.5993   -9.7989 H   0  0  0  0  0  0  0  0  0  0  0  0
  -11.0122    2.0084   -8.5757 H   0  0  0  0  0  0  0  0  0  0  0  0
  -10.6579    6.6830   -1.2101 H   0  0  0  0  0  0  0  0  0  0  0  0
  -11.7516    5.4632   -1.1873 H   0  0  0  0  0  0  0  0  0  0  0  0
  -14.5959   -4.1701   -4.7366 H   0  0  0  0  0  0  0  0  0  0  0  0
  -15.6604   -3.4073   -4.9099 H   0  0  0  0  0  0  0  0  0  0  0  0
  -13.9345   -8.1196  -12.3769 H   0  0  0  0  0  0  0  0  0  0  0  0
  -13.2801   -7.1393  -13.5801 H   0  0  0  0  0  0  0  0  0  0  0  0
  -13.8701   11.6651   -1.8308 H   0  0  0  0  0  0  0  0  0  0  0  0
  -18.7520   -3.1770  -14.9537 H   0  0  0  0  0  0  0  0  0  0  0  0
  -16.8814    1.1363   -1.5012 H   0  0  0  0  0  0  0  0  0  0  0  0
  -14.8682   -2.2666   -0.6811 H   0  0  0  0  0  0  0  0  0  0  0  0
  -16.1581   -1.8330    0.2884 H   0  0  0  0  0  0  0  0  0  0  0  0
  -19.4616    7.9809   -4.5959 H   0  0  0  0  0  0  0  0  0  0  0  0
  -17.7076    4.5901   -3.2861 H   0  0  0  0  0  0  0  0  0  0  0  0
  -19.3190    4.8715   -2.9262 H   0  0  0  0  0  0  0  0  0  0  0  0
  -21.0366   15.0337   -7.8966 H   0  0  0  0  0  0  0  0  0  0  0  0
  -19.7329   11.5824   -6.2581 H   0  0  0  0  0  0  0  0  0  0  0  0
  -21.3631   11.7653   -6.5976 H   0  0  0  0  0  0  0  0  0  0  0  0
  -12.6668   11.3613  -10.5299 H   0  0  0  0  0  0  0  0  0  0  0  0
  -13.0122    7.4091   -9.7957 H   0  0  0  0  0  0  0  0  0  0  0  0
  -12.5171    7.9215  -11.3128 H   0  0  0  0  0  0  0  0  0  0  0  0
  -12.6665   19.2914  -10.0518 H   0  0  0  0  0  0  0  0  0  0  0  0
  -12.9762   15.2714   -9.8739 H   0  0  0  0  0  0  0  0  0  0  0  0
  -11.9287   15.9663  -10.9832 H   0  0  0  0  0  0  0  0  0  0  0  0
  -17.6244   21.8377   -2.1917 H   0  0  0  0  0  0  0  0  0  0  0  0
  -15.7691   18.2609   -2.4187 H   0  0  0  0  0  0  0  0  0  0  0  0
  -15.8667   19.0452   -0.9388 H   0  0  0  0  0  0  0  0  0  0  0  0
  -15.1872    0.6600   -2.8264 H   0  0  0  0  0  0  0  0  0  0  0  0
  -17.3167    7.7103   -5.1343 H   0  0  0  0  0  0  0  0  0  0  0  0
  -18.8529   14.9022   -7.4898 H   0  0  0  0  0  0  0  0  0  0  0  0
  -13.3328   10.7936   -8.4776 H   0  0  0  0  0  0  0  0  0  0  0  0
  -14.0867   18.4791   -8.5427 H   0  0  0  0  0  0  0  0  0  0  0  0
  -17.5527   20.8930   -4.2065 H   0  0  0  0  0  0  0  0  0  0  0  0
  -17.3346   -3.9562  -11.5346 H   0  0  0  0  0  0  0  0  0  0  0  0
  -12.6122   -5.8236  -10.4303 H   0  0  0  0  0  0  0  0  0  0  0  0
  -20.8552   -8.5605  -11.2195 H   0  0  0  0  0  0  0  0  0  0  0  0
  -19.5294   -6.9098   -6.6353 H   0  0  0  0  0  0  0  0  0  0  0  0
  -23.1877   -1.4113  -12.9182 H   0  0  0  0  0  0  0  0  0  0  0  0
  -12.2368   12.3955   -4.5693 H   0  0  0  0  0  0  0  0  0  0  0  0
  -18.7528   -2.4333  -11.5209 H   0  0  0  0  0  0  0  0  0  0  0  0
   -9.8553   -2.2675   -5.9357 H   0  0  0  0  0  0  0  0  0  0  0  0
  -16.3617   -8.5268  -14.0353 H   0  0  0  0  0  0  0  0  0  0  0  0
  -14.6883   -4.8700  -11.5216 H   0  0  0  0  0  0  0  0  0  0  0  0
  -12.0948   -3.7210   -8.4005 H   0  0  0  0  0  0  0  0  0  0  0  0
  -15.2767   -9.3307  -12.0725 H   0  0  0  0  0  0  0  0  0  0  0  0
  -16.7285   -1.7904  -15.6033 H   0  0  0  0  0  0  0  0  0  0  0  0
  -14.1650   -5.4465   -4.2212 H   0  0  0  0  0  0  0  0  0  0  0  0
  -12.2922    0.4997   -1.6612 H   0  0  0  0  0  0  0  0  0  0  0  0
  -15.2267    1.8505   -6.3507 H   0  0  0  0  0  0  0  0  0  0  0  0
  -10.9624    5.4950   -5.8956 H   0  0  0  0  0  0  0  0  0  0  0  0
  -15.2593    7.5484   -2.8627 H   0  0  0  0  0  0  0  0  0  0  0  0
  -17.9348   14.5631   -4.5792 H   0  0  0  0  0  0  0  0  0  0  0  0
  -15.9785    9.2811   -8.1760 H   0  0  0  0  0  0  0  0  0  0  0  0
  -16.5042   16.8520   -9.5248 H   0  0  0  0  0  0  0  0  0  0  0  0
  -12.7766   13.2071   -6.0971 H   0  0  0  0  0  0  0  0  0  0  0  0
  -17.1632   -8.7898  -11.4601 H   0  0  0  0  0  0  0  0  0  0  0  0
  -19.7054   -8.6837  -15.2036 H   0  0  0  0  0  0  0  0  0  0  0  0
  -18.1860   -4.8196   -8.7642 H   0  0  0  0  0  0  0  0  0  0  0  0
  -18.3043   -8.0772  -11.5455 H   0  0  0  0  0  0  0  0  0  0  0  0
  -20.7280   -6.5588  -10.3553 H   0  0  0  0  0  0  0  0  0  0  0  0
  -14.2489   -1.9247  -10.2800 H   0  0  0  0  0  0  0  0  0  0  0  0
  -22.9834   -7.2848  -15.7392 H   0  0  0  0  0  0  0  0  0  0  0  0
  -14.8275   20.3957   -5.5679 H   0  0  0  0  0  0  0  0  0  0  0  0
  -16.4985   -5.4759   -8.1828 H   0  0  0  0  0  0  0  0  0  0  0  0
  1223  1  0  0  0  0
  1224  1  0  0  0  0
  1225  1  0  0  0  0
  2226  1  0  0  0  0
  2227  1  0  0  0  0
  2228  1  0  0  0  0
  3229  1  0  0  0  0
  3230  1  0  0  0  0
  3231  1  0  0  0  0
  4232  1  0  0  0  0
  4233  1  0  0  0  0
  4234  1  0  0  0  0
  5235  1  0  0  0  0
  6  5  2  0  0  0  0
  6236  1  0  0  0  0
  7  5  1  0  0  0  0
  7237  1  0  0  0  0
  8238  1  0  0  0  0
  8239  1  0  0  0  0
  9240  1  0  0  0  0
  9241  1  0  0  0  0
 10  8  1  0  0  0  0
 10242  1  0  0  0  0
 10243  1  0  0  0  0
 11  9  1  0  0  0  0
 11244  1  0  0  0  0
 11245  1  0  0  0  0
 12246  1  0  0  0  0
 12247  1  0  0  0  0
 13248  1  0  0  0  0
 13249  1  0  0  0  0
 14250  1  0  0  0  0
 14251  1  0  0  0  0
 15252  1  0  0  0  0
 15253  1  0  0  0  0
 16254  1  0  0  0  0
 16255  1  0  0  0  0
 17256  1  0  0  0  0
 17257  1  0  0  0  0
 18  6  1  0  0  0  0
 18258  1  0  0  0  0
 19  7  2  0  0  0  0
 19259  1  0  0  0  0
 20  8  1  0  0  0  0
 20260  1  0  0  0  0
 20261  1  0  0  0  0
 21  9  1  0  0  0  0
 21262  1  0  0  0  0
 21263  1  0  0  0  0
 22 12  1  0  0  0  0
 22264  1  0  0  0  0
 22265  1  0  0  0  0
 23 13  1  0  0  0  0
 23266  1  0  0  0  0
 23267  1  0  0  0  0
 24 14  1  0  0  0  0
 24268  1  0  0  0  0
 24269  1  0  0  0  0
 25 15  1  0  0  0  0
 25270  1  0  0  0  0
 25271  1  0  0  0  0
 26 16  1  0  0  0  0
 26272  1  0  0  0  0
 26273  1  0  0  0  0
 27 17  1  0  0  0  0
 27274  1  0  0  0  0
 27275  1  0  0  0  0
 28276  1  0  0  0  0
 29277  1  0  0  0  0
 30278  1  0  0  0  0
 31279  1  0  0  0  0
 32 28  1  0  0  0  0
 32280  1  0  0  0  0
 33 29  2  0  0  0  0
 33281  1  0  0  0  0
 34 30  1  0  0  0  0
 34282  1  0  0  0  0
 35 31  2  0  0  0  0
 35283  1  0  0  0  0
 36284  1  0  0  0  0
 36285  1  0  0  0  0
 37286  1  0  0  0  0
 37287  1  0  0  0  0
 38 36  1  0  0  0  0
 38288  1  0  0  0  0
 38289  1  0  0  0  0
 39 37  1  0  0  0  0
 39290  1  0  0  0  0
 39291  1  0  0  0  0
 40 10  1  0  0  0  0
 40292  1  0  0  0  0
 40293  1  0  0  0  0
 41 11  1  0  0  0  0
 41294  1  0  0  0  0
 41295  1  0  0  0  0
 42 12  1  0  0  0  0
 42296  1  0  0  0  0
 42297  1  0  0  0  0
 43 13  1  0  0  0  0
 43298  1  0  0  0  0
 43299  1  0  0  0  0
 44 14  1  0  0  0  0
 44300  1  0  0  0  0
 44301  1  0  0  0  0
 45 15  1  0  0  0  0
 45302  1  0  0  0  0
 45303  1  0  0  0  0
 46 16  1  0  0  0  0
 46304  1  0  0  0  0
 46305  1  0  0  0  0
 47 17  1  0  0  0  0
 47306  1  0  0  0  0
 47307  1  0  0  0  0
 48308  1  0  0  0  0
 48309  1  0  0  0  0
 49310  1  0  0  0  0
 49311  1  0  0  0  0
 50312  1  0  0  0  0
 50313  1  0  0  0  0
 51314  1  0  0  0  0
 51315  1  0  0  0  0
 52316  1  0  0  0  0
 52317  1  0  0  0  0
 53318  1  0  0  0  0
 53319  1  0  0  0  0
 54320  1  0  0  0  0
 54321  1  0  0  0  0
 55322  1  0  0  0  0
 55323  1  0  0  0  0
 56324  1  0  0  0  0
 56325  1  0  0  0  0
 57326  1  0  0  0  0
 57327  1  0  0  0  0
 58328  1  0  0  0  0
 58329  1  0  0  0  0
 59330  1  0  0  0  0
 59331  1  0  0  0  0
 60332  1  0  0  0  0
 60333  1  0  0  0  0
 61  1  1  0  0  0  0
 61  2  1  0  0  0  0
 61 48  1  0  0  0  0
 61334  1  0  0  0  0
 62  3  1  0  0  0  0
 62  4  1  0  0  0  0
 62 49  1  0  0  0  0
 62335  1  0  0  0  0
 63 18  2  0  0  0  0
 63 19  1  0  0  0  0
 63 50  1  0  0  0  0
 64 28  2  0  0  0  0
 64 29  1  0  0  0  0
 64 51  1  0  0  0  0
 65 30  2  0  0  0  0
 65 31  1  0  0  0  0
 65 52  1  0  0  0  0
 66 32  2  0  0  0  0
 66 33  1  0  0  0  0
 67 34  2  0  0  0  0
 67 35  1  0  0  0  0
 68 59  1  0  0  0  0
 68 94  1  0  0  0  0
 68123  1  0  0  0  0
 68202  1  6  0  0  0
 69124  1  0  0  0  0
 69203  1  1  0  0  0
 69 95  1  0  0  0  0
 69 60  1  0  0  0  0
 70 22  1  0  0  0  0
 70 98  1  0  0  0  0
 70147  1  0  0  0  0
 70204  1  6  0  0  0
 71 20  1  0  0  0  0
 71 99  1  0  0  0  0
 71149  1  0  0  0  0
 71205  1  1  0  0  0
 72 21  1  0  0  0  0
 72100  1  0  0  0  0
 72150  1  0  0  0  0
 72206  1  6  0  0  0
 73 23  1  0  0  0  0
 73101  1  0  0  0  0
 73151  1  0  0  0  0
 73207  1  6  0  0  0
 74 24  1  0  0  0  0
 74102  1  0  0  0  0
 74154  1  0  0  0  0
 74208  1  6  0  0  0
 75 25  1  0  0  0  0
 75103  1  0  0  0  0
 75152  1  0  0  0  0
 75209  1  1  0  0  0
 76 26  1  0  0  0  0
 76104  1  0  0  0  0
 76153  1  0  0  0  0
 76210  1  1  0  0  0
 77 36  1  0  0  0  0
 77105  1  0  0  0  0
 77155  1  0  0  0  0
 77211  1  6  0  0  0
 78156  1  0  0  0  0
 78212  1  6  0  0  0
 78106  1  0  0  0  0
 78 37  1  0  0  0  0
 79 27  1  0  0  0  0
 79113  1  0  0  0  0
 79157  1  0  0  0  0
 79213  1  6  0  0  0
 80 48  1  0  0  0  0
 80 96  1  0  0  0  0
 80159  1  0  0  0  0
 80214  1  1  0  0  0
 81 51  1  0  0  0  0
 81 97  1  0  0  0  0
 81158  1  0  0  0  0
 81215  1  1  0  0  0
 82160  1  0  0  0  0
 82216  1  6  0  0  0
 82108  1  0  0  0  0
 82 50  1  0  0  0  0
 83161  1  0  0  0  0
 83217  1  6  0  0  0
 83107  1  0  0  0  0
 83 52  1  0  0  0  0
 84162  1  0  0  0  0
 84218  1  1  0  0  0
 84109  1  0  0  0  0
 84 53  1  0  0  0  0
 85 49  1  0  0  0  0
 85114  1  0  0  0  0
 85163  1  0  0  0  0
 85219  1  1  0  0  0
 86 56  1  0  0  0  0
 86110  1  0  0  0  0
 86148  1  0  0  0  0
 86220  1  1  0  0  0
 87164  1  0  0  0  0
 87221  1  1  0  0  0
 87111  1  0  0  0  0
 87 57  1  0  0  0  0
 88165  1  0  0  0  0
 88222  1  6  0  0  0
 88112  1  0  0  0  0
 88 58  1  0  0  0  0
 89 38  1  0  0  0  0
 90 53  1  0  0  0  0
 91 54  1  0  0  0  0
 91173  1  0  0  0  0
 92 55  1  0  0  0  0
 92174  1  0  0  0  0
 93 39  1  0  0  0  0
 94177  1  0  0  0  0
 95178  1  0  0  0  0
 98181  1  0  0  0  0
 99182  1  0  0  0  0
100183  1  0  0  0  0
101184  1  0  0  0  0
102185  1  0  0  0  0
103186  1  0  0  0  0
104187  1  0  0  0  0
105188  1  0  0  0  0
106189  1  0  0  0  0
107190  1  0  0  0  0
108191  1  0  0  0  0
109192  1  0  0  0  0
110193  1  0  0  0  0
111194  1  0  0  0  0
112195  1  0  0  0  0
121 40  1  0  0  0  0
121336  1  0  0  0  0
121337  1  0  0  0  0
122 41  1  0  0  0  0
122338  1  0  0  0  0
122339  1  0  0  0  0
123340  1  0  0  0  0
123341  1  0  0  0  0
124342  1  0  0  0  0
124343  1  0  0  0  0
125 89  2  0  0  0  0
125344  1  0  0  0  0
126 90  2  0  0  0  0
126345  1  0  0  0  0
127115  2  0  0  0  0
127346  1  0  0  0  0
128115  1  0  0  0  0
128347  1  0  0  0  0
128348  1  0  0  0  0
129116  2  0  0  0  0
129349  1  0  0  0  0
130116  1  0  0  0  0
130350  1  0  0  0  0
130351  1  0  0  0  0
131117  2  0  0  0  0
131352  1  0  0  0  0
132117  1  0  0  0  0
132353  1  0  0  0  0
132354  1  0  0  0  0
133118  2  0  0  0  0
133355  1  0  0  0  0
134118  1  0  0  0  0
134356  1  0  0  0  0
134357  1  0  0  0  0
135119  2  0  0  0  0
135358  1  0  0  0  0
136119  1  0  0  0  0
136359  1  0  0  0  0
136360  1  0  0  0  0
137120  2  0  0  0  0
137361  1  0  0  0  0
138120  1  0  0  0  0
138362  1  0  0  0  0
138363  1  0  0  0  0
139 42  1  0  0  0  0
139115  1  0  0  0  0
139364  1  0  0  0  0
140 43  1  0  0  0  0
140116  1  0  0  0  0
140365  1  0  0  0  0
141 44  1  0  0  0  0
141117  1  0  0  0  0
141366  1  0  0  0  0
142 45  1  0  0  0  0
142118  1  0  0  0  0
142367  1  0  0  0  0
143 46  1  0  0  0  0
143119  1  0  0  0  0
143368  1  0  0  0  0
144 47  1  0  0  0  0
144120  1  0  0  0  0
144369  1  0  0  0  0
145 55  1  0  0  0  0
145 96  2  3  0  0  0
146 54  1  0  0  0  0
146 97  2  3  0  0  0
147 91  2  3  0  0  0
148 92  2  3  0  0  0
149 98  2  3  0  0  0
150 99  2  3  0  0  0
151100  2  3  0  0  0
152101  2  3  0  0  0
153102  2  3  0  0  0
154105  2  3  0  0  0
155103  2  3  0  0  0
156107  2  3  0  0  0
157104  2  3  0  0  0
158 94  2  3  0  0  0
159106  2  3  0  0  0
160111  2  3  0  0  0
161112  2  3  0  0  0
162108  2  3  0  0  0
163110  2  3  0  0  0
164 95  2  3  0  0  0
165109  2  3  0  0  0
166 56  1  0  0  0  0
166370  1  0  0  0  0
167 57  1  0  0  0  0
167371  1  0  0  0  0
168 58  1  0  0  0  0
168372  1  0  0  0  0
169 66  1  0  0  0  0
169373  1  0  0  0  0
170 67  1  0  0  0  0
170374  1  0  0  0  0
171 89  1  0  0  0  0
171375  1  0  0  0  0
172 90  1  0  0  0  0
172376  1  0  0  0  0
173377  1  0  0  0  0
174378  1  0  0  0  0
175 93  2  0  0  0  0
176 93  1  0  0  0  0
176379  1  0  0  0  0
177380  1  0  0  0  0
178381  1  0  0  0  0
179 96  1  0  0  0  0
179382  1  0  0  0  0
180 97  1  0  0  0  0
180383  1  0  0  0  0
181384  1  0  0  0  0
182385  1  0  0  0  0
183386  1  0  0  0  0
184387  1  0  0  0  0
185388  1  0  0  0  0
186389  1  0  0  0  0
187390  1  0  0  0  0
188391  1  0  0  0  0
189392  1  0  0  0  0
190393  1  0  0  0  0
191394  1  0  0  0  0
192395  1  0  0  0  0
193396  1  0  0  0  0
194397  1  0  0  0  0
195398  1  0  0  0  0
196113  2  0  0  0  0
197113  1  0  0  0  0
197399  1  0  0  0  0
198114  2  0  0  0  0
199114  1  0  0  0  0
199400  1  0  0  0  0
200 59  1  0  0  0  0
201 60  1  0  0  0  0
201200  1  0  0  0  0
M  END
>  <DRUGBANK_ID>
DB05560

>  <COMMON_NAME>
Delcasertib

>  <CAS_NUMBER>
949100-39-4

>  <UNII>
5G7N7E908H

>  <SYNONYMS>
Delcasertib

$$$$
