
 OpenBabel10282417143D

 32 33  0  0  0  0  0  0  0  0999 V2000
   -0.2904   -1.0932   -0.0492 N   0  0  0  0  0  0  0  0  0  0  0  0
   -0.7421   -2.4683    0.0563 C   0  0  2  0  0  0  0  0  0  0  0  0
    1.0176   -0.6782   -0.0206 C   0  0  0  0  0  0  0  0  0  0  0  0
   -1.0689    0.0379   -0.0473 C   0  0  0  0  0  0  0  0  0  0  0  0
   -1.5528   -2.8438   -1.0715 O   0  0  0  0  0  0  0  0  0  0  0  0
   -1.5318   -2.7757    1.3236 C   0  0  1  0  0  0  0  0  0  0  0  0
    0.9749    0.7071   -0.0150 C   0  0  0  0  0  0  0  0  0  0  0  0
    2.0791   -1.5080    0.0144 N   0  0  0  0  0  0  0  0  0  0  0  0
   -0.3439    1.1413   -0.0194 N   0  0  0  0  0  0  0  0  0  0  0  0
   -2.5903   -3.7415   -0.6074 C   0  0  1  0  0  0  0  0  0  0  0  0
   -2.3523   -3.9815    0.8886 C   0  0  1  0  0  0  0  0  0  0  0  0
   -0.7129   -3.0443    2.4568 O   0  0  0  0  0  0  0  0  0  0  0  0
    2.1621    1.5626    0.0027 C   0  0  0  0  0  0  0  0  0  0  0  0
   -1.6129   -5.1918    1.1109 O   0  0  0  0  0  0  0  0  0  0  0  0
    1.9504    2.9077    0.0117 N   0  0  0  0  0  0  0  0  0  0  0  0
    3.3174    1.1242    0.0048 O   0  0  0  0  0  0  0  0  0  0  0  0
    0.1390   -3.1143    0.0145 H   0  0  0  0  0  0  0  0  0  0  0  0
   -3.9528   -3.1060   -0.8988 C   0  0  0  0  0  0  0  0  0  0  0  0
   -4.0613   -1.8053   -0.3274 O   0  0  0  0  0  0  0  0  0  0  0  0
   -2.5027   -4.6769   -1.1740 H   0  0  0  0  0  0  0  0  0  0  0  0
   -2.1523    0.0023   -0.0497 H   0  0  0  0  0  0  0  0  0  0  0  0
   -2.1930   -1.9468    1.5900 H   0  0  0  0  0  0  0  0  0  0  0  0
    3.0149   -1.0899   -0.0085 H   0  0  0  0  0  0  0  0  0  0  0  0
    2.0770   -2.5159   -0.0540 H   0  0  0  0  0  0  0  0  0  0  0  0
   -3.2857   -4.0808    1.4517 H   0  0  0  0  0  0  0  0  0  0  0  0
   -0.2173   -3.8669    2.2947 H   0  0  0  0  0  0  0  0  0  0  0  0
   -0.7965   -5.1854    0.5846 H   0  0  0  0  0  0  0  0  0  0  0  0
    2.7612    3.5086    0.0110 H   0  0  0  0  0  0  0  0  0  0  0  0
    1.0144    3.2895    0.0039 H   0  0  0  0  0  0  0  0  0  0  0  0
   -4.0892   -2.9950   -1.9797 H   0  0  0  0  0  0  0  0  0  0  0  0
   -4.7660   -3.7310   -0.5153 H   0  0  0  0  0  0  0  0  0  0  0  0
   -4.0883   -1.8831    0.6393 H   0  0  0  0  0  0  0  0  0  0  0  0
  1  3  1  0  0  0  0
  1  4  1  0  0  0  0
  2  1  1  0  0  0  0
  2  5  1  0  0  0  0
  2  6  1  0  0  0  0
  2 17  1  6  0  0  0
  3  7  2  0  0  0  0
  3  8  1  0  0  0  0
  4  9  2  0  0  0  0
  4 21  1  0  0  0  0
  5 10  1  0  0  0  0
  6 11  1  0  0  0  0
  6 12  1  0  0  0  0
  6 22  1  1  0  0  0
  7 13  1  0  0  0  0
  7  9  1  0  0  0  0
  8 23  1  0  0  0  0
  8 24  1  0  0  0  0
 10 11  1  0  0  0  0
 10 20  1  6  0  0  0
 10 18  1  0  0  0  0
 11 14  1  0  0  0  0
 11 25  1  1  0  0  0
 12 26  1  0  0  0  0
 13 15  1  0  0  0  0
 13 16  2  0  0  0  0
 14 27  1  0  0  0  0
 15 28  1  0  0  0  0
 15 29  1  0  0  0  0
 18 19  1  0  0  0  0
 18 30  1  0  0  0  0
 18 31  1  0  0  0  0
 19 32  1  0  0  0  0
M  END
>  <DRUGBANK_ID>
DB04944

>  <COMMON_NAME>
Acadesine

>  <CAS_NUMBER>
2627-69-2

>  <UNII>
53IEF47846

>  <SYNONYMS>
Acadesina; Acadesine; Acadesinum; AICA-riboside

$$$$
