
 OpenBabel10282417173D

 57 61  0  0  1  0  0  0  0  0999 V2000
    0.9717    0.0399   -0.0664 C   0  0  0  0  0  0  0  0  0  0  0  0
    0.1549    0.6549    0.8004 C   0  0  0  0  0  0  0  0  0  0  0  0
   -1.3371    0.6937    0.7241 C   0  0  0  0  0  0  0  0  0  0  0  0
   -1.9315    1.5178    1.4285 O   0  0  0  0  0  0  0  0  0  0  0  0
   -1.9694   -0.0971   -0.2187 N   0  0  0  0  0  0  0  0  0  0  0  0
   -3.1664    0.3947   -0.8886 C   0  0  0  0  0  0  0  0  0  0  0  0
   -4.3916   -0.4648   -0.5914 C   0  0  0  0  0  0  0  0  0  0  0  0
   -4.1286   -1.9514   -0.8800 C   0  0  0  0  0  0  0  0  0  0  0  0
   -2.8408   -2.4053   -0.1984 C   0  0  2  0  0  0  0  0  0  0  0  0
   -1.6425   -1.5101   -0.4846 C   0  0  0  0  0  0  0  0  0  0  0  0
   -2.5758   -3.8324   -0.2522 N   0  0  0  0  0  0  0  0  0  0  0  0
   -2.2135   -4.7503   -1.2294 C   0  0  0  0  0  0  0  0  0  0  0  0
   -2.1418   -5.9736   -0.5636 C   0  0  0  0  0  0  0  0  0  0  0  0
   -2.4488   -5.6803    0.7709 C   0  0  0  0  0  0  0  0  0  0  0  0
   -2.7271   -4.4009    0.9549 N   0  0  0  0  0  0  0  0  0  0  0  0
   -2.4632   -6.5539    1.9054 C   0  0  0  0  0  0  0  0  0  0  0  0
   -3.6522   -6.7371    2.6025 C   0  0  0  0  0  0  0  0  0  0  0  0
   -3.6404   -7.5050    3.7535 C   0  0  0  0  0  0  0  0  0  0  0  0
   -2.4600   -8.1293    4.1793 C   0  0  0  0  0  0  0  0  0  0  0  0
   -1.2769   -7.9539    3.4554 C   0  0  0  0  0  0  0  0  0  0  0  0
   -1.2734   -7.1524    2.3232 C   0  0  0  0  0  0  0  0  0  0  0  0
   -2.3447   -8.9127    5.3085 O   0  0  0  0  0  0  0  0  0  0  0  0
   -3.4717   -9.1335    6.0604 C   0  0  0  0  0  0  0  0  0  0  0  0
   -4.5827   -9.8037    5.5399 C   0  0  0  0  0  0  0  0  0  0  0  0
   -5.7251   -9.9563    6.3210 C   0  0  0  0  0  0  0  0  0  0  0  0
   -5.7312   -9.4965    7.6377 C   0  0  0  0  0  0  0  0  0  0  0  0
   -4.5997   -8.8764    8.1716 C   0  0  0  0  0  0  0  0  0  0  0  0
   -3.4660   -8.6920    7.3816 C   0  0  0  0  0  0  0  0  0  0  0  0
   -1.8039   -7.1352   -1.2672 C   0  0  0  0  0  0  0  0  0  0  0  0
   -1.5535   -7.0242   -2.5796 N   0  0  0  0  0  0  0  0  0  0  0  0
   -1.6458   -5.7913   -3.1329 C   0  0  0  0  0  0  0  0  0  0  0  0
   -1.9626   -4.5955   -2.5493 N   0  0  0  0  0  0  0  0  0  0  0  0
   -1.7128   -8.3705   -0.6629 N   0  0  0  0  0  0  0  0  0  0  0  0
    0.6033   -0.5311   -0.9069 H   0  0  0  0  0  0  0  0  0  0  0  0
    2.0486    0.0993    0.0293 H   0  0  0  0  0  0  0  0  0  0  0  0
    0.5814    1.2830    1.5802 H   0  0  0  0  0  0  0  0  0  0  0  0
   -2.9467    0.3455   -1.9612 H   0  0  0  0  0  0  0  0  0  0  0  0
   -3.3534    1.4467   -0.6449 H   0  0  0  0  0  0  0  0  0  0  0  0
   -5.2390   -0.1237   -1.1958 H   0  0  0  0  0  0  0  0  0  0  0  0
   -4.6753   -0.3368    0.4617 H   0  0  0  0  0  0  0  0  0  0  0  0
   -4.9752   -2.5387   -0.5017 H   0  0  0  0  0  0  0  0  0  0  0  0
   -4.0667   -2.1254   -1.9581 H   0  0  0  0  0  0  0  0  0  0  0  0
   -3.0431   -2.2156    0.8722 H   0  0  0  0  0  0  0  0  0  0  0  0
   -0.8174   -1.8307    0.1587 H   0  0  0  0  0  0  0  0  0  0  0  0
   -1.3453   -1.5811   -1.5338 H   0  0  0  0  0  0  0  0  0  0  0  0
   -4.5740   -6.2621    2.2721 H   0  0  0  0  0  0  0  0  0  0  0  0
   -4.5715   -7.5840    4.3024 H   0  0  0  0  0  0  0  0  0  0  0  0
   -0.3505   -8.4174    3.7808 H   0  0  0  0  0  0  0  0  0  0  0  0
   -0.3521   -6.9867    1.7681 H   0  0  0  0  0  0  0  0  0  0  0  0
   -4.5781  -10.1557    4.5117 H   0  0  0  0  0  0  0  0  0  0  0  0
   -6.6097  -10.4268    5.9009 H   0  0  0  0  0  0  0  0  0  0  0  0
   -6.6190   -9.6246    8.2513 H   0  0  0  0  0  0  0  0  0  0  0  0
   -4.6048   -8.5299    9.2015 H   0  0  0  0  0  0  0  0  0  0  0  0
   -2.5904   -8.1937    7.7881 H   0  0  0  0  0  0  0  0  0  0  0  0
   -1.4322   -5.7756   -4.2010 H   0  0  0  0  0  0  0  0  0  0  0  0
   -1.9722   -8.4935    0.3052 H   0  0  0  0  0  0  0  0  0  0  0  0
   -1.4964   -9.1825   -1.2175 H   0  0  0  0  0  0  0  0  0  0  0  0
  1  2  2  0  0  0  0
  1 34  1  0  0  0  0
  1 35  1  0  0  0  0
  2  3  1  0  0  0  0
  2 36  1  0  0  0  0
  3  4  2  0  0  0  0
  3  5  1  0  0  0  0
  5  6  1  0  0  0  0
  5 10  1  0  0  0  0
  6  7  1  0  0  0  0
  6 37  1  0  0  0  0
  6 38  1  0  0  0  0
  7  8  1  0  0  0  0
  7 39  1  0  0  0  0
  7 40  1  0  0  0  0
  8  9  1  0  0  0  0
  8 41  1  0  0  0  0
  8 42  1  0  0  0  0
  9 10  1  0  0  0  0
  9 43  1  1  0  0  0
  9 11  1  0  0  0  0
 10 44  1  0  0  0  0
 10 45  1  0  0  0  0
 11 12  1  0  0  0  0
 11 15  1  0  0  0  0
 12 13  2  0  0  0  0
 12 32  1  0  0  0  0
 13 14  1  0  0  0  0
 13 29  1  0  0  0  0
 14 15  2  0  0  0  0
 14 16  1  0  0  0  0
 16 17  2  0  0  0  0
 16 21  1  0  0  0  0
 17 18  1  0  0  0  0
 17 46  1  0  0  0  0
 18 19  2  0  0  0  0
 18 47  1  0  0  0  0
 19 20  1  0  0  0  0
 19 22  1  0  0  0  0
 20 21  2  0  0  0  0
 20 48  1  0  0  0  0
 21 49  1  0  0  0  0
 22 23  1  0  0  0  0
 23 24  2  0  0  0  0
 23 28  1  0  0  0  0
 24 25  1  0  0  0  0
 24 50  1  0  0  0  0
 25 26  2  0  0  0  0
 25 51  1  0  0  0  0
 26 27  1  0  0  0  0
 26 52  1  0  0  0  0
 27 28  2  0  0  0  0
 27 53  1  0  0  0  0
 28 54  1  0  0  0  0
 29 30  2  0  0  0  0
 29 33  1  0  0  0  0
 30 31  1  0  0  0  0
 31 32  2  0  0  0  0
 31 55  1  0  0  0  0
 33 56  1  0  0  0  0
 33 57  1  0  0  0  0
M  END
>  <DRUGBANK_ID>
DB09053

>  <COMMON_NAME>
Ibrutinib

>  <CAS_NUMBER>
936563-96-1

>  <UNII>
1X70OSD4VX

>  <SYNONYMS>
1-[(3R)-3-[4-Amino-3-(4-phenoxyphenyl)-1H-pyrazolo[3,4-d]pyrimidin-1-yl]piperidin-1-yl]prop-2-en-1-one; Ibrutinib

$$$$
