
 OpenBabel10282417203D

 49 52  0  0  0  0  0  0  0  0999 V2000
    1.9023    1.8289   -0.0064 C   0  0  0  0  0  0  0  0  0  0  0  0
    0.5065    1.6679    0.0195 C   0  0  0  0  0  0  0  0  0  0  0  0
   -0.0517    0.3832    0.0221 C   0  0  0  0  0  0  0  0  0  0  0  0
   -1.3544   -0.1855   -0.0008 C   0  0  0  0  0  0  0  0  0  0  0  0
   -1.2530   -1.5555    0.0300 C   0  0  0  0  0  0  0  0  0  0  0  0
    0.0486   -1.7753    0.3111 N   0  0  0  0  0  0  0  0  0  0  0  0
    0.8196   -0.6727    0.0827 C   0  0  0  0  0  0  0  0  0  0  0  0
    2.2028   -0.5523    0.0149 C   0  0  0  0  0  0  0  0  0  0  0  0
    2.7501    0.7297   -0.0419 C   0  0  0  0  0  0  0  0  0  0  0  0
    3.0395   -1.7478    0.0781 C   0  0  0  0  0  0  0  0  0  0  0  0
    4.2405   -1.5300    0.0415 O   0  0  0  0  0  0  0  0  0  0  0  0
    2.3268   -2.9692    0.1662 N   0  0  0  0  0  0  0  0  0  0  0  0
    1.7089   -3.4176   -1.1049 C   0  0  0  0  0  0  0  0  0  0  0  0
    0.6918   -4.5524   -0.8129 C   0  0  0  0  0  0  0  0  0  0  0  0
    1.2419   -5.7159   -0.1052 N   0  0  0  0  0  0  0  0  0  0  0  0
    1.7848   -5.2856    1.2110 C   0  0  0  0  0  0  0  0  0  0  0  0
    2.7082   -4.0893    1.0433 C   0  0  0  0  0  0  0  0  0  0  0  0
    2.1783   -6.4820   -0.9781 C   0  0  0  0  0  0  0  0  0  0  0  0
    3.5410   -5.9121   -1.6212 C   0  0  0  0  0  0  0  0  0  0  0  0
    4.7354   -5.5173   -0.6965 C   0  0  0  0  0  0  0  0  0  0  0  0
    5.1222   -4.1608   -0.4650 C   0  0  0  0  0  0  0  0  0  0  0  0
    5.6290   -3.7480    0.8141 C   0  0  0  0  0  0  0  0  0  0  0  0
    5.9720   -4.6915    1.7529 C   0  0  0  0  0  0  0  0  0  0  0  0
    5.7666   -6.0307    1.4622 C   0  0  0  0  0  0  0  0  0  0  0  0
    5.1283   -6.4393    0.2731 C   0  0  0  0  0  0  0  0  0  0  0  0
    6.3780   -4.3086    2.9730 F   0  0  0  0  0  0  0  0  0  0  0  0
   -2.5804    0.5478   -0.0315 C   0  0  0  0  0  0  0  0  0  0  0  0
   -3.5357    1.1654   -0.0295 N   0  0  0  0  0  0  0  0  0  0  0  0
    2.3263    2.8273    0.0059 H   0  0  0  0  0  0  0  0  0  0  0  0
   -0.1492    2.5262    0.0510 H   0  0  0  0  0  0  0  0  0  0  0  0
   -1.9667   -2.3713   -0.0053 H   0  0  0  0  0  0  0  0  0  0  0  0
    0.4915   -2.6479    0.5409 H   0  0  0  0  0  0  0  0  0  0  0  0
    3.8316    0.8699   -0.0716 H   0  0  0  0  0  0  0  0  0  0  0  0
    1.2531   -2.5766   -1.6324 H   0  0  0  0  0  0  0  0  0  0  0  0
    2.4857   -3.6509   -1.8198 H   0  0  0  0  0  0  0  0  0  0  0  0
   -0.0910   -4.2120   -0.1278 H   0  0  0  0  0  0  0  0  0  0  0  0
    0.1411   -4.8203   -1.7147 H   0  0  0  0  0  0  0  0  0  0  0  0
    1.0265   -4.9889    1.9413 H   0  0  0  0  0  0  0  0  0  0  0  0
    2.3333   -6.1330    1.6558 H   0  0  0  0  0  0  0  0  0  0  0  0
    3.3079   -4.6188    0.3903 H   0  0  0  0  0  0  0  0  0  0  0  0
    3.3248   -3.8636    1.9125 H   0  0  0  0  0  0  0  0  0  0  0  0
    2.3930   -7.4309   -0.4730 H   0  0  0  0  0  0  0  0  0  0  0  0
    1.5407   -6.7784   -1.8292 H   0  0  0  0  0  0  0  0  0  0  0  0
    3.9077   -6.6730   -2.3139 H   0  0  0  0  0  0  0  0  0  0  0  0
    3.2887   -5.1135   -2.3154 H   0  0  0  0  0  0  0  0  0  0  0  0
    4.6609   -3.3929   -1.0899 H   0  0  0  0  0  0  0  0  0  0  0  0
    5.5199   -2.7282    1.2076 H   0  0  0  0  0  0  0  0  0  0  0  0
    6.0226   -6.7603    2.2166 H   0  0  0  0  0  0  0  0  0  0  0  0
    4.7998   -7.4672    0.1742 H   0  0  0  0  0  0  0  0  0  0  0  0
  1  2  1  0  0  0  0
  1  9  2  0  0  0  0
  1 29  1  0  0  0  0
  2  3  2  0  0  0  0
  2 30  1  0  0  0  0
  3  4  1  0  0  0  0
  3  7  1  0  0  0  0
  4  5  2  0  0  0  0
  4 27  1  0  0  0  0
  5  6  1  0  0  0  0
  5 31  1  0  0  0  0
  6  7  1  0  0  0  0
  6 32  1  0  0  0  0
  7  8  2  0  0  0  0
  8  9  1  0  0  0  0
  8 10  1  0  0  0  0
  9 33  1  0  0  0  0
 10 11  2  0  0  0  0
 10 12  1  0  0  0  0
 12 13  1  0  0  0  0
 12 17  1  0  0  0  0
 13 14  1  0  0  0  0
 13 34  1  0  0  0  0
 13 35  1  0  0  0  0
 14 15  1  0  0  0  0
 14 36  1  0  0  0  0
 14 37  1  0  0  0  0
 15 16  1  0  0  0  0
 15 18  1  0  0  0  0
 16 17  1  0  0  0  0
 16 38  1  0  0  0  0
 16 39  1  0  0  0  0
 17 40  1  0  0  0  0
 17 41  1  0  0  0  0
 18 19  1  0  0  0  0
 18 42  1  0  0  0  0
 18 43  1  0  0  0  0
 19 20  1  0  0  0  0
 19 44  1  0  0  0  0
 19 45  1  0  0  0  0
 20 21  2  0  0  0  0
 20 25  1  0  0  0  0
 21 22  1  0  0  0  0
 21 46  1  0  0  0  0
 22 23  2  0  0  0  0
 22 47  1  0  0  0  0
 23 24  1  0  0  0  0
 23 26  1  0  0  0  0
 24 25  2  0  0  0  0
 24 48  1  0  0  0  0
 25 49  1  0  0  0  0
 27 28  3  0  0  0  0
M  END
>  <DRUGBANK_ID>
DB13094

>  <COMMON_NAME>
Pruvanserin

>  <CAS_NUMBER>
443144-26-1

>  <UNII>
UL09X1D9EM

>  <SYNONYMS>
Pruvanserin

$$$$
