
 OpenBabel10282417153D

 71 71  0  0  1  0  0  0  0  0999 V2000
    0.9780    0.0740   -0.0635 Cl  0  0  0  0  0  0  0  0  0  0  0  0
    0.9059   -0.0158   -0.0299 O   0  0  0  0  0  0  0  0  0  0  0  0
    7.0978    6.1285   -0.0647 O   0  0  0  0  0  0  0  0  0  0  0  0
    0.9934    0.0065    0.0996 O   0  0  0  0  0  0  0  0  0  0  0  0
    3.4079   -5.2025    1.4212 N   0  0  0  0  0  0  0  0  0  0  0  0
    2.9118   -1.2887   -0.0120 N   0  0  0  0  0  0  0  0  0  0  0  0
    5.0154    4.9849   -0.0533 N   0  0  0  0  0  0  0  0  0  0  0  0
    3.8154   -3.9282    0.8121 C   0  0  0  0  0  0  0  0  0  0  0  0
    2.9961   -3.6973   -0.4557 C   0  0  0  0  0  0  0  0  0  0  0  0
    3.5720   -2.7980    1.8106 C   0  0  0  0  0  0  0  0  0  0  0  0
    3.2424   -2.3118   -1.0124 C   0  0  0  0  0  0  0  0  0  0  0  0
    3.7851   -1.4463    1.1496 C   0  0  0  0  0  0  0  0  0  0  0  0
    4.1945   -5.4363    2.6408 C   0  0  0  0  0  0  0  0  0  0  0  0
    1.9791   -5.1476    1.7626 C   0  0  0  0  0  0  0  0  0  0  0  0
    2.1768   -0.0158   -0.0299 C   0  0  0  0  0  0  0  0  0  0  0  0
    3.9519   -4.3038    3.6251 C   0  0  0  0  0  0  0  0  0  0  0  0
    2.9294    1.2876   -0.0483 C   0  0  0  0  0  0  0  0  0  0  0  0
    2.4745   -4.2470    3.9781 C   0  0  0  0  0  0  0  0  0  0  0  0
    2.2487    2.4954   -0.0350 C   0  0  0  0  0  0  0  0  0  0  0  0
    4.3357    1.3055   -0.0489 C   0  0  0  0  0  0  0  0  0  0  0  0
    2.9290    3.6917   -0.0403 C   0  0  0  0  0  0  0  0  0  0  0  0
    5.0446    2.5222   -0.0272 C   0  0  0  0  0  0  0  0  0  0  0  0
    4.3067    3.6971   -0.0399 C   0  0  0  0  0  0  0  0  0  0  0  0
    1.8069   -5.3786    4.1706 C   0  0  0  0  0  0  0  0  0  0  0  0
    1.8502   -3.0160    4.0931 C   0  0  0  0  0  0  0  0  0  0  0  0
    2.1621    5.0041   -0.0465 C   0  0  0  0  0  0  0  0  0  0  0  0
    6.5429    2.6123   -0.0409 C   0  0  0  0  0  0  0  0  0  0  0  0
    0.5157   -5.3577    4.6400 C   0  0  0  0  0  0  0  0  0  0  0  0
    0.5749   -3.0747    4.7031 C   0  0  0  0  0  0  0  0  0  0  0  0
   -0.1433   -4.1753    4.8330 C   0  0  0  0  0  0  0  0  0  0  0  0
    6.4851    5.0151   -0.0531 C   0  0  0  0  0  0  0  0  0  0  0  0
    7.2719    3.7147   -0.0391 C   0  0  0  0  0  0  0  0  0  0  0  0
    6.9208    2.9235    1.2103 C   0  0  0  0  0  0  0  0  0  0  0  0
    2.3080    0.0740   -0.0635 H   0  0  0  0  0  0  0  0  0  0  0  0
    0.6601    0.9193    0.3352 H   0  0  0  0  0  0  0  0  0  0  0  0
    1.9934    0.0065    0.0996 H   0  0  0  0  0  0  0  0  0  0  0  0
    4.4873    5.8575   -0.0627 H   0  0  0  0  0  0  0  0  0  0  0  0
    4.8549   -3.9595    0.5603 H   0  0  0  0  0  0  0  0  0  0  0  0
    3.2909   -4.4182   -1.1895 H   0  0  0  0  0  0  0  0  0  0  0  0
    1.9566   -3.8027   -0.2252 H   0  0  0  0  0  0  0  0  0  0  0  0
    2.5620   -2.8567    2.1590 H   0  0  0  0  0  0  0  0  0  0  0  0
    4.2523   -2.9000    2.6302 H   0  0  0  0  0  0  0  0  0  0  0  0
    4.2768   -2.2216   -1.2705 H   0  0  0  0  0  0  0  0  0  0  0  0
    2.6317   -2.1670   -1.8791 H   0  0  0  0  0  0  0  0  0  0  0  0
    3.5520   -0.6793    1.8583 H   0  0  0  0  0  0  0  0  0  0  0  0
    4.8045   -1.3676    0.8344 H   0  0  0  0  0  0  0  0  0  0  0  0
    3.8979   -6.3639    3.0842 H   0  0  0  0  0  0  0  0  0  0  0  0
    5.2345   -5.4762    2.3923 H   0  0  0  0  0  0  0  0  0  0  0  0
    1.8083   -4.3504    2.4555 H   0  0  0  0  0  0  0  0  0  0  0  0
    1.4066   -4.9774    0.8748 H   0  0  0  0  0  0  0  0  0  0  0  0
    1.6825   -6.0752    2.2059 H   0  0  0  0  0  0  0  0  0  0  0  0
    4.5244   -4.4740    4.5129 H   0  0  0  0  0  0  0  0  0  0  0  0
    4.2485   -3.3762    3.1818 H   0  0  0  0  0  0  0  0  0  0  0  0
    1.1788    2.4975   -0.0204 H   0  0  0  0  0  0  0  0  0  0  0  0
    4.8748    0.3813   -0.0661 H   0  0  0  0  0  0  0  0  0  0  0  0
    2.2786   -6.3152    3.9582 H   0  0  0  0  0  0  0  0  0  0  0  0
    2.2922   -2.1033    3.7516 H   0  0  0  0  0  0  0  0  0  0  0  0
    2.4174    5.5705    0.8246 H   0  0  0  0  0  0  0  0  0  0  0  0
    2.4180    5.5625   -0.9227 H   0  0  0  0  0  0  0  0  0  0  0  0
    1.1112    4.8030   -0.0459 H   0  0  0  0  0  0  0  0  0  0  0  0
    6.9383    2.1095    0.8168 H   0  0  0  0  0  0  0  0  0  0  0  0
    6.9198    2.1514   -0.9299 H   0  0  0  0  0  0  0  0  0  0  0  0
    6.8385    3.6405   -0.0194 H   0  0  0  0  0  0  0  0  0  0  0  0
    0.0187   -6.2800    4.8575 H   0  0  0  0  0  0  0  0  0  0  0  0
    0.1637   -2.1640    5.0858 H   0  0  0  0  0  0  0  0  0  0  0  0
   -1.1848   -4.1435    5.0763 H   0  0  0  0  0  0  0  0  0  0  0  0
    7.0253    3.1392   -0.9068 H   0  0  0  0  0  0  0  0  0  0  0  0
    8.3197    3.9318   -0.0411 H   0  0  0  0  0  0  0  0  0  0  0  0
    5.8730    2.7064    1.2122 H   0  0  0  0  0  0  0  0  0  0  0  0
    7.4747    2.0080    1.2201 H   0  0  0  0  0  0  0  0  0  0  0  0
    7.1674    3.4989    2.0780 H   0  0  0  0  0  0  0  0  0  0  0  0
  1 34  1  0  0  0  0
  2 15  2  0  0  0  0
  3 31  2  0  0  0  0
  4 35  1  0  0  0  0
  4 36  1  0  0  0  0
  5  8  1  0  0  0  0
  5 13  1  0  0  0  0
  5 14  1  0  0  0  0
  6 11  1  0  0  0  0
  6 12  1  0  0  0  0
  6 15  1  0  0  0  0
  7 23  1  0  0  0  0
  7 31  1  0  0  0  0
  7 37  1  0  0  0  0
  8  9  1  0  0  0  0
  8 10  1  0  0  0  0
  8 38  1  0  0  0  0
  9 11  1  0  0  0  0
  9 39  1  0  0  0  0
  9 40  1  0  0  0  0
 10 12  1  0  0  0  0
 10 41  1  0  0  0  0
 10 42  1  0  0  0  0
 11 43  1  0  0  0  0
 11 44  1  0  0  0  0
 12 45  1  0  0  0  0
 12 46  1  0  0  0  0
 13 16  1  0  0  0  0
 13 47  1  0  0  0  0
 13 48  1  0  0  0  0
 14 49  1  0  0  0  0
 14 50  1  0  0  0  0
 14 51  1  0  0  0  0
 15 17  1  0  0  0  0
 16 18  1  0  0  0  0
 16 52  1  0  0  0  0
 16 53  1  0  0  0  0
 17 19  2  0  0  0  0
 17 20  1  0  0  0  0
 18 24  2  0  0  0  0
 18 25  1  0  0  0  0
 19 21  1  0  0  0  0
 19 54  1  0  0  0  0
 20 22  2  0  0  0  0
 20 55  1  0  0  0  0
 21 23  2  0  0  0  0
 21 26  1  0  0  0  0
 22 23  1  0  0  0  0
 22 27  1  0  0  0  0
 24 28  1  0  0  0  0
 24 56  1  0  0  0  0
 25 29  2  0  0  0  0
 25 57  1  0  0  0  0
 26 58  1  0  0  0  0
 26 59  1  0  0  0  0
 26 60  1  0  0  0  0
 27 61  1  0  0  0  0
 27 62  1  0  0  0  0
 27 63  1  0  0  0  0
 28 30  2  0  0  0  0
 28 64  1  0  0  0  0
 29 30  1  0  0  0  0
 29 65  1  0  0  0  0
 30 66  1  0  0  0  0
 31 32  1  0  0  0  0
 32 33  1  0  0  0  0
 32 67  1  0  0  0  0
 32 68  1  0  0  0  0
 33 69  1  0  0  0  0
 33 70  1  0  0  0  0
 33 71  1  0  0  0  0
M  END
>  <DRUGBANK_ID>
DB05461

>  <COMMON_NAME>
OPC-28326

>  <UNII>
FR0M0E7AZM

$$$$
