OBP
 OpenBabel10282417173D

 26 27  0  0  0  0  0  0  0  0999 V2000
   -4.2434   -1.2662   -3.0204 C   0  0  0  0  0  0  0  0  0  0  0  0
   -3.3583   -1.2540   -1.9200 C   0  0  0  0  0  0  0  0  0  0  0  0
   -2.9576   -2.4884   -1.3467 C   0  0  0  0  0  0  0  0  0  0  0  0
   -3.4349   -3.6821   -1.9257 C   0  0  0  0  0  0  0  0  0  0  0  0
   -4.3052   -3.6676   -3.0155 C   0  0  0  0  0  0  0  0  0  0  0  0
   -4.7051   -2.4608   -3.5681 C   0  0  0  0  0  0  0  0  0  0  0  0
   -2.9088    0.0487   -1.4138 C   0  0  0  0  0  0  0  0  0  0  0  0
   -3.8363    0.9296   -0.8300 C   0  0  0  0  0  0  0  0  0  0  0  0
   -3.4072    2.0934   -0.1912 C   0  0  0  0  0  0  0  0  0  0  0  0
   -2.0446    2.3633   -0.0875 C   0  0  0  0  0  0  0  0  0  0  0  0
   -1.1195    1.5264   -0.7045 C   0  0  0  0  0  0  0  0  0  0  0  0
   -1.5597    0.4338   -1.4408 C   0  0  0  0  0  0  0  0  0  0  0  0
   -0.6001   -0.2460   -2.1455 O   0  0  0  0  0  0  0  0  0  0  0  0
   -2.0406   -2.6409    0.2509 S   0  0  2  0  0  0  0  0  0  0  0  0
   -0.9937   -1.5743    0.3275 O   0  0  0  0  0  0  0  0  0  0  0  0
   -1.2557   -3.9705   -0.1814 O   0  0  0  0  0  0  0  0  0  0  0  0
   -4.5890   -0.3265   -3.4512 H   0  0  0  0  0  0  0  0  0  0  0  0
   -3.1464   -4.6488   -1.5250 H   0  0  0  0  0  0  0  0  0  0  0  0
   -4.6854   -4.6036   -3.4163 H   0  0  0  0  0  0  0  0  0  0  0  0
   -5.3746   -2.4443   -4.4243 H   0  0  0  0  0  0  0  0  0  0  0  0
   -4.8999    0.7008   -0.8502 H   0  0  0  0  0  0  0  0  0  0  0  0
   -4.1319    2.7633    0.2621 H   0  0  0  0  0  0  0  0  0  0  0  0
   -1.6969    3.2275    0.4693 H   0  0  0  0  0  0  0  0  0  0  0  0
   -0.0528    1.6886   -0.5842 H   0  0  0  0  0  0  0  0  0  0  0  0
   -0.9848   -1.0711   -2.4818 H   0  0  0  0  0  0  0  0  0  0  0  0
   -1.6534   -4.7331    0.2900 H   0  0  0  0  0  0  0  0  0  0  0  0
  1  2  2  0  0  0  0
  1  6  1  0  0  0  0
  1 17  1  0  0  0  0
  2  3  1  0  0  0  0
  2  7  1  0  0  0  0
  3  4  2  0  0  0  0
  4  5  1  0  0  0  0
  4 18  1  0  0  0  0
  5  6  2  0  0  0  0
  5 19  1  0  0  0  0
  6 20  1  0  0  0  0
  7  8  2  0  0  0  0
  7 12  1  0  0  0  0
  8  9  1  0  0  0  0
  8 21  1  0  0  0  0
  9 10  2  0  0  0  0
  9 22  1  0  0  0  0
 10 11  1  0  0  0  0
 10 23  1  0  0  0  0
 11 12  2  0  0  0  0
 11 24  1  0  0  0  0
 12 13  1  0  0  0  0
 13 25  1  0  0  0  0
 14 16  1  0  0  0  0
 14 15  2  6  0  0  0
 14  3  1  0  0  0  0
 16 26  1  0  0  0  0
M  END
>  <DRUGBANK_ID>
DB08319

>  <COMMON_NAME>
2'-HYDROXY-1,1'-BIPHENYL-2-SULFINIC ACID

$$$$
