
 OpenBabel10282417203D

 42 44  0  0  0  0  0  0  0  0999 V2000
    0.4214    0.1349    0.0649 C   0  0  0  0  0  0  0  0  0  0  0  0
    0.1669    0.0751    1.5104 C   0  0  0  0  0  0  0  0  0  0  0  0
    1.6000   -1.8885    3.6131 C   0  0  0  0  0  0  0  0  0  0  0  0
    2.2252   -2.2980    2.4329 C   0  0  0  0  0  0  0  0  0  0  0  0
    2.1890   -2.1336    4.8358 C   0  0  0  0  0  0  0  0  0  0  0  0
    3.4525   -2.9314    2.4767 C   0  0  0  0  0  0  0  0  0  0  0  0
    3.4758   -2.6580    4.8698 C   0  0  0  0  0  0  0  0  0  0  0  0
    5.2899   -0.1522    3.6430 C   0  0  0  0  0  0  0  0  0  0  0  0
    6.5878   -1.0203    3.8477 C   0  0  0  0  0  0  0  0  0  0  0  0
    5.6218   -3.3348    3.6778 C   0  0  0  0  0  0  0  0  0  0  0  0
    6.5349   -2.1020    1.7188 C   0  0  0  0  0  0  0  0  0  0  0  0
    4.1450   -3.0077    3.6824 C   0  0  0  0  0  0  0  0  0  0  0  0
    4.8257   -0.2058    2.1688 C   0  0  0  0  0  0  0  0  0  0  0  0
    5.5127   -1.0784    1.3382 C   0  0  0  0  0  0  0  0  0  0  0  0
    3.5841    0.3300    1.4579 C   0  0  0  0  0  0  0  0  0  0  0  0
    3.6967   -0.0338    0.0830 C   0  0  0  0  0  0  0  0  0  0  0  0
    2.5274    1.1284    2.2176 C   0  0  0  0  0  0  0  0  0  0  0  0
    3.0428    0.1506   -1.0975 N   0  0  0  0  0  0  0  0  0  0  0  0
    6.5824   -2.3289    3.1643 N   0  0  0  0  0  0  0  0  0  0  0  0
    2.9237    1.9895    3.0274 O   0  0  0  0  0  0  0  0  0  0  0  0
    1.1391    0.9434    2.2007 O   0  0  0  0  0  0  0  0  0  0  0  0
    5.0378   -1.0377   -0.2546 S   0  0  0  0  0  0  0  0  0  0  0  0
    0.1693    1.0748   -0.4207 H   0  0  0  0  0  0  0  0  0  0  0  0
    0.1889   -0.7581   -0.5144 H   0  0  0  0  0  0  0  0  0  0  0  0
    1.4670    0.1300    0.1508 H   0  0  0  0  0  0  0  0  0  0  0  0
   -0.8622    0.3475    1.7601 H   0  0  0  0  0  0  0  0  0  0  0  0
    0.2570   -0.9553    1.8118 H   0  0  0  0  0  0  0  0  0  0  0  0
    0.6757   -1.3210    3.6312 H   0  0  0  0  0  0  0  0  0  0  0  0
    1.8618   -2.0383    1.4420 H   0  0  0  0  0  0  0  0  0  0  0  0
    1.6679   -1.8309    5.7384 H   0  0  0  0  0  0  0  0  0  0  0  0
    3.9322   -3.1813    1.5348 H   0  0  0  0  0  0  0  0  0  0  0  0
    3.9921   -2.6823    5.8234 H   0  0  0  0  0  0  0  0  0  0  0  0
    4.5334   -0.5309    4.3268 H   0  0  0  0  0  0  0  0  0  0  0  0
    5.4871    0.8686    3.9828 H   0  0  0  0  0  0  0  0  0  0  0  0
    6.8393   -1.1697    4.9042 H   0  0  0  0  0  0  0  0  0  0  0  0
    7.4379   -0.4469    3.4416 H   0  0  0  0  0  0  0  0  0  0  0  0
    5.7369   -4.2704    3.1145 H   0  0  0  0  0  0  0  0  0  0  0  0
    5.9156   -3.5861    4.7028 H   0  0  0  0  0  0  0  0  0  0  0  0
    7.5089   -1.7498    1.3569 H   0  0  0  0  0  0  0  0  0  0  0  0
    6.3446   -3.0483    1.1937 H   0  0  0  0  0  0  0  0  0  0  0  0
    2.2399    0.7352   -1.2866 H   0  0  0  0  0  0  0  0  0  0  0  0
    3.0833   -0.6443   -1.7410 H   0  0  0  0  0  0  0  0  0  0  0  0
  1 23  1  0  0  0  0
  1 24  1  0  0  0  0
  1 25  1  0  0  0  0
  2  1  1  0  0  0  0
  2 26  1  0  0  0  0
  2 27  1  0  0  0  0
  3 28  1  0  0  0  0
  4  3  2  0  0  0  0
  4 29  1  0  0  0  0
  5  3  1  0  0  0  0
  5 30  1  0  0  0  0
  6  4  1  0  0  0  0
  6 31  1  0  0  0  0
  7  5  2  0  0  0  0
  7 32  1  0  0  0  0
  8 33  1  0  0  0  0
  8 34  1  0  0  0  0
  9  8  1  0  0  0  0
  9 35  1  0  0  0  0
  9 36  1  0  0  0  0
 10 37  1  0  0  0  0
 10 38  1  0  0  0  0
 11 39  1  0  0  0  0
 11 40  1  0  0  0  0
 12  6  2  0  0  0  0
 12  7  1  0  0  0  0
 12 10  1  0  0  0  0
 13  8  1  0  0  0  0
 14 11  1  0  0  0  0
 14 13  2  0  0  0  0
 15 13  1  0  0  0  0
 16 15  2  0  0  0  0
 17 15  1  0  0  0  0
 18 16  1  0  0  0  0
 18 41  1  0  0  0  0
 18 42  1  0  0  0  0
 19  9  1  0  0  0  0
 19 10  1  0  0  0  0
 19 11  1  0  0  0  0
 20 17  2  0  0  0  0
 21  2  1  0  0  0  0
 21 17  1  0  0  0  0
 22 14  1  0  0  0  0
 22 16  1  0  0  0  0
M  END
>  <DRUGBANK_ID>
DB13001

>  <COMMON_NAME>
Tinoridine

>  <CAS_NUMBER>
24237-54-5

>  <UNII>
C9Z9ICZ7YR

>  <SYNONYMS>
Tinoridine

$$$$
