
 OpenBabel10282417103D

 48 49  0  0  0  0  0  0  0  0999 V2000
   -1.6154    1.6045    0.0250 N   0  0  0  0  0  0  0  0  0  0  0  0
   -2.9122    1.2596    0.0307 C   0  0  0  0  0  0  0  0  0  0  0  0
   -1.0313   -0.7471   -0.0140 C   0  0  0  0  0  0  0  0  0  0  0  0
   -2.3966   -1.0731   -0.0429 C   0  0  0  0  0  0  0  0  0  0  0  0
   -0.7055    0.6065    0.0060 C   0  0  0  0  0  0  0  0  0  0  0  0
    0.6371    0.9491   -0.0049 C   0  0  0  0  0  0  0  0  0  0  0  0
   -0.0199   -1.7454   -0.0130 C   0  0  0  0  0  0  0  0  0  0  0  0
    1.6313   -0.0337   -0.0022 C   0  0  0  0  0  0  0  0  0  0  0  0
   -3.3377   -0.0348   -0.0025 C   0  0  0  0  0  0  0  0  0  0  0  0
    1.3149   -1.3786    0.0021 C   0  0  0  0  0  0  0  0  0  0  0  0
    3.2834    0.4364    0.0034 Cl  0  0  0  0  0  0  0  0  0  0  0  0
   -2.7601   -2.3859   -0.2867 N   0  0  0  0  0  0  0  0  0  0  0  0
   -5.7405   -6.3341    0.1196 N   0  0  0  0  0  0  0  0  0  0  0  0
   -4.1167   -2.7583   -0.0513 C   0  0  3  0  0  0  0  0  0  0  0  0
   -3.8985   -5.0755   -1.2688 C   0  0  0  0  0  0  0  0  0  0  0  0
   -4.3182   -6.0024   -0.1270 C   0  0  0  0  0  0  0  0  0  0  0  0
   -5.8780   -7.1560    1.3398 C   0  0  0  0  0  0  0  0  0  0  0  0
   -6.8149   -5.3191    0.0551 C   0  0  0  0  0  0  0  0  0  0  0  0
   -4.4555   -3.6642   -1.2465 C   0  0  0  0  0  0  0  0  0  0  0  0
   -4.1716   -3.0490    1.4494 C   0  0  0  0  0  0  0  0  0  0  0  0
   -5.4589   -6.5497    2.6912 C   0  0  0  0  0  0  0  0  0  0  0  0
   -6.7926   -4.3099    1.1709 C   0  0  0  0  0  0  0  0  0  0  0  0
   -3.6384    2.0680    0.0408 H   0  0  0  0  0  0  0  0  0  0  0  0
    0.8948    1.9975   -0.0156 H   0  0  0  0  0  0  0  0  0  0  0  0
   -0.2447   -2.8044   -0.0175 H   0  0  0  0  0  0  0  0  0  0  0  0
   -4.4092   -0.1904   -0.0136 H   0  0  0  0  0  0  0  0  0  0  0  0
    2.0785   -2.1508    0.0119 H   0  0  0  0  0  0  0  0  0  0  0  0
   -2.1141   -3.1017    0.0291 H   0  0  0  0  0  0  0  0  0  0  0  0
   -4.8461   -1.9632   -0.2023 H   0  0  0  0  0  0  0  0  0  0  0  0
   -4.1380   -5.5479   -2.2293 H   0  0  0  0  0  0  0  0  0  0  0  0
   -2.7990   -4.9944   -1.2645 H   0  0  0  0  0  0  0  0  0  0  0  0
   -3.7890   -6.9491   -0.3179 H   0  0  0  0  0  0  0  0  0  0  0  0
   -3.8163   -5.6511    0.7701 H   0  0  0  0  0  0  0  0  0  0  0  0
   -6.9273   -7.4605    1.4106 H   0  0  0  0  0  0  0  0  0  0  0  0
   -5.3049   -8.0762    1.1908 H   0  0  0  0  0  0  0  0  0  0  0  0
   -6.7776   -4.7960   -0.8951 H   0  0  0  0  0  0  0  0  0  0  0  0
   -7.8034   -5.7830    0.0322 H   0  0  0  0  0  0  0  0  0  0  0  0
   -5.5190   -3.6280   -1.4585 H   0  0  0  0  0  0  0  0  0  0  0  0
   -4.0603   -3.1666   -2.1518 H   0  0  0  0  0  0  0  0  0  0  0  0
   -3.6225   -2.3874    2.1250 H   0  0  0  0  0  0  0  0  0  0  0  0
   -5.1748   -2.8139    1.7925 H   0  0  0  0  0  0  0  0  0  0  0  0
   -3.8061   -4.0400    1.7083 H   0  0  0  0  0  0  0  0  0  0  0  0
   -6.1336   -5.7706    3.0425 H   0  0  0  0  0  0  0  0  0  0  0  0
   -5.4997   -7.3057    3.4758 H   0  0  0  0  0  0  0  0  0  0  0  0
   -4.4514   -6.1254    2.6812 H   0  0  0  0  0  0  0  0  0  0  0  0
   -5.7684   -4.3960    1.4525 H   0  0  0  0  0  0  0  0  0  0  0  0
   -7.0367   -3.2928    0.8526 H   0  0  0  0  0  0  0  0  0  0  0  0
   -7.2857   -4.4899    2.1286 H   0  0  0  0  0  0  0  0  0  0  0  0
  1  2  2  0  0  0  0
  2  9  1  0  0  0  0
  2 23  1  0  0  0  0
  3  4  1  0  0  0  0
  3  5  1  0  0  0  0
  3  7  2  0  0  0  0
  5  1  1  0  0  0  0
  6  5  2  0  0  0  0
  6 24  1  0  0  0  0
  7 10  1  0  0  0  0
  7 25  1  0  0  0  0
  8  6  1  0  0  0  0
  9  4  2  0  0  0  0
  9 26  1  0  0  0  0
 10  8  2  0  0  0  0
 10 27  1  0  0  0  0
 11  8  1  0  0  0  0
 12  4  1  0  0  0  0
 12 28  1  0  0  0  0
 14 12  1  0  0  0  0
 14 29  1  0  0  0  0
 15 30  1  0  0  0  0
 15 31  1  0  0  0  0
 16 13  1  0  0  0  0
 16 15  1  0  0  0  0
 16 32  1  0  0  0  0
 16 33  1  0  0  0  0
 17 13  1  0  0  0  0
 17 34  1  0  0  0  0
 17 35  1  0  0  0  0
 18 13  1  0  0  0  0
 18 36  1  0  0  0  0
 18 37  1  0  0  0  0
 19 14  1  0  0  0  0
 19 15  1  0  0  0  0
 19 38  1  0  0  0  0
 19 39  1  0  0  0  0
 20 14  1  0  0  0  0
 20 40  1  0  0  0  0
 20 41  1  0  0  0  0
 20 42  1  0  0  0  0
 21 17  1  0  0  0  0
 21 43  1  0  0  0  0
 21 44  1  0  0  0  0
 21 45  1  0  0  0  0
 22 18  1  0  0  0  0
 22 46  1  0  0  0  0
 22 47  1  0  0  0  0
 22 48  1  0  0  0  0
M  END
>  <DRUGBANK_ID>
DB00608

>  <SECONDARY_ACCESSION_NUMBERS>
APRD00468

>  <COMMON_NAME>
Chloroquine

>  <CAS_NUMBER>
54-05-7

>  <UNII>
886U3H6UFF

>  <SYNONYMS>
Chloraquine; Chlorochin; Chloroquina; Chloroquine; Chloroquinium; Chloroquinum; Cloroquina; N4-(7-chloro-4-quinolinyl)-N1,N1-diethyl-1,4-pentanediamine

$$$$
