
 OpenBabel10282417213D

181186  0  0  0  0  0  0  0  0999 V2000
    0.9894    0.0843   -0.0527 C   0  0  0  0  0  0  0  0  0  0  0  0
   -0.5831    0.6945    2.3973 C   0  0  0  0  0  0  0  0  0  0  0  0
    4.6563   -9.2502    5.8394 C   0  0  0  0  0  0  0  0  0  0  0  0
    3.3456   -8.5585    1.2189 C   0  0  0  0  0  0  0  0  0  0  0  0
   -1.0420   -0.8543    5.3237 C   0  0  0  0  0  0  0  0  0  0  0  0
   -0.7887   -7.7545    7.8770 C   0  0  0  0  0  0  0  0  0  0  0  0
   -1.6511   -8.2469   10.1008 C   0  0  0  0  0  0  0  0  0  0  0  0
    4.9543   -5.6007    4.5305 C   0  0  0  0  0  0  0  0  0  0  0  0
   -3.6896   -1.3565    6.7683 C   0  0  0  0  0  0  0  0  0  0  0  0
   -1.3727   -5.1337    2.3977 C   0  0  0  0  0  0  0  0  0  0  0  0
    0.9334   -3.6703    1.2247 C   0  0  0  0  0  0  0  0  0  0  0  0
   -4.7788   -3.8608    8.7701 C   0  0  0  0  0  0  0  0  0  0  0  0
    0.7852   -8.2660   11.2872 C   0  0  0  0  0  0  0  0  0  0  0  0
   -1.6533   -5.3019    5.1729 C   0  0  0  0  0  0  0  0  0  0  0  0
   -4.8189   -4.2642   10.2350 C   0  0  0  0  0  0  0  0  0  0  0  0
    0.3500   -7.1572   12.2314 C   0  0  0  0  0  0  0  0  0  0  0  0
   -2.1109   -4.6926    6.4881 C   0  0  0  0  0  0  0  0  0  0  0  0
    2.3452   -8.1459    4.9480 C   0  0  0  0  0  0  0  0  0  0  0  0
    3.2249   -7.0279    5.4833 C   0  0  0  0  0  0  0  0  0  0  0  0
    0.8584   -2.2914    0.5665 C   0  0  0  0  0  0  0  0  0  0  0  0
   -0.4572   -1.7338    2.9550 C   0  0  0  0  0  0  0  0  0  0  0  0
    3.0619   -3.6531    5.2643 C   0  0  0  0  0  0  0  0  0  0  0  0
   -2.0844   -5.1385    9.5812 C   0  0  0  0  0  0  0  0  0  0  0  0
   -4.1190   -3.6420    6.0447 C   0  0  0  0  0  0  0  0  0  0  0  0
    0.4870   -6.5251    3.0628 C   0  0  0  0  0  0  0  0  0  0  0  0
    2.9505  -10.8876    5.0843 C   0  0  0  0  0  0  0  0  0  0  0  0
   -2.1554   -7.8651    5.1995 C   0  0  0  0  0  0  0  0  0  0  0  0
    0.2873   -5.1857    2.6436 C   0  0  0  0  0  0  0  0  0  0  0  0
    0.4827   -1.0048    0.8787 C   0  0  0  0  0  0  0  0  0  0  0  0
   -0.1745   -0.7330    2.0720 C   0  0  0  0  0  0  0  0  0  0  0  0
    3.6356  -10.2792    6.2972 C   0  0  2  0  0  0  0  0  0  0  0  0
    3.6735   -8.0380    2.6089 C   0  0  0  0  0  0  0  0  0  0  0  0
   -1.0604   -2.3618    5.5174 C   0  0  0  0  0  0  0  0  0  0  0  0
   -3.4404   -3.2103    8.4601 C   0  0  1  0  0  0  0  0  0  0  0  0
    0.8088   -7.7456    9.8592 C   0  0  2  0  0  0  0  0  0  0  0  0
   -0.3460   -4.7098    4.6721 C   0  0  2  0  0  0  0  0  0  0  0  0
    2.5287   -4.8298    4.4633 C   0  0  1  0  0  0  0  0  0  0  0  0
   -2.2224   -4.1411    8.6664 C   0  0  0  0  0  0  0  0  0  0  0  0
    0.5853   -3.3241    1.4569 C   0  0  0  0  0  0  0  0  0  0  0  0
   -0.0848   -3.0517    2.6617 C   0  0  0  0  0  0  0  0  0  0  0  0
   -1.2421   -6.7632    4.6875 C   0  0  2  0  0  0  0  0  0  0  0  0
   -0.8012   -5.9517    9.6313 C   0  0  0  0  0  0  0  0  0  0  0  0
   -4.6415   -3.0306   11.1052 C   0  0  0  0  0  0  0  0  0  0  0  0
   -1.0513   -6.6985   11.8625 C   0  0  0  0  0  0  0  0  0  0  0  0
   -2.1897   -3.1813    6.3461 C   0  0  0  0  0  0  0  0  0  0  0  0
    2.0457   -2.5230    5.2422 C   0  0  0  0  0  0  0  0  0  0  0  0
   -5.6147   -3.3984    6.1626 C   0  0  0  0  0  0  0  0  0  0  0  0
   -0.3126   -7.7159    2.5597 C   0  0  0  0  0  0  0  0  0  0  0  0
    3.0568   -8.8458    3.8016 C   0  0  0  0  0  0  0  0  0  0  0  0
    1.4842   -6.3567    9.7743 C   0  0  0  0  0  0  0  0  0  0  0  0
   -0.4255   -3.1699    4.6261 C   0  0  0  0  0  0  0  0  0  0  0  0
    0.1196   -4.9505    5.6698 C   0  0  2  0  0  0  0  0  0  0  0  0
   -0.1169   -6.4707    5.7014 C   0  0  2  0  0  0  0  0  0  0  0  0
    3.2325   -6.6432    3.0217 C   0  0  0  0  0  0  0  0  0  0  0  0
   -1.7883   -2.9663    6.7071 C   0  0  0  0  0  0  0  0  0  0  0  0
    2.2880   -4.5189    2.9673 C   0  0  3  0  0  0  0  0  0  0  0  0
   -0.8707   -4.3722    4.6374 C   0  0  1  0  0  0  0  0  0  0  0  0
   -0.6162   -7.4242    9.3507 C   0  0  0  0  0  0  0  0  0  0  0  0
    3.5038   -6.0272    4.3738 C   0  0  1  0  0  0  0  0  0  0  0  0
   -3.2647   -2.8006    6.9789 C   0  0  2  0  0  0  0  0  0  0  0  0
   -0.0837   -5.1232    3.2031 C   0  0  2  0  0  0  0  0  0  0  0  0
    0.8791   -4.0127    2.7046 C   0  0  2  0  0  0  0  0  0  0  0  0
   -5.5817   -2.6871   11.9589 N   0  0  0  0  0  0  0  0  0  0  0  0
   -2.0266   -6.7921   12.7406 N   0  0  0  0  0  0  0  0  0  0  0  0
   -3.3348   -2.5616    6.5348 N   0  0  0  0  0  0  0  0  0  0  0  0
    1.5307   -2.0793    6.3686 N   0  0  0  0  0  0  0  0  0  0  0  0
   -6.2955   -2.9703    5.1214 N   0  0  0  0  0  0  0  0  0  0  0  0
    0.0207   -8.3020    1.4299 N   0  0  0  0  0  0  0  0  0  0  0  0
    3.3316  -10.1297    3.8838 N   0  0  0  0  0  0  0  0  0  0  0  0
    0.8141   -4.6821    1.4462 N   0  0  0  0  0  0  0  0  0  0  0  0
   -1.2192   -3.6970    7.6264 N   0  0  0  0  0  0  0  0  0  0  0  0
    0.3433   -5.3689    9.8623 N   0  0  0  0  0  0  0  0  0  0  0  0
    2.5699   -5.8217    2.2543 N   0  0  0  0  0  0  0  0  0  0  0  0
    0.3534   -2.7262    3.3753 N   0  0  0  0  0  0  0  0  0  0  0  0
   -0.2251   -4.2223    3.3253 N   0  3  0  0  0  0  0  0  0  0  0  0
   -1.7618   -9.0518    5.8727 O   0  0  0  0  0  0  0  0  0  0  0  0
   -3.4608   -2.2491   10.9968 O   0  5  0  0  0  0  0  0  0  0  0  0
   -1.3079   -6.1688   10.5702 O   0  5  0  0  0  0  0  0  0  0  0  0
   -1.0273   -2.4382    6.0098 O   0  5  0  0  0  0  0  0  0  0  0  0
    1.6521   -1.9462    4.0058 O   0  0  0  0  0  0  0  0  0  0  0  0
   -6.2772   -3.6328    7.3965 O   0  0  0  0  0  0  0  0  0  0  0  0
   -1.4192   -8.1957    3.3090 O   0  0  0  0  0  0  0  0  0  0  0  0
    3.4250   -8.1137    2.6419 O   0  0  0  0  0  0  0  0  0  0  0  0
    1.4554   -4.6704    5.2779 O   0  0  0  0  0  0  0  0  0  0  0  0
    0.6044   -8.3641    7.4077 O   0  0  0  0  0  0  0  0  0  0  0  0
    1.7569   -9.3524    5.0068 O   0  0  0  0  0  0  0  0  0  0  0  0
   -2.0102   -5.4237    4.5717 O   0  0  0  0  0  0  0  0  0  0  0  0
    2.6662   -9.6499    7.1222 O   0  0  0  0  0  0  0  0  0  0  0  0
    1.0684   -7.1587    5.3298 O   0  0  0  0  0  0  0  0  0  0  0  0
    1.8673   -8.4043    6.2260 P   0  0  3  0  0  0  0  0  0  0  0  0
    1.0851    0.0524   -0.0017 C   0  5  0  0  0  0  0  0  0  0  0  0
    2.3461    0.0524   -0.0017 N   0  0  0  0  0  0  0  0  0  0  0  0
    0.9095   -0.0423    0.0034 Co  0  1  0  0  0  0  0  0  0  0  0  0
    4.1297  -11.0496    6.8515 H   0  0  0  0  0  0  0  0  0  0  0  0
   -3.3978   -2.3604    9.1088 H   0  0  0  0  0  0  0  0  0  0  0  0
    1.3096   -8.5101    9.3026 H   0  0  0  0  0  0  0  0  0  0  0  0
    0.4151   -5.0603    5.3376 H   0  0  0  0  0  0  0  0  0  0  0  0
    1.6195   -5.1017    4.9577 H   0  0  0  0  0  0  0  0  0  0  0  0
   -0.8654   -7.1013    3.7448 H   0  0  0  0  0  0  0  0  0  0  0  0
   -0.0320   -4.5160    6.6358 H   0  0  0  0  0  0  0  0  0  0  0  0
   -0.3876   -6.7987    6.6833 H   0  0  0  0  0  0  0  0  0  0  0  0
    2.9536   -3.7522    2.6295 H   0  0  0  0  0  0  0  0  0  0  0  0
   -1.2254   -3.4000    4.9094 H   0  0  0  0  0  0  0  0  0  0  0  0
    0.6327    1.0355    0.2835 H   0  0  0  0  0  0  0  0  0  0  0  0
    0.6327   -0.1001   -1.0445 H   0  0  0  0  0  0  0  0  0  0  0  0
    2.0594    0.0843   -0.0527 H   0  0  0  0  0  0  0  0  0  0  0  0
   -1.6453    0.7430    2.5169 H   0  0  0  0  0  0  0  0  0  0  0  0
   -0.1075    1.0036    3.3046 H   0  0  0  0  0  0  0  0  0  0  0  0
   -0.2841    1.3417    1.5994 H   0  0  0  0  0  0  0  0  0  0  0  0
    5.2698   -9.0085    6.6821 H   0  0  0  0  0  0  0  0  0  0  0  0
    5.2654   -9.6584    5.0602 H   0  0  0  0  0  0  0  0  0  0  0  0
    4.1710   -8.3645    5.4858 H   0  0  0  0  0  0  0  0  0  0  0  0
    2.2842   -8.5727    1.0846 H   0  0  0  0  0  0  0  0  0  0  0  0
    3.7895   -7.9191    0.4847 H   0  0  0  0  0  0  0  0  0  0  0  0
    3.7324   -9.5501    1.1090 H   0  0  0  0  0  0  0  0  0  0  0  0
   -2.0449   -0.4953    5.2228 H   0  0  0  0  0  0  0  0  0  0  0  0
   -0.5811   -0.3914    6.1712 H   0  0  0  0  0  0  0  0  0  0  0  0
   -0.4870   -0.6149    4.4408 H   0  0  0  0  0  0  0  0  0  0  0  0
   -0.6285   -8.8014    7.7250 H   0  0  0  0  0  0  0  0  0  0  0  0
   -1.7799   -7.4967    7.5673 H   0  0  0  0  0  0  0  0  0  0  0  0
   -0.0790   -7.1978    7.3013 H   0  0  0  0  0  0  0  0  0  0  0  0
   -1.5463   -8.0789   11.1523 H   0  0  0  0  0  0  0  0  0  0  0  0
   -2.6324   -7.9556    9.7892 H   0  0  0  0  0  0  0  0  0  0  0  0
   -1.5032   -9.2852    9.8890 H   0  0  0  0  0  0  0  0  0  0  0  0
    5.0925   -5.1529    5.4924 H   0  0  0  0  0  0  0  0  0  0  0  0
    5.5895   -6.4571    4.4411 H   0  0  0  0  0  0  0  0  0  0  0  0
    5.2019   -4.8918    3.7682 H   0  0  0  0  0  0  0  0  0  0  0  0
   -3.0832   -0.4764    6.7177 H   0  0  0  0  0  0  0  0  0  0  0  0
   -4.2522   -1.4546    5.8634 H   0  0  0  0  0  0  0  0  0  0  0  0
   -4.3601   -1.2804    7.5987 H   0  0  0  0  0  0  0  0  0  0  0  0
   -1.9058   -4.2213    2.5659 H   0  0  0  0  0  0  0  0  0  0  0  0
   -1.1422   -5.2254    1.3569 H   0  0  0  0  0  0  0  0  0  0  0  0
   -1.9775   -5.9617    2.7034 H   0  0  0  0  0  0  0  0  0  0  0  0
    1.6831   -2.9254    1.0582 H   0  0  0  0  0  0  0  0  0  0  0  0
    1.1733   -4.5494    0.6638 H   0  0  0  0  0  0  0  0  0  0  0  0
   -0.0181   -3.2953    0.9102 H   0  0  0  0  0  0  0  0  0  0  0  0
   -5.5678   -3.1664    8.5696 H   0  0  0  0  0  0  0  0  0  0  0  0
   -4.9037   -4.7291    8.1575 H   0  0  0  0  0  0  0  0  0  0  0  0
    0.1074   -9.0899   11.3681 H   0  0  0  0  0  0  0  0  0  0  0  0
    1.7717   -8.5889   11.5468 H   0  0  0  0  0  0  0  0  0  0  0  0
   -2.3519   -5.0520    4.4019 H   0  0  0  0  0  0  0  0  0  0  0  0
   -1.5979   -6.3658    5.2728 H   0  0  0  0  0  0  0  0  0  0  0  0
   -5.7610   -4.7221   10.4532 H   0  0  0  0  0  0  0  0  0  0  0  0
   -4.0299   -4.9586   10.4354 H   0  0  0  0  0  0  0  0  0  0  0  0
    0.3523   -7.5235   13.2368 H   0  0  0  0  0  0  0  0  0  0  0  0
    1.0279   -6.3333   12.1505 H   0  0  0  0  0  0  0  0  0  0  0  0
   -3.0761   -5.0777    6.7429 H   0  0  0  0  0  0  0  0  0  0  0  0
   -1.4123   -4.9425    7.2591 H   0  0  0  0  0  0  0  0  0  0  0  0
    1.4213   -7.7358    4.5970 H   0  0  0  0  0  0  0  0  0  0  0  0
    2.1488   -8.8504    5.7290 H   0  0  0  0  0  0  0  0  0  0  0  0
    2.7239   -6.5353    6.2903 H   0  0  0  0  0  0  0  0  0  0  0  0
    4.1488   -7.4380    5.8343 H   0  0  0  0  0  0  0  0  0  0  0  0
    1.3583   -2.4962   -0.3571 H   0  0  0  0  0  0  0  0  0  0  0  0
   -0.9632   -1.5120    3.8713 H   0  0  0  0  0  0  0  0  0  0  0  0
    3.2339   -3.9584    6.2753 H   0  0  0  0  0  0  0  0  0  0  0  0
    3.9808   -3.3150    4.8327 H   0  0  0  0  0  0  0  0  0  0  0  0
   -2.8792   -5.3506   10.2655 H   0  0  0  0  0  0  0  0  0  0  0  0
   -3.7977   -3.4135    5.0500 H   0  0  0  0  0  0  0  0  0  0  0  0
   -3.9066   -4.6681    6.2613 H   0  0  0  0  0  0  0  0  0  0  0  0
    1.2760   -6.3083    2.3733 H   0  0  0  0  0  0  0  0  0  0  0  0
    0.9037   -6.7545    4.0212 H   0  0  0  0  0  0  0  0  0  0  0  0
    3.2524  -11.9080    4.9727 H   0  0  0  0  0  0  0  0  0  0  0  0
    1.8893  -10.8416    5.2131 H   0  0  0  0  0  0  0  0  0  0  0  0
   -2.7803   -7.2810    5.8423 H   0  0  0  0  0  0  0  0  0  0  0  0
   -2.6963   -8.1209    4.3125 H   0  0  0  0  0  0  0  0  0  0  0  0
    0.3081   -6.2124    2.9441 H   0  0  0  0  0  0  0  0  0  0  0  0
   -6.4298   -3.2485   12.0368 H   0  0  0  0  0  0  0  0  0  0  0  0
   -1.8424   -7.1725   13.6689 H   0  0  0  0  0  0  0  0  0  0  0  0
   -4.1698   -3.0954    6.7764 H   0  0  0  0  0  0  0  0  0  0  0  0
    1.8134   -2.4936    7.2568 H   0  0  0  0  0  0  0  0  0  0  0  0
   -5.8197   -2.8019    4.2350 H   0  0  0  0  0  0  0  0  0  0  0  0
    0.8156   -7.9573    0.8917 H   0  0  0  0  0  0  0  0  0  0  0  0
    1.2765   -5.2168    0.7108 H   0  0  0  0  0  0  0  0  0  0  0  0
    0.4945   -1.7690    3.0526 H   0  0  0  0  0  0  0  0  0  0  0  0
   -1.1778   -9.5977    5.2720 H   0  0  0  0  0  0  0  0  0  0  0  0
    0.9835   -1.2027    3.9912 H   0  0  0  0  0  0  0  0  0  0  0  0
   -7.2612   -3.4725    7.4741 H   0  0  0  0  0  0  0  0  0  0  0  0
   -1.9452   -8.9792    2.9780 H   0  0  0  0  0  0  0  0  0  0  0  0
    3.2161   -7.1378    2.5794 H   0  0  0  0  0  0  0  0  0  0  0  0
    2.3189   -4.1663    5.2980 H   0  0  0  0  0  0  0  0  0  0  0  0
    0.8361   -7.7024    8.1208 H   0  0  0  0  0  0  0  0  0  0  0  0
  1104  1  0  0  0  0
  1105  1  0  0  0  0
  1106  1  0  0  0  0
  2107  1  0  0  0  0
  2108  1  0  0  0  0
  2109  1  0  0  0  0
  3110  1  0  0  0  0
  3111  1  0  0  0  0
  3112  1  0  0  0  0
  4113  1  0  0  0  0
  4114  1  0  0  0  0
  4115  1  0  0  0  0
  5116  1  0  0  0  0
  5117  1  0  0  0  0
  5118  1  0  0  0  0
  6119  1  0  0  0  0
  6120  1  0  0  0  0
  6121  1  0  0  0  0
  7122  1  0  0  0  0
  7123  1  0  0  0  0
  7124  1  0  0  0  0
  8125  1  0  0  0  0
  8126  1  0  0  0  0
  8127  1  0  0  0  0
  9128  1  0  0  0  0
  9129  1  0  0  0  0
  9130  1  0  0  0  0
 10131  1  0  0  0  0
 10132  1  0  0  0  0
 10133  1  0  0  0  0
 11134  1  0  0  0  0
 11135  1  0  0  0  0
 11136  1  0  0  0  0
 12137  1  0  0  0  0
 12138  1  0  0  0  0
 13139  1  0  0  0  0
 13140  1  0  0  0  0
 14141  1  0  0  0  0
 14142  1  0  0  0  0
 15 12  1  0  0  0  0
 15143  1  0  0  0  0
 15144  1  0  0  0  0
 16 13  1  0  0  0  0
 16145  1  0  0  0  0
 16146  1  0  0  0  0
 17 14  1  0  0  0  0
 17147  1  0  0  0  0
 17148  1  0  0  0  0
 18149  1  0  0  0  0
 18150  1  0  0  0  0
 19 18  1  0  0  0  0
 19151  1  0  0  0  0
 19152  1  0  0  0  0
 20153  1  0  0  0  0
 21154  1  0  0  0  0
 22155  1  0  0  0  0
 22156  1  0  0  0  0
 23 42  1  0  0  0  0
 23157  1  0  0  0  0
 24158  1  0  0  0  0
 24159  1  0  0  0  0
 25160  1  0  0  0  0
 25161  1  0  0  0  0
 26162  1  0  0  0  0
 26163  1  0  0  0  0
 27164  1  0  0  0  0
 27165  1  0  0  0  0
 28166  1  0  0  0  0
 29  1  1  0  0  0  0
 29 20  2  0  0  0  0
 30  2  1  0  0  0  0
 30 21  2  0  0  0  0
 30 29  1  0  0  0  0
 31 88  1  0  0  0  0
 31 94  1  1  0  0  0
 31 26  1  0  0  0  0
 31  3  1  0  0  0  0
 32  4  1  0  0  0  0
 33  5  1  0  0  0  0
 34 12  1  0  0  0  0
 34 38  1  0  0  0  0
 34 60  1  0  0  0  0
 34 95  1  1  0  0  0
 35 50  1  0  0  0  0
 35 58  1  0  0  0  0
 35 96  1  6  0  0  0
 35 13  1  0  0  0  0
 36 51  1  0  0  0  0
 36 97  1  1  0  0  0
 36 14  1  0  0  0  0
 37 22  1  0  0  0  0
 37 56  1  0  0  0  0
 37 59  1  0  0  0  0
 37 98  1  1  0  0  0
 38 23  2  3  0  0  0
 39 20  1  0  0  0  0
 40 21  1  0  0  0  0
 40 39  2  0  0  0  0
 41 87  1  0  0  0  0
 41 99  1  6  0  0  0
 41 27  1  0  0  0  0
 43 15  1  0  0  0  0
 44 16  1  0  0  0  0
 45 17  1  0  0  0  0
 46 22  1  0  0  0  0
 47 24  1  0  0  0  0
 48 25  1  0  0  0  0
 49 18  1  0  0  0  0
 50 32  2  3  0  0  0
 51 33  2  3  0  0  0
 52 53  1  0  0  0  0
 52 57  1  0  0  0  0
 52100  1  1  0  0  0
 52 84  1  0  0  0  0
 53 41  1  0  0  0  0
 53101  1  1  0  0  0
 53 89  1  0  0  0  0
 54 32  1  0  0  0  0
 55 33  1  0  0  0  0
 57 75  1  0  0  0  0
 57 87  1  0  0  0  0
 57103  1  1  0  0  0
 58  6  1  0  0  0  0
 58  7  1  0  0  0  0
 58 42  1  0  0  0  0
 59  8  1  1  0  0  0
 59 19  1  0  0  0  0
 59 54  1  0  0  0  0
 60 55  1  0  0  0  0
 60 24  1  6  0  0  0
 60  9  1  0  0  0  0
 61 36  1  0  0  0  0
 61 62  1  0  0  0  0
 61 25  1  6  0  0  0
 61 10  1  0  0  0  0
 62 11  1  6  0  0  0
 62 56  1  0  0  0  0
 62 74  1  0  0  0  0
 63 43  2  0  0  0  0
 63167  1  0  0  0  0
 64 44  2  0  0  0  0
 64168  1  0  0  0  0
 65 45  2  0  0  0  0
 65169  1  0  0  0  0
 66 46  2  0  0  0  0
 66170  1  0  0  0  0
 67 47  2  0  0  0  0
 67171  1  0  0  0  0
 68 48  2  0  0  0  0
 68172  1  0  0  0  0
 69 26  1  0  0  0  0
 69 49  2  3  0  0  0
 70 28  1  0  0  0  0
 70 39  1  0  0  0  0
 70173  1  0  0  0  0
 71 38  1  0  0  0  0
 71 55  2  0  0  0  0
 72 42  2  0  0  0  0
 72 50  1  0  0  0  0
 73 54  2  0  0  0  0
 73 56  1  0  0  0  0
 74 51  1  0  0  0  0
 74174  1  0  0  0  0
 75 28  2  0  0  0  0
 75 40  1  0  0  0  0
 76 27  1  0  0  0  0
 76175  1  0  0  0  0
 77 43  1  0  0  0  0
 78 44  1  0  0  0  0
 79 45  1  0  0  0  0
 80 46  1  0  0  0  0
 80176  1  0  0  0  0
 81 47  1  0  0  0  0
 81177  1  0  0  0  0
 82 48  1  0  0  0  0
 82178  1  0  0  0  0
 83 49  1  0  0  0  0
 83179  1  0  0  0  0
 84180  1  0  0  0  0
 85181  1  0  0  0  0
 90 85  1  0  0  0  0
 90 86  2  0  0  0  0
 90 88  1  0  0  0  0
 90 89  1  0  0  0  0
 92 91  3  0  0  0  0
102 56  1  0  0  0  0
M  CHG  6  75   1  77  -1  78  -1  79  -1  91  -1  93   3
M  END
>  <DRUGBANK_ID>
DB14092

>  <COMMON_NAME>
8-epi-Cyanocobalamin

>  <CAS_NUMBER>
41325-63-7

>  <UNII>
1NLZ726SN2

>  <SYNONYMS>
8-Epicobalamine; Cyano-8-epicobalamin

$$$$
