
 OpenBabel10282417173D

 10  8  0  0  0  0  0  0  0  0999 V2000
    1.0811    0.0177    0.0558 O   0  5  0  0  0  0  0  0  0  0  0  0
    2.8111    0.0177    0.0558 P   0  0  0  0  0  0  0  0  0  0  0  0
    2.8111    0.3332    1.5717 O   0  0  0  0  0  0  0  0  0  0  0  0
    2.8111   -1.6253   -0.4859 O   0  5  0  0  0  0  0  0  0  0  0  0
    4.5411    0.0177    0.0558 O   0  0  0  0  0  0  0  0  0  0  0  0
    5.1177    1.5641    0.5745 P   0  0  0  0  0  0  0  0  0  0  0  0
    6.5560    1.1663    0.1615 O   0  0  0  0  0  0  0  0  0  0  0  0
    4.0724    2.3368   -0.5670 O   0  5  0  0  0  0  0  0  0  0  0  0
    5.6944    3.1105    1.0932 O   0  5  0  0  0  0  0  0  0  0  0  0
    0.9602   -0.0685    0.0610 Tc  0  0  0  0  0  0  0  0  0  0  0  0
  1  2  1  0  0  0  0
  2  3  2  0  0  0  0
  2  4  1  0  0  0  0
  2  5  1  0  0  0  0
  5  6  1  0  0  0  0
  6  7  2  0  0  0  0
  6  8  1  0  0  0  0
  6  9  1  0  0  0  0
M  ISO  1  10  99
M  CHG  5   1  -1   4  -1   8  -1   9  -1  10   4
M  END
>  <DRUGBANK_ID>
DB09165

>  <SECONDARY_ACCESSION_NUMBERS>
DB09417

>  <COMMON_NAME>
Technetium Tc-99m pyrophosphate

>  <CAS_NUMBER>
52997-54-3

>  <UNII>
5L76I61H2B

>  <SYNONYMS>
Technetium (99mTc) pyrophosphate; Technetium TC 99M Pyrophosphate

$$$$
