
 OpenBabel10282417163D

 37 38  0  0  0  0  0  0  0  0999 V2000
   -1.2322    1.4939    0.0768 N   0  0  0  0  0  0  0  0  0  0  0  0
   -2.4148    0.7131   -0.3464 C   0  0  2  0  0  0  0  0  0  0  0  0
   -2.3586   -0.6505    0.3567 C   0  0  0  0  0  0  0  0  0  0  0  0
   -1.2098   -1.3523    0.0514 N   0  0  0  0  0  0  0  0  0  0  0  0
    0.0077   -0.6551   -0.0317 C   0  0  0  0  0  0  0  0  0  0  0  0
    1.1965   -1.3905   -0.0916 C   0  0  0  0  0  0  0  0  0  0  0  0
    2.4174   -0.7210   -0.0515 C   0  0  0  0  0  0  0  0  0  0  0  0
    2.4356    0.6633    0.0270 C   0  0  0  0  0  0  0  0  0  0  0  0
    1.2604    1.4000    0.0662 C   0  0  0  0  0  0  0  0  0  0  0  0
    0.0190    0.7618    0.0465 C   0  0  0  0  0  0  0  0  0  0  0  0
   -1.2954    2.8235    0.5118 C   0  0  0  0  0  0  0  0  0  0  0  0
   -0.3153    3.4452    0.9275 O   0  0  0  0  0  0  0  0  0  0  0  0
   -2.5280    3.4203    0.4703 O   0  0  0  0  0  0  0  0  0  0  0  0
   -3.2869   -1.1483    0.9842 O   0  0  0  0  0  0  0  0  0  0  0  0
    3.6070    1.3110    0.0516 F   0  0  0  0  0  0  0  0  0  0  0  0
   -2.3826    0.4469   -1.8813 C   0  0  0  0  0  0  0  0  0  0  0  0
   -3.5390   -0.4275   -2.3513 C   0  0  0  0  0  0  0  0  0  0  0  0
   -2.6134    4.8150    0.9175 C   0  0  0  0  0  0  0  0  0  0  0  0
   -2.2266    5.0056    2.3895 C   0  0  0  0  0  0  0  0  0  0  0  0
   -1.8246    5.7698    0.0146 C   0  0  0  0  0  0  0  0  0  0  0  0
   -3.3458    1.2202   -0.0749 H   0  0  0  0  0  0  0  0  0  0  0  0
   -1.2367   -2.3621    0.1062 H   0  0  0  0  0  0  0  0  0  0  0  0
    1.1896   -2.4760   -0.1351 H   0  0  0  0  0  0  0  0  0  0  0  0
    3.3578   -1.2613   -0.0719 H   0  0  0  0  0  0  0  0  0  0  0  0
    1.3716    2.4761    0.0849 H   0  0  0  0  0  0  0  0  0  0  0  0
   -2.3763    1.3947   -2.4282 H   0  0  0  0  0  0  0  0  0  0  0  0
   -1.4573   -0.0642   -2.1823 H   0  0  0  0  0  0  0  0  0  0  0  0
   -4.4943    0.0656   -2.1603 H   0  0  0  0  0  0  0  0  0  0  0  0
   -3.4514   -0.6269   -3.4239 H   0  0  0  0  0  0  0  0  0  0  0  0
   -3.5460   -1.4009   -1.8478 H   0  0  0  0  0  0  0  0  0  0  0  0
   -3.6726    5.0924    0.8290 H   0  0  0  0  0  0  0  0  0  0  0  0
   -1.1865    4.7347    2.5865 H   0  0  0  0  0  0  0  0  0  0  0  0
   -2.3393    6.0513    2.6983 H   0  0  0  0  0  0  0  0  0  0  0  0
   -2.8453    4.3790    3.0376 H   0  0  0  0  0  0  0  0  0  0  0  0
   -2.1618    5.6881   -1.0225 H   0  0  0  0  0  0  0  0  0  0  0  0
   -1.9374    6.8104    0.3398 H   0  0  0  0  0  0  0  0  0  0  0  0
   -0.7537    5.5508    0.0182 H   0  0  0  0  0  0  0  0  0  0  0  0
  1  2  1  0  0  0  0
  1 10  1  0  0  0  0
  1 11  1  0  0  0  0
  2  3  1  0  0  0  0
  2 16  1  0  0  0  0
  2 21  1  1  0  0  0
  3  4  1  0  0  0  0
  3 14  2  0  0  0  0
  4  5  1  0  0  0  0
  4 22  1  0  0  0  0
  5  6  1  0  0  0  0
  5 10  2  0  0  0  0
  6  7  2  0  0  0  0
  6 23  1  0  0  0  0
  7  8  1  0  0  0  0
  7 24  1  0  0  0  0
  8  9  2  0  0  0  0
  8 15  1  0  0  0  0
  9 10  1  0  0  0  0
  9 25  1  0  0  0  0
 11 12  2  0  0  0  0
 11 13  1  0  0  0  0
 13 18  1  0  0  0  0
 16 17  1  0  0  0  0
 16 26  1  0  0  0  0
 16 27  1  0  0  0  0
 17 28  1  0  0  0  0
 17 29  1  0  0  0  0
 17 30  1  0  0  0  0
 18 19  1  0  0  0  0
 18 20  1  0  0  0  0
 18 31  1  0  0  0  0
 19 32  1  0  0  0  0
 19 33  1  0  0  0  0
 19 34  1  0  0  0  0
 20 35  1  0  0  0  0
 20 36  1  0  0  0  0
 20 37  1  0  0  0  0
M  END
>  <DRUGBANK_ID>
DB07884

>  <COMMON_NAME>
Opaviraline

>  <CAS_NUMBER>
178040-94-3

>  <UNII>
Q3A8EU2NMU

>  <SYNONYMS>
Opaviraline

$$$$
