
 OpenBabel10282417123D

 50 51  0  0  1  0  0  0  0  0999 V2000
    2.5470   -0.0375    0.0016 C   0  0  0  0  0  0  0  0  0  0  0  0
    0.3926    1.1889   -0.0203 C   0  0  0  0  0  0  0  0  0  0  0  0
    0.3115   -1.2085   -0.0203 C   0  0  0  0  0  0  0  0  0  0  0  0
   -0.9839    1.2179   -0.1454 C   0  0  0  0  0  0  0  0  0  0  0  0
   -1.0814   -1.1575   -0.1312 C   0  0  0  0  0  0  0  0  0  0  0  0
   -3.1424    3.2969    1.0943 C   0  0  0  0  0  0  0  0  0  0  0  0
   -2.7997    4.0249   -0.1755 C   0  0  0  0  0  0  0  0  0  0  0  0
   -4.1558   -3.3463    1.2294 C   0  0  0  0  0  0  0  0  0  0  0  0
   -4.0241   -0.9781    2.0692 C   0  0  0  0  0  0  0  0  0  0  0  0
   -6.2367   -1.2284    3.6363 C   0  0  0  0  0  0  0  0  0  0  0  0
   -3.9016    1.2212   -0.1113 C   0  0  0  0  0  0  0  0  0  0  0  0
    1.0556   -0.0269    0.0064 C   0  0  0  0  0  0  0  0  0  0  0  0
   -4.7185   -2.1974    2.0364 C   0  0  0  0  0  0  0  0  0  0  0  0
   -3.6239    2.0291    1.1840 C   0  0  0  0  0  0  0  0  0  0  0  0
   -1.7453    0.0687   -0.2143 C   0  0  0  0  0  0  0  0  0  0  0  0
   -3.5054   -4.4766    2.0594 C   0  0  1  0  0  0  0  0  0  0  0  0
   -4.4850    0.1778    2.7051 C   0  0  0  0  0  0  0  0  0  0  0  0
   -5.8836   -2.2715    2.7863 C   0  0  0  0  0  0  0  0  0  0  0  0
   -5.5631   -0.0064    3.5715 C   0  0  0  0  0  0  0  0  0  0  0  0
   -4.5052   -5.1525    3.0068 C   0  0  0  0  0  0  0  0  0  0  0  0
   -2.9893   -5.5045    1.1159 N   0  0  0  0  0  0  0  0  0  0  0  0
   -3.9286    1.4515    2.4386 N   0  0  0  0  0  0  0  0  0  0  0  0
   -2.2232    5.0925   -0.1757 O   0  0  0  0  0  0  0  0  0  0  0  0
   -6.7010   -3.3674    2.7968 O   0  0  0  0  0  0  0  0  0  0  0  0
   -6.0447    0.9987    4.3626 O   0  0  0  0  0  0  0  0  0  0  0  0
   -5.2015   -6.1164    2.7172 O   0  0  0  0  0  0  0  0  0  0  0  0
   -4.7087   -4.4666    4.1459 O   0  0  0  0  0  0  0  0  0  0  0  0
   -3.1057    0.0406   -0.3393 O   0  0  0  0  0  0  0  0  0  0  0  0
   -2.8885    3.8805    1.9742 H   0  0  0  0  0  0  0  0  0  0  0  0
   -2.6658   -4.0942    2.6487 H   0  0  0  0  0  0  0  0  0  0  0  0
    2.9269   -0.5576    0.8824 H   0  0  0  0  0  0  0  0  0  0  0  0
    2.9021   -0.5203   -0.9131 H   0  0  0  0  0  0  0  0  0  0  0  0
    2.9407    0.9856    0.0103 H   0  0  0  0  0  0  0  0  0  0  0  0
    0.9264    2.1344    0.0181 H   0  0  0  0  0  0  0  0  0  0  0  0
    0.8081   -2.1745    0.0211 H   0  0  0  0  0  0  0  0  0  0  0  0
   -1.4093    2.1904   -0.2053 H   0  0  0  0  0  0  0  0  0  0  0  0
   -1.6321   -2.0919   -0.1450 H   0  0  0  0  0  0  0  0  0  0  0  0
   -3.0163    3.5108   -1.1283 H   0  0  0  0  0  0  0  0  0  0  0  0
   -4.9385   -3.7246    0.5574 H   0  0  0  0  0  0  0  0  0  0  0  0
   -3.3958   -2.9573    0.5411 H   0  0  0  0  0  0  0  0  0  0  0  0
   -3.0632   -0.9368    1.5891 H   0  0  0  0  0  0  0  0  0  0  0  0
   -7.0590   -1.3640    4.3296 H   0  0  0  0  0  0  0  0  0  0  0  0
   -3.8347    1.8079   -1.0258 H   0  0  0  0  0  0  0  0  0  0  0  0
   -4.9554    0.9134   -0.0821 H   0  0  0  0  0  0  0  0  0  0  0  0
   -2.6885   -6.3111    1.6685 H   0  0  0  0  0  0  0  0  0  0  0  0
   -3.7823   -5.8667    0.5776 H   0  0  0  0  0  0  0  0  0  0  0  0
   -3.6736    1.9919    3.2599 H   0  0  0  0  0  0  0  0  0  0  0  0
   -6.4097   -4.0127    2.1297 H   0  0  0  0  0  0  0  0  0  0  0  0
   -5.6161    1.8189    4.0747 H   0  0  0  0  0  0  0  0  0  0  0  0
   -5.6659   -4.5724    4.3583 H   0  0  0  0  0  0  0  0  0  0  0  0
  1 31  1  0  0  0  0
  1 32  1  0  0  0  0
  1 33  1  0  0  0  0
  2 34  1  0  0  0  0
  3 35  1  0  0  0  0
  4  2  1  0  0  0  0
  4 36  1  0  0  0  0
  5  3  2  0  0  0  0
  5 37  1  0  0  0  0
  7  6  1  0  0  0  0
  7 38  1  0  0  0  0
  8 39  1  0  0  0  0
  8 40  1  0  0  0  0
  9 41  1  0  0  0  0
 10 42  1  0  0  0  0
 11 43  1  0  0  0  0
 11 44  1  0  0  0  0
 12  1  1  0  0  0  0
 12  2  2  0  0  0  0
 12  3  1  0  0  0  0
 13  8  1  0  0  0  0
 13  9  2  0  0  0  0
 14  6  2  0  0  0  0
 14 11  1  0  0  0  0
 15  4  2  0  0  0  0
 15  5  1  0  0  0  0
 16  8  1  0  0  0  0
 16 21  1  0  0  0  0
 16 30  1  1  0  0  0
 17  9  1  0  0  0  0
 18 10  2  0  0  0  0
 18 13  1  0  0  0  0
 19 10  1  0  0  0  0
 19 17  2  0  0  0  0
 20 16  1  0  0  0  0
 21 45  1  0  0  0  0
 21 46  1  0  0  0  0
 22 14  1  0  0  0  0
 22 17  1  0  0  0  0
 22 47  1  0  0  0  0
 23  7  2  0  0  0  0
 24 18  1  0  0  0  0
 24 48  1  0  0  0  0
 25 19  1  0  0  0  0
 25 49  1  0  0  0  0
 26 20  2  0  0  0  0
 27 20  1  0  0  0  0
 27 50  1  0  0  0  0
 28 11  1  0  0  0  0
 28 15  1  0  0  0  0
 29  6  1  0  0  0  0
M  END
>  <DRUGBANK_ID>
DB02537

>  <SECONDARY_ACCESSION_NUMBERS>
EXPT02126

>  <COMMON_NAME>
2-Hydroxy-5-({1-[(4-Methylphenoxy)Methyl]-3-Oxoprop-1-Enyl}Amino)-L-Tyrosine

$$$$
