NPV
 OpenBabel10282417173D

 41 44  0  0  0  0  0  0  0  0999 V2000
    1.4075   -0.2592    0.0426 C   0  0  0  0  0  0  0  0  0  0  0  0
    0.5081   -1.3323    0.0301 C   0  0  0  0  0  0  0  0  0  0  0  0
   -0.8727   -1.0987    0.0155 C   0  0  0  0  0  0  0  0  0  0  0  0
   -1.3792    0.2089    0.0155 C   0  0  0  0  0  0  0  0  0  0  0  0
    0.9146    1.0492    0.0124 C   0  0  0  0  0  0  0  0  0  0  0  0
   -2.8136    0.4724   -0.1438 C   0  0  0  0  0  0  0  0  0  0  0  0
   -7.2980    1.5954   -1.8609 C   0  0  0  0  0  0  0  0  0  0  0  0
   -3.2528    1.2147   -1.2347 C   0  0  0  0  0  0  0  0  0  0  0  0
   -4.6184    1.4028   -1.4270 C   0  0  0  0  0  0  0  0  0  0  0  0
   -5.0888    2.0366   -2.5794 C   0  0  0  0  0  0  0  0  0  0  0  0
    2.8704   -0.4709    0.1584 C   0  0  0  0  0  0  0  0  0  0  0  0
    3.7180    0.4105    0.2090 O   0  0  0  0  0  0  0  0  0  0  0  0
    3.2002   -1.7693    0.2619 O   0  0  0  0  0  0  0  0  0  0  0  0
   -0.4640    1.2764    0.0469 C   0  0  0  0  0  0  0  0  0  0  0  0
   -3.6659   -0.0640    0.7598 N   0  0  0  0  0  0  0  0  0  0  0  0
   -6.4445    2.0082   -2.8599 C   0  0  0  0  0  0  0  0  0  0  0  0
   -6.8754    1.0796   -0.6911 N   0  0  0  0  0  0  0  0  0  0  0  0
   -5.5442    0.8890   -0.5076 C   0  0  0  0  0  0  0  0  0  0  0  0
   -5.0043    0.1573    0.5673 C   0  0  0  0  0  0  0  0  0  0  0  0
   -5.9040   -0.3862    1.6082 C   0  0  0  0  0  0  0  0  0  0  0  0
   -7.0164   -1.1879    1.2797 C   0  0  0  0  0  0  0  0  0  0  0  0
   -5.7628    0.0396    2.9396 C   0  0  0  0  0  0  0  0  0  0  0  0
   -6.7160   -0.2818    3.9096 C   0  0  0  0  0  0  0  0  0  0  0  0
   -7.8442   -1.0208    3.5624 C   0  0  0  0  0  0  0  0  0  0  0  0
   -8.0118   -1.4331    2.2363 C   0  0  0  0  0  0  0  0  0  0  0  0
   -9.3072   -1.9898    1.8200 N   0  3  0  0  0  0  0  0  0  0  0  0
   -9.4584   -2.2834    0.6255 O   0  0  0  0  0  0  0  0  0  0  0  0
  -10.1907   -2.0989    2.6840 O   0  5  0  0  0  0  0  0  0  0  0  0
    0.8719   -2.3568    0.0303 H   0  0  0  0  0  0  0  0  0  0  0  0
   -1.5558   -1.9464   -0.0078 H   0  0  0  0  0  0  0  0  0  0  0  0
    1.5942    1.8983   -0.0296 H   0  0  0  0  0  0  0  0  0  0  0  0
   -8.3753    1.6594   -1.9768 H   0  0  0  0  0  0  0  0  0  0  0  0
   -2.5375    1.5779   -1.9686 H   0  0  0  0  0  0  0  0  0  0  0  0
   -4.4054    2.5039   -3.2837 H   0  0  0  0  0  0  0  0  0  0  0  0
    4.1711   -1.7810    0.3952 H   0  0  0  0  0  0  0  0  0  0  0  0
   -0.8309    2.3007    0.0997 H   0  0  0  0  0  0  0  0  0  0  0  0
   -6.8218    2.2928   -3.8342 H   0  0  0  0  0  0  0  0  0  0  0  0
   -7.1362   -1.5456    0.2572 H   0  0  0  0  0  0  0  0  0  0  0  0
   -4.9196    0.6732    3.2112 H   0  0  0  0  0  0  0  0  0  0  0  0
   -6.6036    0.0943    4.9232 H   0  0  0  0  0  0  0  0  0  0  0  0
   -8.5932   -1.2383    4.3206 H   0  0  0  0  0  0  0  0  0  0  0  0
  1  2  2  0  0  0  0
  1  5  1  0  0  0  0
  2  3  1  0  0  0  0
  2 29  1  0  0  0  0
  3  4  2  0  0  0  0
  3 30  1  0  0  0  0
  4  6  1  0  0  0  0
  5 14  2  0  0  0  0
  5 31  1  0  0  0  0
  6 15  2  0  0  0  0
  6  8  1  0  0  0  0
  7 32  1  0  0  0  0
  8  9  2  0  0  0  0
  8 33  1  0  0  0  0
  9 18  1  0  0  0  0
  9 10  1  0  0  0  0
 10 16  2  0  0  0  0
 10 34  1  0  0  0  0
 11  1  1  0  0  0  0
 12 11  2  0  0  0  0
 13 11  1  0  0  0  0
 13 35  1  0  0  0  0
 14  4  1  0  0  0  0
 14 36  1  0  0  0  0
 15 19  1  0  0  0  0
 16  7  1  0  0  0  0
 16 37  1  0  0  0  0
 17  7  2  0  0  0  0
 18 17  1  0  0  0  0
 19 20  1  0  0  0  0
 19 18  2  0  0  0  0
 20 22  2  0  0  0  0
 21 25  2  0  0  0  0
 21 20  1  0  0  0  0
 21 38  1  0  0  0  0
 22 23  1  0  0  0  0
 22 39  1  0  0  0  0
 23 40  1  0  0  0  0
 24 23  2  0  0  0  0
 24 41  1  0  0  0  0
 25 24  1  0  0  0  0
 26 27  2  0  0  0  0
 26 25  1  0  0  0  0
 28 26  1  0  0  0  0
M  CHG  2  26   1  28  -1
M  END
>  <DRUGBANK_ID>
DB08299

>  <COMMON_NAME>
4-[8-(3-nitrophenyl)-1,7-naphthyridin-6-yl]benzoic acid

>  <UNII>
ISK95MWA33

$$$$
