378
 OpenBabel10282417103D

 51 54  0  0  1  0  0  0  0  0999 V2000
    0.1441    1.3328   -1.2598 O   0  0  0  0  0  0  0  0  0  0  0  0
    2.7958    6.1270    9.3967 O   0  0  0  0  0  0  0  0  0  0  0  0
    1.1621    1.9018    2.0669 C   0  0  1  0  0  0  0  0  0  0  0  0
    0.2966    2.7169    2.9795 C   0  0  2  0  0  0  0  0  0  0  0  0
    0.6728    3.1797    4.3399 C   0  0  1  0  0  0  0  0  0  0  0  0
    1.5141    2.3267    5.2435 C   0  0  1  0  0  0  0  0  0  0  0  0
   -0.3534    2.0878    0.9995 C   0  0  2  0  0  0  0  0  0  0  0  0
    1.7589    0.8143    3.1062 C   0  0  0  0  0  0  0  0  0  0  0  0
   -0.9103    1.7405    3.0933 C   0  0  0  0  0  0  0  0  0  0  0  0
    2.3124    1.2910    4.4896 C   0  0  0  0  0  0  0  0  0  0  0  0
    2.4021    3.1474    6.4529 C   0  0  1  0  0  0  0  0  0  0  0  0
   -1.6132    2.2247    1.8969 C   0  0  0  0  0  0  0  0  0  0  0  0
    1.8873    1.4783    0.8230 C   0  0  0  0  0  0  0  0  0  0  0  0
    1.3864    4.4288    4.2457 C   0  0  0  0  0  0  0  0  0  0  0  0
    1.4157    4.2645    6.7443 C   0  0  0  0  0  0  0  0  0  0  0  0
    3.7340    4.4171    6.4239 C   0  0  0  0  0  0  0  0  0  0  0  0
   -0.5920    1.2315   -0.2707 C   0  0  0  0  0  0  0  0  0  0  0  0
    2.5795    1.9169    7.4415 C   0  0  0  0  0  0  0  0  0  0  0  0
    1.4880    5.0635    5.4113 C   0  0  0  0  0  0  0  0  0  0  0  0
    3.3377    5.9999    7.0814 C   0  0  0  0  0  0  0  0  0  0  0  0
    1.4823    4.6662    8.0417 C   0  0  0  0  0  0  0  0  0  0  0  0
    2.5498    5.6953    8.3121 C   0  0  0  0  0  0  0  0  0  0  0  0
   -1.6898    0.2149   -0.3210 C   0  0  0  0  0  0  0  0  0  0  0  0
    0.0667    3.6777    2.4802 H   0  0  0  0  0  0  0  0  0  0  0  0
   -0.2859    3.4473    4.8240 H   0  0  0  0  0  0  0  0  0  0  0  0
    0.7102    1.7533    5.7580 H   0  0  0  0  0  0  0  0  0  0  0  0
   -0.2415    3.1060    0.5445 H   0  0  0  0  0  0  0  0  0  0  0  0
    1.0769   -0.0220    3.2547 H   0  0  0  0  0  0  0  0  0  0  0  0
    2.6679    0.3442    2.7021 H   0  0  0  0  0  0  0  0  0  0  0  0
   -1.4391    1.6947    4.0378 H   0  0  0  0  0  0  0  0  0  0  0  0
   -0.6699    0.6924    2.8409 H   0  0  0  0  0  0  0  0  0  0  0  0
    2.3958    0.3953    5.1276 H   0  0  0  0  0  0  0  0  0  0  0  0
    3.3264    1.6869    4.4005 H   0  0  0  0  0  0  0  0  0  0  0  0
   -1.9515    3.2608    2.0734 H   0  0  0  0  0  0  0  0  0  0  0  0
   -2.4915    1.6387    1.6547 H   0  0  0  0  0  0  0  0  0  0  0  0
    1.4010    0.5164    0.5661 H   0  0  0  0  0  0  0  0  0  0  0  0
    1.8631    2.2313    0.0404 H   0  0  0  0  0  0  0  0  0  0  0  0
    2.9275    1.1661    0.9072 H   0  0  0  0  0  0  0  0  0  0  0  0
    1.9179    4.7394    3.3476 H   0  0  0  0  0  0  0  0  0  0  0  0
    4.0963    4.6216    5.4037 H   0  0  0  0  0  0  0  0  0  0  0  0
    4.6046    4.1312    7.0297 H   0  0  0  0  0  0  0  0  0  0  0  0
    3.4879    1.3386    7.2337 H   0  0  0  0  0  0  0  0  0  0  0  0
    2.4723    2.0991    8.5093 H   0  0  0  0  0  0  0  0  0  0  0  0
    1.7803    1.1643    7.2750 H   0  0  0  0  0  0  0  0  0  0  0  0
    2.2044    5.8364    5.1742 H   0  0  0  0  0  0  0  0  0  0  0  0
    2.6280    6.6714    6.5540 H   0  0  0  0  0  0  0  0  0  0  0  0
    4.1569    6.7084    7.2282 H   0  0  0  0  0  0  0  0  0  0  0  0
    1.5823    3.9434    8.8601 H   0  0  0  0  0  0  0  0  0  0  0  0
   -1.8058   -0.0774   -1.3690 H   0  0  0  0  0  0  0  0  0  0  0  0
   -1.4049   -0.6563    0.2679 H   0  0  0  0  0  0  0  0  0  0  0  0
   -2.6566    0.6114   -0.0135 H   0  0  0  0  0  0  0  0  0  0  0  0
  1 17  2  0  0  0  0
  2 22  2  0  0  0  0
  3  4  1  0  0  0  0
  3  7  1  0  0  0  0
  3  8  1  0  0  0  0
  3 13  1  1  0  0  0
  4  5  1  0  0  0  0
  4  9  1  0  0  0  0
  4 24  1  6  0  0  0
  5  6  1  0  0  0  0
  5 14  1  0  0  0  0
  5 25  1  1  0  0  0
  6 10  1  0  0  0  0
  6 11  1  0  0  0  0
  6 26  1  1  0  0  0
  7 12  1  0  0  0  0
  7 17  1  0  0  0  0
  7 27  1  6  0  0  0
  8 10  1  0  0  0  0
  8 28  1  0  0  0  0
  8 29  1  0  0  0  0
  9 12  1  0  0  0  0
  9 30  1  0  0  0  0
  9 31  1  0  0  0  0
 10 32  1  0  0  0  0
 10 33  1  0  0  0  0
 11 15  1  0  0  0  0
 11 16  1  0  0  0  0
 11 18  1  6  0  0  0
 12 34  1  0  0  0  0
 12 35  1  0  0  0  0
 13 36  1  0  0  0  0
 13 37  1  0  0  0  0
 13 38  1  0  0  0  0
 14 19  2  0  0  0  0
 14 39  1  0  0  0  0
 15 19  1  0  0  0  0
 15 21  2  0  0  0  0
 16 20  1  0  0  0  0
 16 40  1  0  0  0  0
 16 41  1  0  0  0  0
 17 23  1  0  0  0  0
 18 42  1  0  0  0  0
 18 43  1  0  0  0  0
 18 44  1  0  0  0  0
 19 45  1  0  0  0  0
 20 22  1  0  0  0  0
 20 46  1  0  0  0  0
 20 47  1  0  0  0  0
 21 22  1  0  0  0  0
 21 48  1  0  0  0  0
 23 49  1  0  0  0  0
 23 50  1  0  0  0  0
 23 51  1  0  0  0  0
M  END
>  <DRUGBANK_ID>
DB00378

>  <SECONDARY_ACCESSION_NUMBERS>
APRD00941

>  <COMMON_NAME>
Dydrogesterone

>  <CAS_NUMBER>
152-62-5

>  <UNII>
90I02KLE8K

>  <SYNONYMS>
(9β,10α)-pregna-4,6-diene-3,20-dione; 10α-Isopregnenone; 6-Dehydro-retro-progesterone; 9β,10α-pregna-4,6-diene-3,20-dione; delta(6)-Retroprogesterone; delta(sup 6)-Retroprogesterone; Didrogesterona; Didrogesterone; Dydrogesterona; Dydrogestérone; Dydrogesterone; Dydrogesteronum; Gestatron; Hydrogesterone; Hydrogestrone; Isopregnenone; Retro-6-dehydroprogesterone

$$$$
