
 OpenBabel10282417223D

132143  0  0  1  0  0  0  0  0999 V2000
   -0.8124   -0.7728    1.2724 O   0  0  0  0  0  0  0  0  0  0  0  0
    0.6371   -0.6849    1.2402 C   0  0  1  0  0  0  0  0  0  0  0  0
    0.9465    0.2884    2.2843 C   0  0  0  0  0  0  0  0  0  0  0  0
    2.0346   -0.1757    3.2502 C   0  0  0  0  0  0  0  0  0  0  0  0
    2.0167   -1.7043    3.9714 C   0  0  1  0  0  0  0  0  0  0  0  0
    0.9990   -1.7216    4.8406 O   0  0  0  0  0  0  0  0  0  0  0  0
    2.9476   -3.0764    4.9682 C   0  0  1  0  0  0  0  0  0  0  0  0
    1.8457   -4.0424    5.3072 C   0  0  0  0  0  0  0  0  0  0  0  0
    1.4013   -4.5525    4.0233 C   0  0  0  0  0  0  0  0  0  0  0  0
    1.1281   -5.8990    3.8235 C   0  0  0  0  0  0  0  0  0  0  0  0
    0.6516   -6.3632    2.6065 C   0  0  0  0  0  0  0  0  0  0  0  0
    0.3276   -5.4046    1.6337 C   0  0  0  0  0  0  0  0  0  0  0  0
   -0.4635   -5.8826    0.5185 O   0  0  0  0  0  0  0  0  0  0  0  0
   -1.1644   -4.9493   -0.4926 C   0  0  0  0  0  0  0  0  0  0  0  0
   -0.7379   -3.7880   -0.5181 O   0  0  0  0  0  0  0  0  0  0  0  0
   -1.6153   -5.5835   -2.3301 C   0  0  0  0  0  0  0  0  0  0  0  0
    0.1855   -6.4617   -3.1237 C   0  0  0  0  0  0  0  0  0  0  0  0
    0.7604   -7.6024   -1.3125 C   0  0  0  0  0  0  0  0  0  0  0  0
   -1.0882   -7.8748   -0.4446 C   0  0  0  0  0  0  0  0  0  0  0  0
   -1.6407   -8.9033   -2.3858 C   0  0  0  0  0  0  0  0  0  0  0  0
   -0.1344  -10.4238   -2.6858 C   0  0  0  0  0  0  0  0  0  0  0  0
   -0.1016  -11.9078   -2.2507 C   0  0  0  0  0  0  0  0  0  0  0  0
   -1.7469  -12.4991   -2.0286 C   0  0  0  0  0  0  0  0  0  0  0  0
   -2.3588  -12.9170   -3.4548 C   0  0  0  0  0  0  0  0  0  0  0  0
   -2.4073  -14.1201   -3.6557 O   0  0  0  0  0  0  0  0  0  0  0  0
   -2.5574  -11.6737   -4.6783 O   0  0  0  0  0  0  0  0  0  0  0  0
   -2.6151   -9.8536   -5.2166 C   0  0  0  0  0  0  0  0  0  0  0  0
   -1.2952   -8.5587   -5.0734 C   0  0  0  0  0  0  0  0  0  0  0  0
    0.5068   -8.6606   -5.2372 O   0  0  0  0  0  0  0  0  0  0  0  0
    1.1333   -8.1464   -3.9534 C   0  0  1  0  0  0  0  0  0  0  0  0
    2.4079   -8.0854   -3.0519 C   0  0  1  0  0  0  0  0  0  0  0  0
    3.7298   -8.1322   -3.2822 O   0  0  0  0  0  0  0  0  0  0  0  0
    2.5224   -6.9877   -1.9164 C   0  0  0  0  0  0  0  0  0  0  0  0
    0.9602   -5.9463   -1.4266 C   0  0  0  0  0  0  0  0  0  0  0  0
   -0.8217   -7.2935   -1.8735 C   0  0  1  0  0  0  0  0  0  0  0  0
   -0.0363   -5.4490   -1.8087 O   0  0  0  0  0  0  0  0  0  0  0  0
   -1.9773   -9.0113   -0.8903 C   0  0  1  0  0  0  0  0  0  0  0  0
   -3.4558   -7.9536   -1.3812 C   0  0  0  0  0  0  0  0  0  0  0  0
   -3.2783   -7.5288   -3.1656 C   0  0  0  0  0  0  0  0  0  0  0  0
   -4.3348   -8.6534   -3.5430 C   0  0  0  0  0  0  0  0  0  0  0  0
   -3.9906   -9.7734   -4.4589 C   0  0  0  0  0  0  0  0  0  0  0  0
   -1.5764   -7.5576   -3.8744 C   0  0  0  0  0  0  0  0  0  0  0  0
   -0.0717   -8.3456   -2.7067 C   0  0  1  0  0  0  0  0  0  0  0  0
    0.2671   -9.1975   -0.7043 C   0  0  0  0  0  0  0  0  0  0  0  0
    0.2230  -10.5252   -0.4764 C   0  0  0  0  0  0  0  0  0  0  0  0
   -1.2148  -10.4574   -1.1022 N   0  0  0  0  0  0  0  0  0  0  0  0
   -1.8099  -10.6770   -3.0309 C   0  0  0  0  0  0  0  0  0  0  0  0
   -0.3025  -10.5982   -4.5575 C   0  0  0  0  0  0  0  0  0  0  0  0
   -0.4850  -10.8131   -6.0011 C   0  0  0  0  0  0  0  0  0  0  0  0
    0.5891  -11.8429   -5.9216 C   0  0  0  0  0  0  0  0  0  0  0  0
    0.5021  -12.0620   -4.5035 C   0  0  0  0  0  0  0  0  0  0  0  0
    0.7435   -4.0475    1.8456 C   0  0  0  0  0  0  0  0  0  0  0  0
    1.4274   -3.6570    2.9939 C   0  0  0  0  0  0  0  0  0  0  0  0
    2.6436   -2.3481    2.9162 C   0  0  2  0  0  0  0  0  0  0  0  0
    4.0848   -1.4828    4.1184 C   0  0  0  0  0  0  0  0  0  0  0  0
    4.7372   -2.0400    5.7557 C   0  0  0  0  0  0  0  0  0  0  0  0
    3.5444   -2.6439    6.2544 N   0  0  0  0  0  0  0  0  0  0  0  0
    2.7379   -1.6527    7.0202 C   0  0  0  0  0  0  0  0  0  0  0  0
    2.5010   -0.3331    6.2662 C   0  0  0  0  0  0  0  0  0  0  0  0
    3.2814    0.9243    6.2785 C   0  0  0  0  0  0  0  0  0  0  0  0
    1.9659    1.6247    5.8269 C   0  0  0  0  0  0  0  0  0  0  0  0
    1.1426    0.3839    6.2816 C   0  0  0  0  0  0  0  0  0  0  0  0
    1.5041   -1.9385    1.5344 C   0  0  1  0  0  0  0  0  0  0  0  0
    0.6550   -3.0020    1.0125 O   0  0  0  0  0  0  0  0  0  0  0  0
   -1.1598   -1.2845    0.5208 H   0  0  0  0  0  0  0  0  0  0  0  0
    0.9052   -0.2439    0.2612 H   0  0  0  0  0  0  0  0  0  0  0  0
    0.0254    0.4525    2.8486 H   0  0  0  0  0  0  0  0  0  0  0  0
    1.2478    1.2176    1.7712 H   0  0  0  0  0  0  0  0  0  0  0  0
    2.9818    0.2005    2.8397 H   0  0  0  0  0  0  0  0  0  0  0  0
    1.7155    0.4713    4.0040 H   0  0  0  0  0  0  0  0  0  0  0  0
    1.7032   -1.8585    5.4988 H   0  0  0  0  0  0  0  0  0  0  0  0
    3.7572   -3.7136    4.4530 H   0  0  0  0  0  0  0  0  0  0  0  0
    1.0272   -3.5000    5.7654 H   0  0  0  0  0  0  0  0  0  0  0  0
    2.1023   -4.8131    6.0028 H   0  0  0  0  0  0  0  0  0  0  0  0
    1.3682   -6.5723    4.6376 H   0  0  0  0  0  0  0  0  0  0  0  0
    0.5037   -7.4364    2.5019 H   0  0  0  0  0  0  0  0  0  0  0  0
   -2.2538   -6.2515   -1.9077 H   0  0  0  0  0  0  0  0  0  0  0  0
   -1.8648   -4.9024   -3.0899 H   0  0  0  0  0  0  0  0  0  0  0  0
   -0.1321   -6.5633   -4.1546 H   0  0  0  0  0  0  0  0  0  0  0  0
    1.1295   -5.9170   -3.3842 H   0  0  0  0  0  0  0  0  0  0  0  0
    1.3112   -8.5290   -1.6964 H   0  0  0  0  0  0  0  0  0  0  0  0
    1.3309   -7.2778   -0.3753 H   0  0  0  0  0  0  0  0  0  0  0  0
   -1.3242   -8.9342    0.5564 H   0  0  0  0  0  0  0  0  0  0  0  0
   -1.9537   -7.2722   -0.1253 H   0  0  0  0  0  0  0  0  0  0  0  0
   -2.8792   -9.4851   -2.2354 H   0  0  0  0  0  0  0  0  0  0  0  0
   -2.4083   -8.8654   -3.5147 H   0  0  0  0  0  0  0  0  0  0  0  0
   -0.8118  -11.5175   -3.5847 H   0  0  0  0  0  0  0  0  0  0  0  0
    0.8655  -10.0533   -2.8721 H   0  0  0  0  0  0  0  0  0  0  0  0
    0.5995  -12.6854   -2.3981 H   0  0  0  0  0  0  0  0  0  0  0  0
    0.8450  -11.5041   -1.9122 H   0  0  0  0  0  0  0  0  0  0  0  0
   -1.5767  -13.1281   -1.1947 H   0  0  0  0  0  0  0  0  0  0  0  0
   -2.6553  -11.8724   -1.5802 H   0  0  0  0  0  0  0  0  0  0  0  0
    1.1870   -7.3036   -4.6042 H   0  0  0  0  0  0  0  0  0  0  0  0
    2.3021   -9.1601   -2.8209 H   0  0  0  0  0  0  0  0  0  0  0  0
    3.4759   -8.2522   -4.1793 H   0  0  0  0  0  0  0  0  0  0  0  0
    3.2826   -6.4699   -1.3772 H   0  0  0  0  0  0  0  0  0  0  0  0
    2.7011   -7.8712   -1.2121 H   0  0  0  0  0  0  0  0  0  0  0  0
    1.6463   -5.1384   -1.9338 H   0  0  0  0  0  0  0  0  0  0  0  0
    1.1128   -5.0528   -0.7117 H   0  0  0  0  0  0  0  0  0  0  0  0
   -0.1236   -4.8683   -2.7542 H   0  0  0  0  0  0  0  0  0  0  0  0
   -1.9276  -10.3787   -1.2689 H   0  0  0  0  0  0  0  0  0  0  0  0
   -3.1805   -6.9271   -1.0522 H   0  0  0  0  0  0  0  0  0  0  0  0
   -4.0457   -7.0693   -1.0383 H   0  0  0  0  0  0  0  0  0  0  0  0
   -5.1273   -8.8208   -2.7942 H   0  0  0  0  0  0  0  0  0  0  0  0
   -4.5204  -10.7416   -4.3476 H   0  0  0  0  0  0  0  0  0  0  0  0
    0.3603   -8.1928    0.2869 H   0  0  0  0  0  0  0  0  0  0  0  0
    0.1577   -9.0957    0.5260 H   0  0  0  0  0  0  0  0  0  0  0  0
    1.3220  -10.2653   -0.8523 H   0  0  0  0  0  0  0  0  0  0  0  0
    0.4322  -11.5492   -0.2885 H   0  0  0  0  0  0  0  0  0  0  0  0
   -2.8435  -10.8739   -3.0786 H   0  0  0  0  0  0  0  0  0  0  0  0
   -1.6709   -9.9374   -3.6763 H   0  0  0  0  0  0  0  0  0  0  0  0
    0.0076   -9.6829   -4.1668 H   0  0  0  0  0  0  0  0  0  0  0  0
   -1.4837  -11.1046   -6.2234 H   0  0  0  0  0  0  0  0  0  0  0  0
   -0.3661   -9.8795   -6.5361 H   0  0  0  0  0  0  0  0  0  0  0  0
    0.3151  -12.7674   -6.3595 H   0  0  0  0  0  0  0  0  0  0  0  0
    1.5457  -11.3753   -5.9976 H   0  0  0  0  0  0  0  0  0  0  0  0
    1.4015  -12.1335   -3.8849 H   0  0  0  0  0  0  0  0  0  0  0  0
   -0.2746  -12.7837   -4.1179 H   0  0  0  0  0  0  0  0  0  0  0  0
    4.7672   -0.5262    4.4394 H   0  0  0  0  0  0  0  0  0  0  0  0
    4.7886   -1.4140    3.3560 H   0  0  0  0  0  0  0  0  0  0  0  0
    5.1734   -1.4512    6.6733 H   0  0  0  0  0  0  0  0  0  0  0  0
    5.6061   -2.6718    5.5428 H   0  0  0  0  0  0  0  0  0  0  0  0
    1.7884   -2.1914    7.1969 H   0  0  0  0  0  0  0  0  0  0  0  0
    3.1376   -1.3688    7.9801 H   0  0  0  0  0  0  0  0  0  0  0  0
    2.7456   -0.4464    5.2507 H   0  0  0  0  0  0  0  0  0  0  0  0
    3.7087    0.9601    7.2586 H   0  0  0  0  0  0  0  0  0  0  0  0
    4.0970    0.9286    5.5363 H   0  0  0  0  0  0  0  0  0  0  0  0
    1.7156    2.5570    6.2753 H   0  0  0  0  0  0  0  0  0  0  0  0
    1.9632    1.8901    4.7601 H   0  0  0  0  0  0  0  0  0  0  0  0
    0.2810    0.0576    5.6486 H   0  0  0  0  0  0  0  0  0  0  0  0
    0.7696    0.2863    7.2858 H   0  0  0  0  0  0  0  0  0  0  0  0
    2.2650   -1.8936    0.7873 H   0  0  0  0  0  0  0  0  0  0  0  0
  1 65  1  0  0  0  0
  2  3  1  0  0  0  0
  2 66  1  6  0  0  0
  2  1  1  0  0  0  0
  3  4  1  0  0  0  0
  3 67  1  0  0  0  0
  3 68  1  0  0  0  0
  4 69  1  0  0  0  0
  4 70  1  0  0  0  0
  5  4  1  0  0  0  0
  5  6  1  1  0  0  0
  5  7  1  0  0  0  0
  5 54  1  0  0  0  0
  6 71  1  0  0  0  0
  7  8  1  0  0  0  0
  7 57  1  0  0  0  0
  7 72  1  1  0  0  0
  8  9  1  0  0  0  0
  8 73  1  0  0  0  0
  8 74  1  0  0  0  0
  9 10  2  0  0  0  0
  9 53  1  0  0  0  0
 10 11  1  0  0  0  0
 10 75  1  0  0  0  0
 11 12  2  0  0  0  0
 11 76  1  0  0  0  0
 12 13  1  0  0  0  0
 12 52  1  0  0  0  0
 13 14  1  0  0  0  0
 14 15  2  0  0  0  0
 14 16  1  0  0  0  0
 16 17  1  0  0  0  0
 16 77  1  0  0  0  0
 16 78  1  0  0  0  0
 17 18  1  0  0  0  0
 17 79  1  0  0  0  0
 17 80  1  0  0  0  0
 18 19  1  0  0  0  0
 18 81  1  0  0  0  0
 18 82  1  0  0  0  0
 19 20  1  0  0  0  0
 19 83  1  0  0  0  0
 19 84  1  0  0  0  0
 20 21  1  0  0  0  0
 20 85  1  0  0  0  0
 20 86  1  0  0  0  0
 21 22  1  0  0  0  0
 21 87  1  0  0  0  0
 21 88  1  0  0  0  0
 22 23  1  0  0  0  0
 22 89  1  0  0  0  0
 22 90  1  0  0  0  0
 23 24  1  0  0  0  0
 23 91  1  0  0  0  0
 23 92  1  0  0  0  0
 24 25  2  0  0  0  0
 24 26  1  0  0  0  0
 26 27  1  0  0  0  0
 27 28  2  0  0  0  0
 27 41  1  0  0  0  0
 28 29  1  0  0  0  0
 28 42  1  0  0  0  0
 30 29  1  0  0  0  0
 30 31  1  0  0  0  0
 30 43  1  0  0  0  0
 30 93  1  1  0  0  0
 31 33  1  0  0  0  0
 31 32  1  0  0  0  0
 31 94  1  1  0  0  0
 32 95  1  0  0  0  0
 33 34  1  0  0  0  0
 33 96  1  0  0  0  0
 33 97  1  0  0  0  0
 34 98  1  0  0  0  0
 34 99  1  0  0  0  0
 35 34  1  0  0  0  0
 35 37  1  0  0  0  0
 35 36  1  1  0  0  0
 36100  1  0  0  0  0
 37 38  1  0  0  0  0
 37 46  1  0  0  0  0
 37101  1  1  0  0  0
 38 39  1  0  0  0  0
 38102  1  0  0  0  0
 38103  1  0  0  0  0
 39 40  1  0  0  0  0
 39 42  2  0  0  0  0
 40 41  2  0  0  0  0
 40104  1  0  0  0  0
 41105  1  0  0  0  0
 43 42  1  6  0  0  0
 43 35  1  0  0  0  0
 43 44  1  0  0  0  0
 44 45  1  0  0  0  0
 44106  1  0  0  0  0
 44107  1  0  0  0  0
 45 46  1  0  0  0  0
 45108  1  0  0  0  0
 45109  1  0  0  0  0
 46 47  1  0  0  0  0
 47 48  1  0  0  0  0
 47110  1  0  0  0  0
 47111  1  0  0  0  0
 48 49  1  0  0  0  0
 48 51  1  0  0  0  0
 48112  1  0  0  0  0
 49 50  1  0  0  0  0
 49113  1  0  0  0  0
 49114  1  0  0  0  0
 50 51  1  0  0  0  0
 50115  1  0  0  0  0
 50116  1  0  0  0  0
 51117  1  0  0  0  0
 51118  1  0  0  0  0
 52 53  2  0  0  0  0
 52 64  1  0  0  0  0
 54 53  1  1  0  0  0
 54 55  1  0  0  0  0
 54 63  1  0  0  0  0
 55 56  1  0  0  0  0
 55119  1  0  0  0  0
 55120  1  0  0  0  0
 56 57  1  0  0  0  0
 56121  1  0  0  0  0
 56122  1  0  0  0  0
 57 58  1  0  0  0  0
 58 59  1  0  0  0  0
 58123  1  0  0  0  0
 58124  1  0  0  0  0
 59 60  1  0  0  0  0
 59 62  1  0  0  0  0
 59125  1  0  0  0  0
 60 61  1  0  0  0  0
 60126  1  0  0  0  0
 60127  1  0  0  0  0
 61 62  1  0  0  0  0
 61128  1  0  0  0  0
 61129  1  0  0  0  0
 62130  1  0  0  0  0
 62131  1  0  0  0  0
 63  2  1  0  0  0  0
 63 64  1  0  0  0  0
 63132  1  6  0  0  0
M  END
>  <DRUGBANK_ID>
DB15341

>  <COMMON_NAME>
Dinalbuphine sebacate

>  <CAS_NUMBER>
311768-81-7

>  <UNII>
464OXX39Y6

>  <SYNONYMS>
Dinalbuphine sebacate; NALBUPHINE SEBACATE

$$$$
