
 OpenBabel10282417223D

 59 64  0  0  1  0  0  0  0  0999 V2000
   -4.3117   -6.5101    2.2924 O   0  0  0  0  0  0  0  0  0  0  0  0
   -5.2966   -5.6450    2.5685 C   0  0  0  0  0  0  0  0  0  0  0  0
   -6.0953   -5.8431    3.4861 O   0  0  0  0  0  0  0  0  0  0  0  0
   -5.3126   -4.4681    1.6798 C   0  0  0  0  0  0  0  0  0  0  0  0
   -5.1173   -4.6038    0.3045 C   0  0  0  0  0  0  0  0  0  0  0  0
   -5.2588   -3.4850   -0.5374 C   0  0  0  0  0  0  0  0  0  0  0  0
   -5.5823   -2.2082   -0.0293 C   0  0  0  0  0  0  0  0  0  0  0  0
   -5.8298   -2.1212    1.3494 C   0  0  0  0  0  0  0  0  0  0  0  0
   -5.6487   -3.2173    2.2027 C   0  0  0  0  0  0  0  0  0  0  0  0
   -5.4451   -0.9400   -0.8611 C   0  0  1  0  0  0  0  0  0  0  0  0
   -6.3569   -0.6183   -2.0018 C   0  0  0  0  0  0  0  0  0  0  0  0
   -6.4409    0.2208   -0.7271 C   0  0  2  0  0  0  0  0  0  0  0  0
   -6.1280    1.7314   -0.6721 C   0  0  0  0  0  0  0  0  0  0  0  0
   -6.6917    2.6345   -1.5993 C   0  0  0  0  0  0  0  0  0  0  0  0
   -7.7269    2.0783   -2.8849 Cl  0  0  0  0  0  0  0  0  0  0  0  0
   -6.2838    3.9791   -1.6778 C   0  0  0  0  0  0  0  0  0  0  0  0
   -5.3176    4.4856   -0.8080 C   0  0  0  0  0  0  0  0  0  0  0  0
   -4.5451    5.6041   -1.0384 O   0  0  0  0  0  0  0  0  0  0  0  0
   -4.8380    6.3633   -2.2219 C   0  0  0  0  0  0  0  0  0  0  0  0
   -4.3258    5.8447   -3.5336 C   0  0  0  0  0  0  0  0  0  0  0  0
   -4.7314    6.2436   -4.8026 C   0  0  0  0  0  0  0  0  0  0  0  0
   -4.1593    5.4243   -5.7266 O   0  0  0  0  0  0  0  0  0  0  0  0
   -3.2870    4.5594   -5.1170 N   0  0  0  0  0  0  0  0  0  0  0  0
   -3.3770    4.7924   -3.8008 C   0  0  0  0  0  0  0  0  0  0  0  0
   -2.7230    3.8830   -2.8625 C   0  0  0  0  0  0  0  0  0  0  0  0
   -3.3845    2.7324   -2.4718 C   0  0  0  0  0  0  0  0  0  0  0  0
   -4.4647    1.9806   -3.5898 Cl  0  0  0  0  0  0  0  0  0  0  0  0
   -2.9675    1.9860   -1.3636 C   0  0  0  0  0  0  0  0  0  0  0  0
   -1.7589    2.2217   -0.7678 C   0  0  0  0  0  0  0  0  0  0  0  0
   -0.9020    3.0104   -1.5084 C   0  0  0  0  0  0  0  0  0  0  0  0
   -1.3896    3.9081   -2.4875 C   0  0  0  0  0  0  0  0  0  0  0  0
   -0.2459    4.8662   -3.3454 Cl  0  0  0  0  0  0  0  0  0  0  0  0
   -5.6840    7.3595   -5.2306 C   0  0  0  0  0  0  0  0  0  0  0  0
   -5.3872    8.7947   -4.8426 C   0  0  0  0  0  0  0  0  0  0  0  0
   -6.5474    8.0897   -4.2277 C   0  0  0  0  0  0  0  0  0  0  0  0
   -4.8920    3.6884    0.2515 C   0  0  0  0  0  0  0  0  0  0  0  0
   -5.2900    2.3278    0.3146 C   0  0  0  0  0  0  0  0  0  0  0  0
   -4.4215   -7.2384    2.9425 H   0  0  0  0  0  0  0  0  0  0  0  0
   -4.8503   -5.5721   -0.1133 H   0  0  0  0  0  0  0  0  0  0  0  0
   -5.0791   -3.6142   -1.6038 H   0  0  0  0  0  0  0  0  0  0  0  0
   -6.1348   -1.1669    1.7729 H   0  0  0  0  0  0  0  0  0  0  0  0
   -5.7498   -3.0795    3.2768 H   0  0  0  0  0  0  0  0  0  0  0  0
   -4.4014   -0.7342   -1.0823 H   0  0  0  0  0  0  0  0  0  0  0  0
   -5.8525   -0.3167   -2.9162 H   0  0  0  0  0  0  0  0  0  0  0  0
   -7.2364   -1.2122   -2.2295 H   0  0  0  0  0  0  0  0  0  0  0  0
   -7.3502    0.0289   -0.1685 H   0  0  0  0  0  0  0  0  0  0  0  0
   -6.5969    4.5213   -2.5645 H   0  0  0  0  0  0  0  0  0  0  0  0
   -5.9226    6.4700   -2.2313 H   0  0  0  0  0  0  0  0  0  0  0  0
   -4.4245    7.3702   -2.0851 H   0  0  0  0  0  0  0  0  0  0  0  0
   -3.5601    1.1682   -0.9862 H   0  0  0  0  0  0  0  0  0  0  0  0
   -1.4522    1.6250    0.0872 H   0  0  0  0  0  0  0  0  0  0  0  0
    0.1604    2.8197   -1.4051 H   0  0  0  0  0  0  0  0  0  0  0  0
   -6.0282    7.2553   -6.2583 H   0  0  0  0  0  0  0  0  0  0  0  0
   -4.4975    8.9980   -4.2572 H   0  0  0  0  0  0  0  0  0  0  0  0
   -5.6198    9.5868   -5.5475 H   0  0  0  0  0  0  0  0  0  0  0  0
   -7.5590    8.3550   -4.5044 H   0  0  0  0  0  0  0  0  0  0  0  0
   -6.4897    7.9418   -3.1661 H   0  0  0  0  0  0  0  0  0  0  0  0
   -4.0775    4.0498    0.8850 H   0  0  0  0  0  0  0  0  0  0  0  0
   -4.7495    1.6963    1.0236 H   0  0  0  0  0  0  0  0  0  0  0  0
  1  2  1  0  0  0  0
  1 38  1  0  0  0  0
  2  3  2  0  0  0  0
  2  4  1  0  0  0  0
  4  5  2  0  0  0  0
  4  9  1  0  0  0  0
  5  6  1  0  0  0  0
  5 39  1  0  0  0  0
  6  7  2  0  0  0  0
  6 40  1  0  0  0  0
  7  8  1  0  0  0  0
  8  9  2  0  0  0  0
  8 41  1  0  0  0  0
  9 42  1  0  0  0  0
 10 11  1  0  0  0  0
 10 12  1  0  0  0  0
 10 43  1  6  0  0  0
 10  7  1  0  0  0  0
 11 44  1  0  0  0  0
 11 45  1  0  0  0  0
 12 11  1  0  0  0  0
 12 46  1  1  0  0  0
 12 13  1  0  0  0  0
 13 14  2  0  0  0  0
 13 37  1  0  0  0  0
 14 15  1  0  0  0  0
 14 16  1  0  0  0  0
 16 17  2  0  0  0  0
 16 47  1  0  0  0  0
 17 18  1  0  0  0  0
 17 36  1  0  0  0  0
 18 19  1  0  0  0  0
 19 20  1  0  0  0  0
 19 48  1  0  0  0  0
 19 49  1  0  0  0  0
 20 21  2  0  0  0  0
 20 24  1  0  0  0  0
 21 22  1  0  0  0  0
 21 33  1  0  0  0  0
 22 23  1  0  0  0  0
 23 24  2  0  0  0  0
 24 25  1  0  0  0  0
 25 26  2  0  0  0  0
 25 31  1  0  0  0  0
 26 27  1  0  0  0  0
 26 28  1  0  0  0  0
 28 29  2  0  0  0  0
 28 50  1  0  0  0  0
 29 30  1  0  0  0  0
 29 51  1  0  0  0  0
 30 31  2  0  0  0  0
 30 52  1  0  0  0  0
 31 32  1  0  0  0  0
 33 34  1  0  0  0  0
 33 35  1  0  0  0  0
 33 53  1  0  0  0  0
 34 35  1  0  0  0  0
 34 54  1  0  0  0  0
 34 55  1  0  0  0  0
 35 56  1  0  0  0  0
 35 57  1  0  0  0  0
 36 37  2  0  0  0  0
 36 58  1  0  0  0  0
 37 59  1  0  0  0  0
M  END
>  <DRUGBANK_ID>
DB15416

>  <COMMON_NAME>
PX-102

>  <CAS_NUMBER>
1268244-88-7

>  <UNII>
378SU5NO8S

$$$$
