
 OpenBabel10282417213D

 57 60  0  0  0  0  0  0  0  0999 V2000
   -1.6977   -0.7577   -0.8819 C   0  0  0  0  0  0  0  0  0  0  0  0
   -0.8143   -2.0648   -0.7971 C   0  0  1  0  0  0  0  0  0  0  0  0
   -1.3461   -3.8526   -1.1159 C   0  0  1  0  0  0  0  0  0  0  0  0
   -0.0586   -2.6040    0.4225 C   0  0  2  0  0  0  0  0  0  0  0  0
    0.5854   -1.1516   -1.5452 C   0  0  0  0  0  0  0  0  0  0  0  0
   -1.4157   -4.8032    0.3755 O   0  0  0  0  0  0  0  0  0  0  0  0
   -2.4643   -5.0651   -1.3654 C   0  0  0  0  0  0  0  0  0  0  0  0
    0.0731   -4.1339   -1.5738 C   0  0  0  0  0  0  0  0  0  0  0  0
    0.6644   -1.6872    1.3523 C   0  0  1  0  0  0  0  0  0  0  0  0
    0.8740   -3.6178   -0.3577 C   0  0  0  0  0  0  0  0  0  0  0  0
    1.4463   -0.3144   -0.5261 C   0  0  0  0  0  0  0  0  0  0  0  0
   -1.3071   -6.1883    0.6649 C   0  0  0  0  0  0  0  0  0  0  0  0
   -3.7904   -5.3053   -0.4632 C   0  0  0  0  0  0  0  0  0  0  0  0
   -2.0927   -6.0498   -2.0454 O   0  0  0  0  0  0  0  0  0  0  0  0
    1.8458   -1.1035    0.7049 C   0  0  2  0  0  0  0  0  0  0  0  0
    1.2480   -2.2549    2.6291 C   0  0  0  0  0  0  0  0  0  0  0  0
   -0.0303   -6.5148    1.2805 C   0  0  0  0  0  0  0  0  0  0  0  0
   -2.1825   -7.0458    0.7953 O   0  0  0  0  0  0  0  0  0  0  0  0
    2.4505   -0.2745    1.7769 C   0  0  2  0  0  0  0  0  0  0  0  0
    2.3568   -1.8241    3.3679 C   0  0  0  0  0  0  0  0  0  0  0  0
    3.2947   -0.4932    2.9377 C   0  0  0  0  0  0  0  0  0  0  0  0
    1.3453    0.6245    2.6535 C   0  0  0  0  0  0  0  0  0  0  0  0
    2.6563   -3.0266    4.2626 C   0  0  0  0  0  0  0  0  0  0  0  0
    3.6942    0.9331    2.9537 C   0  0  0  0  0  0  0  0  0  0  0  0
    1.3660    1.8996    1.9215 C   0  0  0  0  0  0  0  0  0  0  0  0
    2.8884    1.9277    1.7273 C   0  0  0  0  0  0  0  0  0  0  0  0
    3.4692    2.2876    0.6667 O   0  0  0  0  0  0  0  0  0  0  0  0
   -0.1118   -0.9576    1.5930 H   0  0  0  0  0  0  0  0  0  0  0  0
    2.6150   -1.8323    0.4168 H   0  0  0  0  0  0  0  0  0  0  0  0
   -0.8390   -3.0140    1.0669 H   0  0  0  0  0  0  0  0  0  0  0  0
    3.3175    0.0070    1.1406 H   0  0  0  0  0  0  0  0  0  0  0  0
   -1.7981   -0.4229   -1.9402 H   0  0  0  0  0  0  0  0  0  0  0  0
   -1.1599    0.1214   -0.4598 H   0  0  0  0  0  0  0  0  0  0  0  0
   -2.6743   -0.7040   -0.4218 H   0  0  0  0  0  0  0  0  0  0  0  0
    1.2533   -1.6998   -2.2135 H   0  0  0  0  0  0  0  0  0  0  0  0
    0.2186   -0.3379   -2.1964 H   0  0  0  0  0  0  0  0  0  0  0  0
    0.3253   -5.1127   -1.9717 H   0  0  0  0  0  0  0  0  0  0  0  0
    0.2778   -3.4646   -2.4265 H   0  0  0  0  0  0  0  0  0  0  0  0
    1.3401   -4.3734    0.2507 H   0  0  0  0  0  0  0  0  0  0  0  0
    1.7460   -3.1112   -0.7635 H   0  0  0  0  0  0  0  0  0  0  0  0
    2.3398    0.1762   -0.9530 H   0  0  0  0  0  0  0  0  0  0  0  0
    0.8348    0.5406   -0.2618 H   0  0  0  0  0  0  0  0  0  0  0  0
   -4.6208   -5.6944   -1.0590 H   0  0  0  0  0  0  0  0  0  0  0  0
   -3.7784   -6.1028    0.2993 H   0  0  0  0  0  0  0  0  0  0  0  0
   -4.0126   -4.4442    0.1552 H   0  0  0  0  0  0  0  0  0  0  0  0
    0.7307   -3.1798    2.8871 H   0  0  0  0  0  0  0  0  0  0  0  0
   -0.1626   -6.3501    2.3498 H   0  0  0  0  0  0  0  0  0  0  0  0
    0.2464   -7.5449    1.0467 H   0  0  0  0  0  0  0  0  0  0  0  0
    0.6782   -5.8657    0.8311 H   0  0  0  0  0  0  0  0  0  0  0  0
    1.6174    0.8307    3.7208 H   0  0  0  0  0  0  0  0  0  0  0  0
    0.3854    0.1662    2.8777 H   0  0  0  0  0  0  0  0  0  0  0  0
    2.5619   -3.9655    3.6668 H   0  0  0  0  0  0  0  0  0  0  0  0
    3.6233   -3.0975    4.7425 H   0  0  0  0  0  0  0  0  0  0  0  0
    1.8439   -3.1350    5.0014 H   0  0  0  0  0  0  0  0  0  0  0  0
    3.5298    1.8184    3.6078 H   0  0  0  0  0  0  0  0  0  0  0  0
    0.9705    2.7254    2.4950 H   0  0  0  0  0  0  0  0  0  0  0  0
    0.6991    1.7087    1.0858 H   0  0  0  0  0  0  0  0  0  0  0  0
  1 32  1  0  0  0  0
  1 33  1  0  0  0  0
  1 34  1  0  0  0  0
  2  3  1  0  0  0  0
  2  5  1  0  0  0  0
  2  1  1  6  0  0  0
  3  8  1  0  0  0  0
  3  7  1  6  0  0  0
  3  6  1  0  0  0  0
  4  2  1  0  0  0  0
  4 10  1  0  0  0  0
  4 30  1  1  0  0  0
  5 11  1  0  0  0  0
  5 35  1  0  0  0  0
  5 36  1  0  0  0  0
  6 12  1  0  0  0  0
  7 13  1  0  0  0  0
  7 14  2  0  0  0  0
  8 10  1  0  0  0  0
  8 37  1  0  0  0  0
  8 38  1  0  0  0  0
  9  4  1  0  0  0  0
  9 16  1  0  0  0  0
  9 28  1  6  0  0  0
 10 39  1  0  0  0  0
 10 40  1  0  0  0  0
 11 41  1  0  0  0  0
 11 42  1  0  0  0  0
 12 17  1  0  0  0  0
 12 18  2  0  0  0  0
 13 43  1  0  0  0  0
 13 44  1  0  0  0  0
 13 45  1  0  0  0  0
 15  9  1  0  0  0  0
 15 11  1  0  0  0  0
 15 19  1  0  0  0  0
 15 29  1  1  0  0  0
 16 20  2  0  0  0  0
 16 46  1  0  0  0  0
 17 47  1  0  0  0  0
 17 48  1  0  0  0  0
 17 49  1  0  0  0  0
 19 21  1  0  0  0  0
 19 22  1  0  0  0  0
 19 31  1  6  0  0  0
 20 21  1  0  0  0  0
 20 23  1  0  0  0  0
 21 24  2  0  0  0  0
 22 25  1  0  0  0  0
 22 50  1  0  0  0  0
 22 51  1  0  0  0  0
 23 52  1  0  0  0  0
 23 53  1  0  0  0  0
 23 54  1  0  0  0  0
 24 26  1  0  0  0  0
 24 55  1  0  0  0  0
 25 26  1  0  0  0  0
 25 56  1  0  0  0  0
 25 57  1  0  0  0  0
 26 27  2  0  0  0  0
M  END
>  <DRUGBANK_ID>
DB13981

>  <COMMON_NAME>
Nomegestrol acetate

>  <CAS_NUMBER>
58652-20-3

>  <UNII>
83J78V5W05

>  <SYNONYMS>
17-alpha-Acetoxy-6-methyl-19-nor-4,6-pregnadiene-3,20-dione; 17-alpha-Hydroxy-6-methyl-19-norpregna-4,6-diene-3,20-dione acetate; Nomegestrol acetate

$$$$
