
 OpenBabel10282417223D

 76 80  0  0  0  0  0  0  0  0999 V2000
    0.6683    0.2800    0.4003 C   0  0  0  0  0  0  0  0  0  0  0  0
   -1.3609   -0.9081   -1.0428 N   0  0  0  0  0  0  0  0  0  0  0  0
   -0.4871    0.2441   -0.9190 C   0  0  1  0  0  0  0  0  0  0  0  0
   -1.0313    1.5911   -1.0492 C   0  0  0  0  0  0  0  0  0  0  0  0
    0.0507    2.6454   -1.0265 C   0  0  0  0  0  0  0  0  0  0  0  0
   -0.3811    3.9098   -1.3223 C   0  0  0  0  0  0  0  0  0  0  0  0
    0.5225    4.9738   -1.4237 C   0  0  0  0  0  0  0  0  0  0  0  0
    1.8798    4.7949   -1.1408 C   0  0  0  0  0  0  0  0  0  0  0  0
    2.2612    3.5810   -0.6690 C   0  0  0  0  0  0  0  0  0  0  0  0
    1.4315    2.5188   -0.8708 C   0  0  0  0  0  0  0  0  0  0  0  0
    0.2391    0.2895    1.5477 O   0  0  0  0  0  0  0  0  0  0  0  0
    2.0373    0.1126    0.2980 O   0  0  0  0  0  0  0  0  0  0  0  0
    2.8506    5.7751   -1.3938 N   0  0  0  0  0  0  0  0  0  0  0  0
    4.2505    5.6912   -1.3917 C   0  0  0  0  0  0  0  0  0  0  0  0
    4.8955    6.7374   -1.4588 O   0  0  0  0  0  0  0  0  0  0  0  0
    6.3886    2.9226    0.0526 C   0  0  0  0  0  0  0  0  0  0  0  0
    5.9093    4.2090   -0.2104 C   0  0  0  0  0  0  0  0  0  0  0  0
    5.0198    4.3964   -1.2868 C   0  0  0  0  0  0  0  0  0  0  0  0
    4.7809    3.2891   -2.1262 C   0  0  0  0  0  0  0  0  0  0  0  0
    5.2518    2.0360   -1.7210 C   0  0  0  0  0  0  0  0  0  0  0  0
    6.0285    1.8198   -0.6411 N   0  0  0  0  0  0  0  0  0  0  0  0
    3.8035    3.3262   -3.5476 Cl  0  0  0  0  0  0  0  0  0  0  0  0
    6.4266    5.4605    0.8553 Cl  0  0  0  0  0  0  0  0  0  0  0  0
   -2.6279   -1.0303   -1.3781 C   0  0  0  0  0  0  0  0  0  0  0  0
   -1.9772   -3.7601   -1.3056 N   0  0  0  0  0  0  0  0  0  0  0  0
   -2.8739   -2.4938   -1.2934 C   0  0  1  0  0  0  0  0  0  0  0  0
   -3.6588   -2.5978   -0.0029 C   0  0  0  0  0  0  0  0  0  0  0  0
   -4.1694   -4.0122   -0.0646 C   0  0  2  0  0  0  0  0  0  0  0  0
   -3.0045   -4.8090   -0.7233 C   0  0  0  0  0  0  0  0  0  0  0  0
   -3.4124   -0.1281   -1.5511 O   0  0  0  0  0  0  0  0  0  0  0  0
   -5.4706   -4.1017   -0.7935 N   0  0  0  0  0  0  0  0  0  0  0  0
   -5.4163   -3.4362   -2.0958 C   0  0  0  0  0  0  0  0  0  0  0  0
   -6.7255   -3.5158   -2.8615 C   0  0  0  0  0  0  0  0  0  0  0  0
   -5.8343   -3.5315   -4.1395 C   0  0  0  0  0  0  0  0  0  0  0  0
   -4.7771   -4.2506   -3.2728 C   0  0  0  0  0  0  0  0  0  0  0  0
   -0.4048   -3.9527   -0.4882 S   0  0  0  0  0  0  0  0  0  0  0  0
   -0.6182   -3.3638    0.8176 O   0  0  0  0  0  0  0  0  0  0  0  0
   -0.0155   -5.3396   -0.6133 O   0  0  0  0  0  0  0  0  0  0  0  0
    0.9282   -2.9890   -1.4059 C   0  0  0  0  0  0  0  0  0  0  0  0
    0.9876   -1.6492   -1.3273 C   0  0  0  0  0  0  0  0  0  0  0  0
    1.5949   -0.6651   -2.3497 C   0  0  0  0  0  0  0  0  0  0  0  0
    2.8003   -0.9921   -2.7669 C   0  0  0  0  0  0  0  0  0  0  0  0
    3.0589   -2.3237   -2.5163 C   0  0  0  0  0  0  0  0  0  0  0  0
    2.0838   -3.3359   -2.0176 C   0  0  0  0  0  0  0  0  0  0  0  0
    1.1292    0.6126   -3.1018 C   0  0  0  0  0  0  0  0  0  0  0  0
    0.7099    1.5219   -3.6499 N   0  0  0  0  0  0  0  0  0  0  0  0
   -0.9916   -1.8068   -1.3244 H   0  0  0  0  0  0  0  0  0  0  0  0
   -0.2833    0.0838   -1.9527 H   0  0  0  0  0  0  0  0  0  0  0  0
   -1.5733    1.6321   -2.0095 H   0  0  0  0  0  0  0  0  0  0  0  0
   -1.7205    1.6374   -0.2157 H   0  0  0  0  0  0  0  0  0  0  0  0
   -1.4207    4.0016   -1.6133 H   0  0  0  0  0  0  0  0  0  0  0  0
    0.1128    5.9133   -1.7605 H   0  0  0  0  0  0  0  0  0  0  0  0
    3.2409    3.3488   -0.3007 H   0  0  0  0  0  0  0  0  0  0  0  0
    2.0375    1.6463   -1.0413 H   0  0  0  0  0  0  0  0  0  0  0  0
    2.7005   -0.0569   -0.4094 H   0  0  0  0  0  0  0  0  0  0  0  0
    2.4941    6.7015   -1.6043 H   0  0  0  0  0  0  0  0  0  0  0  0
    7.0901    2.7316    0.8638 H   0  0  0  0  0  0  0  0  0  0  0  0
    4.9634    1.1252   -2.2368 H   0  0  0  0  0  0  0  0  0  0  0  0
   -3.3541   -2.5910   -2.2582 H   0  0  0  0  0  0  0  0  0  0  0  0
   -2.9823   -2.4345    0.8481 H   0  0  0  0  0  0  0  0  0  0  0  0
   -4.4366   -1.8294    0.1035 H   0  0  0  0  0  0  0  0  0  0  0  0
   -4.3358   -4.3662    0.9630 H   0  0  0  0  0  0  0  0  0  0  0  0
   -2.5500   -5.4910   -0.0008 H   0  0  0  0  0  0  0  0  0  0  0  0
   -3.3924   -5.4420   -1.5268 H   0  0  0  0  0  0  0  0  0  0  0  0
   -6.1413   -3.5965   -0.1987 H   0  0  0  0  0  0  0  0  0  0  0  0
   -5.1763   -2.3734   -2.0290 H   0  0  0  0  0  0  0  0  0  0  0  0
   -7.3293   -4.4115   -2.7085 H   0  0  0  0  0  0  0  0  0  0  0  0
   -7.3302   -2.6158   -2.7257 H   0  0  0  0  0  0  0  0  0  0  0  0
   -6.2022   -4.0779   -5.0062 H   0  0  0  0  0  0  0  0  0  0  0  0
   -5.5123   -2.5303   -4.4626 H   0  0  0  0  0  0  0  0  0  0  0  0
   -3.7462   -4.0198   -3.5733 H   0  0  0  0  0  0  0  0  0  0  0  0
   -4.8636   -5.3436   -3.2707 H   0  0  0  0  0  0  0  0  0  0  0  0
    0.4750   -1.5130   -0.3536 H   0  0  0  0  0  0  0  0  0  0  0  0
    3.3987   -0.2118   -3.2373 H   0  0  0  0  0  0  0  0  0  0  0  0
    4.0766   -2.6101   -2.6972 H   0  0  0  0  0  0  0  0  0  0  0  0
    2.3248   -4.3784   -2.0731 H   0  0  0  0  0  0  0  0  0  0  0  0
  1  3  1  0  0  0  0
  1 11  2  0  0  0  0
  1 12  1  0  0  0  0
  2  3  1  0  0  0  0
  2 24  1  0  0  0  0
  2 47  1  0  0  0  0
  3  4  1  0  0  0  0
  3 48  1  6  0  0  0
  4  5  1  0  0  0  0
  4 49  1  0  0  0  0
  4 50  1  0  0  0  0
  5  6  1  0  0  0  0
  5 10  2  0  0  0  0
  6  7  2  0  0  0  0
  6 51  1  0  0  0  0
  7  8  1  0  0  0  0
  7 52  1  0  0  0  0
  8  9  2  0  0  0  0
  8 13  1  0  0  0  0
  9 10  1  0  0  0  0
  9 53  1  0  0  0  0
 10 54  1  0  0  0  0
 12 55  1  0  0  0  0
 13 14  1  0  0  0  0
 13 56  1  0  0  0  0
 14 15  2  0  0  0  0
 14 18  1  0  0  0  0
 16 17  1  0  0  0  0
 16 21  2  0  0  0  0
 16 57  1  0  0  0  0
 17 18  2  0  0  0  0
 17 23  1  0  0  0  0
 18 19  1  0  0  0  0
 19 20  2  0  0  0  0
 19 22  1  0  0  0  0
 20 21  1  0  0  0  0
 20 58  1  0  0  0  0
 24 30  2  0  0  0  0
 25 26  1  0  0  0  0
 25 29  1  0  0  0  0
 25 36  1  0  0  0  0
 26 24  1  0  0  0  0
 26 27  1  0  0  0  0
 26 59  1  6  0  0  0
 27 28  1  0  0  0  0
 27 60  1  0  0  0  0
 27 61  1  0  0  0  0
 28 29  1  0  0  0  0
 28 62  1  1  0  0  0
 28 31  1  0  0  0  0
 29 63  1  0  0  0  0
 29 64  1  0  0  0  0
 31 32  1  0  0  0  0
 31 65  1  0  0  0  0
 32 33  1  0  0  0  0
 32 35  1  0  0  0  0
 32 66  1  0  0  0  0
 33 34  1  0  0  0  0
 33 67  1  0  0  0  0
 33 68  1  0  0  0  0
 34 35  1  0  0  0  0
 34 69  1  0  0  0  0
 34 70  1  0  0  0  0
 35 71  1  0  0  0  0
 35 72  1  0  0  0  0
 36 37  2  0  0  0  0
 36 38  2  0  0  0  0
 36 39  1  0  0  0  0
 39 40  1  0  0  0  0
 39 44  2  0  0  0  0
 40 41  2  0  0  0  0
 40 73  1  0  0  0  0
 41 42  1  0  0  0  0
 41 45  1  0  0  0  0
 42 43  2  0  0  0  0
 42 74  1  0  0  0  0
 43 44  1  0  0  0  0
 43 75  1  0  0  0  0
 44 76  1  0  0  0  0
 45 46  3  0  0  0  0
M  END
>  <DRUGBANK_ID>
DB15791

>  <COMMON_NAME>
MK-0668

>  <CAS_NUMBER>
865110-07-2

>  <UNII>
S441P37178

$$$$
