
 OpenBabel10282417193D

 28 29  0  0  0  0  0  0  0  0999 V2000
   -2.2327    0.7967   -0.0587 C   0  0  0  0  0  0  0  0  0  0  0  0
   -2.2432   -0.6077   -0.0382 C   0  0  0  0  0  0  0  0  0  0  0  0
   -1.0548   -1.2867    0.1065 C   0  0  0  0  0  0  0  0  0  0  0  0
    0.0998   -0.5254    0.2021 C   0  0  0  0  0  0  0  0  0  0  0  0
    0.1519    0.8546    0.1103 C   0  0  0  0  0  0  0  0  0  0  0  0
   -1.0359    1.5378    0.0166 C   0  0  0  0  0  0  0  0  0  0  0  0
    1.5831    1.3247    0.1078 C   0  0  0  0  0  0  0  0  0  0  0  0
    2.3692    0.0260   -0.2789 C   0  0  0  0  0  0  0  0  0  0  0  0
    1.4540   -1.0882    0.2520 C   0  0  0  0  0  0  0  0  0  0  0  0
    2.6284   -0.1080   -1.7287 N   0  0  0  0  0  0  0  0  0  0  0  0
    3.4583   -1.2734   -2.1420 C   0  0  0  0  0  0  0  0  0  0  0  0
    2.8351   -2.6614   -1.8864 C   0  0  0  0  0  0  0  0  0  0  0  0
    2.1374   -3.2517   -2.6890 O   0  0  0  0  0  0  0  0  0  0  0  0
    3.0227   -3.1883   -0.6221 N   0  0  0  0  0  0  0  0  0  0  0  0
   -3.1796    1.3171   -0.1548 H   0  0  0  0  0  0  0  0  0  0  0  0
   -3.1665   -1.1693   -0.1458 H   0  0  0  0  0  0  0  0  0  0  0  0
   -1.0084   -2.3733    0.0840 H   0  0  0  0  0  0  0  0  0  0  0  0
   -1.0511    2.6195   -0.0261 H   0  0  0  0  0  0  0  0  0  0  0  0
    1.8698    1.6303    1.1228 H   0  0  0  0  0  0  0  0  0  0  0  0
    1.7693    2.1512   -0.5832 H   0  0  0  0  0  0  0  0  0  0  0  0
    3.3484    0.0272    0.2178 H   0  0  0  0  0  0  0  0  0  0  0  0
    1.3189   -1.8999   -0.4398 H   0  0  0  0  0  0  0  0  0  0  0  0
    1.7367   -1.4347    1.2477 H   0  0  0  0  0  0  0  0  0  0  0  0
    1.7448   -0.1074   -2.2437 H   0  0  0  0  0  0  0  0  0  0  0  0
    3.6018   -1.2069   -3.2270 H   0  0  0  0  0  0  0  0  0  0  0  0
    4.4501   -1.2229   -1.6852 H   0  0  0  0  0  0  0  0  0  0  0  0
    3.3247   -2.5714    0.1207 H   0  0  0  0  0  0  0  0  0  0  0  0
    2.2494   -3.7972   -0.3562 H   0  0  0  0  0  0  0  0  0  0  0  0
  1  2  2  0  0  0  0
  1  6  1  0  0  0  0
  1 15  1  0  0  0  0
  2  3  1  0  0  0  0
  2 16  1  0  0  0  0
  3  4  2  0  0  0  0
  3 17  1  0  0  0  0
  4  5  1  0  0  0  0
  4  9  1  0  0  0  0
  5  6  2  0  0  0  0
  5  7  1  0  0  0  0
  6 18  1  0  0  0  0
  7  8  1  0  0  0  0
  7 19  1  0  0  0  0
  7 20  1  0  0  0  0
  8  9  1  0  0  0  0
  8 10  1  0  0  0  0
  8 21  1  0  0  0  0
  9 22  1  0  0  0  0
  9 23  1  0  0  0  0
 10 11  1  0  0  0  0
 10 24  1  0  0  0  0
 11 12  1  0  0  0  0
 11 25  1  0  0  0  0
 11 26  1  0  0  0  0
 12 13  2  0  0  0  0
 12 14  1  0  0  0  0
 14 27  1  0  0  0  0
 14 28  1  0  0  0  0
M  END
>  <DRUGBANK_ID>
DB12664

>  <SECONDARY_ACCESSION_NUMBERS>
DB06296

>  <COMMON_NAME>
Indantadol

>  <CAS_NUMBER>
202844-10-8

>  <UNII>
Z3867B9SQP

>  <SYNONYMS>
Indantadol

$$$$
