
 OpenBabel10282417213D

 56 59  0  0  0  0  0  0  0  0999 V2000
    4.2270    0.0042    0.2363 C   0  0  0  0  0  0  0  0  0  0  0  0
    3.6803    1.4062    0.1030 C   0  0  0  0  0  0  0  0  0  0  0  0
    2.1980    1.4949    0.4448 C   0  0  0  0  0  0  0  0  0  0  0  0
    5.3893   -0.1885    0.5960 O   0  0  0  0  0  0  0  0  0  0  0  0
    3.3735   -1.1367   -0.2659 C   0  0  0  0  0  0  0  0  0  0  0  0
    1.9152   -0.9720    0.1613 C   0  0  2  0  0  0  0  0  0  0  0  0
    1.0749   -2.1418   -0.3620 C   0  0  0  0  0  0  0  0  0  0  0  0
   -0.3668   -2.0448    0.1130 C   0  0  0  0  0  0  0  0  0  0  0  0
   -1.0002   -0.6919   -0.2321 C   0  0  1  0  0  0  0  0  0  0  0  0
   -2.3921   -0.5825    0.3675 C   0  0  2  0  0  0  0  0  0  0  0  0
   -3.3914   -1.6736    0.0220 C   0  0  0  0  0  0  0  0  0  0  0  0
   -4.7315   -1.0401    0.3598 C   0  0  0  0  0  0  0  0  0  0  0  0
   -4.4548    0.4466    0.6957 C   0  0  2  0  0  0  0  0  0  0  0  0
   -5.5544    1.2601    0.2900 O   0  0  0  0  0  0  0  0  0  0  0  0
   -3.1129    0.7308   -0.0050 C   0  0  2  0  0  0  0  0  0  0  0  0
   -3.3129    0.9540   -1.5180 C   0  0  0  0  0  0  0  0  0  0  0  0
   -2.2964    1.8873    0.5945 C   0  0  0  0  0  0  0  0  0  0  0  0
   -0.8390    1.8587    0.0992 C   0  0  0  0  0  0  0  0  0  0  0  0
   -0.1425    0.4872    0.3060 C   0  0  2  0  0  0  0  0  0  0  0  0
    1.3241    0.4149   -0.2422 C   0  0  1  0  0  0  0  0  0  0  0  0
    1.3490    0.6237   -1.7770 C   0  0  0  0  0  0  0  0  0  0  0  0
   -0.0781    0.3560    1.3986 H   0  0  0  0  0  0  0  0  0  0  0  0
   -1.0843   -0.6293   -1.3222 H   0  0  0  0  0  0  0  0  0  0  0  0
   -2.2724   -0.6129    1.4651 H   0  0  0  0  0  0  0  0  0  0  0  0
    1.8953   -1.0295    1.2615 H   0  0  0  0  0  0  0  0  0  0  0  0
   -6.7595    1.0922    0.8977 C   0  0  0  0  0  0  0  0  0  0  0  0
   -6.8431    0.2086    2.1197 C   0  0  0  0  0  0  0  0  0  0  0  0
   -7.7697    1.6440    0.4578 O   0  0  0  0  0  0  0  0  0  0  0  0
    4.2379    2.0605    0.7823 H   0  0  0  0  0  0  0  0  0  0  0  0
    3.8662    1.7500   -0.9191 H   0  0  0  0  0  0  0  0  0  0  0  0
    2.0875    1.4012    1.5340 H   0  0  0  0  0  0  0  0  0  0  0  0
    1.8505    2.4998    0.1811 H   0  0  0  0  0  0  0  0  0  0  0  0
    3.4729   -1.1914   -1.3542 H   0  0  0  0  0  0  0  0  0  0  0  0
    3.7718   -2.0688    0.1516 H   0  0  0  0  0  0  0  0  0  0  0  0
    1.0994   -2.1759   -1.4570 H   0  0  0  0  0  0  0  0  0  0  0  0
    1.4980   -3.0912   -0.0134 H   0  0  0  0  0  0  0  0  0  0  0  0
   -0.9427   -2.8584   -0.3430 H   0  0  0  0  0  0  0  0  0  0  0  0
   -0.4003   -2.2038    1.1987 H   0  0  0  0  0  0  0  0  0  0  0  0
   -3.3553   -1.9520   -1.0355 H   0  0  0  0  0  0  0  0  0  0  0  0
   -3.2318   -2.5786    0.6165 H   0  0  0  0  0  0  0  0  0  0  0  0
   -5.4415   -1.1422   -0.4689 H   0  0  0  0  0  0  0  0  0  0  0  0
   -5.1638   -1.5750    1.2088 H   0  0  0  0  0  0  0  0  0  0  0  0
   -4.2821    0.6226    1.7636 H   0  0  0  0  0  0  0  0  0  0  0  0
   -3.7991    0.1023   -2.0013 H   0  0  0  0  0  0  0  0  0  0  0  0
   -3.9371    1.8355   -1.6999 H   0  0  0  0  0  0  0  0  0  0  0  0
   -2.3693    1.1154   -2.0460 H   0  0  0  0  0  0  0  0  0  0  0  0
   -2.2844    1.8166    1.6906 H   0  0  0  0  0  0  0  0  0  0  0  0
   -2.7504    2.8553    0.3526 H   0  0  0  0  0  0  0  0  0  0  0  0
   -0.2902    2.6399    0.6357 H   0  0  0  0  0  0  0  0  0  0  0  0
   -0.8189    2.1407   -0.9566 H   0  0  0  0  0  0  0  0  0  0  0  0
    0.7631   -0.1292   -2.3111 H   0  0  0  0  0  0  0  0  0  0  0  0
    0.9502    1.6030   -2.0560 H   0  0  0  0  0  0  0  0  0  0  0  0
    2.3606    0.5740   -2.1877 H   0  0  0  0  0  0  0  0  0  0  0  0
   -7.2578    0.7803    2.9494 H   0  0  0  0  0  0  0  0  0  0  0  0
   -7.4581   -0.6646    1.8858 H   0  0  0  0  0  0  0  0  0  0  0  0
   -5.8946   -0.1639    2.4988 H   0  0  0  0  0  0  0  0  0  0  0  0
  1  2  1  0  0  0  0
  1  4  2  0  0  0  0
  1  5  1  0  0  0  0
  2  3  1  0  0  0  0
  2 29  1  0  0  0  0
  2 30  1  0  0  0  0
  3 20  1  0  0  0  0
  3 31  1  0  0  0  0
  3 32  1  0  0  0  0
  5  6  1  0  0  0  0
  5 33  1  0  0  0  0
  5 34  1  0  0  0  0
  6  7  1  0  0  0  0
  6 20  1  0  0  0  0
  6 25  1  1  0  0  0
  7  8  1  0  0  0  0
  7 35  1  0  0  0  0
  7 36  1  0  0  0  0
  8  9  1  0  0  0  0
  8 37  1  0  0  0  0
  8 38  1  0  0  0  0
  9 10  1  0  0  0  0
  9 19  1  0  0  0  0
  9 23  1  6  0  0  0
 10 11  1  0  0  0  0
 10 15  1  0  0  0  0
 10 24  1  1  0  0  0
 11 12  1  0  0  0  0
 11 39  1  0  0  0  0
 11 40  1  0  0  0  0
 12 13  1  0  0  0  0
 12 41  1  0  0  0  0
 12 42  1  0  0  0  0
 13 15  1  0  0  0  0
 13 43  1  1  0  0  0
 13 14  1  0  0  0  0
 14 26  1  0  0  0  0
 15 16  1  6  0  0  0
 15 17  1  0  0  0  0
 16 44  1  0  0  0  0
 16 45  1  0  0  0  0
 16 46  1  0  0  0  0
 17 18  1  0  0  0  0
 17 47  1  0  0  0  0
 17 48  1  0  0  0  0
 18 19  1  0  0  0  0
 18 49  1  0  0  0  0
 18 50  1  0  0  0  0
 19 20  1  0  0  0  0
 19 22  1  1  0  0  0
 20 21  1  6  0  0  0
 21 51  1  0  0  0  0
 21 52  1  0  0  0  0
 21 53  1  0  0  0  0
 26 27  1  0  0  0  0
 26 28  2  0  0  0  0
 27 54  1  0  0  0  0
 27 55  1  0  0  0  0
 27 56  1  0  0  0  0
M  END
>  <DRUGBANK_ID>
DB13951

>  <SECONDARY_ACCESSION_NUMBERS>
DBSALT002357

>  <COMMON_NAME>
Stanolone acetate

>  <CAS_NUMBER>
1164-91-6

>  <UNII>
63Z2Y83W8N

>  <SYNONYMS>
Androstanolone acetate; Dihydrotestosterone acetate

$$$$
