
 OpenBabel10282417143D

 36 38  0  0  1  0  0  0  0  0999 V2000
    1.4268   -1.1639    0.0269 N   0  0  0  0  0  0  0  0  0  0  0  0
    0.1413   -0.7145   -0.0528 C   0  0  0  0  0  0  0  0  0  0  0  0
    1.8729   -2.5543    0.0780 C   0  0  2  0  0  0  0  0  0  0  0  0
    2.1710   -0.0361    0.2769 C   0  0  0  0  0  0  0  0  0  0  0  0
    0.2345    0.6668   -0.0492 C   0  0  0  0  0  0  0  0  0  0  0  0
   -0.9743   -1.4755   -0.0419 N   0  0  0  0  0  0  0  0  0  0  0  0
    2.7792   -2.6623    1.2004 O   0  0  0  0  0  0  0  0  0  0  0  0
    2.6282   -3.0431   -1.1608 C   0  0  1  0  0  0  0  0  0  0  0  0
    1.5249    1.0836    0.0594 N   0  0  0  0  0  0  0  0  0  0  0  0
   -0.9833    1.4354   -0.0338 C   0  0  0  0  0  0  0  0  0  0  0  0
   -2.0551   -0.7541   -0.0176 C   0  0  0  0  0  0  0  0  0  0  0  0
    3.9634   -3.3982    0.8514 C   0  0  1  0  0  0  0  0  0  0  0  0
    3.7748   -3.8923   -0.5976 C   0  0  1  0  0  0  0  0  0  0  0  0
    1.9208   -3.5940   -2.2499 O   0  0  0  0  0  0  0  0  0  0  0  0
   -2.1041    0.6307   -0.0197 N   0  0  0  0  0  0  0  0  0  0  0  0
   -1.0564    2.6698   -0.0021 O   0  0  0  0  0  0  0  0  0  0  0  0
    5.2356   -2.5559    1.1432 C   0  0  0  0  0  0  0  0  0  0  0  0
    3.3496   -5.2585   -0.5860 O   0  0  0  0  0  0  0  0  0  0  0  0
    5.1851   -1.1835    0.7032 O   0  0  0  0  0  0  0  0  0  0  0  0
    4.7256   -1.1117   -0.9631 P   0  0  0  0  0  0  0  0  0  0  0  0
    4.9858    0.4965   -0.8435 O   0  0  0  0  0  0  0  0  0  0  0  0
    6.2526   -1.5755   -1.3193 O   0  0  0  0  0  0  0  0  0  0  0  0
    4.3143   -1.0474   -2.4545 O   0  0  0  0  0  0  0  0  0  0  0  0
    1.0093   -3.1988    0.2349 H   0  0  0  0  0  0  0  0  0  0  0  0
    3.1714   -0.0580    0.6642 H   0  0  0  0  0  0  0  0  0  0  0  0
    2.9421   -2.1504   -1.6249 H   0  0  0  0  0  0  0  0  0  0  0  0
   -3.0471   -1.2266    0.0059 H   0  0  0  0  0  0  0  0  0  0  0  0
    4.0155   -4.2637    1.5240 H   0  0  0  0  0  0  0  0  0  0  0  0
    4.7147   -3.8697   -1.1652 H   0  0  0  0  0  0  0  0  0  0  0  0
    1.6349   -4.4934   -2.0567 H   0  0  0  0  0  0  0  0  0  0  0  0
   -2.9854    1.1192    0.0000 H   0  0  0  0  0  0  0  0  0  0  0  0
    5.4460   -2.5258    2.2176 H   0  0  0  0  0  0  0  0  0  0  0  0
    6.1040   -3.0467    0.6846 H   0  0  0  0  0  0  0  0  0  0  0  0
    2.4518   -5.2982   -0.2175 H   0  0  0  0  0  0  0  0  0  0  0  0
    4.1599    1.0062   -0.9910 H   0  0  0  0  0  0  0  0  0  0  0  0
    6.8694   -1.5616   -0.5710 H   0  0  0  0  0  0  0  0  0  0  0  0
  1  2  1  0  0  0  0
  1  4  1  0  0  0  0
  2  5  2  0  0  0  0
  2  6  1  0  0  0  0
  3  1  1  0  0  0  0
  3  7  1  0  0  0  0
  3  8  1  0  0  0  0
  3 24  1  1  0  0  0
  4  9  2  0  0  0  0
  4 25  1  0  0  0  0
  5 10  1  0  0  0  0
  5  9  1  0  0  0  0
  6 11  2  0  0  0  0
  7 12  1  0  0  0  0
  8 13  1  0  0  0  0
  8 14  1  0  0  0  0
  8 26  1  6  0  0  0
 10 15  1  0  0  0  0
 10 16  2  0  0  0  0
 11 15  1  0  0  0  0
 11 27  1  0  0  0  0
 12 13  1  0  0  0  0
 12 28  1  1  0  0  0
 12 17  1  0  0  0  0
 13 18  1  0  0  0  0
 13 29  1  6  0  0  0
 14 30  1  0  0  0  0
 15 31  1  0  0  0  0
 17 19  1  0  0  0  0
 17 32  1  0  0  0  0
 17 33  1  0  0  0  0
 18 34  1  0  0  0  0
 19 20  1  0  0  0  0
 20 21  1  0  0  0  0
 20 22  1  0  0  0  0
 20 23  2  0  0  0  0
 21 35  1  0  0  0  0
 22 36  1  0  0  0  0
M  END
>  <DRUGBANK_ID>
DB04566

>  <SECONDARY_ACCESSION_NUMBERS>
EXPT01874

>  <COMMON_NAME>
Inosinic Acid

>  <CAS_NUMBER>
131-99-7

>  <UNII>
TAO7US05G5

>  <SYNONYMS>
Cytosine inosinate

$$$$
