GVI
 OpenBabel10282417163D

 31 33  0  0  0  0  0  0  0  0999 V2000
   -2.1074    0.7034    0.0486 N   0  0  0  0  0  0  0  0  0  0  0  0
   -2.0172   -0.6449    0.0072 C   0  0  0  0  0  0  0  0  0  0  0  0
   -0.9055   -1.4107   -0.0143 N   0  0  0  0  0  0  0  0  0  0  0  0
    0.1975   -0.6502   -0.0063 C   0  0  0  0  0  0  0  0  0  0  0  0
    0.2754    0.7338    0.0042 C   0  0  0  0  0  0  0  0  0  0  0  0
   -0.8703    7.2067    0.3262 C   0  0  0  0  0  0  0  0  0  0  0  0
    1.5963    1.1374    0.0036 N   0  0  0  0  0  0  0  0  0  0  0  0
    2.2975    0.0231    0.0177 C   0  0  0  0  0  0  0  0  0  0  0  0
    1.4914   -1.0802    0.0106 N   0  0  0  0  0  0  0  0  0  0  0  0
   -0.8749    5.6995    0.2692 C   0  0  0  0  0  0  0  0  0  0  0  0
   -1.5149    4.9466    1.2619 C   0  0  0  0  0  0  0  0  0  0  0  0
   -1.5776    3.5512    1.1673 C   0  0  0  0  0  0  0  0  0  0  0  0
   -0.9941    2.8759    0.0840 C   0  0  0  0  0  0  0  0  0  0  0  0
   -0.3841    3.6423   -0.9211 C   0  0  0  0  0  0  0  0  0  0  0  0
   -0.2952    5.0314   -0.8153 C   0  0  0  0  0  0  0  0  0  0  0  0
    0.4858    7.7501    0.3786 N   0  0  0  0  0  0  0  0  0  0  0  0
   -0.9473    1.4186    0.0331 C   0  0  0  0  0  0  0  0  0  0  0  0
    0.4440    9.2041    0.4299 C   0  0  0  0  0  0  0  0  0  0  0  0
   -2.9607   -1.1830   -0.0101 H   0  0  0  0  0  0  0  0  0  0  0  0
   -1.3951    7.5736   -0.5649 H   0  0  0  0  0  0  0  0  0  0  0  0
   -1.4420    7.5441    1.1994 H   0  0  0  0  0  0  0  0  0  0  0  0
    3.3769   -0.0427    0.0391 H   0  0  0  0  0  0  0  0  0  0  0  0
    1.7854   -2.0471    0.0327 H   0  0  0  0  0  0  0  0  0  0  0  0
   -1.9645    5.4409    2.1200 H   0  0  0  0  0  0  0  0  0  0  0  0
   -2.0697    2.9891    1.9586 H   0  0  0  0  0  0  0  0  0  0  0  0
    0.0419    3.1531   -1.7948 H   0  0  0  0  0  0  0  0  0  0  0  0
    0.2373    5.5925   -1.5805 H   0  0  0  0  0  0  0  0  0  0  0  0
    0.9511    7.3868    1.2098 H   0  0  0  0  0  0  0  0  0  0  0  0
   -0.0922    9.5591    1.3162 H   0  0  0  0  0  0  0  0  0  0  0  0
    1.4622    9.6019    0.4678 H   0  0  0  0  0  0  0  0  0  0  0  0
   -0.0373    9.6135   -0.4647 H   0  0  0  0  0  0  0  0  0  0  0  0
  1  2  1  0  0  0  0
  1 17  2  0  0  0  0
  2  3  2  0  0  0  0
  2 19  1  0  0  0  0
  3  4  1  0  0  0  0
  4  5  2  0  0  0  0
  4  9  1  0  0  0  0
  5  7  1  0  0  0  0
  5 17  1  0  0  0  0
  6 10  1  0  0  0  0
  6 16  1  0  0  0  0
  6 20  1  0  0  0  0
  6 21  1  0  0  0  0
  7  8  2  0  0  0  0
  8  9  1  0  0  0  0
  8 22  1  0  0  0  0
  9 23  1  0  0  0  0
 10 11  1  0  0  0  0
 10 15  2  0  0  0  0
 11 12  2  0  0  0  0
 11 24  1  0  0  0  0
 12 13  1  0  0  0  0
 12 25  1  0  0  0  0
 13 14  2  0  0  0  0
 13 17  1  0  0  0  0
 14 15  1  0  0  0  0
 14 26  1  0  0  0  0
 15 27  1  0  0  0  0
 16 18  1  0  0  0  0
 16 28  1  0  0  0  0
 18 29  1  0  0  0  0
 18 30  1  0  0  0  0
 18 31  1  0  0  0  0
M  END
>  <DRUGBANK_ID>
DB07854

>  <COMMON_NAME>
N-METHYL-1-[4-(9H-PURIN-6-YL)PHENYL]METHANAMINE

$$$$
