
 OpenBabel10282417153D

 61 64  0  0  0  0  0  0  0  0999 V2000
    0.6324    2.4460   -1.2998 C   0  0  0  0  0  0  0  0  0  0  0  0
    0.2379    1.7599    0.0283 C   0  0  0  0  0  0  0  0  0  0  0  0
   -1.2765    1.9122    0.2440 C   0  0  0  0  0  0  0  0  0  0  0  0
   -2.1764    0.7770   -0.1713 C   0  0  0  0  0  0  0  0  0  0  0  0
   -1.6546   -0.6608   -0.0230 C   0  0  0  0  0  0  0  0  0  0  0  0
   -0.1376   -0.7791    0.0265 C   0  0  0  0  0  0  0  0  0  0  0  0
    0.7273    0.3195    0.0201 C   0  0  0  0  0  0  0  0  0  0  0  0
    2.1181    0.0767   -0.0194 C   0  0  0  0  0  0  0  0  0  0  0  0
    2.6684   -1.2186   -0.0627 C   0  0  0  0  0  0  0  0  0  0  0  0
    1.7927   -2.3194   -0.1303 C   0  0  0  0  0  0  0  0  0  0  0  0
    0.4217   -2.0732   -0.0030 C   0  0  0  0  0  0  0  0  0  0  0  0
    2.2725   -3.7090   -0.3341 C   0  0  0  0  0  0  0  0  0  0  0  0
    1.6049   -4.8317   -0.0175 C   0  0  0  0  0  0  0  0  0  0  0  0
    2.2478   -6.1505    0.0861 C   0  0  0  0  0  0  0  0  0  0  0  0
    3.3118   -6.4034    0.9671 C   0  0  0  0  0  0  0  0  0  0  0  0
    3.8537   -7.6802    1.1215 C   0  0  0  0  0  0  0  0  0  0  0  0
    3.3062   -8.7443    0.4121 C   0  0  0  0  0  0  0  0  0  0  0  0
    2.1980   -8.5163   -0.4163 C   0  0  0  0  0  0  0  0  0  0  0  0
    1.7006   -7.2223   -0.6112 C   0  0  0  0  0  0  0  0  0  0  0  0
    3.8987  -10.0988    0.4681 C   0  0  0  0  0  0  0  0  0  0  0  0
    3.4918  -11.0752   -0.1497 O   0  0  0  0  0  0  0  0  0  0  0  0
    4.9972  -10.1663    1.2390 O   0  0  0  0  0  0  0  0  0  0  0  0
    4.1814   -1.3332   -0.0444 C   0  0  0  0  0  0  0  0  0  0  0  0
    4.7312   -1.9597    1.1654 N   0  0  0  0  0  0  0  0  0  0  0  0
    4.3631   -3.1270    1.7623 C   0  0  0  0  0  0  0  0  0  0  0  0
    5.3072   -3.4670    2.6836 C   0  0  0  0  0  0  0  0  0  0  0  0
    6.1167   -2.3319    2.7282 C   0  0  0  0  0  0  0  0  0  0  0  0
    5.7995   -1.4195    1.7984 N   0  0  0  0  0  0  0  0  0  0  0  0
   -2.1799   -1.4060   -1.2780 C   0  0  0  0  0  0  0  0  0  0  0  0
   -2.3021   -1.3028    1.2251 C   0  0  0  0  0  0  0  0  0  0  0  0
    0.8720    2.5258    1.2146 C   0  0  0  0  0  0  0  0  0  0  0  0
    1.7166    2.4543   -1.4635 H   0  0  0  0  0  0  0  0  0  0  0  0
    0.1754    1.9408   -2.1590 H   0  0  0  0  0  0  0  0  0  0  0  0
    0.3052    3.4920   -1.3133 H   0  0  0  0  0  0  0  0  0  0  0  0
   -1.4863    2.1126    1.3007 H   0  0  0  0  0  0  0  0  0  0  0  0
   -1.6276    2.8080   -0.2870 H   0  0  0  0  0  0  0  0  0  0  0  0
   -3.0967    0.8848    0.4184 H   0  0  0  0  0  0  0  0  0  0  0  0
   -2.4851    0.9616   -1.2062 H   0  0  0  0  0  0  0  0  0  0  0  0
    2.7990    0.9295   -0.0427 H   0  0  0  0  0  0  0  0  0  0  0  0
   -0.2605   -2.9162    0.0411 H   0  0  0  0  0  0  0  0  0  0  0  0
    3.3160   -3.8076   -0.6240 H   0  0  0  0  0  0  0  0  0  0  0  0
    0.5593   -4.8236    0.2715 H   0  0  0  0  0  0  0  0  0  0  0  0
    3.7458   -5.6262    1.5765 H   0  0  0  0  0  0  0  0  0  0  0  0
    4.6905   -7.8221    1.8017 H   0  0  0  0  0  0  0  0  0  0  0  0
    1.7145   -9.3488   -0.9202 H   0  0  0  0  0  0  0  0  0  0  0  0
    0.8860   -7.0555   -1.3115 H   0  0  0  0  0  0  0  0  0  0  0  0
    5.3172  -11.0884    1.1441 H   0  0  0  0  0  0  0  0  0  0  0  0
    4.5266   -1.8948   -0.9198 H   0  0  0  0  0  0  0  0  0  0  0  0
    4.6438   -0.3388   -0.1171 H   0  0  0  0  0  0  0  0  0  0  0  0
    3.4678   -3.6474    1.5263 H   0  0  0  0  0  0  0  0  0  0  0  0
    5.3126   -4.3712    3.2753 H   0  0  0  0  0  0  0  0  0  0  0  0
    6.9241   -2.1385    3.4169 H   0  0  0  0  0  0  0  0  0  0  0  0
   -2.0282   -2.4889   -1.2368 H   0  0  0  0  0  0  0  0  0  0  0  0
   -3.2554   -1.2361   -1.4001 H   0  0  0  0  0  0  0  0  0  0  0  0
   -1.6765   -1.0352   -2.1807 H   0  0  0  0  0  0  0  0  0  0  0  0
   -3.3886   -1.1535    1.2143 H   0  0  0  0  0  0  0  0  0  0  0  0
   -2.1426   -2.3866    1.2726 H   0  0  0  0  0  0  0  0  0  0  0  0
   -1.9109   -0.8660    2.1504 H   0  0  0  0  0  0  0  0  0  0  0  0
    0.5793    2.0577    2.1646 H   0  0  0  0  0  0  0  0  0  0  0  0
    1.9640    2.5513    1.1915 H   0  0  0  0  0  0  0  0  0  0  0  0
    0.5172    3.5627    1.2338 H   0  0  0  0  0  0  0  0  0  0  0  0
  1  2  1  0  0  0  0
  1 32  1  0  0  0  0
  1 33  1  0  0  0  0
  1 34  1  0  0  0  0
  2  3  1  0  0  0  0
  2  7  1  0  0  0  0
  2 31  1  0  0  0  0
  3  4  1  0  0  0  0
  3 35  1  0  0  0  0
  3 36  1  0  0  0  0
  4  5  1  0  0  0  0
  4 37  1  0  0  0  0
  4 38  1  0  0  0  0
  5  6  1  0  0  0  0
  5 29  1  0  0  0  0
  5 30  1  0  0  0  0
  6  7  2  0  0  0  0
  6 11  1  0  0  0  0
  7  8  1  0  0  0  0
  8  9  2  0  0  0  0
  8 39  1  0  0  0  0
  9 10  1  0  0  0  0
  9 23  1  0  0  0  0
 10 11  2  0  0  0  0
 10 12  1  0  0  0  0
 11 40  1  0  0  0  0
 12 13  2  0  0  0  0
 12 41  1  0  0  0  0
 13 14  1  0  0  0  0
 13 42  1  0  0  0  0
 14 15  2  0  0  0  0
 14 19  1  0  0  0  0
 15 16  1  0  0  0  0
 15 43  1  0  0  0  0
 16 17  2  0  0  0  0
 16 44  1  0  0  0  0
 17 18  1  0  0  0  0
 17 20  1  0  0  0  0
 18 19  2  0  0  0  0
 18 45  1  0  0  0  0
 19 46  1  0  0  0  0
 20 21  2  0  0  0  0
 20 22  1  0  0  0  0
 22 47  1  0  0  0  0
 23 24  1  0  0  0  0
 23 48  1  0  0  0  0
 23 49  1  0  0  0  0
 24 25  1  0  0  0  0
 24 28  1  0  0  0  0
 25 26  2  0  0  0  0
 25 50  1  0  0  0  0
 26 27  1  0  0  0  0
 26 51  1  0  0  0  0
 27 28  2  0  0  0  0
 27 52  1  0  0  0  0
 29 53  1  0  0  0  0
 29 54  1  0  0  0  0
 29 55  1  0  0  0  0
 30 56  1  0  0  0  0
 30 57  1  0  0  0  0
 30 58  1  0  0  0  0
 31 59  1  0  0  0  0
 31 60  1  0  0  0  0
 31 61  1  0  0  0  0
M  END
>  <DRUGBANK_ID>
DB05467

>  <SECONDARY_ACCESSION_NUMBERS>
DB12320; DB16749

>  <COMMON_NAME>
Palovarotene

>  <CAS_NUMBER>
410528-02-8

>  <UNII>
28K6I5M16G

>  <SYNONYMS>
Palovarotene

$$$$
