
 OpenBabel10282417143D

 60 60  0  0  1  0  0  0  0  0999 V2000
    1.4605    1.3748   -0.1131 Cl  0  0  0  0  0  0  0  0  0  0  0  0
    1.3830   -1.8718    0.0488 Cl  0  0  0  0  0  0  0  0  0  0  0  0
   -2.5059    5.5855   -1.1022 O   0  0  0  0  0  0  0  0  0  0  0  0
   -2.3961    7.4412   -2.8643 O   0  0  0  0  0  0  0  0  0  0  0  0
   -4.8815    0.7109   -0.0289 O   0  0  0  0  0  0  0  0  0  0  0  0
   -0.5798    3.1240    3.6115 O   0  0  0  0  0  0  0  0  0  0  0  0
   -1.4210    1.7782    2.0991 O   0  0  0  0  0  0  0  0  0  0  0  0
   -2.7146    3.8045   -2.6182 N   0  0  0  0  0  0  0  0  0  0  0  0
   -3.9102    2.7049   -0.0044 N   0  0  0  0  0  0  0  0  0  0  0  0
   -2.7752    2.3798   -2.8713 C   0  0  0  0  0  0  0  0  0  0  0  0
   -2.8456    3.6528   -0.0432 C   0  0  1  0  0  0  0  0  0  0  0  0
   -4.0469    1.9427   -3.5927 C   0  0  0  0  0  0  0  0  0  0  0  0
   -2.5608    4.5880   -3.8491 C   0  0  0  0  0  0  0  0  0  0  0  0
   -2.7244    4.3996   -1.3420 C   0  0  0  0  0  0  0  0  0  0  0  0
   -2.6960    4.5569    1.1975 C   0  0  0  0  0  0  0  0  0  0  0  0
   -4.0755    2.3003   -5.0820 C   0  0  0  0  0  0  0  0  0  0  0  0
   -3.6427    5.6333   -4.0599 C   0  0  0  0  0  0  0  0  0  0  0  0
   -2.7981    1.8420   -5.8088 C   0  0  0  0  0  0  0  0  0  0  0  0
   -2.6613    3.7866    2.5129 C   0  0  0  0  0  0  0  0  0  0  0  0
   -3.6323    6.7160   -3.0111 C   0  0  0  0  0  0  0  0  0  0  0  0
   -2.7902    0.3332   -5.8677 C   0  0  0  0  0  0  0  0  0  0  0  0
   -3.8158    1.3281   -0.0254 C   0  0  0  0  0  0  0  0  0  0  0  0
   -1.5071    2.8109    2.6855 C   0  0  0  0  0  0  0  0  0  0  0  0
   -2.4742    0.5703   -0.1092 C   0  0  0  0  0  0  0  0  0  0  0  0
   -1.1818    1.1135   -0.3345 C   0  0  0  0  0  0  0  0  0  0  0  0
   -2.5124   -0.8093    0.0270 C   0  0  0  0  0  0  0  0  0  0  0  0
   -1.1118    6.8003   -2.8832 C   0  0  0  0  0  0  0  0  0  0  0  0
    0.0090    0.4258   -0.1722 C   0  0  0  0  0  0  0  0  0  0  0  0
   -1.3120   -1.5499    0.0397 C   0  0  0  0  0  0  0  0  0  0  0  0
   -0.0530   -0.9325   -0.0172 C   0  0  0  0  0  0  0  0  0  0  0  0
   -0.7956    3.8485    4.2147 H   0  0  0  0  0  0  0  0  0  0  0  0
   -4.8524    3.0742   -0.1075 H   0  0  0  0  0  0  0  0  0  0  0  0
   -1.8401    2.0381   -3.3308 H   0  0  0  0  0  0  0  0  0  0  0  0
   -2.7756    1.8777   -1.9448 H   0  0  0  0  0  0  0  0  0  0  0  0
   -1.9018    3.2101    0.0172 H   0  0  0  0  0  0  0  0  0  0  0  0
   -4.1443    0.8564   -3.4897 H   0  0  0  0  0  0  0  0  0  0  0  0
   -4.9152    2.3748   -3.0835 H   0  0  0  0  0  0  0  0  0  0  0  0
   -1.5147    4.8150   -4.0003 H   0  0  0  0  0  0  0  0  0  0  0  0
   -2.5945    3.9665   -4.7298 H   0  0  0  0  0  0  0  0  0  0  0  0
   -1.7485    5.1160    1.1020 H   0  0  0  0  0  0  0  0  0  0  0  0
   -3.4953    5.3067    1.2104 H   0  0  0  0  0  0  0  0  0  0  0  0
   -4.9638    1.8823   -5.5587 H   0  0  0  0  0  0  0  0  0  0  0  0
   -4.2469    3.3688   -5.2169 H   0  0  0  0  0  0  0  0  0  0  0  0
   -3.5578    6.0863   -5.0523 H   0  0  0  0  0  0  0  0  0  0  0  0
   -4.6272    5.1367   -4.0330 H   0  0  0  0  0  0  0  0  0  0  0  0
   -2.7570    2.2857   -6.8080 H   0  0  0  0  0  0  0  0  0  0  0  0
   -1.8657    2.1647   -5.3265 H   0  0  0  0  0  0  0  0  0  0  0  0
   -2.6554    4.5001    3.3364 H   0  0  0  0  0  0  0  0  0  0  0  0
   -3.5781    3.1969    2.5924 H   0  0  0  0  0  0  0  0  0  0  0  0
   -4.4179    7.4473   -3.2200 H   0  0  0  0  0  0  0  0  0  0  0  0
   -4.0565    6.3030   -2.0861 H   0  0  0  0  0  0  0  0  0  0  0  0
   -3.6950   -0.0058   -6.3761 H   0  0  0  0  0  0  0  0  0  0  0  0
   -1.9087   -0.0297   -6.3958 H   0  0  0  0  0  0  0  0  0  0  0  0
   -2.7743   -0.1000   -4.8622 H   0  0  0  0  0  0  0  0  0  0  0  0
   -0.9401    2.1261   -0.5733 H   0  0  0  0  0  0  0  0  0  0  0  0
   -3.4698   -1.3179    0.1263 H   0  0  0  0  0  0  0  0  0  0  0  0
   -0.8998    6.0056   -2.1556 H   0  0  0  0  0  0  0  0  0  0  0  0
   -0.8833    6.4334   -3.8791 H   0  0  0  0  0  0  0  0  0  0  0  0
   -0.3283    7.5261   -2.6870 H   0  0  0  0  0  0  0  0  0  0  0  0
   -1.3651   -2.6280    0.1242 H   0  0  0  0  0  0  0  0  0  0  0  0
  1 28  1  0  0  0  0
  2 30  1  0  0  0  0
  3 14  2  0  0  0  0
  4 20  1  0  0  0  0
  4 27  1  0  0  0  0
  5 22  2  0  0  0  0
  6 23  1  0  0  0  0
  6 31  1  0  0  0  0
  7 23  2  0  0  0  0
  8 10  1  0  0  0  0
  8 13  1  0  0  0  0
  8 14  1  0  0  0  0
  9 22  1  0  0  0  0
  9 32  1  0  0  0  0
 10 12  1  0  0  0  0
 10 33  1  0  0  0  0
 10 34  1  0  0  0  0
 11  9  1  0  0  0  0
 11 14  1  0  0  0  0
 11 15  1  0  0  0  0
 11 35  1  1  0  0  0
 12 16  1  0  0  0  0
 12 36  1  0  0  0  0
 12 37  1  0  0  0  0
 13 17  1  0  0  0  0
 13 38  1  0  0  0  0
 13 39  1  0  0  0  0
 15 19  1  0  0  0  0
 15 40  1  0  0  0  0
 15 41  1  0  0  0  0
 16 18  1  0  0  0  0
 16 42  1  0  0  0  0
 16 43  1  0  0  0  0
 17 20  1  0  0  0  0
 17 44  1  0  0  0  0
 17 45  1  0  0  0  0
 18 21  1  0  0  0  0
 18 46  1  0  0  0  0
 18 47  1  0  0  0  0
 19 23  1  0  0  0  0
 19 48  1  0  0  0  0
 19 49  1  0  0  0  0
 20 50  1  0  0  0  0
 20 51  1  0  0  0  0
 21 52  1  0  0  0  0
 21 53  1  0  0  0  0
 21 54  1  0  0  0  0
 22 24  1  0  0  0  0
 24 25  2  0  0  0  0
 24 26  1  0  0  0  0
 25 28  1  0  0  0  0
 25 55  1  0  0  0  0
 26 29  2  0  0  0  0
 26 56  1  0  0  0  0
 27 57  1  0  0  0  0
 27 58  1  0  0  0  0
 27 59  1  0  0  0  0
 28 30  2  0  0  0  0
 29 30  1  0  0  0  0
 29 60  1  0  0  0  0
M  END
>  <DRUGBANK_ID>
DB04856

>  <COMMON_NAME>
Dexloxiglumide

>  <CAS_NUMBER>
119817-90-2

>  <UNII>
69DY40RH9B

>  <SYNONYMS>
Dexloxiglumida; Dexloxiglumide; Dexloxiglumidum

$$$$
