
 OpenBabel10282417113D

 54 56  0  0  0  0  0  0  0  0999 V2000
    0.9848   -0.6556   -0.0668 N   0  0  0  0  0  0  0  0  0  0  0  0
    2.3719   -1.1122   -0.1197 C   0  0  0  0  0  0  0  0  0  0  0  0
    3.0743   -1.0250   -1.4304 C   0  0  0  0  0  0  0  0  0  0  0  0
    3.2755   -2.0830   -2.3276 C   0  0  0  0  0  0  0  0  0  0  0  0
   -0.7956   -2.6282   -0.0760 C   0  0  0  0  0  0  0  0  0  0  0  0
   -0.3169   -1.2323   -0.0473 C   0  0  0  0  0  0  0  0  0  0  0  0
    3.7568    0.1402   -1.6570 C   0  0  0  0  0  0  0  0  0  0  0  0
    4.4773    0.3870   -2.7732 C   0  0  0  0  0  0  0  0  0  0  0  0
    4.7014   -0.6528   -3.6386 C   0  0  0  0  0  0  0  0  0  0  0  0
    4.1715   -1.9188   -3.3809 C   0  0  0  0  0  0  0  0  0  0  0  0
   -0.0776   -3.7840   -0.0452 C   0  0  0  0  0  0  0  0  0  0  0  0
   -0.5631   -5.1675   -0.0505 C   0  0  0  0  0  0  0  0  0  0  0  0
   -1.7296   -5.5424    0.0329 O   0  0  0  0  0  0  0  0  0  0  0  0
    0.4763   -6.0248   -0.1229 O   0  0  0  0  0  0  0  0  0  0  0  0
    5.4700   -0.3730   -4.8441 C   0  0  0  0  0  0  0  0  0  0  0  0
    5.7580   -1.1841   -5.7007 O   0  0  0  0  0  0  0  0  0  0  0  0
    5.7820    0.9346   -4.9226 O   0  0  0  0  0  0  0  0  0  0  0  0
   -1.1413   -0.1049    0.0195 C   0  0  0  0  0  0  0  0  0  0  0  0
   -0.4495    1.0532    0.1744 N   0  0  0  0  0  0  0  0  0  0  0  0
    0.8135    0.7164    0.1446 C   0  0  0  0  0  0  0  0  0  0  0  0
    1.9520    1.6872    0.2199 C   0  0  0  0  0  0  0  0  0  0  0  0
    2.0394    2.4953   -1.1051 C   0  0  0  0  0  0  0  0  0  0  0  0
    0.8634    3.4385   -1.2349 C   0  0  0  0  0  0  0  0  0  0  0  0
    0.8133    4.3221   -0.0080 C   0  0  0  0  0  0  0  0  0  0  0  0
    1.3784   -3.7978    0.0798 C   0  0  0  0  0  0  0  0  0  0  0  0
    2.1921   -4.0693    1.2944 C   0  0  0  0  0  0  0  0  0  0  0  0
    1.3728   -4.4226    2.7417 S   0  0  0  0  0  0  0  0  0  0  0  0
    2.8398   -4.5514    3.5716 C   0  0  0  0  0  0  0  0  0  0  0  0
    3.9256   -4.1687    2.8213 C   0  0  0  0  0  0  0  0  0  0  0  0
    3.5508   -3.8480    1.4920 C   0  0  0  0  0  0  0  0  0  0  0  0
    2.8629   -0.7398    0.7924 H   0  0  0  0  0  0  0  0  0  0  0  0
    2.6867   -2.1026    0.0644 H   0  0  0  0  0  0  0  0  0  0  0  0
    2.8169   -3.0604   -2.2305 H   0  0  0  0  0  0  0  0  0  0  0  0
   -1.8830   -2.7351   -0.0559 H   0  0  0  0  0  0  0  0  0  0  0  0
    3.7625    0.9472   -0.9706 H   0  0  0  0  0  0  0  0  0  0  0  0
    4.8519    1.3960   -2.8865 H   0  0  0  0  0  0  0  0  0  0  0  0
    4.4444   -2.7710   -3.9961 H   0  0  0  0  0  0  0  0  0  0  0  0
    0.1669   -6.9345    0.0344 H   0  0  0  0  0  0  0  0  0  0  0  0
    6.2370    1.0555   -5.7750 H   0  0  0  0  0  0  0  0  0  0  0  0
   -2.2244   -0.0647    0.0029 H   0  0  0  0  0  0  0  0  0  0  0  0
    1.8974    2.3226    1.0998 H   0  0  0  0  0  0  0  0  0  0  0  0
    2.8752    1.1854    0.5049 H   0  0  0  0  0  0  0  0  0  0  0  0
    2.9833    3.0585   -1.1517 H   0  0  0  0  0  0  0  0  0  0  0  0
    2.0152    1.8624   -2.0045 H   0  0  0  0  0  0  0  0  0  0  0  0
    0.9528    4.0293   -2.1511 H   0  0  0  0  0  0  0  0  0  0  0  0
   -0.0584    2.8598   -1.3449 H   0  0  0  0  0  0  0  0  0  0  0  0
    1.7383    4.9029    0.0594 H   0  0  0  0  0  0  0  0  0  0  0  0
   -0.0553    4.9706   -0.0359 H   0  0  0  0  0  0  0  0  0  0  0  0
    0.7185    3.7492    0.9178 H   0  0  0  0  0  0  0  0  0  0  0  0
    1.8876   -4.0021   -0.8579 H   0  0  0  0  0  0  0  0  0  0  0  0
    1.3217   -2.7800    0.2673 H   0  0  0  0  0  0  0  0  0  0  0  0
    2.7945   -4.8869    4.5896 H   0  0  0  0  0  0  0  0  0  0  0  0
    4.9370   -4.1333    3.2021 H   0  0  0  0  0  0  0  0  0  0  0  0
    4.2494   -3.4666    0.7451 H   0  0  0  0  0  0  0  0  0  0  0  0
  1 20  1  0  0  0  0
  1  2  1  0  0  0  0
  1  6  1  0  0  0  0
  2  3  1  0  0  0  0
  2 31  1  0  0  0  0
  2 32  1  0  0  0  0
  3  7  2  0  0  0  0
  3  4  1  0  0  0  0
  4 10  2  0  0  0  0
  4 33  1  0  0  0  0
  5 11  2  0  0  0  0
  5 34  1  0  0  0  0
  6  5  1  0  0  0  0
  6 18  2  0  0  0  0
  7  8  1  0  0  0  0
  7 35  1  0  0  0  0
  8  9  2  0  0  0  0
  8 36  1  0  0  0  0
  9 15  1  0  0  0  0
 10  9  1  0  0  0  0
 10 37  1  0  0  0  0
 11 25  1  0  0  0  0
 11 12  1  0  0  0  0
 12 13  2  0  0  0  0
 12 14  1  0  0  0  0
 14 38  1  0  0  0  0
 15 16  2  0  0  0  0
 15 17  1  0  0  0  0
 17 39  1  0  0  0  0
 18 19  1  0  0  0  0
 18 40  1  0  0  0  0
 20 19  2  0  0  0  0
 20 21  1  0  0  0  0
 21 22  1  0  0  0  0
 21 41  1  0  0  0  0
 21 42  1  0  0  0  0
 22 23  1  0  0  0  0
 22 43  1  0  0  0  0
 22 44  1  0  0  0  0
 23 24  1  0  0  0  0
 23 45  1  0  0  0  0
 23 46  1  0  0  0  0
 24 47  1  0  0  0  0
 24 48  1  0  0  0  0
 24 49  1  0  0  0  0
 25 26  1  0  0  0  0
 25 50  1  0  0  0  0
 25 51  1  0  0  0  0
 26 27  1  0  0  0  0
 26 30  2  0  0  0  0
 27 28  1  0  0  0  0
 28 29  2  0  0  0  0
 28 52  1  0  0  0  0
 29 53  1  0  0  0  0
 30 29  1  0  0  0  0
 30 54  1  0  0  0  0
M  END
>  <DRUGBANK_ID>
DB00876

>  <SECONDARY_ACCESSION_NUMBERS>
APRD00950

>  <COMMON_NAME>
Eprosartan

>  <CAS_NUMBER>
133040-01-4

>  <UNII>
2KH13Z0S0Y

>  <SYNONYMS>
(E)-2-butyl-1-(p-carboxybenzyl)-α-2-thenylimidazole-5-acrylic acid; (E)-3-[2-n-butyl-1-{(4-carboxyphenyl)methyl}-1H-imidazol-5-yl]-2-(2-thienyl)methyl-2-propenoic acid; (E)-α{[2-butyl-1-[(4-carboxyphenyl)methyl]-1H-imidazole-5-yl]methylene}-2-thiopheneproprionic acid; Éprosartan; Eprosartan; Eprosartanum

$$$$
