968
 OpenBabel10282417163D

 39 41  0  0  0  0  0  0  0  0999 V2000
    0.9221   -0.0835   -0.0022 O   0  0  0  0  0  0  0  0  0  0  0  0
    0.4089    0.1399   -1.2170 C   0  0  0  0  0  0  0  0  0  0  0  0
    1.1915    0.3566   -2.1366 O   0  0  0  0  0  0  0  0  0  0  0  0
   -1.1726    0.0392   -1.2517 C   0  0  0  0  0  0  0  0  0  0  0  0
   -1.7281   -0.0917   -0.1953 O   0  0  0  0  0  0  0  0  0  0  0  0
   -1.8401    0.0821   -2.5261 N   0  0  0  0  0  0  0  0  0  0  0  0
   -1.1785    0.2257   -3.7758 C   0  0  0  0  0  0  0  0  0  0  0  0
   -0.1577   -0.7024   -4.0806 C   0  0  0  0  0  0  0  0  0  0  0  0
    0.4897   -0.7082   -5.3080 C   0  0  0  0  0  0  0  0  0  0  0  0
    0.0475    0.1409   -6.3083 C   0  0  0  0  0  0  0  0  0  0  0  0
   -1.0303    1.0012   -6.0696 C   0  0  0  0  0  0  0  0  0  0  0  0
   -1.5961    1.1273   -4.7849 C   0  0  0  0  0  0  0  0  0  0  0  0
   -2.5454    2.2708   -4.5927 C   0  0  0  0  0  0  0  0  0  0  0  0
   -2.9618    2.9990   -5.4831 O   0  0  0  0  0  0  0  0  0  0  0  0
   -2.8560    2.5248   -3.3120 O   0  0  0  0  0  0  0  0  0  0  0  0
   -3.2865   -0.1579   -2.5801 C   0  0  0  0  0  0  0  0  0  0  0  0
   -4.0805    0.5928   -1.7257 C   0  0  0  0  0  0  0  0  0  0  0  0
   -5.4242    0.5360   -2.0101 C   0  0  0  0  0  0  0  0  0  0  0  0
   -5.9209   -0.5404   -2.9033 C   0  0  0  0  0  0  0  0  0  0  0  0
   -5.1100   -1.7016   -3.6400 C   0  0  0  0  0  0  0  0  0  0  0  0
   -4.8895   -3.1835   -4.5792 C   0  0  0  0  0  0  0  0  0  0  0  0
   -3.9361   -3.2814   -5.6012 C   0  0  0  0  0  0  0  0  0  0  0  0
   -3.9443   -2.0129   -5.8883 C   0  0  0  0  0  0  0  0  0  0  0  0
   -5.3200   -1.5429   -6.2407 O   0  0  0  0  0  0  0  0  0  0  0  0
   -3.2473   -1.4248   -4.7965 C   0  0  0  0  0  0  0  0  0  0  0  0
   -3.8841   -1.0947   -3.6239 C   0  0  0  0  0  0  0  0  0  0  0  0
    1.8921   -0.0215   -0.1429 H   0  0  0  0  0  0  0  0  0  0  0  0
    0.1471   -1.4477   -3.3496 H   0  0  0  0  0  0  0  0  0  0  0  0
    1.3175   -1.3923   -5.4740 H   0  0  0  0  0  0  0  0  0  0  0  0
    0.5492    0.1416   -7.2722 H   0  0  0  0  0  0  0  0  0  0  0  0
   -1.4204    1.5857   -6.9010 H   0  0  0  0  0  0  0  0  0  0  0  0
   -3.6125    3.1482   -3.3027 H   0  0  0  0  0  0  0  0  0  0  0  0
   -3.6594    1.3349   -1.0286 H   0  0  0  0  0  0  0  0  0  0  0  0
   -6.0545    1.3031   -1.5392 H   0  0  0  0  0  0  0  0  0  0  0  0
   -6.9860   -0.3824   -3.1264 H   0  0  0  0  0  0  0  0  0  0  0  0
   -5.7112   -3.7489   -5.0866 H   0  0  0  0  0  0  0  0  0  0  0  0
   -2.9130   -3.7325   -5.5330 H   0  0  0  0  0  0  0  0  0  0  0  0
   -6.0254   -2.2495   -6.1754 H   0  0  0  0  0  0  0  0  0  0  0  0
   -2.3116   -1.9249   -4.4552 H   0  0  0  0  0  0  0  0  0  0  0  0
  1  2  1  0  0  0  0
  1 27  1  0  0  0  0
  2  3  2  0  0  0  0
  2  4  1  0  0  0  0
  4  5  2  0  0  0  0
  4  6  1  0  0  0  0
  6  7  1  0  0  0  0
  6 16  1  0  0  0  0
  7  8  2  0  0  0  0
  7 12  1  0  0  0  0
  8  9  1  0  0  0  0
  8 28  1  0  0  0  0
  9 10  2  0  0  0  0
  9 29  1  0  0  0  0
 10 11  1  0  0  0  0
 10 30  1  0  0  0  0
 11 12  2  0  0  0  0
 11 31  1  0  0  0  0
 12 13  1  0  0  0  0
 13 14  2  0  0  0  0
 13 15  1  0  0  0  0
 15 32  1  0  0  0  0
 16 17  2  0  0  0  0
 16 26  1  0  0  0  0
 17 18  1  0  0  0  0
 17 33  1  0  0  0  0
 18 19  2  0  0  0  0
 18 34  1  0  0  0  0
 19 20  1  0  0  0  0
 19 35  1  0  0  0  0
 20 21  2  0  0  0  0
 20 26  1  0  0  0  0
 21 22  1  0  0  0  0
 21 36  1  0  0  0  0
 22 23  2  0  0  0  0
 22 37  1  0  0  0  0
 23 24  1  0  0  0  0
 23 25  1  0  0  0  0
 24 38  1  0  0  0  0
 25 26  2  0  0  0  0
 25 39  1  0  0  0  0
M  END
>  <DRUGBANK_ID>
DB07295

>  <COMMON_NAME>
2-[(7-HYDROXY-NAPHTHALEN-1-YL)-OXALYL-AMINO]-BENZOIC ACID

$$$$
