632
 OpenBabel10282417103D

 69 68  0  0  0  0  0  0  0  0999 V2000
    0.8010    0.1425    0.0347 O   0  0  0  0  0  0  0  0  0  0  0  0
    6.5546   -7.1601   -3.2151 C   0  0  0  0  0  0  0  0  0  0  0  0
    7.0628   -8.1699   -2.1820 C   0  0  0  0  0  0  0  0  0  0  0  0
    5.0231   -7.1647   -3.2173 C   0  0  0  0  0  0  0  0  0  0  0  0
    6.5480   -9.5665   -2.5424 C   0  0  0  0  0  0  0  0  0  0  0  0
    4.5125   -6.7837   -1.8245 C   0  0  0  0  0  0  0  0  0  0  0  0
    7.0550   -9.9510   -3.9354 C   0  0  0  0  0  0  0  0  0  0  0  0
    5.0253   -5.3877   -1.4589 C   0  0  0  0  0  0  0  0  0  0  0  0
    8.5865   -9.9473   -3.9393 C   0  0  0  0  0  0  0  0  0  0  0  0
    4.5209   -4.3716   -2.4881 C   0  0  0  0  0  0  0  0  0  0  0  0
    9.1053  -10.9555   -2.9092 C   0  0  0  0  0  0  0  0  0  0  0  0
    2.9892   -4.3626   -2.4973 C   0  0  0  0  0  0  0  0  0  0  0  0
    8.6057  -12.3601   -3.2601 C   0  0  0  0  0  0  0  0  0  0  0  0
    2.4612   -3.9763   -1.1125 C   0  0  0  0  0  0  0  0  0  0  0  0
    9.1045  -12.7615   -4.6513 C   0  0  0  0  0  0  0  0  0  0  0  0
    2.9634   -2.5821   -0.7238 C   0  0  0  0  0  0  0  0  0  0  0  0
   10.6365  -12.7675   -4.6890 C   0  0  0  0  0  0  0  0  0  0  0  0
    2.4719   -1.5295   -1.7227 C   0  0  0  0  0  0  0  0  0  0  0  0
   11.2093  -13.7835   -3.6951 C   0  0  0  0  0  0  0  0  0  0  0  0
    0.9406   -1.4685   -1.7602 C   0  0  0  0  0  0  0  0  0  0  0  0
   10.7168  -15.2018   -3.9866 C   0  0  0  0  0  0  0  0  0  0  0  0
    0.3547   -1.1326   -0.3933 C   0  0  0  0  0  0  0  0  0  0  0  0
   11.1380  -15.6429   -5.3790 C   0  0  0  0  0  0  0  0  0  0  0  0
    1.7812    0.1099    0.0994 H   0  0  0  0  0  0  0  0  0  0  0  0
    6.9265   -7.3677   -4.2220 H   0  0  0  0  0  0  0  0  0  0  0  0
    6.9703   -6.1717   -3.0019 H   0  0  0  0  0  0  0  0  0  0  0  0
    8.1537   -8.1265   -2.1279 H   0  0  0  0  0  0  0  0  0  0  0  0
    6.7590   -7.9154   -1.1630 H   0  0  0  0  0  0  0  0  0  0  0  0
    4.6079   -8.1325   -3.5113 H   0  0  0  0  0  0  0  0  0  0  0  0
    4.6522   -6.4943   -3.9970 H   0  0  0  0  0  0  0  0  0  0  0  0
    6.8518  -10.2825   -1.7744 H   0  0  0  0  0  0  0  0  0  0  0  0
    5.4567   -9.6297   -2.5157 H   0  0  0  0  0  0  0  0  0  0  0  0
    4.8165   -7.5016   -1.0576 H   0  0  0  0  0  0  0  0  0  0  0  0
    3.4217   -6.8479   -1.8000 H   0  0  0  0  0  0  0  0  0  0  0  0
    6.6389  -10.9189   -4.2265 H   0  0  0  0  0  0  0  0  0  0  0  0
    6.6821   -9.2801   -4.7145 H   0  0  0  0  0  0  0  0  0  0  0  0
    6.1170   -5.3466   -1.4042 H   0  0  0  0  0  0  0  0  0  0  0  0
    4.7195   -5.1365   -0.4400 H   0  0  0  0  0  0  0  0  0  0  0  0
    8.9541  -10.1547   -4.9475 H   0  0  0  0  0  0  0  0  0  0  0  0
    9.0000   -8.9572   -3.7267 H   0  0  0  0  0  0  0  0  0  0  0  0
    4.8941   -4.5818   -3.4948 H   0  0  0  0  0  0  0  0  0  0  0  0
    4.9407   -3.3861   -2.2711 H   0  0  0  0  0  0  0  0  0  0  0  0
   10.1959  -10.9052   -2.8595 H   0  0  0  0  0  0  0  0  0  0  0  0
    8.7988  -10.6997   -1.8906 H   0  0  0  0  0  0  0  0  0  0  0  0
    2.5749   -5.3320   -2.7914 H   0  0  0  0  0  0  0  0  0  0  0  0
    2.6281   -3.6887   -3.2782 H   0  0  0  0  0  0  0  0  0  0  0  0
    8.9230  -13.0683   -2.4904 H   0  0  0  0  0  0  0  0  0  0  0  0
    7.5131  -12.4238   -3.2298 H   0  0  0  0  0  0  0  0  0  0  0  0
    2.7621   -4.6997   -0.3475 H   0  0  0  0  0  0  0  0  0  0  0  0
    1.3698   -4.0358   -1.1040 H   0  0  0  0  0  0  0  0  0  0  0  0
    8.6840  -13.7318   -4.9277 H   0  0  0  0  0  0  0  0  0  0  0  0
    8.7233  -12.0896   -5.4274 H   0  0  0  0  0  0  0  0  0  0  0  0
    4.0568   -2.5492   -0.6696 H   0  0  0  0  0  0  0  0  0  0  0  0
    2.6500   -2.3493    0.2970 H   0  0  0  0  0  0  0  0  0  0  0  0
   10.9780  -12.9682   -5.7075 H   0  0  0  0  0  0  0  0  0  0  0  0
   11.0463  -11.7756   -4.4698 H   0  0  0  0  0  0  0  0  0  0  0  0
    2.8496   -1.7354   -2.7311 H   0  0  0  0  0  0  0  0  0  0  0  0
    2.8999   -0.5556   -1.4702 H   0  0  0  0  0  0  0  0  0  0  0  0
   12.3025  -13.7473   -3.7274 H   0  0  0  0  0  0  0  0  0  0  0  0
   10.9429  -13.5123   -2.6660 H   0  0  0  0  0  0  0  0  0  0  0  0
    0.5226   -2.4182   -2.1143 H   0  0  0  0  0  0  0  0  0  0  0  0
    0.6408   -0.7148   -2.4944 H   0  0  0  0  0  0  0  0  0  0  0  0
   11.1184  -15.8886   -3.2362 H   0  0  0  0  0  0  0  0  0  0  0  0
    9.6263  -15.2685   -3.8927 H   0  0  0  0  0  0  0  0  0  0  0  0
    0.6198   -1.8734    0.3683 H   0  0  0  0  0  0  0  0  0  0  0  0
   -0.7375   -1.1141   -0.4434 H   0  0  0  0  0  0  0  0  0  0  0  0
   12.2281  -15.6126   -5.4655 H   0  0  0  0  0  0  0  0  0  0  0  0
   10.7897  -16.6560   -5.5850 H   0  0  0  0  0  0  0  0  0  0  0  0
   10.7197  -14.9978   -6.1585 H   0  0  0  0  0  0  0  0  0  0  0  0
  1 22  1  0  0  0  0
  1 24  1  0  0  0  0
  2  3  1  0  0  0  0
  2  4  1  0  0  0  0
  2 25  1  0  0  0  0
  2 26  1  0  0  0  0
  3  5  1  0  0  0  0
  3 27  1  0  0  0  0
  3 28  1  0  0  0  0
  4  6  1  0  0  0  0
  4 29  1  0  0  0  0
  4 30  1  0  0  0  0
  5  7  1  0  0  0  0
  5 31  1  0  0  0  0
  5 32  1  0  0  0  0
  6  8  1  0  0  0  0
  6 33  1  0  0  0  0
  6 34  1  0  0  0  0
  7  9  1  0  0  0  0
  7 35  1  0  0  0  0
  7 36  1  0  0  0  0
  8 10  1  0  0  0  0
  8 37  1  0  0  0  0
  8 38  1  0  0  0  0
  9 11  1  0  0  0  0
  9 39  1  0  0  0  0
  9 40  1  0  0  0  0
 10 12  1  0  0  0  0
 10 41  1  0  0  0  0
 10 42  1  0  0  0  0
 11 13  1  0  0  0  0
 11 43  1  0  0  0  0
 11 44  1  0  0  0  0
 12 14  1  0  0  0  0
 12 45  1  0  0  0  0
 12 46  1  0  0  0  0
 13 15  1  0  0  0  0
 13 47  1  0  0  0  0
 13 48  1  0  0  0  0
 14 16  1  0  0  0  0
 14 49  1  0  0  0  0
 14 50  1  0  0  0  0
 15 17  1  0  0  0  0
 15 51  1  0  0  0  0
 15 52  1  0  0  0  0
 16 18  1  0  0  0  0
 16 53  1  0  0  0  0
 16 54  1  0  0  0  0
 17 19  1  0  0  0  0
 17 55  1  0  0  0  0
 17 56  1  0  0  0  0
 18 20  1  0  0  0  0
 18 57  1  0  0  0  0
 18 58  1  0  0  0  0
 19 21  1  0  0  0  0
 19 59  1  0  0  0  0
 19 60  1  0  0  0  0
 20 22  1  0  0  0  0
 20 61  1  0  0  0  0
 20 62  1  0  0  0  0
 21 23  1  0  0  0  0
 21 63  1  0  0  0  0
 21 64  1  0  0  0  0
 22 65  1  0  0  0  0
 22 66  1  0  0  0  0
 23 67  1  0  0  0  0
 23 68  1  0  0  0  0
 23 69  1  0  0  0  0
M  END
>  <DRUGBANK_ID>
DB00632

>  <SECONDARY_ACCESSION_NUMBERS>
APRD00933

>  <COMMON_NAME>
Docosanol

>  <CAS_NUMBER>
661-19-8

>  <UNII>
9G1OE216XY

>  <SYNONYMS>
1-Docosanol; Behenic alcohol; Behenyl alcohol; Docosan-1-ol; Docosanol; Docosyl alcohol; N-Docosanol

$$$$
