
 OpenBabel10282417103D

 41 42  0  0  0  0  0  0  0  0999 V2000
    1.0311    1.4438    0.0289 C   0  0  0  0  0  0  0  0  0  0  0  0
   -0.1402    0.7031   -0.0801 C   0  0  0  0  0  0  0  0  0  0  0  0
    1.0227   -1.3884   -0.0578 C   0  0  0  0  0  0  0  0  0  0  0  0
   -0.1747   -0.6885   -0.1226 C   0  0  0  0  0  0  0  0  0  0  0  0
    2.2222    0.7141    0.0248 C   0  0  0  0  0  0  0  0  0  0  0  0
    2.2293   -0.6907    0.0138 C   0  0  0  0  0  0  0  0  0  0  0  0
   -2.1474    0.0573   -0.7364 C   0  0  0  0  0  0  0  0  0  0  0  0
   -1.4352    1.1122   -0.2117 N   0  0  0  0  0  0  0  0  0  0  0  0
   -1.5181   -1.1064   -0.2869 C   0  0  0  0  0  0  0  0  0  0  0  0
    3.5103   -1.4687   -0.0185 C   0  0  0  0  0  0  0  0  0  0  0  0
    2.4385   -3.5383    1.5508 N   0  0  0  0  0  0  0  0  0  0  0  0
    2.5141   -4.4610    2.7042 C   0  0  0  0  0  0  0  0  0  0  0  0
   -2.9644   -2.8062    1.1828 C   0  0  0  0  0  0  0  0  0  0  0  0
   -5.0665   -2.4290    2.4411 C   0  0  0  0  0  0  0  0  0  0  0  0
   -4.2326   -2.0420    1.3155 N   0  0  0  0  0  0  0  0  0  0  0  0
   -3.9527   -0.6431    1.5630 C   0  0  0  0  0  0  0  0  0  0  0  0
   -2.0836   -2.5159   -0.1033 C   0  0  0  0  0  0  0  0  0  0  0  0
    3.7325   -2.4313    1.4975 S   0  0  0  0  0  0  0  0  0  0  0  0
    4.9351   -3.2064    1.3555 O   0  0  0  0  0  0  0  0  0  0  0  0
    3.5404   -1.5611    2.6512 O   0  0  0  0  0  0  0  0  0  0  0  0
    1.0201    2.5288    0.0227 H   0  0  0  0  0  0  0  0  0  0  0  0
    0.9905   -2.4643   -0.1817 H   0  0  0  0  0  0  0  0  0  0  0  0
    3.1562    1.2709   -0.0092 H   0  0  0  0  0  0  0  0  0  0  0  0
   -3.1715    0.2301   -1.0479 H   0  0  0  0  0  0  0  0  0  0  0  0
   -1.7767    2.0565   -0.0795 H   0  0  0  0  0  0  0  0  0  0  0  0
    3.5459   -2.1382   -0.8834 H   0  0  0  0  0  0  0  0  0  0  0  0
    4.3662   -0.7886   -0.0759 H   0  0  0  0  0  0  0  0  0  0  0  0
    1.5562   -3.0316    1.6330 H   0  0  0  0  0  0  0  0  0  0  0  0
    2.4298   -3.8877    3.6323 H   0  0  0  0  0  0  0  0  0  0  0  0
    1.6629   -5.1484    2.6661 H   0  0  0  0  0  0  0  0  0  0  0  0
    3.4364   -5.0428    2.6897 H   0  0  0  0  0  0  0  0  0  0  0  0
   -3.2206   -3.8774    1.1419 H   0  0  0  0  0  0  0  0  0  0  0  0
   -2.3480   -2.6821    2.0842 H   0  0  0  0  0  0  0  0  0  0  0  0
   -4.5522   -2.2479    3.3917 H   0  0  0  0  0  0  0  0  0  0  0  0
   -5.9676   -1.7985    2.4240 H   0  0  0  0  0  0  0  0  0  0  0  0
   -5.3929   -3.4657    2.3794 H   0  0  0  0  0  0  0  0  0  0  0  0
   -3.3600   -0.4112    2.4523 H   0  0  0  0  0  0  0  0  0  0  0  0
   -3.3319   -0.3935    0.7779 H   0  0  0  0  0  0  0  0  0  0  0  0
   -4.7845    0.0412    1.3886 H   0  0  0  0  0  0  0  0  0  0  0  0
   -2.6420   -2.7976   -1.0013 H   0  0  0  0  0  0  0  0  0  0  0  0
   -1.2365   -3.2183   -0.0451 H   0  0  0  0  0  0  0  0  0  0  0  0
  1  2  2  0  0  0  0
  1 21  1  0  0  0  0
  2  8  1  0  0  0  0
  3  4  2  0  0  0  0
  3  6  1  0  0  0  0
  3 22  1  0  0  0  0
  4  2  1  0  0  0  0
  5  1  1  0  0  0  0
  5 23  1  0  0  0  0
  6  5  2  0  0  0  0
  6 10  1  0  0  0  0
  7 24  1  0  0  0  0
  8  7  1  0  0  0  0
  8 25  1  0  0  0  0
  9  4  1  0  0  0  0
  9  7  2  0  0  0  0
  9 17  1  0  0  0  0
 10 18  1  0  0  0  0
 10 26  1  0  0  0  0
 10 27  1  0  0  0  0
 11 12  1  0  0  0  0
 11 28  1  0  0  0  0
 12 29  1  0  0  0  0
 12 30  1  0  0  0  0
 12 31  1  0  0  0  0
 13 15  1  0  0  0  0
 13 32  1  0  0  0  0
 13 33  1  0  0  0  0
 14 34  1  0  0  0  0
 14 35  1  0  0  0  0
 14 36  1  0  0  0  0
 15 14  1  0  0  0  0
 15 16  1  0  0  0  0
 16 37  1  0  0  0  0
 16 38  1  0  0  0  0
 16 39  1  0  0  0  0
 17 13  1  0  0  0  0
 17 40  1  0  0  0  0
 17 41  1  0  0  0  0
 18 11  1  0  0  0  0
 18 19  2  0  0  0  0
 18 20  2  0  0  0  0
M  END
>  <DRUGBANK_ID>
DB00669

>  <SECONDARY_ACCESSION_NUMBERS>
APRD00379

>  <COMMON_NAME>
Sumatriptan

>  <CAS_NUMBER>
103628-46-2

>  <UNII>
8R78F6L9VO

>  <SYNONYMS>
(3-[2-(dimethylamino)ethyl]-1H-indol-5-yl)-N-methylmethanesulfonamide; 1-[3-(2-dimethylaminoethyl)-1H-indol-5-yl]-N-methyl-methanesulfonamide; 3-(2-(dimethylamino)ethyl)-N-methyl-1H-indole-5-methanesulfonamide; 3-[2-(dimethylamino)ethyl]-N-methylindole-5-methanesulfonamide; Sumatriptan; Sumatript√°n; Sumatriptanum

$$$$
