
 OpenBabel10282417193D

 54 56  0  0  0  0  0  0  0  0999 V2000
    1.0698   -0.0870   -0.0672 C   0  0  0  0  0  0  0  0  0  0  0  0
    0.5697    1.0448   -0.7728 O   0  0  0  0  0  0  0  0  0  0  0  0
    0.8820    2.2736   -0.2573 C   0  0  0  0  0  0  0  0  0  0  0  0
    2.1869    2.5649    0.1227 C   0  0  0  0  0  0  0  0  0  0  0  0
    2.5772    3.8796    0.4024 C   0  0  0  0  0  0  0  0  0  0  0  0
    1.6484    4.9134    0.2972 C   0  0  0  0  0  0  0  0  0  0  0  0
    0.3309    4.6255   -0.0595 C   0  0  0  0  0  0  0  0  0  0  0  0
   -0.0802    3.2964   -0.2720 C   0  0  0  0  0  0  0  0  0  0  0  0
   -1.4378    3.1276   -0.4869 O   0  0  0  0  0  0  0  0  0  0  0  0
   -1.9840    1.8623   -0.4449 C   0  0  0  0  0  0  0  0  0  0  0  0
   -1.8230    0.9733    0.6248 C   0  0  0  0  0  0  0  0  0  0  0  0
   -2.2513   -0.3281    0.6082 N   0  0  0  0  0  0  0  0  0  0  0  0
   -2.9131   -0.6810   -0.5298 C   0  0  0  0  0  0  0  0  0  0  0  0
   -3.1404    0.2250   -1.5602 C   0  0  0  0  0  0  0  0  0  0  0  0
   -2.6958    1.5107   -1.5378 N   0  0  0  0  0  0  0  0  0  0  0  0
   -3.4270   -2.0763   -0.6649 C   0  0  0  0  0  0  0  0  0  0  0  0
   -4.0776   -2.4315   -1.6490 O   0  0  0  0  0  0  0  0  0  0  0  0
   -3.1575   -2.9614    0.3429 N   0  0  0  0  0  0  0  0  0  0  0  0
    4.0131    4.1648    0.7234 C   0  0  0  0  0  0  0  0  0  0  0  0
    4.6051    5.0387   -0.2853 N   0  0  0  0  0  0  0  0  0  0  0  0
    6.0321    5.2286   -0.0440 C   0  0  0  0  0  0  0  0  0  0  0  0
    6.8283    3.9232   -0.0867 C   0  0  0  0  0  0  0  0  0  0  0  0
    6.7053    3.2324   -1.4548 C   0  0  0  0  0  0  0  0  0  0  0  0
    5.9839    1.8808   -1.3675 C   0  0  0  0  0  0  0  0  0  0  0  0
    6.0545    1.1441   -2.6965 C   0  0  0  0  0  0  0  0  0  0  0  0
    7.4067    1.0147   -3.1297 O   0  0  0  0  0  0  0  0  0  0  0  0
    8.0288    2.2807   -3.3436 C   0  0  0  0  0  0  0  0  0  0  0  0
    8.0985    3.0645   -2.0485 C   0  0  0  0  0  0  0  0  0  0  0  0
    0.6591   -0.9743   -0.5578 H   0  0  0  0  0  0  0  0  0  0  0  0
    0.7296   -0.0873    0.9738 H   0  0  0  0  0  0  0  0  0  0  0  0
    2.1574   -0.1567   -0.1130 H   0  0  0  0  0  0  0  0  0  0  0  0
    2.9329    1.7790    0.1508 H   0  0  0  0  0  0  0  0  0  0  0  0
    1.9696    5.9401    0.4708 H   0  0  0  0  0  0  0  0  0  0  0  0
   -0.3598    5.4545   -0.1982 H   0  0  0  0  0  0  0  0  0  0  0  0
   -1.2504    1.2565    1.5029 H   0  0  0  0  0  0  0  0  0  0  0  0
   -3.6909   -0.0575   -2.4512 H   0  0  0  0  0  0  0  0  0  0  0  0
   -2.6366   -2.6885    1.1672 H   0  0  0  0  0  0  0  0  0  0  0  0
   -3.5308   -3.8998    0.2731 H   0  0  0  0  0  0  0  0  0  0  0  0
    4.0969    4.6071    1.7198 H   0  0  0  0  0  0  0  0  0  0  0  0
    4.5231    3.1990    0.7636 H   0  0  0  0  0  0  0  0  0  0  0  0
    4.4518    4.6317   -1.2085 H   0  0  0  0  0  0  0  0  0  0  0  0
    6.4297    5.9130   -0.8041 H   0  0  0  0  0  0  0  0  0  0  0  0
    6.1779    5.7231    0.9220 H   0  0  0  0  0  0  0  0  0  0  0  0
    7.8733    4.1602    0.1436 H   0  0  0  0  0  0  0  0  0  0  0  0
    6.5229    3.2487    0.7211 H   0  0  0  0  0  0  0  0  0  0  0  0
    6.1382    3.8575   -2.1583 H   0  0  0  0  0  0  0  0  0  0  0  0
    6.4474    1.2675   -0.5854 H   0  0  0  0  0  0  0  0  0  0  0  0
    4.9326    2.0159   -1.0993 H   0  0  0  0  0  0  0  0  0  0  0  0
    5.6358    0.1390   -2.5829 H   0  0  0  0  0  0  0  0  0  0  0  0
    5.4675    1.6615   -3.4648 H   0  0  0  0  0  0  0  0  0  0  0  0
    7.4802    2.8377   -4.1123 H   0  0  0  0  0  0  0  0  0  0  0  0
    9.0426    2.1046   -3.7121 H   0  0  0  0  0  0  0  0  0  0  0  0
    8.5442    4.0508   -2.2242 H   0  0  0  0  0  0  0  0  0  0  0  0
    8.7311    2.5320   -1.3283 H   0  0  0  0  0  0  0  0  0  0  0  0
  1  2  1  0  0  0  0
  1 29  1  0  0  0  0
  1 30  1  0  0  0  0
  1 31  1  0  0  0  0
  2  3  1  0  0  0  0
  3  4  2  0  0  0  0
  3  8  1  0  0  0  0
  4  5  1  0  0  0  0
  4 32  1  0  0  0  0
  5  6  2  0  0  0  0
  5 19  1  0  0  0  0
  6  7  1  0  0  0  0
  6 33  1  0  0  0  0
  7  8  2  0  0  0  0
  7 34  1  0  0  0  0
  8  9  1  0  0  0  0
  9 10  1  0  0  0  0
 10 11  2  0  0  0  0
 10 15  1  0  0  0  0
 11 12  1  0  0  0  0
 11 35  1  0  0  0  0
 12 13  2  0  0  0  0
 13 14  1  0  0  0  0
 13 16  1  0  0  0  0
 14 15  2  0  0  0  0
 14 36  1  0  0  0  0
 16 17  2  0  0  0  0
 16 18  1  0  0  0  0
 18 37  1  0  0  0  0
 18 38  1  0  0  0  0
 19 20  1  0  0  0  0
 19 39  1  0  0  0  0
 19 40  1  0  0  0  0
 20 21  1  0  0  0  0
 20 41  1  0  0  0  0
 21 22  1  0  0  0  0
 21 42  1  0  0  0  0
 21 43  1  0  0  0  0
 22 23  1  0  0  0  0
 22 44  1  0  0  0  0
 22 45  1  0  0  0  0
 23 24  1  0  0  0  0
 23 28  1  0  0  0  0
 23 46  1  0  0  0  0
 24 25  1  0  0  0  0
 24 47  1  0  0  0  0
 24 48  1  0  0  0  0
 25 26  1  0  0  0  0
 25 49  1  0  0  0  0
 25 50  1  0  0  0  0
 26 27  1  0  0  0  0
 27 28  1  0  0  0  0
 27 51  1  0  0  0  0
 27 52  1  0  0  0  0
 28 53  1  0  0  0  0
 28 54  1  0  0  0  0
M  END
>  <DRUGBANK_ID>
DB12464

>  <COMMON_NAME>
Bevenopran

>  <CAS_NUMBER>
676500-67-7

>  <UNII>
IC58Q2EHPJ

>  <SYNONYMS>
Bevenopran

$$$$
