
 OpenBabel10282417203D

 17 16  0  0  0  0  0  0  0  0999 V2000
    1.0954   -0.0316    0.2313 C   0  0  0  0  0  0  0  0  0  0  0  0
   -0.8945   -1.3931    0.2181 C   0  0  0  0  0  0  0  0  0  0  0  0
    1.0757   -2.1533   -1.0013 C   0  0  0  0  0  0  0  0  0  0  0  0
    0.6394   -1.7115   -2.4110 C   0  0  0  0  0  0  0  0  0  0  0  0
    0.5624   -1.3868    0.1502 N   0  0  0  0  0  0  0  0  0  0  0  0
    1.1814   -0.4502   -2.7800 O   0  0  0  0  0  0  0  0  0  0  0  0
    0.8754    0.4043    1.2117 H   0  0  0  0  0  0  0  0  0  0  0  0
    0.6621    0.6416   -0.5117 H   0  0  0  0  0  0  0  0  0  0  0  0
    2.1851   -0.0246    0.1191 H   0  0  0  0  0  0  0  0  0  0  0  0
   -1.3555   -0.9175   -0.6534 H   0  0  0  0  0  0  0  0  0  0  0  0
   -1.2690   -2.4200    0.2923 H   0  0  0  0  0  0  0  0  0  0  0  0
   -1.2455   -0.8619    1.1090 H   0  0  0  0  0  0  0  0  0  0  0  0
    2.1723   -2.1652   -0.9519 H   0  0  0  0  0  0  0  0  0  0  0  0
    0.7661   -3.1988   -0.8678 H   0  0  0  0  0  0  0  0  0  0  0  0
    1.0028   -2.4385   -3.1435 H   0  0  0  0  0  0  0  0  0  0  0  0
   -0.4496   -1.6756   -2.5117 H   0  0  0  0  0  0  0  0  0  0  0  0
    0.5930    0.2266   -2.4020 H   0  0  0  0  0  0  0  0  0  0  0  0
  1  7  1  0  0  0  0
  1  8  1  0  0  0  0
  1  9  1  0  0  0  0
  2 10  1  0  0  0  0
  2 11  1  0  0  0  0
  2 12  1  0  0  0  0
  3 13  1  0  0  0  0
  3 14  1  0  0  0  0
  4  3  1  0  0  0  0
  4 15  1  0  0  0  0
  4 16  1  0  0  0  0
  5  1  1  0  0  0  0
  5  2  1  0  0  0  0
  5  3  1  0  0  0  0
  6  4  1  0  0  0  0
  6 17  1  0  0  0  0
M  END
>  <DRUGBANK_ID>
DB13352

>  <COMMON_NAME>
Deanol

>  <CAS_NUMBER>
108-01-0

>  <UNII>
2N6K9DRA24

>  <SYNONYMS>
2-(dimethylamino)ethanol; Dimethylethanolamine

$$$$
