J88
 OpenBabel10282417173D

 47 51  0  0  0  0  0  0  0  0999 V2000
    0.9752    0.1399   -0.1871 O   0  0  0  0  0  0  0  0  0  0  0  0
    0.4728   -0.8331    0.6506 N   0  0  0  0  0  0  0  0  0  0  0  0
   -0.8121   -0.8739    0.7731 C   0  0  0  0  0  0  0  0  0  0  0  0
   -1.9124   -0.1014    0.0976 C   0  0  0  0  0  0  0  0  0  0  0  0
   -1.7509    0.7677   -0.7547 O   0  0  0  0  0  0  0  0  0  0  0  0
   -3.0883   -0.5916    0.6531 N   0  0  0  0  0  0  0  0  0  0  0  0
   -4.3613   -0.1431    0.2265 C   0  0  0  0  0  0  0  0  0  0  0  0
   -5.1018   -1.1105   -0.6649 C   0  0  0  0  0  0  0  0  0  0  0  0
   -5.7812   -2.1576   -0.0274 C   0  0  0  0  0  0  0  0  0  0  0  0
   -6.8450   -2.7256   -0.6509 C   0  0  0  0  0  0  0  0  0  0  0  0
   -7.1953   -3.9802   -0.3258 F   0  0  0  0  0  0  0  0  0  0  0  0
   -7.4552   -1.9605   -1.6465 C   0  0  0  0  0  0  0  0  0  0  0  0
   -6.8460   -0.7356   -2.0442 C   0  0  0  0  0  0  0  0  0  0  0  0
   -7.0732    0.8195   -1.6332 C   0  0  0  0  0  0  0  0  0  0  0  0
   -5.8134    1.6176   -1.4870 O   0  0  0  0  0  0  0  0  0  0  0  0
   -4.7823    1.2657   -2.4309 C   0  0  0  0  0  0  0  0  0  0  0  0
   -4.9356   -0.0384   -2.9328 O   0  0  0  0  0  0  0  0  0  0  0  0
   -5.4949   -0.8271   -1.9716 C   0  0  0  0  0  0  0  0  0  0  0  0
   -2.8370   -1.5661    1.6248 C   0  0  0  0  0  0  0  0  0  0  0  0
   -3.6922   -2.2725    2.4579 C   0  0  0  0  0  0  0  0  0  0  0  0
   -3.1671   -3.2600    3.2905 C   0  0  0  0  0  0  0  0  0  0  0  0
   -1.7870   -3.4366    3.3779 C   0  0  0  0  0  0  0  0  0  0  0  0
   -0.9108   -2.6668    2.6045 C   0  0  0  0  0  0  0  0  0  0  0  0
   -1.4755   -1.7753    1.7127 C   0  0  0  0  0  0  0  0  0  0  0  0
    0.5252   -2.7890    2.7683 C   0  0  0  0  0  0  0  0  0  0  0  0
    1.1565   -4.0054    2.5097 C   0  0  0  0  0  0  0  0  0  0  0  0
    2.5115   -4.1460    2.7760 C   0  0  0  0  0  0  0  0  0  0  0  0
    3.2692   -3.0344    3.1443 C   0  0  0  0  0  0  0  0  0  0  0  0
    2.6755   -1.7821    3.2508 C   0  0  0  0  0  0  0  0  0  0  0  0
    1.2967   -1.6783    3.1514 C   0  0  0  0  0  0  0  0  0  0  0  0
    1.9352    0.0062   -0.0490 H   0  0  0  0  0  0  0  0  0  0  0  0
   -5.0069    0.1663    1.0607 H   0  0  0  0  0  0  0  0  0  0  0  0
   -4.1608    0.8032   -0.2479 H   0  0  0  0  0  0  0  0  0  0  0  0
   -5.5799   -2.5265    0.9531 H   0  0  0  0  0  0  0  0  0  0  0  0
   -7.8155   -2.6690   -2.4178 H   0  0  0  0  0  0  0  0  0  0  0  0
   -7.6144    1.3488   -2.4144 H   0  0  0  0  0  0  0  0  0  0  0  0
   -7.5718    0.9910   -0.6639 H   0  0  0  0  0  0  0  0  0  0  0  0
   -3.7735    1.2504   -2.0023 H   0  0  0  0  0  0  0  0  0  0  0  0
   -4.7005    2.0334   -3.2046 H   0  0  0  0  0  0  0  0  0  0  0  0
   -4.7554   -2.0955    2.5297 H   0  0  0  0  0  0  0  0  0  0  0  0
   -3.8278   -3.8708    3.9014 H   0  0  0  0  0  0  0  0  0  0  0  0
   -1.3854   -4.1535    4.0897 H   0  0  0  0  0  0  0  0  0  0  0  0
    0.5898   -4.8391    2.1007 H   0  0  0  0  0  0  0  0  0  0  0  0
    2.9763   -5.1208    2.6797 H   0  0  0  0  0  0  0  0  0  0  0  0
    4.3313   -3.1423    3.3336 H   0  0  0  0  0  0  0  0  0  0  0  0
    3.2728   -0.8894    3.4073 H   0  0  0  0  0  0  0  0  0  0  0  0
    0.8276   -0.7036    3.2858 H   0  0  0  0  0  0  0  0  0  0  0  0
  1  2  1  0  0  0  0
  1 31  1  0  0  0  0
  2  3  2  0  0  0  0
  3  4  1  0  0  0  0
  3 24  1  0  0  0  0
  4  5  2  0  0  0  0
  4  6  1  0  0  0  0
  6  7  1  0  0  0  0
  6 19  1  0  0  0  0
  7  8  1  0  0  0  0
  7 32  1  0  0  0  0
  7 33  1  0  0  0  0
  8  9  2  0  0  0  0
  8 18  1  0  0  0  0
  9 10  1  0  0  0  0
  9 34  1  0  0  0  0
 10 11  1  0  0  0  0
 10 12  2  0  0  0  0
 12 13  1  0  0  0  0
 12 35  1  0  0  0  0
 13 14  1  0  0  0  0
 13 18  2  0  0  0  0
 14 15  1  0  0  0  0
 14 36  1  0  0  0  0
 14 37  1  0  0  0  0
 15 16  1  0  0  0  0
 16 17  1  0  0  0  0
 16 38  1  0  0  0  0
 16 39  1  0  0  0  0
 17 18  1  0  0  0  0
 19 20  2  0  0  0  0
 19 24  1  0  0  0  0
 20 21  1  0  0  0  0
 20 40  1  0  0  0  0
 21 22  2  0  0  0  0
 21 41  1  0  0  0  0
 22 23  1  0  0  0  0
 22 42  1  0  0  0  0
 23 24  2  0  0  0  0
 23 25  1  0  0  0  0
 25 26  2  0  0  0  0
 25 30  1  0  0  0  0
 26 27  1  0  0  0  0
 26 43  1  0  0  0  0
 27 28  2  0  0  0  0
 27 44  1  0  0  0  0
 28 29  1  0  0  0  0
 28 45  1  0  0  0  0
 29 30  2  0  0  0  0
 29 46  1  0  0  0  0
 30 47  1  0  0  0  0
M  END
>  <DRUGBANK_ID>
DB08015

>  <COMMON_NAME>
(3Z)-1-[(6-fluoro-4H-1,3-benzodioxin-8-yl)methyl]-4-phenyl-1H-indole-2,3-dione 3-oxime

$$$$
