
 OpenBabel10282417203D

 35 36  0  0  0  0  0  0  0  0999 V2000
   -1.9645    0.7846    0.3933 C   0  0  0  0  0  0  0  0  0  0  0  0
   -2.2034   -0.6435   -0.0204 C   0  0  0  0  0  0  0  0  0  0  0  0
   -0.9099   -1.4503   -0.0673 C   0  0  0  0  0  0  0  0  0  0  0  0
   -0.7654    1.4307   -0.1112 C   0  0  0  0  0  0  0  0  0  0  0  0
    0.3318    0.6725   -0.1038 C   0  0  0  0  0  0  0  0  0  0  0  0
    0.2625   -0.7795   -0.0536 C   0  0  0  0  0  0  0  0  0  0  0  0
    1.6938   -1.2919    0.0067 C   0  0  3  0  0  0  0  0  0  0  0  0
    2.5943   -0.0118   -0.0171 C   0  0  0  0  0  0  0  0  0  0  0  0
    1.6391    1.1016   -0.0618 N   0  0  0  0  0  0  0  0  0  0  0  0
    2.1130    2.4918   -0.0213 C   0  0  0  0  0  0  0  0  0  0  0  0
    1.6710    3.2339   -1.2870 C   0  0  0  0  0  0  0  0  0  0  0  0
    1.6461    3.2223    1.2464 C   0  0  0  0  0  0  0  0  0  0  0  0
    1.8870   -2.0251    1.2154 O   0  0  0  0  0  0  0  0  0  0  0  0
   -2.6024    1.3109    1.2984 O   0  0  0  0  0  0  0  0  0  0  0  0
   -3.3919   -1.1513   -0.2059 N   0  0  0  0  0  0  0  0  0  0  0  0
   -4.5805   -0.4195   -0.0583 N   0  0  0  0  0  0  0  0  0  0  0  0
   -4.8692    0.9261   -0.2497 C   0  0  0  0  0  0  0  0  0  0  0  0
   -6.1336    1.2681    0.1678 N   0  0  0  0  0  0  0  0  0  0  0  0
   -4.1648    1.8121   -0.7174 O   0  0  0  0  0  0  0  0  0  0  0  0
   -0.9578   -2.5344   -0.0394 H   0  0  0  0  0  0  0  0  0  0  0  0
   -0.7860    2.5022   -0.1152 H   0  0  0  0  0  0  0  0  0  0  0  0
    1.9454   -1.9429   -0.8376 H   0  0  0  0  0  0  0  0  0  0  0  0
    3.2440    0.0473    0.8664 H   0  0  0  0  0  0  0  0  0  0  0  0
    3.2195    0.0097   -0.9162 H   0  0  0  0  0  0  0  0  0  0  0  0
    3.2096    2.4952   -0.0067 H   0  0  0  0  0  0  0  0  0  0  0  0
    0.5860    3.3281   -1.3754 H   0  0  0  0  0  0  0  0  0  0  0  0
    2.0667    4.2524   -1.3025 H   0  0  0  0  0  0  0  0  0  0  0  0
    2.0128    2.7050   -2.1821 H   0  0  0  0  0  0  0  0  0  0  0  0
    1.9945    2.7118    2.1502 H   0  0  0  0  0  0  0  0  0  0  0  0
    2.0307    4.2480    1.2643 H   0  0  0  0  0  0  0  0  0  0  0  0
    0.5580    3.2999    1.3250 H   0  0  0  0  0  0  0  0  0  0  0  0
    1.6432   -1.4281    1.9454 H   0  0  0  0  0  0  0  0  0  0  0  0
   -5.3918   -1.0131    0.0531 H   0  0  0  0  0  0  0  0  0  0  0  0
   -6.3187    2.2548    0.0199 H   0  0  0  0  0  0  0  0  0  0  0  0
   -6.9165    0.6724   -0.0540 H   0  0  0  0  0  0  0  0  0  0  0  0
  1  2  1  0  0  0  0
  1  4  1  0  0  0  0
  1 14  2  0  0  0  0
  2  3  1  0  0  0  0
  2 15  2  0  0  0  0
  3  6  2  0  0  0  0
  3 20  1  0  0  0  0
  4 21  1  0  0  0  0
  5  4  2  0  0  0  0
  5  6  1  0  0  0  0
  6  7  1  0  0  0  0
  7 13  1  0  0  0  0
  7  8  1  0  0  0  0
  7 22  1  0  0  0  0
  8  9  1  0  0  0  0
  8 23  1  0  0  0  0
  8 24  1  0  0  0  0
  9 10  1  0  0  0  0
  9  5  1  0  0  0  0
 10 11  1  0  0  0  0
 10 12  1  0  0  0  0
 10 25  1  0  0  0  0
 11 26  1  0  0  0  0
 11 27  1  0  0  0  0
 11 28  1  0  0  0  0
 12 29  1  0  0  0  0
 12 30  1  0  0  0  0
 12 31  1  0  0  0  0
 13 32  1  0  0  0  0
 15 16  1  0  0  0  0
 16 17  1  0  0  0  0
 16 33  1  0  0  0  0
 17 18  1  0  0  0  0
 17 19  2  0  0  0  0
 18 34  1  0  0  0  0
 18 35  1  0  0  0  0
M  END
>  <DRUGBANK_ID>
DB13541

>  <COMMON_NAME>
Iprazochrome

>  <CAS_NUMBER>
7248-21-7

>  <UNII>
903A9K181P

>  <SYNONYMS>
Iprazochrome; Iprazochromum; Iprazocromo

$$$$
