
 OpenBabel10282417143D

 24 23  0  0  1  0  0  0  0  0999 V2000
    5.2751   -2.5956    0.2214 O   0  0  0  0  0  0  0  0  0  0  0  0
    5.5383   -3.5165    3.7465 O   0  0  0  0  0  0  0  0  0  0  0  0
    2.6974   -2.4176   -0.0377 O   0  0  0  0  0  0  0  0  0  0  0  0
    5.1643   -0.5361    4.0484 O   0  0  0  0  0  0  0  0  0  0  0  0
    1.5020   -2.2995    3.0792 O   0  0  0  0  0  0  0  0  0  0  0  0
    3.6584    0.7183    2.0769 O   0  0  0  0  0  0  0  0  0  0  0  0
    4.6319   -3.1359    1.4017 C   0  0  1  0  0  0  0  0  0  0  0  0
    5.4502   -2.6187    2.6525 C   0  0  1  0  0  0  0  0  0  0  0  0
    3.0448   -2.8334    1.2915 C   0  0  1  0  0  0  0  0  0  0  0  0
    4.6737   -1.4739    3.1423 C   0  0  0  0  0  0  0  0  0  0  0  0
    2.2673   -1.8296    2.2578 C   0  0  0  0  0  0  0  0  0  0  0  0
    2.5313   -0.1509    2.2229 C   0  0  0  0  0  0  0  0  0  0  0  0
    4.7119   -1.8729   -0.1202 H   0  0  0  0  0  0  0  0  0  0  0  0
    4.8597   -3.2783    4.4062 H   0  0  0  0  0  0  0  0  0  0  0  0
    1.7429   -2.2063   -0.0389 H   0  0  0  0  0  0  0  0  0  0  0  0
    4.9438   -0.8897    4.9303 H   0  0  0  0  0  0  0  0  0  0  0  0
    4.2976    0.6608    2.8322 H   0  0  0  0  0  0  0  0  0  0  0  0
    4.7993   -4.2203    1.3498 H   0  0  0  0  0  0  0  0  0  0  0  0
    6.4386   -2.2318    2.3686 H   0  0  0  0  0  0  0  0  0  0  0  0
    2.5710   -3.8227    1.4418 H   0  0  0  0  0  0  0  0  0  0  0  0
    4.5431   -1.0145    2.1731 H   0  0  0  0  0  0  0  0  0  0  0  0
    3.7895   -1.8674    3.6393 H   0  0  0  0  0  0  0  0  0  0  0  0
    1.8888    0.1923    1.4218 H   0  0  0  0  0  0  0  0  0  0  0  0
    2.1211    0.1619    3.1941 H   0  0  0  0  0  0  0  0  0  0  0  0
  1 13  1  0  0  0  0
  2 14  1  0  0  0  0
  3 15  1  0  0  0  0
  4 10  1  0  0  0  0
  4 16  1  0  0  0  0
  5 11  2  0  0  0  0
  6 12  1  0  0  0  0
  6 17  1  0  0  0  0
  7  1  1  0  0  0  0
  7 18  1  6  0  0  0
  8 10  1  0  0  0  0
  8 19  1  6  0  0  0
  8  7  1  0  0  0  0
  8  2  1  0  0  0  0
  9 11  1  0  0  0  0
  9 20  1  1  0  0  0
  9  7  1  0  0  0  0
  9  3  1  0  0  0  0
 10 21  1  0  0  0  0
 10 22  1  0  0  0  0
 11 12  1  0  0  0  0
 12 23  1  0  0  0  0
 12 24  1  0  0  0  0
M  END
>  <DRUGBANK_ID>
DB04936

>  <COMMON_NAME>
Tagatose

>  <CAS_NUMBER>
87-81-0

>  <UNII>
T7A20Y888Y

>  <SYNONYMS>
(3S,4S,5R)-1,3,4,5,6-pentahydroxyhexan-2-one; D-lyxo-hex-2-ulose; D-lyxo-hexulose; D-tag; D-tagatose; keto-D-tagatose

$$$$
