
 OpenBabel10282417123D

 44 43  0  0  0  0  0  0  0  0999 V2000
   -5.9473    1.2267    5.2839 N   0  0  0  0  0  0  0  0  0  0  0  0
   -5.3212    0.3740    4.2568 C   0  0  2  0  0  0  0  0  0  0  0  0
   -4.8677    1.3456    3.1165 C   0  0  0  0  0  0  0  0  0  0  0  0
   -6.2762   -0.7877    3.8971 C   0  0  0  0  0  0  0  0  0  0  0  0
   -7.6021   -0.3611    3.3311 C   0  0  0  0  0  0  0  0  0  0  0  0
   -7.4580    0.3806    2.0537 C   0  0  0  0  0  0  0  0  0  0  0  0
   -6.9096   -0.2923    0.9268 N   0  0  0  0  0  0  0  0  0  0  0  0
   -7.5510   -0.2802   -0.2640 C   0  0  0  0  0  0  0  0  0  0  0  0
   -7.0477   -1.0281   -1.2083 N   0  0  0  0  0  0  0  0  0  0  0  0
   -8.7140    0.3638   -0.5691 N   0  0  0  0  0  0  0  0  0  0  0  0
   -9.5734    1.2732   -0.0249 N   0  3  0  0  0  0  0  0  0  0  0  0
  -10.5485    1.4674   -0.7332 O   0  5  0  0  0  0  0  0  0  0  0  0
   -9.3906    1.8570    1.0577 O   0  0  0  0  0  0  0  0  0  0  0  0
   -5.5504    2.3240    2.8336 O   0  0  0  0  0  0  0  0  0  0  0  0
   -3.6624    1.1259    2.5052 N   0  0  0  0  0  0  0  0  0  0  0  0
   -3.1742    1.9690    1.3691 C   0  0  2  0  0  0  0  0  0  0  0  0
   -1.6219    1.9458    1.3552 C   0  0  0  0  0  0  0  0  0  0  0  0
   -1.0009    0.9117    1.9940 N   0  0  0  0  0  0  0  0  0  0  0  0
   -0.9064    2.7337    0.7446 O   0  0  0  0  0  0  0  0  0  0  0  0
   -3.6673    3.4434    1.3166 C   0  0  0  0  0  0  0  0  0  0  0  0
   -3.2559    4.2512    0.0840 C   0  0  0  0  0  0  0  0  0  0  0  0
   -3.7496    3.6296   -1.1423 N   0  0  0  0  0  0  0  0  0  0  0  0
   -6.7415    1.7173    4.8529 H   0  0  0  0  0  0  0  0  0  0  0  0
   -6.3253    0.6693    6.0415 H   0  0  0  0  0  0  0  0  0  0  0  0
   -4.4229   -0.0747    4.6833 H   0  0  0  0  0  0  0  0  0  0  0  0
   -5.8085   -1.4832    3.1927 H   0  0  0  0  0  0  0  0  0  0  0  0
   -6.5096   -1.3714    4.7991 H   0  0  0  0  0  0  0  0  0  0  0  0
   -8.2754   -1.2138    3.1515 H   0  0  0  0  0  0  0  0  0  0  0  0
   -8.1575    0.2951    4.0164 H   0  0  0  0  0  0  0  0  0  0  0  0
   -8.4939    0.3838    1.8558 H   0  0  0  0  0  0  0  0  0  0  0  0
   -7.1693    1.4180    2.1142 H   0  0  0  0  0  0  0  0  0  0  0  0
   -5.9872   -0.7118    1.0036 H   0  0  0  0  0  0  0  0  0  0  0  0
   -6.2011   -1.4992   -0.8766 H   0  0  0  0  0  0  0  0  0  0  0  0
   -8.9910    0.0995   -1.5005 H   0  0  0  0  0  0  0  0  0  0  0  0
   -2.9567    0.7703    3.1335 H   0  0  0  0  0  0  0  0  0  0  0  0
   -3.5210    1.4413    0.4718 H   0  0  0  0  0  0  0  0  0  0  0  0
    0.0090    0.9061    1.9103 H   0  0  0  0  0  0  0  0  0  0  0  0
   -1.4585    0.0654    2.2880 H   0  0  0  0  0  0  0  0  0  0  0  0
   -4.7597    3.4999    1.2914 H   0  0  0  0  0  0  0  0  0  0  0  0
   -3.3494    3.9648    2.2288 H   0  0  0  0  0  0  0  0  0  0  0  0
   -3.6885    5.2556    0.1649 H   0  0  0  0  0  0  0  0  0  0  0  0
   -2.1790    4.4026    0.0248 H   0  0  0  0  0  0  0  0  0  0  0  0
   -3.3922    4.1528   -1.9399 H   0  0  0  0  0  0  0  0  0  0  0  0
   -3.3645    2.6938   -1.2428 H   0  0  0  0  0  0  0  0  0  0  0  0
  1  2  1  0  0  0  0
  1 23  1  0  0  0  0
  1 24  1  0  0  0  0
  2  4  1  0  0  0  0
  2  3  1  0  0  0  0
  2 25  1  1  0  0  0
  3 15  1  0  0  0  0
  3 14  2  0  0  0  0
  4  5  1  0  0  0  0
  4 26  1  0  0  0  0
  4 27  1  0  0  0  0
  5  6  1  0  0  0  0
  5 28  1  0  0  0  0
  5 29  1  0  0  0  0
  6  7  1  0  0  0  0
  6 30  1  0  0  0  0
  6 31  1  0  0  0  0
  7  8  1  0  0  0  0
  7 32  1  0  0  0  0
  8  9  2  0  0  0  0
  8 10  1  0  0  0  0
  9 33  1  0  0  0  0
 10 11  1  0  0  0  0
 10 34  1  0  0  0  0
 11 12  1  0  0  0  0
 11 13  2  0  0  0  0
 15 35  1  0  0  0  0
 16 20  1  0  0  0  0
 16 36  1  6  0  0  0
 16 17  1  0  0  0  0
 16 15  1  0  0  0  0
 17 18  1  0  0  0  0
 17 19  2  0  0  0  0
 18 37  1  0  0  0  0
 18 38  1  0  0  0  0
 20 21  1  0  0  0  0
 20 39  1  0  0  0  0
 20 40  1  0  0  0  0
 21 22  1  0  0  0  0
 21 41  1  0  0  0  0
 21 42  1  0  0  0  0
 22 43  1  0  0  0  0
 22 44  1  0  0  0  0
M  CHG  2  11   1  12  -1
M  END
>  <DRUGBANK_ID>
DB01821

>  <SECONDARY_ACCESSION_NUMBERS>
EXPT01252

>  <COMMON_NAME>
L-N(omega)-Nitroarginine-2,4-L-diaminobutyric amide

$$$$
