
 OpenBabel10282417123D

 29 29  0  0  1  0  0  0  0  0999 V2000
   -1.2361    1.0877   -2.4426 O   0  0  0  0  0  0  0  0  0  0  0  0
   -0.0019    1.7221   -2.8179 C   0  0  0  0  0  0  0  0  0  0  0  0
    1.1620    0.9546   -2.1842 C   0  0  1  0  0  0  0  0  0  0  0  0
    1.8644    0.2628   -3.2339 O   0  0  0  0  0  0  0  0  0  0  0  0
    2.7361   -0.7359   -2.7112 C   0  0  2  0  0  0  0  0  0  0  0  0
    2.0473   -1.7101   -1.9122 O   0  0  0  0  0  0  0  0  0  0  0  0
    0.9104   -2.7489   -2.7004 P   0  0  0  0  0  0  0  0  0  0  0  0
   -0.1407   -1.5004   -2.7136 O   0  0  0  0  0  0  0  0  0  0  0  0
    1.7019   -2.5160   -4.1059 O   0  0  0  0  0  0  0  0  0  0  0  0
   -0.1071   -3.6787   -3.4058 O   0  0  0  0  0  0  0  0  0  0  0  0
    3.8559   -0.0845   -1.8930 C   0  0  2  0  0  0  0  0  0  0  0  0
    4.7203   -1.0871   -1.3433 O   0  0  0  0  0  0  0  0  0  0  0  0
    3.2316    0.8162   -0.8173 C   0  0  1  0  0  0  0  0  0  0  0  0
    4.2537    1.5508   -0.1426 O   0  0  0  0  0  0  0  0  0  0  0  0
    2.2029    1.7878   -1.4443 C   0  0  1  0  0  0  0  0  0  0  0  0
    2.8847    2.6669   -2.3526 O   0  0  0  0  0  0  0  0  0  0  0  0
   -1.2100    0.2133   -2.8827 H   0  0  0  0  0  0  0  0  0  0  0  0
    0.0326    1.7036   -3.9128 H   0  0  0  0  0  0  0  0  0  0  0  0
   -0.0538    2.7556   -2.4733 H   0  0  0  0  0  0  0  0  0  0  0  0
    0.7431    0.2411   -1.4654 H   0  0  0  0  0  0  0  0  0  0  0  0
    3.2617   -1.2229   -3.5388 H   0  0  0  0  0  0  0  0  0  0  0  0
   -0.8569   -1.6947   -2.0760 H   0  0  0  0  0  0  0  0  0  0  0  0
    2.4013   -3.1861   -4.2406 H   0  0  0  0  0  0  0  0  0  0  0  0
    4.4790    0.5275   -2.5575 H   0  0  0  0  0  0  0  0  0  0  0  0
    4.2121   -1.5608   -0.6621 H   0  0  0  0  0  0  0  0  0  0  0  0
    2.7448    0.1889   -0.0606 H   0  0  0  0  0  0  0  0  0  0  0  0
    4.6116    2.1801   -0.7980 H   0  0  0  0  0  0  0  0  0  0  0  0
    1.7395    2.4006   -0.6661 H   0  0  0  0  0  0  0  0  0  0  0  0
    2.9475    2.2028   -3.2114 H   0  0  0  0  0  0  0  0  0  0  0  0
  1  2  1  0  0  0  0
  1 17  1  0  0  0  0
  2 18  1  0  0  0  0
  2 19  1  0  0  0  0
  3  4  1  0  0  0  0
  3 15  1  0  0  0  0
  3 20  1  1  0  0  0
  3  2  1  0  0  0  0
  4  5  1  0  0  0  0
  5 11  1  0  0  0  0
  5 21  1  6  0  0  0
  5  6  1  0  0  0  0
  6  7  1  0  0  0  0
  7  8  1  0  0  0  0
  7  9  1  0  0  0  0
  7 10  2  0  0  0  0
  8 22  1  0  0  0  0
  9 23  1  0  0  0  0
 11 12  1  0  0  0  0
 11 13  1  0  0  0  0
 11 24  1  6  0  0  0
 12 25  1  0  0  0  0
 13 14  1  0  0  0  0
 13 15  1  0  0  0  0
 13 26  1  1  0  0  0
 14 27  1  0  0  0  0
 15 16  1  0  0  0  0
 15 28  1  1  0  0  0
 16 29  1  0  0  0  0
M  END
>  <DRUGBANK_ID>
DB02317

>  <SECONDARY_ACCESSION_NUMBERS>
EXPT01595

>  <COMMON_NAME>
Alpha-D-Galactose-1-Phosphate

>  <CAS_NUMBER>
2255-14-3

>  <UNII>
4Z9Z6N3GH4

$$$$
