RXC
 OpenBabel10282417173D

 41 43  0  0  0  0  0  0  0  0999 V2000
    1.2545   -0.1315   -0.1977 O   0  0  0  0  0  0  0  0  0  0  0  0
    2.4734   -0.0849   -0.1401 C   0  0  0  0  0  0  0  0  0  0  0  0
    3.2831   -1.1712   -0.3074 N   0  0  0  0  0  0  0  0  0  0  0  0
    4.2156   -1.3109    0.6740 C   0  0  0  0  0  0  0  0  0  0  0  0
    4.2490   -2.1885    1.5235 O   0  0  0  0  0  0  0  0  0  0  0  0
    3.1826    1.1799    0.1153 C   0  0  0  0  0  0  0  0  0  0  0  0
    4.5738    1.1618    0.3861 C   0  0  0  0  0  0  0  0  0  0  0  0
    5.1929   -0.1491    0.6603 C   0  0  0  0  0  0  0  0  0  0  0  0
    6.3933   -0.3201    0.7950 O   0  0  0  0  0  0  0  0  0  0  0  0
    2.4574    2.3644   -0.0302 C   0  0  0  0  0  0  0  0  0  0  0  0
    3.1426    3.5398    0.0208 C   0  0  0  0  0  0  0  0  0  0  0  0
    4.5178    3.4934    0.1841 C   0  0  0  0  0  0  0  0  0  0  0  0
    5.2909    2.3503    0.4221 C   0  0  0  0  0  0  0  0  0  0  0  0
    6.6695    2.3809    0.8105 N   0  0  0  0  0  0  0  0  0  0  0  0
    7.4930    3.4263    1.2073 C   0  0  0  0  0  0  0  0  0  0  0  0
    8.6157    3.1649    1.6535 O   0  0  0  0  0  0  0  0  0  0  0  0
    6.9853    4.8907    1.1977 C   0  0  1  0  0  0  0  0  0  0  0  0
    6.5888    5.3007   -0.1764 O   0  0  0  0  0  0  0  0  0  0  0  0
    7.4044    4.9817   -1.2275 C   0  0  0  0  0  0  0  0  0  0  0  0
    8.5648    4.6187   -1.1050 O   0  0  0  0  0  0  0  0  0  0  0  0
    6.7189    5.0625   -2.5795 C   0  0  0  0  0  0  0  0  0  0  0  0
    5.8572    5.0870    2.3067 C   0  0  0  0  0  0  0  0  0  0  0  0
    5.1896    4.0011    2.9508 C   0  0  0  0  0  0  0  0  0  0  0  0
    3.9652    4.1389    3.6171 C   0  0  0  0  0  0  0  0  0  0  0  0
    3.4190    5.3985    3.7638 C   0  0  0  0  0  0  0  0  0  0  0  0
    4.1364    6.5010    3.2957 C   0  0  0  0  0  0  0  0  0  0  0  0
    3.4754    8.0712    3.5417 Cl  0  0  0  0  0  0  0  0  0  0  0  0
    5.3490    6.3584    2.5898 C   0  0  0  0  0  0  0  0  0  0  0  0
    7.8025    5.5696    1.4563 H   0  0  0  0  0  0  0  0  0  0  0  0
    2.7530   -2.0058   -0.5067 H   0  0  0  0  0  0  0  0  0  0  0  0
    1.3878    2.3889   -0.2116 H   0  0  0  0  0  0  0  0  0  0  0  0
    2.6632    4.5147   -0.0359 H   0  0  0  0  0  0  0  0  0  0  0  0
    4.8738    4.4928    0.2477 H   0  0  0  0  0  0  0  0  0  0  0  0
    7.1173    1.4744    0.9992 H   0  0  0  0  0  0  0  0  0  0  0  0
    5.9983    4.2504   -2.7261 H   0  0  0  0  0  0  0  0  0  0  0  0
    6.2366    6.0302   -2.7302 H   0  0  0  0  0  0  0  0  0  0  0  0
    7.4789    4.9561   -3.3667 H   0  0  0  0  0  0  0  0  0  0  0  0
    5.5229    2.9715    2.8550 H   0  0  0  0  0  0  0  0  0  0  0  0
    3.4334    3.2566    3.9738 H   0  0  0  0  0  0  0  0  0  0  0  0
    2.4527    5.5117    4.2501 H   0  0  0  0  0  0  0  0  0  0  0  0
    5.8744    7.2437    2.2457 H   0  0  0  0  0  0  0  0  0  0  0  0
  1  2  2  0  0  0  0
  2  3  1  0  0  0  0
  2  6  1  0  0  0  0
  3  4  1  0  0  0  0
  3 30  1  0  0  0  0
  4  5  2  0  0  0  0
  4  8  1  0  0  0  0
  6  7  2  0  0  0  0
  6 10  1  0  0  0  0
  7  8  1  0  0  0  0
  7 13  1  0  0  0  0
  8  9  2  0  0  0  0
 10 11  2  0  0  0  0
 10 31  1  0  0  0  0
 11 12  1  0  0  0  0
 11 32  1  0  0  0  0
 12 13  2  0  0  0  0
 12 33  1  0  0  0  0
 13 14  1  0  0  0  0
 14 15  1  0  0  0  0
 14 34  1  0  0  0  0
 15 16  2  0  0  0  0
 15 17  1  0  0  0  0
 17 18  1  0  0  0  0
 17 22  1  0  0  0  0
 17 29  1  1  0  0  0
 18 19  1  0  0  0  0
 19 20  2  0  0  0  0
 19 21  1  0  0  0  0
 21 35  1  0  0  0  0
 21 36  1  0  0  0  0
 21 37  1  0  0  0  0
 22 23  2  0  0  0  0
 22 28  1  0  0  0  0
 23 24  1  0  0  0  0
 23 38  1  0  0  0  0
 24 25  2  0  0  0  0
 24 39  1  0  0  0  0
 25 26  1  0  0  0  0
 25 40  1  0  0  0  0
 26 27  1  0  0  0  0
 26 28  2  0  0  0  0
 28 41  1  0  0  0  0
M  END
>  <DRUGBANK_ID>
DB08498

>  <COMMON_NAME>
(1S)-1-(3-chlorophenyl)-2-oxo-2-[(1,3,4-trioxo-1,2,3,4-tetrahydroisoquinolin-5-yl)amino]ethyl acetate

$$$$
