
 OpenBabel10282417223D

 46 50  0  0  1  0  0  0  0  0999 V2000
    0.9899    1.3714   -2.1999 C   0  0  0  0  0  0  0  0  0  0  0  0
    0.5617    1.3291   -0.7310 C   0  0  2  0  0  0  0  0  0  0  0  0
    1.3227    0.2556   -0.1608 N   0  0  0  0  0  0  0  0  0  0  0  0
    2.0444    0.4131    0.9792 C   0  0  0  0  0  0  0  0  0  0  0  0
    1.5643    1.0822    2.0355 N   0  0  0  0  0  0  0  0  0  0  0  0
    2.3582    1.2016    3.1173 C   0  0  0  0  0  0  0  0  0  0  0  0
    3.6147    0.7579    3.2744 N   0  0  0  0  0  0  0  0  0  0  0  0
    4.0543    0.0639    2.2094 C   0  0  0  0  0  0  0  0  0  0  0  0
    3.2860   -0.1571    1.0903 C   0  0  0  0  0  0  0  0  0  0  0  0
    4.0558   -0.9225    0.2620 N   0  0  0  0  0  0  0  0  0  0  0  0
    5.2626   -1.0883    0.8777 C   0  0  0  0  0  0  0  0  0  0  0  0
    5.2917   -0.5045    2.0572 N   0  0  0  0  0  0  0  0  0  0  0  0
   -0.9796    1.1779   -0.6056 C   0  0  0  0  0  0  0  0  0  0  0  0
   -1.6167    2.3168   -0.5677 N   0  0  0  0  0  0  0  0  0  0  0  0
   -3.0090    2.3291   -0.6256 C   0  0  0  0  0  0  0  0  0  0  0  0
   -3.7475    1.1533   -0.6736 C   0  0  0  0  0  0  0  0  0  0  0  0
   -5.1396    1.1677   -0.7224 C   0  0  0  0  0  0  0  0  0  0  0  0
   -5.7814    2.3759   -0.9121 C   0  0  0  0  0  0  0  0  0  0  0  0
   -7.1139    2.3993   -1.0275 F   0  0  0  0  0  0  0  0  0  0  0  0
   -5.0608    3.5621   -0.9801 C   0  0  0  0  0  0  0  0  0  0  0  0
   -3.6882    3.5478   -0.7181 C   0  0  0  0  0  0  0  0  0  0  0  0
   -3.0277   -0.1161   -0.7300 C   0  0  0  0  0  0  0  0  0  0  0  0
   -3.6959   -1.1548   -0.8302 O   0  0  0  0  0  0  0  0  0  0  0  0
   -1.6410   -0.0552   -0.6872 N   0  0  0  0  0  0  0  0  0  0  0  0
   -0.9760   -1.3179   -0.7242 C   0  0  0  0  0  0  0  0  0  0  0  0
   -0.2029   -1.7475    0.3552 C   0  0  0  0  0  0  0  0  0  0  0  0
    0.7597   -2.7417    0.1621 C   0  0  0  0  0  0  0  0  0  0  0  0
    0.7532   -3.4904   -1.0073 C   0  0  0  0  0  0  0  0  0  0  0  0
   -0.2321   -3.2567   -1.9640 C   0  0  0  0  0  0  0  0  0  0  0  0
   -1.0532   -2.1314   -1.8587 C   0  0  0  0  0  0  0  0  0  0  0  0
    0.3688    0.7208   -2.8232 H   0  0  0  0  0  0  0  0  0  0  0  0
    2.0305    1.0357   -2.3173 H   0  0  0  0  0  0  0  0  0  0  0  0
    0.9297    2.3898   -2.5879 H   0  0  0  0  0  0  0  0  0  0  0  0
    0.8478    2.2778   -0.2571 H   0  0  0  0  0  0  0  0  0  0  0  0
    1.5383   -0.5155   -0.7756 H   0  0  0  0  0  0  0  0  0  0  0  0
    1.9233    1.7281    3.9614 H   0  0  0  0  0  0  0  0  0  0  0  0
    3.7849   -1.2822   -0.6434 H   0  0  0  0  0  0  0  0  0  0  0  0
    6.0711   -1.6415    0.4196 H   0  0  0  0  0  0  0  0  0  0  0  0
   -5.7082    0.2462   -0.6556 H   0  0  0  0  0  0  0  0  0  0  0  0
   -5.5718    4.4856   -1.2327 H   0  0  0  0  0  0  0  0  0  0  0  0
   -3.1502    4.4871   -0.6110 H   0  0  0  0  0  0  0  0  0  0  0  0
   -0.2033   -1.1735    1.2814 H   0  0  0  0  0  0  0  0  0  0  0  0
    1.5516   -2.8674    0.8974 H   0  0  0  0  0  0  0  0  0  0  0  0
    1.5020   -4.2617   -1.1643 H   0  0  0  0  0  0  0  0  0  0  0  0
   -0.3381   -3.9295   -2.8101 H   0  0  0  0  0  0  0  0  0  0  0  0
   -1.7273   -1.8830   -2.6746 H   0  0  0  0  0  0  0  0  0  0  0  0
  1 31  1  0  0  0  0
  1 32  1  0  0  0  0
  1 33  1  0  0  0  0
  2 13  1  0  0  0  0
  2 34  1  1  0  0  0
  2  3  1  0  0  0  0
  2  1  1  0  0  0  0
  3  4  1  0  0  0  0
  3 35  1  0  0  0  0
  4  5  2  0  0  0  0
  4  9  1  0  0  0  0
  5  6  1  0  0  0  0
  6  7  2  0  0  0  0
  6 36  1  0  0  0  0
  7  8  1  0  0  0  0
  8  9  2  0  0  0  0
  8 12  1  0  0  0  0
  9 10  1  0  0  0  0
 10 11  1  0  0  0  0
 10 37  1  0  0  0  0
 11 12  2  0  0  0  0
 11 38  1  0  0  0  0
 13 14  2  0  0  0  0
 13 24  1  0  0  0  0
 14 15  1  0  0  0  0
 15 16  2  0  0  0  0
 15 21  1  0  0  0  0
 16 17  1  0  0  0  0
 16 22  1  0  0  0  0
 17 18  2  0  0  0  0
 17 39  1  0  0  0  0
 18 19  1  0  0  0  0
 18 20  1  0  0  0  0
 20 21  2  0  0  0  0
 20 40  1  0  0  0  0
 21 41  1  0  0  0  0
 22 23  2  0  0  0  0
 22 24  1  0  0  0  0
 24 25  1  0  0  0  0
 25 26  2  0  0  0  0
 25 30  1  0  0  0  0
 26 27  1  0  0  0  0
 26 42  1  0  0  0  0
 27 28  2  0  0  0  0
 27 43  1  0  0  0  0
 28 29  1  0  0  0  0
 28 44  1  0  0  0  0
 29 30  2  0  0  0  0
 29 45  1  0  0  0  0
 30 46  1  0  0  0  0
M  END
>  <DRUGBANK_ID>
DB15407

>  <COMMON_NAME>
Acalisib

>  <CAS_NUMBER>
870281-34-8

>  <UNII>
OVW60IDW1D

>  <SYNONYMS>
Acalisib

$$$$
