
 OpenBabel10282417163D

 35 36  0  0  0  0  0  0  0  0999 V2000
   -0.2136    1.0730    0.0723 C   0  0  0  0  0  0  0  0  0  0  0  0
    0.4456   -0.1638    0.1219 C   0  0  0  0  0  0  0  0  0  0  0  0
   -0.3132   -1.3220    0.0075 C   0  0  0  0  0  0  0  0  0  0  0  0
   -1.7003   -1.2673   -0.0275 C   0  0  0  0  0  0  0  0  0  0  0  0
   -2.2862   -0.0164   -0.0052 C   0  0  0  0  0  0  0  0  0  0  0  0
   -1.5770    1.1403    0.0078 N   0  0  0  0  0  0  0  0  0  0  0  0
    1.6887    2.4941   -0.0544 C   0  0  0  0  0  0  0  0  0  0  0  0
    2.3070    2.0015   -1.1905 C   0  0  0  0  0  0  0  0  0  0  0  0
    3.6906    1.9698   -1.2312 C   0  0  0  0  0  0  0  0  0  0  0  0
    4.4772    2.5977   -0.2678 C   0  0  0  0  0  0  0  0  0  0  0  0
    3.8362    3.2364    0.7932 C   0  0  0  0  0  0  0  0  0  0  0  0
    2.4446    3.1343    0.9299 C   0  0  0  0  0  0  0  0  0  0  0  0
    5.8455    2.6271   -0.2773 O   0  0  0  0  0  0  0  0  0  0  0  0
    6.5319    1.8647   -1.2803 C   0  0  1  0  0  0  0  0  0  0  0  0
    6.3167    0.3333   -1.1881 C   0  0  0  0  0  0  0  0  0  0  0  0
    5.8409   -0.2807   -2.2965 O   0  0  0  0  0  0  0  0  0  0  0  0
    0.3476    2.3312    0.1551 O   0  0  0  0  0  0  0  0  0  0  0  0
    6.3780    2.5113   -2.6634 C   0  0  0  0  0  0  0  0  0  0  0  0
    6.5414   -0.3182   -0.1687 O   0  0  0  0  0  0  0  0  0  0  0  0
    2.1125   -0.4991    0.4313 Cl  0  0  0  0  0  0  0  0  0  0  0  0
   -2.4980   -2.5280   -0.0385 C   0  0  0  0  0  0  0  0  0  0  0  0
   -3.2909   -2.6555    1.0571 F   0  0  0  0  0  0  0  0  0  0  0  0
   -3.3118   -2.6216   -1.1211 F   0  0  0  0  0  0  0  0  0  0  0  0
   -1.7155   -3.6445   -0.0627 F   0  0  0  0  0  0  0  0  0  0  0  0
    0.1913   -2.2868    0.0015 H   0  0  0  0  0  0  0  0  0  0  0  0
   -3.3686    0.1037    0.0180 H   0  0  0  0  0  0  0  0  0  0  0  0
    1.7561    1.4764   -1.9646 H   0  0  0  0  0  0  0  0  0  0  0  0
    4.0929    1.3730   -2.0290 H   0  0  0  0  0  0  0  0  0  0  0  0
    4.4131    3.7736    1.5426 H   0  0  0  0  0  0  0  0  0  0  0  0
    1.9578    3.5084    1.8262 H   0  0  0  0  0  0  0  0  0  0  0  0
    7.6016    1.9746   -1.0454 H   0  0  0  0  0  0  0  0  0  0  0  0
    5.6268    0.2819   -3.0620 H   0  0  0  0  0  0  0  0  0  0  0  0
    6.6748    3.5636   -2.6292 H   0  0  0  0  0  0  0  0  0  0  0  0
    6.9639    1.9849   -3.4201 H   0  0  0  0  0  0  0  0  0  0  0  0
    5.3486    2.5250   -3.0263 H   0  0  0  0  0  0  0  0  0  0  0  0
  1  2  2  0  0  0  0
  2  3  1  0  0  0  0
  2 20  1  0  0  0  0
  3  4  2  0  0  0  0
  3 25  1  0  0  0  0
  4  5  1  0  0  0  0
  4 21  1  0  0  0  0
  5  6  2  0  0  0  0
  5 26  1  0  0  0  0
  6  1  1  0  0  0  0
  7 17  1  0  0  0  0
  7  8  2  0  0  0  0
  8  9  1  0  0  0  0
  8 27  1  0  0  0  0
  9 10  2  0  0  0  0
  9 28  1  0  0  0  0
 10 13  1  0  0  0  0
 10 11  1  0  0  0  0
 11 12  2  0  0  0  0
 11 29  1  0  0  0  0
 12  7  1  0  0  0  0
 12 30  1  0  0  0  0
 14 13  1  0  0  0  0
 14 15  1  0  0  0  0
 14 18  1  0  0  0  0
 14 31  1  1  0  0  0
 15 16  1  0  0  0  0
 15 19  2  0  0  0  0
 16 32  1  0  0  0  0
 17  1  1  0  0  0  0
 18 33  1  0  0  0  0
 18 34  1  0  0  0  0
 18 35  1  0  0  0  0
 21 22  1  0  0  0  0
 21 23  1  0  0  0  0
 21 24  1  0  0  0  0
M  END
>  <DRUGBANK_ID>
DB07870

>  <COMMON_NAME>
Haloxyfop-P

>  <CAS_NUMBER>
95977-29-0

>  <UNII>
I57833604I

>  <SYNONYMS>
(+)-haloxyfop; (R)-haloxyfop; (R)-haloxyfop-acid; R-haloxyfop-acid

$$$$
