
 OpenBabel10282417183D

 38 39  0  0  0  0  0  0  0  0999 V2000
    0.0487   -0.7170    0.1451 C   0  0  0  0  0  0  0  0  0  0  0  0
    0.0596    0.6788    0.1869 C   0  0  0  0  0  0  0  0  0  0  0  0
   -1.1361   -1.4731    0.2249 C   0  0  0  0  0  0  0  0  0  0  0  0
    1.2512   -1.4234   -0.0089 O   0  0  0  0  0  0  0  0  0  0  0  0
    1.3083    1.4329    0.0397 C   0  0  0  0  0  0  0  0  0  0  0  0
   -1.1472    1.3111    0.4072 C   0  0  0  0  0  0  0  0  0  0  0  0
   -2.3471   -0.8012    0.3126 C   0  0  0  0  0  0  0  0  0  0  0  0
    2.4817   -0.7672   -0.0908 C   0  0  0  0  0  0  0  0  0  0  0  0
    2.4440    0.7274   -0.0688 C   0  0  0  0  0  0  0  0  0  0  0  0
    1.2226    2.9404    0.0526 C   0  0  0  0  0  0  0  0  0  0  0  0
   -2.3035    0.5561    0.5300 C   0  0  0  0  0  0  0  0  0  0  0  0
   -3.5425   -1.4435    0.0562 O   0  0  0  0  0  0  0  0  0  0  0  0
    3.5140   -1.3952   -0.1768 O   0  0  0  0  0  0  0  0  0  0  0  0
    3.9926    1.5037   -0.1688 Cl  0  0  0  0  0  0  0  0  0  0  0  0
   -5.0451   -0.6105   -0.1464 P   0  0  0  0  0  0  0  0  0  0  0  0
   -4.5061   -0.0227   -1.6005 O   0  0  0  0  0  0  0  0  0  0  0  0
   -5.6848   -2.0914   -0.5322 O   0  0  0  0  0  0  0  0  0  0  0  0
   -6.3900    0.1350   -0.3277 O   0  0  0  0  0  0  0  0  0  0  0  0
   -4.0806    1.3445   -1.6833 C   0  0  0  0  0  0  0  0  0  0  0  0
   -4.9200   -3.2474   -0.2154 C   0  0  0  0  0  0  0  0  0  0  0  0
   -4.8750    2.4482   -0.9229 C   0  0  0  0  0  0  0  0  0  0  0  0
   -4.0098   -3.6079   -1.4131 C   0  0  0  0  0  0  0  0  0  0  0  0
   -5.1733    2.3549    0.8575 Cl  0  0  0  0  0  0  0  0  0  0  0  0
   -3.0378   -2.4467   -2.3873 Cl  0  0  0  0  0  0  0  0  0  0  0  0
   -1.0973   -2.5564    0.1669 H   0  0  0  0  0  0  0  0  0  0  0  0
   -1.2532    2.3921    0.4446 H   0  0  0  0  0  0  0  0  0  0  0  0
    0.6288    3.3024   -0.7961 H   0  0  0  0  0  0  0  0  0  0  0  0
    0.7586    3.2935    0.9810 H   0  0  0  0  0  0  0  0  0  0  0  0
    2.1935    3.4337   -0.0110 H   0  0  0  0  0  0  0  0  0  0  0  0
   -3.2066    1.0992    0.6580 H   0  0  0  0  0  0  0  0  0  0  0  0
   -3.0139    1.4113   -1.4756 H   0  0  0  0  0  0  0  0  0  0  0  0
   -4.0717    1.6118   -2.7486 H   0  0  0  0  0  0  0  0  0  0  0  0
   -4.4282   -3.1608    0.7754 H   0  0  0  0  0  0  0  0  0  0  0  0
   -5.6030   -4.0842   -0.0358 H   0  0  0  0  0  0  0  0  0  0  0  0
   -4.3056    3.3756   -0.9918 H   0  0  0  0  0  0  0  0  0  0  0  0
   -5.8510    2.5729   -1.3879 H   0  0  0  0  0  0  0  0  0  0  0  0
   -3.2956   -4.3625   -1.0965 H   0  0  0  0  0  0  0  0  0  0  0  0
   -4.6989   -3.9397   -2.1764 H   0  0  0  0  0  0  0  0  0  0  0  0
  1  2  2  0  0  0  0
  1  3  1  0  0  0  0
  1  4  1  0  0  0  0
  2  5  1  0  0  0  0
  2  6  1  0  0  0  0
  3  7  2  0  0  0  0
  3 25  1  0  0  0  0
  4  8  1  0  0  0  0
  5  9  2  0  0  0  0
  5 10  1  0  0  0  0
  6 11  2  0  0  0  0
  6 26  1  0  0  0  0
  7 12  1  0  0  0  0
  7 11  1  0  0  0  0
  8 13  2  0  0  0  0
  8  9  1  0  0  0  0
  9 14  1  0  0  0  0
 10 27  1  0  0  0  0
 10 28  1  0  0  0  0
 10 29  1  0  0  0  0
 11 30  1  0  0  0  0
 12 15  1  0  0  0  0
 15 16  1  0  0  0  0
 15 17  1  0  0  0  0
 15 18  2  0  0  0  0
 16 19  1  0  0  0  0
 17 20  1  0  0  0  0
 19 21  1  0  0  0  0
 19 31  1  0  0  0  0
 19 32  1  0  0  0  0
 20 22  1  0  0  0  0
 20 33  1  0  0  0  0
 20 34  1  0  0  0  0
 21 23  1  0  0  0  0
 21 35  1  0  0  0  0
 21 36  1  0  0  0  0
 22 24  1  0  0  0  0
 22 37  1  0  0  0  0
 22 38  1  0  0  0  0
M  END
>  <DRUGBANK_ID>
DB11419

>  <COMMON_NAME>
Haloxon

>  <CAS_NUMBER>
321-55-1

>  <UNII>
T8KXA37068

>  <SYNONYMS>
Haloxon; Haloxona; Haloxone; Haloxonum

$$$$
