
 OpenBabel10282417223D

 57 61  0  0  1  0  0  0  0  0999 V2000
    0.7624    1.6219   -0.1908 C   0  0  0  0  0  0  0  0  0  0  0  0
   -0.5150    1.1486    0.5615 N   0  3  2  0  0  0  0  0  0  0  0  0
   -0.8646   -0.2458    0.1053 C   0  0  0  0  0  0  0  0  0  0  0  0
   -1.2066   -0.3748   -1.3090 C   0  0  0  0  0  0  0  0  0  0  0  0
   -0.2528   -0.0973   -2.4513 C   0  0  0  0  0  0  0  0  0  0  0  0
   -1.3723    0.8647   -2.1529 C   0  0  0  0  0  0  0  0  0  0  0  0
   -1.4622    2.3455    0.3485 C   0  0  0  0  0  0  0  0  0  0  0  0
   -0.7195    3.5916    0.9019 C   0  0  0  0  0  0  0  0  0  0  0  0
   -0.8078    3.3450    2.3220 C   0  0  2  0  0  0  0  0  0  0  0  0
   -0.6383    4.5710    3.2964 C   0  0  0  0  0  0  0  0  0  0  0  0
   -0.2479    3.6849    4.4644 C   0  0  0  0  0  0  0  0  0  0  0  0
   -0.9928    3.2835    5.2628 O   0  0  0  0  0  0  0  0  0  0  0  0
    1.1264    3.0607    4.2037 C   0  0  0  0  0  0  0  0  0  0  0  0
    1.9298    2.5466    3.0270 C   0  0  0  0  0  0  0  0  0  0  0  0
    0.5453    1.8982    2.6345 C   0  0  2  0  0  0  0  0  0  0  0  0
    1.5546    0.7923    2.1796 O   0  0  0  0  0  0  0  0  0  0  0  0
   -0.3709    0.7899    2.1373 C   0  0  1  0  0  0  0  0  0  0  0  0
   -1.5726    0.8807    3.0635 C   0  0  0  0  0  0  0  0  0  0  0  0
   -2.7688    1.6725    2.8016 C   0  0  0  0  0  0  0  0  0  0  0  0
   -2.5942    3.0480    2.4756 C   0  0  0  0  0  0  0  0  0  0  0  0
   -3.8149    3.7340    2.1492 C   0  0  0  0  0  0  0  0  0  0  0  0
   -3.8206    5.0153    1.6649 O   0  0  0  0  0  0  0  0  0  0  0  0
   -5.0668    2.9997    2.2544 C   0  0  0  0  0  0  0  0  0  0  0  0
   -5.0810    1.6437    2.6617 C   0  0  0  0  0  0  0  0  0  0  0  0
   -3.9307    0.9845    2.9428 C   0  0  0  0  0  0  0  0  0  0  0  0
   -6.4728    3.4380    1.9925 C   0  0  0  0  0  0  0  0  0  0  0  0
   -6.7699    4.1093    0.8487 N   0  0  0  0  0  0  0  0  0  0  0  0
   -7.3779    3.0861    2.7479 O   0  0  0  0  0  0  0  0  0  0  0  0
    1.5649    1.9915    0.4338 H   0  0  0  0  0  0  0  0  0  0  0  0
    0.4711    2.4374   -0.8723 H   0  0  0  0  0  0  0  0  0  0  0  0
    1.1636    0.8420   -0.7833 H   0  0  0  0  0  0  0  0  0  0  0  0
   -0.0017   -0.8923    0.3670 H   0  0  0  0  0  0  0  0  0  0  0  0
   -1.6937   -0.6083    0.7387 H   0  0  0  0  0  0  0  0  0  0  0  0
   -1.8561   -1.2311   -1.4147 H   0  0  0  0  0  0  0  0  0  0  0  0
    0.8016    0.0821   -2.2800 H   0  0  0  0  0  0  0  0  0  0  0  0
   -0.3025   -0.6393   -3.3789 H   0  0  0  0  0  0  0  0  0  0  0  0
   -2.2674    0.9646   -2.7416 H   0  0  0  0  0  0  0  0  0  0  0  0
   -1.1404    1.8569   -1.8093 H   0  0  0  0  0  0  0  0  0  0  0  0
   -2.0921    2.8095   -0.4308 H   0  0  0  0  0  0  0  0  0  0  0  0
   -2.3629    1.7508    0.5077 H   0  0  0  0  0  0  0  0  0  0  0  0
   -0.8785    4.6450    0.6425 H   0  0  0  0  0  0  0  0  0  0  0  0
    0.3367    3.5846    0.6532 H   0  0  0  0  0  0  0  0  0  0  0  0
   -1.4526    5.1900    3.6717 H   0  0  0  0  0  0  0  0  0  0  0  0
    0.2028    5.2395    3.0343 H   0  0  0  0  0  0  0  0  0  0  0  0
    0.8166    2.0413    4.5684 H   0  0  0  0  0  0  0  0  0  0  0  0
    1.0241    3.6738    3.2957 H   0  0  0  0  0  0  0  0  0  0  0  0
    2.6482    3.1905    3.6174 H   0  0  0  0  0  0  0  0  0  0  0  0
    2.2692    3.1130    2.1081 H   0  0  0  0  0  0  0  0  0  0  0  0
    1.8619    0.2457    2.9678 H   0  0  0  0  0  0  0  0  0  0  0  0
   -0.1374   -0.2947    2.2916 H   0  0  0  0  0  0  0  0  0  0  0  0
   -1.3833    0.8286    4.1469 H   0  0  0  0  0  0  0  0  0  0  0  0
   -1.2255    1.8180    3.1987 H   0  0  0  0  0  0  0  0  0  0  0  0
   -4.2778    5.5982    2.3114 H   0  0  0  0  0  0  0  0  0  0  0  0
   -5.9897    1.0573    2.7647 H   0  0  0  0  0  0  0  0  0  0  0  0
   -3.8643   -0.0434    3.2715 H   0  0  0  0  0  0  0  0  0  0  0  0
   -7.7534    4.3033    0.6748 H   0  0  0  0  0  0  0  0  0  0  0  0
   -6.0978    4.3401    0.1359 H   0  0  0  0  0  0  0  0  0  0  0  0
  1 29  1  0  0  0  0
  1 30  1  0  0  0  0
  1 31  1  0  0  0  0
  2  7  1  0  0  0  0
  2  1  1  6  0  0  0
  2  3  1  0  0  0  0
  3  4  1  0  0  0  0
  3 32  1  0  0  0  0
  3 33  1  0  0  0  0
  4  5  1  0  0  0  0
  4  6  1  0  0  0  0
  4 34  1  0  0  0  0
  5  6  1  0  0  0  0
  5 35  1  0  0  0  0
  5 36  1  0  0  0  0
  6 37  1  0  0  0  0
  6 38  1  0  0  0  0
  7  8  1  0  0  0  0
  7 39  1  0  0  0  0
  7 40  1  0  0  0  0
  8 41  1  0  0  0  0
  8 42  1  0  0  0  0
  9  8  1  0  0  0  0
  9 10  1  0  0  0  0
  9 20  1  1  0  0  0
 10 11  1  0  0  0  0
 10 43  1  0  0  0  0
 10 44  1  0  0  0  0
 11 13  1  0  0  0  0
 11 12  2  0  0  0  0
 13 14  1  0  0  0  0
 13 45  1  0  0  0  0
 13 46  1  0  0  0  0
 14 47  1  0  0  0  0
 14 48  1  0  0  0  0
 15 14  1  0  0  0  0
 15  9  1  0  0  0  0
 15 17  1  0  0  0  0
 15 16  1  6  0  0  0
 16 49  1  0  0  0  0
 17  2  1  0  0  0  0
 17 18  1  0  0  0  0
 17 50  1  1  0  0  0
 18 19  1  0  0  0  0
 18 51  1  0  0  0  0
 18 52  1  0  0  0  0
 19 20  2  0  0  0  0
 19 25  1  0  0  0  0
 20 21  1  0  0  0  0
 21 23  2  0  0  0  0
 21 22  1  0  0  0  0
 22 53  1  0  0  0  0
 23 24  1  0  0  0  0
 23 26  1  0  0  0  0
 24 25  2  0  0  0  0
 24 54  1  0  0  0  0
 25 55  1  0  0  0  0
 26 27  1  0  0  0  0
 26 28  2  0  0  0  0
 27 56  1  0  0  0  0
 27 57  1  0  0  0  0
M  CHG  1   2   1
M  END
>  <DRUGBANK_ID>
DB15241

>  <COMMON_NAME>
Methylsamidorphan

>  <CAS_NUMBER>
1119361-12-4

>  <UNII>
8347HC35J6

>  <SYNONYMS>
Methylsamidorphan

$$$$
