
 OpenBabel10282417223D

 44 46  0  0  1  0  0  0  0  0999 V2000
   -1.3372    1.2569   -6.2951 C   0  0  0  0  0  0  0  0  0  0  0  0
   -0.0475    1.4290   -4.9537 O   0  0  0  0  0  0  0  0  0  0  0  0
   -0.1678    1.7261   -3.2205 C   0  0  0  0  0  0  0  0  0  0  0  0
   -0.8876    1.2695   -2.4008 O   0  0  0  0  0  0  0  0  0  0  0  0
    0.6197    2.9042   -2.6289 C   0  0  2  0  0  0  0  0  0  0  0  0
   -0.3443    4.0714   -2.2117 C   0  0  1  0  0  0  0  0  0  0  0  0
    0.4517    5.1858   -1.5034 C   0  0  0  0  0  0  0  0  0  0  0  0
    0.9993    6.0272   -2.6550 C   0  0  0  0  0  0  0  0  0  0  0  0
    0.4032    5.3668   -3.9302 C   0  0  1  0  0  0  0  0  0  0  0  0
    1.4556    4.3399   -4.4730 C   0  0  0  0  0  0  0  0  0  0  0  0
    1.8302    3.2114   -3.4381 C   0  0  2  0  0  0  0  0  0  0  0  0
    2.4648    1.8761   -3.9066 C   0  0  0  0  0  0  0  0  0  0  0  0
    3.4282    1.9076   -4.8880 C   0  0  0  0  0  0  0  0  0  0  0  0
    3.7404    0.7353   -5.5869 C   0  0  0  0  0  0  0  0  0  0  0  0
    3.1164   -0.4735   -5.2980 C   0  0  0  0  0  0  0  0  0  0  0  0
    3.2332   -1.5246   -6.1147 F   0  0  0  0  0  0  0  0  0  0  0  0
    2.3298   -0.5836   -4.1928 C   0  0  0  0  0  0  0  0  0  0  0  0
    2.0478    0.5672   -3.4808 C   0  0  0  0  0  0  0  0  0  0  0  0
   -0.8446    4.7729   -3.3861 N   0  0  0  0  0  0  0  0  0  0  0  0
   -1.8981    4.0541   -4.1596 C   0  0  0  0  0  0  0  0  0  0  0  0
   -1.7584    2.6050   -4.4691 C   0  0  0  0  0  0  0  0  0  0  0  0
   -2.1921    1.1625   -4.1997 C   0  0  0  0  0  0  0  0  0  0  0  0
   -1.0094   -1.1008   -4.7832 I   0  0  0  0  0  0  0  0  0  0  0  0
   -0.9462    1.2418   -7.2964 H   0  0  0  0  0  0  0  0  0  0  0  0
   -2.2574    1.9294   -6.2306 H   0  0  0  0  0  0  0  0  0  0  0  0
   -2.0335    0.3886   -6.1959 H   0  0  0  0  0  0  0  0  0  0  0  0
    0.9631    2.5073   -1.6499 H   0  0  0  0  0  0  0  0  0  0  0  0
   -1.1757    3.7741   -1.5602 H   0  0  0  0  0  0  0  0  0  0  0  0
    1.2468    4.7740   -0.8721 H   0  0  0  0  0  0  0  0  0  0  0  0
   -0.1813    5.8083   -0.8533 H   0  0  0  0  0  0  0  0  0  0  0  0
    2.0964    6.0219   -2.6493 H   0  0  0  0  0  0  0  0  0  0  0  0
    0.6792    7.0710   -2.5453 H   0  0  0  0  0  0  0  0  0  0  0  0
    0.2092    6.1451   -4.6782 H   0  0  0  0  0  0  0  0  0  0  0  0
    2.3878    4.8642   -4.7281 H   0  0  0  0  0  0  0  0  0  0  0  0
    1.0725    3.9852   -5.4330 H   0  0  0  0  0  0  0  0  0  0  0  0
    2.5601    3.6497   -2.7466 H   0  0  0  0  0  0  0  0  0  0  0  0
    3.8980    2.8496   -5.1411 H   0  0  0  0  0  0  0  0  0  0  0  0
    4.4524    0.7593   -6.3954 H   0  0  0  0  0  0  0  0  0  0  0  0
    1.7919   -1.5001   -3.9676 H   0  0  0  0  0  0  0  0  0  0  0  0
    1.2694    0.3455   -2.7468 H   0  0  0  0  0  0  0  0  0  0  0  0
   -2.8456    3.9891   -3.6597 H   0  0  0  0  0  0  0  0  0  0  0  0
   -1.9756    4.5677   -5.1390 H   0  0  0  0  0  0  0  0  0  0  0  0
   -0.8667    2.9588   -5.1455 H   0  0  0  0  0  0  0  0  0  0  0  0
   -2.8516    0.6576   -3.5371 H   0  0  0  0  0  0  0  0  0  0  0  0
  1  2  1  0  0  0  0
  1 24  1  0  0  0  0
  1 25  1  0  0  0  0
  1 26  1  0  0  0  0
  2  3  1  0  0  0  0
  3  4  2  0  0  0  0
  5  6  1  0  0  0  0
  5 11  1  0  0  0  0
  5 27  1  1  0  0  0
  5  3  1  0  0  0  0
  6  7  1  0  0  0  0
  6 19  1  0  0  0  0
  6 28  1  1  0  0  0
  7  8  1  0  0  0  0
  7 29  1  0  0  0  0
  7 30  1  0  0  0  0
  8 31  1  0  0  0  0
  8 32  1  0  0  0  0
  9  8  1  0  0  0  0
  9 10  1  0  0  0  0
  9 19  1  0  0  0  0
  9 33  1  6  0  0  0
 10 34  1  0  0  0  0
 10 35  1  0  0  0  0
 11 10  1  0  0  0  0
 11 12  1  0  0  0  0
 11 36  1  1  0  0  0
 12 13  2  0  0  0  0
 12 18  1  0  0  0  0
 13 14  1  0  0  0  0
 13 37  1  0  0  0  0
 14 15  2  0  0  0  0
 14 38  1  0  0  0  0
 15 16  1  0  0  0  0
 15 17  1  0  0  0  0
 17 18  2  0  0  0  0
 17 39  1  0  0  0  0
 18 40  1  0  0  0  0
 19 20  1  0  0  0  0
 20 21  1  0  0  0  0
 20 41  1  0  0  0  0
 20 42  1  0  0  0  0
 21 22  2  0  0  0  0
 21 43  1  0  0  0  0
 22 23  1  0  0  0  0
 22 44  1  0  0  0  0
M  ISO  1  23 123
M  END
>  <DRUGBANK_ID>
DB15144

>  <COMMON_NAME>
Altropane I-123

>  <CAS_NUMBER>
208517-65-1

>  <UNII>
D20OLL8HWU

$$$$
