
 OpenBabel10282417113D

 38 40  0  0  1  0  0  0  0  0999 V2000
    0.5022   -0.6101   -0.2866 C   0  0  2  0  0  0  0  0  0  0  0  0
    0.5130    0.8319   -0.1786 N   0  0  0  0  0  0  0  0  0  0  0  0
   -0.6688    1.5785   -0.0814 C   0  0  0  0  0  0  0  0  0  0  0  0
   -1.8755    0.9404    0.0038 C   0  0  0  0  0  0  0  0  0  0  0  0
   -2.0296   -0.5409    0.1181 C   0  0  0  0  0  0  0  0  0  0  0  0
   -0.6394   -1.1700    1.0344 S   0  0  0  0  0  0  0  0  0  0  0  0
    1.9786   -0.6465    0.1579 C   0  0  1  0  0  0  0  0  0  0  0  0
    1.7947    0.9055    0.2736 C   0  0  0  0  0  0  0  0  0  0  0  0
    2.2377   -1.4994    1.3728 N   0  0  0  0  0  0  0  0  0  0  0  0
    2.3001   -2.8881    1.4172 C   0  0  0  0  0  0  0  0  0  0  0  0
    2.2128   -3.4437    2.5184 O   0  0  0  0  0  0  0  0  0  0  0  0
    2.5154    1.8064    0.6604 O   0  0  0  0  0  0  0  0  0  0  0  0
    2.4711   -3.7338    0.1010 C   0  0  1  0  0  0  0  0  0  0  0  0
   -3.4658    1.6398    0.1635 Cl  0  0  0  0  0  0  0  0  0  0  0  0
   -0.5710    3.0702   -0.0293 C   0  0  0  0  0  0  0  0  0  0  0  0
    0.4476    3.7292   -0.1175 O   0  0  0  0  0  0  0  0  0  0  0  0
   -1.7611    3.6846    0.0735 O   0  0  0  0  0  0  0  0  0  0  0  0
    1.2583   -3.6945   -0.8324 C   0  0  0  0  0  0  0  0  0  0  0  0
   -0.0426   -3.7958   -0.3184 C   0  0  0  0  0  0  0  0  0  0  0  0
   -1.1577   -3.4782   -1.1127 C   0  0  0  0  0  0  0  0  0  0  0  0
   -0.9919   -3.0998   -2.4402 C   0  0  0  0  0  0  0  0  0  0  0  0
    0.2799   -3.1261   -2.9953 C   0  0  0  0  0  0  0  0  0  0  0  0
    1.3814   -3.4895   -2.2155 C   0  0  0  0  0  0  0  0  0  0  0  0
    3.7368   -3.3291   -0.5452 N   0  0  0  0  0  0  0  0  0  0  0  0
    0.3649   -0.9275   -1.3284 H   0  0  0  0  0  0  0  0  0  0  0  0
   -2.8727   -0.8500    0.7362 H   0  0  0  0  0  0  0  0  0  0  0  0
   -2.1725   -0.9683   -0.8813 H   0  0  0  0  0  0  0  0  0  0  0  0
    2.7062   -0.8602   -0.6238 H   0  0  0  0  0  0  0  0  0  0  0  0
    1.9652   -1.1247    2.2813 H   0  0  0  0  0  0  0  0  0  0  0  0
    2.5990   -4.7794    0.4071 H   0  0  0  0  0  0  0  0  0  0  0  0
   -1.6171    4.6483    0.0757 H   0  0  0  0  0  0  0  0  0  0  0  0
   -0.2004   -3.9477    0.7530 H   0  0  0  0  0  0  0  0  0  0  0  0
   -2.1364   -3.3739   -0.6434 H   0  0  0  0  0  0  0  0  0  0  0  0
   -1.8409   -2.7582   -3.0270 H   0  0  0  0  0  0  0  0  0  0  0  0
    0.4334   -2.8107   -4.0238 H   0  0  0  0  0  0  0  0  0  0  0  0
    2.3443   -3.5550   -2.7099 H   0  0  0  0  0  0  0  0  0  0  0  0
    3.8767   -3.8764   -1.3877 H   0  0  0  0  0  0  0  0  0  0  0  0
    3.6947   -2.3619   -0.8374 H   0  0  0  0  0  0  0  0  0  0  0  0
  1  2  1  0  0  0  0
  1  6  1  0  0  0  0
  1  7  1  0  0  0  0
  1 25  1  6  0  0  0
  2  3  1  0  0  0  0
  2  8  1  0  0  0  0
  3  4  2  0  0  0  0
  3 15  1  0  0  0  0
  4  5  1  0  0  0  0
  4 14  1  0  0  0  0
  5  6  1  0  0  0  0
  5 26  1  0  0  0  0
  5 27  1  0  0  0  0
  7  8  1  0  0  0  0
  7 28  1  6  0  0  0
  7  9  1  0  0  0  0
  8 12  2  0  0  0  0
  9 10  1  0  0  0  0
  9 29  1  0  0  0  0
 10 11  2  0  0  0  0
 10 13  1  0  0  0  0
 13 18  1  0  0  0  0
 13 24  1  0  0  0  0
 13 30  1  1  0  0  0
 15 16  2  0  0  0  0
 15 17  1  0  0  0  0
 17 31  1  0  0  0  0
 18 19  2  0  0  0  0
 18 23  1  0  0  0  0
 19 20  1  0  0  0  0
 19 32  1  0  0  0  0
 20 21  2  0  0  0  0
 20 33  1  0  0  0  0
 21 22  1  0  0  0  0
 21 34  1  0  0  0  0
 22 23  2  0  0  0  0
 22 35  1  0  0  0  0
 23 36  1  0  0  0  0
 24 37  1  0  0  0  0
 24 38  1  0  0  0  0
M  END
>  <DRUGBANK_ID>
DB00833

>  <SECONDARY_ACCESSION_NUMBERS>
APRD00243

>  <COMMON_NAME>
Cefaclor

>  <CAS_NUMBER>
53994-73-3

>  <UNII>
3Z6FS3IK0K

>  <SYNONYMS>
3-Chloro-7-D-(2-phenylglycinamido)-3-cephem-4-carboxylic acid; CCL; Céfaclor; Cefaclor; Cefaclor anhydrous; Cefaclorum; Céfeaclor; Cephaclor

$$$$
