
 OpenBabel10282417193D

 67 70  0  0  1  0  0  0  0  0999 V2000
    0.8478    0.0566   -0.3383 C   0  0  0  0  0  0  0  0  0  0  0  0
    0.3036   -1.0225    0.6268 C   0  0  0  0  0  0  0  0  0  0  0  0
    0.5790   -0.3223    1.9153 C   0  0  0  0  0  0  0  0  0  0  0  0
   -1.2216   -1.0978    0.6593 C   0  0  0  0  0  0  0  0  0  0  0  0
    1.2091   -2.3312    0.3360 C   0  0  0  0  0  0  0  0  0  0  0  0
    1.8064   -2.4197   -0.7475 O   0  0  0  0  0  0  0  0  0  0  0  0
    1.3539   -3.5585    1.2773 C   0  0  0  0  0  0  0  0  0  0  0  0
    1.9704   -3.5170    2.7939 N   0  0  0  0  0  0  0  0  0  0  0  0
    2.1164   -2.2922    3.5946 C   0  0  0  0  0  0  0  0  0  0  0  0
    2.9010   -1.3168    2.9869 C   0  0  0  0  0  0  0  0  0  0  0  0
    2.8743    0.0169    3.4628 C   0  0  0  0  0  0  0  0  0  0  0  0
    2.0660    0.3909    4.5351 C   0  0  0  0  0  0  0  0  0  0  0  0
    1.4186   -0.5824    5.2682 C   0  0  0  0  0  0  0  0  0  0  0  0
    1.4593   -1.9249    4.8594 C   0  0  0  0  0  0  0  0  0  0  0  0
    0.7731   -2.8179    5.8458 C   0  0  0  0  0  0  0  0  0  0  0  0
    1.1322   -4.0572    5.8803 N   0  0  0  0  0  0  0  0  0  0  0  0
    2.1329   -4.7102    5.0413 C   0  0  2  0  0  0  0  0  0  0  0  0
    2.1417   -4.7216    3.4644 C   0  0  0  0  0  0  0  0  0  0  0  0
    2.3429   -5.7552    2.8059 O   0  0  0  0  0  0  0  0  0  0  0  0
    1.9676   -6.0923    5.3910 N   0  0  0  0  0  0  0  0  0  0  0  0
    0.8690   -6.8762    5.3186 C   0  0  0  0  0  0  0  0  0  0  0  0
    1.0711   -8.0889    5.5743 O   0  0  0  0  0  0  0  0  0  0  0  0
   -0.4396   -6.4610    5.1138 N   0  0  0  0  0  0  0  0  0  0  0  0
   -1.0390   -5.2812    4.5520 C   0  0  0  0  0  0  0  0  0  0  0  0
   -0.5608   -4.8492    3.3791 C   0  0  0  0  0  0  0  0  0  0  0  0
   -0.6931   -3.5122    3.1041 C   0  0  0  0  0  0  0  0  0  0  0  0
   -1.4519   -2.6309    3.7786 C   0  0  0  0  0  0  0  0  0  0  0  0
   -2.3707   -3.1365    4.5699 C   0  0  0  0  0  0  0  0  0  0  0  0
   -2.1662   -4.5132    5.0109 C   0  0  0  0  0  0  0  0  0  0  0  0
   -3.4055   -2.2065    4.8353 N   0  0  0  0  0  0  0  0  0  0  0  0
   -3.1195   -0.6812    4.6760 C   0  0  0  0  0  0  0  0  0  0  0  0
   -0.3394   -2.3167    6.9359 C   0  0  0  0  0  0  0  0  0  0  0  0
   -0.3276   -2.6548    8.2748 C   0  0  0  0  0  0  0  0  0  0  0  0
   -1.4669   -2.4308    9.1206 C   0  0  0  0  0  0  0  0  0  0  0  0
   -2.6396   -1.9078    8.6448 C   0  0  0  0  0  0  0  0  0  0  0  0
   -2.5089   -1.4433    7.3898 C   0  0  0  0  0  0  0  0  0  0  0  0
   -1.3910   -1.5661    6.5533 N   0  0  0  0  0  0  0  0  0  0  0  0
    0.5559    1.0640   -0.0117 H   0  0  0  0  0  0  0  0  0  0  0  0
    0.5409   -0.1037   -1.3650 H   0  0  0  0  0  0  0  0  0  0  0  0
    1.9521    0.0490   -0.3008 H   0  0  0  0  0  0  0  0  0  0  0  0
    0.0423    0.5993    2.1558 H   0  0  0  0  0  0  0  0  0  0  0  0
    0.4203   -0.9620    2.7567 H   0  0  0  0  0  0  0  0  0  0  0  0
    1.5876    0.0094    1.7709 H   0  0  0  0  0  0  0  0  0  0  0  0
   -1.6721   -1.2863   -0.3064 H   0  0  0  0  0  0  0  0  0  0  0  0
   -1.5942   -1.8538    1.3466 H   0  0  0  0  0  0  0  0  0  0  0  0
   -1.6371   -0.1522    1.0547 H   0  0  0  0  0  0  0  0  0  0  0  0
    0.3107   -3.9602    1.2139 H   0  0  0  0  0  0  0  0  0  0  0  0
    1.7285   -4.4537    0.7473 H   0  0  0  0  0  0  0  0  0  0  0  0
    3.2900   -1.5168    1.9851 H   0  0  0  0  0  0  0  0  0  0  0  0
    3.1878    0.8132    2.7821 H   0  0  0  0  0  0  0  0  0  0  0  0
    1.8355    1.4376    4.7224 H   0  0  0  0  0  0  0  0  0  0  0  0
    0.8120   -0.2611    6.1104 H   0  0  0  0  0  0  0  0  0  0  0  0
    3.1353   -4.3649    5.3292 H   0  0  0  0  0  0  0  0  0  0  0  0
    2.8337   -6.5841    5.5640 H   0  0  0  0  0  0  0  0  0  0  0  0
   -1.0623   -7.2491    5.1898 H   0  0  0  0  0  0  0  0  0  0  0  0
    0.0699   -5.4944    2.7741 H   0  0  0  0  0  0  0  0  0  0  0  0
   -0.1395   -2.8980    2.4626 H   0  0  0  0  0  0  0  0  0  0  0  0
   -1.2615   -1.6015    3.5649 H   0  0  0  0  0  0  0  0  0  0  0  0
   -2.8062   -4.9500    5.7564 H   0  0  0  0  0  0  0  0  0  0  0  0
   -3.7381   -2.4841    5.7466 H   0  0  0  0  0  0  0  0  0  0  0  0
   -4.0330   -0.1665    4.4024 H   0  0  0  0  0  0  0  0  0  0  0  0
   -2.7761   -0.1254    5.5596 H   0  0  0  0  0  0  0  0  0  0  0  0
   -2.3375   -0.3404    3.9864 H   0  0  0  0  0  0  0  0  0  0  0  0
    0.5804   -3.0458    8.7007 H   0  0  0  0  0  0  0  0  0  0  0  0
   -1.4389   -2.6670   10.1747 H   0  0  0  0  0  0  0  0  0  0  0  0
   -3.5828   -1.7859    9.1720 H   0  0  0  0  0  0  0  0  0  0  0  0
   -3.4301   -0.9964    7.0024 H   0  0  0  0  0  0  0  0  0  0  0  0
  1  2  1  0  0  0  0
  1 38  1  0  0  0  0
  1 39  1  0  0  0  0
  1 40  1  0  0  0  0
  2  3  1  0  0  0  0
  2  4  1  0  0  0  0
  2  5  1  0  0  0  0
  3 41  1  0  0  0  0
  3 42  1  0  0  0  0
  3 43  1  0  0  0  0
  4 44  1  0  0  0  0
  4 45  1  0  0  0  0
  4 46  1  0  0  0  0
  5  6  2  0  0  0  0
  5  7  1  0  0  0  0
  7  8  1  0  0  0  0
  7 47  1  0  0  0  0
  7 48  1  0  0  0  0
  8  9  1  0  0  0  0
  8 18  1  0  0  0  0
  9 10  2  0  0  0  0
  9 14  1  0  0  0  0
 10 11  1  0  0  0  0
 10 49  1  0  0  0  0
 11 12  2  0  0  0  0
 11 50  1  0  0  0  0
 12 13  1  0  0  0  0
 12 51  1  0  0  0  0
 13 14  2  0  0  0  0
 13 52  1  0  0  0  0
 14 15  1  0  0  0  0
 15 16  2  0  0  0  0
 15 32  1  0  0  0  0
 16 17  1  0  0  0  0
 17 18  1  0  0  0  0
 17 53  1  1  0  0  0
 17 20  1  0  0  0  0
 18 19  2  0  0  0  0
 20 21  1  0  0  0  0
 20 54  1  0  0  0  0
 21 22  2  0  0  0  0
 21 23  1  0  0  0  0
 23 24  1  0  0  0  0
 23 55  1  0  0  0  0
 24 25  2  0  0  0  0
 24 29  1  0  0  0  0
 25 26  1  0  0  0  0
 25 56  1  0  0  0  0
 26 27  2  0  0  0  0
 26 57  1  0  0  0  0
 27 28  1  0  0  0  0
 27 58  1  0  0  0  0
 28 29  2  0  0  0  0
 28 30  1  0  0  0  0
 29 59  1  0  0  0  0
 30 31  1  0  0  0  0
 30 60  1  0  0  0  0
 31 61  1  0  0  0  0
 31 62  1  0  0  0  0
 31 63  1  0  0  0  0
 32 33  2  0  0  0  0
 32 37  1  0  0  0  0
 33 34  1  0  0  0  0
 33 64  1  0  0  0  0
 34 35  2  0  0  0  0
 34 65  1  0  0  0  0
 35 36  1  0  0  0  0
 35 66  1  0  0  0  0
 36 37  2  0  0  0  0
 36 67  1  0  0  0  0
M  END
>  <DRUGBANK_ID>
DB12355

>  <COMMON_NAME>
Netazepide

>  <CAS_NUMBER>
155488-25-8

>  <UNII>
HOU4I0G29C

>  <SYNONYMS>
Netazepide

$$$$
