
 OpenBabel10282417133D

 18 19  0  0  0  0  0  0  0  0999 V2000
   -2.1031   -0.7289   -0.0030 N   0  0  0  0  0  0  0  0  0  0  0  0
   -2.0712    0.5715   -0.0023 C   0  0  0  0  0  0  0  0  0  0  0  0
    0.2964   -0.7507   -0.0006 C   0  0  0  0  0  0  0  0  0  0  0  0
    0.2696    0.7161    0.0004 C   0  0  0  0  0  0  0  0  0  0  0  0
   -0.8864   -1.4059   -0.0006 C   0  0  0  0  0  0  0  0  0  0  0  0
   -0.9398    1.3559    0.0006 N   0  0  0  0  0  0  0  0  0  0  0  0
    1.6035   -1.1538   -0.0001 N   0  0  0  0  0  0  0  0  0  0  0  0
   -0.9114   -2.7726    0.0025 N   0  0  0  0  0  0  0  0  0  0  0  0
    2.2490   -0.0219    0.0007 C   0  0  0  0  0  0  0  0  0  0  0  0
    1.4963    1.1468    0.0014 N   0  0  0  0  0  0  0  0  0  0  0  0
   -0.9986    2.8024    0.0074 C   0  0  0  0  0  0  0  0  0  0  0  0
   -3.0164    1.1391   -0.0047 H   0  0  0  0  0  0  0  0  0  0  0  0
   -0.0396   -3.2858   -0.0044 H   0  0  0  0  0  0  0  0  0  0  0  0
   -1.8128   -3.2268   -0.0047 H   0  0  0  0  0  0  0  0  0  0  0  0
    3.3495    0.0320    0.0006 H   0  0  0  0  0  0  0  0  0  0  0  0
   -0.5046    3.2030    0.8991 H   0  0  0  0  0  0  0  0  0  0  0  0
   -0.5016    3.2116   -0.8787 H   0  0  0  0  0  0  0  0  0  0  0  0
   -2.0304    3.1702    0.0076 H   0  0  0  0  0  0  0  0  0  0  0  0
  1  2  2  0  0  0  0
  2 12  1  0  0  0  0
  3  7  1  0  0  0  0
  3  4  1  0  0  0  0
  3  5  2  0  0  0  0
  4 10  2  0  0  0  0
  4  6  1  0  0  0  0
  5  1  1  0  0  0  0
  5  8  1  0  0  0  0
  6  2  1  0  0  0  0
  6 11  1  0  0  0  0
  7  9  2  0  0  0  0
  8 13  1  0  0  0  0
  8 14  1  0  0  0  0
  9 15  1  0  0  0  0
 10  9  1  0  0  0  0
 11 16  1  0  0  0  0
 11 17  1  0  0  0  0
 11 18  1  0  0  0  0
M  END
>  <DRUGBANK_ID>
DB04104

>  <SECONDARY_ACCESSION_NUMBERS>
EXPT00431

>  <COMMON_NAME>
3-Methyladenine

>  <CAS_NUMBER>
5142-23-4

>  <UNII>
DR88TV7SNU

>  <SYNONYMS>
3-methyl-3H-adenine; 3-methyladenine; 6-amino-3-methylpurine

$$$$
