
 OpenBabel10282417143D

 81 85  0  0  1  0  0  0  0  0999 V2000
    1.0063    0.1205    0.0420 O   0  0  0  0  0  0  0  0  0  0  0  0
    2.2313    0.1141    0.0260 C   0  0  0  0  0  0  0  0  0  0  0  0
    2.9768    1.2640   -0.0530 N   0  0  0  0  0  0  0  0  0  0  0  0
    4.3515    1.3031   -0.0811 C   0  0  0  0  0  0  0  0  0  0  0  0
    5.0447    0.1492    0.0129 C   0  0  0  0  0  0  0  0  0  0  0  0
    4.3320   -1.1168    0.0856 C   0  0  0  0  0  0  0  0  0  0  0  0
    2.9939   -1.1551    0.0841 C   0  0  0  0  0  0  0  0  0  0  0  0
    6.5522    0.1055    0.0540 C   0  0  1  0  0  0  0  0  0  0  0  0
    7.1611    1.4384   -0.4473 C   0  0  0  0  0  0  0  0  0  0  0  0
    6.4712    2.6868    0.1351 C   0  0  0  0  0  0  0  0  0  0  0  0
    4.9850    2.6720   -0.1806 C   0  0  0  0  0  0  0  0  0  0  0  0
    6.9996   -0.2886    1.4042 N   0  0  0  0  0  0  0  0  0  0  0  0
    6.8823    0.8196    2.3450 C   0  0  0  0  0  0  0  0  0  0  0  0
    7.3644    0.5584    3.7422 C   0  0  0  0  0  0  0  0  0  0  0  0
    8.8383    0.1664    3.6908 C   0  0  0  0  0  0  0  0  0  0  0  0
    9.7207    1.2730    3.0710 C   0  0  0  0  0  0  0  0  0  0  0  0
    9.6150    2.5726    3.8772 C   0  0  0  0  0  0  0  0  0  0  0  0
   10.0508    2.3166    5.3216 C   0  0  0  0  0  0  0  0  0  0  0  0
   11.4973    1.8065    5.3556 C   0  0  0  0  0  0  0  0  0  0  0  0
   12.4546    2.8485    4.7691 C   0  0  0  0  0  0  0  0  0  0  0  0
   12.4103    4.1492    5.5757 C   0  0  0  0  0  0  0  0  0  0  0  0
   12.7423    3.9403    7.0574 C   0  0  0  0  0  0  0  0  0  0  0  0
   14.0772    3.4180    7.2554 N   0  0  0  0  0  0  0  0  0  0  0  0
   15.0292    4.2122    7.9237 C   0  0  0  0  0  0  0  0  0  0  0  0
   16.2818    4.4372    7.2457 C   0  0  0  0  0  0  0  0  0  0  0  0
   16.6193    3.9438    5.8371 C   0  0  0  0  0  0  0  0  0  0  0  0
   17.8125    4.6775    5.1860 C   0  0  0  0  0  0  0  0  0  0  0  0
   18.9802    4.7082    6.1596 C   0  0  0  0  0  0  0  0  0  0  0  0
   18.5785    5.5532    7.3595 C   0  0  0  0  0  0  0  0  0  0  0  0
   17.2352    5.1734    7.9409 C   0  0  0  0  0  0  0  0  0  0  0  0
   17.0122    5.6350    9.1879 N   0  0  0  0  0  0  0  0  0  0  0  0
   15.8359    5.4143    9.8081 C   0  0  0  0  0  0  0  0  0  0  0  0
   15.7483    5.7340   11.1412 C   0  0  0  0  0  0  0  0  0  0  0  0
   14.6483    5.3545   11.9438 C   0  0  0  0  0  0  0  0  0  0  0  0
   13.3796    5.6605   11.4702 C   0  0  0  0  0  0  0  0  0  0  0  0
   13.4995    4.9865   10.2552 C   0  0  0  0  0  0  0  0  0  0  0  0
   14.7087    4.8352    9.2675 C   0  0  0  0  0  0  0  0  0  0  0  0
    2.4471    2.1253   -0.0723 H   0  0  0  0  0  0  0  0  0  0  0  0
    4.9106   -2.0347    0.1470 H   0  0  0  0  0  0  0  0  0  0  0  0
    2.4290   -2.0752    0.1327 H   0  0  0  0  0  0  0  0  0  0  0  0
    6.8968   -0.6880   -0.6254 H   0  0  0  0  0  0  0  0  0  0  0  0
    7.0434    1.4769   -1.5385 H   0  0  0  0  0  0  0  0  0  0  0  0
    8.2422    1.4520   -0.2609 H   0  0  0  0  0  0  0  0  0  0  0  0
    6.5125    2.8045    1.2164 H   0  0  0  0  0  0  0  0  0  0  0  0
    6.9825    3.5934   -0.1980 H   0  0  0  0  0  0  0  0  0  0  0  0
    4.4876    3.3589    0.5163 H   0  0  0  0  0  0  0  0  0  0  0  0
    4.8516    3.0608   -1.1928 H   0  0  0  0  0  0  0  0  0  0  0  0
    7.9744   -0.5777    1.3388 H   0  0  0  0  0  0  0  0  0  0  0  0
    7.5475    1.6048    2.0009 H   0  0  0  0  0  0  0  0  0  0  0  0
    5.8607    1.2019    2.4015 H   0  0  0  0  0  0  0  0  0  0  0  0
    7.2226    1.4851    4.3178 H   0  0  0  0  0  0  0  0  0  0  0  0
    6.7407   -0.1945    4.2232 H   0  0  0  0  0  0  0  0  0  0  0  0
    9.1620   -0.0847    4.7027 H   0  0  0  0  0  0  0  0  0  0  0  0
    8.9673   -0.7548    3.1185 H   0  0  0  0  0  0  0  0  0  0  0  0
   10.7524    0.9143    3.0134 H   0  0  0  0  0  0  0  0  0  0  0  0
    9.4871    1.4779    2.0213 H   0  0  0  0  0  0  0  0  0  0  0  0
   10.2182    3.3550    3.4043 H   0  0  0  0  0  0  0  0  0  0  0  0
    8.6011    2.9852    3.8595 H   0  0  0  0  0  0  0  0  0  0  0  0
    9.9206    3.2251    5.9157 H   0  0  0  0  0  0  0  0  0  0  0  0
    9.3943    1.5934    5.8151 H   0  0  0  0  0  0  0  0  0  0  0  0
   11.7701    1.5390    6.3787 H   0  0  0  0  0  0  0  0  0  0  0  0
   11.6073    0.8631    4.8113 H   0  0  0  0  0  0  0  0  0  0  0  0
   13.4686    2.4427    4.7330 H   0  0  0  0  0  0  0  0  0  0  0  0
   12.2115    3.0606    3.7200 H   0  0  0  0  0  0  0  0  0  0  0  0
   13.0715    4.8887    5.1142 H   0  0  0  0  0  0  0  0  0  0  0  0
   11.4067    4.5918    5.5123 H   0  0  0  0  0  0  0  0  0  0  0  0
   12.5947    4.8891    7.5728 H   0  0  0  0  0  0  0  0  0  0  0  0
   12.0506    3.2294    7.5170 H   0  0  0  0  0  0  0  0  0  0  0  0
   14.4215    2.7397    6.5798 H   0  0  0  0  0  0  0  0  0  0  0  0
   15.7623    4.0631    5.1643 H   0  0  0  0  0  0  0  0  0  0  0  0
   16.8659    2.8741    5.8769 H   0  0  0  0  0  0  0  0  0  0  0  0
   17.5268    5.7059    4.9244 H   0  0  0  0  0  0  0  0  0  0  0  0
   18.1140    4.1884    4.2514 H   0  0  0  0  0  0  0  0  0  0  0  0
   19.2263    3.6886    6.4816 H   0  0  0  0  0  0  0  0  0  0  0  0
   19.8799    5.1222    5.6876 H   0  0  0  0  0  0  0  0  0  0  0  0
   19.3509    5.4671    8.1326 H   0  0  0  0  0  0  0  0  0  0  0  0
   18.5408    6.6100    7.0604 H   0  0  0  0  0  0  0  0  0  0  0  0
   16.4615    6.4577   11.5255 H   0  0  0  0  0  0  0  0  0  0  0  0
   14.5598    4.2551   12.1685 H   0  0  0  0  0  0  0  0  0  0  0  0
   13.3836    6.2350   12.4070 H   0  0  0  0  0  0  0  0  0  0  0  0
   12.6151    4.3931   10.0047 H   0  0  0  0  0  0  0  0  0  0  0  0
  1  2  2  0  0  0  0
  2  3  1  0  0  0  0
  2  7  1  0  0  0  0
  3  4  1  0  0  0  0
  3 38  1  0  0  0  0
  4  5  2  0  0  0  0
  4 11  1  0  0  0  0
  5  6  1  0  0  0  0
  5  8  1  0  0  0  0
  6  7  2  0  0  0  0
  6 39  1  0  0  0  0
  7 40  1  0  0  0  0
  8  9  1  0  0  0  0
  8 41  1  6  0  0  0
  8 12  1  0  0  0  0
  9 10  1  0  0  0  0
  9 42  1  0  0  0  0
  9 43  1  0  0  0  0
 10 11  1  0  0  0  0
 10 44  1  0  0  0  0
 10 45  1  0  0  0  0
 11 46  1  0  0  0  0
 11 47  1  0  0  0  0
 12 13  1  0  0  0  0
 12 48  1  0  0  0  0
 13 14  1  0  0  0  0
 13 49  1  0  0  0  0
 13 50  1  0  0  0  0
 14 15  1  0  0  0  0
 14 51  1  0  0  0  0
 14 52  1  0  0  0  0
 15 16  1  0  0  0  0
 15 53  1  0  0  0  0
 15 54  1  0  0  0  0
 16 17  1  0  0  0  0
 16 55  1  0  0  0  0
 16 56  1  0  0  0  0
 17 18  1  0  0  0  0
 17 57  1  0  0  0  0
 17 58  1  0  0  0  0
 18 19  1  0  0  0  0
 18 59  1  0  0  0  0
 18 60  1  0  0  0  0
 19 20  1  0  0  0  0
 19 61  1  0  0  0  0
 19 62  1  0  0  0  0
 20 21  1  0  0  0  0
 20 63  1  0  0  0  0
 20 64  1  0  0  0  0
 21 22  1  0  0  0  0
 21 65  1  0  0  0  0
 21 66  1  0  0  0  0
 22 23  1  0  0  0  0
 22 67  1  0  0  0  0
 22 68  1  0  0  0  0
 23 24  1  0  0  0  0
 23 69  1  0  0  0  0
 24 25  2  0  0  0  0
 24 37  1  0  0  0  0
 25 26  1  0  0  0  0
 25 30  1  0  0  0  0
 26 27  1  0  0  0  0
 26 70  1  0  0  0  0
 26 71  1  0  0  0  0
 27 28  1  0  0  0  0
 27 72  1  0  0  0  0
 27 73  1  0  0  0  0
 28 29  1  0  0  0  0
 28 74  1  0  0  0  0
 28 75  1  0  0  0  0
 29 30  1  0  0  0  0
 29 76  1  0  0  0  0
 29 77  1  0  0  0  0
 30 31  2  0  0  0  0
 31 32  1  0  0  0  0
 32 33  2  0  0  0  0
 32 37  1  0  0  0  0
 33 34  1  0  0  0  0
 33 78  1  0  0  0  0
 34 35  2  0  0  0  0
 34 79  1  0  0  0  0
 35 36  1  0  0  0  0
 35 80  1  0  0  0  0
 36 37  2  0  0  0  0
 36 81  1  0  0  0  0
M  END
>  <DRUGBANK_ID>
DB04614

>  <COMMON_NAME>
(R)-tacrine(10)-hupyridone

$$$$
