1333
 OpenBabel10282417113D

 43 45  0  0  1  0  0  0  0  0999 V2000
   -3.1282   -0.3988   -6.6493 S   0  0  0  0  0  0  0  0  0  0  0  0
   -1.5965   -1.5914   -2.8316 O   0  0  0  0  0  0  0  0  0  0  0  0
   -2.4584    3.5026   -2.9453 O   0  0  0  0  0  0  0  0  0  0  0  0
   -2.8347   -4.2413   -2.8442 O   0  0  0  0  0  0  0  0  0  0  0  0
   -2.8298   -5.4776   -4.6695 O   0  0  0  0  0  0  0  0  0  0  0  0
   -3.2301   -1.8507   -4.4540 N   0  0  0  0  0  0  0  0  0  0  0  0
   -2.7351    1.4566   -3.8120 N   0  0  0  0  0  0  0  0  0  0  0  0
   -3.8392    2.7888   -0.4855 N   0  0  0  0  0  0  0  0  0  0  0  0
   -3.8435   -0.6640   -5.0594 C   0  0  1  0  0  0  0  0  0  0  0  0
   -3.3217    0.1200   -3.8881 C   0  0  1  0  0  0  0  0  0  0  0  0
   -2.4571   -1.1760   -3.5934 C   0  0  0  0  0  0  0  0  0  0  0  0
   -3.2702   -3.1041   -4.9951 C   0  0  0  0  0  0  0  0  0  0  0  0
   -3.8323   -1.9642   -7.2157 C   0  0  0  0  0  0  0  0  0  0  0  0
   -3.6250   -3.1749   -6.3032 C   0  0  0  0  0  0  0  0  0  0  0  0
   -3.0870    2.4375   -2.8930 C   0  0  0  0  0  0  0  0  0  0  0  0
   -4.2739    2.2496   -1.7930 C   0  0  1  0  0  0  0  0  0  0  0  0
   -3.8210   -4.4342   -7.1022 C   0  0  0  0  0  0  0  0  0  0  0  0
   -2.9327   -4.3597   -4.1844 C   0  0  0  0  0  0  0  0  0  0  0  0
   -4.8119    0.8615   -1.5001 C   0  0  0  0  0  0  0  0  0  0  0  0
   -6.2773    0.6046   -1.8111 C   0  0  0  0  0  0  0  0  0  0  0  0
   -3.9642   -0.1484   -1.1927 C   0  0  0  0  0  0  0  0  0  0  0  0
   -4.3440   -1.5971   -1.2852 C   0  0  0  0  0  0  0  0  0  0  0  0
   -6.6274   -0.8595   -1.9171 C   0  0  0  0  0  0  0  0  0  0  0  0
   -5.7528   -1.8469   -1.6847 C   0  0  0  0  0  0  0  0  0  0  0  0
   -4.9482   -0.7085   -5.0388 H   0  0  0  0  0  0  0  0  0  0  0  0
   -2.5812   -3.3683   -2.5018 H   0  0  0  0  0  0  0  0  0  0  0  0
   -1.9140    1.6971   -4.3607 H   0  0  0  0  0  0  0  0  0  0  0  0
   -2.8863    3.1418   -0.5754 H   0  0  0  0  0  0  0  0  0  0  0  0
   -3.7853    2.0217    0.1859 H   0  0  0  0  0  0  0  0  0  0  0  0
   -4.2806    0.2176   -3.4227 H   0  0  0  0  0  0  0  0  0  0  0  0
   -3.3287   -2.1368   -8.1648 H   0  0  0  0  0  0  0  0  0  0  0  0
   -4.9059   -1.8300   -7.3887 H   0  0  0  0  0  0  0  0  0  0  0  0
   -5.0860    2.8962   -2.1559 H   0  0  0  0  0  0  0  0  0  0  0  0
   -4.8355   -4.4417   -7.5115 H   0  0  0  0  0  0  0  0  0  0  0  0
   -3.0999   -4.4472   -7.9243 H   0  0  0  0  0  0  0  0  0  0  0  0
   -3.7124   -5.3717   -6.5698 H   0  0  0  0  0  0  0  0  0  0  0  0
   -6.8927    1.0630   -1.0337 H   0  0  0  0  0  0  0  0  0  0  0  0
   -6.5368    1.0715   -2.7718 H   0  0  0  0  0  0  0  0  0  0  0  0
   -2.8962    0.0743   -1.1175 H   0  0  0  0  0  0  0  0  0  0  0  0
   -3.8254   -2.0526   -2.1091 H   0  0  0  0  0  0  0  0  0  0  0  0
   -3.9915   -2.1479   -0.4181 H   0  0  0  0  0  0  0  0  0  0  0  0
   -7.6422   -1.1201   -2.2021 H   0  0  0  0  0  0  0  0  0  0  0  0
   -6.0269   -2.8855   -1.8563 H   0  0  0  0  0  0  0  0  0  0  0  0
  1  9  1  0  0  0  0
  1 13  1  0  0  0  0
  2 11  2  0  0  0  0
  3 15  2  0  0  0  0
  4 18  1  0  0  0  0
  4 26  1  0  0  0  0
  5 18  2  0  0  0  0
  6  9  1  0  0  0  0
  6 11  1  0  0  0  0
  6 12  1  0  0  0  0
  7 15  1  0  0  0  0
  7 27  1  0  0  0  0
  8 28  1  0  0  0  0
  8 29  1  0  0  0  0
  9 10  1  0  0  0  0
  9 25  1  6  0  0  0
 10  7  1  0  0  0  0
 10 11  1  0  0  0  0
 10 30  1  1  0  0  0
 12 14  2  0  0  0  0
 12 18  1  0  0  0  0
 13 14  1  0  0  0  0
 13 31  1  0  0  0  0
 13 32  1  0  0  0  0
 14 17  1  0  0  0  0
 16 19  1  0  0  0  0
 16 33  1  6  0  0  0
 16 15  1  0  0  0  0
 16  8  1  0  0  0  0
 17 34  1  0  0  0  0
 17 35  1  0  0  0  0
 17 36  1  0  0  0  0
 19 20  1  0  0  0  0
 19 21  2  0  0  0  0
 20 23  1  0  0  0  0
 20 37  1  0  0  0  0
 20 38  1  0  0  0  0
 21 22  1  0  0  0  0
 21 39  1  0  0  0  0
 22 24  1  0  0  0  0
 22 40  1  0  0  0  0
 22 41  1  0  0  0  0
 23 24  2  0  0  0  0
 23 42  1  0  0  0  0
 24 43  1  0  0  0  0
M  END
>  <DRUGBANK_ID>
DB01333

>  <COMMON_NAME>
Cefradine

>  <CAS_NUMBER>
38821-53-3

>  <UNII>
9YA6SX5S4D

>  <SYNONYMS>
(6R,7R)-7-((R)-2-Amino-2-(1,4-cyclohexadien-1-yl)acetamido)-3-methyl-8-oxo-5-thia-1-azabicyclo(4.2.0)oct-2-ene-2-carboxylic acid; (6R,7R)-7-{[(2R)-2-amino-2-cyclohexa-1,4-dien-1-ylacetyl]amino}-3-methyl-8-oxo-5-thia-1-azabicyclo[4.2.0]oct-2-ene-2-carboxylic acid; 7-(D-2-Amino-2-(1,4-cyclohexadienyl)acetamide)desacetoxycephalosporanicacid; CED; Cefradina; Cefradine; Cefradinum; Cephradin; Cephradine

$$$$
