
 OpenBabel10282417123D

 24 24  0  0  0  0  0  0  0  0999 V2000
    0.9780    0.1414   -0.1092 N   0  3  0  0  0  0  0  0  0  0  0  0
    0.4818   -0.8470   -1.0994 C   0  0  0  0  0  0  0  0  0  0  0  0
    1.0357   -2.2428   -0.7877 C   0  0  0  0  0  0  0  0  0  0  0  0
    0.4008   -3.2886   -1.7225 C   0  0  0  0  0  0  0  0  0  0  0  0
    0.9310   -4.6929   -1.4335 C   0  0  0  0  0  0  0  0  0  0  0  0
    0.7251   -5.0798    0.0278 C   0  0  0  0  0  0  0  0  0  0  0  0
    1.3468   -4.0531    0.9638 C   0  0  0  0  0  0  0  0  0  0  0  0
    0.8246   -2.6498    0.6807 C   0  0  0  0  0  0  0  0  0  0  0  0
    0.6253   -0.0597    0.8353 H   0  0  0  0  0  0  0  0  0  0  0  0
    0.6658    1.0957   -0.3402 H   0  0  0  0  0  0  0  0  0  0  0  0
    2.0039    0.1522   -0.0637 H   0  0  0  0  0  0  0  0  0  0  0  0
   -0.6107   -0.8127   -1.0593 H   0  0  0  0  0  0  0  0  0  0  0  0
    0.8175   -0.4990   -2.0817 H   0  0  0  0  0  0  0  0  0  0  0  0
    2.1169   -2.2278   -0.9838 H   0  0  0  0  0  0  0  0  0  0  0  0
   -0.6904   -3.2853   -1.5991 H   0  0  0  0  0  0  0  0  0  0  0  0
    0.6015   -3.0337   -2.7699 H   0  0  0  0  0  0  0  0  0  0  0  0
    0.4292   -5.4208   -2.0805 H   0  0  0  0  0  0  0  0  0  0  0  0
    2.0005   -4.7334   -1.6744 H   0  0  0  0  0  0  0  0  0  0  0  0
   -0.3484   -5.1613    0.2380 H   0  0  0  0  0  0  0  0  0  0  0  0
    1.1661   -6.0642    0.2184 H   0  0  0  0  0  0  0  0  0  0  0  0
    1.1334   -4.3183    2.0051 H   0  0  0  0  0  0  0  0  0  0  0  0
    2.4378   -4.0625    0.8482 H   0  0  0  0  0  0  0  0  0  0  0  0
    1.3484   -1.9615    1.3522 H   0  0  0  0  0  0  0  0  0  0  0  0
   -0.2430   -2.5956    0.9290 H   0  0  0  0  0  0  0  0  0  0  0  0
  1  2  1  0  0  0  0
  1  9  1  0  0  0  0
  1 10  1  0  0  0  0
  1 11  1  0  0  0  0
  2  3  1  0  0  0  0
  2 12  1  0  0  0  0
  2 13  1  0  0  0  0
  3  4  1  0  0  0  0
  3  8  1  0  0  0  0
  3 14  1  0  0  0  0
  4  5  1  0  0  0  0
  4 15  1  0  0  0  0
  4 16  1  0  0  0  0
  5  6  1  0  0  0  0
  5 17  1  0  0  0  0
  5 18  1  0  0  0  0
  6  7  1  0  0  0  0
  6 19  1  0  0  0  0
  6 20  1  0  0  0  0
  7  8  1  0  0  0  0
  7 21  1  0  0  0  0
  7 22  1  0  0  0  0
  8 23  1  0  0  0  0
  8 24  1  0  0  0  0
M  CHG  1   1   1
M  END
>  <DRUGBANK_ID>
DB02435

>  <SECONDARY_ACCESSION_NUMBERS>
EXPT00505

>  <COMMON_NAME>
Aminomethylcyclohexane

>  <CAS_NUMBER>
3218-02-8

$$$$
