
 OpenBabel10282417243D

 40 43  0  0  0  0  0  0  0  0999 V2000
    0.9167   -0.0380    0.0129 C   0  0  0  0  0  0  0  0  0  0  0  0
    0.4852   -1.2918    0.6968 C   0  0  0  0  0  0  0  0  0  0  0  0
    0.8354   -2.5836    0.3696 C   0  0  0  0  0  0  0  0  0  0  0  0
    0.3333   -3.5563    1.3062 C   0  0  0  0  0  0  0  0  0  0  0  0
    0.4771   -4.9443    1.4303 C   0  0  0  0  0  0  0  0  0  0  0  0
   -0.1539   -5.5956    2.4573 N   0  0  0  0  0  0  0  0  0  0  0  0
   -0.9341   -4.9000    3.3168 C   0  0  0  0  0  0  0  0  0  0  0  0
   -1.1488   -3.5836    3.2371 N   0  0  0  0  0  0  0  0  0  0  0  0
   -0.4748   -2.9614    2.2522 C   0  0  0  0  0  0  0  0  0  0  0  0
   -0.5501   -1.2640    2.0592 S   0  0  0  0  0  0  0  0  0  0  0  0
   -1.5454   -5.5580    4.3596 N   0  0  0  0  0  0  0  0  0  0  0  0
   -0.8070   -6.3858    5.2997 C   0  0  0  0  0  0  0  0  0  0  0  0
   -1.3511   -7.8330    5.2839 C   0  0  0  0  0  0  0  0  0  0  0  0
   -2.8173   -7.9238    5.4916 N   0  0  0  0  0  0  0  0  0  0  0  0
   -3.4893   -7.0598    4.4910 C   0  0  0  0  0  0  0  0  0  0  0  0
   -2.9966   -5.5843    4.5041 C   0  0  0  0  0  0  0  0  0  0  0  0
    1.2414   -5.6952    0.4240 C   0  0  0  0  0  0  0  0  0  0  0  0
    0.6246   -6.6783   -0.3676 C   0  0  0  0  0  0  0  0  0  0  0  0
    1.3168   -7.3104   -1.4121 C   0  0  0  0  0  0  0  0  0  0  0  0
    2.6417   -6.9747   -1.6878 C   0  0  0  0  0  0  0  0  0  0  0  0
    3.2753   -6.0057   -0.9182 C   0  0  0  0  0  0  0  0  0  0  0  0
    2.5807   -5.3844    0.1224 C   0  0  0  0  0  0  0  0  0  0  0  0
    3.2250   -4.4300    0.8129 F   0  0  0  0  0  0  0  0  0  0  0  0
    0.5564    0.8618    0.5195 H   0  0  0  0  0  0  0  0  0  0  0  0
    0.5532   -0.0191   -1.0202 H   0  0  0  0  0  0  0  0  0  0  0  0
    2.0117    0.0120   -0.0172 H   0  0  0  0  0  0  0  0  0  0  0  0
    1.4714   -2.8173   -0.4770 H   0  0  0  0  0  0  0  0  0  0  0  0
    0.2739   -6.3707    5.1297 H   0  0  0  0  0  0  0  0  0  0  0  0
   -0.9712   -5.9735    6.3068 H   0  0  0  0  0  0  0  0  0  0  0  0
   -1.1039   -8.3066    4.3274 H   0  0  0  0  0  0  0  0  0  0  0  0
   -0.8565   -8.4166    6.0688 H   0  0  0  0  0  0  0  0  0  0  0  0
   -3.0338   -7.5643    6.4217 H   0  0  0  0  0  0  0  0  0  0  0  0
   -3.3284   -7.4957    3.4973 H   0  0  0  0  0  0  0  0  0  0  0  0
   -4.5686   -7.0923    4.6792 H   0  0  0  0  0  0  0  0  0  0  0  0
   -3.2641   -5.1419    5.4734 H   0  0  0  0  0  0  0  0  0  0  0  0
   -3.5171   -5.0126    3.7285 H   0  0  0  0  0  0  0  0  0  0  0  0
   -0.4192   -6.9347   -0.1944 H   0  0  0  0  0  0  0  0  0  0  0  0
    0.8142   -8.0601   -2.0196 H   0  0  0  0  0  0  0  0  0  0  0  0
    3.1756   -7.4633   -2.4998 H   0  0  0  0  0  0  0  0  0  0  0  0
    4.3024   -5.7187   -1.1258 H   0  0  0  0  0  0  0  0  0  0  0  0
  1  2  1  0  0  0  0
  1 24  1  0  0  0  0
  1 25  1  0  0  0  0
  1 26  1  0  0  0  0
  2  3  2  0  0  0  0
  2 10  1  0  0  0  0
  3  4  1  0  0  0  0
  3 27  1  0  0  0  0
  4  5  2  0  0  0  0
  4  9  1  0  0  0  0
  5  6  1  0  0  0  0
  5 17  1  0  0  0  0
  6  7  2  0  0  0  0
  7  8  1  0  0  0  0
  7 11  1  0  0  0  0
  8  9  2  0  0  0  0
  9 10  1  0  0  0  0
 11 12  1  0  0  0  0
 11 16  1  0  0  0  0
 12 13  1  0  0  0  0
 12 28  1  0  0  0  0
 12 29  1  0  0  0  0
 13 14  1  0  0  0  0
 13 30  1  0  0  0  0
 13 31  1  0  0  0  0
 14 15  1  0  0  0  0
 14 32  1  0  0  0  0
 15 16  1  0  0  0  0
 15 33  1  0  0  0  0
 15 34  1  0  0  0  0
 16 35  1  0  0  0  0
 16 36  1  0  0  0  0
 17 18  2  0  0  0  0
 17 22  1  0  0  0  0
 18 19  1  0  0  0  0
 18 37  1  0  0  0  0
 19 20  2  0  0  0  0
 19 38  1  0  0  0  0
 20 21  1  0  0  0  0
 20 39  1  0  0  0  0
 21 22  2  0  0  0  0
 21 40  1  0  0  0  0
 22 23  1  0  0  0  0
M  END
>  <DRUGBANK_ID>
DB18047

>  <COMMON_NAME>
DDP-225 free base anhydrous

>  <CAS_NUMBER>
99487-25-9

>  <UNII>
CU79LWT2HF

>  <SYNONYMS>
Thieno(2,3-d)pyrimidine, 4-(2-fluorophenyl)-6-methyl-2-(1-piperazinyl)-

$$$$
