
 OpenBabel10282417193D

102103  0  0  0  0  0  0  0  0999 V2000
    0.9460   -0.1438    0.0275 C   0  0  0  0  0  0  0  0  0  0  0  0
    2.0981    1.0126   -3.5132 C   0  0  0  0  0  0  0  0  0  0  0  0
    0.5598    0.0965    1.4792 C   0  0  0  0  0  0  0  0  0  0  0  0
    2.2771    0.3284   -4.8600 C   0  0  0  0  0  0  0  0  0  0  0  0
    1.1591    1.4200    1.9819 C   0  0  0  0  0  0  0  0  0  0  0  0
    3.7187   -0.1799   -5.0160 C   0  0  0  0  0  0  0  0  0  0  0  0
    0.7039    2.5823    1.1394 C   0  0  0  0  0  0  0  0  0  0  0  0
    4.0867   -1.1375   -3.9114 C   0  0  0  0  0  0  0  0  0  0  0  0
   -0.7887    2.5845    1.1660 C   0  0  0  0  0  0  0  0  0  0  0  0
    3.0989   -2.2595   -3.9420 C   0  0  0  0  0  0  0  0  0  0  0  0
   -4.1119   -1.7319   -1.6271 C   0  0  0  0  0  0  0  0  0  0  0  0
   -3.4425   -1.8367   -2.9950 C   0  0  0  0  0  0  0  0  0  0  0  0
   -3.4547   -0.6125   -0.8256 C   0  0  0  0  0  0  0  0  0  0  0  0
   -1.9553   -2.1389   -2.8213 C   0  0  0  0  0  0  0  0  0  0  0  0
   -1.3672    2.8513    2.6013 C   0  0  0  0  0  0  0  0  0  0  0  0
    3.1529   -3.0724   -5.2722 C   0  0  0  0  0  0  0  0  0  0  0  0
   -3.6154    0.7154   -1.5836 C   0  0  0  0  0  0  0  0  0  0  0  0
   -1.7695   -3.4778   -2.0953 C   0  0  0  0  0  0  0  0  0  0  0  0
   -1.1371    4.2869    3.0763 C   0  0  0  0  0  0  0  0  0  0  0  0
    4.4110   -3.9216   -5.3612 C   0  0  0  0  0  0  0  0  0  0  0  0
   -5.0995    1.1277   -1.6625 C   0  0  0  0  0  0  0  0  0  0  0  0
   -2.4050   -4.6369   -2.8813 C   0  0  0  0  0  0  0  0  0  0  0  0
   -5.5221    4.4186    1.6619 C   0  0  0  0  0  0  0  0  0  0  0  0
   -3.4635    3.5043    0.8310 C   0  0  0  0  0  0  0  0  0  0  0  0
    1.7173   -4.6692   -3.4283 C   0  0  0  0  0  0  0  0  0  0  0  0
    1.2678   -6.9496   -4.0754 C   0  0  0  0  0  0  0  0  0  0  0  0
   -1.7845    5.3790    2.1910 C   0  0  0  0  0  0  0  0  0  0  0  0
    4.5451   -4.9370   -4.2085 C   0  0  0  0  0  0  0  0  0  0  0  0
   -5.8595    1.1736   -0.3010 C   0  0  0  0  0  0  0  0  0  0  0  0
   -1.8290   -4.7968   -4.2968 C   0  0  0  0  0  0  0  0  0  0  0  0
   -6.0731    3.3433    1.0460 C   0  0  0  0  0  0  0  0  0  0  0  0
   -4.0071    2.3126    0.8232 C   0  0  0  0  0  0  0  0  0  0  0  0
    0.5411   -4.2783   -3.9148 C   0  0  0  0  0  0  0  0  0  0  0  0
   -0.0183   -6.5423   -4.1115 C   0  0  0  0  0  0  0  0  0  0  0  0
   -4.0322    4.5548    1.6565 C   0  0  0  0  0  0  0  0  0  0  0  0
    2.3112   -5.8981   -3.9630 C   0  0  0  0  0  0  0  0  0  0  0  0
   -3.2934    5.4211    2.2715 N   0  0  0  0  0  0  0  0  0  0  0  0
    3.5545   -6.0477   -4.2769 N   0  0  0  0  0  0  0  0  0  0  0  0
   -5.3560    2.2204    0.6138 N   0  0  0  0  0  0  0  0  0  0  0  0
   -0.4182   -5.2076   -4.2424 N   0  0  0  0  0  0  0  0  0  0  0  0
    0.5292    0.6126   -0.6489 H   0  0  0  0  0  0  0  0  0  0  0  0
    0.5766   -1.1083   -0.3214 H   0  0  0  0  0  0  0  0  0  0  0  0
    2.0346   -0.1112   -0.0644 H   0  0  0  0  0  0  0  0  0  0  0  0
    2.8429    1.8056   -3.4084 H   0  0  0  0  0  0  0  0  0  0  0  0
    1.0970    1.4339   -3.4186 H   0  0  0  0  0  0  0  0  0  0  0  0
    2.2271    0.3197   -2.6738 H   0  0  0  0  0  0  0  0  0  0  0  0
   -0.5359    0.0628    1.5691 H   0  0  0  0  0  0  0  0  0  0  0  0
    0.9092   -0.7131    2.1198 H   0  0  0  0  0  0  0  0  0  0  0  0
    2.0552    1.0116   -5.6803 H   0  0  0  0  0  0  0  0  0  0  0  0
    1.5312   -0.4741   -4.9571 H   0  0  0  0  0  0  0  0  0  0  0  0
    0.8649    1.5802    3.0230 H   0  0  0  0  0  0  0  0  0  0  0  0
    2.2464    1.4005    1.9773 H   0  0  0  0  0  0  0  0  0  0  0  0
    4.4381    0.6359   -5.0151 H   0  0  0  0  0  0  0  0  0  0  0  0
    3.8270   -0.6721   -5.9866 H   0  0  0  0  0  0  0  0  0  0  0  0
    1.0693    3.5536    1.4841 H   0  0  0  0  0  0  0  0  0  0  0  0
    1.0359    2.5117    0.0953 H   0  0  0  0  0  0  0  0  0  0  0  0
    4.0617   -0.6736   -2.9172 H   0  0  0  0  0  0  0  0  0  0  0  0
    5.0953   -1.5497   -4.0040 H   0  0  0  0  0  0  0  0  0  0  0  0
   -0.9421    3.3192    0.3738 H   0  0  0  0  0  0  0  0  0  0  0  0
   -1.2409    1.6789    0.7437 H   0  0  0  0  0  0  0  0  0  0  0  0
    2.0730   -1.9304   -3.7316 H   0  0  0  0  0  0  0  0  0  0  0  0
    3.4101   -2.7628   -3.0283 H   0  0  0  0  0  0  0  0  0  0  0  0
   -4.0563   -2.6704   -1.0675 H   0  0  0  0  0  0  0  0  0  0  0  0
   -5.1847   -1.5622   -1.7482 H   0  0  0  0  0  0  0  0  0  0  0  0
   -3.9466   -2.5907   -3.6024 H   0  0  0  0  0  0  0  0  0  0  0  0
   -3.5627   -0.9253   -3.5868 H   0  0  0  0  0  0  0  0  0  0  0  0
   -2.3944   -0.8044   -0.6256 H   0  0  0  0  0  0  0  0  0  0  0  0
   -3.8927   -0.5999    0.1756 H   0  0  0  0  0  0  0  0  0  0  0  0
   -1.4880   -2.1144   -3.8065 H   0  0  0  0  0  0  0  0  0  0  0  0
   -1.4249   -1.3502   -2.2750 H   0  0  0  0  0  0  0  0  0  0  0  0
   -2.4311    2.6342    2.7220 H   0  0  0  0  0  0  0  0  0  0  0  0
   -0.9766    2.1266    3.3221 H   0  0  0  0  0  0  0  0  0  0  0  0
    3.0309   -2.4258   -6.1439 H   0  0  0  0  0  0  0  0  0  0  0  0
    2.3132   -3.7406   -5.4578 H   0  0  0  0  0  0  0  0  0  0  0  0
   -3.1805    0.6705   -2.5863 H   0  0  0  0  0  0  0  0  0  0  0  0
   -2.9867    1.4963   -1.1572 H   0  0  0  0  0  0  0  0  0  0  0  0
   -0.7108   -3.6536   -1.8964 H   0  0  0  0  0  0  0  0  0  0  0  0
   -2.1967   -3.4442   -1.0870 H   0  0  0  0  0  0  0  0  0  0  0  0
   -1.5054    4.3914    4.1017 H   0  0  0  0  0  0  0  0  0  0  0  0
   -0.0513    4.4408    3.1325 H   0  0  0  0  0  0  0  0  0  0  0  0
    5.2728   -3.2427   -5.3779 H   0  0  0  0  0  0  0  0  0  0  0  0
    4.4225   -4.4489   -6.3204 H   0  0  0  0  0  0  0  0  0  0  0  0
   -5.6148    0.4095   -2.3156 H   0  0  0  0  0  0  0  0  0  0  0  0
   -5.1711    2.0879   -2.1811 H   0  0  0  0  0  0  0  0  0  0  0  0
   -2.2871   -5.5626   -2.3120 H   0  0  0  0  0  0  0  0  0  0  0  0
   -3.4882   -4.4822   -2.9591 H   0  0  0  0  0  0  0  0  0  0  0  0
   -6.0754    5.2205    2.1169 H   0  0  0  0  0  0  0  0  0  0  0  0
   -2.4729    3.7429    0.6137 H   0  0  0  0  0  0  0  0  0  0  0  0
    2.3982   -4.0783   -2.8935 H   0  0  0  0  0  0  0  0  0  0  0  0
    1.6032   -7.9703   -4.0494 H   0  0  0  0  0  0  0  0  0  0  0  0
   -1.3990    6.3445    2.5435 H   0  0  0  0  0  0  0  0  0  0  0  0
   -1.4045    5.3313    1.1589 H   0  0  0  0  0  0  0  0  0  0  0  0
    4.5664   -4.4473   -3.2269 H   0  0  0  0  0  0  0  0  0  0  0  0
    5.5478   -5.3745   -4.2974 H   0  0  0  0  0  0  0  0  0  0  0  0
   -5.7954    0.1997    0.1997 H   0  0  0  0  0  0  0  0  0  0  0  0
   -6.9201    1.3322   -0.5079 H   0  0  0  0  0  0  0  0  0  0  0  0
   -2.4079   -5.5331   -4.8597 H   0  0  0  0  0  0  0  0  0  0  0  0
   -1.9305   -3.8613   -4.8654 H   0  0  0  0  0  0  0  0  0  0  0  0
   -7.1363    3.2477    0.8799 H   0  0  0  0  0  0  0  0  0  0  0  0
   -3.4246    1.4015    0.7171 H   0  0  0  0  0  0  0  0  0  0  0  0
    0.2412   -3.2336   -3.9318 H   0  0  0  0  0  0  0  0  0  0  0  0
   -0.8414   -7.2368   -4.0124 H   0  0  0  0  0  0  0  0  0  0  0  0
  1 41  1  0  0  0  0
  1 42  1  0  0  0  0
  1 43  1  0  0  0  0
  2 44  1  0  0  0  0
  2 45  1  0  0  0  0
  2 46  1  0  0  0  0
  3  1  1  0  0  0  0
  3 47  1  0  0  0  0
  3 48  1  0  0  0  0
  4  2  1  0  0  0  0
  4 49  1  0  0  0  0
  4 50  1  0  0  0  0
  5  3  1  0  0  0  0
  5 51  1  0  0  0  0
  5 52  1  0  0  0  0
  6  4  1  0  0  0  0
  6 53  1  0  0  0  0
  6 54  1  0  0  0  0
  7  5  1  0  0  0  0
  7 55  1  0  0  0  0
  7 56  1  0  0  0  0
  8  6  1  0  0  0  0
  8 57  1  0  0  0  0
  8 58  1  0  0  0  0
  9  7  1  0  0  0  0
  9 59  1  0  0  0  0
  9 60  1  0  0  0  0
 10  8  1  0  0  0  0
 10 61  1  0  0  0  0
 10 62  1  0  0  0  0
 11 63  1  0  0  0  0
 11 64  1  0  0  0  0
 12 11  1  0  0  0  0
 12 65  1  0  0  0  0
 12 66  1  0  0  0  0
 13 11  1  0  0  0  0
 13 67  1  0  0  0  0
 13 68  1  0  0  0  0
 14 12  1  0  0  0  0
 14 69  1  0  0  0  0
 14 70  1  0  0  0  0
 15  9  1  0  0  0  0
 15 71  1  0  0  0  0
 15 72  1  0  0  0  0
 16 10  1  0  0  0  0
 16 73  1  0  0  0  0
 16 74  1  0  0  0  0
 17 13  1  0  0  0  0
 17 75  1  0  0  0  0
 17 76  1  0  0  0  0
 18 14  1  0  0  0  0
 18 77  1  0  0  0  0
 18 78  1  0  0  0  0
 19 15  1  0  0  0  0
 19 79  1  0  0  0  0
 19 80  1  0  0  0  0
 20 16  1  0  0  0  0
 20 81  1  0  0  0  0
 20 82  1  0  0  0  0
 21 17  1  0  0  0  0
 21 83  1  0  0  0  0
 21 84  1  0  0  0  0
 22 18  1  0  0  0  0
 22 85  1  0  0  0  0
 22 86  1  0  0  0  0
 23 87  1  0  0  0  0
 24 88  1  0  0  0  0
 25 89  1  0  0  0  0
 26 90  1  0  0  0  0
 27 19  1  0  0  0  0
 27 91  1  0  0  0  0
 27 92  1  0  0  0  0
 28 20  1  0  0  0  0
 28 93  1  0  0  0  0
 28 94  1  0  0  0  0
 29 21  1  0  0  0  0
 29 95  1  0  0  0  0
 29 96  1  0  0  0  0
 30 22  1  0  0  0  0
 30 97  1  0  0  0  0
 30 98  1  0  0  0  0
 31 23  2  0  0  0  0
 31 99  1  0  0  0  0
 32 24  2  0  0  0  0
 32100  1  0  0  0  0
 33 25  2  0  0  0  0
 33101  1  0  0  0  0
 34 26  2  0  0  0  0
 34102  1  0  0  0  0
 35 23  1  0  0  0  0
 35 24  1  0  0  0  0
 36 25  1  0  0  0  0
 36 26  1  0  0  0  0
 37 27  1  0  0  0  0
 37 35  2  0  0  0  0
 38 28  1  0  0  0  0
 38 36  2  0  0  0  0
 39 29  1  0  0  0  0
 39 31  1  0  0  0  0
 39 32  1  0  0  0  0
 40 30  1  0  0  0  0
 40 33  1  0  0  0  0
 40 34  1  0  0  0  0
M  END
>  <DRUGBANK_ID>
DB12624

>  <COMMON_NAME>
Octenidine

>  <CAS_NUMBER>
71251-02-0

>  <UNII>
OZE0372S5A

>  <SYNONYMS>
Octenidine

$$$$
