
 OpenBabel10282417193D

 69 71  0  0  1  0  0  0  0  0999 V2000
   14.0698    8.0411    9.7828 C   0  0  0  0  0  0  0  0  0  0  0  0
   14.1090    6.7713    9.0464 C   0  0  0  0  0  0  0  0  0  0  0  0
   13.5303    6.6921    7.8852 N   0  0  0  0  0  0  0  0  0  0  0  0
   13.6996    5.4409    7.3963 C   0  0  0  0  0  0  0  0  0  0  0  0
   14.4102    4.5325    8.1655 C   0  0  0  0  0  0  0  0  0  0  0  0
   14.8942    5.3618    9.6077 S   0  0  0  0  0  0  0  0  0  0  0  0
   14.7311    3.1347    7.9958 C   0  0  0  0  0  0  0  0  0  0  0  0
   15.4033    2.4626    8.8148 O   0  0  0  0  0  0  0  0  0  0  0  0
   14.2765    2.4179    6.9295 N   0  0  0  0  0  0  0  0  0  0  0  0
   13.6570    2.8459    5.6789 C   0  0  1  0  0  0  0  0  0  0  0  0
   14.5810    3.0425    4.4639 C   0  0  0  0  0  0  0  0  0  0  0  0
   15.2346    1.9121    3.9257 O   0  0  0  0  0  0  0  0  0  0  0  0
   16.0673    1.1330    4.7752 C   0  0  0  0  0  0  0  0  0  0  0  0
   12.2668    2.2746    5.4236 C   0  0  0  0  0  0  0  0  0  0  0  0
   11.2454    2.8974    5.7255 O   0  0  0  0  0  0  0  0  0  0  0  0
   12.1258    1.0430    4.8852 N   0  0  0  0  0  0  0  0  0  0  0  0
   13.1818    0.0528    4.7116 C   0  0  1  0  0  0  0  0  0  0  0  0
   13.4094   -0.9822    5.8359 C   0  0  0  0  0  0  0  0  0  0  0  0
   12.3529   -1.8636    6.1347 O   0  0  0  0  0  0  0  0  0  0  0  0
   11.0762   -1.3274    6.4243 C   0  0  0  0  0  0  0  0  0  0  0  0
   13.4773   -0.4070    3.2513 C   0  0  0  0  0  0  0  0  0  0  0  0
   14.3703    0.0051    2.5187 O   0  0  0  0  0  0  0  0  0  0  0  0
   12.6530   -1.3076    2.6852 N   0  0  0  0  0  0  0  0  0  0  0  0
   11.4677   -1.7857    3.3309 C   0  0  1  0  0  0  0  0  0  0  0  0
   10.2151   -1.0017    2.8034 C   0  0  0  0  0  0  0  0  0  0  0  0
    9.8884   -1.3329    1.3689 C   0  0  0  0  0  0  0  0  0  0  0  0
   10.5260   -2.4045    0.7813 C   0  0  0  0  0  0  0  0  0  0  0  0
    9.9169   -3.2253   -0.1426 C   0  0  0  0  0  0  0  0  0  0  0  0
    8.9675   -2.6736   -0.9275 C   0  0  0  0  0  0  0  0  0  0  0  0
    8.5033   -1.4078   -0.5849 C   0  0  0  0  0  0  0  0  0  0  0  0
    8.9061   -0.7578    0.6013 C   0  0  0  0  0  0  0  0  0  0  0  0
   11.5383   -3.3339    3.7227 C   0  0  0  0  0  0  0  0  0  0  0  0
   11.9275   -3.8402    4.7882 O   0  0  0  0  0  0  0  0  0  0  0  0
   10.8980   -4.2318    2.7666 C   0  0  1  0  0  0  0  0  0  0  0  0
   11.9447   -4.7640    1.6037 C   0  0  0  0  0  0  0  0  0  0  0  0
   11.3648   -5.5768    2.5850 O   0  0  0  0  0  0  0  0  0  0  0  0
    9.3971   -4.0835    2.9215 C   0  0  0  0  0  0  0  0  0  0  0  0
   13.5679    7.9181   10.7417 H   0  0  0  0  0  0  0  0  0  0  0  0
   15.0765    8.4413    9.8982 H   0  0  0  0  0  0  0  0  0  0  0  0
   13.4887    8.7577    9.1863 H   0  0  0  0  0  0  0  0  0  0  0  0
   13.2211    5.3444    6.4462 H   0  0  0  0  0  0  0  0  0  0  0  0
   14.4360    1.4335    7.0848 H   0  0  0  0  0  0  0  0  0  0  0  0
   13.3610    3.8493    5.8122 H   0  0  0  0  0  0  0  0  0  0  0  0
   13.9572    3.4592    3.6565 H   0  0  0  0  0  0  0  0  0  0  0  0
   15.3552    3.7810    4.6775 H   0  0  0  0  0  0  0  0  0  0  0  0
   17.0062    1.6324    4.9465 H   0  0  0  0  0  0  0  0  0  0  0  0
   15.6329    0.9008    5.7469 H   0  0  0  0  0  0  0  0  0  0  0  0
   16.1845    0.1463    4.3101 H   0  0  0  0  0  0  0  0  0  0  0  0
   11.1636    0.8636    4.6413 H   0  0  0  0  0  0  0  0  0  0  0  0
   14.0034    0.6511    4.9342 H   0  0  0  0  0  0  0  0  0  0  0  0
   14.2872   -1.5884    5.5567 H   0  0  0  0  0  0  0  0  0  0  0  0
   13.6699   -0.4988    6.7798 H   0  0  0  0  0  0  0  0  0  0  0  0
   11.0502   -0.9475    7.4335 H   0  0  0  0  0  0  0  0  0  0  0  0
   10.7570   -0.5260    5.7670 H   0  0  0  0  0  0  0  0  0  0  0  0
   10.3372   -2.1094    6.2223 H   0  0  0  0  0  0  0  0  0  0  0  0
   12.8010   -1.3869    1.6832 H   0  0  0  0  0  0  0  0  0  0  0  0
   11.5177   -1.3484    4.2819 H   0  0  0  0  0  0  0  0  0  0  0  0
    9.3614   -1.1979    3.4738 H   0  0  0  0  0  0  0  0  0  0  0  0
   10.3552    0.0849    2.8995 H   0  0  0  0  0  0  0  0  0  0  0  0
   11.4524   -2.7216    1.1976 H   0  0  0  0  0  0  0  0  0  0  0  0
   10.1290   -4.2852   -0.2273 H   0  0  0  0  0  0  0  0  0  0  0  0
    8.6484   -3.2491   -1.7859 H   0  0  0  0  0  0  0  0  0  0  0  0
    7.7643   -0.9600   -1.2296 H   0  0  0  0  0  0  0  0  0  0  0  0
    8.4689    0.1895    0.8932 H   0  0  0  0  0  0  0  0  0  0  0  0
   11.7175   -4.8704    0.5489 H   0  0  0  0  0  0  0  0  0  0  0  0
   12.9745   -4.3850    1.6602 H   0  0  0  0  0  0  0  0  0  0  0  0
    8.7872   -3.9075    2.0400 H   0  0  0  0  0  0  0  0  0  0  0  0
    8.9126   -4.7045    3.6738 H   0  0  0  0  0  0  0  0  0  0  0  0
    9.2814   -3.1280    3.4484 H   0  0  0  0  0  0  0  0  0  0  0  0
  1  2  1  0  0  0  0
  1 38  1  0  0  0  0
  1 39  1  0  0  0  0
  1 40  1  0  0  0  0
  2  3  2  0  0  0  0
  2  6  1  0  0  0  0
  3  4  1  0  0  0  0
  4  5  2  0  0  0  0
  4 41  1  0  0  0  0
  5  6  1  0  0  0  0
  5  7  1  0  0  0  0
  7  8  2  0  0  0  0
  7  9  1  0  0  0  0
  9 42  1  0  0  0  0
 10  9  1  0  0  0  0
 10 11  1  0  0  0  0
 10 14  1  0  0  0  0
 10 43  1  1  0  0  0
 11 12  1  0  0  0  0
 11 44  1  0  0  0  0
 11 45  1  0  0  0  0
 12 13  1  0  0  0  0
 13 46  1  0  0  0  0
 13 47  1  0  0  0  0
 13 48  1  0  0  0  0
 14 15  2  0  0  0  0
 14 16  1  0  0  0  0
 16 49  1  0  0  0  0
 17 16  1  0  0  0  0
 17 18  1  0  0  0  0
 17 21  1  0  0  0  0
 17 50  1  1  0  0  0
 18 19  1  0  0  0  0
 18 51  1  0  0  0  0
 18 52  1  0  0  0  0
 19 20  1  0  0  0  0
 20 53  1  0  0  0  0
 20 54  1  0  0  0  0
 20 55  1  0  0  0  0
 21 22  2  0  0  0  0
 21 23  1  0  0  0  0
 23 56  1  0  0  0  0
 24 23  1  0  0  0  0
 24 25  1  0  0  0  0
 24 32  1  0  0  0  0
 24 57  1  1  0  0  0
 25 26  1  0  0  0  0
 25 58  1  0  0  0  0
 25 59  1  0  0  0  0
 26 27  2  0  0  0  0
 26 31  1  0  0  0  0
 27 28  1  0  0  0  0
 27 60  1  0  0  0  0
 28 29  2  0  0  0  0
 28 61  1  0  0  0  0
 29 30  1  0  0  0  0
 29 62  1  0  0  0  0
 30 31  2  0  0  0  0
 30 63  1  0  0  0  0
 31 64  1  0  0  0  0
 32 33  2  0  0  0  0
 34 35  1  0  0  0  0
 34 36  1  0  0  0  0
 34 37  1  0  0  0  0
 34 32  1  1  0  0  0
 35 36  1  0  0  0  0
 35 65  1  0  0  0  0
 35 66  1  0  0  0  0
 37 67  1  0  0  0  0
 37 68  1  0  0  0  0
 37 69  1  0  0  0  0
M  END
>  <DRUGBANK_ID>
DB11991

>  <COMMON_NAME>
Oprozomib

>  <CAS_NUMBER>
935888-69-0

>  <UNII>
MZ37792Y8J

>  <SYNONYMS>
Oprozomib

$$$$
