
 OpenBabel10282417183D

170174  0  0  1  0  0  0  0  0999 V2000
    0.4694   -0.2976   -0.3880 C   0  0  0  0  0  0  0  0  0  0  0  0
    0.6189   -2.2657   -0.3470 C   0  0  0  0  0  0  0  0  0  0  0  0
   -6.5978   -6.6851   -8.8705 C   0  0  0  0  0  0  0  0  0  0  0  0
   -5.1770   -6.4979   -6.9213 C   0  0  0  0  0  0  0  0  0  0  0  0
   -3.6805   -0.2066   -3.3148 C   0  0  0  0  0  0  0  0  0  0  0  0
   -3.2500   -1.9813   -0.4755 C   0  0  0  0  0  0  0  0  0  0  0  0
  -10.2139   -7.5940   -9.6120 C   0  0  0  0  0  0  0  0  0  0  0  0
   -9.5595   -4.1209   -9.4123 C   0  0  0  0  0  0  0  0  0  0  0  0
  -14.9117   -8.1470  -10.2464 C   0  0  0  0  0  0  0  0  0  0  0  0
   -6.2670   -3.4331   -7.4316 C   0  0  0  0  0  0  0  0  0  0  0  0
  -14.2568   -4.4137  -11.7402 C   0  0  0  0  0  0  0  0  0  0  0  0
   -6.2736   -4.3979   -2.4319 C   0  0  0  0  0  0  0  0  0  0  0  0
   -3.9529    0.1518   -1.5620 C   0  0  0  0  0  0  0  0  0  0  0  0
   -7.5643   -5.2209   -9.3200 C   0  0  0  0  0  0  0  0  0  0  0  0
   -4.8686   -5.1646   -2.4179 C   0  0  0  0  0  0  0  0  0  0  0  0
   -6.3361   -2.7171   -2.2372 C   0  0  0  0  0  0  0  0  0  0  0  0
  -13.1041   -5.2166  -10.3837 C   0  0  0  0  0  0  0  0  0  0  0  0
  -12.6204   -3.0245  -11.1331 C   0  0  0  0  0  0  0  0  0  0  0  0
   -6.8772   -5.5624   -3.1728 C   0  0  0  0  0  0  0  0  0  0  0  0
   -7.4345   -2.6690   -2.7281 C   0  0  0  0  0  0  0  0  0  0  0  0
  -12.6966   -5.8895  -12.3272 C   0  0  0  0  0  0  0  0  0  0  0  0
  -12.5719   -3.5804  -12.7079 C   0  0  0  0  0  0  0  0  0  0  0  0
   -9.8155   -4.9214   -2.4037 C   0  0  0  0  0  0  0  0  0  0  0  0
   -9.5437   -3.7514   -4.4593 C   0  0  0  0  0  0  0  0  0  0  0  0
  -14.1086   -6.2389  -14.8746 C   0  0  0  0  0  0  0  0  0  0  0  0
  -12.0461   -5.0561  -15.3450 C   0  0  0  0  0  0  0  0  0  0  0  0
  -10.4367   -6.0641   -3.1681 C   0  0  0  0  0  0  0  0  0  0  0  0
  -10.1906   -4.9431   -5.0868 C   0  0  0  0  0  0  0  0  0  0  0  0
  -13.5274   -7.4534  -15.5634 C   0  0  0  0  0  0  0  0  0  0  0  0
  -11.5321   -6.3238  -15.9967 C   0  0  0  0  0  0  0  0  0  0  0  0
   -3.6253   -2.1983   -3.2786 C   0  0  0  0  0  0  0  0  0  0  0  0
   -7.1535   -5.5551   -6.4644 C   0  0  0  0  0  0  0  0  0  0  0  0
   -4.9436   -2.4827   -1.5960 C   0  0  0  0  0  0  0  0  0  0  0  0
  -11.4041   -4.9098  -10.6027 C   0  0  0  0  0  0  0  0  0  0  0  0
   -3.0212   -3.6719   -2.0666 C   0  0  0  0  0  0  0  0  0  0  0  0
  -12.2818   -3.9176   -8.7223 C   0  0  0  0  0  0  0  0  0  0  0  0
   -1.2426   -1.5516   -1.7645 C   0  0  0  0  0  0  0  0  0  0  0  0
   -6.5664   -6.5308   -7.2501 C   0  0  0  0  0  0  0  0  0  0  0  0
   -3.8416   -2.1541   -1.8233 C   0  0  0  0  0  0  0  0  0  0  0  0
  -11.2664   -5.6092   -9.4766 C   0  0  0  0  0  0  0  0  0  0  0  0
  -12.3673   -7.3104   -9.8800 C   0  0  2  0  0  0  0  0  0  0  0  0
   -7.2212   -2.9515   -6.1814 C   0  0  2  0  0  0  0  0  0  0  0  0
   -4.5952   -3.9261   -2.6120 C   0  0  0  0  0  0  0  0  0  0  0  0
  -13.1160   -4.1041   -9.9062 C   0  0  0  0  0  0  0  0  0  0  0  0
   -7.8665   -3.9017   -2.9587 C   0  0  0  0  0  0  0  0  0  0  0  0
  -12.7268   -5.0363  -13.1560 C   0  0  0  0  0  0  0  0  0  0  0  0
   -5.8317   -3.2280   -5.2560 C   0  0  1  0  0  0  0  0  0  0  0  0
   -8.9359   -5.3631   -6.4640 C   0  0  1  0  0  0  0  0  0  0  0  0
   -5.7456   -2.6987   -3.7165 C   0  0  1  0  0  0  0  0  0  0  0  0
  -12.1437   -6.3517  -10.8637 C   0  0  1  0  0  0  0  0  0  0  0  0
   -2.2311   -1.9702   -3.4805 C   0  0  2  0  0  0  0  0  0  0  0  0
  -11.7656   -4.8567   -7.8392 C   0  0  2  0  0  0  0  0  0  0  0  0
  -14.5097   -6.9061  -11.3338 C   0  0  0  0  0  0  0  0  0  0  0  0
   -7.1542   -4.1558   -4.8582 C   0  0  0  0  0  0  0  0  0  0  0  0
   -3.4742   -0.7256   -1.9985 C   0  0  0  0  0  0  0  0  0  0  0  0
  -10.1304   -5.0025   -8.2760 C   0  0  0  0  0  0  0  0  0  0  0  0
   -7.9440   -4.6393   -7.2803 C   0  0  0  0  0  0  0  0  0  0  0  0
   -9.3424   -3.6382   -6.7550 C   0  0  0  0  0  0  0  0  0  0  0  0
   -4.1820   -2.7322   -5.0289 C   0  0  0  0  0  0  0  0  0  0  0  0
  -13.1018   -6.9955   -8.7332 C   0  0  0  0  0  0  0  0  0  0  0  0
  -14.1771   -5.8313  -11.3794 N   0  0  0  0  0  0  0  0  0  0  0  0
   -6.1752   -3.9158   -3.8360 N   0  0  0  0  0  0  0  0  0  0  0  0
   -4.8220   -1.4607   -3.4027 N   0  0  0  0  0  0  0  0  0  0  0  0
   -8.6779   -6.2948   -7.6853 N   0  0  0  0  0  0  0  0  0  0  0  0
   -8.9914   -4.2051   -3.2730 N   0  0  0  0  0  0  0  0  0  0  0  0
  -13.0197   -5.4183  -14.3503 N   0  0  0  0  0  0  0  0  0  0  0  0
  -15.8638   -6.2948  -12.1383 O   0  0  0  0  0  0  0  0  0  0  0  0
   -7.8315   -5.1253   -4.7675 O   0  0  0  0  0  0  0  0  0  0  0  0
   -5.0602   -0.6713   -1.9284 O   0  0  0  0  0  0  0  0  0  0  0  0
   -9.9496   -5.5382  -10.1128 O   0  0  0  0  0  0  0  0  0  0  0  0
   -8.7760   -5.5810   -8.8483 O   0  0  0  0  0  0  0  0  0  0  0  0
  -10.4637   -3.3649   -7.0716 O   0  0  0  0  0  0  0  0  0  0  0  0
   -4.7054   -2.1433   -5.9848 O   0  0  0  0  0  0  0  0  0  0  0  0
  -13.8777   -7.9019   -8.9998 O   0  0  0  0  0  0  0  0  0  0  0  0
  -11.0902   -5.6076   -4.3483 O   0  0  0  0  0  0  0  0  0  0  0  0
  -12.5941   -7.0825  -16.5799 O   0  0  0  0  0  0  0  0  0  0  0  0
  -10.0008   -6.2267   -8.6335 O   0  0  0  0  0  0  0  0  0  0  0  0
   -8.4440   -2.6802   -6.4719 O   0  0  0  0  0  0  0  0  0  0  0  0
   -3.1040   -2.1456   -4.7137 O   0  0  0  0  0  0  0  0  0  0  0  0
  -12.5954   -6.3244   -7.8891 O   0  0  0  0  0  0  0  0  0  0  0  0
  -13.6708   -8.4141  -10.7185 H   0  0  0  0  0  0  0  0  0  0  0  0
   -6.6606   -2.0562   -5.8087 H   0  0  0  0  0  0  0  0  0  0  0  0
   -4.8211   -1.9288   -4.2045 H   0  0  0  0  0  0  0  0  0  0  0  0
   -9.4542   -6.0177   -6.4686 H   0  0  0  0  0  0  0  0  0  0  0  0
   -6.3835   -1.6208   -3.7475 H   0  0  0  0  0  0  0  0  0  0  0  0
  -11.7579   -6.9542  -11.4366 H   0  0  0  0  0  0  0  0  0  0  0  0
   -1.6370   -1.9654   -2.9636 H   0  0  0  0  0  0  0  0  0  0  0  0
  -11.2219   -4.9722   -7.1151 H   0  0  0  0  0  0  0  0  0  0  0  0
    0.6717    0.0125    1.0253 H   0  0  0  0  0  0  0  0  0  0  0  0
    0.6796    0.9592   -0.4507 H   0  0  0  0  0  0  0  0  0  0  0  0
    2.0801    0.0376    0.0009 H   0  0  0  0  0  0  0  0  0  0  0  0
    0.6776   -2.4392    0.9338 H   0  0  0  0  0  0  0  0  0  0  0  0
    0.6956   -3.2830   -0.6096 H   0  0  0  0  0  0  0  0  0  0  0  0
    2.1009   -2.3877   -0.0916 H   0  0  0  0  0  0  0  0  0  0  0  0
   -6.0963   -5.3843   -9.1738 H   0  0  0  0  0  0  0  0  0  0  0  0
   -6.1893   -7.2433   -9.4153 H   0  0  0  0  0  0  0  0  0  0  0  0
   -7.9175   -7.4032   -8.5628 H   0  0  0  0  0  0  0  0  0  0  0  0
   -5.0913   -6.6162   -5.8592 H   0  0  0  0  0  0  0  0  0  0  0  0
   -4.7203   -7.3221   -7.4264 H   0  0  0  0  0  0  0  0  0  0  0  0
   -4.6957   -5.5810   -7.2223 H   0  0  0  0  0  0  0  0  0  0  0  0
   -4.4159    0.4756   -2.7457 H   0  0  0  0  0  0  0  0  0  0  0  0
   -2.5961   -0.0096   -3.0635 H   0  0  0  0  0  0  0  0  0  0  0  0
   -4.1112   -0.3743   -4.1074 H   0  0  0  0  0  0  0  0  0  0  0  0
   -2.9708   -2.7755   -0.1900 H   0  0  0  0  0  0  0  0  0  0  0  0
   -2.9100   -1.6176   -1.0796 H   0  0  0  0  0  0  0  0  0  0  0  0
   -3.6100   -1.1794   -0.1203 H   0  0  0  0  0  0  0  0  0  0  0  0
   -9.4995   -7.0959  -10.6413 H   0  0  0  0  0  0  0  0  0  0  0  0
   -9.4763   -7.5285   -8.8733 H   0  0  0  0  0  0  0  0  0  0  0  0
  -11.0248   -7.9124   -9.7944 H   0  0  0  0  0  0  0  0  0  0  0  0
   -9.9710   -3.5088   -8.8922 H   0  0  0  0  0  0  0  0  0  0  0  0
   -8.8690   -3.9243   -8.3703 H   0  0  0  0  0  0  0  0  0  0  0  0
   -8.9740   -4.4730  -10.1431 H   0  0  0  0  0  0  0  0  0  0  0  0
  -16.7319   -8.2974  -10.7614 H   0  0  0  0  0  0  0  0  0  0  0  0
  -15.7964   -9.5190  -10.0263 H   0  0  0  0  0  0  0  0  0  0  0  0
  -15.8349   -7.8890   -9.3946 H   0  0  0  0  0  0  0  0  0  0  0  0
   -6.7065   -4.3110   -7.8922 H   0  0  0  0  0  0  0  0  0  0  0  0
   -6.4047   -2.8164   -8.1475 H   0  0  0  0  0  0  0  0  0  0  0  0
   -5.3310   -3.8357   -7.1094 H   0  0  0  0  0  0  0  0  0  0  0  0
  -14.2099   -4.2430  -12.7480 H   0  0  0  0  0  0  0  0  0  0  0  0
  -14.7993   -3.8686  -11.1579 H   0  0  0  0  0  0  0  0  0  0  0  0
  -13.2706   -4.2996  -11.5592 H   0  0  0  0  0  0  0  0  0  0  0  0
   -7.4401   -4.9706   -1.8776 H   0  0  0  0  0  0  0  0  0  0  0  0
   -5.6216   -5.8671   -3.1766 H   0  0  0  0  0  0  0  0  0  0  0  0
   -5.9389   -4.3429   -1.5239 H   0  0  0  0  0  0  0  0  0  0  0  0
   -4.3151    1.6764   -1.4726 H   0  0  0  0  0  0  0  0  0  0  0  0
   -4.3104    0.7130   -0.0255 H   0  0  0  0  0  0  0  0  0  0  0  0
   -3.1454    1.5493   -0.5549 H   0  0  0  0  0  0  0  0  0  0  0  0
   -7.9081   -6.7269   -9.7037 H   0  0  0  0  0  0  0  0  0  0  0  0
   -7.7035   -5.4462  -10.2693 H   0  0  0  0  0  0  0  0  0  0  0  0
   -7.1093   -5.4573   -8.3755 H   0  0  0  0  0  0  0  0  0  0  0  0
   -4.6618   -5.9231   -1.9563 H   0  0  0  0  0  0  0  0  0  0  0  0
   -5.9281   -1.6299   -2.3840 H   0  0  0  0  0  0  0  0  0  0  0  0
  -12.8899   -5.9543   -9.7372 H   0  0  0  0  0  0  0  0  0  0  0  0
  -13.1880   -2.3021  -10.9184 H   0  0  0  0  0  0  0  0  0  0  0  0
   -7.0920   -6.3524   -2.7971 H   0  0  0  0  0  0  0  0  0  0  0  0
   -7.6504   -1.8293   -3.1442 H   0  0  0  0  0  0  0  0  0  0  0  0
  -12.7606   -7.0600  -12.3872 H   0  0  0  0  0  0  0  0  0  0  0  0
  -12.8254   -2.8981  -13.3420 H   0  0  0  0  0  0  0  0  0  0  0  0
  -10.5828   -4.2325   -2.0937 H   0  0  0  0  0  0  0  0  0  0  0  0
   -9.3071   -5.3018   -1.5327 H   0  0  0  0  0  0  0  0  0  0  0  0
  -10.2657   -3.0214   -4.2808 H   0  0  0  0  0  0  0  0  0  0  0  0
   -8.8135   -3.3098   -5.0549 H   0  0  0  0  0  0  0  0  0  0  0  0
  -14.6581   -5.6517  -15.6028 H   0  0  0  0  0  0  0  0  0  0  0  0
  -14.7824   -6.5530  -14.1031 H   0  0  0  0  0  0  0  0  0  0  0  0
  -12.5126   -4.4252  -16.0893 H   0  0  0  0  0  0  0  0  0  0  0  0
  -11.2247   -4.5133  -14.9059 H   0  0  0  0  0  0  0  0  0  0  0  0
   -9.6581   -6.7623   -3.4441 H   0  0  0  0  0  0  0  0  0  0  0  0
  -11.1662   -6.5522   -2.5458 H   0  0  0  0  0  0  0  0  0  0  0  0
  -10.6374   -4.6485   -5.9790 H   0  0  0  0  0  0  0  0  0  0  0  0
   -9.4102   -5.6727   -5.1651 H   0  0  0  0  0  0  0  0  0  0  0  0
  -13.0139   -8.0527  -14.8259 H   0  0  0  0  0  0  0  0  0  0  0  0
  -14.3230   -8.0279  -16.0143 H   0  0  0  0  0  0  0  0  0  0  0  0
  -10.8365   -6.0591  -16.7775 H   0  0  0  0  0  0  0  0  0  0  0  0
  -11.0363   -6.9292  -15.2499 H   0  0  0  0  0  0  0  0  0  0  0  0
   -2.1205   -2.1887   -1.9359 H   0  0  0  0  0  0  0  0  0  0  0  0
   -2.2022   -1.6368   -1.9059 H   0  0  0  0  0  0  0  0  0  0  0  0
   -6.8418   -4.5443   -6.5489 H   0  0  0  0  0  0  0  0  0  0  0  0
   -6.8781   -5.5978   -5.7289 H   0  0  0  0  0  0  0  0  0  0  0  0
   -5.6570   -1.8117   -1.0830 H   0  0  0  0  0  0  0  0  0  0  0  0
   -5.0901   -3.3235   -1.2472 H   0  0  0  0  0  0  0  0  0  0  0  0
  -11.0699   -4.9536  -11.4850 H   0  0  0  0  0  0  0  0  0  0  0  0
  -11.5494   -3.9983  -10.2421 H   0  0  0  0  0  0  0  0  0  0  0  0
   -2.6689   -4.3139   -2.6559 H   0  0  0  0  0  0  0  0  0  0  0  0
   -2.9846   -3.5799   -1.1657 H   0  0  0  0  0  0  0  0  0  0  0  0
  -13.0718   -3.7100   -8.2217 H   0  0  0  0  0  0  0  0  0  0  0  0
  -11.5170   -3.1762   -8.8754 H   0  0  0  0  0  0  0  0  0  0  0  0
    0.6040   -1.1584   -1.7871 H   0  0  0  0  0  0  0  0  0  0  0  0
   -7.1353   -7.3595   -6.9895 H   0  0  0  0  0  0  0  0  0  0  0  0
   -3.1644   -3.2676   -3.2041 H   0  0  0  0  0  0  0  0  0  0  0  0
  -11.4050   -6.0653   -8.5733 H   0  0  0  0  0  0  0  0  0  0  0  0
  1 89  1  0  0  0  0
  1 90  1  0  0  0  0
  1 91  1  0  0  0  0
  2 92  1  0  0  0  0
  2 93  1  0  0  0  0
  2 94  1  0  0  0  0
  3 95  1  0  0  0  0
  3 96  1  0  0  0  0
  3 97  1  0  0  0  0
  4 98  1  0  0  0  0
  4 99  1  0  0  0  0
  4100  1  0  0  0  0
  5101  1  0  0  0  0
  5102  1  0  0  0  0
  5103  1  0  0  0  0
  6104  1  0  0  0  0
  6105  1  0  0  0  0
  6106  1  0  0  0  0
  7107  1  0  0  0  0
  7108  1  0  0  0  0
  7109  1  0  0  0  0
  8110  1  0  0  0  0
  8111  1  0  0  0  0
  8112  1  0  0  0  0
  9113  1  0  0  0  0
  9114  1  0  0  0  0
  9115  1  0  0  0  0
 10116  1  0  0  0  0
 10117  1  0  0  0  0
 10118  1  0  0  0  0
 11119  1  0  0  0  0
 11120  1  0  0  0  0
 11121  1  0  0  0  0
 12122  1  0  0  0  0
 12123  1  0  0  0  0
 12124  1  0  0  0  0
 13125  1  0  0  0  0
 13126  1  0  0  0  0
 13127  1  0  0  0  0
 14128  1  0  0  0  0
 14129  1  0  0  0  0
 14130  1  0  0  0  0
 15131  1  0  0  0  0
 16132  1  0  0  0  0
 17133  1  0  0  0  0
 18134  1  0  0  0  0
 19 15  1  0  0  0  0
 19135  1  0  0  0  0
 20 16  2  0  0  0  0
 20136  1  0  0  0  0
 21 17  1  0  0  0  0
 21137  1  0  0  0  0
 22 18  2  0  0  0  0
 22138  1  0  0  0  0
 23139  1  0  0  0  0
 23140  1  0  0  0  0
 24141  1  0  0  0  0
 24142  1  0  0  0  0
 25143  1  0  0  0  0
 25144  1  0  0  0  0
 26145  1  0  0  0  0
 26146  1  0  0  0  0
 27 23  1  0  0  0  0
 27147  1  0  0  0  0
 27148  1  0  0  0  0
 28 24  1  0  0  0  0
 28149  1  0  0  0  0
 28150  1  0  0  0  0
 29 25  1  0  0  0  0
 29151  1  0  0  0  0
 29152  1  0  0  0  0
 30 26  1  0  0  0  0
 30153  1  0  0  0  0
 30154  1  0  0  0  0
 31155  1  0  0  0  0
 31156  1  0  0  0  0
 32157  1  0  0  0  0
 32158  1  0  0  0  0
 33159  1  0  0  0  0
 33160  1  0  0  0  0
 34161  1  0  0  0  0
 34162  1  0  0  0  0
 35163  1  0  0  0  0
 35164  1  0  0  0  0
 36165  1  0  0  0  0
 36166  1  0  0  0  0
 37  1  1  0  0  0  0
 37  2  1  0  0  0  0
 37 31  1  0  0  0  0
 37167  1  0  0  0  0
 38  3  1  0  0  0  0
 38  4  1  0  0  0  0
 38 32  1  0  0  0  0
 38168  1  0  0  0  0
 39  5  1  0  0  0  0
 39  6  1  0  0  0  0
 39 33  1  0  0  0  0
 39169  1  0  0  0  0
 40  7  1  0  0  0  0
 40  8  1  0  0  0  0
 40 34  1  0  0  0  0
 40170  1  0  0  0  0
 41  9  1  0  0  0  0
 41 81  1  1  0  0  0
 42 10  1  0  0  0  0
 42 82  1  1  0  0  0
 43 15  2  0  0  0  0
 43 16  1  0  0  0  0
 43 35  1  0  0  0  0
 44 17  2  0  0  0  0
 44 18  1  0  0  0  0
 44 36  1  0  0  0  0
 45 19  2  0  0  0  0
 45 20  1  0  0  0  0
 46 21  2  0  0  0  0
 46 22  1  0  0  0  0
 47 31  1  0  0  0  0
 47 83  1  6  0  0  0
 48 84  1  1  0  0  0
 48 32  1  0  0  0  0
 49 85  1  6  0  0  0
 49 33  1  0  0  0  0
 50 86  1  6  0  0  0
 50 34  1  0  0  0  0
 51 35  1  0  0  0  0
 51 87  1  6  0  0  0
 52 36  1  0  0  0  0
 52 88  1  1  0  0  0
 53 41  1  0  0  0  0
 54 42  1  0  0  0  0
 55 51  1  0  0  0  0
 56 52  1  0  0  0  0
 57 47  1  0  0  0  0
 58 48  1  0  0  0  0
 59 49  1  0  0  0  0
 60 50  1  0  0  0  0
 61 11  1  0  0  0  0
 61 50  1  0  0  0  0
 61 53  1  0  0  0  0
 62 12  1  0  0  0  0
 62 49  1  0  0  0  0
 62 54  1  0  0  0  0
 63 13  1  0  0  0  0
 63 47  1  0  0  0  0
 63 55  1  0  0  0  0
 64 14  1  0  0  0  0
 64 48  1  0  0  0  0
 64 56  1  0  0  0  0
 65 23  1  0  0  0  0
 65 24  1  0  0  0  0
 65 45  1  0  0  0  0
 66 25  1  0  0  0  0
 66 26  1  0  0  0  0
 66 46  1  0  0  0  0
 67 53  2  0  0  0  0
 68 54  2  0  0  0  0
 69 55  2  0  0  0  0
 70 56  2  0  0  0  0
 71 57  2  0  0  0  0
 72 58  2  0  0  0  0
 73 59  2  0  0  0  0
 74 60  2  0  0  0  0
 75 27  1  0  0  0  0
 75 28  1  0  0  0  0
 76 29  1  0  0  0  0
 76 30  1  0  0  0  0
 77 41  1  0  0  0  0
 77 57  1  0  0  0  0
 78 42  1  0  0  0  0
 78 58  1  0  0  0  0
 79 51  1  0  0  0  0
 79 59  1  0  0  0  0
 80 52  1  0  0  0  0
 80 60  1  0  0  0  0
M  END
>  <DRUGBANK_ID>
DB11403

>  <COMMON_NAME>
Emodepside

>  <CAS_NUMBER>
155030-63-0

>  <UNII>
YZ647Y5GC9

>  <SYNONYMS>
Emodepsida; Ã©modepside; Emodepside; Emodepsidum

$$$$
