KSL
 OpenBabel10282417173D

 42 45  0  0  0  0  0  0  0  0999 V2000
    2.5156    1.0904    0.0206 C   0  0  0  0  0  0  0  0  0  0  0  0
    1.1810    0.3877    0.0096 C   0  0  0  0  0  0  0  0  0  0  0  0
    1.2043   -1.0244   -0.0010 C   0  0  0  0  0  0  0  0  0  0  0  0
    0.0300   -1.7612   -0.0086 C   0  0  0  0  0  0  0  0  0  0  0  0
   -1.1821   -1.0968   -0.0205 C   0  0  0  0  0  0  0  0  0  0  0  0
   -0.0599    1.0926    0.0050 C   0  0  0  0  0  0  0  0  0  0  0  0
   -1.2482    0.3102   -0.0207 C   0  0  0  0  0  0  0  0  0  0  0  0
   -2.6443    0.8629   -0.0383 C   0  0  0  0  0  0  0  0  0  0  0  0
   -0.0406    2.5210    0.1378 N   0  0  0  0  0  0  0  0  0  0  0  0
   -1.1531    3.3407    0.0925 C   0  0  0  0  0  0  0  0  0  0  0  0
   -1.4831    4.1684   -1.0519 C   0  0  0  0  0  0  0  0  0  0  0  0
   -0.8707    4.4562   -2.2478 C   0  0  0  0  0  0  0  0  0  0  0  0
   -1.6444    5.3080   -2.9989 N   0  0  0  0  0  0  0  0  0  0  0  0
   -2.7045    5.5552   -2.2581 C   0  0  0  0  0  0  0  0  0  0  0  0
   -2.6764    4.8603   -1.0753 N   0  0  0  0  0  0  0  0  0  0  0  0
   -3.5752    4.7780   -0.0200 C   0  0  0  0  0  0  0  0  0  0  0  0
   -3.1831    4.0209    1.0321 C   0  0  0  0  0  0  0  0  0  0  0  0
   -1.9719    3.3694    1.1245 N   0  0  0  0  0  0  0  0  0  0  0  0
   -4.8900    5.4423    0.0130 C   0  0  0  0  0  0  0  0  0  0  0  0
   -5.2168    6.2629    1.1037 C   0  0  0  0  0  0  0  0  0  0  0  0
   -6.4915    6.8139    1.2264 C   0  0  0  0  0  0  0  0  0  0  0  0
   -7.4230    6.6387    0.2074 C   0  0  0  0  0  0  0  0  0  0  0  0
   -7.0780    5.9138   -0.9321 C   0  0  0  0  0  0  0  0  0  0  0  0
   -5.8362    5.2753   -1.0085 C   0  0  0  0  0  0  0  0  0  0  0  0
    2.6231    1.7134   -0.8729 H   0  0  0  0  0  0  0  0  0  0  0  0
    2.6200    1.7030    0.9202 H   0  0  0  0  0  0  0  0  0  0  0  0
    3.3481    0.3758    0.0128 H   0  0  0  0  0  0  0  0  0  0  0  0
    2.1485   -1.5655    0.0089 H   0  0  0  0  0  0  0  0  0  0  0  0
    0.0504   -2.8470   -0.0018 H   0  0  0  0  0  0  0  0  0  0  0  0
   -2.1006   -1.6812   -0.0192 H   0  0  0  0  0  0  0  0  0  0  0  0
   -2.8670    1.3067    0.9301 H   0  0  0  0  0  0  0  0  0  0  0  0
   -2.7728    1.5553   -0.8747 H   0  0  0  0  0  0  0  0  0  0  0  0
   -3.4071    0.0899   -0.1644 H   0  0  0  0  0  0  0  0  0  0  0  0
    0.8030    2.9272   -0.2427 H   0  0  0  0  0  0  0  0  0  0  0  0
    0.0875    4.1103   -2.6093 H   0  0  0  0  0  0  0  0  0  0  0  0
   -3.5104    6.2292   -2.5153 H   0  0  0  0  0  0  0  0  0  0  0  0
   -3.8561    3.8309    1.8647 H   0  0  0  0  0  0  0  0  0  0  0  0
   -4.4773    6.4705    1.8753 H   0  0  0  0  0  0  0  0  0  0  0  0
   -6.7522    7.3831    2.1148 H   0  0  0  0  0  0  0  0  0  0  0  0
   -8.4157    7.0718    0.3002 H   0  0  0  0  0  0  0  0  0  0  0  0
   -7.7833    5.8360   -1.7563 H   0  0  0  0  0  0  0  0  0  0  0  0
   -5.6259    4.6445   -1.8695 H   0  0  0  0  0  0  0  0  0  0  0  0
  1  2  1  0  0  0  0
  1 25  1  0  0  0  0
  1 26  1  0  0  0  0
  1 27  1  0  0  0  0
  2  3  2  0  0  0  0
  2  6  1  0  0  0  0
  3  4  1  0  0  0  0
  3 28  1  0  0  0  0
  4  5  2  0  0  0  0
  4 29  1  0  0  0  0
  5  7  1  0  0  0  0
  5 30  1  0  0  0  0
  6  7  2  0  0  0  0
  6  9  1  0  0  0  0
  7  8  1  0  0  0  0
  8 31  1  0  0  0  0
  8 32  1  0  0  0  0
  8 33  1  0  0  0  0
  9 10  1  0  0  0  0
  9 34  1  0  0  0  0
 10 11  1  0  0  0  0
 10 18  2  0  0  0  0
 11 12  2  0  0  0  0
 11 15  1  0  0  0  0
 12 13  1  0  0  0  0
 12 35  1  0  0  0  0
 13 14  2  0  0  0  0
 14 15  1  0  0  0  0
 14 36  1  0  0  0  0
 15 16  1  0  0  0  0
 16 17  2  0  0  0  0
 16 19  1  0  0  0  0
 17 18  1  0  0  0  0
 17 37  1  0  0  0  0
 19 20  2  0  0  0  0
 19 24  1  0  0  0  0
 20 21  1  0  0  0  0
 20 38  1  0  0  0  0
 21 22  2  0  0  0  0
 21 39  1  0  0  0  0
 22 23  1  0  0  0  0
 22 40  1  0  0  0  0
 23 24  2  0  0  0  0
 23 41  1  0  0  0  0
 24 42  1  0  0  0  0
M  END
>  <DRUGBANK_ID>
DB08056

>  <COMMON_NAME>
N-(2,6-dimethylphenyl)-5-phenylimidazo[1,5-a]pyrazin-8-amine

$$$$
