
 OpenBabel10282417233D

 71 75  0  0  1  0  0  0  0  0999 V2000
   -0.8665   -3.9289   -0.0753 C   0  0  0  0  0  0  0  0  0  0  0  0
   -0.8381   -3.5318    1.2832 O   0  0  0  0  0  0  0  0  0  0  0  0
   -2.0922   -3.5586    1.8145 C   0  0  0  0  0  0  0  0  0  0  0  0
   -2.8879   -4.7229    1.8620 C   0  0  0  0  0  0  0  0  0  0  0  0
   -3.9869   -4.8346    2.7212 C   0  0  0  0  0  0  0  0  0  0  0  0
   -4.4136   -3.7200    3.3960 C   0  0  0  0  0  0  0  0  0  0  0  0
   -3.8089   -2.4909    3.0903 C   0  0  0  0  0  0  0  0  0  0  0  0
   -2.5242   -2.4087    2.4299 C   0  0  0  0  0  0  0  0  0  0  0  0
   -1.6560   -1.1477    2.5984 C   0  0  2  0  0  0  0  0  0  0  0  0
   -0.2204   -0.8338    3.0572 C   0  0  0  0  0  0  0  0  0  0  0  0
    0.0843    0.2169    4.4579 N   0  0  0  0  0  0  0  0  0  0  0  0
   -0.8537    0.6479    5.7465 C   0  0  0  0  0  0  0  0  0  0  0  0
   -0.3721    0.7461    7.1420 C   0  0  0  0  0  0  0  0  0  0  0  0
   -1.8268    0.4246    8.2222 C   0  0  0  0  0  0  0  0  0  0  0  0
   -1.7654   -0.1563    9.6967 C   0  0  0  0  0  0  0  0  0  0  0  0
   -3.0334    0.0775    7.3312 C   0  0  0  0  0  0  0  0  0  0  0  0
   -1.5381   -0.6115    7.0530 S   0  0  0  0  0  0  0  0  0  0  0  0
   -4.3375   -0.7910    7.3278 C   0  0  0  0  0  0  0  0  0  0  0  0
   -4.5636   -2.0825    6.9675 N   0  0  0  0  0  0  0  0  0  0  0  0
   -5.9573   -2.2688    6.8720 C   0  0  0  0  0  0  0  0  0  0  0  0
   -6.5393   -1.0974    7.2586 C   0  0  0  0  0  0  0  0  0  0  0  0
   -5.5638   -0.1725    7.4927 O   0  0  0  0  0  0  0  0  0  0  0  0
    1.1399    0.4053    7.2713 C   0  0  0  0  0  0  0  0  0  0  0  0
    1.6089    0.1175    8.4145 O   0  0  0  0  0  0  0  0  0  0  0  0
    1.9494    0.2401    6.0373 N   0  0  0  0  0  0  0  0  0  0  0  0
    1.4453    0.0082    4.7581 C   0  0  0  0  0  0  0  0  0  0  0  0
    2.0887   -0.6748    3.9483 O   0  0  0  0  0  0  0  0  0  0  0  0
    3.4903    0.1474    6.1312 C   0  0  0  0  0  0  0  0  0  0  0  0
    3.7685    1.5333    6.7341 C   0  0  0  0  0  0  0  0  0  0  0  0
    4.0717   -0.9386    7.1017 C   0  0  0  0  0  0  0  0  0  0  0  0
    4.5571    0.1053    4.9029 C   0  0  0  0  0  0  0  0  0  0  0  0
    4.2291   -0.1710    3.6320 O   0  0  0  0  0  0  0  0  0  0  0  0
    5.7575    0.2946    5.1096 O   0  0  0  0  0  0  0  0  0  0  0  0
   -2.1449   -0.7780    3.8246 O   0  0  0  0  0  0  0  0  0  0  0  0
   -1.7444   -1.7139    4.8936 C   0  0  0  0  0  0  0  0  0  0  0  0
   -0.1796   -2.1278    5.4921 C   0  0  0  0  0  0  0  0  0  0  0  0
    0.0986   -2.7935    6.8600 C   0  0  0  0  0  0  0  0  0  0  0  0
   -0.6416   -3.9669    6.8467 O   0  0  0  0  0  0  0  0  0  0  0  0
   -2.0166   -3.6581    6.6227 C   0  0  0  0  0  0  0  0  0  0  0  0
   -2.3468   -2.9978    5.2918 C   0  0  0  0  0  0  0  0  0  0  0  0
    0.1488   -3.8398   -0.4628 H   0  0  0  0  0  0  0  0  0  0  0  0
   -1.5251   -3.2645   -0.6440 H   0  0  0  0  0  0  0  0  0  0  0  0
   -1.1772   -4.9709   -0.1747 H   0  0  0  0  0  0  0  0  0  0  0  0
   -2.6441   -5.5878    1.2613 H   0  0  0  0  0  0  0  0  0  0  0  0
   -4.5000   -5.7783    2.8746 H   0  0  0  0  0  0  0  0  0  0  0  0
   -5.0885   -3.8108    4.2537 H   0  0  0  0  0  0  0  0  0  0  0  0
   -4.1538   -1.6413    3.6946 H   0  0  0  0  0  0  0  0  0  0  0  0
   -1.8792   -0.5010    1.7394 H   0  0  0  0  0  0  0  0  0  0  0  0
    0.2462   -1.8219    3.2011 H   0  0  0  0  0  0  0  0  0  0  0  0
    0.3987   -0.4787    2.2233 H   0  0  0  0  0  0  0  0  0  0  0  0
   -1.0964   -1.0301    9.8209 H   0  0  0  0  0  0  0  0  0  0  0  0
   -1.4219    0.6732   10.2907 H   0  0  0  0  0  0  0  0  0  0  0  0
   -2.7657   -0.5130   10.0005 H   0  0  0  0  0  0  0  0  0  0  0  0
   -6.4850   -3.1847    6.5618 H   0  0  0  0  0  0  0  0  0  0  0  0
   -7.5500   -0.7517    7.4084 H   0  0  0  0  0  0  0  0  0  0  0  0
    3.2903    1.6467    7.7094 H   0  0  0  0  0  0  0  0  0  0  0  0
    4.8255    1.7508    6.8670 H   0  0  0  0  0  0  0  0  0  0  0  0
    3.3269    2.2845    6.0669 H   0  0  0  0  0  0  0  0  0  0  0  0
    3.9952   -1.9580    6.7035 H   0  0  0  0  0  0  0  0  0  0  0  0
    5.1502   -0.7674    7.2690 H   0  0  0  0  0  0  0  0  0  0  0  0
    3.6373   -0.9323    8.1013 H   0  0  0  0  0  0  0  0  0  0  0  0
    3.3253   -0.5164    3.4594 H   0  0  0  0  0  0  0  0  0  0  0  0
   -2.4827   -1.0586    5.3551 H   0  0  0  0  0  0  0  0  0  0  0  0
    0.3788   -2.6850    4.7580 H   0  0  0  0  0  0  0  0  0  0  0  0
    0.4013   -1.3029    5.7477 H   0  0  0  0  0  0  0  0  0  0  0  0
    1.1912   -2.8779    6.9744 H   0  0  0  0  0  0  0  0  0  0  0  0
   -0.1039   -2.2538    7.8055 H   0  0  0  0  0  0  0  0  0  0  0  0
   -2.4338   -3.1390    7.4938 H   0  0  0  0  0  0  0  0  0  0  0  0
   -2.5175   -4.6100    6.5421 H   0  0  0  0  0  0  0  0  0  0  0  0
   -3.4050   -2.8356    5.3123 H   0  0  0  0  0  0  0  0  0  0  0  0
   -1.9401   -3.6361    4.5295 H   0  0  0  0  0  0  0  0  0  0  0  0
  1  2  1  0  0  0  0
  1 41  1  0  0  0  0
  1 42  1  0  0  0  0
  1 43  1  0  0  0  0
  2  3  1  0  0  0  0
  3  4  2  0  0  0  0
  3  8  1  0  0  0  0
  4  5  1  0  0  0  0
  4 44  1  0  0  0  0
  5  6  2  0  0  0  0
  5 45  1  0  0  0  0
  6  7  1  0  0  0  0
  6 46  1  0  0  0  0
  7  8  2  0  0  0  0
  7 47  1  0  0  0  0
  9 34  1  0  0  0  0
  9 48  1  6  0  0  0
  9 10  1  0  0  0  0
  9  8  1  0  0  0  0
 10 11  1  0  0  0  0
 10 49  1  0  0  0  0
 10 50  1  0  0  0  0
 11 12  1  0  0  0  0
 11 26  1  0  0  0  0
 12 13  2  0  0  0  0
 12 17  1  0  0  0  0
 13 14  1  0  0  0  0
 13 23  1  0  0  0  0
 14 15  1  0  0  0  0
 14 16  2  0  0  0  0
 15 51  1  0  0  0  0
 15 52  1  0  0  0  0
 15 53  1  0  0  0  0
 16 17  1  0  0  0  0
 16 18  1  0  0  0  0
 18 19  2  0  0  0  0
 18 22  1  0  0  0  0
 19 20  1  0  0  0  0
 20 21  2  0  0  0  0
 20 54  1  0  0  0  0
 21 22  1  0  0  0  0
 21 55  1  0  0  0  0
 23 24  2  0  0  0  0
 23 25  1  0  0  0  0
 25 26  1  0  0  0  0
 25 28  1  0  0  0  0
 26 27  2  0  0  0  0
 28 29  1  0  0  0  0
 28 30  1  0  0  0  0
 28 31  1  0  0  0  0
 29 56  1  0  0  0  0
 29 57  1  0  0  0  0
 29 58  1  0  0  0  0
 30 59  1  0  0  0  0
 30 60  1  0  0  0  0
 30 61  1  0  0  0  0
 31 32  1  0  0  0  0
 31 33  2  0  0  0  0
 32 62  1  0  0  0  0
 34 35  1  0  0  0  0
 35 36  1  0  0  0  0
 35 40  1  0  0  0  0
 35 63  1  0  0  0  0
 36 37  1  0  0  0  0
 36 64  1  0  0  0  0
 36 65  1  0  0  0  0
 37 38  1  0  0  0  0
 37 66  1  0  0  0  0
 37 67  1  0  0  0  0
 38 39  1  0  0  0  0
 39 40  1  0  0  0  0
 39 68  1  0  0  0  0
 39 69  1  0  0  0  0
 40 70  1  0  0  0  0
 40 71  1  0  0  0  0
M  END
>  <DRUGBANK_ID>
DB16166

>  <COMMON_NAME>
Firsocostat

>  <CAS_NUMBER>
1434635-54-7

>  <UNII>
XE10NJQ95M

>  <SYNONYMS>
Firsocostat

$$$$
