
 OpenBabel10282417173D

 59 63  0  0  0  0  0  0  0  0999 V2000
   -2.5051   -0.2772    1.8263 C   0  0  2  0  0  0  0  0  0  0  0  0
    1.6801    2.6617   -5.0534 C   0  0  0  0  0  0  0  0  0  0  0  0
   -0.7035   -0.3002    3.5281 C   0  0  2  0  0  0  0  0  0  0  0  0
   -0.6938    2.8684   -5.6105 C   0  0  0  0  0  0  0  0  0  0  0  0
    0.3660    2.1873   -4.9752 C   0  0  0  0  0  0  0  0  0  0  0  0
   -2.7393    0.4810   -1.0985 C   0  0  1  0  0  0  0  0  0  0  0  0
   -2.0872    0.9456    0.7214 C   0  0  2  0  0  0  0  0  0  0  0  0
   -0.4633    1.0833    3.1183 O   0  0  0  0  0  0  0  0  0  0  0  0
   -0.5234    1.1591    1.5802 C   0  0  1  0  0  0  0  0  0  0  0  0
   -0.3180   -1.0919    2.2719 C   0  0  1  0  0  0  0  0  0  0  0  0
   -3.5817   -0.9260    1.0758 C   0  0  0  0  0  0  0  0  0  0  0  0
   -2.3940   -0.1423    3.3951 C   0  0  0  0  0  0  0  0  0  0  0  0
    2.8240    1.9718   -4.3939 C   0  0  0  0  0  0  0  0  0  0  0  0
   -2.0328    2.4344   -5.4002 N   0  0  0  0  0  0  0  0  0  0  0  0
   -4.2822    0.4580   -0.6216 C   0  0  0  0  0  0  0  0  0  0  0  0
   -1.6449   -1.5774    1.9009 C   0  0  0  0  0  0  0  0  0  0  0  0
   -4.5917   -0.5069    0.4530 C   0  0  0  0  0  0  0  0  0  0  0  0
    0.3089   -0.0684    1.3477 C   0  0  0  0  0  0  0  0  0  0  0  0
    1.9338    3.8188   -5.8083 C   0  0  0  0  0  0  0  0  0  0  0  0
   -3.5392    0.5967   -2.7972 C   0  0  0  0  0  0  0  0  0  0  0  0
   -2.4457    2.2560   -4.0880 C   0  0  0  0  0  0  0  0  0  0  0  0
   -0.4160    3.9954   -6.3940 C   0  0  0  0  0  0  0  0  0  0  0  0
    3.9925    2.3034   -4.4562 O   0  0  0  0  0  0  0  0  0  0  0  0
    0.8921    4.4834   -6.4777 C   0  0  0  0  0  0  0  0  0  0  0  0
   -5.2703    0.9540   -1.1499 O   0  0  0  0  0  0  0  0  0  0  0  0
   -1.7420    2.4787   -3.0976 O   0  0  0  0  0  0  0  0  0  0  0  0
   -3.8094    1.7221   -3.8194 C   0  0  0  0  0  0  0  0  0  0  0  0
    0.0652    0.9949   -4.3520 O   0  0  0  0  0  0  0  0  0  0  0  0
    2.4457    0.8846   -3.6812 O   0  0  0  0  0  0  0  0  0  0  0  0
    0.5062   -1.0095    4.4612 C   0  0  0  0  0  0  0  0  0  0  0  0
   -1.4402    4.6472   -7.0285 O   0  0  0  0  0  0  0  0  0  0  0  0
   -2.0857   -0.9066   -1.6566 C   0  0  0  0  0  0  0  0  0  0  0  0
    0.2890   -1.9976    2.3899 H   0  0  0  0  0  0  0  0  0  0  0  0
   -2.6689    1.8424    1.0437 H   0  0  0  0  0  0  0  0  0  0  0  0
   -0.0437    2.1355    1.4514 H   0  0  0  0  0  0  0  0  0  0  0  0
   -2.8439   -1.1640    0.2990 H   0  0  0  0  0  0  0  0  0  0  0  0
   -2.8489    0.8254    3.6800 H   0  0  0  0  0  0  0  0  0  0  0  0
   -3.0691   -0.9140    3.8213 H   0  0  0  0  0  0  0  0  0  0  0  0
   -2.6960    2.6025   -6.1489 H   0  0  0  0  0  0  0  0  0  0  0  0
   -2.0381   -2.2341    2.7138 H   0  0  0  0  0  0  0  0  0  0  0  0
   -1.6103   -2.2685    1.0642 H   0  0  0  0  0  0  0  0  0  0  0  0
   -4.9878   -1.3197   -0.1687 H   0  0  0  0  0  0  0  0  0  0  0  0
    1.3500    0.0745    1.6722 H   0  0  0  0  0  0  0  0  0  0  0  0
    0.2570   -0.3294    0.3035 H   0  0  0  0  0  0  0  0  0  0  0  0
    2.9507    4.2009   -5.8939 H   0  0  0  0  0  0  0  0  0  0  0  0
   -2.9784   -0.0757   -3.4816 H   0  0  0  0  0  0  0  0  0  0  0  0
   -4.4731   -0.0258   -2.8239 H   0  0  0  0  0  0  0  0  0  0  0  0
    1.1238    5.3825   -7.0445 H   0  0  0  0  0  0  0  0  0  0  0  0
   -4.2635    1.3252   -4.7586 H   0  0  0  0  0  0  0  0  0  0  0  0
   -4.5085    2.4633   -3.4403 H   0  0  0  0  0  0  0  0  0  0  0  0
    0.8274    0.7560   -3.7880 H   0  0  0  0  0  0  0  0  0  0  0  0
    3.2779    0.5069   -3.3199 H   0  0  0  0  0  0  0  0  0  0  0  0
    1.4731   -0.8095    3.9318 H   0  0  0  0  0  0  0  0  0  0  0  0
    0.7684   -0.6863    5.4769 H   0  0  0  0  0  0  0  0  0  0  0  0
    0.5410   -2.1312    4.4646 H   0  0  0  0  0  0  0  0  0  0  0  0
   -1.0899    5.4416   -7.4691 H   0  0  0  0  0  0  0  0  0  0  0  0
   -1.8466   -1.7238   -0.9914 H   0  0  0  0  0  0  0  0  0  0  0  0
   -2.7662   -1.4726   -2.3344 H   0  0  0  0  0  0  0  0  0  0  0  0
   -1.2070   -0.6603   -2.2620 H   0  0  0  0  0  0  0  0  0  0  0  0
  1 11  1  6  0  0  0
  1 16  1  0  0  0  0
  2  5  1  0  0  0  0
  2 19  2  0  0  0  0
  3 12  1  0  0  0  0
  3  8  1  0  0  0  0
  3 30  1  1  0  0  0
  4 14  1  0  0  0  0
  5  4  2  0  0  0  0
  6  7  1  0  0  0  0
  6 32  1  1  0  0  0
  6 20  1  0  0  0  0
  7  1  1  0  0  0  0
  7 34  1  1  0  0  0
  8  9  1  0  0  0  0
  9  7  1  0  0  0  0
  9 18  1  0  0  0  0
  9 35  1  6  0  0  0
 10 16  1  0  0  0  0
 10  3  1  0  0  0  0
 10 33  1  1  0  0  0
 11 36  1  0  0  0  0
 12  1  1  0  0  0  0
 12 37  1  0  0  0  0
 12 38  1  0  0  0  0
 13  2  1  0  0  0  0
 14 21  1  0  0  0  0
 14 39  1  0  0  0  0
 15 17  1  0  0  0  0
 15  6  1  0  0  0  0
 16 40  1  0  0  0  0
 16 41  1  0  0  0  0
 17 11  2  0  0  0  0
 17 42  1  0  0  0  0
 18 10  1  0  0  0  0
 18 43  1  0  0  0  0
 18 44  1  0  0  0  0
 19 24  1  0  0  0  0
 19 45  1  0  0  0  0
 20 46  1  0  0  0  0
 20 47  1  0  0  0  0
 21 27  1  0  0  0  0
 22  4  1  0  0  0  0
 23 13  2  0  0  0  0
 24 22  2  0  0  0  0
 24 48  1  0  0  0  0
 25 15  2  0  0  0  0
 26 21  2  0  0  0  0
 27 20  1  0  0  0  0
 27 49  1  0  0  0  0
 27 50  1  0  0  0  0
 28  5  1  0  0  0  0
 28 51  1  0  0  0  0
 29 13  1  0  0  0  0
 29 52  1  0  0  0  0
 30 53  1  0  0  0  0
 30 54  1  0  0  0  0
 30 55  1  0  0  0  0
 31 22  1  0  0  0  0
 31 56  1  0  0  0  0
 32 57  1  0  0  0  0
 32 58  1  0  0  0  0
 32 59  1  0  0  0  0
M  END
>  <DRUGBANK_ID>
DB08407

>  <COMMON_NAME>
Platensimycin

>  <CAS_NUMBER>
835876-32-9

>  <UNII>
Q3DQ78KOFY

>  <SYNONYMS>
(âˆ’)-platensimycin

$$$$
