
 OpenBabel10282417123D

 66 68  0  0  1  0  0  0  0  0999 V2000
    1.2910    2.4690    0.9355 C   0  0  0  0  0  0  0  0  0  0  0  0
   -3.8605   -8.3450   -0.6824 C   0  0  0  0  0  0  0  0  0  0  0  0
   -4.4510   -1.9191    2.8891 C   0  0  0  0  0  0  0  0  0  0  0  0
    0.4376    1.3251    0.3907 C   0  0  2  0  0  0  0  0  0  0  0  0
   -3.1015   -8.6234    0.6283 C   0  0  2  0  0  0  0  0  0  0  0  0
   -3.2998   -2.8872    2.5959 C   0  0  2  0  0  0  0  0  0  0  0  0
   -0.3167    1.7426   -0.8776 C   0  0  2  0  0  0  0  0  0  0  0  0
   -1.0443    0.5268   -1.4418 C   0  0  1  0  0  0  0  0  0  0  0  0
   -1.5045   -7.5911    2.3195 C   0  0  2  0  0  0  0  0  0  0  0  0
   -1.2838   -3.2403    1.1136 C   0  0  2  0  0  0  0  0  0  0  0  0
   -0.5435   -8.7279    2.0178 C   0  0  2  0  0  0  0  0  0  0  0  0
   -1.9084   -0.1389   -0.3785 C   0  0  2  0  0  0  0  0  0  0  0  0
   -1.9001   -4.5405    0.6749 C   0  0  2  0  0  0  0  0  0  0  0  0
   -2.4430   -7.3327    1.1198 C   0  0  2  0  0  0  0  0  0  0  0  0
   -2.3726   -2.2586    1.5530 C   0  0  2  0  0  0  0  0  0  0  0  0
   -1.3028   -9.9414    1.4731 C   0  0  2  0  0  0  0  0  0  0  0  0
   -1.0705   -0.3776    0.9234 C   0  0  1  0  0  0  0  0  0  0  0  0
   -2.8449   -5.0726    1.7788 C   0  0  1  0  0  0  0  0  0  0  0  0
    2.6683    2.2253    0.6280 O   0  0  0  0  0  0  0  0  0  0  0  0
   -4.4268   -9.5517   -1.1868 O   0  0  0  0  0  0  0  0  0  0  0  0
   -5.3508   -2.5025    3.8265 O   0  0  0  0  0  0  0  0  0  0  0  0
    0.5852    2.2825   -1.8436 O   0  0  0  0  0  0  0  0  0  0  0  0
   -1.8456    0.8804   -2.5742 O   0  0  0  0  0  0  0  0  0  0  0  0
   -0.6966   -6.4343    2.6581 O   0  0  0  0  0  0  0  0  0  0  0  0
   -0.4927   -2.7986   -0.0240 O   0  0  0  0  0  0  0  0  0  0  0  0
    0.2182   -9.0038    3.1997 O   0  0  0  0  0  0  0  0  0  0  0  0
   -2.4759   -1.2982   -1.0294 O   0  0  0  0  0  0  0  0  0  0  0  0
   -0.7583   -5.3276    0.2697 O   0  0  0  0  0  0  0  0  0  0  0  0
   -0.3861  -10.9497    1.0838 O   0  0  0  0  0  0  0  0  0  0  0  0
   -2.0839   -9.6021    0.3347 O   0  0  0  0  0  0  0  0  0  0  0  0
   -0.5211    0.8749    1.3658 O   0  0  0  0  0  0  0  0  0  0  0  0
   -3.8741   -4.1030    2.0407 O   0  0  0  0  0  0  0  0  0  0  0  0
   -3.4268   -6.3246    1.3965 O   0  0  0  0  0  0  0  0  0  0  0  0
   -1.8346   -0.9983    1.9678 O   0  0  0  0  0  0  0  0  0  0  0  0
    1.1237    0.4987    0.1445 H   0  0  0  0  0  0  0  0  0  0  0  0
   -3.7951   -9.0396    1.3666 H   0  0  0  0  0  0  0  0  0  0  0  0
   -2.7815   -3.1285    3.5327 H   0  0  0  0  0  0  0  0  0  0  0  0
   -1.0624    2.5104   -0.6400 H   0  0  0  0  0  0  0  0  0  0  0  0
   -0.3159   -0.1992   -1.8261 H   0  0  0  0  0  0  0  0  0  0  0  0
   -2.1117   -7.8014    3.2091 H   0  0  0  0  0  0  0  0  0  0  0  0
   -0.5709   -3.3942    1.9360 H   0  0  0  0  0  0  0  0  0  0  0  0
    0.1885   -8.3825    1.2756 H   0  0  0  0  0  0  0  0  0  0  0  0
   -2.7604    0.4902   -0.1101 H   0  0  0  0  0  0  0  0  0  0  0  0
   -2.4817   -4.4006   -0.2450 H   0  0  0  0  0  0  0  0  0  0  0  0
   -1.8512   -7.0383    0.2568 H   0  0  0  0  0  0  0  0  0  0  0  0
   -3.0594   -2.0997    0.7309 H   0  0  0  0  0  0  0  0  0  0  0  0
   -1.9463  -10.3689    2.2484 H   0  0  0  0  0  0  0  0  0  0  0  0
   -0.1816   -0.9830    0.7745 H   0  0  0  0  0  0  0  0  0  0  0  0
   -2.3685   -5.1990    2.7473 H   0  0  0  0  0  0  0  0  0  0  0  0
    1.2003    2.5516    2.0207 H   0  0  0  0  0  0  0  0  0  0  0  0
    1.0162    3.4313    0.4930 H   0  0  0  0  0  0  0  0  0  0  0  0
   -4.6662   -7.6194   -0.5366 H   0  0  0  0  0  0  0  0  0  0  0  0
   -3.1862   -7.9584   -1.4568 H   0  0  0  0  0  0  0  0  0  0  0  0
   -4.0834   -0.9740    3.2997 H   0  0  0  0  0  0  0  0  0  0  0  0
   -5.0202   -1.7055    1.9771 H   0  0  0  0  0  0  0  0  0  0  0  0
    2.7539    2.2488   -0.3417 H   0  0  0  0  0  0  0  0  0  0  0  0
   -3.6828  -10.1795   -1.2619 H   0  0  0  0  0  0  0  0  0  0  0  0
   -5.6131   -3.3569    3.4341 H   0  0  0  0  0  0  0  0  0  0  0  0
    1.0663    1.5477   -2.2596 H   0  0  0  0  0  0  0  0  0  0  0  0
   -2.6554    1.3119   -2.2440 H   0  0  0  0  0  0  0  0  0  0  0  0
    0.2438   -6.6761    2.5584 H   0  0  0  0  0  0  0  0  0  0  0  0
   -0.6083   -3.4509   -0.7389 H   0  0  0  0  0  0  0  0  0  0  0  0
   -0.3980   -9.2665    3.9089 H   0  0  0  0  0  0  0  0  0  0  0  0
   -1.7626   -1.7799   -1.4469 H   0  0  0  0  0  0  0  0  0  0  0  0
   -0.1241   -5.2982    1.0134 H   0  0  0  0  0  0  0  0  0  0  0  0
    0.2988  -10.5126    0.5506 H   0  0  0  0  0  0  0  0  0  0  0  0
  1 50  1  0  0  0  0
  1 51  1  0  0  0  0
  2 52  1  0  0  0  0
  2 53  1  0  0  0  0
  3 54  1  0  0  0  0
  3 55  1  0  0  0  0
  4 35  1  6  0  0  0
  4  1  1  0  0  0  0
  5  2  1  0  0  0  0
  5 36  1  1  0  0  0
  6  3  1  0  0  0  0
  6 37  1  1  0  0  0
  7  4  1  0  0  0  0
  7 22  1  0  0  0  0
  7 38  1  1  0  0  0
  8  7  1  0  0  0  0
  8 23  1  0  0  0  0
  8 39  1  6  0  0  0
  9 24  1  0  0  0  0
  9 40  1  1  0  0  0
 10 25  1  0  0  0  0
 10 41  1  1  0  0  0
 11  9  1  0  0  0  0
 11 26  1  0  0  0  0
 11 42  1  6  0  0  0
 12  8  1  0  0  0  0
 12 27  1  0  0  0  0
 12 43  1  1  0  0  0
 13 10  1  0  0  0  0
 13 28  1  0  0  0  0
 13 44  1  6  0  0  0
 14  5  1  0  0  0  0
 14  9  1  0  0  0  0
 14 33  1  0  0  0  0
 14 45  1  6  0  0  0
 15  6  1  0  0  0  0
 15 10  1  0  0  0  0
 15 34  1  0  0  0  0
 15 46  1  6  0  0  0
 16 11  1  0  0  0  0
 16 29  1  0  0  0  0
 16 47  1  1  0  0  0
 17 12  1  0  0  0  0
 17 34  1  0  0  0  0
 17 48  1  6  0  0  0
 18 13  1  0  0  0  0
 18 33  1  0  0  0  0
 18 49  1  1  0  0  0
 19  1  1  0  0  0  0
 19 56  1  0  0  0  0
 20  2  1  0  0  0  0
 20 57  1  0  0  0  0
 21  3  1  0  0  0  0
 21 58  1  0  0  0  0
 22 59  1  0  0  0  0
 23 60  1  0  0  0  0
 24 61  1  0  0  0  0
 25 62  1  0  0  0  0
 26 63  1  0  0  0  0
 27 64  1  0  0  0  0
 28 65  1  0  0  0  0
 29 66  1  0  0  0  0
 30  5  1  0  0  0  0
 30 16  1  0  0  0  0
 31  4  1  0  0  0  0
 31 17  1  0  0  0  0
 32  6  1  0  0  0  0
 32 18  1  0  0  0  0
M  END
>  <DRUGBANK_ID>
DB01697

>  <SECONDARY_ACCESSION_NUMBERS>
EXPT01054

>  <COMMON_NAME>
beta-cellotriose

>  <SYNONYMS>
Î²-cellotriose

$$$$
