
 OpenBabel10282417213D

  6  3  0  0  0  0  0  0  0  0999 V2000
    1.3508   -0.8731    0.5012 O   0  5  0  0  0  0  0  0  0  0  0  0
    3.0341   -1.1237   -0.5209 O   0  5  0  0  0  0  0  0  0  0  0  0
    2.5137   -0.4860    0.3952 C   0  0  0  0  0  0  0  0  0  0  0  0
    2.8780    0.6140    0.7604 O   0  0  0  0  0  0  0  0  0  0  0  0
   -0.5824    0.5406    0.5326 K   0  3  0  0  0  0  0  0  0  0  0  0
    2.2223    0.9715   -1.6955 K   0  3  0  0  0  0  0  0  0  0  0  0
  3  1  1  0  0  0  0
  3  2  1  0  0  0  0
  3  4  2  0  0  0  0
M  CHG  4   1  -1   2  -1   5   1   6   1
M  END
>  <DRUGBANK_ID>
DB13977

>  <COMMON_NAME>
Potassium carbonate

>  <CAS_NUMBER>
584-08-7

>  <UNII>
BQN1B9B9HA

>  <SYNONYMS>
Carbonate of potash; Carbonic acid, dipotassium salt; Dipotassium carbonate; Kaliumcarbonat; Potash, sulfurated; Potassium carbonate; Potassium carbonate, anhydrous

$$$$
