
 OpenBabel10282417113D

 68 71  0  0  0  0  0  0  0  0999 V2000
    0.3319    2.0339    0.0069 C   0  0  0  0  0  0  0  0  0  0  0  0
   -1.0793    2.1240   -0.5525 C   0  0  0  0  0  0  0  0  0  0  0  0
   -1.9410    0.9368   -0.2003 C   0  0  0  0  0  0  0  0  0  0  0  0
   -3.1913    1.1412    0.2511 C   0  0  0  0  0  0  0  0  0  0  0  0
   -3.7123   -1.3357   -0.0956 C   0  0  0  0  0  0  0  0  0  0  0  0
   -2.2340   -1.5427    0.2132 C   0  0  0  0  0  0  0  0  0  0  0  0
   -1.3251   -0.4527   -0.4207 C   0  0  1  0  0  0  0  0  0  0  0  0
   -1.2189   -0.7153   -1.9412 C   0  0  0  0  0  0  0  0  0  0  0  0
    2.2593   -1.8307    0.7746 C   0  0  0  0  0  0  0  0  0  0  0  0
    4.7058    1.0691    0.4374 C   0  0  0  0  0  0  0  0  0  0  0  0
    3.3642    1.6762    0.0425 C   0  0  0  0  0  0  0  0  0  0  0  0
    0.0902   -0.4721    0.2744 C   0  0  2  0  0  0  0  0  0  0  0  0
   -0.0783   -0.2537    1.3422 H   0  0  0  0  0  0  0  0  0  0  0  0
    2.3602    0.5995    0.3999 C   0  0  1  0  0  0  0  0  0  0  0  0
    2.2005    0.6811    1.4874 H   0  0  0  0  0  0  0  0  0  0  0  0
    0.9900    0.6762   -0.2647 C   0  0  2  0  0  0  0  0  0  0  0  0
    1.1206    0.5748   -1.3476 H   0  0  0  0  0  0  0  0  0  0  0  0
    3.0928   -0.7258    0.1043 C   0  0  2  0  0  0  0  0  0  0  0  0
    3.2792   -1.0321   -1.4020 C   0  0  0  0  0  0  0  0  0  0  0  0
    4.4731   -0.4290    0.7468 C   0  0  1  0  0  0  0  0  0  0  0  0
    4.3995   -0.5358    1.8401 H   0  0  0  0  0  0  0  0  0  0  0  0
   -4.1494    0.0211    0.3909 C   0  0  0  0  0  0  0  0  0  0  0  0
   -5.2891    0.2449    0.7900 O   0  0  0  0  0  0  0  0  0  0  0  0
    0.8040   -1.8521    0.2568 C   0  0  0  0  0  0  0  0  0  0  0  0
    5.5798   -1.3993    0.3139 C   0  0  0  0  0  0  0  0  0  0  0  0
    5.4681   -2.6090    0.5497 O   0  0  0  0  0  0  0  0  0  0  0  0
    6.8348   -0.8832   -0.3978 C   0  0  0  0  0  0  0  0  0  0  0  0
    8.0435   -1.1916    0.2930 O   0  0  0  0  0  0  0  0  0  0  0  0
    8.1163   -0.6252    1.5312 C   0  0  0  0  0  0  0  0  0  0  0  0
    7.2377    0.0882    2.0082 O   0  0  0  0  0  0  0  0  0  0  0  0
    9.4240   -0.9593    2.2374 C   0  0  0  0  0  0  0  0  0  0  0  0
    9.5748   -2.4775    2.3662 C   0  0  0  0  0  0  0  0  0  0  0  0
   10.6030   -0.3756    1.4524 C   0  0  0  0  0  0  0  0  0  0  0  0
    9.4018   -0.3365    3.6423 C   0  0  0  0  0  0  0  0  0  0  0  0
    0.9306    2.8350   -0.4424 H   0  0  0  0  0  0  0  0  0  0  0  0
    0.3082    2.2215    1.0874 H   0  0  0  0  0  0  0  0  0  0  0  0
   -1.0303    2.2004   -1.6455 H   0  0  0  0  0  0  0  0  0  0  0  0
   -1.5317    3.0588   -0.2002 H   0  0  0  0  0  0  0  0  0  0  0  0
   -3.5960    2.1285    0.4446 H   0  0  0  0  0  0  0  0  0  0  0  0
   -4.3057   -2.1008    0.4145 H   0  0  0  0  0  0  0  0  0  0  0  0
   -3.9208   -1.4038   -1.1684 H   0  0  0  0  0  0  0  0  0  0  0  0
   -2.1094   -1.5354    1.3049 H   0  0  0  0  0  0  0  0  0  0  0  0
   -1.9366   -2.5401   -0.1319 H   0  0  0  0  0  0  0  0  0  0  0  0
   -0.6112    0.0336   -2.4573 H   0  0  0  0  0  0  0  0  0  0  0  0
   -0.7761   -1.6935   -2.1506 H   0  0  0  0  0  0  0  0  0  0  0  0
   -2.2008   -0.6942   -2.4249 H   0  0  0  0  0  0  0  0  0  0  0  0
    2.2366   -1.6733    1.8615 H   0  0  0  0  0  0  0  0  0  0  0  0
    2.7140   -2.8147    0.6149 H   0  0  0  0  0  0  0  0  0  0  0  0
    5.3710    1.2640   -0.3997 H   0  0  0  0  0  0  0  0  0  0  0  0
    5.1285    1.5741    1.3124 H   0  0  0  0  0  0  0  0  0  0  0  0
    3.3545    1.8994   -1.0309 H   0  0  0  0  0  0  0  0  0  0  0  0
    3.1855    2.6141    0.5765 H   0  0  0  0  0  0  0  0  0  0  0  0
    3.7817   -0.2138   -1.9267 H   0  0  0  0  0  0  0  0  0  0  0  0
    3.8886   -1.9314   -1.5470 H   0  0  0  0  0  0  0  0  0  0  0  0
    2.3360   -1.2183   -1.9193 H   0  0  0  0  0  0  0  0  0  0  0  0
    0.2411   -2.5555    0.8824 H   0  0  0  0  0  0  0  0  0  0  0  0
    0.7973   -2.2724   -0.7522 H   0  0  0  0  0  0  0  0  0  0  0  0
    6.8578   -1.3595   -1.3850 H   0  0  0  0  0  0  0  0  0  0  0  0
    6.8399    0.1830   -0.6042 H   0  0  0  0  0  0  0  0  0  0  0  0
    9.6102   -2.9642    1.3853 H   0  0  0  0  0  0  0  0  0  0  0  0
   10.4985   -2.7328    2.8969 H   0  0  0  0  0  0  0  0  0  0  0  0
    8.7343   -2.9122    2.9185 H   0  0  0  0  0  0  0  0  0  0  0  0
   10.5092    0.7110    1.3454 H   0  0  0  0  0  0  0  0  0  0  0  0
   11.5504   -0.5841    1.9620 H   0  0  0  0  0  0  0  0  0  0  0  0
   10.6672   -0.8003    0.4446 H   0  0  0  0  0  0  0  0  0  0  0  0
    9.2891    0.7532    3.5911 H   0  0  0  0  0  0  0  0  0  0  0  0
    8.5629   -0.7230    4.2331 H   0  0  0  0  0  0  0  0  0  0  0  0
   10.3263   -0.5529    4.1871 H   0  0  0  0  0  0  0  0  0  0  0  0
  1  2  1  0  0  0  0
  1 35  1  0  0  0  0
  1 36  1  0  0  0  0
  2  3  1  0  0  0  0
  2 37  1  0  0  0  0
  2 38  1  0  0  0  0
  3  4  2  0  0  0  0
  3  7  1  0  0  0  0
  4 22  1  0  0  0  0
  4 39  1  0  0  0  0
  5  6  1  0  0  0  0
  5 40  1  0  0  0  0
  5 41  1  0  0  0  0
  6  7  1  0  0  0  0
  6 42  1  0  0  0  0
  6 43  1  0  0  0  0
  7  8  1  6  0  0  0
  7 12  1  0  0  0  0
  8 44  1  0  0  0  0
  8 45  1  0  0  0  0
  8 46  1  0  0  0  0
  9 18  1  0  0  0  0
  9 47  1  0  0  0  0
  9 48  1  0  0  0  0
 10 11  1  0  0  0  0
 10 49  1  0  0  0  0
 10 50  1  0  0  0  0
 11 14  1  0  0  0  0
 11 51  1  0  0  0  0
 11 52  1  0  0  0  0
 12 24  1  0  0  0  0
 12 13  1  1  0  0  0
 14 15  1  1  0  0  0
 16  1  1  0  0  0  0
 16 12  1  0  0  0  0
 16 14  1  0  0  0  0
 16 17  1  6  0  0  0
 18 20  1  0  0  0  0
 18 14  1  0  0  0  0
 18 19  1  6  0  0  0
 19 53  1  0  0  0  0
 19 54  1  0  0  0  0
 19 55  1  0  0  0  0
 20 10  1  0  0  0  0
 20 21  1  1  0  0  0
 20 25  1  0  0  0  0
 22  5  1  0  0  0  0
 22 23  2  0  0  0  0
 24  9  1  0  0  0  0
 24 56  1  0  0  0  0
 24 57  1  0  0  0  0
 25 27  1  0  0  0  0
 25 26  2  0  0  0  0
 27 28  1  0  0  0  0
 27 58  1  0  0  0  0
 27 59  1  0  0  0  0
 28 29  1  0  0  0  0
 29 30  2  0  0  0  0
 29 31  1  0  0  0  0
 31 32  1  0  0  0  0
 31 33  1  0  0  0  0
 31 34  1  0  0  0  0
 32 60  1  0  0  0  0
 32 61  1  0  0  0  0
 32 62  1  0  0  0  0
 33 63  1  0  0  0  0
 33 64  1  0  0  0  0
 33 65  1  0  0  0  0
 34 66  1  0  0  0  0
 34 67  1  0  0  0  0
 34 68  1  0  0  0  0
M  END
>  <DRUGBANK_ID>
DB01134

>  <SECONDARY_ACCESSION_NUMBERS>
APRD00709

>  <COMMON_NAME>
Desoxycorticosterone pivalate

>  <CAS_NUMBER>
808-48-0

>  <UNII>
16665T4A2X

>  <SYNONYMS>
11-deoxycorticosterone pivalate; Deoxycorticosterone pivalate; Deoxycorticosterone trimethylacetate; Deoxycortone pivalate; Deoxycortone trimethylacetate; Desoxycorticosterone pivalate; Desoxycorticosterone trimethylacetate; Desoxycortone pivalate; DOCP; DTMA

$$$$
