
 OpenBabel10282417203D

 32 32  0  0  0  0  0  0  0  0999 V2000
    1.7245    0.0988   -0.4004 C   0  0  0  0  0  0  0  0  0  0  0  0
    0.9399   -1.8167    0.1010 C   0  0  0  0  0  0  0  0  0  0  0  0
    1.4624   -2.5798    1.2318 O   0  0  0  0  0  0  0  0  0  0  0  0
    2.9059   -2.1182    0.8411 P   0  0  0  0  0  0  0  0  0  0  0  0
    3.0813   -2.4963   -0.6120 O   0  0  0  0  0  0  0  0  0  0  0  0
    2.4490   -0.6432    1.4521 O   0  0  0  0  0  0  0  0  0  0  0  0
    0.7926   -0.1167    1.5482 C   0  0  0  0  0  0  0  0  0  0  0  0
   -0.3747   -0.1627   -0.1198 C   0  0  0  0  0  0  0  0  0  0  0  0
    4.1738   -2.2986    1.7327 O   0  0  0  0  0  0  0  0  0  0  0  0
    5.0684   -3.2994    1.7001 C   0  0  0  0  0  0  0  0  0  0  0  0
    4.7515   -4.5793    1.2803 C   0  0  0  0  0  0  0  0  0  0  0  0
    5.6029   -5.6207    1.6309 C   0  0  0  0  0  0  0  0  0  0  0  0
    6.7914   -5.3414    2.3205 C   0  0  0  0  0  0  0  0  0  0  0  0
    7.1752   -4.0210    2.5766 C   0  0  0  0  0  0  0  0  0  0  0  0
    6.2812   -2.9978    2.3091 C   0  0  0  0  0  0  0  0  0  0  0  0
    7.6087   -6.4383    2.8500 N   0  3  0  0  0  0  0  0  0  0  0  0
    8.6279   -6.1400    3.4897 O   0  5  0  0  0  0  0  0  0  0  0  0
    7.2132   -7.5963    2.6578 O   0  0  0  0  0  0  0  0  0  0  0  0
    1.2146    1.0834    0.1837 H   0  0  0  0  0  0  0  0  0  0  0  0
    1.3195    0.7327   -1.2238 H   0  0  0  0  0  0  0  0  0  0  0  0
    2.7721    0.2309   -0.3895 H   0  0  0  0  0  0  0  0  0  0  0  0
   -0.1975   -1.9719    0.2923 H   0  0  0  0  0  0  0  0  0  0  0  0
    0.9269   -2.4097   -0.7982 H   0  0  0  0  0  0  0  0  0  0  0  0
    0.4521   -0.6600    2.4255 H   0  0  0  0  0  0  0  0  0  0  0  0
    1.1493    0.8813    1.8761 H   0  0  0  0  0  0  0  0  0  0  0  0
    0.2712   -0.7551   -1.1074 H   0  0  0  0  0  0  0  0  0  0  0  0
   -1.0595    0.6243   -0.1273 H   0  0  0  0  0  0  0  0  0  0  0  0
   -0.2931   -0.0054   -1.3047 H   0  0  0  0  0  0  0  0  0  0  0  0
    3.8200   -4.7893    0.7635 H   0  0  0  0  0  0  0  0  0  0  0  0
    5.3115   -6.6362    1.3819 H   0  0  0  0  0  0  0  0  0  0  0  0
    8.1386   -3.7840    3.0144 H   0  0  0  0  0  0  0  0  0  0  0  0
    6.4875   -1.9776    2.6313 H   0  0  0  0  0  0  0  0  0  0  0  0
  1  2  1  0  0  0  0
  1 19  1  0  0  0  0
  1 20  1  0  0  0  0
  1 21  1  0  0  0  0
  2  3  1  0  0  0  0
  2 22  1  0  0  0  0
  2 23  1  0  0  0  0
  3  4  1  0  0  0  0
  4  5  2  0  0  0  0
  4  6  1  0  0  0  0
  4  9  1  0  0  0  0
  6  7  1  0  0  0  0
  7  8  1  0  0  0  0
  7 24  1  0  0  0  0
  7 25  1  0  0  0  0
  8 26  1  0  0  0  0
  8 27  1  0  0  0  0
  8 28  1  0  0  0  0
  9 10  1  0  0  0  0
 10 11  1  0  0  0  0
 10 15  2  0  0  0  0
 11 12  2  0  0  0  0
 11 29  1  0  0  0  0
 12 13  1  0  0  0  0
 12 30  1  0  0  0  0
 13 14  2  0  0  0  0
 13 16  1  0  0  0  0
 14 15  1  0  0  0  0
 14 31  1  0  0  0  0
 15 32  1  0  0  0  0
 16 17  1  0  0  0  0
 16 18  2  0  0  0  0
M  CHG  2  16   1  17  -1
M  END
>  <DRUGBANK_ID>
DB13495

>  <COMMON_NAME>
Paraoxon

>  <CAS_NUMBER>
311-45-5

>  <UNII>
Q9CX8P80JW

$$$$
