
 OpenBabel10282417103D

 42 45  0  0  0  0  0  0  0  0999 V2000
   -1.7119   -1.7898   -2.4327 C   0  0  0  0  0  0  0  0  0  0  0  0
    0.9080   -1.7653   -2.7953 C   0  0  2  0  0  0  0  0  0  0  0  0
   -0.2393   -2.7672   -2.7361 C   0  0  0  0  0  0  0  0  0  0  0  0
   -1.3241   -2.0074   -1.5532 C   0  0  0  0  0  0  0  0  0  0  0  0
    4.6465   -1.3100   -4.5877 C   0  0  0  0  0  0  0  0  0  0  0  0
    3.5437   -0.7246   -5.2109 C   0  0  0  0  0  0  0  0  0  0  0  0
   -2.7148   -2.2053   -1.4332 C   0  0  2  0  0  0  0  0  0  0  0  0
   -3.6502   -2.7774   -2.2530 O   0  0  0  0  0  0  0  0  0  0  0  0
    3.0774   -2.3270   -2.8887 C   0  0  0  0  0  0  0  0  0  0  0  0
    2.1651   -2.8921   -1.8777 O   0  0  0  0  0  0  0  0  0  0  0  0
    0.3250   -2.7006   -1.9379 C   0  0  1  0  0  0  0  0  0  0  0  0
    0.4021   -3.4967   -1.0940 H   0  0  0  0  0  0  0  0  0  0  0  0
    4.4556   -2.1053   -3.3872 C   0  0  0  0  0  0  0  0  0  0  0  0
    2.1032   -1.7486   -3.5922 C   0  0  0  0  0  0  0  0  0  0  0  0
    2.2730   -0.9193   -4.6932 C   0  0  0  0  0  0  0  0  0  0  0  0
    1.0243   -0.3626   -5.2715 C   0  0  0  0  0  0  0  0  0  0  0  0
   -0.1870   -0.2814   -3.4016 C   0  0  0  0  0  0  0  0  0  0  0  0
    0.6600   -0.5429   -2.0728 C   0  0  0  0  0  0  0  0  0  0  0  0
    0.3590    0.5788   -4.3911 N   0  0  0  0  0  0  0  0  0  0  0  0
   -0.9570    1.0421   -4.9395 C   0  0  0  0  0  0  0  0  0  0  0  0
    5.7056   -2.5727   -2.9786 O   0  0  0  0  0  0  0  0  0  0  0  0
    6.0566   -2.1728   -1.6614 C   0  0  0  0  0  0  0  0  0  0  0  0
   -2.2581   -1.6971   -3.5330 H   0  0  0  0  0  0  0  0  0  0  0  0
   -2.1783   -0.6059   -2.4767 H   0  0  0  0  0  0  0  0  0  0  0  0
   -0.6099   -3.6454   -3.3185 H   0  0  0  0  0  0  0  0  0  0  0  0
   -1.1407   -0.8020   -1.0701 H   0  0  0  0  0  0  0  0  0  0  0  0
    5.6199   -1.1192   -5.0702 H   0  0  0  0  0  0  0  0  0  0  0  0
    3.6225   -0.1460   -6.1253 H   0  0  0  0  0  0  0  0  0  0  0  0
   -2.6734   -2.3148   -0.3638 H   0  0  0  0  0  0  0  0  0  0  0  0
   -3.8266   -3.6636   -1.9273 H   0  0  0  0  0  0  0  0  0  0  0  0
    1.3883   -0.6205   -6.2741 H   0  0  0  0  0  0  0  0  0  0  0  0
    0.4535    0.0169   -6.0959 H   0  0  0  0  0  0  0  0  0  0  0  0
   -0.6363   -1.1751   -4.1106 H   0  0  0  0  0  0  0  0  0  0  0  0
   -1.0128    0.2411   -3.0320 H   0  0  0  0  0  0  0  0  0  0  0  0
    0.5194   -0.9607   -0.9567 H   0  0  0  0  0  0  0  0  0  0  0  0
    1.0687    0.3799   -1.7121 H   0  0  0  0  0  0  0  0  0  0  0  0
   -1.7388    0.2539   -5.0782 H   0  0  0  0  0  0  0  0  0  0  0  0
   -1.3732    1.7673   -4.2295 H   0  0  0  0  0  0  0  0  0  0  0  0
   -0.7585    1.4948   -5.8890 H   0  0  0  0  0  0  0  0  0  0  0  0
    6.1120   -1.0814   -1.5736 H   0  0  0  0  0  0  0  0  0  0  0  0
    5.3144   -2.5948   -0.9941 H   0  0  0  0  0  0  0  0  0  0  0  0
    7.0464   -2.5659   -1.3677 H   0  0  0  0  0  0  0  0  0  0  0  0
  1 11  1  0  0  0  0
  1  7  1  0  0  0  0
  1 23  1  0  0  0  0
  1 24  1  0  0  0  0
  2 14  1  1  0  0  0
  2 18  1  0  0  0  0
  3  4  2  0  0  0  0
  3  2  1  0  0  0  0
  3 25  1  0  0  0  0
  4  7  1  0  0  0  0
  4 26  1  0  0  0  0
  5  6  2  0  0  0  0
  5 13  1  0  0  0  0
  5 27  1  0  0  0  0
  6 15  1  0  0  0  0
  6 28  1  0  0  0  0
  7  8  1  0  0  0  0
  7 29  1  1  0  0  0
  8 30  1  0  0  0  0
  9 13  2  0  0  0  0
  9 10  1  0  0  0  0
 10 11  1  0  0  0  0
 11  2  1  0  0  0  0
 11 12  1  6  0  0  0
 13 21  1  0  0  0  0
 14  9  1  0  0  0  0
 15 16  1  0  0  0  0
 15 14  2  0  0  0  0
 16 19  1  0  0  0  0
 16 31  1  0  0  0  0
 16 32  1  0  0  0  0
 17 18  1  0  0  0  0
 17 33  1  0  0  0  0
 17 34  1  0  0  0  0
 18 35  1  0  0  0  0
 18 36  1  0  0  0  0
 19 17  1  0  0  0  0
 19 20  1  0  0  0  0
 20 37  1  0  0  0  0
 20 38  1  0  0  0  0
 20 39  1  0  0  0  0
 21 22  1  0  0  0  0
 22 40  1  0  0  0  0
 22 41  1  0  0  0  0
 22 42  1  0  0  0  0
M  END
>  <DRUGBANK_ID>
DB00674

>  <SECONDARY_ACCESSION_NUMBERS>
APRD00206; EXPT01628

>  <COMMON_NAME>
Galantamine

>  <CAS_NUMBER>
357-70-0

>  <UNII>
0D3Q044KCA

>  <SYNONYMS>
(-)-Galanthamine; Galantamina; Galantamine; Galanthamine

$$$$
