
 OpenBabel10282417133D

 34 34  0  0  1  0  0  0  0  0999 V2000
    2.8546   -1.5731    3.5568 P   0  0  0  0  0  0  0  0  0  0  0  0
    1.4153   -2.0839    2.9972 O   0  0  0  0  0  0  0  0  0  0  0  0
    2.5593   -0.0789    4.1186 O   0  0  0  0  0  0  0  0  0  0  0  0
    3.0976   -0.8261    2.0154 O   0  0  0  0  0  0  0  0  0  0  0  0
    2.6372   -2.2416    4.9364 O   0  0  0  0  0  0  0  0  0  0  0  0
    1.0769   -2.0233    1.6267 C   0  0  1  0  0  0  0  0  0  0  0  0
    2.1161   -2.6942    0.6118 C   0  0  1  0  0  0  0  0  0  0  0  0
   -0.3151   -2.6990    1.4682 C   0  0  1  0  0  0  0  0  0  0  0  0
    1.6438   -2.2924   -0.7524 C   0  0  2  0  0  0  0  0  0  0  0  0
    3.5061   -2.2443    0.5282 O   0  0  0  0  0  0  0  0  0  0  0  0
   -0.8241   -2.3623    0.0698 C   0  0  1  0  0  0  0  0  0  0  0  0
   -0.2619   -4.0916    1.7126 O   0  0  0  0  0  0  0  0  0  0  0  0
    0.2200   -2.7132   -1.0368 C   0  0  1  0  0  0  0  0  0  0  0  0
    2.5271   -2.7462   -1.7958 O   0  0  0  0  0  0  0  0  0  0  0  0
   -2.0871   -2.8748   -0.3376 O   0  0  0  0  0  0  0  0  0  0  0  0
   -0.1205   -2.1685   -2.3196 O   0  0  0  0  0  0  0  0  0  0  0  0
   -0.1159   -0.4423   -2.4339 P   0  0  0  0  0  0  0  0  0  0  0  0
   -0.0380   -0.2041   -0.8440 O   0  0  0  0  0  0  0  0  0  0  0  0
    1.4589   -0.5466   -2.8417 O   0  0  0  0  0  0  0  0  0  0  0  0
   -0.1118    1.1026   -2.5362 O   0  0  0  0  0  0  0  0  0  0  0  0
    2.4536   -0.1791    5.0862 H   0  0  0  0  0  0  0  0  0  0  0  0
    3.9949   -1.1743    1.8094 H   0  0  0  0  0  0  0  0  0  0  0  0
    0.9478   -0.9503    1.4086 H   0  0  0  0  0  0  0  0  0  0  0  0
    2.1867   -3.7676    0.7636 H   0  0  0  0  0  0  0  0  0  0  0  0
   -1.0128   -2.2867    2.2166 H   0  0  0  0  0  0  0  0  0  0  0  0
    1.7803   -1.2087   -0.7745 H   0  0  0  0  0  0  0  0  0  0  0  0
    3.4078   -1.2883    0.2754 H   0  0  0  0  0  0  0  0  0  0  0  0
   -1.0893   -1.3258    0.2288 H   0  0  0  0  0  0  0  0  0  0  0  0
    0.1728   -4.5469    0.9506 H   0  0  0  0  0  0  0  0  0  0  0  0
    0.2109   -3.7976   -1.1785 H   0  0  0  0  0  0  0  0  0  0  0  0
    3.4154   -2.4227   -1.5324 H   0  0  0  0  0  0  0  0  0  0  0  0
   -2.2030   -2.5563   -1.2546 H   0  0  0  0  0  0  0  0  0  0  0  0
   -0.7285    0.4758   -0.6662 H   0  0  0  0  0  0  0  0  0  0  0  0
    1.7246   -1.4697   -3.0425 H   0  0  0  0  0  0  0  0  0  0  0  0
  1  2  1  0  0  0  0
  1  3  1  0  0  0  0
  1  4  1  0  0  0  0
  1  5  2  0  0  0  0
  3 21  1  0  0  0  0
  4 22  1  0  0  0  0
  6  7  1  0  0  0  0
  6  8  1  0  0  0  0
  6 23  1  6  0  0  0
  6  2  1  0  0  0  0
  7  9  1  0  0  0  0
  7 10  1  0  0  0  0
  7 24  1  1  0  0  0
  8 11  1  0  0  0  0
  8 12  1  0  0  0  0
  8 25  1  1  0  0  0
  9 13  1  0  0  0  0
  9 26  1  6  0  0  0
  9 14  1  0  0  0  0
 10 27  1  0  0  0  0
 11 13  1  0  0  0  0
 11 28  1  6  0  0  0
 11 15  1  0  0  0  0
 12 29  1  0  0  0  0
 13 16  1  0  0  0  0
 13 30  1  6  0  0  0
 14 31  1  0  0  0  0
 15 32  1  0  0  0  0
 16 17  1  0  0  0  0
 17 18  1  0  0  0  0
 17 19  1  0  0  0  0
 17 20  2  0  0  0  0
 18 33  1  0  0  0  0
 19 34  1  0  0  0  0
M  END
>  <DRUGBANK_ID>
DB03158

>  <SECONDARY_ACCESSION_NUMBERS>
EXPT00125

>  <COMMON_NAME>
D-Myo-Inositol-1,4-Bisphosphate

>  <CAS_NUMBER>
47055-78-7

$$$$
