1516
 OpenBabel10282417113D

 35 35  0  0  1  0  0  0  0  0999 V2000
    0.9215   -0.0274    0.1059 O   0  0  0  0  0  0  0  0  0  0  0  0
    0.3546   -4.1317   -2.4124 O   0  0  0  0  0  0  0  0  0  0  0  0
    1.5579   -2.7027   -0.2169 O   0  0  0  0  0  0  0  0  0  0  0  0
   -3.4462    1.1863   -1.5762 N   0  0  0  0  0  0  0  0  0  0  0  0
   -2.4367   -0.1885   -3.4185 C   0  0  0  0  0  0  0  0  0  0  0  0
   -3.7091    0.2163   -2.6442 C   0  0  3  0  0  0  0  0  0  0  0  0
   -1.3703   -0.8676   -2.5905 C   0  0  0  0  0  0  0  0  0  0  0  0
   -1.0359   -2.1963   -2.8481 C   0  0  0  0  0  0  0  0  0  0  0  0
   -0.6595   -0.1766   -1.6039 C   0  0  0  0  0  0  0  0  0  0  0  0
   -4.7181    0.8397   -3.6058 C   0  0  0  0  0  0  0  0  0  0  0  0
    0.3399   -0.8115   -0.8642 C   0  0  0  0  0  0  0  0  0  0  0  0
   -0.0246   -2.8489   -2.1278 C   0  0  0  0  0  0  0  0  0  0  0  0
    0.6398   -2.1659   -1.0850 C   0  0  0  0  0  0  0  0  0  0  0  0
    2.3403    0.0562   -0.0214 C   0  0  0  0  0  0  0  0  0  0  0  0
   -0.2481   -4.7964   -3.5108 C   0  0  0  0  0  0  0  0  0  0  0  0
    1.9056   -4.0698   -0.3437 C   0  0  0  0  0  0  0  0  0  0  0  0
   -4.3168    1.4491   -1.1191 H   0  0  0  0  0  0  0  0  0  0  0  0
   -2.8974    0.7254   -0.8486 H   0  0  0  0  0  0  0  0  0  0  0  0
   -1.9848    0.6754   -3.9215 H   0  0  0  0  0  0  0  0  0  0  0  0
   -2.7385   -0.8696   -4.2286 H   0  0  0  0  0  0  0  0  0  0  0  0
   -4.1553   -0.6784   -2.1922 H   0  0  0  0  0  0  0  0  0  0  0  0
   -1.5787   -2.7130   -3.6337 H   0  0  0  0  0  0  0  0  0  0  0  0
   -0.8677    0.8696   -1.4006 H   0  0  0  0  0  0  0  0  0  0  0  0
   -5.0072    0.1254   -4.3838 H   0  0  0  0  0  0  0  0  0  0  0  0
   -5.6281    1.1430   -3.0773 H   0  0  0  0  0  0  0  0  0  0  0  0
   -4.3002    1.7252   -4.0989 H   0  0  0  0  0  0  0  0  0  0  0  0
    2.6899    0.8414    0.6562 H   0  0  0  0  0  0  0  0  0  0  0  0
    2.8337   -0.8658    0.2919 H   0  0  0  0  0  0  0  0  0  0  0  0
    2.6410    0.3294   -1.0391 H   0  0  0  0  0  0  0  0  0  0  0  0
   -1.3114   -4.9665   -3.3183 H   0  0  0  0  0  0  0  0  0  0  0  0
   -0.0895   -4.2494   -4.4460 H   0  0  0  0  0  0  0  0  0  0  0  0
    0.2362   -5.7715   -3.6100 H   0  0  0  0  0  0  0  0  0  0  0  0
    1.0323   -4.7151   -0.2024 H   0  0  0  0  0  0  0  0  0  0  0  0
    2.4145   -4.2525   -1.2956 H   0  0  0  0  0  0  0  0  0  0  0  0
    2.6178   -4.3127    0.4487 H   0  0  0  0  0  0  0  0  0  0  0  0
  1 11  1  0  0  0  0
  1 14  1  0  0  0  0
  2 12  1  0  0  0  0
  2 15  1  0  0  0  0
  3 13  1  0  0  0  0
  3 16  1  0  0  0  0
  4  6  1  0  0  0  0
  4 17  1  0  0  0  0
  4 18  1  0  0  0  0
  5  6  1  0  0  0  0
  5  7  1  0  0  0  0
  5 19  1  0  0  0  0
  5 20  1  0  0  0  0
  6 10  1  0  0  0  0
  6 21  1  0  0  0  0
  7  8  2  0  0  0  0
  7  9  1  0  0  0  0
  8 12  1  0  0  0  0
  8 22  1  0  0  0  0
  9 11  2  0  0  0  0
  9 23  1  0  0  0  0
 10 24  1  0  0  0  0
 10 25  1  0  0  0  0
 10 26  1  0  0  0  0
 11 13  1  0  0  0  0
 12 13  2  0  0  0  0
 14 27  1  0  0  0  0
 14 28  1  0  0  0  0
 14 29  1  0  0  0  0
 15 30  1  0  0  0  0
 15 31  1  0  0  0  0
 15 32  1  0  0  0  0
 16 33  1  0  0  0  0
 16 34  1  0  0  0  0
 16 35  1  0  0  0  0
M  END
>  <DRUGBANK_ID>
DB01516

>  <COMMON_NAME>
3,4,5-Trimethoxyamphetamine

>  <CAS_NUMBER>
1082-88-8

>  <UNII>
P2K02L3YON

$$$$
