
 OpenBabel10282417113D

 58 61  0  0  0  0  0  0  0  0999 V2000
    0.0764   -1.3298    0.6425 N   0  0  0  0  0  0  0  0  0  0  0  0
    0.0332    1.7221    0.3673 S   0  0  0  0  0  0  0  0  0  0  0  0
   -1.1201   -0.8161    0.0961 C   0  0  0  0  0  0  0  0  0  0  0  0
    1.3101   -0.7445    0.3295 C   0  0  0  0  0  0  0  0  0  0  0  0
    1.4134    0.6333    0.0802 C   0  0  0  0  0  0  0  0  0  0  0  0
   -1.2709    0.5837   -0.0869 C   0  0  0  0  0  0  0  0  0  0  0  0
   -2.2151   -1.6404   -0.2165 C   0  0  0  0  0  0  0  0  0  0  0  0
    2.3931   -1.5893    0.0750 C   0  0  0  0  0  0  0  0  0  0  0  0
    2.5848    1.1469   -0.4556 C   0  0  0  0  0  0  0  0  0  0  0  0
   -2.4815    1.1262   -0.5168 C   0  0  0  0  0  0  0  0  0  0  0  0
    3.6450    0.2880   -0.7432 C   0  0  0  0  0  0  0  0  0  0  0  0
   -3.5618    0.2910   -0.7825 C   0  0  0  0  0  0  0  0  0  0  0  0
    0.1223   -2.2083    1.8314 C   0  0  0  0  0  0  0  0  0  0  0  0
   -0.4060   -1.5538    3.0945 C   0  0  0  0  0  0  0  0  0  0  0  0
   -1.8018   -1.0974    2.9033 C   0  0  0  0  0  0  0  0  0  0  0  0
   -2.7530   -2.1273    2.5346 N   0  0  0  0  0  0  0  0  0  0  0  0
   -4.0908   -2.7899    5.0471 N   0  0  0  0  0  0  0  0  0  0  0  0
   -2.8556   -3.4894    4.6327 C   0  0  0  0  0  0  0  0  0  0  0  0
   -4.0287   -1.5027    2.8824 C   0  0  0  0  0  0  0  0  0  0  0  0
   -4.1833   -1.4688    4.4186 C   0  0  0  0  0  0  0  0  0  0  0  0
   -2.5544   -3.4641    3.1115 C   0  0  0  0  0  0  0  0  0  0  0  0
   -5.3678   -3.5017    4.9111 C   0  0  0  0  0  0  0  0  0  0  0  0
   -5.8265   -4.0341    3.5399 C   0  0  0  0  0  0  0  0  0  0  0  0
   -5.0148   -5.1220    3.1474 O   0  0  0  0  0  0  0  0  0  0  0  0
    3.5539   -1.0757   -0.4713 C   0  0  0  0  0  0  0  0  0  0  0  0
   -3.4458   -1.0934   -0.6293 C   0  0  0  0  0  0  0  0  0  0  0  0
   -5.9296   -1.4825   -1.3385 C   0  0  0  0  0  0  0  0  0  0  0  0
   -4.6083   -2.0257   -0.8286 C   0  0  0  0  0  0  0  0  0  0  0  0
   -4.4919   -3.2088   -0.5936 O   0  0  0  0  0  0  0  0  0  0  0  0
   -2.1409   -2.7113   -0.0345 H   0  0  0  0  0  0  0  0  0  0  0  0
    2.2877   -2.6625    0.2195 H   0  0  0  0  0  0  0  0  0  0  0  0
    2.6550    2.2041   -0.6905 H   0  0  0  0  0  0  0  0  0  0  0  0
   -2.5999    2.2014   -0.6275 H   0  0  0  0  0  0  0  0  0  0  0  0
    4.5435    0.6839   -1.2013 H   0  0  0  0  0  0  0  0  0  0  0  0
   -4.4793    0.7745   -1.0929 H   0  0  0  0  0  0  0  0  0  0  0  0
   -0.3757   -3.1482    1.5896 H   0  0  0  0  0  0  0  0  0  0  0  0
    1.1409   -2.5031    2.1151 H   0  0  0  0  0  0  0  0  0  0  0  0
   -0.3592   -2.2474    3.9437 H   0  0  0  0  0  0  0  0  0  0  0  0
    0.1609   -0.6720    3.4031 H   0  0  0  0  0  0  0  0  0  0  0  0
   -2.0556   -0.5094    3.7754 H   0  0  0  0  0  0  0  0  0  0  0  0
   -1.8931   -0.3219    2.1542 H   0  0  0  0  0  0  0  0  0  0  0  0
   -2.0087   -2.9873    5.1266 H   0  0  0  0  0  0  0  0  0  0  0  0
   -2.8055   -4.5049    5.0487 H   0  0  0  0  0  0  0  0  0  0  0  0
   -4.0485   -0.4790    2.4886 H   0  0  0  0  0  0  0  0  0  0  0  0
   -4.8462   -1.9359    2.3197 H   0  0  0  0  0  0  0  0  0  0  0  0
   -3.3965   -0.8783    4.9031 H   0  0  0  0  0  0  0  0  0  0  0  0
   -5.0802   -0.9114    4.6918 H   0  0  0  0  0  0  0  0  0  0  0  0
   -3.1353   -4.1347    2.4726 H   0  0  0  0  0  0  0  0  0  0  0  0
   -1.5690   -3.9340    2.9616 H   0  0  0  0  0  0  0  0  0  0  0  0
   -5.3115   -4.3504    5.5969 H   0  0  0  0  0  0  0  0  0  0  0  0
   -6.1449   -2.8326    5.2993 H   0  0  0  0  0  0  0  0  0  0  0  0
   -6.8451   -4.4129    3.5718 H   0  0  0  0  0  0  0  0  0  0  0  0
   -5.8505   -3.2935    2.7504 H   0  0  0  0  0  0  0  0  0  0  0  0
   -4.1875   -4.9857    3.6260 H   0  0  0  0  0  0  0  0  0  0  0  0
    4.3634   -1.7525   -0.7193 H   0  0  0  0  0  0  0  0  0  0  0  0
   -6.1407   -1.9493   -2.3033 H   0  0  0  0  0  0  0  0  0  0  0  0
   -6.7167   -1.7263   -0.6198 H   0  0  0  0  0  0  0  0  0  0  0  0
   -5.9552   -0.4075   -1.4884 H   0  0  0  0  0  0  0  0  0  0  0  0
  3  1  1  0  0  0  0
  4  1  1  0  0  0  0
  5  2  1  0  0  0  0
  5  4  2  0  0  0  0
  6  2  1  0  0  0  0
  6  3  1  0  0  0  0
  7  3  2  0  0  0  0
  7 30  1  0  0  0  0
  8  4  1  0  0  0  0
  8 31  1  0  0  0  0
  9  5  1  0  0  0  0
  9 32  1  0  0  0  0
 10  6  2  0  0  0  0
 10 33  1  0  0  0  0
 11  9  2  0  0  0  0
 11 34  1  0  0  0  0
 12 10  1  0  0  0  0
 12 26  2  0  0  0  0
 12 35  1  0  0  0  0
 13  1  1  0  0  0  0
 13 36  1  0  0  0  0
 13 37  1  0  0  0  0
 14 13  1  0  0  0  0
 14 38  1  0  0  0  0
 14 39  1  0  0  0  0
 15 14  1  0  0  0  0
 15 40  1  0  0  0  0
 15 41  1  0  0  0  0
 16 15  1  0  0  0  0
 18 17  1  0  0  0  0
 18 42  1  0  0  0  0
 18 43  1  0  0  0  0
 19 16  1  0  0  0  0
 19 44  1  0  0  0  0
 19 45  1  0  0  0  0
 20 17  1  0  0  0  0
 20 19  1  0  0  0  0
 20 46  1  0  0  0  0
 20 47  1  0  0  0  0
 21 16  1  0  0  0  0
 21 18  1  0  0  0  0
 21 48  1  0  0  0  0
 21 49  1  0  0  0  0
 22 17  1  0  0  0  0
 22 50  1  0  0  0  0
 22 51  1  0  0  0  0
 23 22  1  0  0  0  0
 23 52  1  0  0  0  0
 23 53  1  0  0  0  0
 24 23  1  0  0  0  0
 24 54  1  0  0  0  0
 25  8  2  0  0  0  0
 25 11  1  0  0  0  0
 25 55  1  0  0  0  0
 26  7  1  0  0  0  0
 26 28  1  0  0  0  0
 27 56  1  0  0  0  0
 27 57  1  0  0  0  0
 27 58  1  0  0  0  0
 28 27  1  0  0  0  0
 28 29  2  0  0  0  0
M  END
>  <DRUGBANK_ID>
DB01063

>  <SECONDARY_ACCESSION_NUMBERS>
APRD00462

>  <COMMON_NAME>
Acetophenazine

>  <CAS_NUMBER>
2751-68-0

>  <UNII>
8620H6K4QH

>  <SYNONYMS>
Acetophenazina; Acetophenazine; Acetophenazinum

$$$$
