
 OpenBabel10282417193D

 39 41  0  0  0  0  0  0  0  0999 V2000
   -0.7544    1.4321   -0.0299 C   0  0  0  0  0  0  0  0  0  0  0  0
    0.4165    0.6925   -0.0192 C   0  0  0  0  0  0  0  0  0  0  0  0
   -0.8408   -1.4034    0.1202 C   0  0  0  0  0  0  0  0  0  0  0  0
    0.3773   -0.6957    0.0247 C   0  0  0  0  0  0  0  0  0  0  0  0
    1.5355   -1.3803    0.0195 F   0  0  0  0  0  0  0  0  0  0  0  0
   -0.6984   -2.8150    0.3805 N   0  0  0  0  0  0  0  0  0  0  0  0
   -1.6834   -3.8020    0.1994 C   0  0  0  0  0  0  0  0  0  0  0  0
   -2.0936   -4.5895    1.2985 C   0  0  0  0  0  0  0  0  0  0  0  0
   -3.2882   -5.3257    1.2931 C   0  0  0  0  0  0  0  0  0  0  0  0
   -3.9926   -5.4315    0.1232 C   0  0  0  0  0  0  0  0  0  0  0  0
   -3.4218   -4.8499   -1.0139 C   0  0  0  0  0  0  0  0  0  0  0  0
   -2.3252   -3.9914   -0.9996 C   0  0  0  0  0  0  0  0  0  0  0  0
   -1.9834    0.7761   -0.0053 C   0  0  0  0  0  0  0  0  0  0  0  0
   -2.0571   -0.6283    0.1217 C   0  0  0  0  0  0  0  0  0  0  0  0
   -3.4245   -1.1762    0.4155 C   0  0  0  0  0  0  0  0  0  0  0  0
   -4.5524   -0.5880   -0.1307 N   0  0  0  0  0  0  0  0  0  0  0  0
   -5.8515   -1.1613    0.0796 O   0  0  0  0  0  0  0  0  0  0  0  0
   -3.5024   -2.1445    1.1906 O   0  0  0  0  0  0  0  0  0  0  0  0
   -5.9241   -2.5762   -0.2362 C   0  0  0  0  0  0  0  0  0  0  0  0
   -5.3439   -2.9191   -1.5774 C   0  0  0  0  0  0  0  0  0  0  0  0
   -5.8053   -2.7620   -2.9911 C   0  0  0  0  0  0  0  0  0  0  0  0
   -5.8397   -4.1350   -2.4300 C   0  0  0  0  0  0  0  0  0  0  0  0
    1.5917    1.3346   -0.0145 F   0  0  0  0  0  0  0  0  0  0  0  0
   -5.8826   -6.3682    0.2419 I   0  0  0  0  0  0  0  0  0  0  0  0
   -1.9761   -3.0380   -2.4266 Cl  0  0  0  0  0  0  0  0  0  0  0  0
   -0.7116    2.5172   -0.0166 H   0  0  0  0  0  0  0  0  0  0  0  0
    0.2045   -3.1654    0.0488 H   0  0  0  0  0  0  0  0  0  0  0  0
   -1.5643   -4.5026    2.2357 H   0  0  0  0  0  0  0  0  0  0  0  0
   -3.6934   -5.7496    2.2072 H   0  0  0  0  0  0  0  0  0  0  0  0
   -3.8638   -4.8751   -1.9739 H   0  0  0  0  0  0  0  0  0  0  0  0
   -2.8733    1.3964    0.0033 H   0  0  0  0  0  0  0  0  0  0  0  0
   -4.6063    0.4197   -0.2335 H   0  0  0  0  0  0  0  0  0  0  0  0
   -5.3802   -3.0838    0.5683 H   0  0  0  0  0  0  0  0  0  0  0  0
   -6.9461   -2.9427   -0.1041 H   0  0  0  0  0  0  0  0  0  0  0  0
   -4.3346   -2.5569   -1.5343 H   0  0  0  0  0  0  0  0  0  0  0  0
   -6.7264   -2.2851   -3.2399 H   0  0  0  0  0  0  0  0  0  0  0  0
   -4.9718   -2.5735   -3.6765 H   0  0  0  0  0  0  0  0  0  0  0  0
   -5.2446   -4.8536   -3.0054 H   0  0  0  0  0  0  0  0  0  0  0  0
   -6.6992   -4.6713   -2.0560 H   0  0  0  0  0  0  0  0  0  0  0  0
  1  2  1  0  0  0  0
  1 26  1  0  0  0  0
  2 23  1  0  0  0  0
  2  4  2  0  0  0  0
  3  6  1  0  0  0  0
  3 14  2  0  0  0  0
  3  4  1  0  0  0  0
  4  5  1  0  0  0  0
  6 27  1  0  0  0  0
  7  6  1  0  0  0  0
  7  8  2  0  0  0  0
  8  9  1  0  0  0  0
  8 28  1  0  0  0  0
  9 10  2  0  0  0  0
  9 29  1  0  0  0  0
 10 11  1  0  0  0  0
 10 24  1  0  0  0  0
 11 12  2  0  0  0  0
 11 30  1  0  0  0  0
 12  7  1  0  0  0  0
 12 25  1  0  0  0  0
 13 14  1  0  0  0  0
 13  1  2  0  0  0  0
 13 31  1  0  0  0  0
 14 15  1  0  0  0  0
 15 16  1  0  0  0  0
 15 18  2  0  0  0  0
 16 17  1  0  0  0  0
 16 32  1  0  0  0  0
 17 19  1  0  0  0  0
 19 20  1  0  0  0  0
 19 33  1  0  0  0  0
 19 34  1  0  0  0  0
 20 22  1  0  0  0  0
 20 35  1  0  0  0  0
 21 20  1  0  0  0  0
 21 36  1  0  0  0  0
 21 37  1  0  0  0  0
 22 21  1  0  0  0  0
 22 38  1  0  0  0  0
 22 39  1  0  0  0  0
M  END
>  <DRUGBANK_ID>
DB12429

>  <COMMON_NAME>
CI-1040

>  <CAS_NUMBER>
212631-79-3

>  <UNII>
R3K9Y00J04

$$$$
