SS4
 OpenBabel10282417173D

 49 52  0  0  0  0  0  0  0  0999 V2000
    7.0700   10.8911    0.9751 N   0  0  0  0  0  0  0  0  0  0  0  0
    6.3157    2.6746    1.8721 N   0  0  0  0  0  0  0  0  0  0  0  0
    7.2821    8.8081    0.0784 C   0  0  0  0  0  0  0  0  0  0  0  0
    7.6218    7.7248   -0.7318 C   0  0  0  0  0  0  0  0  0  0  0  0
    7.1451    6.4692   -0.3516 C   0  0  0  0  0  0  0  0  0  0  0  0
    6.4139   10.0089    1.7415 C   0  0  0  0  0  0  0  0  0  0  0  0
    2.2820    5.2869    5.7516 C   0  0  0  0  0  0  0  0  0  0  0  0
    3.6569    5.7279    7.6366 C   0  0  0  0  0  0  0  0  0  0  0  0
    5.7028   10.4615    2.9636 C   0  0  0  0  0  0  0  0  0  0  0  0
    3.3236    5.5515    4.8766 C   0  0  0  0  0  0  0  0  0  0  0  0
    5.8765    4.9347    1.0851 C   0  0  0  0  0  0  0  0  0  0  0  0
    4.5318    4.5994    0.9133 C   0  0  0  0  0  0  0  0  0  0  0  0
    4.0565    3.3569    1.3366 C   0  0  0  0  0  0  0  0  0  0  0  0
    1.8009    4.1476    1.4776 C   0  0  0  0  0  0  0  0  0  0  0  0
    6.3592    6.2861    0.7905 C   0  0  0  0  0  0  0  0  0  0  0  0
    6.0421    7.4069    1.5934 C   0  0  0  0  0  0  0  0  0  0  0  0
    6.5105    8.6856    1.2257 C   0  0  0  0  0  0  0  0  0  0  0  0
    7.5806   10.1395   -0.0139 N   0  0  0  0  0  0  0  0  0  0  0  0
    2.4184    5.3870    7.1120 C   0  0  0  0  0  0  0  0  0  0  0  0
    4.5902    5.8570    5.4156 C   0  0  0  0  0  0  0  0  0  0  0  0
    4.9867    2.4310    1.7953 C   0  0  0  0  0  0  0  0  0  0  0  0
    6.7223    3.9206    1.5281 C   0  0  0  0  0  0  0  0  0  0  0  0
    4.7446    5.9490    6.7965 C   0  0  0  0  0  0  0  0  0  0  0  0
    2.7361    3.0639    1.5555 O   0  0  0  0  0  0  0  0  0  0  0  0
    1.8856    5.2731    2.5754 C   0  0  2  0  0  0  0  0  0  0  0  0
    3.2068    5.2855    3.4087 C   0  0  0  0  0  0  0  0  0  0  0  0
    0.6745    5.1984    3.3935 N   0  0  0  0  0  0  0  0  0  0  0  0
    3.8092    5.8585    9.5068 Br  0  0  0  0  0  0  0  0  0  0  0  0
    1.8242    6.2394    2.0526 H   0  0  0  0  0  0  0  0  0  0  0  0
    8.2266    7.8366   -1.6241 H   0  0  0  0  0  0  0  0  0  0  0  0
    7.3841    5.6062   -0.9713 H   0  0  0  0  0  0  0  0  0  0  0  0
    1.3096    4.9536    5.4229 H   0  0  0  0  0  0  0  0  0  0  0  0
    4.6335   10.2407    2.8859 H   0  0  0  0  0  0  0  0  0  0  0  0
    6.0981    9.9479    3.8456 H   0  0  0  0  0  0  0  0  0  0  0  0
    5.8137   11.5396    3.1238 H   0  0  0  0  0  0  0  0  0  0  0  0
    3.8525    5.3812    0.5875 H   0  0  0  0  0  0  0  0  0  0  0  0
    1.7936    4.5695    0.4662 H   0  0  0  0  0  0  0  0  0  0  0  0
    0.8158    3.6664    1.5639 H   0  0  0  0  0  0  0  0  0  0  0  0
    5.4514    7.3198    2.4987 H   0  0  0  0  0  0  0  0  0  0  0  0
    8.1321   10.5969   -0.7309 H   0  0  0  0  0  0  0  0  0  0  0  0
    1.5508    5.1773    7.7226 H   0  0  0  0  0  0  0  0  0  0  0  0
    5.4576    5.9749    4.7666 H   0  0  0  0  0  0  0  0  0  0  0  0
    4.6705    1.4725    2.1996 H   0  0  0  0  0  0  0  0  0  0  0  0
    7.7908    4.0926    1.6283 H   0  0  0  0  0  0  0  0  0  0  0  0
    5.7254    6.1777    7.2098 H   0  0  0  0  0  0  0  0  0  0  0  0
    3.6579    4.2977    3.3847 H   0  0  0  0  0  0  0  0  0  0  0  0
    3.8702    6.0002    2.9149 H   0  0  0  0  0  0  0  0  0  0  0  0
   -0.1716    5.4072    2.8759 H   0  0  0  0  0  0  0  0  0  0  0  0
    0.5964    4.2391    3.7359 H   0  0  0  0  0  0  0  0  0  0  0  0
  1  6  2  0  0  0  0
  1 18  1  0  0  0  0
  2 21  1  0  0  0  0
  2 22  2  0  0  0  0
  3  4  1  0  0  0  0
  3 17  2  0  0  0  0
  3 18  1  0  0  0  0
  4  5  2  0  0  0  0
  4 30  1  0  0  0  0
  5 15  1  0  0  0  0
  5 31  1  0  0  0  0
  6  9  1  0  0  0  0
  6 17  1  0  0  0  0
  7 10  1  0  0  0  0
  7 19  2  0  0  0  0
  7 32  1  0  0  0  0
  8 19  1  0  0  0  0
  8 23  2  0  0  0  0
  8 28  1  0  0  0  0
  9 33  1  0  0  0  0
  9 34  1  0  0  0  0
  9 35  1  0  0  0  0
 10 20  2  0  0  0  0
 10 26  1  0  0  0  0
 11 12  2  0  0  0  0
 11 15  1  0  0  0  0
 11 22  1  0  0  0  0
 12 13  1  0  0  0  0
 12 36  1  0  0  0  0
 13 21  2  0  0  0  0
 13 24  1  0  0  0  0
 14 24  1  0  0  0  0
 14 37  1  0  0  0  0
 14 38  1  0  0  0  0
 15 16  2  0  0  0  0
 16 17  1  0  0  0  0
 16 39  1  0  0  0  0
 18 40  1  0  0  0  0
 19 41  1  0  0  0  0
 20 23  1  0  0  0  0
 20 42  1  0  0  0  0
 21 43  1  0  0  0  0
 22 44  1  0  0  0  0
 23 45  1  0  0  0  0
 25 27  1  0  0  0  0
 25 29  1  6  0  0  0
 25 26  1  0  0  0  0
 25 14  1  0  0  0  0
 26 46  1  0  0  0  0
 26 47  1  0  0  0  0
 27 48  1  0  0  0  0
 27 49  1  0  0  0  0
M  END
>  <DRUGBANK_ID>
DB08569

>  <COMMON_NAME>
3-PYRIDIN-4-YL-2,4-DIHYDRO-INDENO[1,2-.C.] PYRAZOLE

$$$$
