
 OpenBabel10282417203D

 51 54  0  0  0  0  0  0  0  0999 V2000
    2.3678    0.6677    0.3227 C   0  0  0  0  0  0  0  0  0  0  0  0
    0.9284    0.2419    0.0620 C   0  0  0  0  0  0  0  0  0  0  0  0
    0.1055    1.3829   -0.0104 C   0  0  0  0  0  0  0  0  0  0  0  0
   -1.2745    1.2983   -0.0404 C   0  0  0  0  0  0  0  0  0  0  0  0
   -1.8776    0.0562   -0.0373 C   0  0  0  0  0  0  0  0  0  0  0  0
   -1.0993   -1.1054   -0.0420 C   0  0  0  0  0  0  0  0  0  0  0  0
    0.3264   -1.0768   -0.0204 C   0  0  0  0  0  0  0  0  0  0  0  0
    1.0667   -2.5164   -0.0012 C   0  0  0  0  0  0  0  0  0  0  0  0
    1.6742   -2.8609    1.4169 C   0  0  0  0  0  0  0  0  0  0  0  0
    1.6569   -1.8356    2.4031 C   0  0  0  0  0  0  0  0  0  0  0  0
    2.5145   -1.8041    3.5013 C   0  0  0  0  0  0  0  0  0  0  0  0
    3.3700   -2.8731    3.7168 C   0  0  0  0  0  0  0  0  0  0  0  0
    3.2705   -3.9790    2.8929 C   0  0  0  0  0  0  0  0  0  0  0  0
    2.3876   -4.0443    1.7869 C   0  0  0  0  0  0  0  0  0  0  0  0
    2.4406   -5.3900    1.0997 C   0  0  0  0  0  0  0  0  0  0  0  0
    1.9938   -2.6176   -1.3341 C   0  0  3  0  0  0  0  0  0  0  0  0
    2.8246   -3.8817   -1.5800 C   0  0  0  0  0  0  0  0  0  0  0  0
    4.3069   -3.7143   -1.5782 N   0  0  3  0  0  0  0  0  0  0  0  0
    4.7391   -2.9722   -0.3757 C   0  0  0  0  0  0  0  0  0  0  0  0
    4.0199   -1.6299   -0.3030 C   0  0  0  0  0  0  0  0  0  0  0  0
    3.0214   -1.5104   -1.4821 C   0  0  3  0  0  0  0  0  0  0  0  0
    3.8747   -1.5967   -2.7447 C   0  0  0  0  0  0  0  0  0  0  0  0
    4.6683   -2.8944   -2.7429 C   0  0  0  0  0  0  0  0  0  0  0  0
    0.0318   -3.5063   -0.2520 O   0  0  0  0  0  0  0  0  0  0  0  0
    2.7869    0.1972    1.2070 H   0  0  0  0  0  0  0  0  0  0  0  0
    3.0427    0.6087   -0.5259 H   0  0  0  0  0  0  0  0  0  0  0  0
    2.4504    1.7403    0.5208 H   0  0  0  0  0  0  0  0  0  0  0  0
    0.5563    2.3733    0.0064 H   0  0  0  0  0  0  0  0  0  0  0  0
   -1.8575    2.2110   -0.0342 H   0  0  0  0  0  0  0  0  0  0  0  0
   -2.9624   -0.0123   -0.0291 H   0  0  0  0  0  0  0  0  0  0  0  0
   -1.6443   -2.0496   -0.0355 H   0  0  0  0  0  0  0  0  0  0  0  0
    1.0414   -0.9417    2.2897 H   0  0  0  0  0  0  0  0  0  0  0  0
    2.5608   -0.9268    4.1350 H   0  0  0  0  0  0  0  0  0  0  0  0
    4.0912   -2.8425    4.5233 H   0  0  0  0  0  0  0  0  0  0  0  0
    3.9566   -4.8129    3.0695 H   0  0  0  0  0  0  0  0  0  0  0  0
    3.4350   -5.5316    0.6486 H   0  0  0  0  0  0  0  0  0  0  0  0
    2.3050   -6.2164    1.7992 H   0  0  0  0  0  0  0  0  0  0  0  0
    1.6639   -5.5504    0.3512 H   0  0  0  0  0  0  0  0  0  0  0  0
    1.2905   -2.5500   -2.1834 H   0  0  0  0  0  0  0  0  0  0  0  0
    2.6140   -4.5500   -0.8011 H   0  0  0  0  0  0  0  0  0  0  0  0
    2.4883   -4.4381   -2.4622 H   0  0  0  0  0  0  0  0  0  0  0  0
    4.5713   -3.5617    0.5263 H   0  0  0  0  0  0  0  0  0  0  0  0
    5.8217   -2.8009   -0.3666 H   0  0  0  0  0  0  0  0  0  0  0  0
    3.5465   -1.5778    0.6685 H   0  0  0  0  0  0  0  0  0  0  0  0
    4.7443   -0.8113   -0.3087 H   0  0  0  0  0  0  0  0  0  0  0  0
    2.4462   -0.6110   -1.6504 H   0  0  0  0  0  0  0  0  0  0  0  0
    3.2444   -1.5184   -3.6345 H   0  0  0  0  0  0  0  0  0  0  0  0
    4.5535   -0.7336   -2.7383 H   0  0  0  0  0  0  0  0  0  0  0  0
    5.7438   -2.6778   -2.7263 H   0  0  0  0  0  0  0  0  0  0  0  0
    4.4735   -3.4551   -3.6593 H   0  0  0  0  0  0  0  0  0  0  0  0
    0.2630   -4.3289    0.1944 H   0  0  0  0  0  0  0  0  0  0  0  0
  1  2  1  0  0  0  0
  1 25  1  0  0  0  0
  1 26  1  0  0  0  0
  1 27  1  0  0  0  0
  2  3  2  0  0  0  0
  2  7  1  0  0  0  0
  3  4  1  0  0  0  0
  3 28  1  0  0  0  0
  4  5  2  0  0  0  0
  4 29  1  0  0  0  0
  5  6  1  0  0  0  0
  5 30  1  0  0  0  0
  6  7  2  0  0  0  0
  6 31  1  0  0  0  0
  7  8  1  0  0  0  0
  8  9  1  0  0  0  0
  8 16  1  0  0  0  0
  8 24  1  0  0  0  0
  9 10  2  0  0  0  0
  9 14  1  0  0  0  0
 10 11  1  0  0  0  0
 10 32  1  0  0  0  0
 11 12  2  0  0  0  0
 11 33  1  0  0  0  0
 12 13  1  0  0  0  0
 12 34  1  0  0  0  0
 13 14  2  0  0  0  0
 13 35  1  0  0  0  0
 14 15  1  0  0  0  0
 15 36  1  0  0  0  0
 15 37  1  0  0  0  0
 15 38  1  0  0  0  0
 16 17  1  0  0  0  0
 16 21  1  0  0  0  0
 16 39  1  0  0  0  0
 17 18  1  0  0  0  0
 17 40  1  0  0  0  0
 17 41  1  0  0  0  0
 18 19  1  0  0  0  0
 18 23  1  0  0  0  0
 19 20  1  0  0  0  0
 19 42  1  0  0  0  0
 19 43  1  0  0  0  0
 20 21  1  0  0  0  0
 20 44  1  0  0  0  0
 20 45  1  0  0  0  0
 21 22  1  0  0  0  0
 21 46  1  0  0  0  0
 22 23  1  0  0  0  0
 22 47  1  0  0  0  0
 22 48  1  0  0  0  0
 23 49  1  0  0  0  0
 23 50  1  0  0  0  0
 24 51  1  0  0  0  0
M  END
>  <DRUGBANK_ID>
DB13566

>  <COMMON_NAME>
Sequifenadine

>  <CAS_NUMBER>
57734-69-7

>  <UNII>
C7Q3TBR3FP

>  <SYNONYMS>
Sequifenadine

$$$$
