
 OpenBabel10282417143D

 40 41  0  0  1  0  0  0  0  0999 V2000
    0.4221    1.4941    0.3485 C   0  0  2  0  0  0  0  0  0  0  0  0
    0.7651    2.8427    0.0091 N   0  0  0  0  0  0  0  0  0  0  0  0
    1.6327    0.7503    0.1982 O   0  0  0  0  0  0  0  0  0  0  0  0
   -0.6976    0.8801   -0.4735 C   0  0  1  0  0  0  0  0  0  0  0  0
    1.1945    3.0803   -1.3091 C   0  0  0  0  0  0  0  0  0  0  0  0
    1.1577    3.6340    1.0548 C   0  0  0  0  0  0  0  0  0  0  0  0
    1.2900   -0.4825   -0.4049 C   0  0  1  0  0  0  0  0  0  0  0  0
   -0.2572   -0.5443   -0.5185 C   0  0  1  0  0  0  0  0  0  0  0  0
   -1.9772    1.0276    0.1403 O   0  0  0  0  0  0  0  0  0  0  0  0
    1.8592    4.2538   -1.5536 N   0  0  0  0  0  0  0  0  0  0  0  0
    1.0234    2.2768   -2.2127 O   0  0  0  0  0  0  0  0  0  0  0  0
    2.0512    4.5946    0.8576 C   0  0  0  0  0  0  0  0  0  0  0  0
    1.9886   -0.7314   -1.7591 C   0  0  0  0  0  0  0  0  0  0  0  0
   -0.8826   -1.2707    0.5680 O   0  0  0  0  0  0  0  0  0  0  0  0
    2.3027    4.9374   -0.5529 C   0  0  0  0  0  0  0  0  0  0  0  0
    1.3373   -1.7441   -2.5724 O   0  0  0  0  0  0  0  0  0  0  0  0
    3.0220    6.0541   -0.8320 N   0  0  0  0  0  0  0  0  0  0  0  0
    1.2796   -3.3125   -1.8445 P   0  0  3  0  0  0  0  0  0  0  0  0
    2.9129   -3.3379   -1.8030 O   0  0  0  0  0  0  0  0  0  0  0  0
    0.8202   -2.7666   -0.4146 O   0  0  0  0  0  0  0  0  0  0  0  0
    1.2279   -4.7161   -1.1930 O   0  0  0  0  0  0  0  0  0  0  0  0
    3.5595   -3.7755   -3.2028 P   0  0  0  0  0  0  0  0  0  0  0  0
    2.2735   -4.2096   -4.0530 O   0  0  0  0  0  0  0  0  0  0  0  0
    3.9679   -2.3273   -3.7298 O   0  0  0  0  0  0  0  0  0  0  0  0
    4.6476   -4.7874   -3.2302 O   0  0  0  0  0  0  0  0  0  0  0  0
    0.1531    1.4141    1.4130 H   0  0  0  0  0  0  0  0  0  0  0  0
   -0.7716    1.2476   -1.4944 H   0  0  0  0  0  0  0  0  0  0  0  0
    0.8092    3.3643    2.0470 H   0  0  0  0  0  0  0  0  0  0  0  0
    1.7139   -1.1790    0.3311 H   0  0  0  0  0  0  0  0  0  0  0  0
   -0.6170   -1.0125   -1.4403 H   0  0  0  0  0  0  0  0  0  0  0  0
   -2.0389    0.3335    0.8251 H   0  0  0  0  0  0  0  0  0  0  0  0
    2.5345    5.1234    1.6593 H   0  0  0  0  0  0  0  0  0  0  0  0
    2.0780    0.1763   -2.3517 H   0  0  0  0  0  0  0  0  0  0  0  0
    3.0238   -1.0342   -1.5594 H   0  0  0  0  0  0  0  0  0  0  0  0
   -0.3783   -1.0999    1.3862 H   0  0  0  0  0  0  0  0  0  0  0  0
    3.2467    6.7224   -0.1114 H   0  0  0  0  0  0  0  0  0  0  0  0
    2.9904    6.3777   -1.7914 H   0  0  0  0  0  0  0  0  0  0  0  0
   -0.1559   -2.8180   -0.3026 H   0  0  0  0  0  0  0  0  0  0  0  0
    2.0320   -5.1260   -3.7964 H   0  0  0  0  0  0  0  0  0  0  0  0
    4.4390   -1.8609   -3.0114 H   0  0  0  0  0  0  0  0  0  0  0  0
  1  3  1  0  0  0  0
  1  4  1  0  0  0  0
  1 26  1  1  0  0  0
  1  2  1  0  0  0  0
  2  5  1  0  0  0  0
  2  6  1  0  0  0  0
  3  7  1  0  0  0  0
  4  8  1  0  0  0  0
  4  9  1  0  0  0  0
  4 27  1  6  0  0  0
  5 10  1  0  0  0  0
  5 11  2  0  0  0  0
  6 12  2  0  0  0  0
  6 28  1  0  0  0  0
  7  8  1  0  0  0  0
  7 29  1  1  0  0  0
  7 13  1  0  0  0  0
  8 14  1  0  0  0  0
  8 30  1  6  0  0  0
  9 31  1  0  0  0  0
 10 15  2  0  0  0  0
 12 15  1  0  0  0  0
 12 32  1  0  0  0  0
 13 16  1  0  0  0  0
 13 33  1  0  0  0  0
 13 34  1  0  0  0  0
 14 35  1  0  0  0  0
 15 17  1  0  0  0  0
 16 18  1  0  0  0  0
 17 36  1  0  0  0  0
 17 37  1  0  0  0  0
 18 19  1  0  0  0  0
 18 20  1  0  0  0  0
 18 21  2  0  0  0  0
 19 22  1  0  0  0  0
 20 38  1  0  0  0  0
 22 23  1  0  0  0  0
 22 24  1  0  0  0  0
 22 25  2  0  0  0  0
 23 39  1  0  0  0  0
 24 40  1  0  0  0  0
M  END
>  <DRUGBANK_ID>
DB04555

>  <SECONDARY_ACCESSION_NUMBERS>
EXPT00868

>  <COMMON_NAME>
Cytidine-5'-Diphosphate

>  <CAS_NUMBER>
63-38-7

>  <UNII>
1ZH821MXU5

$$$$
