
 OpenBabel10282417193D

 63 68  0  0  0  0  0  0  0  0999 V2000
    1.6272    1.1618   -0.0192 C   0  0  0  0  0  0  0  0  0  0  0  0
    2.4133    0.0305   -0.0196 C   0  0  0  0  0  0  0  0  0  0  0  0
    1.5783   -1.0596    0.0118 N   0  0  0  0  0  0  0  0  0  0  0  0
    0.2741   -0.6512   -0.0089 C   0  0  0  0  0  0  0  0  0  0  0  0
    0.2688    0.7286   -0.0050 C   0  0  0  0  0  0  0  0  0  0  0  0
   -0.9959    1.3008    0.0226 C   0  0  0  0  0  0  0  0  0  0  0  0
   -2.1157    0.5643    0.0247 N   0  0  0  0  0  0  0  0  0  0  0  0
   -1.9529   -0.7639   -0.0274 C   0  0  0  0  0  0  0  0  0  0  0  0
   -0.7984   -1.4585   -0.0258 N   0  0  0  0  0  0  0  0  0  0  0  0
   -1.1153    2.7038    0.1443 C   0  0  0  0  0  0  0  0  0  0  0  0
   -1.7057    3.4436    1.1654 C   0  0  0  0  0  0  0  0  0  0  0  0
   -1.3921    4.7200    1.0297 N   0  0  0  0  0  0  0  0  0  0  0  0
   -0.7689    4.8210   -0.1687 N   0  0  0  0  0  0  0  0  0  0  0  0
   -0.5538    3.6071   -0.7308 C   0  0  0  0  0  0  0  0  0  0  0  0
   -0.4566    6.1362   -0.7296 C   0  0  3  0  0  0  0  0  0  0  0  0
   -1.0320    6.2200   -2.1783 C   0  0  0  0  0  0  0  0  0  0  0  0
    0.1705    6.9574   -2.6157 N   0  0  3  0  0  0  0  0  0  0  0  0
    0.8974    6.2804   -1.4874 C   0  0  0  0  0  0  0  0  0  0  0  0
    0.1578    8.4533   -2.6277 C   0  0  0  0  0  0  0  0  0  0  0  0
   -0.0154    9.2538   -1.3419 C   0  0  0  0  0  0  0  0  0  0  0  0
   -1.4841    9.2396   -0.9558 C   0  0  0  0  0  0  0  0  0  0  0  0
   -2.3947    9.7485   -1.8877 N   0  0  0  0  0  0  0  0  0  0  0  0
   -2.3124    9.0727   -3.1992 C   0  0  0  0  0  0  0  0  0  0  0  0
   -0.8459    9.0774   -3.6388 C   0  0  0  0  0  0  0  0  0  0  0  0
   -3.4939   10.3208   -1.2628 C   0  0  0  0  0  0  0  0  0  0  0  0
   -3.5854   10.6094   -0.0877 O   0  0  0  0  0  0  0  0  0  0  0  0
   -4.5268   10.7857   -2.1415 C   0  0  0  0  0  0  0  0  0  0  0  0
   -4.5784   12.1557   -2.3320 C   0  0  0  0  0  0  0  0  0  0  0  0
   -5.4942   12.5958   -3.2458 C   0  0  0  0  0  0  0  0  0  0  0  0
   -6.2942   11.7604   -3.9509 N   0  0  0  0  0  0  0  0  0  0  0  0
   -6.2056   10.4044   -3.7247 C   0  0  0  0  0  0  0  0  0  0  0  0
   -5.3317    9.8861   -2.8034 C   0  0  0  0  0  0  0  0  0  0  0  0
   -5.1892    8.5669   -2.6142 F   0  0  0  0  0  0  0  0  0  0  0  0
   -7.0655    9.4528   -4.5192 C   0  0  0  0  0  0  0  0  0  0  0  0
   -8.3949    9.6473   -4.2973 F   0  0  0  0  0  0  0  0  0  0  0  0
   -6.8792    9.5850   -5.8643 F   0  0  0  0  0  0  0  0  0  0  0  0
   -6.8437    8.1307   -4.2623 F   0  0  0  0  0  0  0  0  0  0  0  0
   -0.8241    7.1857    0.3107 C   0  0  0  0  0  0  0  0  0  0  0  0
   -2.3024    7.0967    0.6530 C   0  0  0  0  0  0  0  0  0  0  0  0
   -3.5288    7.0228    0.9370 N   0  0  0  0  0  0  0  0  0  0  0  0
    1.9927    2.1823   -0.0358 H   0  0  0  0  0  0  0  0  0  0  0  0
    3.4882   -0.0906   -0.0342 H   0  0  0  0  0  0  0  0  0  0  0  0
    1.8570   -2.0282    0.0370 H   0  0  0  0  0  0  0  0  0  0  0  0
   -2.8694   -1.3417   -0.0816 H   0  0  0  0  0  0  0  0  0  0  0  0
   -2.2763    3.1287    2.0324 H   0  0  0  0  0  0  0  0  0  0  0  0
   -0.0325    3.4736   -1.6656 H   0  0  0  0  0  0  0  0  0  0  0  0
   -1.1298    5.2777   -2.7396 H   0  0  0  0  0  0  0  0  0  0  0  0
   -2.0270    6.6367   -2.2320 H   0  0  0  0  0  0  0  0  0  0  0  0
    1.6970    6.8340   -0.9882 H   0  0  0  0  0  0  0  0  0  0  0  0
    1.3438    5.3233   -1.8028 H   0  0  0  0  0  0  0  0  0  0  0  0
    1.1634    8.7281   -2.9733 H   0  0  0  0  0  0  0  0  0  0  0  0
    0.7117    8.8539   -0.6261 H   0  0  0  0  0  0  0  0  0  0  0  0
    0.2834   10.3004   -1.4028 H   0  0  0  0  0  0  0  0  0  0  0  0
   -1.8616    8.2407   -1.0615 H   0  0  0  0  0  0  0  0  0  0  0  0
   -1.6532    9.5591    0.0790 H   0  0  0  0  0  0  0  0  0  0  0  0
   -2.9560    9.5609   -3.9258 H   0  0  0  0  0  0  0  0  0  0  0  0
   -2.7152    8.0551   -3.1405 H   0  0  0  0  0  0  0  0  0  0  0  0
   -0.5898   10.1437   -3.7126 H   0  0  0  0  0  0  0  0  0  0  0  0
   -0.7241    8.6355   -4.6262 H   0  0  0  0  0  0  0  0  0  0  0  0
   -3.9096   12.8216   -1.7955 H   0  0  0  0  0  0  0  0  0  0  0  0
   -5.6042   13.6556   -3.4471 H   0  0  0  0  0  0  0  0  0  0  0  0
   -0.3778    6.7574    1.2336 H   0  0  0  0  0  0  0  0  0  0  0  0
   -0.3090    8.1006    0.5567 H   0  0  0  0  0  0  0  0  0  0  0  0
  1  2  2  0  0  0  0
  1  5  1  0  0  0  0
  1 41  1  0  0  0  0
  2  3  1  0  0  0  0
  2 42  1  0  0  0  0
  3  4  1  0  0  0  0
  3 43  1  0  0  0  0
  4  5  1  0  0  0  0
  4  9  2  0  0  0  0
  5  6  2  0  0  0  0
  6  7  1  0  0  0  0
  6 10  1  0  0  0  0
  7  8  2  0  0  0  0
  8  9  1  0  0  0  0
  8 44  1  0  0  0  0
 10 11  1  0  0  0  0
 10 14  2  0  0  0  0
 11 12  2  0  0  0  0
 11 45  1  0  0  0  0
 12 13  1  0  0  0  0
 13 14  1  0  0  0  0
 13 15  1  0  0  0  0
 14 46  1  0  0  0  0
 15 16  1  0  0  0  0
 15 18  1  0  0  0  0
 15 38  1  0  0  0  0
 16 17  1  0  0  0  0
 16 47  1  0  0  0  0
 16 48  1  0  0  0  0
 17 18  1  0  0  0  0
 17 19  1  0  0  0  0
 18 49  1  0  0  0  0
 18 50  1  0  0  0  0
 19 20  1  0  0  0  0
 19 24  1  0  0  0  0
 19 51  1  0  0  0  0
 20 21  1  0  0  0  0
 20 52  1  0  0  0  0
 20 53  1  0  0  0  0
 21 22  1  0  0  0  0
 21 54  1  0  0  0  0
 21 55  1  0  0  0  0
 22 23  1  0  0  0  0
 22 25  1  0  0  0  0
 23 24  1  0  0  0  0
 23 56  1  0  0  0  0
 23 57  1  0  0  0  0
 24 58  1  0  0  0  0
 24 59  1  0  0  0  0
 25 26  2  0  0  0  0
 25 27  1  0  0  0  0
 27 28  2  0  0  0  0
 27 32  1  0  0  0  0
 28 29  1  0  0  0  0
 28 60  1  0  0  0  0
 29 30  2  0  0  0  0
 29 61  1  0  0  0  0
 30 31  1  0  0  0  0
 31 32  2  0  0  0  0
 31 34  1  0  0  0  0
 32 33  1  0  0  0  0
 34 35  1  0  0  0  0
 34 36  1  0  0  0  0
 34 37  1  0  0  0  0
 38 39  1  0  0  0  0
 38 62  1  0  0  0  0
 38 63  1  0  0  0  0
 39 40  3  0  0  0  0
M  END
>  <DRUGBANK_ID>
DB12154

>  <COMMON_NAME>
Itacitinib

>  <CAS_NUMBER>
1334298-90-6

>  <UNII>
19J3781LPM

>  <SYNONYMS>
Itacitinib

$$$$
