
 OpenBabel10282417183D

 43 44  0  0  0  0  0  0  0  0999 V2000
    1.4365    0.4661    1.1571 C   0  0  0  0  0  0  0  0  0  0  0  0
   -0.9087   -0.0257    1.7603 C   0  0  0  0  0  0  0  0  0  0  0  0
    0.0144   -6.8925   -6.2555 C   0  0  0  0  0  0  0  0  0  0  0  0
    0.1043    1.3712   -2.7613 C   0  0  0  0  0  0  0  0  0  0  0  0
    1.1368   -5.4148   -2.4484 C   0  0  0  0  0  0  0  0  0  0  0  0
    0.6123   -3.3624   -3.3949 C   0  0  0  0  0  0  0  0  0  0  0  0
    0.7904   -5.9703   -3.7036 C   0  0  0  0  0  0  0  0  0  0  0  0
    0.4014   -3.8234   -4.6549 C   0  0  0  0  0  0  0  0  0  0  0  0
    0.2375    0.1461   -3.3246 C   0  0  0  0  0  0  0  0  0  0  0  0
    0.0230    1.2501   -1.4460 C   0  0  0  0  0  0  0  0  0  0  0  0
    0.8985   -1.5794    2.1056 C   0  0  0  0  0  0  0  0  0  0  0  0
    0.3458   -2.4846    0.9407 C   0  0  0  0  0  0  0  0  0  0  0  0
    1.5865   -3.2612   -1.0828 C   0  0  0  0  0  0  0  0  0  0  0  0
    1.0862   -4.0404   -2.2844 C   0  0  0  0  0  0  0  0  0  0  0  0
    0.4472   -5.1612   -4.8049 C   0  0  0  0  0  0  0  0  0  0  0  0
    0.3538   -1.0543   -1.2991 C   0  0  0  0  0  0  0  0  0  0  0  0
    0.6691   -0.8989   -2.5612 N   0  0  0  0  0  0  0  0  0  0  0  0
   -0.1721    0.0613   -0.7857 N   0  0  0  0  0  0  0  0  0  0  0  0
    0.5336   -0.1529    2.1238 N   0  0  0  0  0  0  0  0  0  0  0  0
    0.6809   -2.2133   -0.5211 N   0  0  0  0  0  0  0  0  0  0  0  0
    0.0474   -5.5081   -6.0523 O   0  0  0  0  0  0  0  0  0  0  0  0
    1.1261    1.4740    0.8945 H   0  0  0  0  0  0  0  0  0  0  0  0
    1.4494   -0.1956    0.3287 H   0  0  0  0  0  0  0  0  0  0  0  0
    2.5289    0.4334    1.2353 H   0  0  0  0  0  0  0  0  0  0  0  0
   -1.2853   -0.7432    1.0191 H   0  0  0  0  0  0  0  0  0  0  0  0
   -1.5393   -0.2062    2.6345 H   0  0  0  0  0  0  0  0  0  0  0  0
   -1.1761    0.9585    1.3581 H   0  0  0  0  0  0  0  0  0  0  0  0
    1.0227   -7.2932   -6.1312 H   0  0  0  0  0  0  0  0  0  0  0  0
   -0.7025   -7.3517   -5.5694 H   0  0  0  0  0  0  0  0  0  0  0  0
   -0.3162   -7.0560   -7.2794 H   0  0  0  0  0  0  0  0  0  0  0  0
    0.0622    2.3013   -3.3049 H   0  0  0  0  0  0  0  0  0  0  0  0
    1.3908   -6.0754   -1.6225 H   0  0  0  0  0  0  0  0  0  0  0  0
    0.1402   -2.4307   -3.3312 H   0  0  0  0  0  0  0  0  0  0  0  0
    0.7902   -7.0482   -3.7941 H   0  0  0  0  0  0  0  0  0  0  0  0
    0.0753   -3.1223   -5.4160 H   0  0  0  0  0  0  0  0  0  0  0  0
    0.0501   -0.0400   -4.3646 H   0  0  0  0  0  0  0  0  0  0  0  0
    0.1686    2.1315   -0.8104 H   0  0  0  0  0  0  0  0  0  0  0  0
    1.9955   -1.6623    2.1530 H   0  0  0  0  0  0  0  0  0  0  0  0
    0.5631   -1.9829    3.0728 H   0  0  0  0  0  0  0  0  0  0  0  0
    0.7470   -3.4716    1.2279 H   0  0  0  0  0  0  0  0  0  0  0  0
   -0.7312   -2.6435    1.0417 H   0  0  0  0  0  0  0  0  0  0  0  0
    2.5777   -2.8315   -1.2879 H   0  0  0  0  0  0  0  0  0  0  0  0
    1.8145   -4.0183   -0.3109 H   0  0  0  0  0  0  0  0  0  0  0  0
  1 22  1  0  0  0  0
  1 23  1  0  0  0  0
  1 24  1  0  0  0  0
  2 25  1  0  0  0  0
  2 26  1  0  0  0  0
  2 27  1  0  0  0  0
  3 28  1  0  0  0  0
  3 29  1  0  0  0  0
  3 30  1  0  0  0  0
  4 31  1  0  0  0  0
  5 32  1  0  0  0  0
  6 33  1  0  0  0  0
  7  5  1  0  0  0  0
  7 34  1  0  0  0  0
  8  6  2  0  0  0  0
  8 35  1  0  0  0  0
  9  4  2  0  0  0  0
  9 36  1  0  0  0  0
 10  4  1  0  0  0  0
 10 37  1  0  0  0  0
 11 38  1  0  0  0  0
 11 39  1  0  0  0  0
 12 11  1  0  0  0  0
 12 40  1  0  0  0  0
 12 41  1  0  0  0  0
 13 42  1  0  0  0  0
 13 43  1  0  0  0  0
 14  5  2  0  0  0  0
 14  6  1  0  0  0  0
 14 13  1  0  0  0  0
 15  7  2  0  0  0  0
 15  8  1  0  0  0  0
 17  9  1  0  0  0  0
 17 16  2  0  0  0  0
 18 10  2  0  0  0  0
 18 16  1  0  0  0  0
 19  1  1  0  0  0  0
 19  2  1  0  0  0  0
 19 11  1  0  0  0  0
 20 12  1  0  0  0  0
 20 13  1  0  0  0  0
 20 16  1  0  0  0  0
 21  3  1  0  0  0  0
 21 15  1  0  0  0  0
M  END
>  <DRUGBANK_ID>
DB11235

>  <COMMON_NAME>
Thonzylamine

>  <CAS_NUMBER>
91-85-0

>  <UNII>
R79646H5Z8

>  <SYNONYMS>
neohetramine; Thonzylamine

$$$$
