
 OpenBabel10282417133D

 61 60  0  0  0  0  0  0  0  0999 V2000
   -2.1968   -3.3909   -0.1437 S   0  0  0  0  0  0  0  0  0  0  0  0
   -5.5230   -1.0687   -1.4911 O   0  0  0  0  0  0  0  0  0  0  0  0
   -2.0376    2.3960   -2.8397 O   0  0  0  0  0  0  0  0  0  0  0  0
   -0.1814    0.0433    1.0503 O   0  0  0  0  0  0  0  0  0  0  0  0
   -1.3472    1.2734   -0.3082 O   0  0  0  0  0  0  0  0  0  0  0  0
   -4.4007   -1.7508    4.0992 O   0  0  0  0  0  0  0  0  0  0  0  0
   -3.9679    0.1668    3.0398 O   0  0  0  0  0  0  0  0  0  0  0  0
   -2.9294    0.5506   -1.8904 N   0  0  0  0  0  0  0  0  0  0  0  0
   -4.6666   -1.4235    0.5909 N   0  0  0  0  0  0  0  0  0  0  0  0
   -0.9340   -1.9928   -2.2296 N   0  0  0  0  0  0  0  0  0  0  0  0
   -3.1631   -0.8591   -1.3966 C   0  0  2  0  0  0  0  0  0  0  0  0
   -4.5272   -1.0954   -0.7657 C   0  0  0  0  0  0  0  0  0  0  0  0
   -1.9839    1.1659   -2.7079 C   0  0  0  0  0  0  0  0  0  0  0  0
   -2.3829   -1.5099   -0.2551 C   0  0  0  0  0  0  0  0  0  0  0  0
   -0.8428    0.4259   -3.4136 C   0  0  0  0  0  0  0  0  0  0  0  0
   -0.1631   -0.8899   -1.4413 C   0  0  1  0  0  0  0  0  0  0  0  0
    0.3268   -0.0747   -2.5491 C   0  0  0  0  0  0  0  0  0  0  0  0
   -3.7152   -1.7194    1.8173 C   0  0  0  0  0  0  0  0  0  0  0  0
   -0.5061    0.2330   -0.1207 C   0  0  0  0  0  0  0  0  0  0  0  0
   -4.1473   -1.1662    3.1014 C   0  0  0  0  0  0  0  0  0  0  0  0
   -3.8102   -4.0702    0.2270 C   0  0  0  0  0  0  0  0  0  0  0  0
   -3.5429   -5.3586    0.9701 C   0  0  0  0  0  0  0  0  0  0  0  0
   -2.6441   -5.2853    2.2603 C   0  0  0  0  0  0  0  0  0  0  0  0
   -3.1584   -4.4929    3.4787 C   0  0  0  0  0  0  0  0  0  0  0  0
   -4.6250   -4.7911    3.7862 C   0  0  0  0  0  0  0  0  0  0  0  0
   -4.7157   -6.2553    4.2096 C   0  0  0  0  0  0  0  0  0  0  0  0
   -3.8434   -6.5159    5.4437 C   0  0  0  0  0  0  0  0  0  0  0  0
   -4.3241   -5.6828    6.6211 C   0  0  0  0  0  0  0  0  0  0  0  0
   -1.8308    1.5318    0.5151 H   0  0  0  0  0  0  0  0  0  0  0  0
   -4.0931    0.3514    3.9853 H   0  0  0  0  0  0  0  0  0  0  0  0
   -3.4662    1.2787   -1.4230 H   0  0  0  0  0  0  0  0  0  0  0  0
   -5.5558   -1.9065    0.6591 H   0  0  0  0  0  0  0  0  0  0  0  0
   -1.4899   -2.6983   -1.7301 H   0  0  0  0  0  0  0  0  0  0  0  0
   -1.4534   -1.7994   -3.0845 H   0  0  0  0  0  0  0  0  0  0  0  0
   -3.1653   -1.4238   -2.3206 H   0  0  0  0  0  0  0  0  0  0  0  0
   -2.5097   -0.6955    0.4734 H   0  0  0  0  0  0  0  0  0  0  0  0
   -1.3513   -1.5549    0.0425 H   0  0  0  0  0  0  0  0  0  0  0  0
   -1.3115   -0.3409   -4.0356 H   0  0  0  0  0  0  0  0  0  0  0  0
   -0.3730    1.0892   -4.1420 H   0  0  0  0  0  0  0  0  0  0  0  0
    0.5618   -1.5412   -0.9493 H   0  0  0  0  0  0  0  0  0  0  0  0
    1.0102   -0.7219   -3.1111 H   0  0  0  0  0  0  0  0  0  0  0  0
    0.8924    0.7305   -2.0859 H   0  0  0  0  0  0  0  0  0  0  0  0
   -3.5412   -2.7585    1.9414 H   0  0  0  0  0  0  0  0  0  0  0  0
   -2.6400   -1.4627    1.8691 H   0  0  0  0  0  0  0  0  0  0  0  0
   -4.5343   -3.6253    0.8991 H   0  0  0  0  0  0  0  0  0  0  0  0
   -4.3579   -4.0743   -0.7101 H   0  0  0  0  0  0  0  0  0  0  0  0
   -4.5323   -5.7413    1.2372 H   0  0  0  0  0  0  0  0  0  0  0  0
   -3.1038   -6.0535    0.2535 H   0  0  0  0  0  0  0  0  0  0  0  0
   -2.4818   -6.3204    2.5756 H   0  0  0  0  0  0  0  0  0  0  0  0
   -1.6412   -4.9017    2.0475 H   0  0  0  0  0  0  0  0  0  0  0  0
   -2.5234   -4.6663    4.3524 H   0  0  0  0  0  0  0  0  0  0  0  0
   -2.9363   -3.4413    3.4022 H   0  0  0  0  0  0  0  0  0  0  0  0
   -5.0158   -4.1380    4.5737 H   0  0  0  0  0  0  0  0  0  0  0  0
   -5.2802   -4.5854    2.9328 H   0  0  0  0  0  0  0  0  0  0  0  0
   -5.7555   -6.5310    4.4034 H   0  0  0  0  0  0  0  0  0  0  0  0
   -4.3843   -6.8984    3.3867 H   0  0  0  0  0  0  0  0  0  0  0  0
   -3.8545   -7.5799    5.6841 H   0  0  0  0  0  0  0  0  0  0  0  0
   -2.7867   -6.2957    5.2550 H   0  0  0  0  0  0  0  0  0  0  0  0
   -5.3601   -5.9435    6.8519 H   0  0  0  0  0  0  0  0  0  0  0  0
   -3.6979   -5.8560    7.4966 H   0  0  0  0  0  0  0  0  0  0  0  0
   -4.2855   -4.6062    6.4204 H   0  0  0  0  0  0  0  0  0  0  0  0
  1 14  1  0  0  0  0
  1 21  1  0  0  0  0
  2 12  2  0  0  0  0
  3 13  2  0  0  0  0
  4 19  2  0  0  0  0
  5 19  1  0  0  0  0
  5 29  1  0  0  0  0
  6 20  2  0  0  0  0
  7 20  1  0  0  0  0
  7 30  1  0  0  0  0
  8 13  1  0  0  0  0
  8 31  1  0  0  0  0
  9 12  1  0  0  0  0
  9 18  1  0  0  0  0
  9 32  1  0  0  0  0
 10 33  1  0  0  0  0
 10 34  1  0  0  0  0
 11 14  1  0  0  0  0
 11 35  1  6  0  0  0
 11 12  1  0  0  0  0
 11  8  1  0  0  0  0
 13 15  1  0  0  0  0
 14 36  1  0  0  0  0
 14 37  1  0  0  0  0
 15 17  1  0  0  0  0
 15 38  1  0  0  0  0
 15 39  1  0  0  0  0
 16 19  1  0  0  0  0
 16 40  1  1  0  0  0
 16 17  1  0  0  0  0
 16 10  1  0  0  0  0
 17 41  1  0  0  0  0
 17 42  1  0  0  0  0
 18 20  1  0  0  0  0
 18 43  1  0  0  0  0
 18 44  1  0  0  0  0
 21 22  1  0  0  0  0
 21 45  1  0  0  0  0
 21 46  1  0  0  0  0
 22 23  1  0  0  0  0
 22 47  1  0  0  0  0
 22 48  1  0  0  0  0
 23 24  1  0  0  0  0
 23 49  1  0  0  0  0
 23 50  1  0  0  0  0
 24 25  1  0  0  0  0
 24 51  1  0  0  0  0
 24 52  1  0  0  0  0
 25 26  1  0  0  0  0
 25 53  1  0  0  0  0
 25 54  1  0  0  0  0
 26 27  1  0  0  0  0
 26 55  1  0  0  0  0
 26 56  1  0  0  0  0
 27 28  1  0  0  0  0
 27 57  1  0  0  0  0
 27 58  1  0  0  0  0
 28 59  1  0  0  0  0
 28 60  1  0  0  0  0
 28 61  1  0  0  0  0
M  END
>  <DRUGBANK_ID>
DB03032

>  <SECONDARY_ACCESSION_NUMBERS>
EXPT01665

>  <COMMON_NAME>
S-octylglutathione

>  <SYNONYMS>
L-Î³-Glutamyl-S-octyl-D-cysteinylglycine

$$$$
