
 OpenBabel10282417123D

 16 16  0  0  0  0  0  0  0  0999 V2000
    0.9965   -0.1190    0.0226 C   0  0  0  0  0  0  0  0  0  0  0  0
    0.2798   -1.2289    0.5494 C   0  0  0  0  0  0  0  0  0  0  0  0
   -0.8442   -1.8325    0.0359 C   0  0  0  0  0  0  0  0  0  0  0  0
    0.4135    0.9649   -0.5155 C   0  0  0  0  0  0  0  0  0  0  0  0
    1.1239    2.1325   -1.0501 C   0  0  0  0  0  0  0  0  0  0  0  0
    2.4600    2.0358   -1.0086 O   0  0  0  0  0  0  0  0  0  0  0  0
    0.5657    3.1159   -1.5097 O   0  0  0  0  0  0  0  0  0  0  0  0
    0.6748   -1.8350    1.7116 N   0  0  0  0  0  0  0  0  0  0  0  0
   -1.1514   -2.8219    0.9307 N   0  0  0  0  0  0  0  0  0  0  0  0
   -0.2212   -2.7728    1.9317 C   0  0  0  0  0  0  0  0  0  0  0  0
    2.0797   -0.1661    0.1046 H   0  0  0  0  0  0  0  0  0  0  0  0
   -1.4300   -1.6607   -0.8550 H   0  0  0  0  0  0  0  0  0  0  0  0
   -0.6665    1.0511   -0.5596 H   0  0  0  0  0  0  0  0  0  0  0  0
    2.7820    2.8785   -1.3925 H   0  0  0  0  0  0  0  0  0  0  0  0
   -1.9272   -3.4680    0.8733 H   0  0  0  0  0  0  0  0  0  0  0  0
   -0.2534   -3.4402    2.7835 H   0  0  0  0  0  0  0  0  0  0  0  0
  1  4  2  0  0  0  0
  1 11  1  0  0  0  0
  2  1  1  0  0  0  0
  2  8  1  0  0  0  0
  3  2  2  0  0  0  0
  3  9  1  0  0  0  0
  3 12  1  0  0  0  0
  4  5  1  0  0  0  0
  4 13  1  0  0  0  0
  5  7  2  0  0  0  0
  6  5  1  0  0  0  0
  6 14  1  0  0  0  0
  9 15  1  0  0  0  0
 10  8  2  0  0  0  0
 10  9  1  0  0  0  0
 10 16  1  0  0  0  0
M  END
>  <DRUGBANK_ID>
DB01971

>  <SECONDARY_ACCESSION_NUMBERS>
EXPT03207

>  <COMMON_NAME>
trans-urocanic acid

>  <CAS_NUMBER>
3465-72-3

>  <UNII>
G8D26XJJ3B

>  <SYNONYMS>
(2E)-3-(1H-imidazol-4-yl)acrylic acid; (E)-3-(1H-imidazol-4-yl)-2-propenoic acid; Urocanic acid

$$$$
