BLN
 OpenBabel10282417133D

 59 60  0  0  0  0  0  0  0  0999 V2000
    0.8545    0.0449    0.0927 C   0  0  0  0  0  0  0  0  0  0  0  0
    0.6156    1.0172    2.4107 C   0  0  0  0  0  0  0  0  0  0  0  0
    0.7786    0.2576    3.7261 C   0  0  0  0  0  0  0  0  0  0  0  0
   -0.7854   -1.3847    3.0238 C   0  0  0  0  0  0  0  0  0  0  0  0
   -0.9304   -0.7093    1.6458 C   0  0  0  0  0  0  0  0  0  0  0  0
    0.2252   -0.2148   -0.9244 O   0  0  0  0  0  0  0  0  0  0  0  0
   -0.4348   -0.4467    4.0538 O   0  0  0  0  0  0  0  0  0  0  0  0
    0.2852    0.0621    1.3525 N   0  0  0  0  0  0  0  0  0  0  0  0
    2.2169    0.2555    0.1016 N   0  0  0  0  0  0  0  0  0  0  0  0
    3.0385    0.0291   -1.0946 C   0  0  1  0  0  0  0  0  0  0  0  0
    3.9082    1.3024   -1.4535 C   0  0  0  0  0  0  0  0  0  0  0  0
    5.1661    1.5022   -0.5914 C   0  0  0  0  0  0  0  0  0  0  0  0
    6.1614    0.4556   -1.1570 C   0  0  0  0  0  0  0  0  0  0  0  0
    5.9333    2.7918   -0.5375 C   0  0  0  0  0  0  0  0  0  0  0  0
    3.8511   -1.3018   -0.9852 C   0  0  0  0  0  0  0  0  0  0  0  0
    3.8759   -2.1111   -1.9256 O   0  0  0  0  0  0  0  0  0  0  0  0
    5.1425   -1.2279    2.6900 C   0  0  0  0  0  0  0  0  0  0  0  0
    4.8243   -1.4602    0.0176 N   0  0  0  0  0  0  0  0  0  0  0  0
    5.9493   -2.3853    2.8331 O   0  0  0  0  0  0  0  0  0  0  0  0
    5.8236   -3.3247    1.7563 C   0  0  0  0  0  0  0  0  0  0  0  0
    4.4010   -3.8275    1.6232 C   0  0  0  0  0  0  0  0  0  0  0  0
    4.1862   -5.1885    1.5860 C   0  0  0  0  0  0  0  0  0  0  0  0
    2.8971   -5.7006    1.7553 C   0  0  0  0  0  0  0  0  0  0  0  0
    1.8040   -4.8655    1.9549 C   0  0  0  0  0  0  0  0  0  0  0  0
    1.9988   -3.5185    1.8797 C   0  0  0  0  0  0  0  0  0  0  0  0
    3.2481   -3.0301    1.6160 C   0  0  0  0  0  0  0  0  0  0  0  0
    6.7179   -0.0441    1.4450 C   0  0  0  0  0  0  0  0  0  0  0  0
    7.7405    0.4409    1.5366 N   0  0  0  0  0  0  0  0  0  0  0  0
    5.2948   -0.6249    1.3064 C   0  0  2  0  0  0  0  0  0  0  0  0
    2.3663   -0.1201   -1.9537 H   0  0  0  0  0  0  0  0  0  0  0  0
    4.5491    0.1410    1.3500 H   0  0  0  0  0  0  0  0  0  0  0  0
   -0.2396    1.7018    2.4965 H   0  0  0  0  0  0  0  0  0  0  0  0
    1.4964    1.6128    2.1611 H   0  0  0  0  0  0  0  0  0  0  0  0
    1.6146   -0.4504    3.6532 H   0  0  0  0  0  0  0  0  0  0  0  0
    0.9880    0.9487    4.5461 H   0  0  0  0  0  0  0  0  0  0  0  0
   -1.6886   -1.9321    3.3053 H   0  0  0  0  0  0  0  0  0  0  0  0
   -0.0048   -2.1280    3.0382 H   0  0  0  0  0  0  0  0  0  0  0  0
   -1.7759   -0.0125    1.6828 H   0  0  0  0  0  0  0  0  0  0  0  0
   -1.1172   -1.4486    0.8603 H   0  0  0  0  0  0  0  0  0  0  0  0
    2.6431    0.1157    0.9964 H   0  0  0  0  0  0  0  0  0  0  0  0
    4.2749    1.1918   -2.4811 H   0  0  0  0  0  0  0  0  0  0  0  0
    3.2693    2.1855   -1.4233 H   0  0  0  0  0  0  0  0  0  0  0  0
    4.7502    1.5200    0.4208 H   0  0  0  0  0  0  0  0  0  0  0  0
    6.6677    0.6692   -2.0823 H   0  0  0  0  0  0  0  0  0  0  0  0
    6.8757   -0.1075   -0.5721 H   0  0  0  0  0  0  0  0  0  0  0  0
    5.5564   -0.3260   -1.5277 H   0  0  0  0  0  0  0  0  0  0  0  0
    5.2759    3.6532   -0.4372 H   0  0  0  0  0  0  0  0  0  0  0  0
    6.5888    2.7674    0.3497 H   0  0  0  0  0  0  0  0  0  0  0  0
    6.5641    2.8618   -1.4184 H   0  0  0  0  0  0  0  0  0  0  0  0
    5.4372   -0.4602    3.4232 H   0  0  0  0  0  0  0  0  0  0  0  0
    4.1085   -1.3936    2.9813 H   0  0  0  0  0  0  0  0  0  0  0  0
    5.4572   -2.1479   -0.3979 H   0  0  0  0  0  0  0  0  0  0  0  0
    6.3013   -2.9556    0.8448 H   0  0  0  0  0  0  0  0  0  0  0  0
    6.5036   -4.1450    1.9886 H   0  0  0  0  0  0  0  0  0  0  0  0
    5.0329   -5.8507    1.4514 H   0  0  0  0  0  0  0  0  0  0  0  0
    2.7538   -6.7707    1.7641 H   0  0  0  0  0  0  0  0  0  0  0  0
    0.8024   -5.2389    2.1192 H   0  0  0  0  0  0  0  0  0  0  0  0
    1.2221   -2.7968    1.9970 H   0  0  0  0  0  0  0  0  0  0  0  0
    3.2045   -1.9676    1.4462 H   0  0  0  0  0  0  0  0  0  0  0  0
  1  6  2  0  0  0  0
  1  8  1  0  0  0  0
  1  9  1  0  0  0  0
  2  3  1  0  0  0  0
  2  8  1  0  0  0  0
  2 32  1  0  0  0  0
  2 33  1  0  0  0  0
  3  7  1  0  0  0  0
  3 34  1  0  0  0  0
  3 35  1  0  0  0  0
  4  5  1  0  0  0  0
  4  7  1  0  0  0  0
  4 36  1  0  0  0  0
  4 37  1  0  0  0  0
  5  8  1  0  0  0  0
  5 38  1  0  0  0  0
  5 39  1  0  0  0  0
  9 40  1  0  0  0  0
 10  9  1  0  0  0  0
 10 11  1  0  0  0  0
 10 15  1  0  0  0  0
 10 30  1  6  0  0  0
 11 12  1  0  0  0  0
 11 41  1  0  0  0  0
 11 42  1  0  0  0  0
 12 13  1  0  0  0  0
 12 14  1  0  0  0  0
 12 43  1  0  0  0  0
 13 44  1  0  0  0  0
 13 45  1  0  0  0  0
 13 46  1  0  0  0  0
 14 47  1  0  0  0  0
 14 48  1  0  0  0  0
 14 49  1  0  0  0  0
 15 16  2  0  0  0  0
 15 18  1  0  0  0  0
 17 19  1  0  0  0  0
 17 29  1  0  0  0  0
 17 50  1  0  0  0  0
 17 51  1  0  0  0  0
 18 52  1  0  0  0  0
 19 20  1  0  0  0  0
 20 21  1  0  0  0  0
 20 53  1  0  0  0  0
 20 54  1  0  0  0  0
 21 22  2  0  0  0  0
 21 26  1  0  0  0  0
 22 23  1  0  0  0  0
 22 55  1  0  0  0  0
 23 24  2  0  0  0  0
 23 56  1  0  0  0  0
 24 25  1  0  0  0  0
 24 57  1  0  0  0  0
 25 26  2  0  0  0  0
 25 58  1  0  0  0  0
 26 59  1  0  0  0  0
 27 28  3  0  0  0  0
 27 29  1  0  0  0  0
 29 18  1  0  0  0  0
 29 31  1  1  0  0  0
M  END
>  <DRUGBANK_ID>
DB03767

>  <SECONDARY_ACCESSION_NUMBERS>
EXPT00719

>  <COMMON_NAME>
Morpholine-4-Carboxylic Acid [1s-(2-Benzyloxy-1r-Cyano-Ethylcarbamoyl)-3-Methyl-Butyl]Amide

$$$$
