VX1
 OpenBabel10282417173D

 34 37  0  0  0  0  0  0  0  0999 V2000
   -2.2151    0.0174    0.0052 N   0  0  0  0  0  0  0  0  0  0  0  0
   -0.8553    0.0137    0.0094 C   0  0  0  0  0  0  0  0  0  0  0  0
   -0.2491   -1.1786    0.0051 N   0  0  0  0  0  0  0  0  0  0  0  0
    1.0923   -1.1745    0.0075 C   0  0  0  0  0  0  0  0  0  0  0  0
    1.8438   -0.0276    0.0017 C   0  0  0  0  0  0  0  0  0  0  0  0
    1.1320    1.1545   -0.0017 C   0  0  0  0  0  0  0  0  0  0  0  0
   -0.2170    1.1901    0.0179 N   0  0  0  0  0  0  0  0  0  0  0  0
    1.8208    2.4554   -0.0081 C   0  0  0  0  0  0  0  0  0  0  0  0
    2.7336    2.7758   -1.0805 C   0  0  0  0  0  0  0  0  0  0  0  0
    3.4785    3.9793   -1.1779 C   0  0  0  0  0  0  0  0  0  0  0  0
    3.2508    4.8691   -0.1156 C   0  0  0  0  0  0  0  0  0  0  0  0
    3.7637    6.0866    0.1374 N   0  0  0  0  0  0  0  0  0  0  0  0
    3.1777    6.5268    1.3212 O   0  0  0  0  0  0  0  0  0  0  0  0
    2.3201    5.5782    1.8006 C   0  0  0  0  0  0  0  0  0  0  0  0
    1.6673    5.8538    3.0654 C   0  0  0  0  0  0  0  0  0  0  0  0
    0.8579    6.9822    3.2402 C   0  0  0  0  0  0  0  0  0  0  0  0
    0.2772    7.2440    4.4862 C   0  0  0  0  0  0  0  0  0  0  0  0
    0.4372    6.3361    5.5321 C   0  0  0  0  0  0  0  0  0  0  0  0
   -0.2314    6.6785    7.0791 Cl  0  0  0  0  0  0  0  0  0  0  0  0
    1.1544    5.1596    5.3386 C   0  0  0  0  0  0  0  0  0  0  0  0
    1.8041    4.9426    4.1233 C   0  0  0  0  0  0  0  0  0  0  0  0
    2.3337    4.5233    0.9343 C   0  0  0  0  0  0  0  0  0  0  0  0
    1.5872    3.3555    1.0571 C   0  0  0  0  0  0  0  0  0  0  0  0
   -2.6948    0.9001    0.0224 H   0  0  0  0  0  0  0  0  0  0  0  0
   -2.6841   -0.8724    0.0140 H   0  0  0  0  0  0  0  0  0  0  0  0
    1.5625   -2.1530    0.0159 H   0  0  0  0  0  0  0  0  0  0  0  0
    2.9237   -0.0543    0.0137 H   0  0  0  0  0  0  0  0  0  0  0  0
    2.8540    2.0484   -1.8862 H   0  0  0  0  0  0  0  0  0  0  0  0
    4.1509    4.1913   -1.9978 H   0  0  0  0  0  0  0  0  0  0  0  0
    0.6646    7.6579    2.4091 H   0  0  0  0  0  0  0  0  0  0  0  0
   -0.2999    8.1531    4.6333 H   0  0  0  0  0  0  0  0  0  0  0  0
    1.2231    4.4151    6.1269 H   0  0  0  0  0  0  0  0  0  0  0  0
    2.4225    4.0546    4.0069 H   0  0  0  0  0  0  0  0  0  0  0  0
    0.9038    3.1411    1.8691 H   0  0  0  0  0  0  0  0  0  0  0  0
  1  2  1  0  0  0  0
  1 24  1  0  0  0  0
  1 25  1  0  0  0  0
  2  3  2  0  0  0  0
  2  7  1  0  0  0  0
  3  4  1  0  0  0  0
  4  5  2  0  0  0  0
  4 26  1  0  0  0  0
  5  6  1  0  0  0  0
  5 27  1  0  0  0  0
  6  7  2  0  0  0  0
  6  8  1  0  0  0  0
  8  9  1  0  0  0  0
  8 23  2  0  0  0  0
  9 10  2  0  0  0  0
  9 28  1  0  0  0  0
 10 11  1  0  0  0  0
 10 29  1  0  0  0  0
 11 12  2  0  0  0  0
 11 22  1  0  0  0  0
 12 13  1  0  0  0  0
 13 14  1  0  0  0  0
 14 15  1  0  0  0  0
 14 22  2  0  0  0  0
 15 16  2  0  0  0  0
 15 21  1  0  0  0  0
 16 17  1  0  0  0  0
 16 30  1  0  0  0  0
 17 18  2  0  0  0  0
 17 31  1  0  0  0  0
 18 19  1  0  0  0  0
 18 20  1  0  0  0  0
 20 21  2  0  0  0  0
 20 32  1  0  0  0  0
 21 33  1  0  0  0  0
 22 23  1  0  0  0  0
 23 34  1  0  0  0  0
M  END
>  <DRUGBANK_ID>
DB08707

>  <COMMON_NAME>
4-[3-(4-chlorophenyl)-2,1-benzisoxazol-5-yl]pyrimidin-2-amine

>  <UNII>
QJ8ZMA6BSL

$$$$
