
 OpenBabel10282417233D

 53 56  0  0  0  0  0  0  0  0999 V2000
    2.0655   -0.7717    1.6346 C   0  0  0  0  0  0  0  0  0  0  0  0
    2.3568   -1.4518    3.5931 C   0  0  2  0  0  0  0  0  0  0  0  0
    1.2481   -2.6955    3.7110 C   0  0  1  0  0  0  0  0  0  0  0  0
    1.8007   -2.4742    2.4154 C   0  0  0  0  0  0  0  0  0  0  0  0
    0.7912   -0.8289    2.4220 C   0  0  2  0  0  0  0  0  0  0  0  0
    0.6238   -1.1817    1.0199 C   0  0  0  0  0  0  0  0  0  0  0  0
    3.3045   -2.6110    4.8253 C   0  0  1  0  0  0  0  0  0  0  0  0
    3.3500   -4.3165    4.6372 C   0  0  2  0  0  0  0  0  0  0  0  0
    2.6578   -4.7871    3.4164 C   0  0  0  0  0  0  0  0  0  0  0  0
    1.2795   -4.2121    3.5362 C   0  0  0  0  0  0  0  0  0  0  0  0
    4.8619   -3.8959    6.4631 C   0  0  0  0  0  0  0  0  0  0  0  0
    5.8506   -4.6917    5.7792 C   0  0  0  0  0  0  0  0  0  0  0  0
    4.9442   -5.0814    4.5979 C   0  0  2  0  0  0  0  0  0  0  0  0
    4.7351   -2.6484    5.0252 C   0  0  0  0  0  0  0  0  0  0  0  0
   -0.2337   -2.2685    3.9468 C   0  0  0  0  0  0  0  0  0  0  0  0
   -0.3320   -0.9378    3.3446 C   0  0  0  0  0  0  0  0  0  0  0  0
   -1.1306   -0.0441    3.5628 O   0  0  0  0  0  0  0  0  0  0  0  0
    1.6856    0.8430    2.8753 C   0  0  0  0  0  0  0  0  0  0  0  0
    1.9591   -0.7583    4.3836 H   0  0  0  0  0  0  0  0  0  0  0  0
    3.5671   -1.8765    6.4595 C   0  0  0  0  0  0  0  0  0  0  0  0
    2.7419   -4.7587    5.4581 H   0  0  0  0  0  0  0  0  0  0  0  0
    5.7635   -4.6836    3.3588 C   0  0  0  0  0  0  0  0  0  0  0  0
    4.7821   -6.5914    4.6451 C   0  0  0  0  0  0  0  0  0  0  0  0
    5.5023   -7.4007    4.0839 O   0  0  0  0  0  0  0  0  0  0  0  0
    3.7240   -6.9924    5.3791 O   0  0  0  0  0  0  0  0  0  0  0  0
    1.6330    0.2735    1.1050 H   0  0  0  0  0  0  0  0  0  0  0  0
    2.8716   -0.7955    0.8869 H   0  0  0  0  0  0  0  0  0  0  0  0
    3.0514   -2.3405    2.2471 H   0  0  0  0  0  0  0  0  0  0  0  0
    1.7388   -3.1270    1.5395 H   0  0  0  0  0  0  0  0  0  0  0  0
   -0.4075   -0.8242    0.8335 H   0  0  0  0  0  0  0  0  0  0  0  0
    0.7237   -2.1347    0.4751 H   0  0  0  0  0  0  0  0  0  0  0  0
    3.2374   -4.4612    2.5524 H   0  0  0  0  0  0  0  0  0  0  0  0
    2.5936   -5.8763    3.3748 H   0  0  0  0  0  0  0  0  0  0  0  0
    0.7544   -4.6640    4.3778 H   0  0  0  0  0  0  0  0  0  0  0  0
    0.7417   -4.5078    2.6219 H   0  0  0  0  0  0  0  0  0  0  0  0
    5.2754   -3.7190    7.4606 H   0  0  0  0  0  0  0  0  0  0  0  0
    3.9464   -4.4920    6.7596 H   0  0  0  0  0  0  0  0  0  0  0  0
    6.4964   -5.4356    6.2563 H   0  0  0  0  0  0  0  0  0  0  0  0
    6.5516   -3.8524    5.6830 H   0  0  0  0  0  0  0  0  0  0  0  0
    4.7932   -1.5583    4.9509 H   0  0  0  0  0  0  0  0  0  0  0  0
    5.5439   -2.6768    4.3339 H   0  0  0  0  0  0  0  0  0  0  0  0
   -0.9378   -2.9165    3.4174 H   0  0  0  0  0  0  0  0  0  0  0  0
   -0.4581   -2.1887    5.0086 H   0  0  0  0  0  0  0  0  0  0  0  0
    2.6829    0.9739    2.3088 H   0  0  0  0  0  0  0  0  0  0  0  0
    1.0934    1.6843    2.5171 H   0  0  0  0  0  0  0  0  0  0  0  0
    2.0763    0.9308    3.8839 H   0  0  0  0  0  0  0  0  0  0  0  0
    4.6924   -1.9162    6.7884 H   0  0  0  0  0  0  0  0  0  0  0  0
    3.6663   -0.7889    6.4530 H   0  0  0  0  0  0  0  0  0  0  0  0
    3.1787   -2.4379    7.3105 H   0  0  0  0  0  0  0  0  0  0  0  0
    5.4470   -5.2276    2.4848 H   0  0  0  0  0  0  0  0  0  0  0  0
    5.6474   -3.6568    3.0228 H   0  0  0  0  0  0  0  0  0  0  0  0
    6.8385   -4.7721    3.5751 H   0  0  0  0  0  0  0  0  0  0  0  0
    3.6067   -7.9485    5.2040 H   0  0  0  0  0  0  0  0  0  0  0  0
  1  2  1  0  0  0  0
  1  6  1  0  0  0  0
  1 26  1  0  0  0  0
  1 27  1  0  0  0  0
  2  3  1  0  0  0  0
  2 19  1  6  0  0  0
  3 15  1  1  0  0  0
  3  4  1  0  0  0  0
  4 28  1  0  0  0  0
  4 29  1  0  0  0  0
  5  6  1  0  0  0  0
  5 16  1  0  0  0  0
  5 18  1  6  0  0  0
  5  4  1  0  0  0  0
  6 30  1  0  0  0  0
  6 31  1  0  0  0  0
  7  8  1  0  0  0  0
  7 14  1  0  0  0  0
  7  2  1  0  0  0  0
  7 20  1  1  0  0  0
  8  9  1  0  0  0  0
  8 21  1  6  0  0  0
  9 10  1  0  0  0  0
  9 32  1  0  0  0  0
  9 33  1  0  0  0  0
 10  3  1  0  0  0  0
 10 34  1  0  0  0  0
 10 35  1  0  0  0  0
 11 14  1  0  0  0  0
 11 12  1  0  0  0  0
 11 36  1  0  0  0  0
 11 37  1  0  0  0  0
 12 13  1  0  0  0  0
 12 38  1  0  0  0  0
 12 39  1  0  0  0  0
 13  8  1  0  0  0  0
 13 23  1  1  0  0  0
 13 22  1  0  0  0  0
 14 40  1  0  0  0  0
 14 41  1  0  0  0  0
 15 16  1  0  0  0  0
 15 42  1  0  0  0  0
 15 43  1  0  0  0  0
 16 17  2  0  0  0  0
 18 44  1  0  0  0  0
 18 45  1  0  0  0  0
 18 46  1  0  0  0  0
 20 47  1  0  0  0  0
 20 48  1  0  0  0  0
 20 49  1  0  0  0  0
 22 50  1  0  0  0  0
 22 51  1  0  0  0  0
 22 52  1  0  0  0  0
 23 24  2  0  0  0  0
 23 25  1  0  0  0  0
 25 53  1  0  0  0  0
M  END
>  <DRUGBANK_ID>
DB16870

>  <COMMON_NAME>
Isosteviol

>  <CAS_NUMBER>
27975-19-5

>  <UNII>
091QB7QO95

>  <SYNONYMS>
Iso-steviol; Ketoisostevic acid

$$$$
