
 OpenBabel10282417143D

 38 38  0  0  0  0  0  0  0  0999 V2000
    3.6452   -1.4184   -0.5334 O   0  0  0  0  0  0  0  0  0  0  0  0
    5.2578    0.8613    0.2500 O   0  0  0  0  0  0  0  0  0  0  0  0
   -0.5210   -1.4993   -0.2953 O   0  0  0  0  0  0  0  0  0  0  0  0
    2.1725    2.7632   -0.5849 O   0  0  0  0  0  0  0  0  0  0  0  0
   -1.1235    2.1748    0.2378 O   0  0  0  0  0  0  0  0  0  0  0  0
    2.7980   -4.9156   -1.3202 O   0  0  0  0  0  0  0  0  0  0  0  0
    4.7579   -3.8384   -1.3869 O   0  0  0  0  0  0  0  0  0  0  0  0
    0.8038    0.9769    0.2716 N   0  0  0  0  0  0  0  0  0  0  0  0
    3.7056    4.8366   -0.1864 N   0  0  0  0  0  0  0  0  0  0  0  0
    3.0742   -0.2234    0.1022 C   0  0  2  0  0  0  0  0  0  0  0  0
    1.5837   -0.1200   -0.2658 C   0  0  1  0  0  0  0  0  0  0  0  0
    3.9589    1.0013   -0.3577 C   0  0  1  0  0  0  0  0  0  0  0  0
    0.8514   -1.4258    0.0929 C   0  0  2  0  0  0  0  0  0  0  0  0
    3.4393    2.4276   -0.0234 C   0  0  1  0  0  0  0  0  0  0  0  0
    1.5363   -2.5642   -0.5273 C   0  0  0  0  0  0  0  0  0  0  0  0
    2.8559   -2.5490   -0.7492 C   0  0  0  0  0  0  0  0  0  0  0  0
    4.3101    3.5539   -0.5936 C   0  0  0  0  0  0  0  0  0  0  0  0
   -0.3723    1.4032   -0.3226 C   0  0  0  0  0  0  0  0  0  0  0  0
    3.5596   -3.8013   -1.1935 C   0  0  0  0  0  0  0  0  0  0  0  0
   -0.5596    0.9478   -1.7643 C   0  0  0  0  0  0  0  0  0  0  0  0
    3.2088   -0.3661    1.1800 H   0  0  0  0  0  0  0  0  0  0  0  0
    1.0295    1.4472    1.1481 H   0  0  0  0  0  0  0  0  0  0  0  0
    4.0905    5.5978   -0.7364 H   0  0  0  0  0  0  0  0  0  0  0  0
    2.7084    4.7743   -0.4408 H   0  0  0  0  0  0  0  0  0  0  0  0
    5.1773    1.0678    1.1991 H   0  0  0  0  0  0  0  0  0  0  0  0
   -0.5990   -1.7397   -1.2345 H   0  0  0  0  0  0  0  0  0  0  0  0
    1.8742    2.0371   -1.1440 H   0  0  0  0  0  0  0  0  0  0  0  0
    1.8545   -4.8869   -1.1013 H   0  0  0  0  0  0  0  0  0  0  0  0
    1.6146    0.0083   -1.3534 H   0  0  0  0  0  0  0  0  0  0  0  0
    4.1239    0.9265   -1.4409 H   0  0  0  0  0  0  0  0  0  0  0  0
    0.8379   -1.5357    1.1801 H   0  0  0  0  0  0  0  0  0  0  0  0
    3.3762    2.5240    1.0692 H   0  0  0  0  0  0  0  0  0  0  0  0
    0.8840   -3.3936   -0.7531 H   0  0  0  0  0  0  0  0  0  0  0  0
    5.3481    3.4978   -0.2707 H   0  0  0  0  0  0  0  0  0  0  0  0
    4.2632    3.4994   -1.6894 H   0  0  0  0  0  0  0  0  0  0  0  0
    0.0643    1.5457   -2.4319 H   0  0  0  0  0  0  0  0  0  0  0  0
   -0.2248   -0.0661   -1.9444 H   0  0  0  0  0  0  0  0  0  0  0  0
   -1.6099    0.9472   -2.0381 H   0  0  0  0  0  0  0  0  0  0  0  0
  1 10  1  0  0  0  0
  1 16  1  0  0  0  0
  2 25  1  0  0  0  0
  3 26  1  0  0  0  0
  4 27  1  0  0  0  0
  5 18  2  0  0  0  0
  6 19  1  0  0  0  0
  6 28  1  0  0  0  0
  7 19  2  0  0  0  0
  8 18  1  0  0  0  0
  8 22  1  0  0  0  0
  9 17  1  0  0  0  0
  9 23  1  0  0  0  0
  9 24  1  0  0  0  0
 10 11  1  0  0  0  0
 10 21  1  1  0  0  0
 11 13  1  0  0  0  0
 11 29  1  6  0  0  0
 11  8  1  0  0  0  0
 12 30  1  6  0  0  0
 12 10  1  0  0  0  0
 12  2  1  0  0  0  0
 13  3  1  0  0  0  0
 13 15  1  0  0  0  0
 13 31  1  1  0  0  0
 14 17  1  0  0  0  0
 14 32  1  1  0  0  0
 14 12  1  0  0  0  0
 14  4  1  0  0  0  0
 15 16  2  0  0  0  0
 15 33  1  0  0  0  0
 16 19  1  0  0  0  0
 17 34  1  0  0  0  0
 17 35  1  0  0  0  0
 18 20  1  0  0  0  0
 20 36  1  0  0  0  0
 20 37  1  0  0  0  0
 20 38  1  0  0  0  0
M  END
>  <DRUGBANK_ID>
DB04227

>  <SECONDARY_ACCESSION_NUMBERS>
EXPT00352

>  <COMMON_NAME>
9-Amino-2-deoxy-2,3-dehydro-n-acetyl-neuraminic acid

>  <SYNONYMS>
(6R)-5-Acetamido-6-[(1R,2R)-3-amino-1,2-dihydroxypropyl]-2,6-anhydro-3,5-dideoxy-L-threo-hex-2-enonic acid

$$$$
