
 OpenBabel10282417143D

 42 43  0  0  0  0  0  0  0  0999 V2000
    0.9721   -0.0231   -0.1179 C   0  0  0  0  0  0  0  0  0  0  0  0
    0.5950    1.1796   -0.9333 C   0  0  0  0  0  0  0  0  0  0  0  0
    1.1870    2.3983   -0.6424 C   0  0  0  0  0  0  0  0  0  0  0  0
    1.0307    3.5037   -1.4937 C   0  0  0  0  0  0  0  0  0  0  0  0
    1.9166    4.7102   -1.2781 C   0  0  0  0  0  0  0  0  0  0  0  0
    0.0374    3.4759   -2.4354 N   0  3  0  0  0  0  0  0  0  0  0  0
   -0.4060    4.7672   -3.0573 C   0  0  0  0  0  0  0  0  0  0  0  0
   -1.3228    5.6396   -2.1328 C   0  0  0  0  0  0  0  0  0  0  0  0
   -0.8105    6.1379   -0.7756 C   0  0  0  0  0  0  0  0  0  0  0  0
   -0.4765    5.2443    0.2606 C   0  0  0  0  0  0  0  0  0  0  0  0
    0.4654    5.6155    1.2436 C   0  0  0  0  0  0  0  0  0  0  0  0
    0.8603    6.9487    1.3714 C   0  0  0  0  0  0  0  0  0  0  0  0
    0.3436    7.8987    0.4924 C   0  0  0  0  0  0  0  0  0  0  0  0
   -0.4590    7.4902   -0.5947 C   0  0  0  0  0  0  0  0  0  0  0  0
    1.9363    7.3885    2.7170 S   0  0  0  0  0  0  0  0  0  0  0  0
    3.1132    8.4081    2.0728 N   0  0  0  0  0  0  0  0  0  0  0  0
    1.1405    8.1858    3.6328 O   0  0  0  0  0  0  0  0  0  0  0  0
    2.6501    6.2129    3.1301 O   0  0  0  0  0  0  0  0  0  0  0  0
   -0.5410    2.2763   -2.7793 C   0  0  0  0  0  0  0  0  0  0  0  0
   -1.4121    2.1428   -4.0002 C   0  0  0  0  0  0  0  0  0  0  0  0
   -0.2436    1.1158   -2.0361 C   0  0  0  0  0  0  0  0  0  0  0  0
    0.6053   -0.9523   -0.5632 H   0  0  0  0  0  0  0  0  0  0  0  0
    0.5923    0.0548    0.9057 H   0  0  0  0  0  0  0  0  0  0  0  0
    2.0662   -0.0889   -0.0811 H   0  0  0  0  0  0  0  0  0  0  0  0
    1.7905    2.4881    0.2608 H   0  0  0  0  0  0  0  0  0  0  0  0
    2.5239    4.9688   -2.1401 H   0  0  0  0  0  0  0  0  0  0  0  0
    1.3736    5.6259   -1.1242 H   0  0  0  0  0  0  0  0  0  0  0  0
    2.5280    4.5812   -0.3791 H   0  0  0  0  0  0  0  0  0  0  0  0
    0.4960    5.2838   -3.4013 H   0  0  0  0  0  0  0  0  0  0  0  0
   -0.9680    4.5386   -3.9690 H   0  0  0  0  0  0  0  0  0  0  0  0
   -1.5537    6.5274   -2.7405 H   0  0  0  0  0  0  0  0  0  0  0  0
   -2.2752    5.1238   -1.9791 H   0  0  0  0  0  0  0  0  0  0  0  0
   -0.7462    4.1928    0.1934 H   0  0  0  0  0  0  0  0  0  0  0  0
    0.9744    4.8437    1.8260 H   0  0  0  0  0  0  0  0  0  0  0  0
    0.5826    8.9513    0.6276 H   0  0  0  0  0  0  0  0  0  0  0  0
   -0.7701    8.2431   -1.3180 H   0  0  0  0  0  0  0  0  0  0  0  0
    3.5785    8.8675    2.8677 H   0  0  0  0  0  0  0  0  0  0  0  0
    3.8152    7.9075    1.5279 H   0  0  0  0  0  0  0  0  0  0  0  0
   -2.3300    2.7253   -3.8894 H   0  0  0  0  0  0  0  0  0  0  0  0
   -0.8552    2.4822   -4.8799 H   0  0  0  0  0  0  0  0  0  0  0  0
   -1.6966    1.1009   -4.1872 H   0  0  0  0  0  0  0  0  0  0  0  0
   -0.6658    0.1538   -2.3332 H   0  0  0  0  0  0  0  0  0  0  0  0
  1  2  1  0  0  0  0
  1 22  1  0  0  0  0
  1 23  1  0  0  0  0
  1 24  1  0  0  0  0
  2  3  2  0  0  0  0
  2 21  1  0  0  0  0
  3  4  1  0  0  0  0
  3 25  1  0  0  0  0
  4  5  1  0  0  0  0
  4  6  2  0  0  0  0
  5 26  1  0  0  0  0
  5 27  1  0  0  0  0
  5 28  1  0  0  0  0
  6  7  1  0  0  0  0
  6 19  1  0  0  0  0
  7  8  1  0  0  0  0
  7 29  1  0  0  0  0
  7 30  1  0  0  0  0
  8  9  1  0  0  0  0
  8 31  1  0  0  0  0
  8 32  1  0  0  0  0
  9 10  2  0  0  0  0
  9 14  1  0  0  0  0
 10 11  1  0  0  0  0
 10 33  1  0  0  0  0
 11 12  2  0  0  0  0
 11 34  1  0  0  0  0
 12 13  1  0  0  0  0
 12 15  1  0  0  0  0
 13 14  2  0  0  0  0
 13 35  1  0  0  0  0
 14 36  1  0  0  0  0
 15 16  1  0  0  0  0
 15 17  2  0  0  0  0
 15 18  2  0  0  0  0
 16 37  1  0  0  0  0
 16 38  1  0  0  0  0
 19 20  1  0  0  0  0
 19 21  2  0  0  0  0
 20 39  1  0  0  0  0
 20 40  1  0  0  0  0
 20 41  1  0  0  0  0
 21 42  1  0  0  0  0
M  CHG  1   6   1
M  END
>  <DRUGBANK_ID>
DB04763

>  <COMMON_NAME>
1-N-(4-SULFAMOYLPHENYL-ETHYL)-2,4,6-TRIMETHYLPYRIDINIUM

$$$$
