
 OpenBabel10282417203D

 51 54  0  0  0  0  0  0  0  0999 V2000
    1.1102    0.0122   -0.0500 C   0  0  0  0  0  0  0  0  0  0  0  0
    0.5099   -0.9540   -1.0541 C   0  0  0  0  0  0  0  0  0  0  0  0
    1.0651   -2.3702   -0.9272 C   0  0  0  0  0  0  0  0  0  0  0  0
   -0.9322   -0.9071   -0.9525 O   0  0  0  0  0  0  0  0  0  0  0  0
   -1.5715   -1.3854    0.1398 C   0  0  0  0  0  0  0  0  0  0  0  0
   -1.0325   -1.7981    1.1618 O   0  0  0  0  0  0  0  0  0  0  0  0
   -3.0633   -1.3630   -0.0242 C   0  0  0  0  0  0  0  0  0  0  0  0
   -3.6969   -1.9162   -1.1524 C   0  0  0  0  0  0  0  0  0  0  0  0
   -5.1244   -1.8934   -1.1550 C   0  0  0  0  0  0  0  0  0  0  0  0
   -5.7588   -1.3361   -0.0391 C   0  0  0  0  0  0  0  0  0  0  0  0
   -5.0679   -0.8356    1.0564 C   0  0  0  0  0  0  0  0  0  0  0  0
   -3.7234   -0.8543    1.0511 N   0  0  0  0  0  0  0  0  0  0  0  0
   -7.1121   -1.3887   -0.2603 N   0  0  0  0  0  0  0  0  0  0  0  0
   -7.3932   -1.9458   -1.4835 C   0  0  0  0  0  0  0  0  0  0  0  0
   -6.1786   -2.3084   -2.0800 C   0  0  0  0  0  0  0  0  0  0  0  0
   -6.2478   -2.9541   -3.3594 C   0  0  0  0  0  0  0  0  0  0  0  0
   -7.5004   -3.1780   -3.9475 C   0  0  0  0  0  0  0  0  0  0  0  0
   -8.6707   -2.7669   -3.3342 C   0  0  0  0  0  0  0  0  0  0  0  0
   -8.6402   -2.1552   -2.0863 C   0  0  0  0  0  0  0  0  0  0  0  0
   -5.0888   -3.4108   -3.9494 O   0  0  0  0  0  0  0  0  0  0  0  0
   -5.0567   -3.9566   -5.2038 C   0  0  0  0  0  0  0  0  0  0  0  0
   -5.5108   -3.2740   -6.3311 C   0  0  0  0  0  0  0  0  0  0  0  0
   -5.5127   -3.9171   -7.5681 C   0  0  0  0  0  0  0  0  0  0  0  0
   -4.9915   -5.2066   -7.6805 C   0  0  0  0  0  0  0  0  0  0  0  0
   -4.4384   -5.8476   -6.5726 C   0  0  0  0  0  0  0  0  0  0  0  0
   -4.4621   -5.2145   -5.3300 C   0  0  0  0  0  0  0  0  0  0  0  0
   -5.0368   -6.0121   -9.1993 Cl  0  0  0  0  0  0  0  0  0  0  0  0
   -2.8651   -2.4307   -2.2886 C   0  0  0  0  0  0  0  0  0  0  0  0
   -2.1578   -1.4288   -3.0117 O   0  0  0  0  0  0  0  0  0  0  0  0
   -2.9577   -0.3219   -3.4026 C   0  0  0  0  0  0  0  0  0  0  0  0
    0.8202   -0.2536    0.9687 H   0  0  0  0  0  0  0  0  0  0  0  0
    0.7269    1.0216   -0.2331 H   0  0  0  0  0  0  0  0  0  0  0  0
    2.2010    0.0253   -0.1038 H   0  0  0  0  0  0  0  0  0  0  0  0
    0.7644   -0.5977   -2.0636 H   0  0  0  0  0  0  0  0  0  0  0  0
    0.7819   -2.8342    0.0195 H   0  0  0  0  0  0  0  0  0  0  0  0
    0.6747   -3.0141   -1.7231 H   0  0  0  0  0  0  0  0  0  0  0  0
    2.1585   -2.3732   -0.9833 H   0  0  0  0  0  0  0  0  0  0  0  0
   -5.5465   -0.4176    1.9356 H   0  0  0  0  0  0  0  0  0  0  0  0
   -7.8145   -1.0507    0.3837 H   0  0  0  0  0  0  0  0  0  0  0  0
   -7.5859   -3.6924   -4.8985 H   0  0  0  0  0  0  0  0  0  0  0  0
   -9.6161   -2.9487   -3.8371 H   0  0  0  0  0  0  0  0  0  0  0  0
   -9.5663   -1.8631   -1.6016 H   0  0  0  0  0  0  0  0  0  0  0  0
   -5.8997   -2.2636   -6.2416 H   0  0  0  0  0  0  0  0  0  0  0  0
   -5.9321   -3.4134   -8.4340 H   0  0  0  0  0  0  0  0  0  0  0  0
   -4.0032   -6.8390   -6.6665 H   0  0  0  0  0  0  0  0  0  0  0  0
   -4.0317   -5.7066   -4.4609 H   0  0  0  0  0  0  0  0  0  0  0  0
   -2.1808   -3.2104   -1.9358 H   0  0  0  0  0  0  0  0  0  0  0  0
   -3.4522   -2.9348   -3.0171 H   0  0  0  0  0  0  0  0  0  0  0  0
   -3.6883   -0.6351   -4.1505 H   0  0  0  0  0  0  0  0  0  0  0  0
   -3.4662    0.1426   -2.5514 H   0  0  0  0  0  0  0  0  0  0  0  0
   -2.2947    0.4353   -3.8250 H   0  0  0  0  0  0  0  0  0  0  0  0
  1  2  1  0  0  0  0
  1 31  1  0  0  0  0
  1 32  1  0  0  0  0
  1 33  1  0  0  0  0
  2  3  1  0  0  0  0
  2  4  1  0  0  0  0
  2 34  1  0  0  0  0
  3 35  1  0  0  0  0
  3 36  1  0  0  0  0
  3 37  1  0  0  0  0
  4  5  1  0  0  0  0
  5  6  2  0  0  0  0
  5  7  1  0  0  0  0
  7  8  2  0  0  0  0
  7 12  1  0  0  0  0
  8  9  1  0  0  0  0
  8 28  1  0  0  0  0
  9 10  2  0  0  0  0
  9 15  1  0  0  0  0
 10 11  1  0  0  0  0
 10 13  1  0  0  0  0
 11 12  2  0  0  0  0
 11 38  1  0  0  0  0
 13 14  1  0  0  0  0
 13 39  1  0  0  0  0
 14 15  2  0  0  0  0
 14 19  1  0  0  0  0
 15 16  1  0  0  0  0
 16 17  2  0  0  0  0
 16 20  1  0  0  0  0
 17 18  1  0  0  0  0
 17 40  1  0  0  0  0
 18 19  2  0  0  0  0
 18 41  1  0  0  0  0
 19 42  1  0  0  0  0
 20 21  1  0  0  0  0
 21 22  2  0  0  0  0
 21 26  1  0  0  0  0
 22 23  1  0  0  0  0
 22 43  1  0  0  0  0
 23 24  2  0  0  0  0
 23 44  1  0  0  0  0
 24 25  1  0  0  0  0
 24 27  1  0  0  0  0
 25 26  2  0  0  0  0
 25 45  1  0  0  0  0
 26 46  1  0  0  0  0
 28 29  1  0  0  0  0
 28 47  1  0  0  0  0
 28 48  1  0  0  0  0
 29 30  1  0  0  0  0
 30 49  1  0  0  0  0
 30 50  1  0  0  0  0
 30 51  1  0  0  0  0
M  END
>  <DRUGBANK_ID>
DB13534

>  <COMMON_NAME>
Gedocarnil

>  <CAS_NUMBER>
109623-97-4

>  <UNII>
BWP53NPW3F

>  <SYNONYMS>
Gedocarnil

$$$$
