
 OpenBabel10282417133D

 19 18  0  0  0  0  0  0  0  0999 V2000
    1.0642    0.0723    0.0375 C   0  0  0  0  0  0  0  0  0  0  0  0
    0.4975    1.4460    0.4068 C   0  0  0  0  0  0  0  0  0  0  0  0
    1.0642    2.5258   -0.5192 C   0  0  0  0  0  0  0  0  0  0  0  0
   -0.9885    1.4397    0.3788 N   0  0  0  0  0  0  0  0  0  0  0  0
   -1.6509    1.7144    1.5895 O   0  0  0  0  0  0  0  0  0  0  0  0
   -1.7019    1.1756   -0.7849 C   0  0  0  0  0  0  0  0  0  0  0  0
   -1.1498    0.9322   -1.8573 O   0  0  0  0  0  0  0  0  0  0  0  0
   -3.2506    1.1796   -0.7673 C   0  0  0  0  0  0  0  0  0  0  0  0
   -3.8445    1.4451    0.4026 O   0  0  0  0  0  0  0  0  0  0  0  0
   -3.8839    0.9480   -1.7880 O   0  0  0  0  0  0  0  0  0  0  0  0
    0.7726   -0.2319   -0.9720 H   0  0  0  0  0  0  0  0  0  0  0  0
    0.7014   -0.6953    0.7284 H   0  0  0  0  0  0  0  0  0  0  0  0
    2.1587    0.0758    0.0679 H   0  0  0  0  0  0  0  0  0  0  0  0
    0.8292    1.6776    1.4273 H   0  0  0  0  0  0  0  0  0  0  0  0
    0.7726    2.3644   -1.5612 H   0  0  0  0  0  0  0  0  0  0  0  0
    0.7014    3.5164   -0.2273 H   0  0  0  0  0  0  0  0  0  0  0  0
    2.1587    2.5358   -0.4904 H   0  0  0  0  0  0  0  0  0  0  0  0
   -0.9428    1.8636    2.2467 H   0  0  0  0  0  0  0  0  0  0  0  0
   -3.1725    1.6037    1.1017 H   0  0  0  0  0  0  0  0  0  0  0  0
  1  2  1  0  0  0  0
  1 11  1  0  0  0  0
  1 12  1  0  0  0  0
  1 13  1  0  0  0  0
  2  3  1  0  0  0  0
  2  4  1  0  0  0  0
  2 14  1  0  0  0  0
  3 15  1  0  0  0  0
  3 16  1  0  0  0  0
  3 17  1  0  0  0  0
  4  5  1  0  0  0  0
  4  6  1  0  0  0  0
  5 18  1  0  0  0  0
  6  7  2  0  0  0  0
  6  8  1  0  0  0  0
  8  9  1  0  0  0  0
  8 10  2  0  0  0  0
  9 19  1  0  0  0  0
M  END
>  <DRUGBANK_ID>
DB03387

>  <SECONDARY_ACCESSION_NUMBERS>
EXPT01751

>  <COMMON_NAME>
N-Hydroxy-N-Isopropyloxamic Acid

$$$$
