
 OpenBabel10282417143D

 71 73  0  0  1  0  0  0  0  0999 V2000
   -6.5383    3.0762   -1.9489 C   0  0  0  0  0  0  0  0  0  0  0  0
   -5.6930    4.0400   -2.7825 C   0  0  2  0  0  0  0  0  0  0  0  0
   -5.3546    5.3709   -2.4557 O   0  0  0  0  0  0  0  0  0  0  0  0
   -4.0572    5.6449   -3.0931 C   0  0  1  0  0  0  0  0  0  0  0  0
   -3.0335    4.7072   -2.7685 O   0  0  0  0  0  0  0  0  0  0  0  0
   -2.7611    3.4505   -3.4383 C   0  0  2  0  0  0  0  0  0  0  0  0
   -2.2691    3.3745   -4.9071 C   0  0  1  0  0  0  0  0  0  0  0  0
   -1.1339    4.0994   -5.3652 O   0  0  0  0  0  0  0  0  0  0  0  0
   -2.6523    2.0867   -5.7247 C   0  0  1  0  0  0  0  0  0  0  0  0
   -1.4797    1.2962   -5.9008 O   0  0  0  0  0  0  0  0  0  0  0  0
   -3.7087    1.1686   -5.0713 C   0  0  1  0  0  0  0  0  0  0  0  0
   -3.9663   -0.1983   -5.6974 C   0  0  0  0  0  0  0  0  0  0  0  0
   -4.5196   -1.0724   -4.7040 O   0  0  0  0  0  0  0  0  0  0  0  0
   -3.2368    0.9455   -3.7199 O   0  0  0  0  0  0  0  0  0  0  0  0
   -3.5314    2.1274   -2.9812 C   0  0  1  0  0  0  0  0  0  0  0  0
   -3.4431    1.9469   -1.5796 O   0  0  0  0  0  0  0  0  0  0  0  0
   -2.2296    1.3480   -1.1706 C   0  0  1  0  0  0  0  0  0  0  0  0
   -0.9972    2.0527   -1.6965 C   0  0  2  0  0  0  0  0  0  0  0  0
   -0.8638    1.7368   -3.1136 O   0  0  0  0  0  0  0  0  0  0  0  0
    0.3118    1.5634   -1.2512 C   0  0  1  0  0  0  0  0  0  0  0  0
    1.4140    2.4739   -1.7311 N   0  0  0  0  0  0  0  0  0  0  0  0
    1.2872    3.5238   -2.6662 C   0  0  0  0  0  0  0  0  0  0  0  0
    2.5808    4.1325   -3.1314 C   0  0  0  0  0  0  0  0  0  0  0  0
    0.2876    4.0139   -3.1043 O   0  0  0  0  0  0  0  0  0  0  0  0
    0.2216    1.2967    0.2518 C   0  0  2  0  0  0  0  0  0  0  0  0
    1.3117    0.4440    0.5556 O   0  0  0  0  0  0  0  0  0  0  0  0
   -0.9699    0.6113    0.6752 O   0  0  0  0  0  0  0  0  0  0  0  0
   -2.1943    1.2780    0.3334 C   0  0  2  0  0  0  0  0  0  0  0  0
   -3.4551    0.5136    0.8120 C   0  0  0  0  0  0  0  0  0  0  0  0
   -3.3915   -0.8789    0.5083 O   0  0  0  0  0  0  0  0  0  0  0  0
   -4.2620    5.8392   -4.6004 C   0  0  1  0  0  0  0  0  0  0  0  0
   -3.0917    6.3725   -5.2472 O   0  0  0  0  0  0  0  0  0  0  0  0
   -4.9174    4.5589   -5.2192 C   0  0  2  0  0  0  0  0  0  0  0  0
   -4.9584    4.5292   -6.6436 O   0  0  0  0  0  0  0  0  0  0  0  0
   -5.9613    3.8849   -4.3168 C   0  0  2  0  0  0  0  0  0  0  0  0
   -7.2189    4.3863   -4.6785 O   0  0  0  0  0  0  0  0  0  0  0  0
   -7.5900    3.3109   -1.9889 H   0  0  0  0  0  0  0  0  0  0  0  0
   -6.4181    2.0427   -2.3320 H   0  0  0  0  0  0  0  0  0  0  0  0
   -6.1722    3.0160   -0.9148 H   0  0  0  0  0  0  0  0  0  0  0  0
   -4.7905    3.6537   -2.3762 H   0  0  0  0  0  0  0  0  0  0  0  0
   -3.6928    6.5782   -2.6440 H   0  0  0  0  0  0  0  0  0  0  0  0
   -1.8375    3.4358   -2.9599 H   0  0  0  0  0  0  0  0  0  0  0  0
   -2.8493    4.1489   -5.2847 H   0  0  0  0  0  0  0  0  0  0  0  0
   -0.3403    3.7794   -4.9111 H   0  0  0  0  0  0  0  0  0  0  0  0
   -3.0006    2.3994   -6.7121 H   0  0  0  0  0  0  0  0  0  0  0  0
   -1.2610    0.9156   -5.0348 H   0  0  0  0  0  0  0  0  0  0  0  0
   -4.7064    1.6058   -5.0807 H   0  0  0  0  0  0  0  0  0  0  0  0
   -4.7041   -0.1189   -6.5042 H   0  0  0  0  0  0  0  0  0  0  0  0
   -3.0508   -0.6428   -6.0767 H   0  0  0  0  0  0  0  0  0  0  0  0
   -4.0180   -0.8978   -3.8842 H   0  0  0  0  0  0  0  0  0  0  0  0
   -4.5902    2.1376   -3.1467 H   0  0  0  0  0  0  0  0  0  0  0  0
   -2.2243    0.3399   -1.5868 H   0  0  0  0  0  0  0  0  0  0  0  0
   -1.0518    3.1267   -1.4129 H   0  0  0  0  0  0  0  0  0  0  0  0
   -1.5586    1.0945   -3.3163 H   0  0  0  0  0  0  0  0  0  0  0  0
    0.4729    0.6095   -1.7767 H   0  0  0  0  0  0  0  0  0  0  0  0
    2.3407    2.1310   -1.5438 H   0  0  0  0  0  0  0  0  0  0  0  0
    2.6494    4.0170   -4.2193 H   0  0  0  0  0  0  0  0  0  0  0  0
    2.5226    5.2018   -2.9017 H   0  0  0  0  0  0  0  0  0  0  0  0
    3.4451    3.6919   -2.6471 H   0  0  0  0  0  0  0  0  0  0  0  0
    0.3027    2.2319    0.8115 H   0  0  0  0  0  0  0  0  0  0  0  0
    1.1673   -0.3455    0.0017 H   0  0  0  0  0  0  0  0  0  0  0  0
   -2.2232    2.2793    0.7867 H   0  0  0  0  0  0  0  0  0  0  0  0
   -3.5765    0.6154    1.8920 H   0  0  0  0  0  0  0  0  0  0  0  0
   -4.3768    0.9079    0.3580 H   0  0  0  0  0  0  0  0  0  0  0  0
   -3.2686   -0.9837   -0.4479 H   0  0  0  0  0  0  0  0  0  0  0  0
   -5.0070    6.6237   -4.7173 H   0  0  0  0  0  0  0  0  0  0  0  0
   -2.2747    5.8645   -5.0428 H   0  0  0  0  0  0  0  0  0  0  0  0
   -4.3406    3.6762   -5.1740 H   0  0  0  0  0  0  0  0  0  0  0  0
   -5.6735    5.0687   -6.9984 H   0  0  0  0  0  0  0  0  0  0  0  0
   -6.0016    2.8177   -4.5426 H   0  0  0  0  0  0  0  0  0  0  0  0
   -7.1952    5.3115   -4.3923 H   0  0  0  0  0  0  0  0  0  0  0  0
  1 37  1  0  0  0  0
  1 38  1  0  0  0  0
  1 39  1  0  0  0  0
  2  1  1  0  0  0  0
  2  3  1  0  0  0  0
  2 35  1  0  0  0  0
  2 40  1  1  0  0  0
  3  4  1  0  0  0  0
  4  5  1  0  0  0  0
  4 31  1  0  0  0  0
  4 41  1  1  0  0  0
  6  7  1  0  0  0  0
  6 15  1  0  0  0  0
  6 42  1  1  0  0  0
  6  5  1  0  0  0  0
  7  8  1  0  0  0  0
  7  9  1  0  0  0  0
  7 43  1  6  0  0  0
  8 44  1  0  0  0  0
  9 10  1  0  0  0  0
  9 11  1  0  0  0  0
  9 45  1  6  0  0  0
 10 46  1  0  0  0  0
 11 14  1  0  0  0  0
 11 47  1  1  0  0  0
 11 12  1  0  0  0  0
 12 13  1  0  0  0  0
 12 48  1  0  0  0  0
 12 49  1  0  0  0  0
 13 50  1  0  0  0  0
 14 15  1  0  0  0  0
 15 51  1  6  0  0  0
 15 16  1  0  0  0  0
 17 18  1  0  0  0  0
 17 28  1  0  0  0  0
 17 52  1  6  0  0  0
 17 16  1  0  0  0  0
 18 19  1  0  0  0  0
 18 20  1  0  0  0  0
 18 53  1  1  0  0  0
 19 54  1  0  0  0  0
 20 25  1  0  0  0  0
 20 55  1  6  0  0  0
 20 21  1  0  0  0  0
 21 22  1  0  0  0  0
 21 56  1  0  0  0  0
 22 23  1  0  0  0  0
 22 24  2  0  0  0  0
 23 57  1  0  0  0  0
 23 58  1  0  0  0  0
 23 59  1  0  0  0  0
 25 26  1  0  0  0  0
 25 27  1  0  0  0  0
 25 60  1  1  0  0  0
 26 61  1  0  0  0  0
 27 28  1  0  0  0  0
 28 62  1  1  0  0  0
 28 29  1  0  0  0  0
 29 30  1  0  0  0  0
 29 63  1  0  0  0  0
 29 64  1  0  0  0  0
 30 65  1  0  0  0  0
 31 32  1  0  0  0  0
 31 33  1  0  0  0  0
 31 66  1  6  0  0  0
 32 67  1  0  0  0  0
 33 34  1  0  0  0  0
 33 35  1  0  0  0  0
 33 68  1  1  0  0  0
 34 69  1  0  0  0  0
 35 36  1  0  0  0  0
 35 70  1  6  0  0  0
 36 71  1  0  0  0  0
M  END
>  <DRUGBANK_ID>
DB04678

>  <COMMON_NAME>
H TYPE II TRISACCHARIDE

$$$$
