
 OpenBabel10282417143D

 54 57  0  0  0  0  0  0  0  0999 V2000
    2.3764    0.8882   -0.0163 F   0  0  0  0  0  0  0  0  0  0  0  0
   -2.3712    0.8343   -0.0446 F   0  0  0  0  0  0  0  0  0  0  0  0
    0.5971   -5.3966    0.8341 O   0  0  0  0  0  0  0  0  0  0  0  0
   -1.4283   -6.6687   -2.1559 O   0  0  0  0  0  0  0  0  0  0  0  0
    1.2306   -3.6791    2.2259 O   0  0  0  0  0  0  0  0  0  0  0  0
    0.7164    6.9808    1.4995 O   0  0  0  0  0  0  0  0  0  0  0  0
    2.6087    6.3915   -1.2588 O   0  0  0  0  0  0  0  0  0  0  0  0
   -0.4085    8.5414   -1.3933 O   0  0  0  0  0  0  0  0  0  0  0  0
   -3.9277   -4.6913   -3.5343 O   0  0  0  0  0  0  0  0  0  0  0  0
    0.1568    5.2494    0.1055 N   0  0  0  0  0  0  0  0  0  0  0  0
    0.0579   -3.2766    0.2813 N   0  0  0  0  0  0  0  0  0  0  0  0
   -3.4125   -5.9257   -3.1065 N   0  0  0  0  0  0  0  0  0  0  0  0
    0.6582    3.1590   -1.1006 C   0  0  0  0  0  0  0  0  0  0  0  0
    0.1404    4.5863   -1.1987 C   0  0  0  0  0  0  0  0  0  0  0  0
   -0.0143    2.4253    0.0207 C   0  0  0  0  0  0  0  0  0  0  0  0
    0.1051   -5.4819   -0.5154 C   0  0  2  0  0  0  0  0  0  0  0  0
   -0.3747   -4.0853   -0.7670 C   0  0  0  0  0  0  0  0  0  0  0  0
   -0.6208    4.6012    1.1627 C   0  0  0  0  0  0  0  0  0  0  0  0
    0.0011    0.9519   -0.0054 C   0  0  0  0  0  0  0  0  0  0  0  0
   -0.5956    3.1011    1.0305 C   0  0  0  0  0  0  0  0  0  0  0  0
    0.0415   -1.8763    0.1452 C   0  0  0  0  0  0  0  0  0  0  0  0
   -1.0056   -6.5254   -0.7703 C   0  0  0  0  0  0  0  0  0  0  0  0
    0.7042   -4.0596    1.2081 C   0  0  0  0  0  0  0  0  0  0  0  0
    0.7737    6.4632    0.3798 C   0  0  0  0  0  0  0  0  0  0  0  0
    1.2036    0.2372    0.0112 C   0  0  0  0  0  0  0  0  0  0  0  0
   -1.1830    0.2083   -0.0258 C   0  0  0  0  0  0  0  0  0  0  0  0
    1.2315   -1.1573    0.0977 C   0  0  0  0  0  0  0  0  0  0  0  0
   -1.1727   -1.1908   -0.0006 C   0  0  0  0  0  0  0  0  0  0  0  0
    1.5440    7.1911   -0.7453 C   0  0  2  0  0  0  0  0  0  0  0  0
    0.5975    7.6518   -1.8647 C   0  0  0  0  0  0  0  0  0  0  0  0
   -2.1708   -5.6601   -2.6908 C   0  0  0  0  0  0  0  0  0  0  0  0
   -1.8009   -4.3647   -3.0899 C   0  0  0  0  0  0  0  0  0  0  0  0
   -2.9706   -3.7447   -3.4111 C   0  0  0  0  0  0  0  0  0  0  0  0
    3.1837    6.1830   -0.4981 H   0  0  0  0  0  0  0  0  0  0  0  0
   -0.9212    8.0756   -0.7070 H   0  0  0  0  0  0  0  0  0  0  0  0
    0.4851    2.6664   -2.0634 H   0  0  0  0  0  0  0  0  0  0  0  0
    1.7405    3.1912   -0.9256 H   0  0  0  0  0  0  0  0  0  0  0  0
   -0.8909    4.6223   -1.5746 H   0  0  0  0  0  0  0  0  0  0  0  0
    0.7708    5.0820   -1.9299 H   0  0  0  0  0  0  0  0  0  0  0  0
    0.9452   -5.7262   -1.1811 H   0  0  0  0  0  0  0  0  0  0  0  0
   -1.4621   -4.0095   -0.7676 H   0  0  0  0  0  0  0  0  0  0  0  0
    0.1676   -3.7183   -1.6358 H   0  0  0  0  0  0  0  0  0  0  0  0
   -0.2344    4.8851    2.1472 H   0  0  0  0  0  0  0  0  0  0  0  0
   -1.6564    4.9548    1.0914 H   0  0  0  0  0  0  0  0  0  0  0  0
   -1.0756    2.5585    1.8419 H   0  0  0  0  0  0  0  0  0  0  0  0
   -0.5808   -7.5039   -0.4923 H   0  0  0  0  0  0  0  0  0  0  0  0
   -1.8600   -6.4022   -0.0923 H   0  0  0  0  0  0  0  0  0  0  0  0
    2.1900   -1.6659    0.1059 H   0  0  0  0  0  0  0  0  0  0  0  0
   -2.1279   -1.7090   -0.0118 H   0  0  0  0  0  0  0  0  0  0  0  0
    2.0009    8.0856   -0.3023 H   0  0  0  0  0  0  0  0  0  0  0  0
    1.1701    8.1561   -2.6501 H   0  0  0  0  0  0  0  0  0  0  0  0
    0.0843    6.8365   -2.3750 H   0  0  0  0  0  0  0  0  0  0  0  0
   -0.8811   -3.8240   -3.0609 H   0  0  0  0  0  0  0  0  0  0  0  0
   -3.2185   -2.7111   -3.6101 H   0  0  0  0  0  0  0  0  0  0  0  0
  1 25  1  0  0  0  0
  2 26  1  0  0  0  0
  3 16  1  0  0  0  0
  3 23  1  0  0  0  0
  4 22  1  0  0  0  0
  4 31  1  0  0  0  0
  5 23  2  0  0  0  0
  6 24  2  0  0  0  0
  7 34  1  0  0  0  0
  8 30  1  0  0  0  0
  8 35  1  0  0  0  0
  9 12  1  0  0  0  0
  9 33  1  0  0  0  0
 10 14  1  0  0  0  0
 10 18  1  0  0  0  0
 10 24  1  0  0  0  0
 11 17  1  0  0  0  0
 11 21  1  0  0  0  0
 11 23  1  0  0  0  0
 12 31  2  0  0  0  0
 13 14  1  0  0  0  0
 13 15  1  0  0  0  0
 13 36  1  0  0  0  0
 13 37  1  0  0  0  0
 14 38  1  0  0  0  0
 14 39  1  0  0  0  0
 15 19  1  0  0  0  0
 15 20  2  0  0  0  0
 16 17  1  0  0  0  0
 16 22  1  0  0  0  0
 16 40  1  6  0  0  0
 17 41  1  0  0  0  0
 17 42  1  0  0  0  0
 18 20  1  0  0  0  0
 18 43  1  0  0  0  0
 18 44  1  0  0  0  0
 19 25  2  0  0  0  0
 19 26  1  0  0  0  0
 20 45  1  0  0  0  0
 21 27  2  0  0  0  0
 21 28  1  0  0  0  0
 22 46  1  0  0  0  0
 22 47  1  0  0  0  0
 24 29  1  0  0  0  0
 25 27  1  0  0  0  0
 26 28  2  0  0  0  0
 27 48  1  0  0  0  0
 28 49  1  0  0  0  0
 29  7  1  0  0  0  0
 29 30  1  0  0  0  0
 29 50  1  1  0  0  0
 30 51  1  0  0  0  0
 30 52  1  0  0  0  0
 31 32  1  0  0  0  0
 32 33  2  0  0  0  0
 32 53  1  0  0  0  0
 33 54  1  0  0  0  0
M  END
>  <DRUGBANK_ID>
DB04850

>  <SECONDARY_ACCESSION_NUMBERS>
DB09032

>  <COMMON_NAME>
Posizolid

>  <CAS_NUMBER>
252260-06-3

>  <UNII>
82V2M8K24R

>  <SYNONYMS>
Posizolid

$$$$
