
 OpenBabel10282417133D

 12 12  0  0  0  0  0  0  0  0999 V2000
   -0.6108   -1.2540   -0.0141 C   0  0  0  0  0  0  0  0  0  0  0  0
   -1.3651   -0.0902   -0.0155 C   0  0  0  0  0  0  0  0  0  0  0  0
   -0.6954    1.1204    0.0456 C   0  0  0  0  0  0  0  0  0  0  0  0
    0.6513    1.2319    0.0382 N   0  0  0  0  0  0  0  0  0  0  0  0
    1.3710    0.0909    0.0087 C   0  0  0  0  0  0  0  0  0  0  0  0
    0.7808   -1.1697    0.0267 C   0  0  0  0  0  0  0  0  0  0  0  0
    3.1350    0.2824   -0.0978 S   0  0  0  0  0  0  0  0  0  0  0  0
   -1.0998   -2.2247   -0.0469 H   0  0  0  0  0  0  0  0  0  0  0  0
   -2.4490   -0.1202   -0.0529 H   0  0  0  0  0  0  0  0  0  0  0  0
   -1.2365    2.0589    0.1038 H   0  0  0  0  0  0  0  0  0  0  0  0
    1.3760   -2.0733    0.0593 H   0  0  0  0  0  0  0  0  0  0  0  0
    3.4481   -1.0142   -0.2071 H   0  0  0  0  0  0  0  0  0  0  0  0
  1  2  1  0  0  0  0
  1  6  2  0  0  0  0
  1  8  1  0  0  0  0
  2  3  2  0  0  0  0
  2  9  1  0  0  0  0
  3  4  1  0  0  0  0
  3 10  1  0  0  0  0
  4  5  2  0  0  0  0
  5  6  1  0  0  0  0
  5  7  1  0  0  0  0
  6 11  1  0  0  0  0
  7 12  1  0  0  0  0
M  END
>  <DRUGBANK_ID>
DB03329

>  <SECONDARY_ACCESSION_NUMBERS>
EXPT02724

>  <COMMON_NAME>
2-Pyridinethiol

>  <CAS_NUMBER>
73018-10-7

>  <UNII>
EE982KT952

>  <SYNONYMS>
2-Mercaptopyridine; Pyridine-2-thiol

$$$$
