
 OpenBabel10282417143D

113117  0  0  0  0  0  0  0  0999 V2000
    1.9426   -0.8217    3.4869 C   0  0  2  0  0  0  0  0  0  0  0  0
    0.7706   -1.1434    4.3961 C   0  0  2  0  0  0  0  0  0  0  0  0
    0.1358   -2.8926    3.9196 C   0  0  1  0  0  0  0  0  0  0  0  0
    0.1272   -3.4769    1.9770 C   0  0  2  0  0  0  0  0  0  0  0  0
    2.1565   -3.1379    1.0308 C   0  0  0  0  0  0  0  0  0  0  0  0
    2.2858   -0.9514    1.4810 C   0  0  1  0  0  0  0  0  0  0  0  0
    1.0033   -3.7976    4.6082 O   0  0  0  0  0  0  0  0  0  0  0  0
    2.2351   -4.0591    3.8857 C   0  0  2  0  0  0  0  0  0  0  0  0
    3.9588   -3.1734    3.9776 C   0  0  1  0  0  0  0  0  0  0  0  0
    4.0420   -1.4200    3.6601 C   0  0  2  0  0  0  0  0  0  0  0  0
    3.5245   -1.7600    2.2360 C   0  0  1  0  0  0  0  0  0  0  0  0
    1.4413   -2.3300    2.1368 C   0  0  2  0  0  0  0  0  0  0  0  0
    1.6854   -4.1290    2.6588 O   0  0  0  0  0  0  0  0  0  0  0  0
    0.2593    0.1619    4.3189 O   0  0  0  0  0  0  0  0  0  0  0  0
   -0.0895    0.1711    3.0182 C   0  0  1  0  0  0  0  0  0  0  0  0
   -0.8916   -0.9585    2.6098 C   0  0  1  0  0  0  0  0  0  0  0  0
   -2.6521   -0.2036    2.3553 C   0  0  1  0  0  0  0  0  0  0  0  0
   -2.2131    1.9359    1.6217 C   0  0  2  0  0  0  0  0  0  0  0  0
   -0.1821    1.6254    1.7576 O   0  0  0  0  0  0  0  0  0  0  0  0
    3.4287    0.1991    2.3806 O   0  0  0  0  0  0  0  0  0  0  0  0
    5.0237   -0.4930    3.4281 O   0  0  0  0  0  0  0  0  0  0  0  0
    4.1433   -2.8549    5.3511 N   0  0  0  0  0  0  0  0  0  0  0  0
    2.2972    0.4833    0.7458 N   0  0  0  0  0  0  0  0  0  0  0  0
   -1.4375   -2.7877    1.7203 N   0  0  0  0  0  0  0  0  0  0  0  0
    2.2244   -2.0182    4.0456 O   0  0  0  0  0  0  0  0  0  0  0  0
   -3.2927    2.3949    2.3347 C   0  0  0  0  0  0  0  0  0  0  0  0
   -3.1074   -1.2189    1.1539 O   0  0  0  0  0  0  0  0  0  0  0  0
    0.0821   -1.6506    1.0028 O   0  0  0  0  0  0  0  0  0  0  0  0
   -3.3569    1.8343    3.5871 O   0  0  0  0  0  0  0  0  0  0  0  0
   -2.6058   -1.3120   -0.7314 C   0  0  2  0  0  0  0  0  0  0  0  0
   -0.7686   -2.3222   -0.9653 C   0  0  1  0  0  0  0  0  0  0  0  0
    0.4968   -0.5036    0.1073 C   0  0  2  0  0  0  0  0  0  0  0  0
    0.3355    1.1664   -0.4372 C   0  0  1  0  0  0  0  0  0  0  0  0
   -1.1150    1.3977   -0.2582 C   0  0  1  0  0  0  0  0  0  0  0  0
   -2.5327    0.5942   -1.4796 O   0  0  0  0  0  0  0  0  0  0  0  0
   -1.4182    0.6254    1.5910 C   0  0  0  0  0  0  0  0  0  0  0  0
   -1.1528    1.8853    3.1735 N   0  0  0  0  0  0  0  0  0  0  0  0
    1.0169    2.2012    0.3199 O   0  0  0  0  0  0  0  0  0  0  0  0
    1.9292   -1.1567   -0.3089 O   0  0  0  0  0  0  0  0  0  0  0  0
   -1.0997   -3.9505   -0.2169 N   0  0  0  0  0  0  0  0  0  0  0  0
    0.6539   -2.7246    0.0732 C   0  0  0  0  0  0  0  0  0  0  0  0
   -1.1180   -1.4531    0.2104 O   0  0  0  0  0  0  0  0  0  0  0  0
    0.1461   -1.0434   -1.2541 C   0  0  0  0  0  0  0  0  0  0  0  0
   -1.0132   -0.1339   -1.4116 C   0  0  0  0  0  0  0  0  0  0  0  0
   -2.3716    0.1902    0.0816 N   0  0  0  0  0  0  0  0  0  0  0  0
   -4.0790    0.6098    0.0260 C   0  0  0  0  0  0  0  0  0  0  0  0
   -4.8107   -0.6101   -0.3628 C   0  0  3  0  0  0  0  0  0  0  0  0
   -4.8516   -2.1230    0.4880 C   0  0  0  0  0  0  0  0  0  0  0  0
   -3.6639   -3.2295    0.3942 C   0  0  0  0  0  0  0  0  0  0  0  0
   -3.0097   -3.2993   -1.3497 C   0  0  0  0  0  0  0  0  0  0  0  0
   -3.1215   -1.9361   -2.5852 N   0  0  0  0  0  0  0  0  0  0  0  0
   -4.2978   -0.6957   -1.9510 C   0  0  0  0  0  0  0  0  0  0  0  0
    2.3674    0.1359    3.7558 H   0  0  0  0  0  0  0  0  0  0  0  0
    1.0584   -1.2353    5.4273 H   0  0  0  0  0  0  0  0  0  0  0  0
   -0.8825   -2.7472    4.3701 H   0  0  0  0  0  0  0  0  0  0  0  0
   -0.4154   -4.4012    1.8778 H   0  0  0  0  0  0  0  0  0  0  0  0
    2.9475   -3.5766    1.6875 H   0  0  0  0  0  0  0  0  0  0  0  0
    2.5129   -3.2255    0.0452 H   0  0  0  0  0  0  0  0  0  0  0  0
    3.5711   -0.6018    0.9816 H   0  0  0  0  0  0  0  0  0  0  0  0
    2.6291   -4.9344    4.2351 H   0  0  0  0  0  0  0  0  0  0  0  0
    4.5656   -3.4037    3.0692 H   0  0  0  0  0  0  0  0  0  0  0  0
    3.3876   -0.7800    4.6249 H   0  0  0  0  0  0  0  0  0  0  0  0
    3.8128   -1.9947    0.8537 H   0  0  0  0  0  0  0  0  0  0  0  0
    0.7026   -1.8299    2.6089 H   0  0  0  0  0  0  0  0  0  0  0  0
    0.7440   -0.0704    2.5678 H   0  0  0  0  0  0  0  0  0  0  0  0
   -1.1112   -1.7851    3.1878 H   0  0  0  0  0  0  0  0  0  0  0  0
   -2.9437   -0.7307    3.2398 H   0  0  0  0  0  0  0  0  0  0  0  0
   -2.5354    2.1234    0.4195 H   0  0  0  0  0  0  0  0  0  0  0  0
    2.4536    0.6771    2.0957 H   0  0  0  0  0  0  0  0  0  0  0  0
    5.2313   -0.9854    2.6435 H   0  0  0  0  0  0  0  0  0  0  0  0
    4.7226   -2.0089    5.2896 H   0  0  0  0  0  0  0  0  0  0  0  0
    3.2102   -2.4137    5.5992 H   0  0  0  0  0  0  0  0  0  0  0  0
    2.3062    0.0448   -0.1903 H   0  0  0  0  0  0  0  0  0  0  0  0
    1.3677    0.7387    0.9373 H   0  0  0  0  0  0  0  0  0  0  0  0
   -2.0869   -1.9150    1.6256 H   0  0  0  0  0  0  0  0  0  0  0  0
   -1.0033   -1.7197    1.3172 H   0  0  0  0  0  0  0  0  0  0  0  0
    2.5778   -2.5064    3.3037 H   0  0  0  0  0  0  0  0  0  0  0  0
   -3.2807    3.2168    1.6095 H   0  0  0  0  0  0  0  0  0  0  0  0
   -4.0162    1.7506    1.9552 H   0  0  0  0  0  0  0  0  0  0  0  0
   -3.2151    0.8720    3.6106 H   0  0  0  0  0  0  0  0  0  0  0  0
   -3.5217   -1.7862   -0.8328 H   0  0  0  0  0  0  0  0  0  0  0  0
   -0.5947   -2.5657   -2.0212 H   0  0  0  0  0  0  0  0  0  0  0  0
    0.5295   -0.3283    1.1698 H   0  0  0  0  0  0  0  0  0  0  0  0
    0.6942    1.2342   -1.4348 H   0  0  0  0  0  0  0  0  0  0  0  0
   -1.2337    2.3389   -0.6373 H   0  0  0  0  0  0  0  0  0  0  0  0
   -3.0006    0.7469    1.3904 H   0  0  0  0  0  0  0  0  0  0  0  0
   -0.9156   -0.0840    1.2754 H   0  0  0  0  0  0  0  0  0  0  0  0
   -1.5316    1.3138    3.8508 H   0  0  0  0  0  0  0  0  0  0  0  0
   -0.1457    1.9123    2.9007 H   0  0  0  0  0  0  0  0  0  0  0  0
    0.9314    1.9725    1.3050 H   0  0  0  0  0  0  0  0  0  0  0  0
    1.4656   -1.5519    0.4518 H   0  0  0  0  0  0  0  0  0  0  0  0
   -0.3312   -4.6025   -0.1093 H   0  0  0  0  0  0  0  0  0  0  0  0
   -1.4357   -3.6614    0.7207 H   0  0  0  0  0  0  0  0  0  0  0  0
    1.4851   -2.5547   -1.0685 H   0  0  0  0  0  0  0  0  0  0  0  0
    0.7156   -3.7390   -0.0095 H   0  0  0  0  0  0  0  0  0  0  0  0
   -1.5801   -2.2625    0.3878 H   0  0  0  0  0  0  0  0  0  0  0  0
    1.0472   -0.3619   -1.4709 H   0  0  0  0  0  0  0  0  0  0  0  0
    0.6666   -1.5331   -2.0691 H   0  0  0  0  0  0  0  0  0  0  0  0
   -0.9760    0.6935   -2.1967 H   0  0  0  0  0  0  0  0  0  0  0  0
   -1.4821   -0.8476   -1.8659 H   0  0  0  0  0  0  0  0  0  0  0  0
   -2.2226   -0.6191    0.6236 H   0  0  0  0  0  0  0  0  0  0  0  0
   -4.7456    0.9074    0.9301 H   0  0  0  0  0  0  0  0  0  0  0  0
   -3.9882    1.5665   -0.4928 H   0  0  0  0  0  0  0  0  0  0  0  0
   -5.7416   -0.2383    0.0066 H   0  0  0  0  0  0  0  0  0  0  0  0
   -5.0653   -1.8923    1.5592 H   0  0  0  0  0  0  0  0  0  0  0  0
   -5.5030   -2.6411   -0.1398 H   0  0  0  0  0  0  0  0  0  0  0  0
   -3.2245   -2.9361    1.3515 H   0  0  0  0  0  0  0  0  0  0  0  0
   -3.4646   -4.1276    0.9927 H   0  0  0  0  0  0  0  0  0  0  0  0
   -2.0412   -3.6303   -1.6305 H   0  0  0  0  0  0  0  0  0  0  0  0
   -3.7016   -3.8070   -1.8713 H   0  0  0  0  0  0  0  0  0  0  0  0
   -2.1921   -1.4971   -2.8122 H   0  0  0  0  0  0  0  0  0  0  0  0
   -4.9507   -1.3334   -2.3851 H   0  0  0  0  0  0  0  0  0  0  0  0
   -4.1456    0.3349   -2.3214 H   0  0  0  0  0  0  0  0  0  0  0  0
  1  2  1  0  0  0  0
  1  6  1  0  0  0  0
  1 53  1  1  0  0  0
  1 25  1  0  0  0  0
  2  3  1  0  0  0  0
  2 54  1  1  0  0  0
  2 14  1  0  0  0  0
  3  7  1  0  0  0  0
  3  4  1  0  0  0  0
  3 55  1  1  0  0  0
  4  5  1  0  0  0  0
  4 56  1  1  0  0  0
  4 24  1  0  0  0  0
  5  6  1  0  0  0  0
  5 57  1  0  0  0  0
  5 58  1  0  0  0  0
  6 23  1  0  0  0  0
  6 59  1  1  0  0  0
  8  7  1  0  0  0  0
  8  9  1  0  0  0  0
  8 13  1  0  0  0  0
  8 60  1  1  0  0  0
  9 22  1  0  0  0  0
  9 10  1  0  0  0  0
  9 61  1  6  0  0  0
 10 11  1  0  0  0  0
 10 62  1  1  0  0  0
 10 21  1  0  0  0  0
 11 12  1  0  0  0  0
 11 20  1  0  0  0  0
 11 63  1  6  0  0  0
 12 13  1  0  0  0  0
 12 64  1  1  0  0  0
 12 41  1  0  0  0  0
 15 16  1  0  0  0  0
 15 65  1  6  0  0  0
 15 14  1  0  0  0  0
 16 28  1  0  0  0  0
 16 17  1  0  0  0  0
 16 66  1  1  0  0  0
 17 27  1  0  0  0  0
 17 18  1  0  0  0  0
 17 67  1  1  0  0  0
 18 19  1  0  0  0  0
 18 68  1  6  0  0  0
 18 26  1  0  0  0  0
 19 15  1  0  0  0  0
 20 69  1  0  0  0  0
 21 70  1  0  0  0  0
 22 71  1  0  0  0  0
 22 72  1  0  0  0  0
 23 73  1  0  0  0  0
 23 74  1  0  0  0  0
 24 75  1  0  0  0  0
 24 76  1  0  0  0  0
 25 77  1  0  0  0  0
 26 29  1  0  0  0  0
 26 78  1  0  0  0  0
 26 79  1  0  0  0  0
 28 43  1  0  0  0  0
 29 80  1  0  0  0  0
 30 27  1  0  0  0  0
 30 31  1  0  0  0  0
 30 35  1  0  0  0  0
 30 81  1  6  0  0  0
 31 32  1  0  0  0  0
 31 40  1  0  0  0  0
 31 82  1  6  0  0  0
 32 33  1  0  0  0  0
 32 83  1  1  0  0  0
 32 39  1  0  0  0  0
 33 34  1  0  0  0  0
 33 38  1  0  0  0  0
 33 84  1  6  0  0  0
 34 35  1  0  0  0  0
 34 36  1  0  0  0  0
 34 85  1  1  0  0  0
 36 37  1  0  0  0  0
 36 86  1  0  0  0  0
 36 87  1  0  0  0  0
 37 88  1  0  0  0  0
 37 89  1  0  0  0  0
 38 90  1  0  0  0  0
 39 91  1  0  0  0  0
 40 92  1  0  0  0  0
 40 93  1  0  0  0  0
 41 42  1  0  0  0  0
 41 94  1  0  0  0  0
 41 95  1  0  0  0  0
 42 96  1  0  0  0  0
 43 44  1  0  0  0  0
 43 97  1  0  0  0  0
 43 98  1  0  0  0  0
 44 45  1  0  0  0  0
 44 99  1  0  0  0  0
 44100  1  0  0  0  0
 45 46  1  0  0  0  0
 45101  1  0  0  0  0
 46 47  1  0  0  0  0
 46102  1  0  0  0  0
 46103  1  0  0  0  0
 47 48  1  0  0  0  0
 47 52  1  0  0  0  0
 47104  1  0  0  0  0
 48 49  1  0  0  0  0
 48105  1  0  0  0  0
 48106  1  0  0  0  0
 49 50  1  0  0  0  0
 49107  1  0  0  0  0
 49108  1  0  0  0  0
 50 51  1  0  0  0  0
 50109  1  0  0  0  0
 50110  1  0  0  0  0
 51 52  1  0  0  0  0
 51111  1  0  0  0  0
 52112  1  0  0  0  0
 52113  1  0  0  0  0
M  END
>  <DRUGBANK_ID>
DB04718

>  <COMMON_NAME>
(1R,2R,3S,4R,6S)-4,6-diamino-2-{[3-O-(2,6-diamino-2,6-dideoxy-beta-L-idopyranosyl)-2-O-{2-[(piperidin-3-ylmethyl)amino]ethyl}-beta-D-ribofuranosyl]oxy}-3-hydroxycyclohexyl 2-amino-2-deoxy-alpha-D-glucopyranoside

>  <SYNONYMS>
(1R,2R,3S,4R,6S)-4,6-diamino-2-{[3-O-(2,6-diamino-2,6-dideoxy-β-L-idopyranosyl)-2-O-{2-[(piperidin-3-ylmethyl)amino]ethyl}-β-D-ribofuranosyl]oxy}-3-hydroxycyclohexyl 2-amino-2-deoxy-α-D-glucopyranoside

$$$$
