
 OpenBabel10282417173D

 49 50  0  0  0  0  0  0  0  0999 V2000
    0.9440   -0.1316    0.0377 N   0  0  0  0  0  0  0  0  0  0  0  0
    0.2985    1.0366   -0.2511 C   0  0  0  0  0  0  0  0  0  0  0  0
   -0.9231    1.1882   -0.3094 O   0  0  0  0  0  0  0  0  0  0  0  0
    1.0733    2.1268   -0.4899 N   0  0  0  0  0  0  0  0  0  0  0  0
    2.5034    2.3107   -0.6968 C   0  0  0  0  0  0  0  0  0  0  0  0
    2.9332    2.6923   -2.1261 C   0  0  0  0  0  0  0  0  0  0  0  0
    2.4124    4.3641   -2.7153 S   0  0  0  0  0  0  0  0  0  0  0  0
    0.5795    4.2469   -2.9023 C   0  0  0  0  0  0  0  0  0  0  0  0
   -0.4272    3.2691   -4.9324 O   0  0  0  0  0  0  0  0  0  0  0  0
    0.1689    3.0698   -3.7108 C   0  0  0  0  0  0  0  0  0  0  0  0
    0.2977    1.7154   -3.4966 C   0  0  0  0  0  0  0  0  0  0  0  0
   -0.0978    1.0519   -4.6499 C   0  0  0  0  0  0  0  0  0  0  0  0
   -0.5832    2.0237   -5.4854 C   0  0  0  0  0  0  0  0  0  0  0  0
   -1.2307    1.8518   -6.8084 C   0  0  0  0  0  0  0  0  0  0  0  0
   -2.6646    2.1806   -6.8137 N   0  0  0  0  0  0  0  0  0  0  0  0
   -3.2129    1.8810   -8.1371 C   0  0  0  0  0  0  0  0  0  0  0  0
   -3.4005    1.4206   -5.7964 C   0  0  0  0  0  0  0  0  0  0  0  0
    0.2459   -1.2817    0.4709 C   0  0  0  0  0  0  0  0  0  0  0  0
   -0.8922   -1.7452   -0.1900 C   0  0  0  0  0  0  0  0  0  0  0  0
   -1.5608   -2.8839    0.2721 C   0  0  0  0  0  0  0  0  0  0  0  0
   -1.1240   -3.5579    1.4235 C   0  0  0  0  0  0  0  0  0  0  0  0
    0.0215   -3.0818    2.0796 C   0  0  0  0  0  0  0  0  0  0  0  0
    0.7158   -1.9679    1.5923 C   0  0  0  0  0  0  0  0  0  0  0  0
   -1.8510   -4.7601    1.9611 C   0  0  0  0  0  0  0  0  0  0  0  0
   -2.9271   -3.4393   -0.6301 Cl  0  0  0  0  0  0  0  0  0  0  0  0
    1.8857   -0.0278    0.3764 H   0  0  0  0  0  0  0  0  0  0  0  0
    0.4833    2.9333   -0.6279 H   0  0  0  0  0  0  0  0  0  0  0  0
    2.8151    3.0991   -0.0058 H   0  0  0  0  0  0  0  0  0  0  0  0
    3.0270    1.3946   -0.4160 H   0  0  0  0  0  0  0  0  0  0  0  0
    4.0304    2.7170   -2.1332 H   0  0  0  0  0  0  0  0  0  0  0  0
    2.6975    1.9179   -2.8603 H   0  0  0  0  0  0  0  0  0  0  0  0
    0.1209    4.2420   -1.9108 H   0  0  0  0  0  0  0  0  0  0  0  0
    0.2359    5.1865   -3.3511 H   0  0  0  0  0  0  0  0  0  0  0  0
    0.7186    1.2238   -2.6478 H   0  0  0  0  0  0  0  0  0  0  0  0
   -0.0638   -0.0091   -4.8378 H   0  0  0  0  0  0  0  0  0  0  0  0
   -0.6823    2.4405   -7.5517 H   0  0  0  0  0  0  0  0  0  0  0  0
   -1.1030    0.7950   -7.0892 H   0  0  0  0  0  0  0  0  0  0  0  0
   -3.1402    0.8132   -8.3790 H   0  0  0  0  0  0  0  0  0  0  0  0
   -4.2655    2.1753   -8.1906 H   0  0  0  0  0  0  0  0  0  0  0  0
   -2.6825    2.4433   -8.9133 H   0  0  0  0  0  0  0  0  0  0  0  0
   -3.3221    0.3383   -5.9542 H   0  0  0  0  0  0  0  0  0  0  0  0
   -3.0464    1.6454   -4.7844 H   0  0  0  0  0  0  0  0  0  0  0  0
   -4.4597    1.6977   -5.8070 H   0  0  0  0  0  0  0  0  0  0  0  0
   -1.2510   -1.2371   -1.0814 H   0  0  0  0  0  0  0  0  0  0  0  0
    0.3769   -3.5687    2.9860 H   0  0  0  0  0  0  0  0  0  0  0  0
    1.5835   -1.6090    2.1401 H   0  0  0  0  0  0  0  0  0  0  0  0
   -2.8870   -4.5029    2.2065 H   0  0  0  0  0  0  0  0  0  0  0  0
   -1.8425   -5.5727    1.2273 H   0  0  0  0  0  0  0  0  0  0  0  0
   -1.3846   -5.1395    2.8766 H   0  0  0  0  0  0  0  0  0  0  0  0
  1  2  1  0  0  0  0
  1 18  1  0  0  0  0
  1 26  1  0  0  0  0
  2  3  2  0  0  0  0
  2  4  1  0  0  0  0
  4  5  1  0  0  0  0
  4 27  1  0  0  0  0
  5  6  1  0  0  0  0
  5 28  1  0  0  0  0
  5 29  1  0  0  0  0
  6  7  1  0  0  0  0
  6 30  1  0  0  0  0
  6 31  1  0  0  0  0
  7  8  1  0  0  0  0
  8 10  1  0  0  0  0
  8 32  1  0  0  0  0
  8 33  1  0  0  0  0
  9 10  1  0  0  0  0
  9 13  1  0  0  0  0
 10 11  2  0  0  0  0
 11 12  1  0  0  0  0
 11 34  1  0  0  0  0
 12 13  2  0  0  0  0
 12 35  1  0  0  0  0
 13 14  1  0  0  0  0
 14 15  1  0  0  0  0
 14 36  1  0  0  0  0
 14 37  1  0  0  0  0
 15 16  1  0  0  0  0
 15 17  1  0  0  0  0
 16 38  1  0  0  0  0
 16 39  1  0  0  0  0
 16 40  1  0  0  0  0
 17 41  1  0  0  0  0
 17 42  1  0  0  0  0
 17 43  1  0  0  0  0
 18 19  1  0  0  0  0
 18 23  2  0  0  0  0
 19 20  2  0  0  0  0
 19 44  1  0  0  0  0
 20 21  1  0  0  0  0
 20 25  1  0  0  0  0
 21 22  2  0  0  0  0
 21 24  1  0  0  0  0
 22 23  1  0  0  0  0
 22 45  1  0  0  0  0
 23 46  1  0  0  0  0
 24 47  1  0  0  0  0
 24 48  1  0  0  0  0
 24 49  1  0  0  0  0
M  END
>  <DRUGBANK_ID>
DB08027

>  <COMMON_NAME>
CAP-1

>  <CAS_NUMBER>
564475-13-4

>  <UNII>
X5U1W7S3VQ

$$$$
