
 OpenBabel10282417213D

  6  4  0  0  0  0  0  0  0  0999 V2000
    0.9806   -0.0019    0.0981 O   0  5  0  0  0  0  0  0  0  0  0  0
    3.0306   -0.0019    0.0981 Mn  0  0  0  0  0  0  0  0  0  0  0  0
    3.6421   -0.6618   -1.5010 O   0  0  0  0  0  0  0  0  0  0  0  0
    3.6421    1.7128    0.3262 O   0  0  0  0  0  0  0  0  0  0  0  0
    3.6421   -1.0568    1.4690 O   0  0  0  0  0  0  0  0  0  0  0  0
    0.9878   -0.0960   -0.0251 K   0  3  0  0  0  0  0  0  0  0  0  0
  1  2  1  0  0  0  0
  2  3  2  0  0  0  0
  2  4  2  0  0  0  0
  2  5  2  0  0  0  0
M  CHG  2   1  -1   6   1
M  END
>  <DRUGBANK_ID>
DB13831

>  <COMMON_NAME>
Potassium permanganate

>  <CAS_NUMBER>
7722-64-7

>  <UNII>
00OT1QX5U4

>  <SYNONYMS>
Potassium permanganate

$$$$
