
 OpenBabel10282417123D

 21 20  0  0  0  0  0  0  0  0999 V2000
    0.6044   -0.4994    0.1557 O   0  0  0  0  0  0  0  0  0  0  0  0
    0.4012   -1.1516   -1.0641 N   0  0  0  0  0  0  0  0  0  0  0  0
    1.3500   -1.7557   -1.8180 C   0  0  0  0  0  0  0  0  0  0  0  0
    0.9941   -2.4944   -2.7470 O   0  0  0  0  0  0  0  0  0  0  0  0
    2.8286   -1.5146   -1.5598 C   0  0  0  0  0  0  0  0  0  0  0  0
    3.3001   -0.0939   -1.8578 C   0  0  0  0  0  0  0  0  0  0  0  0
    2.7395    0.9566   -0.9258 C   0  0  0  0  0  0  0  0  0  0  0  0
    3.2147    0.8000    0.7861 P   0  0  0  0  0  0  0  0  0  0  0  0
    4.7858    1.0675    0.6935 O   0  0  0  0  0  0  0  0  0  0  0  0
    2.5478    2.1147    1.3999 O   0  0  0  0  0  0  0  0  0  0  0  0
    2.8628   -0.4687    1.4897 O   0  0  0  0  0  0  0  0  0  0  0  0
    1.4130   -0.8962    0.5482 H   0  0  0  0  0  0  0  0  0  0  0  0
   -0.5704   -1.3424   -1.2920 H   0  0  0  0  0  0  0  0  0  0  0  0
    3.0983   -1.8403   -0.5527 H   0  0  0  0  0  0  0  0  0  0  0  0
    3.3807   -2.1831   -2.2361 H   0  0  0  0  0  0  0  0  0  0  0  0
    4.3950   -0.0597   -1.7960 H   0  0  0  0  0  0  0  0  0  0  0  0
    3.0328    0.1806   -2.8836 H   0  0  0  0  0  0  0  0  0  0  0  0
    3.1059    1.9388   -1.2300 H   0  0  0  0  0  0  0  0  0  0  0  0
    1.6595    1.0423   -1.0542 H   0  0  0  0  0  0  0  0  0  0  0  0
    5.2541    0.2539    0.4171 H   0  0  0  0  0  0  0  0  0  0  0  0
    1.6654    2.2837    1.0082 H   0  0  0  0  0  0  0  0  0  0  0  0
  1  2  1  0  0  0  0
  1 12  1  0  0  0  0
  2  3  1  0  0  0  0
  2 13  1  0  0  0  0
  3  4  2  0  0  0  0
  3  5  1  0  0  0  0
  5  6  1  0  0  0  0
  5 14  1  0  0  0  0
  5 15  1  0  0  0  0
  6  7  1  0  0  0  0
  6 16  1  0  0  0  0
  6 17  1  0  0  0  0
  7  8  1  0  0  0  0
  7 18  1  0  0  0  0
  7 19  1  0  0  0  0
  8  9  1  0  0  0  0
  8 10  1  0  0  0  0
  8 11  2  0  0  0  0
  9 20  1  0  0  0  0
 10 21  1  0  0  0  0
M  END
>  <DRUGBANK_ID>
DB01695

>  <SECONDARY_ACCESSION_NUMBERS>
EXPT00226

>  <COMMON_NAME>
N-Hydroxy-4-phosphonobutanamide

>  <CAS_NUMBER>
146086-80-8

>  <UNII>
6Y7ZLE6WCN

>  <SYNONYMS>
4PBH; N-hydroxy-4-phosphono-butanamide

$$$$
