623
 OpenBabel10282417143D

 47 49  0  0  0  0  0  0  0  0999 V2000
    0.7631    1.1737    0.0772 C   0  0  0  0  0  0  0  0  0  0  0  0
    1.5024    2.2808    0.1880 F   0  0  0  0  0  0  0  0  0  0  0  0
    1.4558   -0.0158   -0.0007 C   0  0  0  0  0  0  0  0  0  0  0  0
    0.7329   -1.1891   -0.0718 C   0  0  0  0  0  0  0  0  0  0  0  0
    1.4499   -2.3117   -0.1771 F   0  0  0  0  0  0  0  0  0  0  0  0
   -0.6758   -1.1915   -0.0264 C   0  0  0  0  0  0  0  0  0  0  0  0
   -1.2992    0.0179    0.0042 N   0  3  0  0  0  0  0  0  0  0  0  0
   -0.6453    1.2109    0.0356 C   0  0  0  0  0  0  0  0  0  0  0  0
    2.9507   -0.0515    0.0075 C   0  0  0  0  0  0  0  0  0  0  0  0
   -1.4541   -2.3491   -0.0192 O   0  0  0  0  0  0  0  0  0  0  0  0
   -1.3919    2.3903    0.0413 O   0  0  0  0  0  0  0  0  0  0  0  0
   -0.7056    3.5947   -0.0013 C   0  0  0  0  0  0  0  0  0  0  0  0
    0.0704    3.9534   -1.1117 C   0  0  0  0  0  0  0  0  0  0  0  0
    0.8782    5.1054   -1.0870 C   0  0  0  0  0  0  0  0  0  0  0  0
    0.9581    5.8426    0.0994 C   0  0  0  0  0  0  0  0  0  0  0  0
    0.1682    5.4910    1.1988 C   0  0  0  0  0  0  0  0  0  0  0  0
   -0.7404    4.4319    1.1107 C   0  0  0  0  0  0  0  0  0  0  0  0
    1.6508    5.4866   -2.3121 C   0  0  0  0  0  0  0  0  0  0  0  0
    2.3429    6.5842   -2.4156 N   0  0  0  0  0  0  0  0  0  0  0  0
    1.6686    4.6985   -3.4149 N   0  0  0  0  0  0  0  0  0  0  0  0
   -0.8031   -3.5728   -0.0003 C   0  0  0  0  0  0  0  0  0  0  0  0
   -0.8818   -4.3931   -1.1223 C   0  0  0  0  0  0  0  0  0  0  0  0
   -0.0128   -5.4818   -1.2364 C   0  0  0  0  0  0  0  0  0  0  0  0
    0.7760   -5.8770   -0.1516 C   0  0  0  0  0  0  0  0  0  0  0  0
    0.7369   -5.1545    1.0460 C   0  0  0  0  0  0  0  0  0  0  0  0
   -0.0269   -3.9734    1.0958 C   0  0  0  0  0  0  0  0  0  0  0  0
    1.5074   -5.5862    2.2561 C   0  0  0  0  0  0  0  0  0  0  0  0
    2.1589   -6.7101    2.3336 N   0  0  0  0  0  0  0  0  0  0  0  0
    1.5661   -4.8193    3.3723 N   0  0  0  0  0  0  0  0  0  0  0  0
   -2.3194    0.0307    0.0052 H   0  0  0  0  0  0  0  0  0  0  0  0
    3.3017   -0.5691    0.9050 H   0  0  0  0  0  0  0  0  0  0  0  0
    3.3140   -0.5711   -0.8840 H   0  0  0  0  0  0  0  0  0  0  0  0
    3.3792    0.9547    0.0057 H   0  0  0  0  0  0  0  0  0  0  0  0
    0.1123    3.2809   -1.9576 H   0  0  0  0  0  0  0  0  0  0  0  0
    1.6207    6.6986    0.2027 H   0  0  0  0  0  0  0  0  0  0  0  0
    0.2749    6.0462    2.1302 H   0  0  0  0  0  0  0  0  0  0  0  0
   -1.4314    4.2601    1.9302 H   0  0  0  0  0  0  0  0  0  0  0  0
    2.3193    7.1656   -1.5823 H   0  0  0  0  0  0  0  0  0  0  0  0
    1.0449    3.9259   -3.5786 H   0  0  0  0  0  0  0  0  0  0  0  0
    2.0790    5.1220   -4.2414 H   0  0  0  0  0  0  0  0  0  0  0  0
   -1.5779   -4.1863   -1.9294 H   0  0  0  0  0  0  0  0  0  0  0  0
    0.0626   -6.0269   -2.1767 H   0  0  0  0  0  0  0  0  0  0  0  0
    1.4049   -6.7554   -0.2746 H   0  0  0  0  0  0  0  0  0  0  0  0
    0.0481   -3.3155    1.9512 H   0  0  0  0  0  0  0  0  0  0  0  0
    2.1056   -7.2765    1.4912 H   0  0  0  0  0  0  0  0  0  0  0  0
    0.9750   -4.0260    3.5561 H   0  0  0  0  0  0  0  0  0  0  0  0
    1.9714   -5.2718    4.1860 H   0  0  0  0  0  0  0  0  0  0  0  0
  1  2  1  0  0  0  0
  1  3  2  0  0  0  0
  1  8  1  0  0  0  0
  3  4  1  0  0  0  0
  3  9  1  0  0  0  0
  4  5  1  0  0  0  0
  4  6  2  0  0  0  0
  6  7  1  0  0  0  0
  6 10  1  0  0  0  0
  7  8  2  0  0  0  0
  7 30  1  0  0  0  0
  8 11  1  0  0  0  0
  9 31  1  0  0  0  0
  9 32  1  0  0  0  0
  9 33  1  0  0  0  0
 10 21  1  0  0  0  0
 11 12  1  0  0  0  0
 12 13  2  0  0  0  0
 12 17  1  0  0  0  0
 13 14  1  0  0  0  0
 13 34  1  0  0  0  0
 14 15  2  0  0  0  0
 14 18  1  0  0  0  0
 15 16  1  0  0  0  0
 15 35  1  0  0  0  0
 16 17  2  0  0  0  0
 16 36  1  0  0  0  0
 17 37  1  0  0  0  0
 18 19  2  0  0  0  0
 18 20  1  0  0  0  0
 19 38  1  0  0  0  0
 20 39  1  0  0  0  0
 20 40  1  0  0  0  0
 21 22  2  0  0  0  0
 21 26  1  0  0  0  0
 22 23  1  0  0  0  0
 22 41  1  0  0  0  0
 23 24  2  0  0  0  0
 23 42  1  0  0  0  0
 24 25  1  0  0  0  0
 24 43  1  0  0  0  0
 25 26  2  0  0  0  0
 25 27  1  0  0  0  0
 26 44  1  0  0  0  0
 27 28  2  0  0  0  0
 27 29  1  0  0  0  0
 28 45  1  0  0  0  0
 29 46  1  0  0  0  0
 29 47  1  0  0  0  0
M  CHG  1   7   1
M  END
>  <DRUGBANK_ID>
DB04432

>  <SECONDARY_ACCESSION_NUMBERS>
EXPT00266

>  <COMMON_NAME>
ZK-805623

$$$$
