
 OpenBabel10282417173D

 61 60  0  0  0  0  0  0  0  0999 V2000
    1.0364   -0.2603    0.0910 O   0  0  0  0  0  0  0  0  0  0  0  0
    0.8184   -3.1408   -1.8044 N   0  0  0  0  0  0  0  0  0  0  0  0
    1.0552   -1.6806   -1.8783 C   0  0  1  0  0  0  0  0  0  0  0  0
    0.5689   -1.1657   -3.2419 C   0  0  0  0  0  0  0  0  0  0  0  0
    0.7842    0.5723   -3.6865 S   0  0  0  0  0  0  0  0  0  0  0  0
    0.0357    1.5359   -2.4117 C   0  0  0  0  0  0  0  0  0  0  0  0
   -0.8938    1.0907   -1.7472 O   0  0  0  0  0  0  0  0  0  0  0  0
    0.4345    2.9890   -2.2580 C   0  0  0  0  0  0  0  0  0  0  0  0
    1.9013    3.2550   -1.9262 C   0  0  0  0  0  0  0  0  0  0  0  0
    2.8365    2.7955   -3.0389 C   0  0  0  0  0  0  0  0  0  0  0  0
    2.3951    3.3963   -4.3840 C   0  0  0  0  0  0  0  0  0  0  0  0
    2.5633    4.9122   -4.3315 C   0  0  0  0  0  0  0  0  0  0  0  0
    4.0322    5.2333   -4.0573 C   0  0  0  0  0  0  0  0  0  0  0  0
    4.8975    4.6283   -5.1683 C   0  0  0  0  0  0  0  0  0  0  0  0
    4.4844    5.2344   -6.5122 C   0  0  0  0  0  0  0  0  0  0  0  0
    4.6700    6.7535   -6.4571 C   0  0  0  0  0  0  0  0  0  0  0  0
    6.1389    7.0784   -6.1698 C   0  0  0  0  0  0  0  0  0  0  0  0
    7.0207    6.4957   -7.2779 C   0  0  0  0  0  0  0  0  0  0  0  0
    6.6282    7.0984   -8.6313 C   0  0  0  0  0  0  0  0  0  0  0  0
    6.8262    8.6182   -8.6243 C   0  0  0  0  0  0  0  0  0  0  0  0
    0.2782   -1.0424   -0.7208 C   0  0  0  0  0  0  0  0  0  0  0  0
    8.2801    8.9863   -8.3256 C   0  0  0  0  0  0  0  0  0  0  0  0
    9.2017    8.3993   -9.3822 C   0  0  0  0  0  0  0  0  0  0  0  0
   -0.9082   -1.2464   -0.5014 O   0  0  0  0  0  0  0  0  0  0  0  0
    1.9857   -0.2130   -0.1177 H   0  0  0  0  0  0  0  0  0  0  0  0
    1.3549   -3.6680   -2.4840 H   0  0  0  0  0  0  0  0  0  0  0  0
    1.0071   -3.4920   -0.8672 H   0  0  0  0  0  0  0  0  0  0  0  0
    2.1330   -1.5135   -1.7544 H   0  0  0  0  0  0  0  0  0  0  0  0
    1.1427   -1.7111   -4.0095 H   0  0  0  0  0  0  0  0  0  0  0  0
   -0.4797   -1.4116   -3.4161 H   0  0  0  0  0  0  0  0  0  0  0  0
    0.0886    3.5316   -3.1445 H   0  0  0  0  0  0  0  0  0  0  0  0
   -0.1600    3.4088   -1.4376 H   0  0  0  0  0  0  0  0  0  0  0  0
    2.0308    4.3345   -1.7587 H   0  0  0  0  0  0  0  0  0  0  0  0
    2.1875    2.7855   -0.9811 H   0  0  0  0  0  0  0  0  0  0  0  0
    3.8711    3.0407   -2.7881 H   0  0  0  0  0  0  0  0  0  0  0  0
    2.8988    1.7112   -3.0810 H   0  0  0  0  0  0  0  0  0  0  0  0
    2.9548    2.9320   -5.2015 H   0  0  0  0  0  0  0  0  0  0  0  0
    1.3603    3.1751   -4.6549 H   0  0  0  0  0  0  0  0  0  0  0  0
    2.2015    5.3577   -5.2636 H   0  0  0  0  0  0  0  0  0  0  0  0
    1.9282    5.3696   -3.5681 H   0  0  0  0  0  0  0  0  0  0  0  0
    4.1619    6.3126   -3.9562 H   0  0  0  0  0  0  0  0  0  0  0  0
    4.3672    4.8655   -3.0853 H   0  0  0  0  0  0  0  0  0  0  0  0
    5.9542    4.7879   -4.9406 H   0  0  0  0  0  0  0  0  0  0  0  0
    4.8261    3.5380   -5.2181 H   0  0  0  0  0  0  0  0  0  0  0  0
    5.0565    4.7704   -7.3197 H   0  0  0  0  0  0  0  0  0  0  0  0
    3.4503    4.9971   -6.7781 H   0  0  0  0  0  0  0  0  0  0  0  0
    4.3169    7.2040   -7.3875 H   0  0  0  0  0  0  0  0  0  0  0  0
    4.0333    7.2237   -5.7022 H   0  0  0  0  0  0  0  0  0  0  0  0
    6.2653    8.1588   -6.0646 H   0  0  0  0  0  0  0  0  0  0  0  0
    6.4654    6.6935   -5.1985 H   0  0  0  0  0  0  0  0  0  0  0  0
    8.0736    6.6648   -7.0391 H   0  0  0  0  0  0  0  0  0  0  0  0
    6.9484    5.4044   -7.3274 H   0  0  0  0  0  0  0  0  0  0  0  0
    7.2024    6.6202   -9.4283 H   0  0  0  0  0  0  0  0  0  0  0  0
    5.5904    6.8660   -8.8924 H   0  0  0  0  0  0  0  0  0  0  0  0
    6.5168    9.0328   -9.5882 H   0  0  0  0  0  0  0  0  0  0  0  0
    6.1707    9.0955   -7.8852 H   0  0  0  0  0  0  0  0  0  0  0  0
    8.3843   10.0740   -8.2906 H   0  0  0  0  0  0  0  0  0  0  0  0
    8.5838    8.6321   -7.3332 H   0  0  0  0  0  0  0  0  0  0  0  0
    8.9224    8.7798  -10.3690 H   0  0  0  0  0  0  0  0  0  0  0  0
   10.2410    8.6552   -9.1753 H   0  0  0  0  0  0  0  0  0  0  0  0
    9.1472    7.3062   -9.4159 H   0  0  0  0  0  0  0  0  0  0  0  0
  1 21  1  0  0  0  0
  1 25  1  0  0  0  0
  2 26  1  0  0  0  0
  2 27  1  0  0  0  0
  3  2  1  0  0  0  0
  3  4  1  0  0  0  0
  3 21  1  0  0  0  0
  3 28  1  1  0  0  0
  4  5  1  0  0  0  0
  4 29  1  0  0  0  0
  4 30  1  0  0  0  0
  5  6  1  0  0  0  0
  6  7  2  0  0  0  0
  6  8  1  0  0  0  0
  8  9  1  0  0  0  0
  8 31  1  0  0  0  0
  8 32  1  0  0  0  0
  9 10  1  0  0  0  0
  9 33  1  0  0  0  0
  9 34  1  0  0  0  0
 10 11  1  0  0  0  0
 10 35  1  0  0  0  0
 10 36  1  0  0  0  0
 11 12  1  0  0  0  0
 11 37  1  0  0  0  0
 11 38  1  0  0  0  0
 12 13  1  0  0  0  0
 12 39  1  0  0  0  0
 12 40  1  0  0  0  0
 13 14  1  0  0  0  0
 13 41  1  0  0  0  0
 13 42  1  0  0  0  0
 14 15  1  0  0  0  0
 14 43  1  0  0  0  0
 14 44  1  0  0  0  0
 15 16  1  0  0  0  0
 15 45  1  0  0  0  0
 15 46  1  0  0  0  0
 16 17  1  0  0  0  0
 16 47  1  0  0  0  0
 16 48  1  0  0  0  0
 17 18  1  0  0  0  0
 17 49  1  0  0  0  0
 17 50  1  0  0  0  0
 18 19  1  0  0  0  0
 18 51  1  0  0  0  0
 18 52  1  0  0  0  0
 19 20  1  0  0  0  0
 19 53  1  0  0  0  0
 19 54  1  0  0  0  0
 20 22  1  0  0  0  0
 20 55  1  0  0  0  0
 20 56  1  0  0  0  0
 21 24  2  0  0  0  0
 22 23  1  0  0  0  0
 22 57  1  0  0  0  0
 22 58  1  0  0  0  0
 23 59  1  0  0  0  0
 23 60  1  0  0  0  0
 23 61  1  0  0  0  0
M  END
>  <DRUGBANK_ID>
DB08342

>  <COMMON_NAME>
S-palmitoyl-L-cysteine

>  <CAS_NUMBER>
114507-35-6

>  <UNII>
08WQ73S7SV

>  <SYNONYMS>
S-Palmitoyl cysteine

$$$$
