SX6
 OpenBabel10282417173D

 60 62  0  0  0  0  0  0  0  0999 V2000
    1.7058   -0.9009    0.7245 O   0  0  0  0  0  0  0  0  0  0  0  0
    2.8886   -0.5338    0.5585 C   0  0  0  0  0  0  0  0  0  0  0  0
    3.5018    0.7722    1.2083 N   0  0  0  0  0  0  0  0  0  0  0  0
    2.8362    1.8044    2.1008 C   0  0  0  0  0  0  0  0  0  0  0  0
    2.6919    3.3131    1.5825 C   0  0  0  0  0  0  0  0  0  0  0  0
    3.9365    3.8721    1.1594 O   0  0  0  0  0  0  0  0  0  0  0  0
    4.6125    2.9974    0.2845 C   0  0  0  0  0  0  0  0  0  0  0  0
    4.6515    1.4596    0.6563 C   0  0  0  0  0  0  0  0  0  0  0  0
    3.6286   -1.4191   -0.5131 C   0  0  0  0  0  0  0  0  0  0  0  0
    4.0552   -0.9899   -1.9142 C   0  0  0  0  0  0  0  0  0  0  0  0
    4.8568    0.2374   -1.9502 C   0  0  0  0  0  0  0  0  0  0  0  0
    6.0575    0.2084   -1.6833 O   0  0  0  0  0  0  0  0  0  0  0  0
    4.0883    1.4305   -2.0922 N   0  0  0  0  0  0  0  0  0  0  0  0
    2.5939    1.8480   -1.7394 C   0  0  0  0  0  0  0  0  0  0  0  0
    1.6377    1.1834   -0.9036 C   0  0  0  0  0  0  0  0  0  0  0  0
    0.2943    1.4504   -0.4928 C   0  0  0  0  0  0  0  0  0  0  0  0
   -0.1719    2.6398   -0.8568 C   0  0  0  0  0  0  0  0  0  0  0  0
   -1.9084    3.1273   -0.3162 Br  0  0  0  0  0  0  0  0  0  0  0  0
    0.7657    3.4870   -1.4725 C   0  0  0  0  0  0  0  0  0  0  0  0
    2.1334    3.1513   -1.8845 C   0  0  0  0  0  0  0  0  0  0  0  0
    3.0788    4.2283   -2.2902 C   0  0  0  0  0  0  0  0  0  0  0  0
    4.2768    3.9132   -2.6818 O   0  0  0  0  0  0  0  0  0  0  0  0
    2.7428    5.5210   -2.3389 N   0  0  0  0  0  0  0  0  0  0  0  0
    2.0693    6.3604   -1.3389 C   0  0  0  0  0  0  0  0  0  0  0  0
    0.7098    6.8296   -1.8756 C   0  0  1  0  0  0  0  0  0  0  0  0
    0.0532    7.7769   -0.8906 C   0  0  0  0  0  0  0  0  0  0  0  0
    0.8517    7.3904   -3.2977 C   0  0  0  0  0  0  0  0  0  0  0  0
    3.0068    6.1505   -3.5981 C   0  0  0  0  0  0  0  0  0  0  0  0
    1.6586    6.4538   -4.2214 C   0  0  2  0  0  0  0  0  0  0  0  0
    1.9087    7.0528   -5.5872 C   0  0  0  0  0  0  0  0  0  0  0  0
   -0.0072    6.0232   -1.9910 H   0  0  0  0  0  0  0  0  0  0  0  0
    1.1026    5.5095   -4.3442 H   0  0  0  0  0  0  0  0  0  0  0  0
    3.5970    1.9274    2.8753 H   0  0  0  0  0  0  0  0  0  0  0  0
    1.8886    1.4620    2.5007 H   0  0  0  0  0  0  0  0  0  0  0  0
    1.8978    3.5015    0.8514 H   0  0  0  0  0  0  0  0  0  0  0  0
    2.4164    3.9712    2.4120 H   0  0  0  0  0  0  0  0  0  0  0  0
    5.5628    3.4228   -0.0713 H   0  0  0  0  0  0  0  0  0  0  0  0
    4.0507    3.1433   -0.5963 H   0  0  0  0  0  0  0  0  0  0  0  0
    5.6180    1.1281    1.0055 H   0  0  0  0  0  0  0  0  0  0  0  0
    4.5498    0.9509   -0.2221 H   0  0  0  0  0  0  0  0  0  0  0  0
    4.3865   -1.9402    0.0689 H   0  0  0  0  0  0  0  0  0  0  0  0
    2.9150   -2.2262   -0.8031 H   0  0  0  0  0  0  0  0  0  0  0  0
    4.6343   -1.7895   -2.4026 H   0  0  0  0  0  0  0  0  0  0  0  0
    3.2271   -0.7608   -2.5880 H   0  0  0  0  0  0  0  0  0  0  0  0
    4.7675    2.2122   -2.1048 H   0  0  0  0  0  0  0  0  0  0  0  0
    1.9172    1.0811    0.1274 H   0  0  0  0  0  0  0  0  0  0  0  0
   -0.1522    0.8928    0.3583 H   0  0  0  0  0  0  0  0  0  0  0  0
    0.4461    4.4844   -1.4896 H   0  0  0  0  0  0  0  0  0  0  0  0
    2.7157    7.2364   -1.1846 H   0  0  0  0  0  0  0  0  0  0  0  0
    2.0091    5.8473   -0.3733 H   0  0  0  0  0  0  0  0  0  0  0  0
    0.6439    8.6870   -0.7765 H   0  0  0  0  0  0  0  0  0  0  0  0
   -0.9513    8.0380   -1.2356 H   0  0  0  0  0  0  0  0  0  0  0  0
   -0.0464    7.3002    0.0932 H   0  0  0  0  0  0  0  0  0  0  0  0
   -0.1483    7.5323   -3.7205 H   0  0  0  0  0  0  0  0  0  0  0  0
    1.3491    8.3611   -3.2416 H   0  0  0  0  0  0  0  0  0  0  0  0
    3.6419    7.0233   -3.4358 H   0  0  0  0  0  0  0  0  0  0  0  0
    3.5494    5.4571   -4.2572 H   0  0  0  0  0  0  0  0  0  0  0  0
    2.4652    6.3450   -6.2134 H   0  0  0  0  0  0  0  0  0  0  0  0
    0.9662    7.2887   -6.0816 H   0  0  0  0  0  0  0  0  0  0  0  0
    2.5101    7.9620   -5.4936 H   0  0  0  0  0  0  0  0  0  0  0  0
  1  2  2  0  0  0  0
  2  9  1  0  0  0  0
  3  2  1  0  0  0  0
  3  8  1  0  0  0  0
  4  3  1  0  0  0  0
  4 33  1  0  0  0  0
  4 34  1  0  0  0  0
  5  4  1  0  0  0  0
  5  6  1  0  0  0  0
  5 35  1  0  0  0  0
  5 36  1  0  0  0  0
  6  7  1  0  0  0  0
  7  8  1  0  0  0  0
  7 37  1  0  0  0  0
  7 38  1  0  0  0  0
  8 39  1  0  0  0  0
  8 40  1  0  0  0  0
  9 10  1  0  0  0  0
  9 41  1  0  0  0  0
  9 42  1  0  0  0  0
 10 11  1  0  0  0  0
 10 43  1  0  0  0  0
 10 44  1  0  0  0  0
 11 12  2  0  0  0  0
 13 11  1  0  0  0  0
 13 14  1  0  0  0  0
 13 45  1  0  0  0  0
 14 20  2  0  0  0  0
 14 15  1  0  0  0  0
 15 16  2  0  0  0  0
 15 46  1  0  0  0  0
 16 17  1  0  0  0  0
 16 47  1  0  0  0  0
 17 18  1  0  0  0  0
 19 17  2  0  0  0  0
 19 48  1  0  0  0  0
 20 19  1  0  0  0  0
 21 20  1  0  0  0  0
 21 23  1  0  0  0  0
 22 21  2  0  0  0  0
 23 28  1  0  0  0  0
 24 23  1  0  0  0  0
 24 25  1  0  0  0  0
 24 49  1  0  0  0  0
 24 50  1  0  0  0  0
 25 27  1  0  0  0  0
 25 31  1  6  0  0  0
 25 26  1  0  0  0  0
 26 51  1  0  0  0  0
 26 52  1  0  0  0  0
 26 53  1  0  0  0  0
 27 29  1  0  0  0  0
 27 54  1  0  0  0  0
 27 55  1  0  0  0  0
 28 29  1  0  0  0  0
 28 56  1  0  0  0  0
 28 57  1  0  0  0  0
 29 30  1  0  0  0  0
 29 32  1  6  0  0  0
 30 58  1  0  0  0  0
 30 59  1  0  0  0  0
 30 60  1  0  0  0  0
M  END
>  <DRUGBANK_ID>
DB08582

>  <COMMON_NAME>
N-(4-bromo-2-{[(3R,5S)-3,5-dimethylpiperidin-1-yl]carbonyl}phenyl)-4-morpholin-4-yl-4-oxobutanamide

$$$$
