
 OpenBabel10282417153D

 35 36  0  0  0  0  0  0  0  0999 V2000
    2.4152   -0.6868   -0.0170 C   0  0  0  0  0  0  0  0  0  0  0  0
    2.4355    0.7081   -0.0083 C   0  0  0  0  0  0  0  0  0  0  0  0
    1.2399    1.4271    0.0275 C   0  0  0  0  0  0  0  0  0  0  0  0
    1.1932   -1.3791   -0.0262 C   0  0  0  0  0  0  0  0  0  0  0  0
   -0.0108   -0.6358   -0.1283 C   0  0  0  0  0  0  0  0  0  0  0  0
    0.0054    0.7679   -0.0288 C   0  0  0  0  0  0  0  0  0  0  0  0
   -1.2141    1.4717   -0.0037 C   0  0  0  0  0  0  0  0  0  0  0  0
   -2.4387    0.8023   -0.0767 C   0  0  0  0  0  0  0  0  0  0  0  0
   -2.4625   -0.5652   -0.2892 C   0  0  0  0  0  0  0  0  0  0  0  0
   -1.2513   -1.2508   -0.3504 C   0  0  0  0  0  0  0  0  0  0  0  0
   -3.6995   -1.1304   -0.4390 O   0  0  0  0  0  0  0  0  0  0  0  0
   -3.7147   -2.5300   -0.6766 C   0  0  0  0  0  0  0  0  0  0  0  0
    1.1840   -2.8987    0.0903 C   0  0  0  0  0  0  0  0  0  0  0  0
    0.5870   -3.4660    1.4139 C   0  0  0  0  0  0  0  0  0  0  0  0
   -0.8266   -3.1954    1.7199 N   0  0  0  0  0  0  0  0  0  0  0  0
   -1.8023   -4.1786    1.7407 C   0  0  0  0  0  0  0  0  0  0  0  0
   -3.2362   -3.7295    2.0311 C   0  0  0  0  0  0  0  0  0  0  0  0
   -1.5670   -5.3412    1.4634 O   0  0  0  0  0  0  0  0  0  0  0  0
    3.3628   -1.2234   -0.0215 H   0  0  0  0  0  0  0  0  0  0  0  0
    3.3837    1.2406   -0.0138 H   0  0  0  0  0  0  0  0  0  0  0  0
    1.2762    2.5124    0.0762 H   0  0  0  0  0  0  0  0  0  0  0  0
   -1.2199    2.5564    0.0585 H   0  0  0  0  0  0  0  0  0  0  0  0
   -3.3729    1.3537   -0.0180 H   0  0  0  0  0  0  0  0  0  0  0  0
   -1.2397   -2.3123   -0.5612 H   0  0  0  0  0  0  0  0  0  0  0  0
   -3.4500   -2.8022   -1.6968 H   0  0  0  0  0  0  0  0  0  0  0  0
   -2.9759   -3.0202   -0.0673 H   0  0  0  0  0  0  0  0  0  0  0  0
   -4.6923   -2.9345   -0.3965 H   0  0  0  0  0  0  0  0  0  0  0  0
    0.6984   -3.3298   -0.7935 H   0  0  0  0  0  0  0  0  0  0  0  0
    2.2248   -3.2536    0.0359 H   0  0  0  0  0  0  0  0  0  0  0  0
    0.7322   -4.5508    1.4019 H   0  0  0  0  0  0  0  0  0  0  0  0
    1.1560   -3.0602    2.2560 H   0  0  0  0  0  0  0  0  0  0  0  0
   -1.0856   -2.2304    1.8902 H   0  0  0  0  0  0  0  0  0  0  0  0
   -3.8716   -4.2069    1.2697 H   0  0  0  0  0  0  0  0  0  0  0  0
   -3.6261   -4.0682    2.9868 H   0  0  0  0  0  0  0  0  0  0  0  0
   -3.3640   -2.6426    1.9658 H   0  0  0  0  0  0  0  0  0  0  0  0
  1  2  2  0  0  0  0
  1 19  1  0  0  0  0
  2  3  1  0  0  0  0
  2 20  1  0  0  0  0
  3  6  2  0  0  0  0
  3 21  1  0  0  0  0
  4  1  1  0  0  0  0
  4 13  1  0  0  0  0
  5  6  1  0  0  0  0
  5  4  2  0  0  0  0
  6  7  1  0  0  0  0
  7  8  2  0  0  0  0
  7 22  1  0  0  0  0
  8  9  1  0  0  0  0
  8 23  1  0  0  0  0
  9 10  2  0  0  0  0
  9 11  1  0  0  0  0
 10  5  1  0  0  0  0
 10 24  1  0  0  0  0
 11 12  1  0  0  0  0
 12 25  1  0  0  0  0
 12 26  1  0  0  0  0
 12 27  1  0  0  0  0
 13 14  1  0  0  0  0
 13 28  1  0  0  0  0
 13 29  1  0  0  0  0
 14 15  1  0  0  0  0
 14 30  1  0  0  0  0
 14 31  1  0  0  0  0
 15 16  1  0  0  0  0
 15 32  1  0  0  0  0
 16 17  1  0  0  0  0
 16 18  2  0  0  0  0
 17 33  1  0  0  0  0
 17 34  1  0  0  0  0
 17 35  1  0  0  0  0
M  END
>  <DRUGBANK_ID>
DB06594

>  <COMMON_NAME>
Agomelatine

>  <CAS_NUMBER>
138112-76-2

>  <UNII>
137R1N49AD

>  <SYNONYMS>
Agomelatina; Agomelatine

$$$$
