
 OpenBabel10282417173D

 99103  0  0  1  0  0  0  0  0999 V2000
   -6.2243    2.1703    2.2452 C   0  0  0  0  0  0  0  0  0  0  0  0
   -7.2771    1.2491    2.6030 O   0  0  0  0  0  0  0  0  0  0  0  0
   -6.9571   -0.1053    3.1766 C   0  0  0  0  0  0  0  0  0  0  0  0
   -5.9733   -1.2901    2.4873 C   0  0  0  0  0  0  0  0  0  0  0  0
   -4.7710   -1.0363    1.7972 O   0  0  0  0  0  0  0  0  0  0  0  0
   -5.1538    0.1569    1.1282 C   0  0  0  0  0  0  0  0  0  0  0  0
   -6.9603    0.6166    0.5412 C   0  0  0  0  0  0  0  0  0  0  0  0
   -8.2082    0.0086    0.7842 O   0  0  0  0  0  0  0  0  0  0  0  0
   -8.0789   -1.4225    0.9765 C   0  0  0  0  0  0  0  0  0  0  0  0
   -6.6810   -2.5618    0.4742 C   0  0  0  0  0  0  0  0  0  0  0  0
   -5.6213   -2.0271   -0.3244 O   0  0  0  0  0  0  0  0  0  0  0  0
   -6.0252   -0.7550   -1.1297 C   0  0  0  0  0  0  0  0  0  0  0  0
   -7.1425   -0.1329   -2.8515 C   0  0  0  0  0  0  0  0  0  0  0  0
   -8.9211   -1.1452   -2.8767 O   0  0  0  0  0  0  0  0  0  0  0  0
   -8.4364   -2.1034   -1.1249 C   0  0  0  0  0  0  0  0  0  0  0  0
   -6.8371   -3.2104   -1.8157 C   0  0  0  0  0  0  0  0  0  0  0  0
   -6.3597   -2.7958   -3.6690 O   0  0  0  0  0  0  0  0  0  0  0  0
   -6.4225   -1.8487   -4.6656 C   0  0  0  0  0  0  0  0  0  0  0  0
   -7.5186   -1.5991   -5.5374 C   0  0  0  0  0  0  0  0  0  0  0  0
   -8.7806   -2.0649   -5.1737 O   0  0  0  0  0  0  0  0  0  0  0  0
   -8.6812   -3.4182   -4.8032 C   0  0  0  0  0  0  0  0  0  0  0  0
   -7.7539   -4.5593   -5.2007 C   0  0  0  0  0  0  0  0  0  0  0  0
   -6.3400   -4.3264   -5.4635 O   0  0  0  0  0  0  0  0  0  0  0  0
   -5.2408   -4.2759   -4.3608 C   0  0  1  0  0  0  0  0  0  0  0  0
   -4.3186   -3.0600   -4.8751 C   0  0  0  0  0  0  0  0  0  0  0  0
   -3.8548   -1.5858   -3.9732 C   0  0  0  0  0  0  0  0  0  0  0  0
   -4.9947   -0.5024   -2.9481 C   0  0  1  0  0  0  0  0  0  0  0  0
   -5.8562    1.1845   -2.0391 C   0  0  1  0  0  0  0  0  0  0  0  0
   -7.7963    1.4723   -1.9988 C   0  0  0  0  0  0  0  0  0  0  0  0
   -8.3957   -0.1642   -1.5503 C   0  0  0  0  0  0  0  0  0  0  0  0
   -9.9054   -0.2932   -1.0851 C   0  0  0  0  0  0  0  0  0  0  0  0
  -10.6578   -1.7918   -1.0194 C   0  0  0  0  0  0  0  0  0  0  0  0
  -10.1291   -3.3218   -1.6871 C   0  0  0  0  0  0  0  0  0  0  0  0
   -8.6064   -3.3525   -2.4861 C   0  0  0  0  0  0  0  0  0  0  0  0
   -7.4163   -1.7693   -2.4290 C   0  0  0  0  0  0  0  0  0  0  0  0
   -5.3260   -1.9061   -2.3908 C   0  0  1  0  0  0  0  0  0  0  0  0
   -5.4815   -4.0090   -2.7847 C   0  0  1  0  0  0  0  0  0  0  0  0
   -7.3558   -4.8025   -2.6132 O   0  0  0  0  0  0  0  0  0  0  0  0
   -3.8549   -0.3425   -2.0854 C   0  0  0  0  0  0  0  0  0  0  0  0
   -3.9399    1.6450   -1.7427 C   0  0  0  0  0  0  0  0  0  0  0  0
   -5.1172    2.3120   -2.3282 N   0  0  0  0  0  0  0  0  0  0  0  0
   -5.2383    2.6358   -3.7454 C   0  0  0  0  0  0  0  0  0  0  0  0
   -4.3051    1.7887   -4.8328 C   0  0  0  0  0  0  0  0  0  0  0  0
   -4.9803    1.0133   -5.7956 C   0  0  0  0  0  0  0  0  0  0  0  0
  -10.3789   -4.4420   -0.8594 O   0  0  0  0  0  0  0  0  0  0  0  0
   -5.3701    0.1164   -3.9965 O   0  0  0  0  0  0  0  0  0  0  0  0
   -6.3624    3.0438    1.6041 H   0  0  0  0  0  0  0  0  0  0  0  0
   -5.8181    1.9322    1.2616 H   0  0  0  0  0  0  0  0  0  0  0  0
   -5.3661    1.9808    2.8863 H   0  0  0  0  0  0  0  0  0  0  0  0
   -6.4255    0.0325    4.0677 H   0  0  0  0  0  0  0  0  0  0  0  0
   -7.9784   -0.5485    3.3607 H   0  0  0  0  0  0  0  0  0  0  0  0
   -6.2882   -2.3458    2.6038 H   0  0  0  0  0  0  0  0  0  0  0  0
   -6.3348   -1.1994    1.5341 H   0  0  0  0  0  0  0  0  0  0  0  0
   -5.1653    0.5895    2.0424 H   0  0  0  0  0  0  0  0  0  0  0  0
   -4.3177    0.6658    0.6310 H   0  0  0  0  0  0  0  0  0  0  0  0
   -6.9985    1.5651   -0.0414 H   0  0  0  0  0  0  0  0  0  0  0  0
   -7.1306    0.0361   -0.2396 H   0  0  0  0  0  0  0  0  0  0  0  0
   -7.8868   -1.1501    1.8920 H   0  0  0  0  0  0  0  0  0  0  0  0
   -8.9671   -1.9467    1.2214 H   0  0  0  0  0  0  0  0  0  0  0  0
   -6.6136   -3.6347    0.6621 H   0  0  0  0  0  0  0  0  0  0  0  0
   -7.2603   -3.0649   -0.1748 H   0  0  0  0  0  0  0  0  0  0  0  0
   -5.6854    0.0008   -0.5429 H   0  0  0  0  0  0  0  0  0  0  0  0
   -5.0125   -0.4406   -0.9501 H   0  0  0  0  0  0  0  0  0  0  0  0
   -6.9838    0.7424   -3.3887 H   0  0  0  0  0  0  0  0  0  0  0  0
   -7.2940   -0.2259   -3.8742 H   0  0  0  0  0  0  0  0  0  0  0  0
   -7.6677   -1.5045   -0.7254 H   0  0  0  0  0  0  0  0  0  0  0  0
   -8.9490   -2.7027   -0.3986 H   0  0  0  0  0  0  0  0  0  0  0  0
   -6.6777   -4.2063   -1.2301 H   0  0  0  0  0  0  0  0  0  0  0  0
   -7.1354   -3.4078   -2.9864 H   0  0  0  0  0  0  0  0  0  0  0  0
   -6.3666   -1.3275   -3.8783 H   0  0  0  0  0  0  0  0  0  0  0  0
   -5.5617   -1.3740   -5.0569 H   0  0  0  0  0  0  0  0  0  0  0  0
   -7.4922   -0.5317   -5.6615 H   0  0  0  0  0  0  0  0  0  0  0  0
   -7.0328   -2.2558   -6.2236 H   0  0  0  0  0  0  0  0  0  0  0  0
   -7.8565   -3.1685   -4.3218 H   0  0  0  0  0  0  0  0  0  0  0  0
   -9.4868   -3.7430   -4.1489 H   0  0  0  0  0  0  0  0  0  0  0  0
   -7.7487   -5.4258   -4.5464 H   0  0  0  0  0  0  0  0  0  0  0  0
   -8.3395   -4.6944   -6.0791 H   0  0  0  0  0  0  0  0  0  0  0  0
   -4.8955   -5.2772   -4.2571 H   0  0  0  0  0  0  0  0  0  0  0  0
   -4.8004   -2.6949   -5.8221 H   0  0  0  0  0  0  0  0  0  0  0  0
   -3.4031   -3.5400   -5.1312 H   0  0  0  0  0  0  0  0  0  0  0  0
   -3.0976   -1.9764   -3.2976 H   0  0  0  0  0  0  0  0  0  0  0  0
   -3.4972   -0.9454   -4.7659 H   0  0  0  0  0  0  0  0  0  0  0  0
   -5.6535    1.4095   -1.0042 H   0  0  0  0  0  0  0  0  0  0  0  0
   -8.2171    1.6195   -3.0814 H   0  0  0  0  0  0  0  0  0  0  0  0
   -8.2919    2.1574   -1.3529 H   0  0  0  0  0  0  0  0  0  0  0  0
  -10.1613    0.5925   -0.5146 H   0  0  0  0  0  0  0  0  0  0  0  0
  -11.1929   -1.8212   -0.0411 H   0  0  0  0  0  0  0  0  0  0  0  0
   -4.9770   -4.2545   -1.8564 H   0  0  0  0  0  0  0  0  0  0  0  0
   -2.7786    0.0446   -2.2746 H   0  0  0  0  0  0  0  0  0  0  0  0
   -3.3594   -0.7258   -1.2226 H   0  0  0  0  0  0  0  0  0  0  0  0
   -3.2835    2.5609   -1.8779 H   0  0  0  0  0  0  0  0  0  0  0  0
   -3.9394    1.8305   -0.6251 H   0  0  0  0  0  0  0  0  0  0  0  0
   -6.3329    2.5000   -3.9355 H   0  0  0  0  0  0  0  0  0  0  0  0
   -4.8891    3.6292   -3.7571 H   0  0  0  0  0  0  0  0  0  0  0  0
   -3.4797    1.2412   -4.2430 H   0  0  0  0  0  0  0  0  0  0  0  0
   -4.6933   -0.0621   -5.9806 H   0  0  0  0  0  0  0  0  0  0  0  0
   -6.1005    0.9010   -5.6213 H   0  0  0  0  0  0  0  0  0  0  0  0
   -9.8038   -5.1106   -1.2762 H   0  0  0  0  0  0  0  0  0  0  0  0
   -5.0887    0.8890   -3.5366 H   0  0  0  0  0  0  0  0  0  0  0  0
  1  2  1  0  0  0  0
  1 47  1  0  0  0  0
  1 48  1  0  0  0  0
  1 49  1  0  0  0  0
  2  3  1  0  0  0  0
  3  4  1  0  0  0  0
  3 50  1  0  0  0  0
  3 51  1  0  0  0  0
  4  5  1  0  0  0  0
  4 52  1  0  0  0  0
  4 53  1  0  0  0  0
  5  6  1  0  0  0  0
  6  7  1  0  0  0  0
  6 54  1  0  0  0  0
  6 55  1  0  0  0  0
  7  8  1  0  0  0  0
  7 56  1  0  0  0  0
  7 57  1  0  0  0  0
  8  9  1  0  0  0  0
  9 10  1  0  0  0  0
  9 58  1  0  0  0  0
  9 59  1  0  0  0  0
 10 11  1  0  0  0  0
 10 60  1  0  0  0  0
 10 61  1  0  0  0  0
 11 12  1  0  0  0  0
 12 13  1  0  0  0  0
 12 62  1  0  0  0  0
 12 63  1  0  0  0  0
 13 14  1  0  0  0  0
 13 64  1  0  0  0  0
 13 65  1  0  0  0  0
 14 15  1  0  0  0  0
 15 16  1  0  0  0  0
 15 66  1  0  0  0  0
 15 67  1  0  0  0  0
 16 17  1  0  0  0  0
 16 68  1  0  0  0  0
 16 69  1  0  0  0  0
 17 18  1  0  0  0  0
 18 19  1  0  0  0  0
 18 70  1  0  0  0  0
 18 71  1  0  0  0  0
 19 20  1  0  0  0  0
 19 72  1  0  0  0  0
 19 73  1  0  0  0  0
 20 21  1  0  0  0  0
 21 22  1  0  0  0  0
 21 74  1  0  0  0  0
 21 75  1  0  0  0  0
 22 23  1  0  0  0  0
 22 76  1  0  0  0  0
 22 77  1  0  0  0  0
 24 25  1  0  0  0  0
 24 37  1  0  0  0  0
 24 78  1  6  0  0  0
 24 23  1  0  0  0  0
 25 26  1  0  0  0  0
 25 79  1  0  0  0  0
 25 80  1  0  0  0  0
 26 27  1  0  0  0  0
 26 81  1  0  0  0  0
 26 82  1  0  0  0  0
 27 28  1  0  0  0  0
 27 36  1  0  0  0  0
 27 46  1  1  0  0  0
 28 29  1  0  0  0  0
 28 41  1  0  0  0  0
 28 83  1  6  0  0  0
 29 30  1  0  0  0  0
 29 84  1  0  0  0  0
 29 85  1  0  0  0  0
 30 31  2  0  0  0  0
 30 35  1  0  0  0  0
 31 32  1  0  0  0  0
 31 86  1  0  0  0  0
 32 33  2  0  0  0  0
 32 87  1  0  0  0  0
 33 34  1  0  0  0  0
 33 45  1  0  0  0  0
 34 35  2  0  0  0  0
 34 38  1  0  0  0  0
 36 35  1  1  0  0  0
 36 37  1  0  0  0  0
 36 39  1  0  0  0  0
 37 38  1  0  0  0  0
 37 88  1  1  0  0  0
 39 40  1  0  0  0  0
 39 89  1  0  0  0  0
 39 90  1  0  0  0  0
 40 41  1  0  0  0  0
 40 91  1  0  0  0  0
 40 92  1  0  0  0  0
 41 42  1  0  0  0  0
 42 43  1  0  0  0  0
 42 93  1  0  0  0  0
 42 94  1  0  0  0  0
 43 44  2  0  0  0  0
 43 95  1  0  0  0  0
 44 96  1  0  0  0  0
 44 97  1  0  0  0  0
 45 98  1  0  0  0  0
 46 99  1  0  0  0  0
M  END
>  <DRUGBANK_ID>
DB09049

>  <COMMON_NAME>
Naloxegol

>  <CAS_NUMBER>
854601-70-0

>  <UNII>
44T7335BKE

>  <SYNONYMS>
(5α,6α)-17-Allyl-6-[(20-hydroxy-3,6,9,12,15,18-hexaoxaicos-1-yl)oxy]-4,5-epoxymorphinan-3,14-diol; Naloxegol

$$$$
