
 OpenBabel10282417163D

 49 52  0  0  0  0  0  0  0  0999 V2000
   -2.0293   -0.0153   -0.0124 C   0  0  0  0  0  0  0  0  0  0  0  0
   -0.6179    0.0013   -0.0566 C   0  0  0  0  0  0  0  0  0  0  0  0
    0.0877   -1.2124   -0.0637 C   0  0  0  0  0  0  0  0  0  0  0  0
    1.4582   -1.1829   -0.0785 C   0  0  0  0  0  0  0  0  0  0  0  0
    2.0713    0.0704   -0.1373 C   0  0  0  0  0  0  0  0  0  0  0  0
    1.3883    1.2718   -0.0435 C   0  0  0  0  0  0  0  0  0  0  0  0
    0.0290    1.2413   -0.0445 C   0  0  0  0  0  0  0  0  0  0  0  0
   -3.1965   -0.0131    0.0448 N   0  0  0  0  0  0  0  0  0  0  0  0
    3.5214    0.1709   -0.1345 C   0  0  0  0  0  0  0  0  0  0  0  0
    4.1698    1.9481   -1.7024 C   0  0  0  0  0  0  0  0  0  0  0  0
    5.0604    2.1928   -2.6291 N   0  0  0  0  0  0  0  0  0  0  0  0
    5.6856    0.9927   -2.8409 C   0  0  0  0  0  0  0  0  0  0  0  0
    5.2463    0.0258   -1.9482 C   0  0  0  0  0  0  0  0  0  0  0  0
    4.1761    0.6351   -1.3249 N   0  0  0  0  0  0  0  0  0  0  0  0
    5.8616   -1.2999   -1.6007 C   0  0  0  0  0  0  0  0  0  0  0  0
    6.5569   -1.4462   -0.2952 N   0  0  0  0  0  0  0  0  0  0  0  0
    5.7538   -1.4753    0.9319 C   0  0  0  0  0  0  0  0  0  0  0  0
    5.5513   -0.0652    1.6086 C   0  0  0  0  0  0  0  0  0  0  0  0
    6.1806    1.0750    1.0341 N   0  0  0  0  0  0  0  0  0  0  0  0
    7.2357    0.9214    0.0367 C   0  0  0  0  0  0  0  0  0  0  0  0
    7.6787   -0.5356   -0.0700 C   0  0  0  0  0  0  0  0  0  0  0  0
    4.7308    0.0161    2.5324 O   0  0  0  0  0  0  0  0  0  0  0  0
    5.9161    2.4002    1.5214 C   0  0  0  0  0  0  0  0  0  0  0  0
    5.9639    2.5928    2.8959 C   0  0  0  0  0  0  0  0  0  0  0  0
    5.7352    3.8472    3.4514 C   0  0  0  0  0  0  0  0  0  0  0  0
    5.4159    4.9389    2.6499 C   0  0  0  0  0  0  0  0  0  0  0  0
    5.3413    4.7710    1.2713 C   0  0  0  0  0  0  0  0  0  0  0  0
    5.6363    3.5175    0.7074 C   0  0  0  0  0  0  0  0  0  0  0  0
    5.8650    4.0313    5.1542 Cl  0  0  0  0  0  0  0  0  0  0  0  0
   -0.4183   -2.1724   -0.0583 H   0  0  0  0  0  0  0  0  0  0  0  0
    2.0395   -2.1061   -0.0190 H   0  0  0  0  0  0  0  0  0  0  0  0
    1.9307    2.2085    0.0569 H   0  0  0  0  0  0  0  0  0  0  0  0
   -0.4934    2.1896   -0.0283 H   0  0  0  0  0  0  0  0  0  0  0  0
    3.7433    0.8629    0.6725 H   0  0  0  0  0  0  0  0  0  0  0  0
    3.8273   -0.8359    0.0152 H   0  0  0  0  0  0  0  0  0  0  0  0
    3.5789    2.6944   -1.1866 H   0  0  0  0  0  0  0  0  0  0  0  0
    6.5483    0.9323   -3.4896 H   0  0  0  0  0  0  0  0  0  0  0  0
    5.1125   -2.0894   -1.7415 H   0  0  0  0  0  0  0  0  0  0  0  0
    6.6224   -1.5031   -2.3702 H   0  0  0  0  0  0  0  0  0  0  0  0
    6.1956   -2.0884    1.7206 H   0  0  0  0  0  0  0  0  0  0  0  0
    4.8335   -2.0429    0.7337 H   0  0  0  0  0  0  0  0  0  0  0  0
    8.0792    1.5680    0.2839 H   0  0  0  0  0  0  0  0  0  0  0  0
    6.9103    1.3057   -0.9162 H   0  0  0  0  0  0  0  0  0  0  0  0
    8.1409   -0.8075    0.8911 H   0  0  0  0  0  0  0  0  0  0  0  0
    8.4415   -0.6792   -0.8347 H   0  0  0  0  0  0  0  0  0  0  0  0
    6.2275    1.7572    3.5350 H   0  0  0  0  0  0  0  0  0  0  0  0
    5.2390    5.9148    3.0937 H   0  0  0  0  0  0  0  0  0  0  0  0
    5.0641    5.6146    0.6382 H   0  0  0  0  0  0  0  0  0  0  0  0
    5.5896    3.4601   -0.3748 H   0  0  0  0  0  0  0  0  0  0  0  0
  1  2  1  0  0  0  0
  1  8  3  0  0  0  0
  2  3  1  0  0  0  0
  2  7  2  0  0  0  0
  3  4  2  0  0  0  0
  3 30  1  0  0  0  0
  4  5  1  0  0  0  0
  4 31  1  0  0  0  0
  5  6  2  0  0  0  0
  5  9  1  0  0  0  0
  6  7  1  0  0  0  0
  6 32  1  0  0  0  0
  7 33  1  0  0  0  0
  9 14  1  0  0  0  0
  9 34  1  0  0  0  0
  9 35  1  0  0  0  0
 10 11  2  0  0  0  0
 10 14  1  0  0  0  0
 10 36  1  0  0  0  0
 11 12  1  0  0  0  0
 12 13  2  0  0  0  0
 12 37  1  0  0  0  0
 13 14  1  0  0  0  0
 13 15  1  0  0  0  0
 15 16  1  0  0  0  0
 15 38  1  0  0  0  0
 15 39  1  0  0  0  0
 16 17  1  0  0  0  0
 16 21  1  0  0  0  0
 17 18  1  0  0  0  0
 17 40  1  0  0  0  0
 17 41  1  0  0  0  0
 18 19  1  0  0  0  0
 18 22  2  0  0  0  0
 19 20  1  0  0  0  0
 19 23  1  0  0  0  0
 20 21  1  0  0  0  0
 20 42  1  0  0  0  0
 20 43  1  0  0  0  0
 21 44  1  0  0  0  0
 21 45  1  0  0  0  0
 23 24  1  0  0  0  0
 23 28  2  0  0  0  0
 24 25  2  0  0  0  0
 24 46  1  0  0  0  0
 25 26  1  0  0  0  0
 25 29  1  0  0  0  0
 26 27  2  0  0  0  0
 26 47  1  0  0  0  0
 27 28  1  0  0  0  0
 27 48  1  0  0  0  0
 28 49  1  0  0  0  0
M  END
>  <DRUGBANK_ID>
DB07227

>  <COMMON_NAME>
L-778123

>  <CAS_NUMBER>
183499-57-2

>  <UNII>
31ZXM8ZKQ3

$$$$
