
 OpenBabel10282417183D

 14 14  0  0  0  0  0  0  0  0999 V2000
   -0.0119    1.8059    0.0018 C   0  0  0  0  0  0  0  0  0  0  0  0
    1.2041    1.1173   -0.0115 C   0  0  0  0  0  0  0  0  0  0  0  0
    1.2019   -0.2753   -0.0104 C   0  0  0  0  0  0  0  0  0  0  0  0
    0.0068   -0.9856   -0.0072 C   0  0  0  0  0  0  0  0  0  0  0  0
   -1.2184    1.1011    0.0137 C   0  0  0  0  0  0  0  0  0  0  0  0
    2.3643   -0.9894   -0.0108 O   0  0  0  0  0  0  0  0  0  0  0  0
   -1.1975   -0.2911    0.0043 C   0  0  0  0  0  0  0  0  0  0  0  0
   -2.3514   -1.0188    0.0063 O   0  0  0  0  0  0  0  0  0  0  0  0
   -0.0197    2.8928    0.0035 H   0  0  0  0  0  0  0  0  0  0  0  0
    2.1330    1.6790   -0.0226 H   0  0  0  0  0  0  0  0  0  0  0  0
    0.0142   -2.0705   -0.0123 H   0  0  0  0  0  0  0  0  0  0  0  0
   -2.1549    1.6499    0.0296 H   0  0  0  0  0  0  0  0  0  0  0  0
    3.1124   -0.3712    0.0118 H   0  0  0  0  0  0  0  0  0  0  0  0
   -3.1060   -0.4081    0.0069 H   0  0  0  0  0  0  0  0  0  0  0  0
  1  9  1  0  0  0  0
  2  1  2  0  0  0  0
  2  3  1  0  0  0  0
  2 10  1  0  0  0  0
  3  4  2  0  0  0  0
  4  7  1  0  0  0  0
  4 11  1  0  0  0  0
  5  1  1  0  0  0  0
  5 12  1  0  0  0  0
  6  3  1  0  0  0  0
  6 13  1  0  0  0  0
  7  5  2  0  0  0  0
  7  8  1  0  0  0  0
  8 14  1  0  0  0  0
M  END
>  <DRUGBANK_ID>
DB11085

>  <COMMON_NAME>
Resorcinol

>  <CAS_NUMBER>
108-46-3

>  <UNII>
YUL4LO94HK

>  <SYNONYMS>
1,3-Benzenediol; 1,3-Dihydroxybenzene; 1,3-Dihydroxybenzol; m-Hydroquinone; m-hydroxyphenol; Resorcinol; Resorzin

$$$$
