
 OpenBabel10282417233D

  1  0  0  0  0  0  0  0  0  0999 V2000
    0.9238   -0.0344   -0.0548 Xe  0  0  0  0  0  0  0  0  0  0  0  0
M  ISO  1   1 129
M  END
>  <DRUGBANK_ID>
DB17386

>  <COMMON_NAME>
Xenon Xe-129

>  <CAS_NUMBER>
13965-99-6

>  <UNII>
9C7571UDT5

>  <SYNONYMS>
Xenon xe-129m; Xenon-129m; Xenon, isotope of mass 129; Xenon, isotope of mass 129m(8.88 d); Xenon, xe-129m

$$$$
