
 OpenBabel10282417233D

 63 64  0  0  0  0  0  0  0  0999 V2000
    1.0672   -0.1252    0.2691 O   0  0  0  0  0  0  0  0  0  0  0  0
    3.0370    0.6776    0.9023 O   0  0  0  0  0  0  0  0  0  0  0  0
    3.0724   -0.7042   -2.0731 C   0  0  0  0  0  0  0  0  0  0  0  0
    3.2256   -1.1373   -0.6364 C   0  0  1  0  0  0  0  0  0  0  0  0
    2.4364   -0.1625    0.2738 C   0  0  0  0  0  0  0  0  0  0  0  0
    2.6923    1.7317   -2.1116 C   0  0  0  0  0  0  0  0  0  0  0  0
    2.8895    2.9482   -2.7087 C   0  0  0  0  0  0  0  0  0  0  0  0
    3.6468    3.0323   -3.8729 C   0  0  0  0  0  0  0  0  0  0  0  0
    4.1985    1.9160   -4.4837 C   0  0  0  0  0  0  0  0  0  0  0  0
    4.0236    0.6986   -3.8745 C   0  0  0  0  0  0  0  0  0  0  0  0
    3.2953    0.6234   -2.6579 C   0  0  0  0  0  0  0  0  0  0  0  0
    3.8352    4.2307   -4.4267 F   0  0  0  0  0  0  0  0  0  0  0  0
    2.8466   -2.5409   -0.3445 N   0  0  0  0  0  0  0  0  0  0  0  0
    1.9016   -4.5330   -0.3903 O   0  0  0  0  0  0  0  0  0  0  0  0
    3.2651   -3.2302   -3.3876 C   0  0  0  0  0  0  0  0  0  0  0  0
    2.0143   -3.5475   -2.5873 C   0  0  1  0  0  0  0  0  0  0  0  0
    2.2573   -3.5534   -1.0481 C   0  0  0  0  0  0  0  0  0  0  0  0
    3.7975   -5.5810   -3.3516 C   0  0  0  0  0  0  0  0  0  0  0  0
    4.6914   -6.5680   -3.1757 C   0  0  0  0  0  0  0  0  0  0  0  0
    6.0117   -6.2700   -2.8586 C   0  0  0  0  0  0  0  0  0  0  0  0
    6.4050   -4.9289   -2.7514 C   0  0  0  0  0  0  0  0  0  0  0  0
    5.5770   -3.9288   -3.1196 C   0  0  0  0  0  0  0  0  0  0  0  0
    4.2559   -4.2914   -3.3570 C   0  0  0  0  0  0  0  0  0  0  0  0
    6.9357   -7.2710   -2.6884 N   0  0  0  0  0  0  0  0  0  0  0  0
    8.7461   -9.9507   -3.3961 Cl  0  0  0  0  0  0  0  0  0  0  0  0
    7.0149   -9.5824   -3.5659 C   0  0  0  0  0  0  0  0  0  0  0  0
    6.4868   -8.6501   -2.4866 C   0  0  0  0  0  0  0  0  0  0  0  0
    9.0629   -6.4574   -3.7812 C   0  0  0  0  0  0  0  0  0  0  0  0
    8.3251   -6.8645   -2.4739 C   0  0  0  0  0  0  0  0  0  0  0  0
    8.6998   -4.9298   -4.6504 Cl  0  0  0  0  0  0  0  0  0  0  0  0
    0.7952   -2.9018   -3.0447 N   0  0  0  0  0  0  0  0  0  0  0  0
   -0.0910   -0.3425   -1.9136 C   0  0  0  0  0  0  0  0  0  0  0  0
    0.0907   -0.8732   -0.4961 C   0  0  0  0  0  0  0  0  0  0  0  0
    3.6259   -1.1628   -2.8406 H   0  0  0  0  0  0  0  0  0  0  0  0
    2.1625   -1.1691   -2.3346 H   0  0  0  0  0  0  0  0  0  0  0  0
    4.2830   -1.0680   -0.3451 H   0  0  0  0  0  0  0  0  0  0  0  0
    2.0438    1.6648   -1.2496 H   0  0  0  0  0  0  0  0  0  0  0  0
    2.4371    3.8164   -2.2532 H   0  0  0  0  0  0  0  0  0  0  0  0
    4.7492    1.9876   -5.4133 H   0  0  0  0  0  0  0  0  0  0  0  0
    4.4284   -0.1941   -4.3656 H   0  0  0  0  0  0  0  0  0  0  0  0
    2.9480   -2.8071    0.6338 H   0  0  0  0  0  0  0  0  0  0  0  0
    3.1260   -2.8155   -4.3898 H   0  0  0  0  0  0  0  0  0  0  0  0
    3.9075   -2.6272   -2.7859 H   0  0  0  0  0  0  0  0  0  0  0  0
    1.6899   -4.5552   -2.7923 H   0  0  0  0  0  0  0  0  0  0  0  0
    2.7574   -5.8577   -3.4291 H   0  0  0  0  0  0  0  0  0  0  0  0
    4.2556   -7.5458   -3.2904 H   0  0  0  0  0  0  0  0  0  0  0  0
    7.3920   -4.6072   -2.4460 H   0  0  0  0  0  0  0  0  0  0  0  0
    5.9440   -2.9014   -3.0917 H   0  0  0  0  0  0  0  0  0  0  0  0
    6.4911  -10.5375   -3.5026 H   0  0  0  0  0  0  0  0  0  0  0  0
    6.8442   -9.1537   -4.5603 H   0  0  0  0  0  0  0  0  0  0  0  0
    6.6929   -8.9700   -1.4626 H   0  0  0  0  0  0  0  0  0  0  0  0
    5.3990   -8.7602   -2.5510 H   0  0  0  0  0  0  0  0  0  0  0  0
   10.1183   -6.3574   -3.5393 H   0  0  0  0  0  0  0  0  0  0  0  0
    8.9130   -7.2241   -4.5382 H   0  0  0  0  0  0  0  0  0  0  0  0
    8.4072   -6.1158   -1.6740 H   0  0  0  0  0  0  0  0  0  0  0  0
    8.8571   -7.7103   -2.0409 H   0  0  0  0  0  0  0  0  0  0  0  0
    0.9396   -2.0493   -3.5725 H   0  0  0  0  0  0  0  0  0  0  0  0
    0.1475   -2.8069   -2.2741 H   0  0  0  0  0  0  0  0  0  0  0  0
    0.8529   -0.2804   -2.3809 H   0  0  0  0  0  0  0  0  0  0  0  0
   -0.7006   -0.9879   -2.5495 H   0  0  0  0  0  0  0  0  0  0  0  0
   -0.3508    0.7014   -2.0689 H   0  0  0  0  0  0  0  0  0  0  0  0
    0.3532   -1.9293   -0.4306 H   0  0  0  0  0  0  0  0  0  0  0  0
   -0.8788   -0.7861    0.0050 H   0  0  0  0  0  0  0  0  0  0  0  0
  3 34  1  0  0  0  0
  3 35  1  0  0  0  0
  4  3  1  0  0  0  0
  4  5  1  0  0  0  0
  4 36  1  1  0  0  0
  5  1  1  0  0  0  0
  5  2  2  0  0  0  0
  6 37  1  0  0  0  0
  7  6  2  0  0  0  0
  7 38  1  0  0  0  0
  8  7  1  0  0  0  0
  9  8  2  0  0  0  0
  9 39  1  0  0  0  0
 10  9  1  0  0  0  0
 10 40  1  0  0  0  0
 11  3  1  0  0  0  0
 11  6  1  0  0  0  0
 11 10  2  0  0  0  0
 12  8  1  0  0  0  0
 13  4  1  0  0  0  0
 13 41  1  0  0  0  0
 15 42  1  0  0  0  0
 15 43  1  0  0  0  0
 16 31  1  0  0  0  0
 16 15  1  0  0  0  0
 16 44  1  6  0  0  0
 17 13  1  0  0  0  0
 17 14  2  0  0  0  0
 17 16  1  0  0  0  0
 18 45  1  0  0  0  0
 19 18  2  0  0  0  0
 19 46  1  0  0  0  0
 20 19  1  0  0  0  0
 21 20  2  0  0  0  0
 21 47  1  0  0  0  0
 22 21  1  0  0  0  0
 22 48  1  0  0  0  0
 23 15  1  0  0  0  0
 23 18  1  0  0  0  0
 23 22  2  0  0  0  0
 24 20  1  0  0  0  0
 26 25  1  0  0  0  0
 26 49  1  0  0  0  0
 26 50  1  0  0  0  0
 27 24  1  0  0  0  0
 27 26  1  0  0  0  0
 27 51  1  0  0  0  0
 27 52  1  0  0  0  0
 28 53  1  0  0  0  0
 28 54  1  0  0  0  0
 29 24  1  0  0  0  0
 29 28  1  0  0  0  0
 29 55  1  0  0  0  0
 29 56  1  0  0  0  0
 30 28  1  0  0  0  0
 31 57  1  0  0  0  0
 31 58  1  0  0  0  0
 32 59  1  0  0  0  0
 32 60  1  0  0  0  0
 32 61  1  0  0  0  0
 33  1  1  0  0  0  0
 33 32  1  0  0  0  0
 33 62  1  0  0  0  0
 33 63  1  0  0  0  0
M  END
>  <DRUGBANK_ID>
DB16627

>  <COMMON_NAME>
Melphalan flufenamide

>  <CAS_NUMBER>
380449-51-4

>  <UNII>
F70C5K4786

>  <SYNONYMS>
Melflufen; Melphalan flufenamide; MFF

$$$$
