
 OpenBabel10282417123D

 29 29  0  0  1  0  0  0  0  0999 V2000
    1.7610    0.7136    0.2521 O   0  0  0  0  0  0  0  0  0  0  0  0
    0.9435    1.5603    1.1791 C   0  0  2  0  0  0  0  0  0  0  0  0
   -0.4990    1.9114    0.7638 O   0  0  0  0  0  0  0  0  0  0  0  0
   -0.7640    2.1193   -0.6695 C   0  0  2  0  0  0  0  0  0  0  0  0
   -0.4241    1.0344   -1.8567 C   0  0  0  0  0  0  0  0  0  0  0  0
   -1.0302   -0.2869   -1.8347 O   0  0  0  0  0  0  0  0  0  0  0  0
   -0.9666   -1.0659   -0.2914 P   0  0  0  0  0  0  0  0  0  0  0  0
    0.2462   -1.9608   -0.9055 O   0  0  0  0  0  0  0  0  0  0  0  0
   -0.1814   -0.0337    0.3976 O   0  0  0  0  0  0  0  0  0  0  0  0
   -0.9098   -1.7631    1.0900 O   0  0  0  0  0  0  0  0  0  0  0  0
   -0.0502    3.4502   -0.8290 C   0  0  2  0  0  0  0  0  0  0  0  0
   -0.1540    3.9174   -2.1623 O   0  0  0  0  0  0  0  0  0  0  0  0
    1.4338    3.3278   -0.3575 C   0  0  2  0  0  0  0  0  0  0  0  0
    2.1187    2.4867   -1.3201 O   0  0  0  0  0  0  0  0  0  0  0  0
    1.6061    2.8594    1.1274 C   0  0  1  0  0  0  0  0  0  0  0  0
    0.9118    3.6675    2.0712 O   0  0  0  0  0  0  0  0  0  0  0  0
    2.3274    0.1108    0.7722 H   0  0  0  0  0  0  0  0  0  0  0  0
    0.8496    1.0321    2.1504 H   0  0  0  0  0  0  0  0  0  0  0  0
   -1.8572    2.2465   -0.7607 H   0  0  0  0  0  0  0  0  0  0  0  0
   -0.6931    1.4609   -2.8308 H   0  0  0  0  0  0  0  0  0  0  0  0
    0.6332    0.8072   -1.9436 H   0  0  0  0  0  0  0  0  0  0  0  0
   -0.1364   -2.8300   -1.1297 H   0  0  0  0  0  0  0  0  0  0  0  0
    0.6570   -0.0057   -0.1111 H   0  0  0  0  0  0  0  0  0  0  0  0
   -0.5602    4.1644   -0.1686 H   0  0  0  0  0  0  0  0  0  0  0  0
    0.4913    3.3966   -2.6755 H   0  0  0  0  0  0  0  0  0  0  0  0
    1.9121    4.2928   -0.4373 H   0  0  0  0  0  0  0  0  0  0  0  0
    2.0793    1.5596   -0.9846 H   0  0  0  0  0  0  0  0  0  0  0  0
    2.6504    2.6796    1.4109 H   0  0  0  0  0  0  0  0  0  0  0  0
   -0.0287    3.3704    2.0164 H   0  0  0  0  0  0  0  0  0  0  0  0
  1 17  1  0  0  0  0
  2  1  1  0  0  0  0
  2  3  1  0  0  0  0
  2 15  1  0  0  0  0
  2 18  1  1  0  0  0
  3  4  1  0  0  0  0
  4  5  1  0  0  0  0
  4 11  1  0  0  0  0
  4 19  1  6  0  0  0
  5  6  1  0  0  0  0
  5 20  1  0  0  0  0
  5 21  1  0  0  0  0
  6  7  1  0  0  0  0
  7  8  1  0  0  0  0
  7  9  1  0  0  0  0
  7 10  2  0  0  0  0
  8 22  1  0  0  0  0
  9 23  1  0  0  0  0
 11 12  1  0  0  0  0
 11 13  1  0  0  0  0
 11 24  1  1  0  0  0
 12 25  1  0  0  0  0
 13 14  1  0  0  0  0
 13 15  1  0  0  0  0
 13 26  1  6  0  0  0
 14 27  1  0  0  0  0
 15 16  1  0  0  0  0
 15 28  1  1  0  0  0
 16 29  1  0  0  0  0
M  END
>  <DRUGBANK_ID>
DB02312

>  <SECONDARY_ACCESSION_NUMBERS>
EXPT00688

>  <COMMON_NAME>
beta-D-galactose 6-phosphate

>  <SYNONYMS>
6-O-phosphono-Î²-D-galactopyranose; beta-galactose-6-phosphate

$$$$
