DPT
 OpenBabel10282417123D

 28 30  0  0  0  0  0  0  0  0999 V2000
    1.4267   -1.5385   -0.0001 N   0  0  0  0  0  0  0  0  0  0  0  0
    2.7789   -1.4993   -0.0002 C   0  0  0  0  0  0  0  0  0  0  0  0
    3.5173   -0.3348    0.0002 C   0  0  0  0  0  0  0  0  0  0  0  0
    2.8317    0.8725    0.0007 C   0  0  0  0  0  0  0  0  0  0  0  0
    1.4185    0.8562    0.0002 C   0  0  0  0  0  0  0  0  0  0  0  0
    0.7137    2.0541    0.0003 C   0  0  0  0  0  0  0  0  0  0  0  0
   -0.6640    2.0658    0.0003 C   0  0  0  0  0  0  0  0  0  0  0  0
   -1.3985    0.8770   -0.0002 C   0  0  0  0  0  0  0  0  0  0  0  0
   -2.8145    0.9006   -0.0010 C   0  0  0  0  0  0  0  0  0  0  0  0
   -3.5041   -0.3112    0.0000 C   0  0  0  0  0  0  0  0  0  0  0  0
   -2.7756   -1.4798    0.0027 C   0  0  0  0  0  0  0  0  0  0  0  0
   -1.4259   -1.5252    0.0024 N   0  0  0  0  0  0  0  0  0  0  0  0
   -0.7084   -0.3670    0.0006 C   0  0  0  0  0  0  0  0  0  0  0  0
    0.7146   -0.3801    0.0001 C   0  0  0  0  0  0  0  0  0  0  0  0
    3.6089    2.1638    0.0027 C   0  0  0  0  0  0  0  0  0  0  0  0
   -3.6395    2.1624   -0.0025 C   0  0  0  0  0  0  0  0  0  0  0  0
    3.2727   -2.4669   -0.0003 H   0  0  0  0  0  0  0  0  0  0  0  0
    4.6012   -0.3716    0.0003 H   0  0  0  0  0  0  0  0  0  0  0  0
    1.2152    3.0180    0.0005 H   0  0  0  0  0  0  0  0  0  0  0  0
   -1.1290    3.0425    0.0011 H   0  0  0  0  0  0  0  0  0  0  0  0
   -4.5891   -0.3416   -0.0006 H   0  0  0  0  0  0  0  0  0  0  0  0
   -3.2749   -2.4457    0.0057 H   0  0  0  0  0  0  0  0  0  0  0  0
    3.3691    2.7508   -0.8910 H   0  0  0  0  0  0  0  0  0  0  0  0
    3.3677    2.7485    0.8977 H   0  0  0  0  0  0  0  0  0  0  0  0
    4.6887    1.9920    0.0034 H   0  0  0  0  0  0  0  0  0  0  0  0
   -4.2673    2.1958   -0.8979 H   0  0  0  0  0  0  0  0  0  0  0  0
   -4.2683    2.1969    0.8922 H   0  0  0  0  0  0  0  0  0  0  0  0
   -3.0579    3.0845   -0.0028 H   0  0  0  0  0  0  0  0  0  0  0  0
  1  2  2  0  0  0  0
  1 14  1  0  0  0  0
  2  3  1  0  0  0  0
  2 17  1  0  0  0  0
  3  4  2  0  0  0  0
  3 18  1  0  0  0  0
  4  5  1  0  0  0  0
  4 15  1  0  0  0  0
  5  6  2  0  0  0  0
  5 14  1  0  0  0  0
  6  7  1  0  0  0  0
  6 19  1  0  0  0  0
  7  8  2  0  0  0  0
  7 20  1  0  0  0  0
  8  9  1  0  0  0  0
  8 13  1  0  0  0  0
  9 10  2  0  0  0  0
  9 16  1  0  0  0  0
 10 11  1  0  0  0  0
 10 21  1  0  0  0  0
 11 12  2  0  0  0  0
 11 22  1  0  0  0  0
 12 13  1  0  0  0  0
 13 14  2  0  0  0  0
 15 23  1  0  0  0  0
 15 24  1  0  0  0  0
 15 25  1  0  0  0  0
 16 26  1  0  0  0  0
 16 27  1  0  0  0  0
 16 28  1  0  0  0  0
M  END
>  <DRUGBANK_ID>
DB02586

>  <SECONDARY_ACCESSION_NUMBERS>
EXPT01261

>  <COMMON_NAME>
4,7-Dimethyl-[1,10]Phenanthroline

>  <CAS_NUMBER>
3248-05-3

>  <UNII>
P3YJ54Z8ZO

$$$$
