
 OpenBabel10282417233D

101106  0  0  1  0  0  0  0  0999 V2000
    0.9995    0.4258    0.5865 C   0  0  0  0  0  0  0  0  0  0  0  0
    2.8672    0.2264    0.0568 N   0  0  0  0  0  0  0  0  0  0  0  0
    3.7538   -1.6300    0.6254 C   0  0  0  0  0  0  0  0  0  0  0  0
    3.2314    1.0897   -1.0413 C   0  0  0  0  0  0  0  0  0  0  0  0
    2.4636    0.4575   -2.5733 C   0  0  0  0  0  0  0  0  0  0  0  0
    0.3609    0.6315   -3.1408 C   0  0  2  0  0  0  0  0  0  0  0  0
   -0.4612   -1.1327   -2.4272 C   0  0  0  0  0  0  0  0  0  0  0  0
   -1.0224   -2.2427   -3.9549 S   0  0  0  0  0  0  0  0  0  0  0  0
   -2.0930   -0.9739   -4.2852 C   0  0  0  0  0  0  0  0  0  0  0  0
   -3.1625   -1.2825   -4.9577 C   0  0  0  0  0  0  0  0  0  0  0  0
   -4.1714   -0.3586   -5.1008 C   0  0  0  0  0  0  0  0  0  0  0  0
   -4.1684    0.9134   -4.5978 C   0  0  0  0  0  0  0  0  0  0  0  0
   -3.1075    1.2375   -3.8686 C   0  0  0  0  0  0  0  0  0  0  0  0
   -2.0616    0.3247   -3.9381 C   0  0  0  0  0  0  0  0  0  0  0  0
    0.4338    1.5419   -4.1609 N   0  0  0  0  0  0  0  0  0  0  0  0
   -0.5067    2.5126   -3.9055 C   0  0  0  0  0  0  0  0  0  0  0  0
   -0.8670    2.8777   -2.5101 C   0  0  0  0  0  0  0  0  0  0  0  0
   -1.7094    3.8523   -2.1980 C   0  0  0  0  0  0  0  0  0  0  0  0
   -2.1883    4.5332   -3.2359 C   0  0  0  0  0  0  0  0  0  0  0  0
   -2.0310    4.0617   -4.5741 C   0  0  0  0  0  0  0  0  0  0  0  0
   -1.1999    3.0047   -4.9760 C   0  0  0  0  0  0  0  0  0  0  0  0
   -1.6927    1.9767   -6.1897 N   0  3  0  0  0  0  0  0  0  0  0  0
   -2.7980    2.2504   -6.6775 O   0  5  0  0  0  0  0  0  0  0  0  0
   -1.0896    0.9085   -6.4765 O   0  0  0  0  0  0  0  0  0  0  0  0
   -2.9524    6.0210   -2.7775 S   0  0  0  0  0  0  0  0  0  0  0  0
   -2.7820    6.8715   -3.9301 O   0  0  0  0  0  0  0  0  0  0  0  0
   -4.2628    5.6017   -2.3279 O   0  0  0  0  0  0  0  0  0  0  0  0
   -2.1184    6.7570   -1.4801 N   0  0  0  0  0  0  0  0  0  0  0  0
   -0.9579    6.5410   -0.6606 C   0  0  0  0  0  0  0  0  0  0  0  0
   -0.7976    7.1778    0.3760 O   0  0  0  0  0  0  0  0  0  0  0  0
    0.1427    5.6061   -0.9893 C   0  0  0  0  0  0  0  0  0  0  0  0
    0.5907    5.4813   -2.3472 C   0  0  0  0  0  0  0  0  0  0  0  0
    1.3941    4.4252   -2.7530 C   0  0  0  0  0  0  0  0  0  0  0  0
    1.6815    3.4721   -1.7714 C   0  0  0  0  0  0  0  0  0  0  0  0
    1.3143    3.6309   -0.4040 C   0  0  0  0  0  0  0  0  0  0  0  0
    0.4229    4.6075   -0.0176 C   0  0  0  0  0  0  0  0  0  0  0  0
    1.7787    2.1724   -2.2830 N   0  0  0  0  0  0  0  0  0  0  0  0
    3.0878    1.9991   -3.5950 C   0  0  0  0  0  0  0  0  0  0  0  0
    2.8594    0.4725   -4.7189 C   0  0  0  0  0  0  0  0  0  0  0  0
    2.4199   -1.1406   -4.1718 N   0  0  0  0  0  0  0  0  0  0  0  0
    3.1913   -2.0620   -3.0017 C   0  0  0  0  0  0  0  0  0  0  0  0
    3.3510   -1.5744   -1.3592 C   0  0  0  0  0  0  0  0  0  0  0  0
    2.0149   -1.5292    0.0198 C   0  0  0  0  0  0  0  0  0  0  0  0
    2.5104   -0.6154    1.7240 C   0  0  0  0  0  0  0  0  0  0  0  0
    4.1875    0.1216    1.6993 C   0  0  0  0  0  0  0  0  0  0  0  0
    5.2406   -0.0245    0.3011 C   0  0  0  0  0  0  0  0  0  0  0  0
    4.8517   -0.8005   -1.1783 C   0  0  0  0  0  0  0  0  0  0  0  0
    5.8569   -0.8581   -2.2347 C   0  0  0  0  0  0  0  0  0  0  0  0
    5.8870   -0.0781   -3.4014 C   0  0  0  0  0  0  0  0  0  0  0  0
    6.8965   -0.1447   -4.3325 C   0  0  0  0  0  0  0  0  0  0  0  0
    7.9289   -1.0060   -4.0578 C   0  0  0  0  0  0  0  0  0  0  0  0
    9.1767   -1.2031   -5.2048 Cl  0  0  0  0  0  0  0  0  0  0  0  0
    7.9412   -1.7613   -2.8832 C   0  0  0  0  0  0  0  0  0  0  0  0
    6.8531   -1.7768   -2.0369 C   0  0  0  0  0  0  0  0  0  0  0  0
    1.2726   -0.9288   -3.3030 C   0  0  0  0  0  0  0  0  0  0  0  0
    0.9998    0.4760   -1.6027 C   0  0  0  0  0  0  0  0  0  0  0  0
    0.5648   -0.1595    1.4318 H   0  0  0  0  0  0  0  0  0  0  0  0
    0.2674   -0.3002    0.0657 H   0  0  0  0  0  0  0  0  0  0  0  0
    0.5365    1.4109    0.5091 H   0  0  0  0  0  0  0  0  0  0  0  0
    3.3851   -2.6928    0.0435 H   0  0  0  0  0  0  0  0  0  0  0  0
    4.7709   -1.9124    0.5482 H   0  0  0  0  0  0  0  0  0  0  0  0
    3.0651   -2.2689    1.4351 H   0  0  0  0  0  0  0  0  0  0  0  0
    3.0905    2.1295   -0.7629 H   0  0  0  0  0  0  0  0  0  0  0  0
    4.2936    1.2795   -1.2062 H   0  0  0  0  0  0  0  0  0  0  0  0
    3.3513    0.0835   -3.0397 H   0  0  0  0  0  0  0  0  0  0  0  0
    2.4334   -0.4659   -2.1981 H   0  0  0  0  0  0  0  0  0  0  0  0
   -0.5337    0.9606   -2.5077 H   0  0  0  0  0  0  0  0  0  0  0  0
    0.4098   -1.8474   -1.8628 H   0  0  0  0  0  0  0  0  0  0  0  0
   -1.0575   -1.2932   -1.4910 H   0  0  0  0  0  0  0  0  0  0  0  0
   -3.0910   -2.2424   -5.4093 H   0  0  0  0  0  0  0  0  0  0  0  0
   -4.9611   -0.6445   -5.7283 H   0  0  0  0  0  0  0  0  0  0  0  0
   -4.7043    1.7326   -5.0783 H   0  0  0  0  0  0  0  0  0  0  0  0
   -3.0599    2.3061   -3.9135 H   0  0  0  0  0  0  0  0  0  0  0  0
   -1.1835    0.6126   -4.4822 H   0  0  0  0  0  0  0  0  0  0  0  0
    0.5760    0.9889   -4.9642 H   0  0  0  0  0  0  0  0  0  0  0  0
   -0.3540    2.5482   -1.5951 H   0  0  0  0  0  0  0  0  0  0  0  0
   -1.5425    4.3560   -1.2821 H   0  0  0  0  0  0  0  0  0  0  0  0
   -2.8770    4.2822   -5.1829 H   0  0  0  0  0  0  0  0  0  0  0  0
   -2.6738    7.5398   -1.1227 H   0  0  0  0  0  0  0  0  0  0  0  0
   -0.0388    5.8829   -3.1453 H   0  0  0  0  0  0  0  0  0  0  0  0
    1.3013    4.0374   -3.7927 H   0  0  0  0  0  0  0  0  0  0  0  0
    1.5276    2.8262    0.2821 H   0  0  0  0  0  0  0  0  0  0  0  0
   -0.2138    4.4030    0.8713 H   0  0  0  0  0  0  0  0  0  0  0  0
    3.6130    2.8842   -3.9288 H   0  0  0  0  0  0  0  0  0  0  0  0
    3.9734    1.7019   -2.9737 H   0  0  0  0  0  0  0  0  0  0  0  0
    2.1597    0.8241   -5.4722 H   0  0  0  0  0  0  0  0  0  0  0  0
    3.7977    0.1578   -5.1349 H   0  0  0  0  0  0  0  0  0  0  0  0
    2.6006   -2.9528   -2.7284 H   0  0  0  0  0  0  0  0  0  0  0  0
    4.1248   -2.2634   -3.5052 H   0  0  0  0  0  0  0  0  0  0  0  0
    1.0812   -1.8660   -0.2919 H   0  0  0  0  0  0  0  0  0  0  0  0
    2.0125    0.3233    2.1709 H   0  0  0  0  0  0  0  0  0  0  0  0
    4.3661    1.0924    2.1932 H   0  0  0  0  0  0  0  0  0  0  0  0
    6.3023   -0.0985    0.5240 H   0  0  0  0  0  0  0  0  0  0  0  0
    5.1148    0.5904   -3.6835 H   0  0  0  0  0  0  0  0  0  0  0  0
    6.8524    0.4946   -5.2099 H   0  0  0  0  0  0  0  0  0  0  0  0
    8.8124   -2.3256   -2.5956 H   0  0  0  0  0  0  0  0  0  0  0  0
    6.7578   -2.4618   -1.2003 H   0  0  0  0  0  0  0  0  0  0  0  0
    0.6145   -0.7002   -4.2011 H   0  0  0  0  0  0  0  0  0  0  0  0
    1.0681   -2.0080   -3.2378 H   0  0  0  0  0  0  0  0  0  0  0  0
    1.4817   -0.1774   -1.0657 H   0  0  0  0  0  0  0  0  0  0  0  0
   -0.0020    0.7623   -1.1242 H   0  0  0  0  0  0  0  0  0  0  0  0
  1  2  1  0  0  0  0
  1 57  1  0  0  0  0
  1 58  1  0  0  0  0
  1 59  1  0  0  0  0
  2  3  1  0  0  0  0
  2  4  1  0  0  0  0
  3 60  1  0  0  0  0
  3 61  1  0  0  0  0
  3 62  1  0  0  0  0
  4  5  1  0  0  0  0
  4 63  1  0  0  0  0
  4 64  1  0  0  0  0
  5 65  1  0  0  0  0
  5 66  1  0  0  0  0
  6 15  1  0  0  0  0
  6 67  1  1  0  0  0
  6  7  1  0  0  0  0
  6  5  1  0  0  0  0
  7  8  1  0  0  0  0
  7 68  1  0  0  0  0
  7 69  1  0  0  0  0
  8  9  1  0  0  0  0
  9 10  2  0  0  0  0
  9 14  1  0  0  0  0
 10 11  1  0  0  0  0
 10 70  1  0  0  0  0
 11 12  2  0  0  0  0
 11 71  1  0  0  0  0
 12 13  1  0  0  0  0
 12 72  1  0  0  0  0
 13 14  2  0  0  0  0
 13 73  1  0  0  0  0
 14 74  1  0  0  0  0
 15 16  1  0  0  0  0
 15 75  1  0  0  0  0
 16 17  2  0  0  0  0
 16 21  1  0  0  0  0
 17 18  1  0  0  0  0
 17 76  1  0  0  0  0
 18 19  2  0  0  0  0
 18 77  1  0  0  0  0
 19 20  1  0  0  0  0
 19 25  1  0  0  0  0
 20 21  2  0  0  0  0
 20 78  1  0  0  0  0
 21 22  1  0  0  0  0
 22 23  1  0  0  0  0
 22 24  2  0  0  0  0
 25 26  2  0  0  0  0
 25 27  2  0  0  0  0
 25 28  1  0  0  0  0
 28 29  1  0  0  0  0
 28 79  1  0  0  0  0
 29 30  2  0  0  0  0
 29 31  1  0  0  0  0
 31 32  2  0  0  0  0
 31 36  1  0  0  0  0
 32 33  1  0  0  0  0
 32 80  1  0  0  0  0
 33 34  2  0  0  0  0
 33 81  1  0  0  0  0
 34 35  1  0  0  0  0
 34 37  1  0  0  0  0
 35 36  2  0  0  0  0
 35 82  1  0  0  0  0
 36 83  1  0  0  0  0
 37 38  1  0  0  0  0
 37 56  1  0  0  0  0
 38 39  1  0  0  0  0
 38 84  1  0  0  0  0
 38 85  1  0  0  0  0
 39 40  1  0  0  0  0
 39 86  1  0  0  0  0
 39 87  1  0  0  0  0
 40 41  1  0  0  0  0
 40 55  1  0  0  0  0
 41 42  1  0  0  0  0
 41 88  1  0  0  0  0
 41 89  1  0  0  0  0
 42 43  2  0  0  0  0
 42 47  1  0  0  0  0
 43 44  1  0  0  0  0
 43 90  1  0  0  0  0
 44 45  2  0  0  0  0
 44 91  1  0  0  0  0
 45 46  1  0  0  0  0
 45 92  1  0  0  0  0
 46 47  2  0  0  0  0
 46 93  1  0  0  0  0
 47 48  1  0  0  0  0
 48 49  2  0  0  0  0
 48 54  1  0  0  0  0
 49 50  1  0  0  0  0
 49 94  1  0  0  0  0
 50 51  2  0  0  0  0
 50 95  1  0  0  0  0
 51 52  1  0  0  0  0
 51 53  1  0  0  0  0
 53 54  2  0  0  0  0
 53 96  1  0  0  0  0
 54 97  1  0  0  0  0
 55 56  1  0  0  0  0
 55 98  1  0  0  0  0
 55 99  1  0  0  0  0
 56100  1  0  0  0  0
 56101  1  0  0  0  0
M  CHG  2  22   1  23  -1
M  END
>  <DRUGBANK_ID>
DB17023

>  <COMMON_NAME>
ABT-737

>  <CAS_NUMBER>
852808-04-9

>  <UNII>
Z5NFR173NV

>  <SYNONYMS>
Benzamide, 4-(4-((4'-chloro(1,1'-biphenyl)-2-yl)methyl)-1-piperazinyl)-n-((4-(((1r)-3-(dimethylamino)-1-((phenylthio)methyl)propyl)amino)-3-nitrophenyl)sulfonyl)-

$$$$
