
 OpenBabel10282417143D

104112  0  0  1  0  0  0  0  0999 V2000
    0.4463   -0.0465    0.2770 O   0  0  0  0  0  0  0  0  0  0  0  0
    0.2478    1.5555    1.8991 O   0  0  0  0  0  0  0  0  0  0  0  0
   -4.4333   -5.3761   -0.6104 O   0  0  0  0  0  0  0  0  0  0  0  0
   -6.8737   -8.4607   -7.4936 O   0  0  0  0  0  0  0  0  0  0  0  0
   -4.7711   -9.0671   -7.0831 O   0  0  0  0  0  0  0  0  0  0  0  0
   -3.7994    0.2778    3.1436 N   0  0  3  0  0  0  0  0  0  0  0  0
   -1.9668   -0.7920   -1.1327 N   0  0  0  0  0  0  0  0  0  0  0  0
   -5.4891   -4.8104   -4.7410 N   0  0  0  0  0  0  0  0  0  0  0  0
   -1.6689   -7.1602   -3.0907 N   0  0  0  0  0  0  0  0  0  0  0  0
   -4.1554    0.4805    1.7405 C   0  0  2  0  0  0  0  0  0  0  0  0
   -2.2328    0.6925    0.9914 C   0  0  1  0  0  0  0  0  0  0  0  0
   -3.2400    2.3296    1.3461 C   0  0  2  0  0  0  0  0  0  0  0  0
   -5.3891    1.8378    1.3284 C   0  0  2  0  0  0  0  0  0  0  0  0
   -2.0619    2.1731    0.5761 C   0  0  0  0  0  0  0  0  0  0  0  0
   -4.4797    3.0431    1.2334 C   0  0  0  0  0  0  0  0  0  0  0  0
   -2.9573    1.4737    2.9872 C   0  0  0  0  0  0  0  0  0  0  0  0
   -2.2460   -0.5162    0.1844 C   0  0  0  0  0  0  0  0  0  0  0  0
   -3.8186   -1.2019    2.9650 C   0  0  0  0  0  0  0  0  0  0  0  0
   -6.7192    2.5749    1.9117 C   0  0  0  0  0  0  0  0  0  0  0  0
   -2.4251   -1.6683    0.8914 C   0  0  0  0  0  0  0  0  0  0  0  0
   -0.3667    0.6948    1.2110 C   0  0  0  0  0  0  0  0  0  0  0  0
   -2.5289   -1.7670    2.4168 C   0  0  0  0  0  0  0  0  0  0  0  0
   -2.7013   -2.5739   -0.1304 C   0  0  0  0  0  0  0  0  0  0  0  0
   -2.3264   -2.1157   -1.3990 C   0  0  0  0  0  0  0  0  0  0  0  0
   -7.1970    3.5651    0.7755 C   0  0  0  0  0  0  0  0  0  0  0  0
   -3.3437   -3.7561   -0.0432 C   0  0  0  0  0  0  0  0  0  0  0  0
   -2.3630   -2.9667   -2.6145 C   0  0  0  0  0  0  0  0  0  0  0  0
   -2.8063   -4.3326   -2.5437 C   0  0  0  0  0  0  0  0  0  0  0  0
   -2.7833   -5.5057   -3.9305 C   0  0  1  0  0  0  0  0  0  0  0  0
   -4.0125   -6.5610   -6.0158 C   0  0  2  0  0  0  0  0  0  0  0  0
   -3.4614   -4.5544   -1.1878 C   0  0  0  0  0  0  0  0  0  0  0  0
   -2.5641   -6.2649   -5.7506 C   0  0  0  0  0  0  0  0  0  0  0  0
   -5.4043   -6.7771   -6.4224 C   0  0  3  0  0  0  0  0  0  0  0  0
   -5.9080   -6.3170   -5.0072 C   0  0  1  0  0  0  0  0  0  0  0  0
    1.9989   -0.0068    0.1596 C   0  0  0  0  0  0  0  0  0  0  0  0
   -2.8893   -6.7734   -3.3902 C   0  0  0  0  0  0  0  0  0  0  0  0
   -5.5129   -7.3714   -3.8657 C   0  0  0  0  0  0  0  0  0  0  0  0
   -3.9936   -5.0493   -6.3940 C   0  0  0  0  0  0  0  0  0  0  0  0
   -3.9403   -7.6547   -3.5199 C   0  0  0  0  0  0  0  0  0  0  0  0
   -4.2523   -4.1778   -5.2475 C   0  0  0  0  0  0  0  0  0  0  0  0
   -3.1291   -8.8020   -3.5207 C   0  0  0  0  0  0  0  0  0  0  0  0
   -5.6470   -8.2149   -6.9592 C   0  0  0  0  0  0  0  0  0  0  0  0
   -1.7547   -8.4601   -3.3650 C   0  0  0  0  0  0  0  0  0  0  0  0
   -6.0703   -4.0811   -3.6490 C   0  0  0  0  0  0  0  0  0  0  0  0
   -4.1113   -4.5086   -7.6040 C   0  0  0  0  0  0  0  0  0  0  0  0
   -3.4642  -10.0968   -3.7990 C   0  0  0  0  0  0  0  0  0  0  0  0
   -4.6916   -6.4161   -1.4132 C   0  0  0  0  0  0  0  0  0  0  0  0
   -0.6724   -9.2614   -3.5382 C   0  0  0  0  0  0  0  0  0  0  0  0
   -4.9708   -3.3097   -7.4228 C   0  0  0  0  0  0  0  0  0  0  0  0
   -2.3950  -10.9713   -3.8477 C   0  0  0  0  0  0  0  0  0  0  0  0
   -1.0473  -10.5651   -3.7255 C   0  0  0  0  0  0  0  0  0  0  0  0
   -7.8945   -7.4711   -7.4076 C   0  0  0  0  0  0  0  0  0  0  0  0
   -4.9479    0.7090    2.5219 H   0  0  0  0  0  0  0  0  0  0  0  0
   -3.6846    1.7177    0.4211 H   0  0  0  0  0  0  0  0  0  0  0  0
   -3.8338   -5.4251   -3.8316 H   0  0  0  0  0  0  0  0  0  0  0  0
   -3.7842   -7.5411   -5.7487 H   0  0  0  0  0  0  0  0  0  0  0  0
   -6.9987   -6.2525   -5.0352 H   0  0  0  0  0  0  0  0  0  0  0  0
   -1.5054   -0.1577   -1.7699 H   0  0  0  0  0  0  0  0  0  0  0  0
   -0.8695   -6.5319   -3.1910 H   0  0  0  0  0  0  0  0  0  0  0  0
   -5.8389    1.3180    0.4719 H   0  0  0  0  0  0  0  0  0  0  0  0
   -2.1163    2.4068   -0.4858 H   0  0  0  0  0  0  0  0  0  0  0  0
   -1.4280    2.8824    1.1229 H   0  0  0  0  0  0  0  0  0  0  0  0
   -4.5930    3.5075    0.2560 H   0  0  0  0  0  0  0  0  0  0  0  0
   -4.5015    3.7179    2.0822 H   0  0  0  0  0  0  0  0  0  0  0  0
   -1.9323    1.1339    3.1659 H   0  0  0  0  0  0  0  0  0  0  0  0
   -3.1738    2.2344    3.7383 H   0  0  0  0  0  0  0  0  0  0  0  0
   -4.6477   -1.5126    2.2703 H   0  0  0  0  0  0  0  0  0  0  0  0
   -4.1686   -1.6965    3.8823 H   0  0  0  0  0  0  0  0  0  0  0  0
   -7.5856    1.9485    2.1598 H   0  0  0  0  0  0  0  0  0  0  0  0
   -6.5330    3.2108    2.7969 H   0  0  0  0  0  0  0  0  0  0  0  0
   -2.4196   -2.7947    2.7597 H   0  0  0  0  0  0  0  0  0  0  0  0
   -1.7299   -1.1919    2.9024 H   0  0  0  0  0  0  0  0  0  0  0  0
   -7.4527    2.9966   -0.1251 H   0  0  0  0  0  0  0  0  0  0  0  0
   -8.0495    4.1997    1.0388 H   0  0  0  0  0  0  0  0  0  0  0  0
   -6.4118    4.2759    0.4913 H   0  0  0  0  0  0  0  0  0  0  0  0
   -3.8299   -4.0110    0.9033 H   0  0  0  0  0  0  0  0  0  0  0  0
   -2.1375   -2.4786   -3.5569 H   0  0  0  0  0  0  0  0  0  0  0  0
   -2.0334   -7.2848   -5.7402 H   0  0  0  0  0  0  0  0  0  0  0  0
   -2.3362   -6.1282   -6.8366 H   0  0  0  0  0  0  0  0  0  0  0  0
   -5.8222   -6.1465   -7.1666 H   0  0  0  0  0  0  0  0  0  0  0  0
    2.3575   -0.7933   -0.5445 H   0  0  0  0  0  0  0  0  0  0  0  0
    2.3988    0.9342   -0.2631 H   0  0  0  0  0  0  0  0  0  0  0  0
    2.5056   -0.2240    1.1113 H   0  0  0  0  0  0  0  0  0  0  0  0
   -6.0398   -8.3298   -3.7673 H   0  0  0  0  0  0  0  0  0  0  0  0
   -6.1148   -6.8925   -3.0907 H   0  0  0  0  0  0  0  0  0  0  0  0
   -3.1509   -4.0419   -5.0327 H   0  0  0  0  0  0  0  0  0  0  0  0
   -4.2643   -3.1003   -5.0536 H   0  0  0  0  0  0  0  0  0  0  0  0
   -6.4238   -4.7224   -2.8522 H   0  0  0  0  0  0  0  0  0  0  0  0
   -5.3525   -3.3758   -3.2101 H   0  0  0  0  0  0  0  0  0  0  0  0
   -6.9206   -3.5131   -4.0133 H   0  0  0  0  0  0  0  0  0  0  0  0
   -4.1186   -5.1972   -8.4406 H   0  0  0  0  0  0  0  0  0  0  0  0
   -4.5022  -10.3440   -3.9702 H   0  0  0  0  0  0  0  0  0  0  0  0
   -5.0161   -5.8813   -2.2846 H   0  0  0  0  0  0  0  0  0  0  0  0
   -3.7439   -6.9178   -1.4359 H   0  0  0  0  0  0  0  0  0  0  0  0
   -5.4302   -7.1663   -1.1402 H   0  0  0  0  0  0  0  0  0  0  0  0
    0.3360   -8.8648   -3.4681 H   0  0  0  0  0  0  0  0  0  0  0  0
   -5.1737   -2.7582   -8.3069 H   0  0  0  0  0  0  0  0  0  0  0  0
   -5.9045   -3.7007   -6.9734 H   0  0  0  0  0  0  0  0  0  0  0  0
   -4.5387   -2.5847   -6.7212 H   0  0  0  0  0  0  0  0  0  0  0  0
   -2.6329  -12.0089   -3.9955 H   0  0  0  0  0  0  0  0  0  0  0  0
   -0.2520  -11.2881   -3.7608 H   0  0  0  0  0  0  0  0  0  0  0  0
   -8.1251   -7.3046   -6.3576 H   0  0  0  0  0  0  0  0  0  0  0  0
   -7.5993   -6.5486   -7.9155 H   0  0  0  0  0  0  0  0  0  0  0  0
   -8.7916   -7.8456   -7.8979 H   0  0  0  0  0  0  0  0  0  0  0  0
  1 21  1  0  0  0  0
  1 35  1  0  0  0  0
  2 21  2  0  0  0  0
  3 31  1  0  0  0  0
  3 47  1  0  0  0  0
  4 42  1  0  0  0  0
  4 52  1  0  0  0  0
  5 42  2  0  0  0  0
  6 10  1  0  0  0  0
  6 16  1  0  0  0  0
  6 18  1  0  0  0  0
  7 17  1  0  0  0  0
  7 24  1  0  0  0  0
  7 58  1  0  0  0  0
  8 34  1  0  0  0  0
  8 40  1  0  0  0  0
  8 44  1  0  0  0  0
  9 36  1  0  0  0  0
  9 43  1  0  0  0  0
  9 59  1  0  0  0  0
 10 11  1  0  0  0  0
 10 13  1  0  0  0  0
 10 53  1  6  0  0  0
 11 14  1  0  0  0  0
 11 17  1  0  0  0  0
 11 21  1  6  0  0  0
 12 14  1  0  0  0  0
 12 15  1  0  0  0  0
 12 16  1  0  0  0  0
 12 54  1  6  0  0  0
 13 15  1  0  0  0  0
 13 19  1  0  0  0  0
 13 60  1  6  0  0  0
 14 61  1  0  0  0  0
 14 62  1  0  0  0  0
 15 63  1  0  0  0  0
 15 64  1  0  0  0  0
 16 65  1  0  0  0  0
 16 66  1  0  0  0  0
 17 20  2  0  0  0  0
 18 22  1  0  0  0  0
 18 67  1  0  0  0  0
 18 68  1  0  0  0  0
 19 25  1  0  0  0  0
 19 69  1  0  0  0  0
 19 70  1  0  0  0  0
 20 22  1  0  0  0  0
 20 23  1  0  0  0  0
 22 71  1  0  0  0  0
 22 72  1  0  0  0  0
 23 24  1  0  0  0  0
 23 26  2  0  0  0  0
 24 27  2  0  0  0  0
 25 73  1  0  0  0  0
 25 74  1  0  0  0  0
 25 75  1  0  0  0  0
 26 31  1  0  0  0  0
 26 76  1  0  0  0  0
 27 28  1  0  0  0  0
 27 77  1  0  0  0  0
 28 31  2  0  0  0  0
 28 29  1  0  0  0  0
 29 32  1  0  0  0  0
 29 36  1  0  0  0  0
 29 55  1  6  0  0  0
 30 32  1  0  0  0  0
 30 33  1  0  0  0  0
 30 38  1  0  0  0  0
 30 56  1  1  0  0  0
 32 78  1  0  0  0  0
 32 79  1  0  0  0  0
 33 34  1  0  0  0  0
 33 42  1  0  0  0  0
 33 80  1  0  0  0  0
 34 37  1  0  0  0  0
 34 57  1  6  0  0  0
 35 81  1  0  0  0  0
 35 82  1  0  0  0  0
 35 83  1  0  0  0  0
 36 39  2  0  0  0  0
 37 39  1  0  0  0  0
 37 84  1  0  0  0  0
 37 85  1  0  0  0  0
 38 40  1  0  0  0  0
 38 45  2  0  0  0  0
 39 41  1  0  0  0  0
 40 86  1  0  0  0  0
 40 87  1  0  0  0  0
 41 43  1  0  0  0  0
 41 46  2  0  0  0  0
 43 48  2  0  0  0  0
 44 88  1  0  0  0  0
 44 89  1  0  0  0  0
 44 90  1  0  0  0  0
 45 49  1  0  0  0  0
 45 91  1  0  0  0  0
 46 50  1  0  0  0  0
 46 92  1  0  0  0  0
 47 93  1  0  0  0  0
 47 94  1  0  0  0  0
 47 95  1  0  0  0  0
 48 51  1  0  0  0  0
 48 96  1  0  0  0  0
 49 97  1  0  0  0  0
 49 98  1  0  0  0  0
 49 99  1  0  0  0  0
 50 51  2  0  0  0  0
 50100  1  0  0  0  0
 51101  1  0  0  0  0
 52102  1  0  0  0  0
 52103  1  0  0  0  0
 52104  1  0  0  0  0
M  END
>  <DRUGBANK_ID>
DB04877

>  <COMMON_NAME>
Voacamine

>  <CAS_NUMBER>
3371-85-5

>  <UNII>
2Z504YT5AG

>  <SYNONYMS>
Methyl 12-methoxy-13-(17-methoxy-17-oxovobasan-3alpha-yl)ibogamine-18-carboxylate; Voacanginine; Vocamine

$$$$
