
 OpenBabel10282417173D

 38 41  0  0  0  0  0  0  0  0999 V2000
    1.0851    0.0367   -0.0574 C   0  0  0  0  0  0  0  0  0  0  0  0
    1.9893    5.4487    2.5399 C   0  0  0  0  0  0  0  0  0  0  0  0
    0.5739   -0.3021    1.3320 C   0  0  0  0  0  0  0  0  0  0  0  0
    4.2769   -1.6963    7.0693 C   0  0  0  0  0  0  0  0  0  0  0  0
    5.4315   -1.6584    6.2874 C   0  0  0  0  0  0  0  0  0  0  0  0
    3.3034   -0.7081    6.9242 C   0  0  0  0  0  0  0  0  0  0  0  0
    5.6225   -0.6271    5.3656 C   0  0  0  0  0  0  0  0  0  0  0  0
    1.5649    0.2929    3.6358 C   0  0  0  0  0  0  0  0  0  0  0  0
    0.9902    3.0002    6.7850 C   0  0  0  0  0  0  0  0  0  0  0  0
    1.6268    5.1291    3.9384 C   0  0  0  0  0  0  0  0  0  0  0  0
    1.0167    0.6438    2.4188 C   0  0  0  0  0  0  0  0  0  0  0  0
    3.4885    0.3188    5.9888 C   0  0  0  0  0  0  0  0  0  0  0  0
    1.7767    1.4097    4.5186 C   0  0  0  0  0  0  0  0  0  0  0  0
    4.6568    0.3704    5.2175 C   0  0  0  0  0  0  0  0  0  0  0  0
    1.2959    4.0894    5.8265 C   0  0  0  0  0  0  0  0  0  0  0  0
    2.4028    1.3175    5.8411 C   0  0  0  0  0  0  0  0  0  0  0  0
    1.4084    2.5839    3.8896 C   0  0  0  0  0  0  0  0  0  0  0  0
    4.9907    1.6429    4.0962 Cl  0  0  0  0  0  0  0  0  0  0  0  0
    2.0676    2.0164    6.8645 N   0  0  0  0  0  0  0  0  0  0  0  0
    1.5662    6.0263    4.9039 N   0  0  0  0  0  0  0  0  0  0  0  0
    1.3506    5.3773    6.0837 N   0  0  0  0  0  0  0  0  0  0  0  0
    1.4418    3.8589    4.4689 N   0  0  0  0  0  0  0  0  0  0  0  0
    0.8347    2.3462    2.3122 S   0  0  0  0  0  0  0  0  0  0  0  0
    0.7343    1.0186   -0.3878 H   0  0  0  0  0  0  0  0  0  0  0  0
    0.7224   -0.7023   -0.7811 H   0  0  0  0  0  0  0  0  0  0  0  0
    2.1792    0.0314   -0.0904 H   0  0  0  0  0  0  0  0  0  0  0  0
    2.9081    4.9322    2.2459 H   0  0  0  0  0  0  0  0  0  0  0  0
    1.1827    5.1938    1.8505 H   0  0  0  0  0  0  0  0  0  0  0  0
    2.1723    6.5246    2.4364 H   0  0  0  0  0  0  0  0  0  0  0  0
   -0.5214   -0.3521    1.3228 H   0  0  0  0  0  0  0  0  0  0  0  0
    0.9219   -1.3149    1.5798 H   0  0  0  0  0  0  0  0  0  0  0  0
    4.1374   -2.4949    7.7945 H   0  0  0  0  0  0  0  0  0  0  0  0
    6.1920   -2.4273    6.4030 H   0  0  0  0  0  0  0  0  0  0  0  0
    2.4020   -0.7422    7.5327 H   0  0  0  0  0  0  0  0  0  0  0  0
    6.5326   -0.6015    4.7707 H   0  0  0  0  0  0  0  0  0  0  0  0
    1.7910   -0.7361    3.8948 H   0  0  0  0  0  0  0  0  0  0  0  0
    0.0358    2.5167    6.5423 H   0  0  0  0  0  0  0  0  0  0  0  0
    0.8585    3.4351    7.7828 H   0  0  0  0  0  0  0  0  0  0  0  0
  1 24  1  0  0  0  0
  1 25  1  0  0  0  0
  1 26  1  0  0  0  0
  2 27  1  0  0  0  0
  2 28  1  0  0  0  0
  2 29  1  0  0  0  0
  3  1  1  0  0  0  0
  3 30  1  0  0  0  0
  3 31  1  0  0  0  0
  4 32  1  0  0  0  0
  5  4  2  0  0  0  0
  5 33  1  0  0  0  0
  6  4  1  0  0  0  0
  6 34  1  0  0  0  0
  7  5  1  0  0  0  0
  7 35  1  0  0  0  0
  8 36  1  0  0  0  0
  9 37  1  0  0  0  0
  9 38  1  0  0  0  0
 10  2  1  0  0  0  0
 11  3  1  0  0  0  0
 11  8  2  0  0  0  0
 12  6  2  0  0  0  0
 13  8  1  0  0  0  0
 14  7  2  0  0  0  0
 14 12  1  0  0  0  0
 15  9  1  0  0  0  0
 16 12  1  0  0  0  0
 16 13  1  0  0  0  0
 17 13  2  0  0  0  0
 18 14  1  0  0  0  0
 19  9  1  0  0  0  0
 19 16  2  0  0  0  0
 20 10  2  0  0  0  0
 21 15  2  0  0  0  0
 21 20  1  0  0  0  0
 22 10  1  0  0  0  0
 22 15  1  0  0  0  0
 22 17  1  0  0  0  0
 23 11  1  0  0  0  0
 23 17  1  0  0  0  0
M  END
>  <DRUGBANK_ID>
DB09166

>  <COMMON_NAME>
Etizolam

>  <CAS_NUMBER>
40054-69-1

>  <UNII>
A76XI0HL37

>  <SYNONYMS>
4-(o-Chlorophenyl)-2-ethyl-9-methyl-6H-thieno(3,2-f)-s-triazolo(4,3-a)(1,4)diazepine; Etizolam

$$$$
