FLE
 OpenBabel10282417123D

 31 31  0  0  0  0  0  0  0  0999 V2000
    0.7003    0.2186    0.1000 N   0  0  0  0  0  0  0  0  0  0  0  0
    0.1970   -1.0615   -0.5414 C   0  0  1  0  0  0  0  0  0  0  0  0
   -0.6109   -1.9887    0.4471 C   0  0  0  0  0  0  0  0  0  0  0  0
   -1.8217   -1.2522    0.9698 C   0  0  0  0  0  0  0  0  0  0  0  0
   -2.7058   -0.8388   -0.2075 C   0  0  0  0  0  0  0  0  0  0  0  0
   -2.6052   -1.7337    2.1798 C   0  0  0  0  0  0  0  0  0  0  0  0
   -0.3452   -0.7012   -1.9747 C   0  0  0  0  0  0  0  0  0  0  0  0
   -0.3039   -1.6851   -2.8997 O   0  0  0  0  0  0  0  0  0  0  0  0
   -0.7704    0.3979   -2.2963 O   0  0  0  0  0  0  0  0  0  0  0  0
    0.1524    1.4317    0.5811 C   0  0  0  0  0  0  0  0  0  0  0  0
    1.0356    2.2714    0.8815 O   0  0  0  0  0  0  0  0  0  0  0  0
   -1.2722    1.7295    0.8662 C   0  0  0  0  0  0  0  0  0  0  0  0
   -2.0626    2.4604   -0.0060 O   0  0  0  0  0  0  0  0  0  0  0  0
   -2.0923    1.3983    1.9552 C   0  0  0  0  0  0  0  0  0  0  0  0
   -3.4279    1.4705    1.4712 C   0  0  0  0  0  0  0  0  0  0  0  0
   -3.3684    2.3038    0.3846 C   0  0  0  0  0  0  0  0  0  0  0  0
    1.1080   -1.6452   -0.7579 H   0  0  0  0  0  0  0  0  0  0  0  0
    1.7116    0.2897    0.0895 H   0  0  0  0  0  0  0  0  0  0  0  0
   -0.9302   -2.9445    0.0262 H   0  0  0  0  0  0  0  0  0  0  0  0
    0.0411   -2.2143    1.3091 H   0  0  0  0  0  0  0  0  0  0  0  0
   -1.2359   -0.4702    1.4075 H   0  0  0  0  0  0  0  0  0  0  0  0
   -3.0068   -1.6976   -0.7993 H   0  0  0  0  0  0  0  0  0  0  0  0
   -3.6122   -0.2631   -0.0602 H   0  0  0  0  0  0  0  0  0  0  0  0
   -2.1498   -0.1355   -0.8037 H   0  0  0  0  0  0  0  0  0  0  0  0
   -1.9395   -1.9393    3.0257 H   0  0  0  0  0  0  0  0  0  0  0  0
   -3.2844   -0.9572    2.5602 H   0  0  0  0  0  0  0  0  0  0  0  0
   -3.2225   -2.5890    1.9348 H   0  0  0  0  0  0  0  0  0  0  0  0
    0.3810   -2.3593   -2.7677 H   0  0  0  0  0  0  0  0  0  0  0  0
   -1.7591    0.7972    2.7943 H   0  0  0  0  0  0  0  0  0  0  0  0
   -4.2790    0.8362    1.7259 H   0  0  0  0  0  0  0  0  0  0  0  0
   -4.1308    2.6669   -0.2906 H   0  0  0  0  0  0  0  0  0  0  0  0
  1 10  1  0  0  0  0
  1 18  1  0  0  0  0
  2  1  1  0  0  0  0
  2  3  1  0  0  0  0
  2  7  1  0  0  0  0
  2 17  1  6  0  0  0
  3  4  1  0  0  0  0
  3 19  1  0  0  0  0
  3 20  1  0  0  0  0
  4  5  1  0  0  0  0
  4  6  1  0  0  0  0
  4 21  1  0  0  0  0
  5 22  1  0  0  0  0
  5 23  1  0  0  0  0
  5 24  1  0  0  0  0
  6 25  1  0  0  0  0
  6 26  1  0  0  0  0
  6 27  1  0  0  0  0
  7  8  1  0  0  0  0
  7  9  2  0  0  0  0
  8 28  1  0  0  0  0
 10 11  2  0  0  0  0
 10 12  1  0  0  0  0
 12 13  1  0  0  0  0
 12 14  2  0  0  0  0
 13 16  1  0  0  0  0
 14 15  1  0  0  0  0
 14 29  1  0  0  0  0
 15 16  2  0  0  0  0
 15 30  1  0  0  0  0
 16 31  1  0  0  0  0
M  END
>  <DRUGBANK_ID>
DB02215

>  <SECONDARY_ACCESSION_NUMBERS>
EXPT01441

>  <COMMON_NAME>
Furoyl-Leucine

$$$$
