
 OpenBabel10282417183D

 64 65  0  0  0  0  0  0  0  0999 V2000
    0.6521    0.1598    0.1195 C   0  0  0  0  0  0  0  0  0  0  0  0
    1.4666    0.8225   -0.5102 O   0  0  0  0  0  0  0  0  0  0  0  0
   -0.1915   -0.9125   -0.5035 C   0  0  0  0  0  0  0  0  0  0  0  0
    0.0109   -2.3337   -0.3352 C   0  0  0  0  0  0  0  0  0  0  0  0
   -0.4891   -3.2912   -1.2758 C   0  0  0  0  0  0  0  0  0  0  0  0
   -1.5104   -2.7464   -2.1728 C   0  0  0  0  0  0  0  0  0  0  0  0
   -1.8451   -1.3217   -2.2864 C   0  0  0  0  0  0  0  0  0  0  0  0
   -1.0985   -0.4334   -1.4695 C   0  0  0  0  0  0  0  0  0  0  0  0
   -2.5087   -4.2603   -3.4472 I   0  0  0  0  0  0  0  0  0  0  0  0
   -1.4574    1.8579   -1.3009 I   0  0  0  0  0  0  0  0  0  0  0  0
    0.8637   -2.8875    1.8611 I   0  0  0  0  0  0  0  0  0  0  0  0
   -2.9746   -0.8177   -3.1857 C   0  0  0  0  0  0  0  0  0  0  0  0
   -3.2939    0.5161   -3.1555 N   0  0  0  0  0  0  0  0  0  0  0  0
   -4.4418    1.1391   -3.7960 C   0  0  0  0  0  0  0  0  0  0  0  0
   -3.6448   -1.5563   -3.8900 O   0  0  0  0  0  0  0  0  0  0  0  0
    0.0325   -4.6346   -1.6222 N   0  0  0  0  0  0  0  0  0  0  0  0
    1.2641   -5.2699   -1.4658 C   0  0  0  0  0  0  0  0  0  0  0  0
    2.4060   -4.4991   -0.8253 C   0  0  0  0  0  0  0  0  0  0  0  0
    0.0853    0.6304    1.2442 O   0  0  0  0  0  0  0  0  0  0  0  0
   -5.3858    1.7587   -2.7590 C   0  0  0  0  0  0  0  0  0  0  0  0
   -4.7630    2.8345   -2.0559 O   0  0  0  0  0  0  0  0  0  0  0  0
    1.4127   -6.4536   -1.7910 O   0  0  0  0  0  0  0  0  0  0  0  0
    3.0916   -3.3830   -1.5413 N   0  0  0  0  0  0  0  0  0  0  0  0
    2.9543   -2.0317   -1.2287 C   0  0  0  0  0  0  0  0  0  0  0  0
    3.4122   -0.8937   -2.0676 C   0  0  0  0  0  0  0  0  0  0  0  0
    2.9073   -0.7343   -3.3777 C   0  0  0  0  0  0  0  0  0  0  0  0
    3.1767    0.4112   -4.2145 C   0  0  0  0  0  0  0  0  0  0  0  0
    3.6172    1.5927   -3.4190 C   0  0  0  0  0  0  0  0  0  0  0  0
    3.9985    1.5853   -1.9782 C   0  0  0  0  0  0  0  0  0  0  0  0
    3.9840    0.2441   -1.3884 C   0  0  0  0  0  0  0  0  0  0  0  0
    3.1933    0.3333   -5.7365 N   0  0  0  0  0  0  0  0  0  0  0  0
    3.6566    1.4068   -6.5748 C   0  0  0  0  0  0  0  0  0  0  0  0
    3.0568   -0.7641   -6.6339 C   0  0  0  0  0  0  0  0  0  0  0  0
    2.9249   -2.1069   -6.1036 C   0  0  0  0  0  0  0  0  0  0  0  0
    3.0436   -0.6661   -7.8662 O   0  0  0  0  0  0  0  0  0  0  0  0
    4.3469    2.9959   -1.3158 C   0  0  0  0  0  0  0  0  0  0  0  0
    4.7260    3.9839   -1.9437 O   0  0  0  0  0  0  0  0  0  0  0  0
    4.2665    3.3129    0.0155 N   0  0  0  0  0  0  0  0  0  0  0  0
    3.9179    2.4160    1.0237 C   0  0  0  0  0  0  0  0  0  0  0  0
    2.3424   -1.6627   -0.2864 O   0  0  0  0  0  0  0  0  0  0  0  0
    1.2286   -2.3365   -3.8217 I   0  0  0  0  0  0  0  0  0  0  0  0
    3.4062    3.7735   -4.4051 I   0  0  0  0  0  0  0  0  0  0  0  0
    4.7455   -0.5312    0.8393 I   0  0  0  0  0  0  0  0  0  0  0  0
   -2.6919    1.1649   -2.6808 H   0  0  0  0  0  0  0  0  0  0  0  0
   -4.0387    1.9247   -4.4438 H   0  0  0  0  0  0  0  0  0  0  0  0
   -4.9737    0.4015   -4.3970 H   0  0  0  0  0  0  0  0  0  0  0  0
   -0.5100   -5.1540   -2.3221 H   0  0  0  0  0  0  0  0  0  0  0  0
    1.8503   -4.1911    0.0238 H   0  0  0  0  0  0  0  0  0  0  0  0
    3.1638   -5.1593   -0.3952 H   0  0  0  0  0  0  0  0  0  0  0  0
   -0.8246    0.9083    1.0159 H   0  0  0  0  0  0  0  0  0  0  0  0
   -6.2627    2.1741   -3.2613 H   0  0  0  0  0  0  0  0  0  0  0  0
   -5.7180    1.0170   -2.0256 H   0  0  0  0  0  0  0  0  0  0  0  0
   -4.0304    2.4654   -1.5368 H   0  0  0  0  0  0  0  0  0  0  0  0
    3.5389   -3.6164   -2.4049 H   0  0  0  0  0  0  0  0  0  0  0  0
    4.4553    1.0473   -7.2391 H   0  0  0  0  0  0  0  0  0  0  0  0
    2.8189    1.7678   -7.1833 H   0  0  0  0  0  0  0  0  0  0  0  0
    4.1749    2.1781   -6.0654 H   0  0  0  0  0  0  0  0  0  0  0  0
    1.8617   -2.3286   -6.2694 H   0  0  0  0  0  0  0  0  0  0  0  0
    3.5241   -2.9382   -6.4371 H   0  0  0  0  0  0  0  0  0  0  0  0
    3.3259   -1.9999   -5.1148 H   0  0  0  0  0  0  0  0  0  0  0  0
    4.5791    4.2474    0.2651 H   0  0  0  0  0  0  0  0  0  0  0  0
    4.8392    2.1725    1.5605 H   0  0  0  0  0  0  0  0  0  0  0  0
    3.0933    2.7087    1.6583 H   0  0  0  0  0  0  0  0  0  0  0  0
    3.5108    1.6180    0.4509 H   0  0  0  0  0  0  0  0  0  0  0  0
  1 19  1  0  0  0  0
  1  2  2  0  0  0  0
  3  4  1  0  0  0  0
  3  1  1  0  0  0  0
  4 11  1  0  0  0  0
  4  5  2  0  0  0  0
  5  6  1  0  0  0  0
  5 16  1  0  0  0  0
  6  7  2  0  0  0  0
  6  9  1  0  0  0  0
  7 12  1  0  0  0  0
  7  8  1  0  0  0  0
  8  3  2  0  0  0  0
  8 10  1  0  0  0  0
 12 13  1  0  0  0  0
 12 15  2  0  0  0  0
 13 14  1  0  0  0  0
 13 44  1  0  0  0  0
 14 20  1  0  0  0  0
 14 45  1  0  0  0  0
 14 46  1  0  0  0  0
 16 17  1  0  0  0  0
 16 47  1  0  0  0  0
 17 22  2  0  0  0  0
 17 18  1  0  0  0  0
 18 23  1  0  0  0  0
 18 48  1  0  0  0  0
 18 49  1  0  0  0  0
 19 50  1  0  0  0  0
 20 21  1  0  0  0  0
 20 51  1  0  0  0  0
 20 52  1  0  0  0  0
 21 53  1  0  0  0  0
 23 24  1  0  0  0  0
 23 54  1  0  0  0  0
 24 25  1  0  0  0  0
 24 40  2  0  0  0  0
 25 26  2  0  0  0  0
 26 27  1  0  0  0  0
 26 41  1  0  0  0  0
 27 28  2  0  0  0  0
 27 31  1  0  0  0  0
 28 29  1  0  0  0  0
 28 42  1  0  0  0  0
 29 30  2  0  0  0  0
 29 36  1  0  0  0  0
 30 25  1  0  0  0  0
 30 43  1  0  0  0  0
 31 32  1  0  0  0  0
 31 33  1  0  0  0  0
 32 55  1  0  0  0  0
 32 56  1  0  0  0  0
 32 57  1  0  0  0  0
 33 34  1  0  0  0  0
 33 35  2  0  0  0  0
 34 58  1  0  0  0  0
 34 59  1  0  0  0  0
 34 60  1  0  0  0  0
 36 37  2  0  0  0  0
 36 38  1  0  0  0  0
 38 39  1  0  0  0  0
 38 61  1  0  0  0  0
 39 62  1  0  0  0  0
 39 63  1  0  0  0  0
 39 64  1  0  0  0  0
M  END
>  <DRUGBANK_ID>
DB09313

>  <COMMON_NAME>
Ioxaglic acid

>  <CAS_NUMBER>
59017-64-0

>  <UNII>
Z40X7EI2AF

>  <SYNONYMS>
acido ioxaglico; Ioxaglic acid

$$$$
