
 OpenBabel10282417233D

 41 41  0  0  0  0  0  0  0  0999 V2000
    1.1073   -0.4689    0.1168 N   0  3  0  0  0  0  0  0  0  0  0  0
    0.9179    0.9166   -0.0441 C   0  0  0  0  0  0  0  0  0  0  0  0
    2.3770   -1.2302   -0.0194 C   0  0  0  0  0  0  0  0  0  0  0  0
    0.0321   -1.0490    0.5798 C   0  0  0  0  0  0  0  0  0  0  0  0
   -0.3899    1.2787    0.2834 C   0  0  0  0  0  0  0  0  0  0  0  0
    2.0338    1.8444   -0.3159 C   0  0  0  0  0  0  0  0  0  0  0  0
    2.5607   -2.1539    1.1620 C   0  0  0  0  0  0  0  0  0  0  0  0
   -1.0056    0.0513    1.3619 S   0  0  0  0  0  0  0  0  0  0  0  0
   -1.2116    2.5224    0.1119 C   0  0  0  0  0  0  0  0  0  0  0  0
    1.7898   -3.2664    1.4300 C   0  0  0  0  0  0  0  0  0  0  0  0
    3.4555   -1.8168    2.1649 C   0  0  0  0  0  0  0  0  0  0  0  0
   -2.1037    2.5456   -1.1518 C   0  0  0  0  0  0  0  0  0  0  0  0
    1.7734   -3.8807    2.6137 N   0  0  0  0  0  0  0  0  0  0  0  0
    0.9428   -3.8629    0.5096 N   0  0  0  0  0  0  0  0  0  0  0  0
    3.5645   -2.4960    3.3197 N   0  0  0  0  0  0  0  0  0  0  0  0
   -3.0756    1.4753   -1.2400 O   0  0  0  0  0  0  0  0  0  0  0  0
    2.6707   -3.4633    3.5292 C   0  0  0  0  0  0  0  0  0  0  0  0
   -2.2917   -0.0669   -1.2432 P   0  0  0  0  0  0  0  0  0  0  0  0
    2.7192   -4.2140    4.8194 C   0  0  0  0  0  0  0  0  0  0  0  0
   -3.7968   -0.6794   -1.3758 O   0  0  0  0  0  0  0  0  0  0  0  0
   -1.9944    0.1705   -2.8349 O   0  0  0  0  0  0  0  0  0  0  0  0
   -1.5901   -1.4472   -1.2461 O   0  0  0  0  0  0  0  0  0  0  0  0
    1.8082    1.1896    3.2777 Cl  0  5  0  0  0  0  0  0  0  0  0  0
    2.4024   -1.8112   -0.9531 H   0  0  0  0  0  0  0  0  0  0  0  0
    3.2100   -0.5241   -0.0831 H   0  0  0  0  0  0  0  0  0  0  0  0
   -0.2533   -2.0886    0.5186 H   0  0  0  0  0  0  0  0  0  0  0  0
    2.7741    1.7543    0.4816 H   0  0  0  0  0  0  0  0  0  0  0  0
    2.5352    1.7061   -1.2750 H   0  0  0  0  0  0  0  0  0  0  0  0
    1.6630    2.8747   -0.2724 H   0  0  0  0  0  0  0  0  0  0  0  0
   -1.8655    2.6227    0.9826 H   0  0  0  0  0  0  0  0  0  0  0  0
   -0.5450    3.3871    0.0863 H   0  0  0  0  0  0  0  0  0  0  0  0
    4.1096   -0.9552    2.0886 H   0  0  0  0  0  0  0  0  0  0  0  0
   -2.6698    3.4829   -1.1712 H   0  0  0  0  0  0  0  0  0  0  0  0
   -1.4825    2.5428   -2.0555 H   0  0  0  0  0  0  0  0  0  0  0  0
    0.2700   -4.4892    0.9401 H   0  0  0  0  0  0  0  0  0  0  0  0
    0.7759   -3.5586   -0.4308 H   0  0  0  0  0  0  0  0  0  0  0  0
    1.7666   -4.1263    5.3498 H   0  0  0  0  0  0  0  0  0  0  0  0
    2.9120   -5.2702    4.6106 H   0  0  0  0  0  0  0  0  0  0  0  0
    3.5180   -3.8351    5.4636 H   0  0  0  0  0  0  0  0  0  0  0  0
   -4.1323   -0.9738   -0.5105 H   0  0  0  0  0  0  0  0  0  0  0  0
   -2.2457    1.0446   -3.1685 H   0  0  0  0  0  0  0  0  0  0  0  0
  1  2  1  0  0  0  0
  1  3  1  0  0  0  0
  1  4  2  0  0  0  0
  2  5  2  0  0  0  0
  2  6  1  0  0  0  0
  3  7  1  0  0  0  0
  3 24  1  0  0  0  0
  3 25  1  0  0  0  0
  4  8  1  0  0  0  0
  4 26  1  0  0  0  0
  5  9  1  0  0  0  0
  5  8  1  0  0  0  0
  6 27  1  0  0  0  0
  6 28  1  0  0  0  0
  6 29  1  0  0  0  0
  7 10  1  0  0  0  0
  7 11  2  0  0  0  0
  9 12  1  0  0  0  0
  9 30  1  0  0  0  0
  9 31  1  0  0  0  0
 10 13  2  0  0  0  0
 10 14  1  0  0  0  0
 11 15  1  0  0  0  0
 11 32  1  0  0  0  0
 12 16  1  0  0  0  0
 12 33  1  0  0  0  0
 12 34  1  0  0  0  0
 13 17  1  0  0  0  0
 14 35  1  0  0  0  0
 14 36  1  0  0  0  0
 15 17  2  0  0  0  0
 16 18  1  0  0  0  0
 17 19  1  0  0  0  0
 18 20  1  0  0  0  0
 18 21  1  0  0  0  0
 18 22  2  0  0  0  0
 19 37  1  0  0  0  0
 19 38  1  0  0  0  0
 19 39  1  0  0  0  0
 20 40  1  0  0  0  0
 21 41  1  0  0  0  0
M  CHG  2   1   1  23  -1
M  END
>  <DRUGBANK_ID>
DB16023

>  <COMMON_NAME>
Monophosphothiamine

>  <CAS_NUMBER>
532-40-1

>  <UNII>
P712T71Q3T

>  <SYNONYMS>
Monofosfotiamina; Monophosphothiamine; Thiamine monophosphate; Vitamin B1 monophosphate; Vitamin B1 phosphate

$$$$
