
 OpenBabel10282417143D

 19 18  0  0  0  0  0  0  0  0999 V2000
    0.8704   -0.0673    0.0349 C   0  0  0  0  0  0  0  0  0  0  0  0
    3.6566    1.5306    0.9160 C   0  0  0  0  0  0  0  0  0  0  0  0
    0.3780   -1.4009    0.5204 C   0  0  0  0  0  0  0  0  0  0  0  0
    4.5002    0.9720   -0.2423 C   0  0  0  0  0  0  0  0  0  0  0  0
    0.5087    1.0303    1.0195 C   0  0  0  0  0  0  0  0  0  0  0  0
    2.7992    2.7407    0.5594 C   0  0  0  0  0  0  0  0  0  0  0  0
   -0.3217   -1.5657    1.5153 O   0  0  0  0  0  0  0  0  0  0  0  0
    3.2673    3.8657    0.3794 O   0  0  0  0  0  0  0  0  0  0  0  0
    5.8944    2.0475   -0.7118 S   0  5  0  0  0  0  0  0  0  0  0  0
    1.0323    2.6511    0.4594 S   0  0  0  0  0  0  0  0  0  0  0  0
    0.4483    0.1247   -0.9563 H   0  0  0  0  0  0  0  0  0  0  0  0
    1.9453   -0.1834   -0.0911 H   0  0  0  0  0  0  0  0  0  0  0  0
    4.2817    1.7973    1.7767 H   0  0  0  0  0  0  0  0  0  0  0  0
    3.0393    0.7215    1.3116 H   0  0  0  0  0  0  0  0  0  0  0  0
    0.6894   -2.2605   -0.0951 H   0  0  0  0  0  0  0  0  0  0  0  0
    4.8983    0.0003    0.0774 H   0  0  0  0  0  0  0  0  0  0  0  0
    3.8468    0.7500   -1.0940 H   0  0  0  0  0  0  0  0  0  0  0  0
   -0.5874    1.0795    1.0865 H   0  0  0  0  0  0  0  0  0  0  0  0
    0.8571    0.8300    2.0383 H   0  0  0  0  0  0  0  0  0  0  0  0
  1 11  1  0  0  0  0
  1 12  1  0  0  0  0
  2 13  1  0  0  0  0
  2 14  1  0  0  0  0
  3  1  1  0  0  0  0
  3 15  1  0  0  0  0
  4  2  1  0  0  0  0
  4 16  1  0  0  0  0
  4 17  1  0  0  0  0
  5  1  1  0  0  0  0
  5 18  1  0  0  0  0
  5 19  1  0  0  0  0
  6  2  1  0  0  0  0
  7  3  2  0  0  0  0
  8  6  2  0  0  0  0
  9  4  1  0  0  0  0
 10  5  1  0  0  0  0
 10  6  1  0  0  0  0
M  CHG  1   9  -1
M  END
>  <DRUGBANK_ID>
DB04749

>  <COMMON_NAME>
2-(3-OXO-PROPYLSULFANYLCARBONYL)-ETHANETHIOLATE

$$$$
