4831
 OpenBabel10282417143D

 28 29  0  0  0  0  0  0  0  0999 V2000
    1.5494    1.2906    0.3454 Cl  0  0  0  0  0  0  0  0  0  0  0  0
    1.3163   -1.7595   -0.0054 Cl  0  0  0  0  0  0  0  0  0  0  0  0
    0.3194    4.8618    0.9923 S   0  0  0  0  0  0  0  0  0  0  0  0
   -1.3544   -2.7829    0.0307 O   0  0  0  0  0  0  0  0  0  0  0  0
   -2.4314    3.4454   -0.0092 O   0  0  0  0  0  0  0  0  0  0  0  0
   -4.6168   -2.7646    1.2759 O   0  0  0  0  0  0  0  0  0  0  0  0
   -2.8692   -3.3526    2.5688 O   0  0  0  0  0  0  0  0  0  0  0  0
   -1.2105    1.4302   -0.0167 C   0  0  0  0  0  0  0  0  0  0  0  0
   -1.3679   -1.4140   -0.0030 C   0  0  0  0  0  0  0  0  0  0  0  0
   -0.0379    0.6420    0.0658 C   0  0  0  0  0  0  0  0  0  0  0  0
   -2.4465    0.7583   -0.0511 C   0  0  0  0  0  0  0  0  0  0  0  0
   -1.3094    2.9401   -0.0642 C   0  0  0  0  0  0  0  0  0  0  0  0
   -0.1248   -0.7696    0.0232 C   0  0  0  0  0  0  0  0  0  0  0  0
   -2.5190   -0.6343   -0.0409 C   0  0  0  0  0  0  0  0  0  0  0  0
   -0.1208    3.7447   -0.2266 C   0  0  0  0  0  0  0  0  0  0  0  0
    0.7977    3.7208   -1.2572 C   0  0  0  0  0  0  0  0  0  0  0  0
   -2.5862   -3.4725    0.1516 C   0  0  0  0  0  0  0  0  0  0  0  0
    1.9540    4.4959   -0.9564 C   0  0  0  0  0  0  0  0  0  0  0  0
    1.8221    5.1798    0.2320 C   0  0  0  0  0  0  0  0  0  0  0  0
   -3.3502   -3.2156    1.4500 C   0  0  0  0  0  0  0  0  0  0  0  0
   -4.9123   -2.6332    0.3552 H   0  0  0  0  0  0  0  0  0  0  0  0
   -3.3904    1.3086   -0.0672 H   0  0  0  0  0  0  0  0  0  0  0  0
   -3.5109   -1.0580   -0.0618 H   0  0  0  0  0  0  0  0  0  0  0  0
    0.7072    3.0676   -2.1166 H   0  0  0  0  0  0  0  0  0  0  0  0
   -3.1993   -3.2907   -0.7377 H   0  0  0  0  0  0  0  0  0  0  0  0
   -2.3572   -4.5452    0.1396 H   0  0  0  0  0  0  0  0  0  0  0  0
    2.8469    4.5227   -1.5681 H   0  0  0  0  0  0  0  0  0  0  0  0
    2.5430    5.8389    0.6967 H   0  0  0  0  0  0  0  0  0  0  0  0
  1 10  1  0  0  0  0
  2 13  1  0  0  0  0
  3 15  1  0  0  0  0
  3 19  1  0  0  0  0
  4  9  1  0  0  0  0
  4 17  1  0  0  0  0
  5 12  2  0  0  0  0
  6 20  1  0  0  0  0
  6 21  1  0  0  0  0
  7 20  2  0  0  0  0
  8 10  2  0  0  0  0
  8 11  1  0  0  0  0
  8 12  1  0  0  0  0
  9 13  2  0  0  0  0
  9 14  1  0  0  0  0
 10 13  1  0  0  0  0
 11 14  2  0  0  0  0
 11 22  1  0  0  0  0
 12 15  1  0  0  0  0
 14 23  1  0  0  0  0
 15 16  2  0  0  0  0
 16 18  1  0  0  0  0
 16 24  1  0  0  0  0
 17 20  1  0  0  0  0
 17 25  1  0  0  0  0
 17 26  1  0  0  0  0
 18 19  2  0  0  0  0
 18 27  1  0  0  0  0
 19 28  1  0  0  0  0
M  END
>  <DRUGBANK_ID>
DB04831

>  <COMMON_NAME>
Tienilic acid

>  <CAS_NUMBER>
40180-04-9

>  <UNII>
HC95205SY4

>  <SYNONYMS>
(2,3-Dichloro-4-(2-thenoyl)phenoxy)acetic acid; (2,3-Dichloro-4-(2-thiophenecarbonyl)phenoxy)acetic acid; 4-(2-Theonyl)-2,3-dichlorphenoxyessigsäure; 4-(2-Thienylketo)-2,3-dichlorophenoxyacetic acid; Acide tiénilique; ácido tienilico; Acidum tienilicum; Thienylic acid; Ticrynafen; Tienilic acid; Tienilico acido

$$$$
