
 OpenBabel10282417123D

 59 60  0  0  0  0  0  0  0  0999 V2000
    0.9576   -0.3061    0.0097 O   0  0  0  0  0  0  0  0  0  0  0  0
    2.2716    2.7580   -5.1207 O   0  0  0  0  0  0  0  0  0  0  0  0
    2.1485    0.5256   -4.8739 O   0  0  0  0  0  0  0  0  0  0  0  0
    5.6950   -2.5852   -0.7686 O   0  0  0  0  0  0  0  0  0  0  0  0
    5.3350   -2.7516    3.8289 O   0  0  0  0  0  0  0  0  0  0  0  0
    3.2159   -2.1923    3.3103 O   0  0  0  0  0  0  0  0  0  0  0  0
    2.5538    0.8502   -2.2125 N   0  0  0  0  0  0  0  0  0  0  0  0
    2.9594   -1.1750    0.5894 N   0  0  0  0  0  0  0  0  0  0  0  0
    4.5923   -3.6785    0.8763 N   0  0  0  0  0  0  0  0  0  0  0  0
    2.9001    0.9376   -0.8047 C   0  0  1  0  0  0  0  0  0  0  0  0
    3.2588    1.7902   -3.0884 C   0  0  1  0  0  0  0  0  0  0  0  0
    4.8086    1.6070   -2.9899 C   0  0  0  0  0  0  0  0  0  0  0  0
    2.5534    2.3438   -0.2585 C   0  0  0  0  0  0  0  0  0  0  0  0
    5.3326    0.2410   -3.4615 C   0  0  0  0  0  0  0  0  0  0  0  0
    2.1843   -0.2333   -0.0759 C   0  0  0  0  0  0  0  0  0  0  0  0
    2.8992    2.6135    1.1781 C   0  0  0  0  0  0  0  0  0  0  0  0
    2.5283    1.6085   -4.4488 C   0  0  0  0  0  0  0  0  0  0  0  0
    4.4312   -1.2359    0.7738 C   0  0  1  0  0  0  0  0  0  0  0  0
    5.1376    0.0365   -4.9436 C   0  0  0  0  0  0  0  0  0  0  0  0
    4.9991   -1.0350    2.1961 C   0  0  0  0  0  0  0  0  0  0  0  0
    2.9932    3.8977    1.6872 C   0  0  0  0  0  0  0  0  0  0  0  0
    3.0303    1.5798    2.0877 C   0  0  0  0  0  0  0  0  0  0  0  0
    4.9671   -1.2619   -5.4302 C   0  0  0  0  0  0  0  0  0  0  0  0
    4.9192    1.1188   -5.8139 C   0  0  0  0  0  0  0  0  0  0  0  0
    4.9454   -2.5478    0.2032 C   0  0  0  0  0  0  0  0  0  0  0  0
    3.2080    4.0796    3.0609 C   0  0  0  0  0  0  0  0  0  0  0  0
    3.1988    1.7260    3.4452 C   0  0  0  0  0  0  0  0  0  0  0  0
    3.3201    2.9951    3.9362 C   0  0  0  0  0  0  0  0  0  0  0  0
    4.4780   -1.4613   -6.7218 C   0  0  0  0  0  0  0  0  0  0  0  0
    4.2885    0.9160   -7.0362 C   0  0  0  0  0  0  0  0  0  0  0  0
    4.4302   -2.0090    3.1737 C   0  0  0  0  0  0  0  0  0  0  0  0
    4.1020   -0.3735   -7.5086 C   0  0  0  0  0  0  0  0  0  0  0  0
    2.6759   -0.0995   -2.5817 H   0  0  0  0  0  0  0  0  0  0  0  0
    2.3841   -1.7866    1.1677 H   0  0  0  0  0  0  0  0  0  0  0  0
    3.8959   -3.7027    1.6163 H   0  0  0  0  0  0  0  0  0  0  0  0
    4.9082   -4.5669    0.5133 H   0  0  0  0  0  0  0  0  0  0  0  0
    2.3702    3.5716   -4.5981 H   0  0  0  0  0  0  0  0  0  0  0  0
    6.2702   -2.5744    3.6037 H   0  0  0  0  0  0  0  0  0  0  0  0
    3.9655    0.8045   -0.6990 H   0  0  0  0  0  0  0  0  0  0  0  0
    3.0348    2.8201   -2.7935 H   0  0  0  0  0  0  0  0  0  0  0  0
    5.3350    2.4206   -3.4998 H   0  0  0  0  0  0  0  0  0  0  0  0
    5.1424    1.7443   -1.9513 H   0  0  0  0  0  0  0  0  0  0  0  0
    3.1119    3.0950   -0.8331 H   0  0  0  0  0  0  0  0  0  0  0  0
    1.4874    2.5468   -0.4162 H   0  0  0  0  0  0  0  0  0  0  0  0
    6.3915    0.1185   -3.2067 H   0  0  0  0  0  0  0  0  0  0  0  0
    4.7993   -0.5457   -2.9065 H   0  0  0  0  0  0  0  0  0  0  0  0
    4.9053   -0.4598    0.1768 H   0  0  0  0  0  0  0  0  0  0  0  0
    6.0927   -1.1024    2.1720 H   0  0  0  0  0  0  0  0  0  0  0  0
    4.8234   -0.0439    2.6028 H   0  0  0  0  0  0  0  0  0  0  0  0
    2.8798    4.7572    1.0322 H   0  0  0  0  0  0  0  0  0  0  0  0
    2.9953    0.5718    1.7784 H   0  0  0  0  0  0  0  0  0  0  0  0
    5.1272   -2.1194   -4.7801 H   0  0  0  0  0  0  0  0  0  0  0  0
    5.0118    2.1489   -5.4834 H   0  0  0  0  0  0  0  0  0  0  0  0
    3.2555    5.0827    3.4649 H   0  0  0  0  0  0  0  0  0  0  0  0
    3.2248    0.8343    4.0655 H   0  0  0  0  0  0  0  0  0  0  0  0
    3.4864    3.1218    4.9972 H   0  0  0  0  0  0  0  0  0  0  0  0
    4.3016   -2.4693   -7.0816 H   0  0  0  0  0  0  0  0  0  0  0  0
    3.8266    1.7603   -7.5442 H   0  0  0  0  0  0  0  0  0  0  0  0
    3.6147   -0.5244   -8.4656 H   0  0  0  0  0  0  0  0  0  0  0  0
  1 15  2  0  0  0  0
  2 17  1  0  0  0  0
  2 37  1  0  0  0  0
  3 17  2  0  0  0  0
  4 25  2  0  0  0  0
  5 31  1  0  0  0  0
  5 38  1  0  0  0  0
  6 31  2  0  0  0  0
  7 33  1  0  0  0  0
  8 15  1  0  0  0  0
  8 34  1  0  0  0  0
  9 25  1  0  0  0  0
  9 35  1  0  0  0  0
  9 36  1  0  0  0  0
 10  7  1  0  0  0  0
 10 13  1  0  0  0  0
 10 15  1  0  0  0  0
 10 39  1  1  0  0  0
 11  7  1  0  0  0  0
 11 12  1  0  0  0  0
 11 17  1  0  0  0  0
 11 40  1  1  0  0  0
 12 14  1  0  0  0  0
 12 41  1  0  0  0  0
 12 42  1  0  0  0  0
 13 16  1  0  0  0  0
 13 43  1  0  0  0  0
 13 44  1  0  0  0  0
 14 19  1  0  0  0  0
 14 45  1  0  0  0  0
 14 46  1  0  0  0  0
 16 21  2  0  0  0  0
 16 22  1  0  0  0  0
 18  8  1  0  0  0  0
 18 20  1  0  0  0  0
 18 25  1  0  0  0  0
 18 47  1  6  0  0  0
 19 23  2  0  0  0  0
 19 24  1  0  0  0  0
 20 31  1  0  0  0  0
 20 48  1  0  0  0  0
 20 49  1  0  0  0  0
 21 26  1  0  0  0  0
 21 50  1  0  0  0  0
 22 27  2  0  0  0  0
 22 51  1  0  0  0  0
 23 29  1  0  0  0  0
 23 52  1  0  0  0  0
 24 30  2  0  0  0  0
 24 53  1  0  0  0  0
 26 28  2  0  0  0  0
 26 54  1  0  0  0  0
 27 28  1  0  0  0  0
 27 55  1  0  0  0  0
 28 56  1  0  0  0  0
 29 32  2  0  0  0  0
 29 57  1  0  0  0  0
 30 32  1  0  0  0  0
 30 58  1  0  0  0  0
 32 59  1  0  0  0  0
M  END
>  <DRUGBANK_ID>
DB02307

>  <SECONDARY_ACCESSION_NUMBERS>
EXPT01770

>  <COMMON_NAME>
N-(1-carboxy-3-phenylpropyl)phenylalanyl-alpha-asparagine

$$$$
