
 OpenBabel10282417123D

 55 58  0  0  0  0  0  0  0  0999 V2000
    2.1983   -1.3609   -0.7158 C   0  0  0  0  0  0  0  0  0  0  0  0
    3.6883   -1.2771   -0.3851 C   0  0  0  0  0  0  0  0  0  0  0  0
    4.1851    0.1652   -0.4502 C   0  0  1  0  0  0  0  0  0  0  0  0
    3.3586    1.0810    0.4545 C   0  0  0  0  0  0  0  0  0  0  0  0
    1.8743    0.9487    0.1996 C   0  0  0  0  0  0  0  0  0  0  0  0
    1.1240    2.0436   -0.0184 C   0  0  0  0  0  0  0  0  0  0  0  0
   -0.3578    2.0300   -0.2174 C   0  0  0  0  0  0  0  0  0  0  0  0
   -0.8826   -1.8655   -0.2305 C   0  0  0  0  0  0  0  0  0  0  0  0
   -2.3652   -1.8521   -0.6288 C   0  0  0  0  0  0  0  0  0  0  0  0
   -2.3689    0.6117   -1.4626 H   0  0  0  0  0  0  0  0  0  0  0  0
   -0.1654   -0.4937   -0.3819 C   0  0  2  0  0  0  0  0  0  0  0  0
   -0.0885   -0.3214   -1.4680 H   0  0  0  0  0  0  0  0  0  0  0  0
   -3.1035   -0.8547    1.6275 C   0  0  0  0  0  0  0  0  0  0  0  0
    1.3015   -0.4758    0.1971 C   0  0  1  0  0  0  0  0  0  0  0  0
    1.3354   -1.0145    1.6476 C   0  0  0  0  0  0  0  0  0  0  0  0
   -1.0006    0.6942    0.1711 C   0  0  2  0  0  0  0  0  0  0  0  0
   -1.0101    0.6539    1.2666 H   0  0  0  0  0  0  0  0  0  0  0  0
   -4.5556   -0.4842   -0.4624 C   0  0  2  0  0  0  0  0  0  0  0  0
   -3.1299   -0.7217    0.0834 C   0  0  2  0  0  0  0  0  0  0  0  0
   -3.4208    1.6820    0.0214 C   0  0  0  0  0  0  0  0  0  0  0  0
   -4.7914    1.0328   -0.2174 C   0  0  0  0  0  0  0  0  0  0  0  0
   -2.4334    0.5914   -0.3617 C   0  0  1  0  0  0  0  0  0  0  0  0
   -5.7744   -1.2896    0.0091 C   0  0  0  0  0  0  0  0  0  0  0  0
   -5.6820   -2.4718    0.9381 C   0  0  0  0  0  0  0  0  0  0  0  0
   -6.9030   -0.9507   -0.3841 O   0  0  0  0  0  0  0  0  0  0  0  0
    5.5578    0.2101   -0.0663 O   0  0  0  0  0  0  0  0  0  0  0  0
    2.0676   -1.0541   -1.7633 H   0  0  0  0  0  0  0  0  0  0  0  0
    1.8881   -2.4103   -0.6589 H   0  0  0  0  0  0  0  0  0  0  0  0
    4.2614   -1.8962   -1.0853 H   0  0  0  0  0  0  0  0  0  0  0  0
    3.8876   -1.7029    0.6058 H   0  0  0  0  0  0  0  0  0  0  0  0
    4.1268    0.5233   -1.4849 H   0  0  0  0  0  0  0  0  0  0  0  0
    3.5637    0.8476    1.5070 H   0  0  0  0  0  0  0  0  0  0  0  0
    3.7010    2.1150    0.3233 H   0  0  0  0  0  0  0  0  0  0  0  0
    1.5912    3.0262   -0.0428 H   0  0  0  0  0  0  0  0  0  0  0  0
   -0.7981    2.8273    0.3941 H   0  0  0  0  0  0  0  0  0  0  0  0
   -0.5712    2.2716   -1.2647 H   0  0  0  0  0  0  0  0  0  0  0  0
   -0.3661   -2.6169   -0.8384 H   0  0  0  0  0  0  0  0  0  0  0  0
   -0.8303   -2.2219    0.8001 H   0  0  0  0  0  0  0  0  0  0  0  0
   -2.4205   -1.7218   -1.7198 H   0  0  0  0  0  0  0  0  0  0  0  0
   -2.8141   -2.8274   -0.4163 H   0  0  0  0  0  0  0  0  0  0  0  0
   -3.5544    0.0123    2.1173 H   0  0  0  0  0  0  0  0  0  0  0  0
   -3.6305   -1.7217    2.0078 H   0  0  0  0  0  0  0  0  0  0  0  0
   -2.0955   -0.9734    2.0275 H   0  0  0  0  0  0  0  0  0  0  0  0
    0.6924   -0.4274    2.3114 H   0  0  0  0  0  0  0  0  0  0  0  0
    1.0163   -2.0596    1.7020 H   0  0  0  0  0  0  0  0  0  0  0  0
    2.3399   -0.9919    2.0805 H   0  0  0  0  0  0  0  0  0  0  0  0
   -4.5319   -0.6405   -1.5533 H   0  0  0  0  0  0  0  0  0  0  0  0
   -3.3120    1.9833    1.0689 H   0  0  0  0  0  0  0  0  0  0  0  0
   -3.2893    2.5813   -0.5898 H   0  0  0  0  0  0  0  0  0  0  0  0
   -5.4441    1.2108    0.6440 H   0  0  0  0  0  0  0  0  0  0  0  0
   -5.2764    1.4862   -1.0902 H   0  0  0  0  0  0  0  0  0  0  0  0
   -6.0430   -2.1685    1.9276 H   0  0  0  0  0  0  0  0  0  0  0  0
   -6.3133   -3.2792    0.5597 H   0  0  0  0  0  0  0  0  0  0  0  0
   -4.6899   -2.9088    1.0126 H   0  0  0  0  0  0  0  0  0  0  0  0
    5.6234   -0.1061    0.8510 H   0  0  0  0  0  0  0  0  0  0  0  0
  1 27  1  0  0  0  0
  1 28  1  0  0  0  0
  2  1  1  0  0  0  0
  2 29  1  0  0  0  0
  2 30  1  0  0  0  0
  3  4  1  0  0  0  0
  3  2  1  0  0  0  0
  3 26  1  0  0  0  0
  3 31  1  6  0  0  0
  4  5  1  0  0  0  0
  4 32  1  0  0  0  0
  4 33  1  0  0  0  0
  6  7  1  0  0  0  0
  6  5  2  0  0  0  0
  6 34  1  0  0  0  0
  7 35  1  0  0  0  0
  7 36  1  0  0  0  0
  8  9  1  0  0  0  0
  8 37  1  0  0  0  0
  8 38  1  0  0  0  0
  9 39  1  0  0  0  0
  9 40  1  0  0  0  0
 11  8  1  0  0  0  0
 11 14  1  0  0  0  0
 11 12  1  6  0  0  0
 13 41  1  0  0  0  0
 13 42  1  0  0  0  0
 13 43  1  0  0  0  0
 14  5  1  0  0  0  0
 14  1  1  0  0  0  0
 14 15  1  1  0  0  0
 15 44  1  0  0  0  0
 15 45  1  0  0  0  0
 15 46  1  0  0  0  0
 16 11  1  0  0  0  0
 16  7  1  0  0  0  0
 16 17  1  1  0  0  0
 18 21  1  0  0  0  0
 18 47  1  6  0  0  0
 18 23  1  0  0  0  0
 19  9  1  0  0  0  0
 19 13  1  1  0  0  0
 19 18  1  0  0  0  0
 20 48  1  0  0  0  0
 20 49  1  0  0  0  0
 21 20  1  0  0  0  0
 21 50  1  0  0  0  0
 21 51  1  0  0  0  0
 22 16  1  0  0  0  0
 22 10  1  6  0  0  0
 22 19  1  0  0  0  0
 22 20  1  0  0  0  0
 24 23  1  0  0  0  0
 24 52  1  0  0  0  0
 24 53  1  0  0  0  0
 24 54  1  0  0  0  0
 25 23  2  0  0  0  0
 26 55  1  0  0  0  0
M  END
>  <DRUGBANK_ID>
DB02789

>  <SECONDARY_ACCESSION_NUMBERS>
EXPT02608

>  <COMMON_NAME>
Pregnenolone

>  <CAS_NUMBER>
145-13-1

>  <UNII>
73R90F7MQ8

>  <SYNONYMS>
Pregnenolone

$$$$
