
 OpenBabel10282417183D

169173  0  0  0  0  0  0  0  0999 V2000
   -1.4315    6.7901   -4.8492 C   0  0  0  0  0  0  0  0  0  0  0  0
   -9.2201    2.2659   -2.9874 C   0  0  0  0  0  0  0  0  0  0  0  0
    2.9914   10.9053    2.1511 C   0  0  0  0  0  0  0  0  0  0  0  0
   -3.3897    0.9425    0.4894 C   0  0  0  0  0  0  0  0  0  0  0  0
   -2.4301    4.5909    3.0350 C   0  0  0  0  0  0  0  0  0  0  0  0
   -3.3431    7.0803   -5.4514 C   0  0  0  0  0  0  0  0  0  0  0  0
   -9.3833    4.5520   -2.6504 C   0  0  0  0  0  0  0  0  0  0  0  0
   -2.7348    2.6563    0.5680 C   0  0  0  0  0  0  0  0  0  0  0  0
   -5.9403    2.6425    2.0981 C   0  0  0  0  0  0  0  0  0  0  0  0
   -1.1177    8.4276   -2.0572 C   0  0  0  0  0  0  0  0  0  0  0  0
   -4.8677    3.8886    3.7704 C   0  0  0  0  0  0  0  0  0  0  0  0
   -4.9514    7.3076   -8.1052 C   0  0  0  0  0  0  0  0  0  0  0  0
   -5.0529    4.5462   -4.5554 C   0  0  0  0  0  0  0  0  0  0  0  0
   -8.8618    7.5055   -5.0268 C   0  0  0  0  0  0  0  0  0  0  0  0
   -2.0916    6.7748   -3.5067 C   0  0  0  0  0  0  0  0  0  0  0  0
   -7.8715    2.2570   -2.8926 C   0  0  0  0  0  0  0  0  0  0  0  0
   -2.1682    5.6277   -2.9354 C   0  0  0  0  0  0  0  0  0  0  0  0
    0.2616    7.6464    2.6368 C   0  0  0  0  0  0  0  0  0  0  0  0
   -2.9464    6.3072   -1.5758 C   0  0  0  0  0  0  0  0  0  0  0  0
    1.1317    8.6560    2.5489 C   0  0  0  0  0  0  0  0  0  0  0  0
    0.2270    6.9710    3.9061 C   0  0  0  0  0  0  0  0  0  0  0  0
   -3.4038    4.3224    0.2944 C   0  0  0  0  0  0  0  0  0  0  0  0
   -3.1586    5.4809   -0.1467 C   0  0  0  0  0  0  0  0  0  0  0  0
    1.3744    9.4360    1.3993 C   0  0  0  0  0  0  0  0  0  0  0  0
   -3.7869    3.9301    1.5898 C   0  0  0  0  0  0  0  0  0  0  0  0
   -0.4899    5.8983    4.0789 C   0  0  0  0  0  0  0  0  0  0  0  0
   -4.5705    5.2957   -0.9249 C   0  0  0  0  0  0  0  0  0  0  0  0
    0.7000   11.1482   -3.6911 C   0  0  0  0  0  0  0  0  0  0  0  0
   -4.0352    5.4524   -2.4510 C   0  0  0  0  0  0  0  0  0  0  0  0
   -0.1467   10.1270   -3.5730 C   0  0  0  0  0  0  0  0  0  0  0  0
    2.1154   10.4947    1.0409 C   0  0  0  0  0  0  0  0  0  0  0  0
   -3.7345    2.2745    1.9985 C   0  0  0  0  0  0  0  0  0  0  0  0
   -2.0549    3.1923    3.3666 C   0  0  3  0  0  0  0  0  0  0  0  0
   -4.6762    7.3602   -5.4086 C   0  0  3  0  0  0  0  0  0  0  0  0
   -7.6825    4.6625   -3.1407 C   0  0  3  0  0  0  0  0  0  0  0  0
   -7.7392    3.6239   -1.3798 C   0  0  3  0  0  0  0  0  0  0  0  0
    1.5548   11.6055   -2.5880 C   0  0  0  0  0  0  0  0  0  0  0  0
   -0.8001    5.0716    5.3419 C   0  0  3  0  0  0  0  0  0  0  0  0
   -5.6542    4.7594    0.6009 C   0  0  3  0  0  0  0  0  0  0  0  0
    1.4273   10.8912   -1.3432 C   0  0  0  0  0  0  0  0  0  0  0  0
    2.1790   11.2051   -0.2738 C   0  0  0  0  0  0  0  0  0  0  0  0
   -2.2125    5.1434    5.9824 C   0  0  3  0  0  0  0  0  0  0  0  0
   -2.8330    3.8017    5.6849 C   0  0  3  0  0  0  0  0  0  0  0  0
   -6.5285    6.1354   -6.1227 C   0  0  3  0  0  0  0  0  0  0  0  0
   -5.2079    3.8556   -1.4084 C   0  0  3  0  0  0  0  0  0  0  0  0
   -3.1570    2.1937    3.2145 C   0  0  3  0  0  0  0  0  0  0  0  0
   -1.8362    3.0436    4.8243 C   0  0  3  0  0  0  0  0  0  0  0  0
   -5.0800    6.1391   -6.2453 C   0  0  3  0  0  0  0  0  0  0  0  0
   -6.8743    6.4598   -2.0545 C   0  0  3  0  0  0  0  0  0  0  0  0
   -5.6116    6.0778   -1.8953 C   0  0  3  0  0  0  0  0  0  0  0  0
   -7.0214    6.3976   -4.7799 C   0  0  3  0  0  0  0  0  0  0  0  0
   -7.2183    2.1514    0.1779 C   0  0  3  0  0  0  0  0  0  0  0  0
   -5.7702    1.7980    0.0417 C   0  0  3  0  0  0  0  0  0  0  0  0
   -7.0975    4.8347   -1.6113 C   0  0  0  0  0  0  0  0  0  0  0  0
    0.4377    9.8615   -1.3521 C   0  0  0  0  0  0  0  0  0  0  0  0
   -5.3495    2.6295   -2.0662 C   0  0  3  0  0  0  0  0  0  0  0  0
   -6.3473    7.5149   -3.8649 C   0  0  3  0  0  0  0  0  0  0  0  0
   -4.9749    2.8167    0.7441 C   0  0  0  0  0  0  0  0  0  0  0  0
   -7.6746    3.5477   -0.0060 C   0  0  3  0  0  0  0  0  0  0  0  0
   -5.9480    4.8046   -2.7740 N   0  0  0  0  0  0  0  0  0  0  0  0
   -0.2328    9.4749   -2.4094 N   0  0  0  0  0  0  0  0  0  0  0  0
    2.3392   12.5341   -2.7173 O   0  0  0  0  0  0  0  0  0  0  0  0
    3.1037   12.2728   -0.3550 O   0  0  0  0  0  0  0  0  0  0  0  0
   -2.1706    5.3104    7.3909 O   0  0  0  0  0  0  0  0  0  0  0  0
   -3.3170    3.0580    6.7746 O   0  0  0  0  0  0  0  0  0  0  0  0
   -6.9640    7.3268   -6.6692 O   0  0  0  0  0  0  0  0  0  0  0  0
   -3.1047    3.6557   -1.6132 O   0  0  0  0  0  0  0  0  0  0  0  0
   -7.9165    1.1719   -0.5061 O   0  0  0  0  0  0  0  0  0  0  0  0
   -8.4386    6.0640   -2.1802 O   0  0  0  0  0  0  0  0  0  0  0  0
   -0.0741    9.3570   -0.3947 O   0  0  0  0  0  0  0  0  0  0  0  0
   -9.0281    3.7161   -0.0593 O   0  0  0  0  0  0  0  0  0  0  0  0
   -4.2700    2.5729    3.9728 O   0  0  0  0  0  0  0  0  0  0  0  0
   -4.5764    6.1086   -7.5496 O   0  0  0  0  0  0  0  0  0  0  0  0
   -5.0773    5.9359   -3.7962 O   0  0  0  0  0  0  0  0  0  0  0  0
   -8.3963    6.2844   -4.6442 O   0  0  0  0  0  0  0  0  0  0  0  0
   -6.4817    3.1162   -2.5741 O   0  0  0  0  0  0  0  0  0  0  0  0
   -4.9948    7.8694   -4.1041 O   0  0  0  0  0  0  0  0  0  0  0  0
   -0.5749    3.6416    5.1411 O   0  0  0  0  0  0  0  0  0  0  0  0
   -6.8587    7.7010   -2.5576 O   0  0  0  0  0  0  0  0  0  0  0  0
   -5.2489    1.5340   -1.2411 O   0  0  0  0  0  0  0  0  0  0  0  0
   -7.0983    4.7091    0.5936 O   0  0  0  0  0  0  0  0  0  0  0  0
   -2.6962    7.5622   -2.9661 H   0  0  0  0  0  0  0  0  0  0  0  0
   -2.6611    4.9057   -3.7616 H   0  0  0  0  0  0  0  0  0  0  0  0
   -0.3878    7.3541    1.7873 H   0  0  0  0  0  0  0  0  0  0  0  0
   -3.1930    7.1723   -1.1223 H   0  0  0  0  0  0  0  0  0  0  0  0
    1.7329    8.9030    3.3750 H   0  0  0  0  0  0  0  0  0  0  0  0
    0.8075    7.2305    4.7505 H   0  0  0  0  0  0  0  0  0  0  0  0
   -3.8398    3.1481   -0.4857 H   0  0  0  0  0  0  0  0  0  0  0  0
   -4.2760    6.4016    0.2504 H   0  0  0  0  0  0  0  0  0  0  0  0
    0.7704    8.8106    0.8435 H   0  0  0  0  0  0  0  0  0  0  0  0
   -3.8580    4.9897    1.7820 H   0  0  0  0  0  0  0  0  0  0  0  0
   -0.8351    5.7569    3.0524 H   0  0  0  0  0  0  0  0  0  0  0  0
   -4.2013    4.1710   -2.0910 H   0  0  0  0  0  0  0  0  0  0  0  0
   -1.7386    5.7418   -5.4589 H   0  0  0  0  0  0  0  0  0  0  0  0
   -0.4289    6.9102   -4.7152 H   0  0  0  0  0  0  0  0  0  0  0  0
   -1.6950    7.8716   -5.5437 H   0  0  0  0  0  0  0  0  0  0  0  0
   -9.2265    3.0266   -3.6844 H   0  0  0  0  0  0  0  0  0  0  0  0
   -9.4668    1.5028   -3.5898 H   0  0  0  0  0  0  0  0  0  0  0  0
   -9.5388    2.4151   -2.0009 H   0  0  0  0  0  0  0  0  0  0  0  0
    4.0292   10.7619    1.8786 H   0  0  0  0  0  0  0  0  0  0  0  0
    2.7643   11.9144    2.4558 H   0  0  0  0  0  0  0  0  0  0  0  0
    2.8322   10.2807    3.0319 H   0  0  0  0  0  0  0  0  0  0  0  0
   -2.2643    0.7383    0.3012 H   0  0  0  0  0  0  0  0  0  0  0  0
   -4.0030    0.1417    0.5941 H   0  0  0  0  0  0  0  0  0  0  0  0
   -3.4196    1.3612   -0.6702 H   0  0  0  0  0  0  0  0  0  0  0  0
   -3.1381    5.1975    3.5109 H   0  0  0  0  0  0  0  0  0  0  0  0
   -2.0998    5.2558    3.6651 H   0  0  0  0  0  0  0  0  0  0  0  0
   -2.2915    5.0766    2.0749 H   0  0  0  0  0  0  0  0  0  0  0  0
   -2.7562    6.9378   -6.4586 H   0  0  0  0  0  0  0  0  0  0  0  0
   -2.9869    8.0316   -4.6785 H   0  0  0  0  0  0  0  0  0  0  0  0
   -3.2890    6.0676   -4.9655 H   0  0  0  0  0  0  0  0  0  0  0  0
   -9.7656    5.5021   -3.0873 H   0  0  0  0  0  0  0  0  0  0  0  0
   -9.5719    4.5000   -3.6612 H   0  0  0  0  0  0  0  0  0  0  0  0
   -9.4292    4.9477   -1.5802 H   0  0  0  0  0  0  0  0  0  0  0  0
   -2.1073    3.4409    1.1847 H   0  0  0  0  0  0  0  0  0  0  0  0
   -2.1244    1.9921    1.2403 H   0  0  0  0  0  0  0  0  0  0  0  0
   -2.3187    2.7011   -0.3879 H   0  0  0  0  0  0  0  0  0  0  0  0
   -6.8896    3.1119    2.3395 H   0  0  0  0  0  0  0  0  0  0  0  0
   -5.5961    1.8631    2.7321 H   0  0  0  0  0  0  0  0  0  0  0  0
   -5.9633    3.5784    2.4857 H   0  0  0  0  0  0  0  0  0  0  0  0
   -2.1241    8.8390   -2.1579 H   0  0  0  0  0  0  0  0  0  0  0  0
   -0.7319    7.6206   -2.6448 H   0  0  0  0  0  0  0  0  0  0  0  0
   -1.1389    7.9301   -1.0539 H   0  0  0  0  0  0  0  0  0  0  0  0
   -4.4072    4.7799    3.9118 H   0  0  0  0  0  0  0  0  0  0  0  0
   -4.9544    4.5080    2.8044 H   0  0  0  0  0  0  0  0  0  0  0  0
   -5.8387    4.0393    4.1632 H   0  0  0  0  0  0  0  0  0  0  0  0
   -6.0138    7.3557   -8.1549 H   0  0  0  0  0  0  0  0  0  0  0  0
   -4.5485    8.1426   -7.5470 H   0  0  0  0  0  0  0  0  0  0  0  0
   -4.6481    7.3316   -9.1072 H   0  0  0  0  0  0  0  0  0  0  0  0
   -4.8450    3.5898   -4.1596 H   0  0  0  0  0  0  0  0  0  0  0  0
   -5.9335    4.1134   -4.3490 H   0  0  0  0  0  0  0  0  0  0  0  0
   -4.0888    4.4186   -4.9269 H   0  0  0  0  0  0  0  0  0  0  0  0
   -8.3498    8.2882   -4.4810 H   0  0  0  0  0  0  0  0  0  0  0  0
   -8.6678    7.4998   -6.0635 H   0  0  0  0  0  0  0  0  0  0  0  0
   -9.8979    7.5091   -4.8734 H   0  0  0  0  0  0  0  0  0  0  0  0
   -7.1262    2.4805   -3.9224 H   0  0  0  0  0  0  0  0  0  0  0  0
   -7.2462    1.3561   -2.7777 H   0  0  0  0  0  0  0  0  0  0  0  0
    0.8251   11.6982   -4.5941 H   0  0  0  0  0  0  0  0  0  0  0  0
   -3.9194    4.5332   -3.2436 H   0  0  0  0  0  0  0  0  0  0  0  0
   -4.1240    6.6964   -2.7593 H   0  0  0  0  0  0  0  0  0  0  0  0
   -0.7747    9.7912   -4.3720 H   0  0  0  0  0  0  0  0  0  0  0  0
   -1.1681    2.9912    2.7540 H   0  0  0  0  0  0  0  0  0  0  0  0
   -4.6747    8.2819   -5.8599 H   0  0  0  0  0  0  0  0  0  0  0  0
   -7.4204    4.1822   -3.9872 H   0  0  0  0  0  0  0  0  0  0  0  0
   -6.7734    4.0749   -1.2736 H   0  0  0  0  0  0  0  0  0  0  0  0
   -0.0938    5.4771    6.0534 H   0  0  0  0  0  0  0  0  0  0  0  0
   -5.3570    5.5818    1.2511 H   0  0  0  0  0  0  0  0  0  0  0  0
   -2.8017    5.9733    5.5655 H   0  0  0  0  0  0  0  0  0  0  0  0
   -3.7426    4.0527    5.2473 H   0  0  0  0  0  0  0  0  0  0  0  0
   -6.9484    5.2097   -6.5259 H   0  0  0  0  0  0  0  0  0  0  0  0
   -5.3281    3.6775   -0.4882 H   0  0  0  0  0  0  0  0  0  0  0  0
   -2.8687    1.1587    3.0723 H   0  0  0  0  0  0  0  0  0  0  0  0
   -1.9075    1.9545    4.9871 H   0  0  0  0  0  0  0  0  0  0  0  0
   -4.6145    5.1862   -6.1461 H   0  0  0  0  0  0  0  0  0  0  0  0
   -7.1684    6.3618   -0.7046 H   0  0  0  0  0  0  0  0  0  0  0  0
   -5.0411    7.0112   -1.3691 H   0  0  0  0  0  0  0  0  0  0  0  0
   -6.8519    5.4299   -4.6046 H   0  0  0  0  0  0  0  0  0  0  0  0
   -7.5797    2.0948    1.1613 H   0  0  0  0  0  0  0  0  0  0  0  0
   -5.5493    0.9291    0.6077 H   0  0  0  0  0  0  0  0  0  0  0  0
   -4.8490    2.7698   -2.9152 H   0  0  0  0  0  0  0  0  0  0  0  0
   -6.6207    8.3643   -4.3531 H   0  0  0  0  0  0  0  0  0  0  0  0
    3.0933   12.7101   -1.2527 H   0  0  0  0  0  0  0  0  0  0  0  0
   -1.6925    4.5477    7.7548 H   0  0  0  0  0  0  0  0  0  0  0  0
   -2.5417    2.8614    7.3010 H   0  0  0  0  0  0  0  0  0  0  0  0
   -6.5623    8.0617   -6.1713 H   0  0  0  0  0  0  0  0  0  0  0  0
   -2.7479    3.8108   -2.4868 H   0  0  0  0  0  0  0  0  0  0  0  0
   -7.4324    1.1302   -1.3323 H   0  0  0  0  0  0  0  0  0  0  0  0
   -8.2912    6.5637   -3.1337 H   0  0  0  0  0  0  0  0  0  0  0  0
   -9.2837    2.9835   -0.6384 H   0  0  0  0  0  0  0  0  0  0  0  0
  1 94  1  0  0  0  0
  1 95  1  0  0  0  0
  1 96  1  0  0  0  0
  2 97  1  0  0  0  0
  2 98  1  0  0  0  0
  2 99  1  0  0  0  0
  3100  1  0  0  0  0
  3101  1  0  0  0  0
  3102  1  0  0  0  0
  4103  1  0  0  0  0
  4104  1  0  0  0  0
  4105  1  0  0  0  0
  5106  1  0  0  0  0
  5107  1  0  0  0  0
  5108  1  0  0  0  0
  6109  1  0  0  0  0
  6110  1  0  0  0  0
  6111  1  0  0  0  0
  7112  1  0  0  0  0
  7113  1  0  0  0  0
  7114  1  0  0  0  0
  8115  1  0  0  0  0
  8116  1  0  0  0  0
  8117  1  0  0  0  0
  9118  1  0  0  0  0
  9119  1  0  0  0  0
  9120  1  0  0  0  0
 10121  1  0  0  0  0
 10122  1  0  0  0  0
 10123  1  0  0  0  0
 11124  1  0  0  0  0
 11125  1  0  0  0  0
 11126  1  0  0  0  0
 12127  1  0  0  0  0
 12128  1  0  0  0  0
 12129  1  0  0  0  0
 13130  1  0  0  0  0
 13131  1  0  0  0  0
 13132  1  0  0  0  0
 14133  1  0  0  0  0
 14134  1  0  0  0  0
 14135  1  0  0  0  0
 15  1  1  0  0  0  0
 16  2  1  0  0  0  0
 16136  1  0  0  0  0
 16137  1  0  0  0  0
 17 15  2  0  0  0  0
 19 17  1  0  0  0  0
 20 18  2  0  0  0  0
 21 18  1  0  0  0  0
 23 22  2  0  0  0  0
 24 20  1  0  0  0  0
 25 22  1  0  0  0  0
 26 21  2  0  0  0  0
 27 19  2  0  0  0  0
 28138  1  0  0  0  0
 29 23  1  0  0  0  0
 29139  1  0  0  0  0
 29140  1  0  0  0  0
 30 28  2  0  0  0  0
 30141  1  0  0  0  0
 31  3  1  0  0  0  0
 31 24  2  0  0  0  0
 32  4  1  0  0  0  0
 32 25  2  0  0  0  0
 33  5  1  0  0  0  0
 33142  1  0  0  0  0
 34  6  1  0  0  0  0
 34143  1  0  0  0  0
 35  7  1  0  0  0  0
 35144  1  0  0  0  0
 36 16  1  0  0  0  0
 36145  1  0  0  0  0
 37 28  1  0  0  0  0
 38 26  1  0  0  0  0
 38146  1  0  0  0  0
 39 27  1  0  0  0  0
 39147  1  0  0  0  0
 40 37  1  0  0  0  0
 41 31  1  0  0  0  0
 41 40  2  0  0  0  0
 42 38  1  0  0  0  0
 42148  1  0  0  0  0
 43 42  1  0  0  0  0
 43149  1  0  0  0  0
 44150  1  0  0  0  0
 45151  1  0  0  0  0
 46 32  1  0  0  0  0
 46 33  1  0  0  0  0
 46152  1  0  0  0  0
 47 33  1  0  0  0  0
 47 43  1  0  0  0  0
 47153  1  0  0  0  0
 48 34  1  0  0  0  0
 48 44  1  0  0  0  0
 48154  1  0  0  0  0
 49 35  1  0  0  0  0
 49155  1  0  0  0  0
 50 45  1  0  0  0  0
 50 49  1  0  0  0  0
 50156  1  0  0  0  0
 51 44  1  0  0  0  0
 51157  1  0  0  0  0
 52158  1  0  0  0  0
 53 52  1  0  0  0  0
 53159  1  0  0  0  0
 54 36  1  0  0  0  0
 55 40  1  0  0  0  0
 56 45  1  0  0  0  0
 56160  1  0  0  0  0
 57 51  1  0  0  0  0
 57161  1  0  0  0  0
 58  8  1  0  0  0  0
 58  9  1  0  0  0  0
 58 39  1  0  0  0  0
 58 53  1  0  0  0  0
 59 36  1  0  0  0  0
 59 52  1  0  0  0  0
 60 29  1  0  0  0  0
 60 54  2  3  0  0  0
 61 10  1  0  0  0  0
 61 30  1  0  0  0  0
 61 55  1  0  0  0  0
 62 37  2  0  0  0  0
 63 41  1  0  0  0  0
 63162  1  0  0  0  0
 64 42  1  0  0  0  0
 64163  1  0  0  0  0
 65 43  1  0  0  0  0
 65164  1  0  0  0  0
 66 44  1  0  0  0  0
 66165  1  0  0  0  0
 67 45  1  0  0  0  0
 67166  1  0  0  0  0
 68 52  1  0  0  0  0
 68167  1  0  0  0  0
 69 54  1  0  0  0  0
 69168  1  0  0  0  0
 70 55  2  0  0  0  0
 71 59  1  0  0  0  0
 71169  1  0  0  0  0
 72 11  1  0  0  0  0
 72 46  1  0  0  0  0
 73 12  1  0  0  0  0
 73 48  1  0  0  0  0
 74 13  1  0  0  0  0
 74 50  1  0  0  0  0
 75 14  1  0  0  0  0
 75 51  1  0  0  0  0
 76 35  1  0  0  0  0
 76 56  1  0  0  0  0
 77 34  1  0  0  0  0
 77 57  1  0  0  0  0
 78 38  1  0  0  0  0
 78 47  1  0  0  0  0
 79 49  1  0  0  0  0
 79 57  1  0  0  0  0
 80 53  1  0  0  0  0
 80 56  1  0  0  0  0
 81 39  1  0  0  0  0
 81 59  1  0  0  0  0
 82 15  1  0  0  0  0
 83 17  1  0  0  0  0
 84 18  1  0  0  0  0
 85 19  1  0  0  0  0
 86 20  1  0  0  0  0
 87 21  1  0  0  0  0
 88 22  1  0  0  0  0
 89 23  1  0  0  0  0
 90 24  1  0  0  0  0
 91 25  1  0  0  0  0
 92 26  1  0  0  0  0
 93 27  1  0  0  0  0
M  END
>  <DRUGBANK_ID>
DB11401

>  <COMMON_NAME>
Efrotomycin

>  <UNII>
5BPJ82Q45X

>  <SYNONYMS>
Efrotomycin

$$$$
