
 OpenBabel10282417133D

 49 48  0  0  0  0  0  0  0  0999 V2000
    0.9555   -0.1158   -0.0066 C   0  0  0  0  0  0  0  0  0  0  0  0
    0.5097    1.1146    0.7666 C   0  0  0  0  0  0  0  0  0  0  0  0
    1.0076    2.3856    0.0771 C   0  0  0  0  0  0  0  0  0  0  0  0
    0.4539    2.4983   -1.3477 C   0  0  0  0  0  0  0  0  0  0  0  0
   -1.0788    2.5149   -1.3334 C   0  0  0  0  0  0  0  0  0  0  0  0
   -1.5838    3.7232   -0.5394 C   0  0  0  0  0  0  0  0  0  0  0  0
   -1.0780    5.0156   -1.1871 C   0  0  0  0  0  0  0  0  0  0  0  0
   -1.5905    5.1037   -2.6279 C   0  0  0  0  0  0  0  0  0  0  0  0
   -3.1221    5.1014   -2.6276 C   0  0  0  0  0  0  0  0  0  0  0  0
   -3.6365    6.3029   -1.8285 C   0  0  0  0  0  0  0  0  0  0  0  0
   -3.1308    7.6007   -2.4656 C   0  0  0  0  0  0  0  0  0  0  0  0
   -3.6310    7.7002   -3.9097 C   0  0  0  0  0  0  0  0  0  0  0  0
   -5.1627    7.7046   -3.9423 C   0  0  0  0  0  0  0  0  0  0  0  0
   -5.7248    8.9072   -3.1760 C   0  0  0  0  0  0  0  0  0  0  0  0
   -5.2248   10.2269   -3.7545 C   0  0  0  0  0  0  0  0  0  0  0  0
   -5.6928   10.3704   -5.1762 C   0  0  0  0  0  0  0  0  0  0  0  0
   -6.4124   11.2944   -5.5594 O   0  0  0  0  0  0  0  0  0  0  0  0
    0.5593   -0.1275   -1.0274 H   0  0  0  0  0  0  0  0  0  0  0  0
    0.6023   -1.0266    0.4773 H   0  0  0  0  0  0  0  0  0  0  0  0
    2.0473   -0.1370   -0.0702 H   0  0  0  0  0  0  0  0  0  0  0  0
   -0.5829    1.1155    0.8604 H   0  0  0  0  0  0  0  0  0  0  0  0
    0.8895    1.0791    1.7911 H   0  0  0  0  0  0  0  0  0  0  0  0
    0.7255    3.2596    0.6771 H   0  0  0  0  0  0  0  0  0  0  0  0
    2.1010    2.4016    0.0480 H   0  0  0  0  0  0  0  0  0  0  0  0
    0.8637    3.3921   -1.8297 H   0  0  0  0  0  0  0  0  0  0  0  0
    0.8079    1.6832   -1.9834 H   0  0  0  0  0  0  0  0  0  0  0  0
   -1.4552    2.5149   -2.3614 H   0  0  0  0  0  0  0  0  0  0  0  0
   -1.4979    1.5965   -0.9145 H   0  0  0  0  0  0  0  0  0  0  0  0
   -2.6762    3.6936   -0.4781 H   0  0  0  0  0  0  0  0  0  0  0  0
   -1.2732    3.6879    0.5080 H   0  0  0  0  0  0  0  0  0  0  0  0
   -1.3842    5.8753   -0.5845 H   0  0  0  0  0  0  0  0  0  0  0  0
    0.0128    5.0848   -1.1776 H   0  0  0  0  0  0  0  0  0  0  0  0
   -1.1756    5.9911   -3.1140 H   0  0  0  0  0  0  0  0  0  0  0  0
   -1.2198    4.2866   -3.2527 H   0  0  0  0  0  0  0  0  0  0  0  0
   -3.4921    5.0966   -3.6563 H   0  0  0  0  0  0  0  0  0  0  0  0
   -3.5365    4.1778   -2.2140 H   0  0  0  0  0  0  0  0  0  0  0  0
   -4.7272    6.2684   -1.7693 H   0  0  0  0  0  0  0  0  0  0  0  0
   -3.3305    6.2632   -0.7789 H   0  0  0  0  0  0  0  0  0  0  0  0
   -3.4431    8.4559   -1.8609 H   0  0  0  0  0  0  0  0  0  0  0  0
   -2.0383    7.6668   -2.4497 H   0  0  0  0  0  0  0  0  0  0  0  0
   -3.2074    8.5871   -4.3869 H   0  0  0  0  0  0  0  0  0  0  0  0
   -3.2549    6.8791   -4.5287 H   0  0  0  0  0  0  0  0  0  0  0  0
   -5.5084    7.6958   -4.9787 H   0  0  0  0  0  0  0  0  0  0  0  0
   -5.5759    6.7803   -3.5233 H   0  0  0  0  0  0  0  0  0  0  0  0
   -6.8180    8.8679   -3.1905 H   0  0  0  0  0  0  0  0  0  0  0  0
   -5.4481    8.8514   -2.1154 H   0  0  0  0  0  0  0  0  0  0  0  0
   -5.5937   11.0647   -3.1591 H   0  0  0  0  0  0  0  0  0  0  0  0
   -4.1320   10.2983   -3.7438 H   0  0  0  0  0  0  0  0  0  0  0  0
   -5.3457    9.6042   -5.8887 H   0  0  0  0  0  0  0  0  0  0  0  0
  1  2  1  0  0  0  0
  1 18  1  0  0  0  0
  1 19  1  0  0  0  0
  1 20  1  0  0  0  0
  2  3  1  0  0  0  0
  2 21  1  0  0  0  0
  2 22  1  0  0  0  0
  3  4  1  0  0  0  0
  3 23  1  0  0  0  0
  3 24  1  0  0  0  0
  4  5  1  0  0  0  0
  4 25  1  0  0  0  0
  4 26  1  0  0  0  0
  5  6  1  0  0  0  0
  5 27  1  0  0  0  0
  5 28  1  0  0  0  0
  6  7  1  0  0  0  0
  6 29  1  0  0  0  0
  6 30  1  0  0  0  0
  7  8  1  0  0  0  0
  7 31  1  0  0  0  0
  7 32  1  0  0  0  0
  8  9  1  0  0  0  0
  8 33  1  0  0  0  0
  8 34  1  0  0  0  0
  9 10  1  0  0  0  0
  9 35  1  0  0  0  0
  9 36  1  0  0  0  0
 10 11  1  0  0  0  0
 10 37  1  0  0  0  0
 10 38  1  0  0  0  0
 11 12  1  0  0  0  0
 11 39  1  0  0  0  0
 11 40  1  0  0  0  0
 12 13  1  0  0  0  0
 12 41  1  0  0  0  0
 12 42  1  0  0  0  0
 13 14  1  0  0  0  0
 13 43  1  0  0  0  0
 13 44  1  0  0  0  0
 14 15  1  0  0  0  0
 14 45  1  0  0  0  0
 14 46  1  0  0  0  0
 15 16  1  0  0  0  0
 15 47  1  0  0  0  0
 15 48  1  0  0  0  0
 16 17  2  0  0  0  0
 16 49  1  0  0  0  0
M  END
>  <DRUGBANK_ID>
DB03381

>  <SECONDARY_ACCESSION_NUMBERS>
EXPT02611

>  <COMMON_NAME>
Hexadecanal

>  <CAS_NUMBER>
629-80-1

>  <UNII>
WQD27655QE

>  <SYNONYMS>
1-hexadecanal; 16-hexadecanal; Hexadecanal; n-hexadecanal; Palmitaldehyde

$$$$
