
 OpenBabel10282417203D

 95100  0  0  1  0  0  0  0  0999 V2000
    3.5943    6.3083    3.9059 C   0  0  0  0  0  0  0  0  0  0  0  0
    2.6138    6.5448    2.9597 C   0  0  0  0  0  0  0  0  0  0  0  0
    2.8249    6.1351    1.6481 C   0  0  0  0  0  0  0  0  0  0  0  0
    3.9952    5.4312    1.3272 C   0  0  0  0  0  0  0  0  0  0  0  0
    4.8535    5.0087    2.3108 C   0  0  0  0  0  0  0  0  0  0  0  0
    4.5990    5.3961    3.6155 C   0  0  0  0  0  0  0  0  0  0  0  0
    6.0185    4.1889    1.9192 C   0  0  0  0  0  0  0  0  0  0  0  0
    6.0573    3.5546    0.7827 N   0  0  0  0  0  0  0  0  0  0  0  0
    5.0841    3.8785   -0.1433 N   0  0  0  0  0  0  0  0  0  0  0  0
    4.3278    5.0412   -0.0253 C   0  0  0  0  0  0  0  0  0  0  0  0
    3.7884    5.6860   -0.9457 O   0  0  0  0  0  0  0  0  0  0  0  0
    4.9575    3.0370   -1.3315 C   0  0  0  0  0  0  0  0  0  0  0  0
    3.5657    2.3405   -1.3272 C   0  0  1  0  0  0  0  0  0  0  0  0
    2.4485    3.3787   -1.3565 C   0  0  0  0  0  0  0  0  0  0  0  0
    2.5245    3.8862   -2.7905 C   0  0  0  0  0  0  0  0  0  0  0  0
    2.9332    2.6174   -3.5685 C   0  0  0  0  0  0  0  0  0  0  0  0
    3.3094    1.5817   -2.5700 N   0  0  0  0  0  0  0  0  0  0  0  0
    2.3043    0.5217   -2.2927 C   0  0  0  0  0  0  0  0  0  0  0  0
    0.9198    0.9213   -1.7229 C   0  0  0  0  0  0  0  0  0  0  0  0
    0.1371    1.8400   -2.6770 C   0  0  0  0  0  0  0  0  0  0  0  0
    0.0245    1.2328   -4.0584 C   0  0  0  0  0  0  0  0  0  0  0  0
   -0.8482    0.0583   -3.9417 C   0  0  0  0  0  0  0  0  0  0  0  0
   -0.4143   -1.2571   -3.7581 C   0  0  0  0  0  0  0  0  0  0  0  0
   -1.3469   -2.2822   -3.6284 C   0  0  0  0  0  0  0  0  0  0  0  0
   -2.6969   -1.9775   -3.6596 C   0  0  0  0  0  0  0  0  0  0  0  0
   -3.0594   -0.6729   -3.9389 C   0  0  0  0  0  0  0  0  0  0  0  0
   -2.1731    0.3622   -3.9745 C   0  0  0  0  0  0  0  0  0  0  0  0
   -3.5955   -2.9647   -3.3711 O   0  0  0  0  0  0  0  0  0  0  0  0
   -4.9682   -2.5728   -3.1840 C   0  0  0  0  0  0  0  0  0  0  0  0
   -5.2835   -1.9736   -1.7914 C   0  0  0  0  0  0  0  0  0  0  0  0
   -4.7642   -0.5491   -1.5312 C   0  0  0  0  0  0  0  0  0  0  0  0
   -5.2378    0.4706   -2.4855 N   0  0  0  0  0  0  0  0  0  0  0  0
   -6.5240    0.3181   -3.1525 C   0  0  0  0  0  0  0  0  0  0  0  0
   -6.5596    0.5812   -4.6743 C   0  0  0  0  0  0  0  0  0  0  0  0
   -6.5492    2.0466   -5.0529 C   0  0  0  0  0  0  0  0  0  0  0  0
   -5.3173    2.7883   -4.5587 C   0  0  0  0  0  0  0  0  0  0  0  0
   -5.2874    2.9460   -3.0365 C   0  0  0  0  0  0  0  0  0  0  0  0
   -4.6913    1.7937   -2.2354 C   0  0  0  0  0  0  0  0  0  0  0  0
    7.1935    4.0824    2.8912 C   0  0  0  0  0  0  0  0  0  0  0  0
    7.9187    5.4082    3.1423 C   0  0  0  0  0  0  0  0  0  0  0  0
    7.2985    6.5602    3.6587 C   0  0  0  0  0  0  0  0  0  0  0  0
    7.8758    7.8173    3.6792 C   0  0  0  0  0  0  0  0  0  0  0  0
    9.2151    7.9138    3.4150 C   0  0  0  0  0  0  0  0  0  0  0  0
    9.9360    6.7604    3.1052 C   0  0  0  0  0  0  0  0  0  0  0  0
    9.2830    5.5311    2.8915 C   0  0  0  0  0  0  0  0  0  0  0  0
    9.9593    9.4524    3.5344 Cl  0  0  0  0  0  0  0  0  0  0  0  0
    3.5768    6.8013    4.8732 H   0  0  0  0  0  0  0  0  0  0  0  0
    1.6898    7.0289    3.2586 H   0  0  0  0  0  0  0  0  0  0  0  0
    2.0884    6.3683    0.8821 H   0  0  0  0  0  0  0  0  0  0  0  0
    5.2526    5.0754    4.4182 H   0  0  0  0  0  0  0  0  0  0  0  0
    5.0826    3.6844   -2.2057 H   0  0  0  0  0  0  0  0  0  0  0  0
    5.7617    2.2925   -1.3680 H   0  0  0  0  0  0  0  0  0  0  0  0
    3.5134    1.6835   -0.4496 H   0  0  0  0  0  0  0  0  0  0  0  0
    1.4533    3.0230   -1.1560 H   0  0  0  0  0  0  0  0  0  0  0  0
    2.4353    4.0570   -0.5211 H   0  0  0  0  0  0  0  0  0  0  0  0
    1.5858    4.3502   -3.1125 H   0  0  0  0  0  0  0  0  0  0  0  0
    3.2795    4.6554   -2.9468 H   0  0  0  0  0  0  0  0  0  0  0  0
    2.1731    2.3064   -4.2750 H   0  0  0  0  0  0  0  0  0  0  0  0
    3.7787    2.8418   -4.2275 H   0  0  0  0  0  0  0  0  0  0  0  0
    2.1900   -0.0832   -3.1944 H   0  0  0  0  0  0  0  0  0  0  0  0
    2.7436   -0.1839   -1.5733 H   0  0  0  0  0  0  0  0  0  0  0  0
    0.3108    0.0399   -1.5039 H   0  0  0  0  0  0  0  0  0  0  0  0
    1.0339    1.3310   -0.7108 H   0  0  0  0  0  0  0  0  0  0  0  0
   -0.8005    2.1857   -2.2233 H   0  0  0  0  0  0  0  0  0  0  0  0
    0.6007    2.7828   -2.8756 H   0  0  0  0  0  0  0  0  0  0  0  0
   -0.3835    1.9851   -4.7489 H   0  0  0  0  0  0  0  0  0  0  0  0
    0.9476    0.8977   -4.5265 H   0  0  0  0  0  0  0  0  0  0  0  0
    0.6432   -1.4853   -3.6850 H   0  0  0  0  0  0  0  0  0  0  0  0
   -1.0142   -3.3074   -3.5239 H   0  0  0  0  0  0  0  0  0  0  0  0
   -4.0768   -0.3922   -4.0653 H   0  0  0  0  0  0  0  0  0  0  0  0
   -2.4896    1.4001   -4.0220 H   0  0  0  0  0  0  0  0  0  0  0  0
   -5.3243   -1.9717   -4.0280 H   0  0  0  0  0  0  0  0  0  0  0  0
   -5.5538   -3.4941   -3.2724 H   0  0  0  0  0  0  0  0  0  0  0  0
   -6.3685   -1.9602   -1.6272 H   0  0  0  0  0  0  0  0  0  0  0  0
   -4.8797   -2.6393   -1.0225 H   0  0  0  0  0  0  0  0  0  0  0  0
   -5.0016   -0.2404   -0.5064 H   0  0  0  0  0  0  0  0  0  0  0  0
   -3.6654   -0.6036   -1.5214 H   0  0  0  0  0  0  0  0  0  0  0  0
   -7.2810    0.9121   -2.6406 H   0  0  0  0  0  0  0  0  0  0  0  0
   -6.8815   -0.7089   -3.0913 H   0  0  0  0  0  0  0  0  0  0  0  0
   -7.4926    0.1481   -5.0614 H   0  0  0  0  0  0  0  0  0  0  0  0
   -5.7677    0.0514   -5.2211 H   0  0  0  0  0  0  0  0  0  0  0  0
   -6.6093    2.1310   -6.1460 H   0  0  0  0  0  0  0  0  0  0  0  0
   -7.4563    2.5184   -4.6583 H   0  0  0  0  0  0  0  0  0  0  0  0
   -4.4079    2.3150   -4.9448 H   0  0  0  0  0  0  0  0  0  0  0  0
   -5.3547    3.7929   -4.9964 H   0  0  0  0  0  0  0  0  0  0  0  0
   -4.6891    3.8351   -2.8080 H   0  0  0  0  0  0  0  0  0  0  0  0
   -6.2964    3.1362   -2.6574 H   0  0  0  0  0  0  0  0  0  0  0  0
   -3.6108    1.8022   -2.4015 H   0  0  0  0  0  0  0  0  0  0  0  0
   -4.7806    2.0330   -1.1702 H   0  0  0  0  0  0  0  0  0  0  0  0
    6.8371    3.6468    3.8304 H   0  0  0  0  0  0  0  0  0  0  0  0
    7.8922    3.3436    2.4715 H   0  0  0  0  0  0  0  0  0  0  0  0
    6.3351    6.5952    4.1202 H   0  0  0  0  0  0  0  0  0  0  0  0
    7.2611    8.6702    3.9560 H   0  0  0  0  0  0  0  0  0  0  0  0
   11.0153    6.8135    3.0259 H   0  0  0  0  0  0  0  0  0  0  0  0
    9.8589    4.6742    2.5489 H   0  0  0  0  0  0  0  0  0  0  0  0
  1  2  2  0  0  0  0
  1  6  1  0  0  0  0
  1 47  1  0  0  0  0
  2  3  1  0  0  0  0
  2 48  1  0  0  0  0
  3  4  2  0  0  0  0
  3 49  1  0  0  0  0
  4  5  1  0  0  0  0
  4 10  1  0  0  0  0
  5  6  2  0  0  0  0
  5  7  1  0  0  0  0
  6 50  1  0  0  0  0
  7  8  2  0  0  0  0
  7 39  1  0  0  0  0
  8  9  1  0  0  0  0
  9 10  1  0  0  0  0
  9 12  1  0  0  0  0
 10 11  2  0  0  0  0
 12 51  1  0  0  0  0
 12 52  1  0  0  0  0
 13 14  1  0  0  0  0
 13 17  1  0  0  0  0
 13 53  1  1  0  0  0
 13 12  1  0  0  0  0
 14 15  1  0  0  0  0
 14 54  1  0  0  0  0
 14 55  1  0  0  0  0
 15 16  1  0  0  0  0
 15 56  1  0  0  0  0
 15 57  1  0  0  0  0
 16 17  1  0  0  0  0
 16 58  1  0  0  0  0
 16 59  1  0  0  0  0
 17 18  1  0  0  0  0
 18 19  1  0  0  0  0
 18 60  1  0  0  0  0
 18 61  1  0  0  0  0
 19 20  1  0  0  0  0
 19 62  1  0  0  0  0
 19 63  1  0  0  0  0
 20 21  1  0  0  0  0
 20 64  1  0  0  0  0
 20 65  1  0  0  0  0
 21 22  1  0  0  0  0
 21 66  1  0  0  0  0
 21 67  1  0  0  0  0
 22 23  2  0  0  0  0
 22 27  1  0  0  0  0
 23 24  1  0  0  0  0
 23 68  1  0  0  0  0
 24 25  2  0  0  0  0
 24 69  1  0  0  0  0
 25 26  1  0  0  0  0
 25 28  1  0  0  0  0
 26 27  2  0  0  0  0
 26 70  1  0  0  0  0
 27 71  1  0  0  0  0
 28 29  1  0  0  0  0
 29 30  1  0  0  0  0
 29 72  1  0  0  0  0
 29 73  1  0  0  0  0
 30 31  1  0  0  0  0
 30 74  1  0  0  0  0
 30 75  1  0  0  0  0
 31 32  1  0  0  0  0
 31 76  1  0  0  0  0
 31 77  1  0  0  0  0
 32 33  1  0  0  0  0
 32 38  1  0  0  0  0
 33 34  1  0  0  0  0
 33 78  1  0  0  0  0
 33 79  1  0  0  0  0
 34 35  1  0  0  0  0
 34 80  1  0  0  0  0
 34 81  1  0  0  0  0
 35 36  1  0  0  0  0
 35 82  1  0  0  0  0
 35 83  1  0  0  0  0
 36 37  1  0  0  0  0
 36 84  1  0  0  0  0
 36 85  1  0  0  0  0
 37 38  1  0  0  0  0
 37 86  1  0  0  0  0
 37 87  1  0  0  0  0
 38 88  1  0  0  0  0
 38 89  1  0  0  0  0
 39 40  1  0  0  0  0
 39 90  1  0  0  0  0
 39 91  1  0  0  0  0
 40 41  2  0  0  0  0
 40 45  1  0  0  0  0
 41 42  1  0  0  0  0
 41 92  1  0  0  0  0
 42 43  2  0  0  0  0
 42 93  1  0  0  0  0
 43 44  1  0  0  0  0
 43 46  1  0  0  0  0
 44 45  2  0  0  0  0
 44 94  1  0  0  0  0
 45 95  1  0  0  0  0
M  END
>  <DRUGBANK_ID>
DB12806

>  <COMMON_NAME>
GSK-1004723

>  <CAS_NUMBER>
955359-72-5

>  <UNII>
S08212J4ZR

$$$$
