
 OpenBabel10282417123D

 46 47  0  0  0  0  0  0  0  0999 V2000
    1.0629   -0.0570    0.0529 P   0  0  2  0  0  0  0  0  0  0  0  0
    2.6939   -2.2484   -0.6673 P   0  0  0  0  0  0  0  0  0  0  0  0
   -0.9371    3.8099    0.3886 O   0  0  0  0  0  0  0  0  0  0  0  0
   -2.4148   -0.0380    0.7833 O   0  0  0  0  0  0  0  0  0  0  0  0
    0.8675    1.0708   -1.0973 O   0  0  0  0  0  0  0  0  0  0  0  0
   -4.8425    3.6565   -1.1086 O   0  0  0  0  0  0  0  0  0  0  0  0
    1.0629   -1.7005   -0.4872 O   0  0  0  0  0  0  0  0  0  0  0  0
   -1.4466   -2.2989    1.1595 O   0  0  0  0  0  0  0  0  0  0  0  0
   -0.6671   -0.0570    0.0529 O   0  0  0  0  0  0  0  0  0  0  0  0
   -3.3836    4.0918   -5.3241 O   0  0  0  0  0  0  0  0  0  0  0  0
    2.6112   -0.0570    0.0529 O   0  0  0  0  0  0  0  0  0  0  0  0
    2.4717   -2.9381    0.8038 O   0  0  0  0  0  0  0  0  0  0  0  0
    2.0399   -3.4655   -1.5534 O   0  0  0  0  0  0  0  0  0  0  0  0
    4.1537   -2.7387   -0.8284 O   0  0  0  0  0  0  0  0  0  0  0  0
   -2.5733    4.0253   -1.3851 N   0  0  0  0  0  0  0  0  0  0  0  0
   -4.0947    4.1521   -3.1629 N   0  0  0  0  0  0  0  0  0  0  0  0
   -1.8420    1.5464    0.2898 C   0  0  2  0  0  0  0  0  0  0  0  0
   -0.4678    2.4349    0.5991 C   0  0  1  0  0  0  0  0  0  0  0  0
   -2.9337    2.4602    0.5516 C   0  0  0  0  0  0  0  0  0  0  0  0
   -2.3502    3.7885    0.0638 C   0  0  1  0  0  0  0  0  0  0  0  0
    0.8119    2.3323   -0.3914 C   0  0  0  0  0  0  0  0  0  0  0  0
   -1.5542    4.3255   -2.2766 C   0  0  0  0  0  0  0  0  0  0  0  0
   -3.8943    3.9390   -1.8245 C   0  0  0  0  0  0  0  0  0  0  0  0
   -1.7439    4.3263   -3.6095 C   0  0  0  0  0  0  0  0  0  0  0  0
   -1.9048   -1.5167    0.3056 C   0  0  0  0  0  0  0  0  0  0  0  0
   -3.1236    4.1809   -4.0984 C   0  0  0  0  0  0  0  0  0  0  0  0
   -0.6556    4.4241   -4.6295 C   0  0  0  0  0  0  0  0  0  0  0  0
   -1.3803   -1.6308   -1.3949 C   0  0  0  0  0  0  0  0  0  0  0  0
   -5.0473    4.0543   -3.4824 H   0  0  0  0  0  0  0  0  0  0  0  0
   -0.8361    0.1984   -0.8736 H   0  0  0  0  0  0  0  0  0  0  0  0
    2.9694   -2.4284    1.4650 H   0  0  0  0  0  0  0  0  0  0  0  0
    1.2996   -3.1554   -2.0952 H   0  0  0  0  0  0  0  0  0  0  0  0
   -1.8220    1.4921   -0.8036 H   0  0  0  0  0  0  0  0  0  0  0  0
   -0.0735    2.4070    1.6303 H   0  0  0  0  0  0  0  0  0  0  0  0
   -3.7263    2.0120   -0.0443 H   0  0  0  0  0  0  0  0  0  0  0  0
   -3.1536    2.4104    1.6143 H   0  0  0  0  0  0  0  0  0  0  0  0
   -2.8375    4.5955    0.6101 H   0  0  0  0  0  0  0  0  0  0  0  0
    1.7568    2.4617    0.1823 H   0  0  0  0  0  0  0  0  0  0  0  0
    0.8877    3.1444   -1.1254 H   0  0  0  0  0  0  0  0  0  0  0  0
   -0.5684    4.5209   -1.8725 H   0  0  0  0  0  0  0  0  0  0  0  0
   -0.6348    3.5116   -5.2390 H   0  0  0  0  0  0  0  0  0  0  0  0
   -0.8088    5.2779   -5.2964 H   0  0  0  0  0  0  0  0  0  0  0  0
    0.3290    4.5227   -4.1633 H   0  0  0  0  0  0  0  0  0  0  0  0
   -2.0994   -1.1701   -2.0565 H   0  0  0  0  0  0  0  0  0  0  0  0
   -0.4653   -1.0829   -1.7496 H   0  0  0  0  0  0  0  0  0  0  0  0
   -0.9843   -2.6178   -1.6753 H   0  0  0  0  0  0  0  0  0  0  0  0
  1  5  1  0  0  0  0
  1  7  1  0  0  0  0
  1  9  1  0  0  0  0
  1 11  2  1  0  0  0
  2  7  1  0  0  0  0
  2 12  1  0  0  0  0
  2 13  1  0  0  0  0
  2 14  2  0  0  0  0
  3 18  1  0  0  0  0
  3 20  1  0  0  0  0
  4 25  1  0  0  0  0
  5 21  1  0  0  0  0
  6 23  2  0  0  0  0
  8 25  2  0  0  0  0
  9 30  1  0  0  0  0
 10 26  2  0  0  0  0
 12 31  1  0  0  0  0
 13 32  1  0  0  0  0
 15 22  1  0  0  0  0
 15 23  1  0  0  0  0
 16 23  1  0  0  0  0
 16 26  1  0  0  0  0
 16 29  1  0  0  0  0
 17 18  1  0  0  0  0
 17 19  1  0  0  0  0
 17 33  1  6  0  0  0
 17  4  1  0  0  0  0
 18 21  1  0  0  0  0
 18 34  1  1  0  0  0
 19 20  1  0  0  0  0
 19 35  1  0  0  0  0
 19 36  1  0  0  0  0
 20 15  1  0  0  0  0
 20 37  1  1  0  0  0
 21 38  1  0  0  0  0
 21 39  1  0  0  0  0
 22 24  2  0  0  0  0
 22 40  1  0  0  0  0
 24 26  1  0  0  0  0
 24 27  1  0  0  0  0
 25 28  1  0  0  0  0
 27 41  1  0  0  0  0
 27 42  1  0  0  0  0
 27 43  1  0  0  0  0
 28 44  1  0  0  0  0
 28 45  1  0  0  0  0
 28 46  1  0  0  0  0
M  END
>  <DRUGBANK_ID>
DB02549

>  <SECONDARY_ACCESSION_NUMBERS>
EXPT00591

>  <COMMON_NAME>
3'-O-Acetylthymidine-5'-diphosphate

>  <SYNONYMS>
3'-O-Acetylthymidine 5'-(trihydrogen diphosphate)

$$$$
