
 OpenBabel10282417213D

 48 47  0  0  0  0  0  0  0  0999 V2000
   -0.3879   -1.7438    0.0679 C   0  0  0  0  0  0  0  0  0  0  0  0
    0.9220   -1.3913    0.2632 C   0  0  0  0  0  0  0  0  0  0  0  0
    0.8909   -0.1320    0.7591 N   0  0  0  0  0  0  0  0  0  0  0  0
   -0.4299    0.1903    0.9786 C   0  0  0  0  0  0  0  0  0  0  0  0
   -1.1529   -0.8939    0.8425 N   0  0  0  0  0  0  0  0  0  0  0  0
    2.2508   -1.9420   -0.0482 C   0  0  0  0  0  0  0  0  0  0  0  0
    2.9881   -1.4460   -1.3020 C   0  0  1  0  0  0  0  0  0  0  0  0
    3.5164    0.0319   -1.3137 C   0  0  0  0  0  0  0  0  0  0  0  0
    4.7004    0.2679   -1.0559 O   0  0  0  0  0  0  0  0  0  0  0  0
    2.6952    1.1190   -1.4860 N   0  0  0  0  0  0  0  0  0  0  0  0
    1.2457    1.2420   -1.7148 C   0  0  1  0  0  0  0  0  0  0  0  0
    0.6332    2.0941   -0.5826 C   0  0  0  0  0  0  0  0  0  0  0  0
    0.7458    3.5464   -0.2850 C   0  0  0  0  0  0  0  0  0  0  0  0
   -0.0865    4.1886   -1.3392 C   0  0  0  0  0  0  0  0  0  0  0  0
   -1.5615    3.7014   -1.3835 C   0  0  0  0  0  0  0  0  0  0  0  0
   -2.2489    3.9915   -0.1193 N   0  0  0  0  0  0  0  0  0  0  0  0
    0.5917    1.4323   -3.1212 C   0  0  0  0  0  0  0  0  0  0  0  0
   -0.2856    0.5106   -3.3695 O   0  0  0  0  0  0  0  0  0  0  0  0
    0.9127    2.4184   -3.7634 O   0  5  0  0  0  0  0  0  0  0  0  0
    4.1421   -2.3686   -1.3896 N   0  0  0  0  0  0  0  0  0  0  0  0
    4.3197   -3.3509   -2.3197 C   0  0  0  0  0  0  0  0  0  0  0  0
    5.2687   -4.1347   -2.2030 O   0  0  0  0  0  0  0  0  0  0  0  0
    3.2995   -3.4469   -3.4473 C   0  0  0  0  0  0  0  0  0  0  0  0
    1.9642   -3.7764   -2.8950 N   0  0  0  0  0  0  0  0  0  0  0  0
   -0.0641   -1.4192    2.7087 Cu  0  2  0  0  0  0  0  0  0  0  0  0
   -0.8063   -2.6096   -0.4404 H   0  0  0  0  0  0  0  0  0  0  0  0
    1.7167    0.4608    0.6221 H   0  0  0  0  0  0  0  0  0  0  0  0
   -0.8034    1.1903    1.2345 H   0  0  0  0  0  0  0  0  0  0  0  0
    2.8763   -1.7227    0.8317 H   0  0  0  0  0  0  0  0  0  0  0  0
    2.1204   -3.0295   -0.0579 H   0  0  0  0  0  0  0  0  0  0  0  0
    2.3566   -1.5313   -2.1820 H   0  0  0  0  0  0  0  0  0  0  0  0
    3.1960    1.9960   -1.5998 H   0  0  0  0  0  0  0  0  0  0  0  0
    0.9205    0.2107   -1.5816 H   0  0  0  0  0  0  0  0  0  0  0  0
   -0.4152    1.8198   -0.6034 H   0  0  0  0  0  0  0  0  0  0  0  0
    1.0432    1.8853    0.3897 H   0  0  0  0  0  0  0  0  0  0  0  0
    0.3438    3.7450    0.7310 H   0  0  0  0  0  0  0  0  0  0  0  0
    1.8090    3.8058   -0.2216 H   0  0  0  0  0  0  0  0  0  0  0  0
   -0.0135    5.2671   -1.2519 H   0  0  0  0  0  0  0  0  0  0  0  0
    0.4181    3.9208   -2.2570 H   0  0  0  0  0  0  0  0  0  0  0  0
   -2.0505    4.1733   -2.2335 H   0  0  0  0  0  0  0  0  0  0  0  0
   -1.7063    2.6287   -1.5924 H   0  0  0  0  0  0  0  0  0  0  0  0
   -3.2077    3.6526   -0.1792 H   0  0  0  0  0  0  0  0  0  0  0  0
   -1.8075    3.5214    0.6602 H   0  0  0  0  0  0  0  0  0  0  0  0
    4.8764   -2.3289   -0.6880 H   0  0  0  0  0  0  0  0  0  0  0  0
    3.2811   -2.4844   -3.9714 H   0  0  0  0  0  0  0  0  0  0  0  0
    3.6114   -4.2152   -4.1585 H   0  0  0  0  0  0  0  0  0  0  0  0
    1.3114   -3.7769   -3.6835 H   0  0  0  0  0  0  0  0  0  0  0  0
    1.9978   -4.7354   -2.5540 H   0  0  0  0  0  0  0  0  0  0  0  0
  1  2  2  0  0  0  0
  1  5  1  0  0  0  0
  1 26  1  0  0  0  0
  2  3  1  0  0  0  0
  2  6  1  0  0  0  0
  3  4  1  0  0  0  0
  3 27  1  0  0  0  0
  4  5  2  0  0  0  0
  4 28  1  0  0  0  0
  6  7  1  0  0  0  0
  6 29  1  0  0  0  0
  6 30  1  0  0  0  0
  7  8  1  0  0  0  0
  7 20  1  0  0  0  0
  7 31  1  6  0  0  0
  8  9  2  0  0  0  0
  8 10  1  0  0  0  0
 10 32  1  0  0  0  0
 11 10  1  0  0  0  0
 11 12  1  0  0  0  0
 11 17  1  0  0  0  0
 11 33  1  1  0  0  0
 12 13  1  0  0  0  0
 12 34  1  0  0  0  0
 12 35  1  0  0  0  0
 13 14  1  0  0  0  0
 13 36  1  0  0  0  0
 13 37  1  0  0  0  0
 14 15  1  0  0  0  0
 14 38  1  0  0  0  0
 14 39  1  0  0  0  0
 15 16  1  0  0  0  0
 15 40  1  0  0  0  0
 15 41  1  0  0  0  0
 16 42  1  0  0  0  0
 16 43  1  0  0  0  0
 17 18  2  0  0  0  0
 17 19  1  0  0  0  0
 20 21  1  0  0  0  0
 20 44  1  0  0  0  0
 21 22  2  0  0  0  0
 21 23  1  0  0  0  0
 23 24  1  0  0  0  0
 23 45  1  0  0  0  0
 23 46  1  0  0  0  0
 24 47  1  0  0  0  0
 24 48  1  0  0  0  0
M  CHG  2  19  -1  25   2
M  END
>  <DRUGBANK_ID>
DB14683

>  <SECONDARY_ACCESSION_NUMBERS>
DBSALT002419

>  <COMMON_NAME>
Prezatide copper

>  <CAS_NUMBER>
89030-95-5

>  <UNII>
6BJQ43T1I9

>  <SYNONYMS>
CG-copper peptide; Copper tripeptide-1; GHK complex with copper; GHK copper

$$$$
