
 OpenBabel10282417113D

 20 19  0  0  0  0  0  0  0  0999 V2000
   -0.3719   -2.1202   -0.7262 C   0  0  0  0  0  0  0  0  0  0  0  0
   -2.4721   -2.5938    0.4698 C   0  0  0  0  0  0  0  0  0  0  0  0
   -1.0122   -0.5431    1.2376 C   0  0  1  0  0  0  0  0  0  0  0  0
    0.5434   -0.4393    1.3795 C   0  0  0  0  0  0  0  0  0  0  0  0
   -1.5211   -1.4518    0.0389 C   0  0  0  0  0  0  0  0  0  0  0  0
   -1.5447   -0.9922    2.5561 N   0  0  0  0  0  0  0  0  0  0  0  0
    1.2040   -0.6459    2.3930 O   0  0  0  0  0  0  0  0  0  0  0  0
    1.1929   -0.1413    0.2377 O   0  0  0  0  0  0  0  0  0  0  0  0
   -2.4460   -0.4378   -1.2181 S   0  0  0  0  0  0  0  0  0  0  0  0
   -1.3657    0.4893    1.1209 H   0  0  0  0  0  0  0  0  0  0  0  0
    0.2819   -2.6480   -0.0219 H   0  0  0  0  0  0  0  0  0  0  0  0
    0.2174   -1.3925   -1.2907 H   0  0  0  0  0  0  0  0  0  0  0  0
   -0.7135   -2.8543   -1.4608 H   0  0  0  0  0  0  0  0  0  0  0  0
   -1.9814   -3.2484    1.2007 H   0  0  0  0  0  0  0  0  0  0  0  0
   -3.4056   -2.2302    0.9141 H   0  0  0  0  0  0  0  0  0  0  0  0
   -2.7428   -3.2397   -0.3747 H   0  0  0  0  0  0  0  0  0  0  0  0
   -2.5583   -1.0617    2.5323 H   0  0  0  0  0  0  0  0  0  0  0  0
   -1.1815   -1.9265    2.7557 H   0  0  0  0  0  0  0  0  0  0  0  0
    2.1238   -0.4154    0.3873 H   0  0  0  0  0  0  0  0  0  0  0  0
   -3.5135   -0.1034   -0.4770 H   0  0  0  0  0  0  0  0  0  0  0  0
  1 11  1  0  0  0  0
  1 12  1  0  0  0  0
  1 13  1  0  0  0  0
  2 14  1  0  0  0  0
  2 15  1  0  0  0  0
  2 16  1  0  0  0  0
  3  6  1  0  0  0  0
  3 10  1  6  0  0  0
  3  5  1  0  0  0  0
  3  4  1  0  0  0  0
  5  1  1  0  0  0  0
  5  2  1  0  0  0  0
  6 17  1  0  0  0  0
  6 18  1  0  0  0  0
  7  4  2  0  0  0  0
  8  4  1  0  0  0  0
  8 19  1  0  0  0  0
  9  5  1  0  0  0  0
  9 20  1  0  0  0  0
M  END
>  <DRUGBANK_ID>
DB00859

>  <SECONDARY_ACCESSION_NUMBERS>
APRD01171

>  <COMMON_NAME>
Penicillamine

>  <CAS_NUMBER>
52-67-5

>  <UNII>
GNN1DV99GX

>  <SYNONYMS>
(−)-penicillamine; (S)-2-amino-3-mercapto-3-methylbutanoic acid; (S)-3,3-dimethylcysteine; 3-mercapto-D-valine; D-(−)-penicillamine; D-penicillamine; D-β,β-dimethylcysteine; penicilamina; Penicillamine

$$$$
