
 OpenBabel10282417153D

 57 61  0  0  0  0  0  0  0  0999 V2000
    0.9017   -0.0741    0.1388 C   0  0  0  0  0  0  0  0  0  0  0  0
    0.1678   -0.9180   -0.8481 C   0  0  0  0  0  0  0  0  0  0  0  0
    0.5566   -2.2425   -1.0555 C   0  0  0  0  0  0  0  0  0  0  0  0
    0.0812   -2.9373   -2.1614 C   0  0  0  0  0  0  0  0  0  0  0  0
   -0.8638   -2.3390   -2.9853 C   0  0  0  0  0  0  0  0  0  0  0  0
   -1.3481   -3.0279   -4.0258 F   0  0  0  0  0  0  0  0  0  0  0  0
   -1.3107   -1.0406   -2.7494 C   0  0  0  0  0  0  0  0  0  0  0  0
   -0.7796   -0.3098   -1.6828 C   0  0  0  0  0  0  0  0  0  0  0  0
    0.2998    0.6847    0.8330 O   0  0  0  0  0  0  0  0  0  0  0  0
    2.4354   -0.1817    0.1806 C   0  0  0  0  0  0  0  0  0  0  0  0
    3.1670   -0.7069   -1.0841 C   0  0  0  0  0  0  0  0  0  0  0  0
    2.7757   -0.0726   -2.4574 C   0  0  0  0  0  0  0  0  0  0  0  0
    3.3065    1.2865   -2.6859 N   0  0  0  0  0  0  0  0  0  0  0  0
    2.7633    1.9523   -3.8803 C   0  0  0  0  0  0  0  0  0  0  0  0
    3.5012    3.2904   -4.0595 C   0  0  1  0  0  0  0  0  0  0  0  0
    4.5792    3.0751   -4.1719 H   0  0  0  0  0  0  0  0  0  0  0  0
    3.0369    4.1584   -5.1344 C   0  0  0  0  0  0  0  0  0  0  0  0
    3.1682    4.1041   -6.4832 C   0  0  0  0  0  0  0  0  0  0  0  0
    2.7449    5.2505   -7.1312 C   0  0  0  0  0  0  0  0  0  0  0  0
    2.6372    6.4751   -6.4043 C   0  0  0  0  0  0  0  0  0  0  0  0
    2.8626    6.5315   -5.0185 C   0  0  0  0  0  0  0  0  0  0  0  0
    2.5287    5.3016   -4.5517 C   0  0  0  0  0  0  0  0  0  0  0  0
    1.7922    5.1221   -3.2567 N   0  0  0  0  0  0  0  0  0  0  0  0
    3.2703    4.4002   -2.8951 C   0  0  1  0  0  0  0  0  0  0  0  0
    4.0888    5.1538   -2.9501 H   0  0  0  0  0  0  0  0  0  0  0  0
    3.6743    3.5788   -1.6542 C   0  0  0  0  0  0  0  0  0  0  0  0
    3.1041    2.1771   -1.5443 C   0  0  0  0  0  0  0  0  0  0  0  0
    0.8061    6.5840   -3.6243 C   0  0  0  0  0  0  0  0  0  0  0  0
    1.4412    7.9401   -4.3473 C   0  0  0  0  0  0  0  0  0  0  0  0
    2.8222    7.6785   -4.1131 N   0  0  0  0  0  0  0  0  0  0  0  0
    2.8306    7.5928   -2.5026 C   0  0  0  0  0  0  0  0  0  0  0  0
    1.2888   -2.7146   -0.4055 H   0  0  0  0  0  0  0  0  0  0  0  0
    0.4581   -3.9283   -2.3908 H   0  0  0  0  0  0  0  0  0  0  0  0
   -2.0421   -0.5979   -3.4182 H   0  0  0  0  0  0  0  0  0  0  0  0
   -1.0518    0.7361   -1.5505 H   0  0  0  0  0  0  0  0  0  0  0  0
    2.7415    0.8315    0.4403 H   0  0  0  0  0  0  0  0  0  0  0  0
    2.7446   -0.7524    1.0610 H   0  0  0  0  0  0  0  0  0  0  0  0
    4.2527   -0.6151   -0.9512 H   0  0  0  0  0  0  0  0  0  0  0  0
    3.0280   -1.7931   -1.1381 H   0  0  0  0  0  0  0  0  0  0  0  0
    3.1452   -0.7581   -3.2370 H   0  0  0  0  0  0  0  0  0  0  0  0
    1.6959   -0.0710   -2.5997 H   0  0  0  0  0  0  0  0  0  0  0  0
    2.9216    1.3146   -4.7621 H   0  0  0  0  0  0  0  0  0  0  0  0
    1.6828    2.1180   -3.7939 H   0  0  0  0  0  0  0  0  0  0  0  0
    3.4892    3.2049   -6.9892 H   0  0  0  0  0  0  0  0  0  0  0  0
    2.4971    5.2078   -8.1855 H   0  0  0  0  0  0  0  0  0  0  0  0
    2.1756    7.2987   -6.9435 H   0  0  0  0  0  0  0  0  0  0  0  0
    3.6124    4.0985   -0.6964 H   0  0  0  0  0  0  0  0  0  0  0  0
    4.7682    3.3666   -1.7481 H   0  0  0  0  0  0  0  0  0  0  0  0
    2.0500    2.2416   -1.2669 H   0  0  0  0  0  0  0  0  0  0  0  0
    3.7195    1.7465   -0.7564 H   0  0  0  0  0  0  0  0  0  0  0  0
    0.3543    7.0185   -2.7220 H   0  0  0  0  0  0  0  0  0  0  0  0
   -0.0595    6.2728   -4.2291 H   0  0  0  0  0  0  0  0  0  0  0  0
    1.2349    8.9300   -3.8991 H   0  0  0  0  0  0  0  0  0  0  0  0
    1.1807    8.1579   -5.4034 H   0  0  0  0  0  0  0  0  0  0  0  0
    2.1314    6.8954   -1.9949 H   0  0  0  0  0  0  0  0  0  0  0  0
    3.7790    7.3700   -2.0306 H   0  0  0  0  0  0  0  0  0  0  0  0
    2.3973    8.5358   -2.1108 H   0  0  0  0  0  0  0  0  0  0  0  0
  1  2  1  0  0  0  0
  1  9  2  0  0  0  0
  1 10  1  0  0  0  0
  2  3  2  0  0  0  0
  2  8  1  0  0  0  0
  3 32  1  0  0  0  0
  4  3  1  0  0  0  0
  4 33  1  0  0  0  0
  5  4  2  0  0  0  0
  5  6  1  0  0  0  0
  7  5  1  0  0  0  0
  7 34  1  0  0  0  0
  8  7  2  0  0  0  0
  8 35  1  0  0  0  0
 10 11  1  0  0  0  0
 10 36  1  0  0  0  0
 10 37  1  0  0  0  0
 11 12  1  0  0  0  0
 11 38  1  0  0  0  0
 11 39  1  0  0  0  0
 12 13  1  0  0  0  0
 12 40  1  0  0  0  0
 12 41  1  0  0  0  0
 14 13  1  0  0  0  0
 14 15  1  0  0  0  0
 14 42  1  0  0  0  0
 14 43  1  0  0  0  0
 15 16  1  6  0  0  0
 15 17  1  0  0  0  0
 15 24  1  0  0  0  0
 17 18  2  0  0  0  0
 18 19  1  0  0  0  0
 18 44  1  0  0  0  0
 19 20  2  0  0  0  0
 19 45  1  0  0  0  0
 20 21  1  0  0  0  0
 20 46  1  0  0  0  0
 22 21  2  0  0  0  0
 22 17  1  0  0  0  0
 23 22  1  0  0  0  0
 24 23  1  0  0  0  0
 24 25  1  6  0  0  0
 26 24  1  0  0  0  0
 26 27  1  0  0  0  0
 26 47  1  0  0  0  0
 26 48  1  0  0  0  0
 27 13  1  0  0  0  0
 27 49  1  0  0  0  0
 27 50  1  0  0  0  0
 28 23  1  0  0  0  0
 28 51  1  0  0  0  0
 28 52  1  0  0  0  0
 29 28  1  0  0  0  0
 29 53  1  0  0  0  0
 29 54  1  0  0  0  0
 30 29  1  0  0  0  0
 30 31  1  0  0  0  0
 30 21  1  0  0  0  0
 31 55  1  0  0  0  0
 31 56  1  0  0  0  0
 31 57  1  0  0  0  0
M  END
>  <DRUGBANK_ID>
DB06077

>  <COMMON_NAME>
Lumateperone

>  <CAS_NUMBER>
313368-91-1

>  <UNII>
70BSQ12069

>  <SYNONYMS>
Lumateperone

$$$$
