
 OpenBabel10282417243D

 44 43  0  0  0  0  0  0  0  0999 V2000
    1.0156   -0.1027   -0.2744 C   0  0  0  0  0  0  0  0  0  0  0  0
    0.6607   -0.9393    0.9413 C   0  0  0  0  0  0  0  0  0  0  0  0
    1.2562   -0.3061    2.2020 C   0  0  0  0  0  0  0  0  0  0  0  0
    0.6714    1.0829    2.4817 C   0  0  0  0  0  0  0  0  0  0  0  0
   -0.8414    1.0226    2.5909 C   0  0  0  0  0  0  0  0  0  0  0  0
   -1.2183    0.0974    3.7467 C   0  0  0  0  0  0  0  0  0  0  0  0
   -1.0894    0.7775    5.1109 C   0  0  0  0  0  0  0  0  0  0  0  0
   -1.6921    2.1814    5.2608 C   0  0  0  0  0  0  0  0  0  0  0  0
   -3.2224    2.2813    5.2586 C   0  0  0  0  0  0  0  0  0  0  0  0
   -3.6837    1.5909    6.3377 F   0  0  0  0  0  0  0  0  0  0  0  0
   -3.5461    3.5824    5.4740 F   0  0  0  0  0  0  0  0  0  0  0  0
   -3.9123    1.7736    3.9980 C   0  0  0  0  0  0  0  0  0  0  0  0
   -3.3570    2.3841    2.9050 F   0  0  0  0  0  0  0  0  0  0  0  0
   -3.6910    0.4579    3.8930 F   0  0  0  0  0  0  0  0  0  0  0  0
   -5.3933    1.8823    3.9279 C   0  0  0  0  0  0  0  0  0  0  0  0
   -5.9402    1.2014    4.9748 F   0  0  0  0  0  0  0  0  0  0  0  0
   -5.8211    3.1603    4.0291 F   0  0  0  0  0  0  0  0  0  0  0  0
   -5.8232    1.2484    2.5983 C   0  0  0  0  0  0  0  0  0  0  0  0
   -5.3296    1.9742    1.5554 F   0  0  0  0  0  0  0  0  0  0  0  0
   -5.3110   -0.0038    2.4402 F   0  0  0  0  0  0  0  0  0  0  0  0
   -7.3142    1.1673    2.5238 C   0  0  0  0  0  0  0  0  0  0  0  0
   -7.7937    0.4064    3.5491 F   0  0  0  0  0  0  0  0  0  0  0  0
   -7.8593    2.4040    2.6808 F   0  0  0  0  0  0  0  0  0  0  0  0
   -7.7187    0.5648    1.1962 C   0  0  0  0  0  0  0  0  0  0  0  0
   -7.2841    1.2952    0.1429 F   0  0  0  0  0  0  0  0  0  0  0  0
   -7.2498   -0.6936    1.0287 F   0  0  0  0  0  0  0  0  0  0  0  0
   -9.0696    0.4937    1.0924 F   0  0  0  0  0  0  0  0  0  0  0  0
    0.5765    0.8991   -0.2199 H   0  0  0  0  0  0  0  0  0  0  0  0
    0.6470   -0.5694   -1.1888 H   0  0  0  0  0  0  0  0  0  0  0  0
    2.1018    0.0074   -0.3390 H   0  0  0  0  0  0  0  0  0  0  0  0
   -0.4287   -1.0509    1.0099 H   0  0  0  0  0  0  0  0  0  0  0  0
    1.0463   -1.9568    0.8306 H   0  0  0  0  0  0  0  0  0  0  0  0
    1.0964   -0.9829    3.0475 H   0  0  0  0  0  0  0  0  0  0  0  0
    2.3420   -0.2293    2.1229 H   0  0  0  0  0  0  0  0  0  0  0  0
    1.0897    1.4854    3.4121 H   0  0  0  0  0  0  0  0  0  0  0  0
    0.9530    1.7972    1.7025 H   0  0  0  0  0  0  0  0  0  0  0  0
   -1.2220    2.0382    2.6976 H   0  0  0  0  0  0  0  0  0  0  0  0
   -1.3154    0.6785    1.6623 H   0  0  0  0  0  0  0  0  0  0  0  0
   -2.1589   -0.3842    3.5433 H   0  0  0  0  0  0  0  0  0  0  0  0
   -0.6175   -0.8104    3.7856 H   0  0  0  0  0  0  0  0  0  0  0  0
   -1.4952    0.1135    5.8826 H   0  0  0  0  0  0  0  0  0  0  0  0
   -0.0161    0.8550    5.3255 H   0  0  0  0  0  0  0  0  0  0  0  0
   -1.3391    2.5728    6.2259 H   0  0  0  0  0  0  0  0  0  0  0  0
   -1.2640    2.8806    4.5312 H   0  0  0  0  0  0  0  0  0  0  0  0
  1  2  1  0  0  0  0
  1 28  1  0  0  0  0
  1 29  1  0  0  0  0
  1 30  1  0  0  0  0
  2  3  1  0  0  0  0
  2 31  1  0  0  0  0
  2 32  1  0  0  0  0
  3  4  1  0  0  0  0
  3 33  1  0  0  0  0
  3 34  1  0  0  0  0
  4  5  1  0  0  0  0
  4 35  1  0  0  0  0
  4 36  1  0  0  0  0
  5  6  1  0  0  0  0
  5 37  1  0  0  0  0
  5 38  1  0  0  0  0
  6  7  1  0  0  0  0
  6 39  1  0  0  0  0
  6 40  1  0  0  0  0
  7  8  1  0  0  0  0
  7 41  1  0  0  0  0
  7 42  1  0  0  0  0
  8  9  1  0  0  0  0
  8 43  1  0  0  0  0
  8 44  1  0  0  0  0
  9 10  1  0  0  0  0
  9 11  1  0  0  0  0
  9 12  1  0  0  0  0
 12 13  1  0  0  0  0
 12 14  1  0  0  0  0
 12 15  1  0  0  0  0
 15 16  1  0  0  0  0
 15 17  1  0  0  0  0
 15 18  1  0  0  0  0
 18 19  1  0  0  0  0
 18 20  1  0  0  0  0
 18 21  1  0  0  0  0
 21 22  1  0  0  0  0
 21 23  1  0  0  0  0
 21 24  1  0  0  0  0
 24 25  1  0  0  0  0
 24 26  1  0  0  0  0
 24 27  1  0  0  0  0
M  END
>  <DRUGBANK_ID>
DB17823

>  <COMMON_NAME>
Perfluorohexyloctane

>  <CAS_NUMBER>
133331-77-8

>  <UNII>
7VYX4ELWQM

>  <SYNONYMS>
1-(perfluorohexyl)octane; F6H8; NOV03; Tetradecane, 1,1,1,2,2,3,3,4,4,5,5,6,6-tridecafluoro-

$$$$
