
 OpenBabel10282417223D

  2  1  0  0  0  0  0  0  0  0999 V2000
    1.0698    0.0583    0.0416 Cs  0  0  0  0  0  0  0  0  0  0  0  0
    3.8198    0.0583    0.0416 H   0  0  0  0  0  0  0  0  0  0  0  0
  1  2  1  0  0  0  0
M  END
>  <DRUGBANK_ID>
DB15392

>  <COMMON_NAME>
Cesium

>  <CAS_NUMBER>
7440-46-2

>  <UNII>
1KSV9V4Y4I

$$$$
