
 OpenBabel10282417123D

 14 13  0  0  0  0  0  0  0  0999 V2000
    0.9886    1.9240    1.8302 C   0  0  0  0  0  0  0  0  0  0  0  0
    0.5215    1.5526    0.4586 C   0  0  0  0  0  0  0  0  0  0  0  0
   -0.2525    2.2870   -0.3593 C   0  0  0  0  0  0  0  0  0  0  0  0
   -0.7928    3.6400   -0.0242 C   0  0  0  0  0  0  0  0  0  0  0  0
   -1.6581    4.3504   -1.0578 C   0  0  0  0  0  0  0  0  0  0  0  0
   -0.6077    4.2537    1.0221 O   0  0  0  0  0  0  0  0  0  0  0  0
   -2.0626    5.5542   -0.6012 O   0  0  0  0  0  0  0  0  0  0  0  0
   -1.9341    3.8756   -2.1436 O   0  0  0  0  0  0  0  0  0  0  0  0
    0.8617    0.5745    0.1117 H   0  0  0  0  0  0  0  0  0  0  0  0
   -0.5185    1.8918   -1.3385 H   0  0  0  0  0  0  0  0  0  0  0  0
    0.6445    2.8988    2.1654 H   0  0  0  0  0  0  0  0  0  0  0  0
    2.0809    1.9512    1.8592 H   0  0  0  0  0  0  0  0  0  0  0  0
    0.6243    1.1961    2.5597 H   0  0  0  0  0  0  0  0  0  0  0  0
   -1.7054    5.7079    0.3073 H   0  0  0  0  0  0  0  0  0  0  0  0
  1 11  1  0  0  0  0
  1 12  1  0  0  0  0
  1 13  1  0  0  0  0
  2  1  1  0  0  0  0
  3  2  2  0  0  0  0
  4  3  1  0  0  0  0
  5  4  1  0  0  0  0
  6  4  2  0  0  0  0
  7  5  1  0  0  0  0
  7 14  1  0  0  0  0
  8  5  2  0  0  0  0
  9  2  1  0  0  0  0
 10  3  1  0  0  0  0
M  END
>  <DRUGBANK_ID>
DB02005

>  <SECONDARY_ACCESSION_NUMBERS>
EXPT02462

>  <COMMON_NAME>
2-Oxo-3-Pentenoic Acid

$$$$
