FXG
 OpenBabel10282417163D

 60 62  0  0  0  0  0  0  0  0999 V2000
    1.0481    0.0558    0.0380 O   0  0  0  0  0  0  0  0  0  0  0  0
    2.2754    0.0044   -0.0428 C   0  0  0  0  0  0  0  0  0  0  0  0
    3.1064    0.7982    0.9380 C   0  0  0  0  0  0  0  0  0  0  0  0
    3.9720   -0.0887    1.8280 C   0  0  0  0  0  0  0  0  0  0  0  0
    5.0852   -0.8168    1.0722 C   0  0  0  0  0  0  0  0  0  0  0  0
    5.9883    0.1594    0.3000 C   0  0  0  0  0  0  0  0  0  0  0  0
    6.7508    1.0864    1.2538 C   0  0  0  0  0  0  0  0  0  0  0  0
    7.5442    0.3205    2.2044 N   0  0  0  0  0  0  0  0  0  0  0  0
    8.9218    0.4179    2.0672 C   0  0  0  0  0  0  0  0  0  0  0  0
    9.7925   -0.6881    1.9548 C   0  0  0  0  0  0  0  0  0  0  0  0
   11.1462   -0.3973    1.9078 C   0  0  0  0  0  0  0  0  0  0  0  0
   11.7720   -1.5969    1.7396 N   0  0  0  0  0  0  0  0  0  0  0  0
   10.8038   -2.5631    1.6969 C   0  0  0  0  0  0  0  0  0  0  0  0
    9.5951   -2.0554    1.8442 N   0  0  0  0  0  0  0  0  0  0  0  0
   11.7350    0.8028    1.9928 N   0  0  0  0  0  0  0  0  0  0  0  0
   10.8119    1.7755    2.1067 C   0  0  0  0  0  0  0  0  0  0  0  0
    9.4717    1.6564    2.1160 N   0  0  0  0  0  0  0  0  0  0  0  0
    2.9719   -0.7611   -0.9726 N   0  0  0  0  0  0  0  0  0  0  0  0
    2.3151   -1.5214   -1.9371 C   0  0  0  0  0  0  0  0  0  0  0  0
    1.2896   -0.8695   -2.6135 C   0  0  0  0  0  0  0  0  0  0  0  0
    0.4875   -1.5702   -3.4590 C   0  0  0  0  0  0  0  0  0  0  0  0
    0.7122   -2.9255   -3.5570 C   0  0  0  0  0  0  0  0  0  0  0  0
    1.9058   -3.5381   -3.1748 C   0  0  0  0  0  0  0  0  0  0  0  0
    2.6908   -2.8404   -2.2552 C   0  0  0  0  0  0  0  0  0  0  0  0
    2.3540   -4.8605   -3.7452 C   0  0  0  0  0  0  0  0  0  0  0  0
    3.3254   -5.4330   -3.2814 O   0  0  0  0  0  0  0  0  0  0  0  0
    1.7357   -5.4086   -4.8620 N   0  0  0  0  0  0  0  0  0  0  0  0
    0.6141   -4.9416   -5.6557 C   0  0  0  0  0  0  0  0  0  0  0  0
    0.8964   -4.7014   -7.1154 C   0  0  0  0  0  0  0  0  0  0  0  0
    1.1365   -5.9872   -7.8558 C   0  0  0  0  0  0  0  0  0  0  0  0
   -0.0657   -6.9092   -7.7243 C   0  0  0  0  0  0  0  0  0  0  0  0
    3.6668    1.5729    0.4064 H   0  0  0  0  0  0  0  0  0  0  0  0
    2.4054    1.3468    1.5812 H   0  0  0  0  0  0  0  0  0  0  0  0
    4.4122    0.5304    2.6186 H   0  0  0  0  0  0  0  0  0  0  0  0
    3.3441   -0.8241    2.3428 H   0  0  0  0  0  0  0  0  0  0  0  0
    5.6645   -1.4292    1.7636 H   0  0  0  0  0  0  0  0  0  0  0  0
    4.6702   -1.5845    0.4180 H   0  0  0  0  0  0  0  0  0  0  0  0
    6.6758   -0.3998   -0.3434 H   0  0  0  0  0  0  0  0  0  0  0  0
    5.4043    0.7809   -0.3939 H   0  0  0  0  0  0  0  0  0  0  0  0
    7.3355    1.8008    0.6617 H   0  0  0  0  0  0  0  0  0  0  0  0
    6.0416    1.6944    1.8257 H   0  0  0  0  0  0  0  0  0  0  0  0
    7.2425   -0.6207    2.4254 H   0  0  0  0  0  0  0  0  0  0  0  0
   12.7683   -1.7232    1.6402 H   0  0  0  0  0  0  0  0  0  0  0  0
   11.0458   -3.6088    1.5499 H   0  0  0  0  0  0  0  0  0  0  0  0
   11.1867    2.7881    2.2103 H   0  0  0  0  0  0  0  0  0  0  0  0
    3.9764   -0.7901   -1.0218 H   0  0  0  0  0  0  0  0  0  0  0  0
    1.0670    0.1734   -2.4183 H   0  0  0  0  0  0  0  0  0  0  0  0
   -0.3507   -1.0987   -3.9541 H   0  0  0  0  0  0  0  0  0  0  0  0
   -0.1418   -3.4932   -3.8868 H   0  0  0  0  0  0  0  0  0  0  0  0
    3.4964   -3.3592   -1.7368 H   0  0  0  0  0  0  0  0  0  0  0  0
    2.1427   -6.3035   -5.1202 H   0  0  0  0  0  0  0  0  0  0  0  0
   -0.2506   -5.5726   -5.4280 H   0  0  0  0  0  0  0  0  0  0  0  0
    0.3299   -3.9412   -5.4281 H   0  0  0  0  0  0  0  0  0  0  0  0
    0.0257   -4.1784   -7.5402 H   0  0  0  0  0  0  0  0  0  0  0  0
    1.7439   -4.0113   -7.2107 H   0  0  0  0  0  0  0  0  0  0  0  0
    1.3226   -5.7491   -8.9066 H   0  0  0  0  0  0  0  0  0  0  0  0
    2.0333   -6.4693   -7.4556 H   0  0  0  0  0  0  0  0  0  0  0  0
   -0.9689   -6.4203   -8.1062 H   0  0  0  0  0  0  0  0  0  0  0  0
    0.1075   -7.8339   -8.2722 H   0  0  0  0  0  0  0  0  0  0  0  0
   -0.2595   -7.1893   -6.6836 H   0  0  0  0  0  0  0  0  0  0  0  0
  2  1  2  0  0  0  0
  2  3  1  0  0  0  0
  3  4  1  0  0  0  0
  3 32  1  0  0  0  0
  3 33  1  0  0  0  0
  4 34  1  0  0  0  0
  4 35  1  0  0  0  0
  5  4  1  0  0  0  0
  5 36  1  0  0  0  0
  5 37  1  0  0  0  0
  6  5  1  0  0  0  0
  6 38  1  0  0  0  0
  6 39  1  0  0  0  0
  7  6  1  0  0  0  0
  7 40  1  0  0  0  0
  7 41  1  0  0  0  0
  8  7  1  0  0  0  0
  8 42  1  0  0  0  0
  9  8  1  0  0  0  0
  9 17  1  0  0  0  0
 10  9  2  0  0  0  0
 11 10  1  0  0  0  0
 11 15  2  0  0  0  0
 12 11  1  0  0  0  0
 12 13  1  0  0  0  0
 12 43  1  0  0  0  0
 13 14  2  0  0  0  0
 13 44  1  0  0  0  0
 14 10  1  0  0  0  0
 15 16  1  0  0  0  0
 16 17  2  0  0  0  0
 16 45  1  0  0  0  0
 18  2  1  0  0  0  0
 18 46  1  0  0  0  0
 19 18  1  0  0  0  0
 20 19  1  0  0  0  0
 20 47  1  0  0  0  0
 21 20  2  0  0  0  0
 21 48  1  0  0  0  0
 22 21  1  0  0  0  0
 22 23  2  0  0  0  0
 22 49  1  0  0  0  0
 23 24  1  0  0  0  0
 24 19  2  0  0  0  0
 24 50  1  0  0  0  0
 25 23  1  0  0  0  0
 25 26  2  0  0  0  0
 27 25  1  0  0  0  0
 27 51  1  0  0  0  0
 28 27  1  0  0  0  0
 28 52  1  0  0  0  0
 28 53  1  0  0  0  0
 29 28  1  0  0  0  0
 29 30  1  0  0  0  0
 29 54  1  0  0  0  0
 29 55  1  0  0  0  0
 30 56  1  0  0  0  0
 30 57  1  0  0  0  0
 31 30  1  0  0  0  0
 31 58  1  0  0  0  0
 31 59  1  0  0  0  0
 31 60  1  0  0  0  0
M  END
>  <DRUGBANK_ID>
DB07801

>  <COMMON_NAME>
N-butyl-3-{[6-(9H-purin-6-ylamino)hexanoyl]amino}benzamide

$$$$
