
 OpenBabel10282417123D

 22 23  0  0  1  0  0  0  0  0999 V2000
   -2.3715   -0.0040    0.0053 C   0  0  0  0  0  0  0  0  0  0  0  0
   -1.6143    1.1448   -0.0696 C   0  0  0  0  0  0  0  0  0  0  0  0
    0.8747    1.5378   -0.0494 C   0  0  0  0  0  0  0  0  0  0  0  0
    2.1096    0.7361    0.3718 C   0  0  2  0  0  0  0  0  0  0  0  0
    2.1290   -0.6216   -0.3713 C   0  0  1  0  0  0  0  0  0  0  0  0
    0.9180   -1.4740    0.0643 C   0  0  2  0  0  0  0  0  0  0  0  0
   -0.3345   -0.6611    0.0007 C   0  0  0  0  0  0  0  0  0  0  0  0
   -1.5749   -1.1163    0.0689 N   0  0  0  0  0  0  0  0  0  0  0  0
   -0.3243    0.7092   -0.0367 N   0  0  0  0  0  0  0  0  0  0  0  0
    2.1212    0.6097    1.7989 O   0  0  0  0  0  0  0  0  0  0  0  0
    2.1466   -0.4035   -1.7934 O   0  0  0  0  0  0  0  0  0  0  0  0
    1.0654   -1.8483    1.4385 O   0  0  0  0  0  0  0  0  0  0  0  0
    3.0064    1.3074    0.1107 H   0  0  0  0  0  0  0  0  0  0  0  0
    3.0513   -1.1568   -0.1179 H   0  0  0  0  0  0  0  0  0  0  0  0
    0.8246   -2.3739   -0.5537 H   0  0  0  0  0  0  0  0  0  0  0  0
   -3.4506   -0.0871    0.0199 H   0  0  0  0  0  0  0  0  0  0  0  0
   -1.8826    2.1873   -0.1279 H   0  0  0  0  0  0  0  0  0  0  0  0
    0.6994    2.3810    0.6253 H   0  0  0  0  0  0  0  0  0  0  0  0
    0.9831    1.9079   -1.0749 H   0  0  0  0  0  0  0  0  0  0  0  0
    1.4691   -0.0759    2.0573 H   0  0  0  0  0  0  0  0  0  0  0  0
    1.2527   -0.1594   -2.0978 H   0  0  0  0  0  0  0  0  0  0  0  0
    0.1674   -2.0493    1.7688 H   0  0  0  0  0  0  0  0  0  0  0  0
  1 16  1  0  0  0  0
  2  1  2  0  0  0  0
  2 17  1  0  0  0  0
  3 18  1  0  0  0  0
  3 19  1  0  0  0  0
  4  3  1  0  0  0  0
  4 10  1  0  0  0  0
  4 13  1  6  0  0  0
  5  4  1  0  0  0  0
  5 11  1  0  0  0  0
  5 14  1  1  0  0  0
  6  5  1  0  0  0  0
  6 15  1  6  0  0  0
  6 12  1  0  0  0  0
  7  6  1  0  0  0  0
  8  1  1  0  0  0  0
  8  7  2  0  0  0  0
  9  2  1  0  0  0  0
  9  3  1  0  0  0  0
  9  7  1  0  0  0  0
 10 20  1  0  0  0  0
 11 21  1  0  0  0  0
 12 22  1  0  0  0  0
M  END
>  <DRUGBANK_ID>
DB02374

>  <SECONDARY_ACCESSION_NUMBERS>
EXPT03259

>  <COMMON_NAME>
Xylose-Derived Imidazole

$$$$
