
 OpenBabel10282417243D

 27 28  0  0  0  0  0  0  0  0999 V2000
    0.7682   -0.0548   -0.0433 O   0  0  0  0  0  0  0  0  0  0  0  0
    0.2288    0.2263    1.1552 C   0  0  0  0  0  0  0  0  0  0  0  0
    0.9160    0.4890    2.1298 O   0  0  0  0  0  0  0  0  0  0  0  0
   -1.2494    0.2419    1.1155 C   0  0  0  0  0  0  0  0  0  0  0  0
   -1.9178   -0.7872    0.4152 C   0  0  0  0  0  0  0  0  0  0  0  0
   -3.3132   -0.8578    0.4101 C   0  0  0  0  0  0  0  0  0  0  0  0
   -4.0393    0.0986    1.0922 C   0  0  0  0  0  0  0  0  0  0  0  0
   -5.3775    0.0357    1.1163 F   0  0  0  0  0  0  0  0  0  0  0  0
   -3.3931    1.1357    1.7423 C   0  0  0  0  0  0  0  0  0  0  0  0
   -4.1833    2.0577    2.3149 F   0  0  0  0  0  0  0  0  0  0  0  0
   -1.9807    1.2289    1.8097 C   0  0  0  0  0  0  0  0  0  0  0  0
   -1.3589    2.3474    2.4358 N   0  0  0  0  0  0  0  0  0  0  0  0
   -2.0260    3.2496    3.3027 C   0  0  0  0  0  0  0  0  0  0  0  0
   -2.0091    4.6121    2.9657 C   0  0  0  0  0  0  0  0  0  0  0  0
   -2.8305    5.5210    3.6422 C   0  0  0  0  0  0  0  0  0  0  0  0
   -3.6334    5.0818    4.6945 C   0  0  0  0  0  0  0  0  0  0  0  0
   -4.8549    6.4225    5.7086 I   0  0  0  0  0  0  0  0  0  0  0  0
   -3.6107    3.7481    5.0912 C   0  0  0  0  0  0  0  0  0  0  0  0
   -2.7820    2.8427    4.4263 C   0  0  0  0  0  0  0  0  0  0  0  0
   -2.8007    1.2025    4.9945 Cl  0  0  0  0  0  0  0  0  0  0  0  0
    1.7395    0.0121    0.0852 H   0  0  0  0  0  0  0  0  0  0  0  0
   -1.3528   -1.5485   -0.1186 H   0  0  0  0  0  0  0  0  0  0  0  0
   -3.8443   -1.6421   -0.1184 H   0  0  0  0  0  0  0  0  0  0  0  0
   -0.3572    2.2579    2.6147 H   0  0  0  0  0  0  0  0  0  0  0  0
   -1.4211    4.9584    2.1181 H   0  0  0  0  0  0  0  0  0  0  0  0
   -2.8599    6.5578    3.3150 H   0  0  0  0  0  0  0  0  0  0  0  0
   -4.2538    3.3944    5.8922 H   0  0  0  0  0  0  0  0  0  0  0  0
  1  2  1  0  0  0  0
  1 21  1  0  0  0  0
  2  3  2  0  0  0  0
  2  4  1  0  0  0  0
  4  5  2  0  0  0  0
  4 11  1  0  0  0  0
  5  6  1  0  0  0  0
  5 22  1  0  0  0  0
  6  7  2  0  0  0  0
  6 23  1  0  0  0  0
  7  8  1  0  0  0  0
  7  9  1  0  0  0  0
  9 10  1  0  0  0  0
  9 11  2  0  0  0  0
 11 12  1  0  0  0  0
 12 13  1  0  0  0  0
 12 24  1  0  0  0  0
 13 14  2  0  0  0  0
 13 19  1  0  0  0  0
 14 15  1  0  0  0  0
 14 25  1  0  0  0  0
 15 16  2  0  0  0  0
 15 26  1  0  0  0  0
 16 17  1  0  0  0  0
 16 18  1  0  0  0  0
 18 19  2  0  0  0  0
 18 27  1  0  0  0  0
 19 20  1  0  0  0  0
M  END
>  <DRUGBANK_ID>
DB18244

>  <COMMON_NAME>
Zapnometinib

>  <CAS_NUMBER>
303175-44-2

>  <UNII>
4RZD8LK83V

>  <SYNONYMS>
Benzoic acid, 2-((2-chloro-4-iodophenyl)amino)-3,4-difluoro-

$$$$
