
 OpenBabel10282417183D

 49 46  0  0  0  0  0  0  0  0999 V2000
   -0.6299   -0.6338   -1.0757 C   0  0  0  0  0  0  0  0  0  0  0  0
   -0.1746    0.1978    0.1124 C   0  0  2  0  0  0  0  0  0  0  0  0
   -1.3372    0.3883    1.0729 C   0  0  2  0  0  0  0  0  0  0  0  0
   -0.6801   -0.0914    2.3568 C   0  0  1  0  0  0  0  0  0  0  0  0
    0.7285    0.4799    2.3580 C   0  0  2  0  0  0  0  0  0  0  0  0
    1.5706   -0.2462    1.3216 C   0  0  0  0  0  0  0  0  0  0  0  0
   -1.6105    0.1546   -1.7340 O   0  0  0  0  0  0  0  0  0  0  0  0
    0.2764    1.4653   -0.3420 O   0  0  0  0  0  0  0  0  0  0  0  0
   -1.9672   -0.7074    0.4256 O   0  0  0  0  0  0  0  0  0  0  0  0
   -1.3426    0.4878    3.4712 O   0  0  0  0  0  0  0  0  0  0  0  0
    1.3077    0.3085    3.6431 O   0  0  0  0  0  0  0  0  0  0  0  0
    2.8212   -0.4532    1.4137 O   0  0  0  0  0  0  0  0  0  0  0  0
    0.8516   -0.7308    0.1971 O   0  5  0  0  0  0  0  0  0  0  0  0
    1.1433   -4.5599   -3.3891 C   0  0  0  0  0  0  0  0  0  0  0  0
    1.3319   -4.8043   -1.9007 C   0  0  2  0  0  0  0  0  0  0  0  0
    2.4810   -3.9512   -1.3888 C   0  0  2  0  0  0  0  0  0  0  0  0
    2.2132   -2.4589   -1.2814 C   0  0  1  0  0  0  0  0  0  0  0  0
    2.7591   -1.8743    0.0112 C   0  0  2  0  0  0  0  0  0  0  0  0
    2.4036   -0.3985    0.0897 C   0  0  0  0  0  0  0  0  0  0  0  0
    2.1269   -3.5596   -3.6089 O   0  0  0  0  0  0  0  0  0  0  0  0
    1.6255   -6.1759   -1.6797 O   0  0  0  0  0  0  0  0  0  0  0  0
    3.5855   -4.1728   -2.2534 O   0  0  0  0  0  0  0  0  0  0  0  0
    2.9353   -1.8887   -2.3630 O   0  0  0  0  0  0  0  0  0  0  0  0
    4.1710   -2.0232    0.0388 O   0  0  0  0  0  0  0  0  0  0  0  0
    1.6210   -0.4904    1.0868 O   0  0  0  0  0  0  0  0  0  0  0  0
    2.0866    0.4758   -0.9834 O   0  5  0  0  0  0  0  0  0  0  0  0
    1.0621    0.0679   -0.0391 Mn  0  2  0  0  0  0  0  0  0  0  0  0
    0.6244   -0.3059    0.6151 H   0  0  0  0  0  0  0  0  0  0  0  0
   -2.0684    1.1345    1.3037 H   0  0  0  0  0  0  0  0  0  0  0  0
   -0.7413   -1.1578    2.4201 H   0  0  0  0  0  0  0  0  0  0  0  0
    0.6907    1.5224    2.1199 H   0  0  0  0  0  0  0  0  0  0  0  0
    0.4343   -4.5432   -1.3799 H   0  0  0  0  0  0  0  0  0  0  0  0
    2.7029   -4.3445   -0.4188 H   0  0  0  0  0  0  0  0  0  0  0  0
    1.1647   -2.3102   -1.4347 H   0  0  0  0  0  0  0  0  0  0  0  0
    2.3297   -2.3894    0.8449 H   0  0  0  0  0  0  0  0  0  0  0  0
   -1.0345   -1.6010   -0.8621 H   0  0  0  0  0  0  0  0  0  0  0  0
    0.2275   -0.7373   -1.7074 H   0  0  0  0  0  0  0  0  0  0  0  0
   -1.2325    1.0586   -1.9336 H   0  0  0  0  0  0  0  0  0  0  0  0
   -0.4704    1.9361   -0.8118 H   0  0  0  0  0  0  0  0  0  0  0  0
   -1.2628   -0.4337   -0.2292 H   0  0  0  0  0  0  0  0  0  0  0  0
   -1.2853    1.4844    3.4121 H   0  0  0  0  0  0  0  0  0  0  0  0
    1.3430   -0.6658    3.8655 H   0  0  0  0  0  0  0  0  0  0  0  0
    0.1730   -4.1091   -3.3746 H   0  0  0  0  0  0  0  0  0  0  0  0
    1.1886   -5.2837   -4.1758 H   0  0  0  0  0  0  0  0  0  0  0  0
    3.0336   -3.9809   -3.6224 H   0  0  0  0  0  0  0  0  0  0  0  0
    2.4643   -6.4198   -2.1664 H   0  0  0  0  0  0  0  0  0  0  0  0
    3.8733   -4.1264   -3.2100 H   0  0  0  0  0  0  0  0  0  0  0  0
    3.9151   -2.0277   -2.2197 H   0  0  0  0  0  0  0  0  0  0  0  0
    4.5722   -1.5417   -0.7405 H   0  0  0  0  0  0  0  0  0  0  0  0
  1 36  1  0  0  0  0
  1 37  1  0  0  0  0
  2  8  1  0  0  0  0
  2 28  1  1  0  0  0
  2  3  1  0  0  0  0
  2  1  1  0  0  0  0
  3 29  1  1  0  0  0
  3  9  1  0  0  0  0
  3  4  1  0  0  0  0
  4 10  1  0  0  0  0
  4 30  1  1  0  0  0
  5 11  1  0  0  0  0
  5 31  1  6  0  0  0
  5  6  1  0  0  0  0
  5  4  1  0  0  0  0
  7  1  1  0  0  0  0
  7 38  1  0  0  0  0
  8 39  1  0  0  0  0
  9 40  1  0  0  0  0
 10 41  1  0  0  0  0
 11 42  1  0  0  0  0
 12  6  2  0  0  0  0
 13  6  1  0  0  0  0
 14 43  1  0  0  0  0
 14 44  1  0  0  0  0
 15 21  1  0  0  0  0
 15 32  1  1  0  0  0
 15 16  1  0  0  0  0
 15 14  1  0  0  0  0
 16 33  1  1  0  0  0
 16 22  1  0  0  0  0
 16 17  1  0  0  0  0
 17 23  1  0  0  0  0
 17 34  1  6  0  0  0
 18 24  1  0  0  0  0
 18 35  1  1  0  0  0
 18 19  1  0  0  0  0
 18 17  1  0  0  0  0
 20 14  1  0  0  0  0
 20 45  1  0  0  0  0
 21 46  1  0  0  0  0
 22 47  1  0  0  0  0
 23 48  1  0  0  0  0
 24 49  1  0  0  0  0
 25 19  2  0  0  0  0
 26 19  1  0  0  0  0
M  CHG  3  13  -1  26  -1  27   2
M  END
>  <DRUGBANK_ID>
DB11141

>  <COMMON_NAME>
Manganese gluconate

>  <CAS_NUMBER>
6485-39-8

>  <UNII>
7G09WJ8QIR

>  <SYNONYMS>
Manganese D-gluconate; Manganese gluconate anhydrous; Manganese(II) gluconate

$$$$
