
 OpenBabel10282417243D

 83 88  0  0  1  0  0  0  0  0999 V2000
    0.5303   -0.2454    0.1372 C   0  0  0  0  0  0  0  0  0  0  0  0
    0.4293    0.2440   -1.3026 C   0  0  0  0  0  0  0  0  0  0  0  0
    1.1536   -0.6091   -2.1811 O   0  0  0  0  0  0  0  0  0  0  0  0
    2.6106   -0.5038   -2.2464 C   0  0  0  0  0  0  0  0  0  0  0  0
    3.0024    0.5872   -3.2480 C   0  0  0  0  0  0  0  0  0  0  0  0
    2.6003    0.2608   -4.6715 C   0  0  0  0  0  0  0  0  0  0  0  0
    3.1497   -1.0241   -5.1190 N   0  0  0  0  0  0  0  0  0  0  0  0
    2.6242   -2.1036   -4.2712 C   0  0  0  0  0  0  0  0  0  0  0  0
    3.0232   -1.8896   -2.8155 C   0  0  0  0  0  0  0  0  0  0  0  0
    2.8687   -1.2840   -6.5490 C   0  0  0  0  0  0  0  0  0  0  0  0
    1.3689   -1.3713   -6.8615 C   0  0  0  0  0  0  0  0  0  0  0  0
    3.5285   -0.2195   -7.4376 C   0  0  0  0  0  0  0  0  0  0  0  0
    3.3013   -0.1906   -0.8916 C   0  0  0  0  0  0  0  0  0  0  0  0
    3.1226    1.0429   -0.2314 C   0  0  0  0  0  0  0  0  0  0  0  0
    3.3653    1.1484    1.1511 C   0  0  0  0  0  0  0  0  0  0  0  0
    3.9403    0.0791    1.8363 C   0  0  0  0  0  0  0  0  0  0  0  0
    4.2856   -1.0589    1.1899 N   0  0  0  0  0  0  0  0  0  0  0  0
    3.9296   -1.1772   -0.1273 C   0  0  0  0  0  0  0  0  0  0  0  0
    4.3658    0.2349    3.2356 C   0  0  0  0  0  0  0  0  0  0  0  0
    5.7025    0.2379    3.7240 C   0  0  0  0  0  0  0  0  0  0  0  0
    5.7129    0.8568    4.9610 C   0  0  0  0  0  0  0  0  0  0  0  0
    6.7503    1.3547    5.8095 C   0  0  0  0  0  0  0  0  0  0  0  0
    6.3623    1.9414    6.9551 C   0  0  0  0  0  0  0  0  0  0  0  0
    4.9165    2.0198    7.2555 C   0  0  0  0  0  0  0  0  0  0  0  0
    3.9516    1.5636    6.5200 N   0  0  0  0  0  0  0  0  0  0  0  0
    4.3947    0.9859    5.3606 N   0  0  0  0  0  0  0  0  0  0  0  0
    3.5758    0.5071    4.3462 C   0  0  0  0  0  0  0  0  0  0  0  0
    8.0999    1.3049    5.4489 N   0  0  0  0  0  0  0  0  0  0  0  0
    9.1243    0.5930    6.2428 C   0  0  0  0  0  0  0  0  0  0  0  0
   10.3277    1.5210    6.5266 C   0  0  0  0  0  0  0  0  0  0  0  0
   10.8598    2.0935    5.2868 N   0  0  0  0  0  0  0  0  0  0  0  0
    9.8345    2.7726    4.4690 C   0  0  0  0  0  0  0  0  0  0  0  0
    8.6300    1.8408    4.1765 C   0  0  0  0  0  0  0  0  0  0  0  0
   12.1833    2.0173    4.8545 C   0  0  0  0  0  0  0  0  0  0  0  0
   12.5696    2.5206    3.8163 O   0  0  0  0  0  0  0  0  0  0  0  0
   13.0161    1.3104    5.6970 O   0  0  0  0  0  0  0  0  0  0  0  0
   14.4088    1.2046    5.2732 C   0  0  2  0  0  0  0  0  0  0  0  0
   15.0510   -0.0403    5.8603 C   0  0  0  0  0  0  0  0  0  0  0  0
   15.5303    0.4138    7.2229 C   0  0  0  0  0  0  0  0  0  0  0  0
   15.7835    1.8194    7.1398 O   0  0  0  0  0  0  0  0  0  0  0  0
   15.2683    2.3070    5.8855 C   0  0  0  0  0  0  0  0  0  0  0  0
   -0.0375   -1.1623    0.2799 H   0  0  0  0  0  0  0  0  0  0  0  0
    0.2527    0.5355    0.8471 H   0  0  0  0  0  0  0  0  0  0  0  0
    1.5083   -0.5944    0.4330 H   0  0  0  0  0  0  0  0  0  0  0  0
   -0.6330    0.2102   -1.5717 H   0  0  0  0  0  0  0  0  0  0  0  0
    0.7225    1.2860   -1.4690 H   0  0  0  0  0  0  0  0  0  0  0  0
    2.5240    1.5418   -3.0014 H   0  0  0  0  0  0  0  0  0  0  0  0
    4.0877    0.7449   -3.2169 H   0  0  0  0  0  0  0  0  0  0  0  0
    1.5090    0.2816   -4.7519 H   0  0  0  0  0  0  0  0  0  0  0  0
    2.9901    1.0825   -5.2779 H   0  0  0  0  0  0  0  0  0  0  0  0
    3.0299   -3.0707   -4.5998 H   0  0  0  0  0  0  0  0  0  0  0  0
    1.5327   -2.1808   -4.3316 H   0  0  0  0  0  0  0  0  0  0  0  0
    4.1058   -2.0312   -2.7454 H   0  0  0  0  0  0  0  0  0  0  0  0
    2.5348   -2.6871   -2.2356 H   0  0  0  0  0  0  0  0  0  0  0  0
    3.3340   -2.2432   -6.8186 H   0  0  0  0  0  0  0  0  0  0  0  0
    0.8532   -0.4380   -6.6167 H   0  0  0  0  0  0  0  0  0  0  0  0
    1.1995   -1.5695   -7.9215 H   0  0  0  0  0  0  0  0  0  0  0  0
    0.8849   -2.1789   -6.3041 H   0  0  0  0  0  0  0  0  0  0  0  0
    4.6083   -0.1694   -7.2575 H   0  0  0  0  0  0  0  0  0  0  0  0
    3.3669   -0.4442   -8.4955 H   0  0  0  0  0  0  0  0  0  0  0  0
    3.1101    0.7777   -7.2696 H   0  0  0  0  0  0  0  0  0  0  0  0
    2.5987    1.8659   -0.7154 H   0  0  0  0  0  0  0  0  0  0  0  0
    3.0382    2.0387    1.6785 H   0  0  0  0  0  0  0  0  0  0  0  0
    4.1055   -2.1702   -0.5317 H   0  0  0  0  0  0  0  0  0  0  0  0
    6.5843   -0.0395    3.1678 H   0  0  0  0  0  0  0  0  0  0  0  0
    7.0572    2.4040    7.6435 H   0  0  0  0  0  0  0  0  0  0  0  0
    4.6762    2.5356    8.2045 H   0  0  0  0  0  0  0  0  0  0  0  0
    2.5067    0.4775    4.5118 H   0  0  0  0  0  0  0  0  0  0  0  0
    8.7066    0.2172    7.1829 H   0  0  0  0  0  0  0  0  0  0  0  0
    9.4618   -0.2751    5.6627 H   0  0  0  0  0  0  0  0  0  0  0  0
    9.9822    2.3673    7.1352 H   0  0  0  0  0  0  0  0  0  0  0  0
   11.0999    0.9929    7.0889 H   0  0  0  0  0  0  0  0  0  0  0  0
    9.4823    3.6327    5.0552 H   0  0  0  0  0  0  0  0  0  0  0  0
   10.2521    3.1574    3.5348 H   0  0  0  0  0  0  0  0  0  0  0  0
    8.9574    1.0045    3.5476 H   0  0  0  0  0  0  0  0  0  0  0  0
    7.8605    2.3962    3.6274 H   0  0  0  0  0  0  0  0  0  0  0  0
   14.4767    1.1914    4.1799 H   0  0  0  0  0  0  0  0  0  0  0  0
   15.9276   -0.3278    5.2633 H   0  0  0  0  0  0  0  0  0  0  0  0
   14.3855   -0.9040    5.9291 H   0  0  0  0  0  0  0  0  0  0  0  0
   14.7669    0.2506    7.9890 H   0  0  0  0  0  0  0  0  0  0  0  0
   16.4445   -0.1026    7.5381 H   0  0  0  0  0  0  0  0  0  0  0  0
   16.1414    2.5240    5.2584 H   0  0  0  0  0  0  0  0  0  0  0  0
   14.7228    3.2345    6.0713 H   0  0  0  0  0  0  0  0  0  0  0  0
  1  2  1  0  0  0  0
  1 42  1  0  0  0  0
  1 43  1  0  0  0  0
  1 44  1  0  0  0  0
  2  3  1  0  0  0  0
  2 45  1  0  0  0  0
  2 46  1  0  0  0  0
  3  4  1  0  0  0  0
  4  5  1  0  0  0  0
  4  9  1  0  0  0  0
  4 13  1  0  0  0  0
  5  6  1  0  0  0  0
  5 47  1  0  0  0  0
  5 48  1  0  0  0  0
  6  7  1  0  0  0  0
  6 49  1  0  0  0  0
  6 50  1  0  0  0  0
  7  8  1  0  0  0  0
  7 10  1  0  0  0  0
  8  9  1  0  0  0  0
  8 51  1  0  0  0  0
  8 52  1  0  0  0  0
  9 53  1  0  0  0  0
  9 54  1  0  0  0  0
 10 11  1  0  0  0  0
 10 12  1  0  0  0  0
 10 55  1  0  0  0  0
 11 56  1  0  0  0  0
 11 57  1  0  0  0  0
 11 58  1  0  0  0  0
 12 59  1  0  0  0  0
 12 60  1  0  0  0  0
 12 61  1  0  0  0  0
 13 14  2  0  0  0  0
 13 18  1  0  0  0  0
 14 15  1  0  0  0  0
 14 62  1  0  0  0  0
 15 16  2  0  0  0  0
 15 63  1  0  0  0  0
 16 17  1  0  0  0  0
 16 19  1  0  0  0  0
 17 18  2  0  0  0  0
 18 64  1  0  0  0  0
 19 20  1  0  0  0  0
 19 27  2  0  0  0  0
 20 21  2  0  0  0  0
 20 65  1  0  0  0  0
 21 22  1  0  0  0  0
 21 26  1  0  0  0  0
 22 23  2  0  0  0  0
 22 28  1  0  0  0  0
 23 24  1  0  0  0  0
 23 66  1  0  0  0  0
 24 25  2  0  0  0  0
 24 67  1  0  0  0  0
 25 26  1  0  0  0  0
 26 27  1  0  0  0  0
 27 68  1  0  0  0  0
 28 29  1  0  0  0  0
 28 33  1  0  0  0  0
 29 30  1  0  0  0  0
 29 69  1  0  0  0  0
 29 70  1  0  0  0  0
 30 31  1  0  0  0  0
 30 71  1  0  0  0  0
 30 72  1  0  0  0  0
 31 32  1  0  0  0  0
 31 34  1  0  0  0  0
 32 33  1  0  0  0  0
 32 73  1  0  0  0  0
 32 74  1  0  0  0  0
 33 75  1  0  0  0  0
 33 76  1  0  0  0  0
 34 35  2  0  0  0  0
 34 36  1  0  0  0  0
 37 36  1  0  0  0  0
 37 38  1  0  0  0  0
 37 41  1  0  0  0  0
 37 77  1  6  0  0  0
 38 39  1  0  0  0  0
 38 78  1  0  0  0  0
 38 79  1  0  0  0  0
 39 40  1  0  0  0  0
 39 80  1  0  0  0  0
 39 81  1  0  0  0  0
 40 41  1  0  0  0  0
 41 82  1  0  0  0  0
 41 83  1  0  0  0  0
M  END
>  <DRUGBANK_ID>
DB18064

>  <COMMON_NAME>
Fidrisertib

>  <CAS_NUMBER>
2141955-96-4

>  <UNII>
KF4ZI0CJ7M

>  <SYNONYMS>
(r)-tetrahydrofuran-3-yl 4-(6-(5-(4-ethoxy-1-isopropylpiperidin-4-yl)pyridin-2-yl)pyrrolo(1,2-b)pyridazin-4-yl)piperazine-1-carboxylate; 1-piperazinecarboxylic acid, 4-(6-(5-(4-ethoxy-1-(1-methylethyl)-4-piperidinyl)-2-pyridinyl)pyrrolo(1,2-b)pyridazin-4-yl)-, (3r)-tetrahydro-3-furanyl ester

$$$$
