
 OpenBabel10282417203D

 46 46  0  0  0  0  0  0  0  0999 V2000
    1.3346    0.0342   -0.2727 C   0  0  0  0  0  0  0  0  0  0  0  0
    0.7368   -1.3651   -0.2081 C   0  0  0  0  0  0  0  0  0  0  0  0
    1.5917   -2.1367    0.8121 C   0  0  0  0  0  0  0  0  0  0  0  0
   -0.7355   -1.3469   -0.0382 N   0  0  0  0  0  0  0  0  0  0  0  0
   -1.3279   -2.7244   -0.1630 C   0  0  0  0  0  0  0  0  0  0  0  0
   -1.1056   -3.8426    0.9452 C   0  0  0  0  0  0  0  0  0  0  0  0
   -1.5439   -3.5886    2.3426 N   0  0  0  0  0  0  0  0  0  0  0  0
   -2.3865   -4.1740    3.1885 C   0  0  0  0  0  0  0  0  0  0  0  0
   -2.7137   -3.5799    4.2348 O   0  0  0  0  0  0  0  0  0  0  0  0
   -2.8610   -5.4882    2.7744 C   0  0  0  0  0  0  0  0  0  0  0  0
   -3.5326   -5.3519    1.4817 N   0  0  0  0  0  0  0  0  0  0  0  0
   -3.8115   -6.5197    0.7218 C   0  0  0  0  0  0  0  0  0  0  0  0
   -4.1466   -5.9891   -0.6521 C   0  0  0  0  0  0  0  0  0  0  0  0
   -4.6713   -4.5825   -0.4142 C   0  0  0  0  0  0  0  0  0  0  0  0
   -4.0558   -4.1930    0.8954 C   0  0  0  0  0  0  0  0  0  0  0  0
   -4.0219   -3.0414    1.2974 O   0  0  0  0  0  0  0  0  0  0  0  0
   -1.3238   -0.5489    1.0803 C   0  0  0  0  0  0  0  0  0  0  0  0
   -0.7610   -0.9663    2.4162 C   0  0  0  0  0  0  0  0  0  0  0  0
   -1.1463    0.9591    1.1655 C   0  0  0  0  0  0  0  0  0  0  0  0
    1.3435    0.4883    0.7151 H   0  0  0  0  0  0  0  0  0  0  0  0
    0.8104    0.6774   -0.9847 H   0  0  0  0  0  0  0  0  0  0  0  0
    2.3921   -0.0112   -0.5377 H   0  0  0  0  0  0  0  0  0  0  0  0
    0.9277   -1.8230   -1.1895 H   0  0  0  0  0  0  0  0  0  0  0  0
    1.4737   -1.7837    1.8336 H   0  0  0  0  0  0  0  0  0  0  0  0
    1.4300   -3.2047    0.7934 H   0  0  0  0  0  0  0  0  0  0  0  0
    2.6551   -2.0201    0.6136 H   0  0  0  0  0  0  0  0  0  0  0  0
   -2.3944   -2.6127   -0.3960 H   0  0  0  0  0  0  0  0  0  0  0  0
   -0.9539   -3.1619   -1.1067 H   0  0  0  0  0  0  0  0  0  0  0  0
   -1.5018   -4.7861    0.5743 H   0  0  0  0  0  0  0  0  0  0  0  0
   -0.0610   -4.1014    1.0247 H   0  0  0  0  0  0  0  0  0  0  0  0
   -1.6873   -2.6692    2.6915 H   0  0  0  0  0  0  0  0  0  0  0  0
   -1.9415   -6.0781    2.6482 H   0  0  0  0  0  0  0  0  0  0  0  0
   -3.5021   -5.9191    3.5372 H   0  0  0  0  0  0  0  0  0  0  0  0
   -4.6501   -7.0124    1.2138 H   0  0  0  0  0  0  0  0  0  0  0  0
   -2.9332   -7.1731    0.7084 H   0  0  0  0  0  0  0  0  0  0  0  0
   -4.8742   -6.6182   -1.1652 H   0  0  0  0  0  0  0  0  0  0  0  0
   -3.2377   -5.9477   -1.2677 H   0  0  0  0  0  0  0  0  0  0  0  0
   -5.7497   -4.5479   -0.2604 H   0  0  0  0  0  0  0  0  0  0  0  0
   -4.3791   -3.9052   -1.2246 H   0  0  0  0  0  0  0  0  0  0  0  0
   -2.4124   -0.7300    1.0425 H   0  0  0  0  0  0  0  0  0  0  0  0
    0.1713   -0.5873    2.8240 H   0  0  0  0  0  0  0  0  0  0  0  0
   -1.5248   -0.9123    3.1985 H   0  0  0  0  0  0  0  0  0  0  0  0
   -0.3839   -1.9366    2.1972 H   0  0  0  0  0  0  0  0  0  0  0  0
   -1.3766    1.4806    0.2414 H   0  0  0  0  0  0  0  0  0  0  0  0
   -1.7632    1.3462    1.9870 H   0  0  0  0  0  0  0  0  0  0  0  0
   -0.1402    1.2120    1.4975 H   0  0  0  0  0  0  0  0  0  0  0  0
  1  2  1  0  0  0  0
  1 20  1  0  0  0  0
  1 21  1  0  0  0  0
  1 22  1  0  0  0  0
  2  3  1  0  0  0  0
  2  4  1  0  0  0  0
  2 23  1  0  0  0  0
  3 24  1  0  0  0  0
  3 25  1  0  0  0  0
  3 26  1  0  0  0  0
  4  5  1  0  0  0  0
  4 17  1  0  0  0  0
  5  6  1  0  0  0  0
  5 27  1  0  0  0  0
  5 28  1  0  0  0  0
  6  7  1  0  0  0  0
  6 29  1  0  0  0  0
  6 30  1  0  0  0  0
  7  8  1  0  0  0  0
  7 31  1  0  0  0  0
  8  9  2  0  0  0  0
  8 10  1  0  0  0  0
 10 11  1  0  0  0  0
 10 32  1  0  0  0  0
 10 33  1  0  0  0  0
 11 12  1  0  0  0  0
 11 15  1  0  0  0  0
 12 13  1  0  0  0  0
 12 34  1  0  0  0  0
 12 35  1  0  0  0  0
 13 14  1  0  0  0  0
 13 36  1  0  0  0  0
 13 37  1  0  0  0  0
 14 15  1  0  0  0  0
 14 38  1  0  0  0  0
 14 39  1  0  0  0  0
 15 16  2  0  0  0  0
 17 18  1  0  0  0  0
 17 19  1  0  0  0  0
 17 40  1  0  0  0  0
 18 41  1  0  0  0  0
 18 42  1  0  0  0  0
 18 43  1  0  0  0  0
 19 44  1  0  0  0  0
 19 45  1  0  0  0  0
 19 46  1  0  0  0  0
M  END
>  <DRUGBANK_ID>
DB13247

>  <COMMON_NAME>
Pramiracetam

>  <CAS_NUMBER>
68497-62-1

>  <UNII>
4449F8I3LE

>  <SYNONYMS>
Pramiracetam

$$$$
