
 OpenBabel10282417153D

 73 81  0  0  0  0  0  0  0  0999 V2000
    0.8137   -0.9101   -1.4107 C   0  0  0  0  0  0  0  0  0  0  0  0
    0.7297    0.1974   -0.2333 C   0  0  0  0  0  0  0  0  0  0  0  0
   -0.6217   -2.2349   -0.0850 C   0  0  0  0  0  0  0  0  0  0  0  0
   -0.1900   -0.6665    0.2746 C   0  0  0  0  0  0  0  0  0  0  0  0
   -1.0408   -3.1324   -1.5819 C   0  0  0  0  0  0  0  0  0  0  0  0
   -1.0105   -1.7203   -1.9481 C   0  0  0  0  0  0  0  0  0  0  0  0
   -2.3293   -0.8784    0.2222 C   0  0  0  0  0  0  0  0  0  0  0  0
   -1.3243    0.1232    0.1931 C   0  0  0  0  0  0  0  0  0  0  0  0
   -2.8814    1.9840    0.0259 C   0  0  0  0  0  0  0  0  0  0  0  0
   -1.5956    1.5346    0.0561 C   0  0  0  0  0  0  0  0  0  0  0  0
   -3.6033   -0.3333    0.0223 C   0  0  0  0  0  0  0  0  0  0  0  0
   -3.8765    1.0501   -0.0119 C   0  0  0  0  0  0  0  0  0  0  0  0
   -3.8816   -3.9746   -2.5091 C   0  0  0  0  0  0  0  0  0  0  0  0
   -3.1001   -2.3598   -2.2894 C   0  0  0  0  0  0  0  0  0  0  0  0
   -4.9988   -2.3406   -2.4661 C   0  0  0  0  0  0  0  0  0  0  0  0
   -6.7316   -3.1449   -2.4428 C   0  0  0  0  0  0  0  0  0  0  0  0
   -7.1005   -4.4570   -2.3329 C   0  0  0  0  0  0  0  0  0  0  0  0
   -5.6061   -4.8429   -2.4463 C   0  0  0  0  0  0  0  0  0  0  0  0
   -2.3666   -4.3571   -1.9698 N   0  0  0  0  0  0  0  0  0  0  0  0
   -1.8278   -2.2607    0.4057 N   0  0  0  0  0  0  0  0  0  0  0  0
   -2.9769   -4.0468   -0.4239 O   0  0  0  0  0  0  0  0  0  0  0  0
   -3.3560   -5.2020    1.4846 C   0  0  1  0  0  0  0  0  0  0  0  0
   -2.7470   -3.8598    1.5965 C   0  0  0  0  0  0  0  0  0  0  0  0
   -2.0479   -3.6711    0.4314 C   0  0  2  0  0  0  0  0  0  0  0  0
   -4.1033   -5.2634    2.6880 N   0  0  0  0  0  0  0  0  0  0  0  0
   -3.5472   -6.1389    3.6663 C   0  0  0  0  0  0  0  0  0  0  0  0
    2.6603    1.5404   -0.5391 N   0  0  0  0  0  0  0  0  0  0  0  0
    2.6186   -0.0748   -0.6252 C   0  0  0  0  0  0  0  0  0  0  0  0
    1.4264    1.6817   -0.0025 C   0  0  0  0  0  0  0  0  0  0  0  0
    1.0644    2.7890    0.4124 O   0  0  0  0  0  0  0  0  0  0  0  0
   -3.0322   -5.2651   -1.0266 C   0  0  2  0  0  0  0  0  0  0  0  0
   -2.1465   -6.4362   -1.1351 C   0  0  0  0  0  0  0  0  0  0  0  0
   -4.1498   -5.5188    0.1573 C   0  0  2  0  0  0  0  0  0  0  0  0
   -5.3750   -4.7383    0.1162 O   0  0  0  0  0  0  0  0  0  0  0  0
   -5.2212   -3.3361    0.0063 C   0  0  0  0  0  0  0  0  0  0  0  0
   -5.1946   -4.4120    2.9188 C   0  0  0  0  0  0  0  0  0  0  0  0
   -5.7194   -3.5593    2.2242 O   0  0  0  0  0  0  0  0  0  0  0  0
   -5.9105   -4.4777    4.1609 C   0  0  0  0  0  0  0  0  0  0  0  0
   -7.2822   -4.8886    6.5011 C   0  0  0  0  0  0  0  0  0  0  0  0
   -7.9795   -4.6087    5.3267 C   0  0  0  0  0  0  0  0  0  0  0  0
   -5.8995   -4.8026    6.5161 C   0  0  0  0  0  0  0  0  0  0  0  0
   -7.2970   -4.5189    4.1248 C   0  0  0  0  0  0  0  0  0  0  0  0
   -5.2385   -4.4311    5.3639 C   0  0  0  0  0  0  0  0  0  0  0  0
   -3.0814    3.0457    0.0444 H   0  0  0  0  0  0  0  0  0  0  0  0
   -0.8563    2.3296    0.0525 H   0  0  0  0  0  0  0  0  0  0  0  0
   -4.4415   -0.9808   -0.0508 H   0  0  0  0  0  0  0  0  0  0  0  0
   -4.8976    1.4070   -0.0288 H   0  0  0  0  0  0  0  0  0  0  0  0
   -5.7315   -1.6537   -3.0526 H   0  0  0  0  0  0  0  0  0  0  0  0
   -7.9348   -2.7030   -2.5363 H   0  0  0  0  0  0  0  0  0  0  0  0
   -8.3125   -4.9846   -2.2148 H   0  0  0  0  0  0  0  0  0  0  0  0
   -6.1027   -6.1064   -2.4451 H   0  0  0  0  0  0  0  0  0  0  0  0
   -2.4824   -5.8781    1.4522 H   0  0  0  0  0  0  0  0  0  0  0  0
   -3.4145   -3.0446    1.5389 H   0  0  0  0  0  0  0  0  0  0  0  0
   -2.0363   -3.5858    2.3242 H   0  0  0  0  0  0  0  0  0  0  0  0
   -1.1961   -4.3468    0.2720 H   0  0  0  0  0  0  0  0  0  0  0  0
   -3.2493   -5.5649    4.5340 H   0  0  0  0  0  0  0  0  0  0  0  0
   -4.3277   -6.8500    3.8974 H   0  0  0  0  0  0  0  0  0  0  0  0
   -2.6477   -6.6461    3.3113 H   0  0  0  0  0  0  0  0  0  0  0  0
    3.3944    2.3843   -0.6279 H   0  0  0  0  0  0  0  0  0  0  0  0
    3.2869    0.0760    0.6215 H   0  0  0  0  0  0  0  0  0  0  0  0
    3.8575   -0.1043   -0.9068 H   0  0  0  0  0  0  0  0  0  0  0  0
   -1.4473   -6.2793   -0.3441 H   0  0  0  0  0  0  0  0  0  0  0  0
   -2.6438   -7.4116   -1.0710 H   0  0  0  0  0  0  0  0  0  0  0  0
   -1.6595   -6.3978   -2.1172 H   0  0  0  0  0  0  0  0  0  0  0  0
   -4.5052   -6.5583    0.2481 H   0  0  0  0  0  0  0  0  0  0  0  0
   -4.7191   -2.8077    0.7622 H   0  0  0  0  0  0  0  0  0  0  0  0
   -4.5263   -3.0750   -0.7155 H   0  0  0  0  0  0  0  0  0  0  0  0
   -6.0695   -2.6870   -0.0773 H   0  0  0  0  0  0  0  0  0  0  0  0
   -7.8068   -5.1479    7.4145 H   0  0  0  0  0  0  0  0  0  0  0  0
   -9.0537   -4.4859    5.3407 H   0  0  0  0  0  0  0  0  0  0  0  0
   -5.3442   -5.0000    7.4241 H   0  0  0  0  0  0  0  0  0  0  0  0
   -7.8216   -4.4752    3.1709 H   0  0  0  0  0  0  0  0  0  0  0  0
   -4.1967   -4.1490    5.3867 H   0  0  0  0  0  0  0  0  0  0  0  0
  1  6  1  0  0  0  0
  1  2  2  0  0  0  0
  2  4  1  0  0  0  0
  2 29  1  0  0  0  0
  3 20  1  0  0  0  0
  4  3  2  0  0  0  0
  4  8  1  0  0  0  0
  5  3  1  0  0  0  0
  6  5  2  0  0  0  0
  6 14  1  0  0  0  0
  7 11  1  0  0  0  0
  8  7  2  0  0  0  0
  9 10  2  0  0  0  0
  9 12  1  0  0  0  0
  9 44  1  0  0  0  0
 10  8  1  0  0  0  0
 10 45  1  0  0  0  0
 11 12  2  0  0  0  0
 11 46  1  0  0  0  0
 12 47  1  0  0  0  0
 13 19  1  0  0  0  0
 13 14  2  0  0  0  0
 15 14  1  0  0  0  0
 15 16  2  0  0  0  0
 15 48  1  0  0  0  0
 16 17  1  0  0  0  0
 16 49  1  0  0  0  0
 17 18  2  0  0  0  0
 17 50  1  0  0  0  0
 18 13  1  0  0  0  0
 18 51  1  0  0  0  0
 19  5  1  0  0  0  0
 20  7  1  0  0  0  0
 21 31  1  0  0  0  0
 21 24  1  0  0  0  0
 22 23  1  0  0  0  0
 22 25  1  0  0  0  0
 22 52  1  1  0  0  0
 23 24  1  0  0  0  0
 23 53  1  0  0  0  0
 23 54  1  0  0  0  0
 24 20  1  0  0  0  0
 24 55  1  6  0  0  0
 25 26  1  0  0  0  0
 25 36  1  0  0  0  0
 26 56  1  0  0  0  0
 26 57  1  0  0  0  0
 26 58  1  0  0  0  0
 27 28  1  0  0  0  0
 27 29  1  0  0  0  0
 27 59  1  0  0  0  0
 28  1  1  0  0  0  0
 28 60  1  0  0  0  0
 28 61  1  0  0  0  0
 29 30  2  0  0  0  0
 31 33  1  0  0  0  0
 31 19  1  0  0  0  0
 31 32  1  1  0  0  0
 32 62  1  0  0  0  0
 32 63  1  0  0  0  0
 32 64  1  0  0  0  0
 33 22  1  0  0  0  0
 33 34  1  0  0  0  0
 33 65  1  1  0  0  0
 34 35  1  0  0  0  0
 35 66  1  0  0  0  0
 35 67  1  0  0  0  0
 35 68  1  0  0  0  0
 36 37  2  0  0  0  0
 36 38  1  0  0  0  0
 38 42  1  0  0  0  0
 38 43  2  0  0  0  0
 39 69  1  0  0  0  0
 40 39  1  0  0  0  0
 40 70  1  0  0  0  0
 41 39  2  0  0  0  0
 41 71  1  0  0  0  0
 42 40  2  0  0  0  0
 42 72  1  0  0  0  0
 43 41  1  0  0  0  0
 43 73  1  0  0  0  0
M  END
>  <DRUGBANK_ID>
DB06595

>  <COMMON_NAME>
Midostaurin

>  <CAS_NUMBER>
120685-11-2

>  <UNII>
ID912S5VON

>  <SYNONYMS>
4'-N-benzoylstaurosporine; Midostaurin

$$$$
