
 OpenBabel10282417133D

 23 23  0  0  1  0  0  0  0  0999 V2000
    1.4640    0.2294   -0.4636 O   0  0  0  0  0  0  0  0  0  0  0  0
    0.4345    1.1940   -0.2635 C   0  0  2  0  0  0  0  0  0  0  0  0
    0.8273    2.5437    0.0439 O   0  0  0  0  0  0  0  0  0  0  0  0
    1.1850    2.8757    1.3951 C   0  0  1  0  0  0  0  0  0  0  0  0
    0.2255    2.2810    2.4422 C   0  0  2  0  0  0  0  0  0  0  0  0
    0.7069    2.5109    3.7665 O   0  0  0  0  0  0  0  0  0  0  0  0
   -0.0462    0.7968    2.1736 C   0  0  2  0  0  0  0  0  0  0  0  0
    1.1518    0.0623    2.4409 O   0  0  0  0  0  0  0  0  0  0  0  0
   -0.5813    0.6186    0.7398 C   0  0  1  0  0  0  0  0  0  0  0  0
   -1.8767    1.2222    0.5994 O   0  0  0  0  0  0  0  0  0  0  0  0
    2.6551    2.4770    1.5593 C   0  0  0  0  0  0  0  0  0  0  0  0
    3.4862    3.4152    2.0604 O   0  0  0  0  0  0  0  0  0  0  0  0
    3.0743    1.3843    1.2107 O   0  0  0  0  0  0  0  0  0  0  0  0
    2.3193    0.5169   -0.0988 H   0  0  0  0  0  0  0  0  0  0  0  0
   -0.0188    1.2941   -1.2529 H   0  0  0  0  0  0  0  0  0  0  0  0
    1.1322    3.9691    1.4932 H   0  0  0  0  0  0  0  0  0  0  0  0
   -0.7388    2.8054    2.3801 H   0  0  0  0  0  0  0  0  0  0  0  0
    1.3793    1.8231    3.9485 H   0  0  0  0  0  0  0  0  0  0  0  0
   -0.7804    0.4150    2.8904 H   0  0  0  0  0  0  0  0  0  0  0  0
    1.8012    0.2106    1.7216 H   0  0  0  0  0  0  0  0  0  0  0  0
   -0.7087   -0.4503    0.5377 H   0  0  0  0  0  0  0  0  0  0  0  0
   -1.8002    2.1904    0.6329 H   0  0  0  0  0  0  0  0  0  0  0  0
    3.1116    4.2997    2.2269 H   0  0  0  0  0  0  0  0  0  0  0  0
  1 14  1  0  0  0  0
  2  1  1  0  0  0  0
  2  3  1  0  0  0  0
  2  9  1  0  0  0  0
  2 15  1  6  0  0  0
  3  4  1  0  0  0  0
  4  5  1  0  0  0  0
  4 11  1  0  0  0  0
  4 16  1  1  0  0  0
  5  6  1  0  0  0  0
  5  7  1  0  0  0  0
  5 17  1  6  0  0  0
  6 18  1  0  0  0  0
  7  8  1  0  0  0  0
  7  9  1  0  0  0  0
  7 19  1  1  0  0  0
  8 20  1  0  0  0  0
  9 10  1  0  0  0  0
  9 21  1  6  0  0  0
 10 22  1  0  0  0  0
 11 12  1  0  0  0  0
 11 13  2  0  0  0  0
 12 23  1  0  0  0  0
M  END
>  <DRUGBANK_ID>
DB03652

>  <SECONDARY_ACCESSION_NUMBERS>
EXPT02024

>  <COMMON_NAME>
beta-D-Galactopyranuronic acid

>  <CAS_NUMBER>
18968-14-4

>  <UNII>
55NG3O9NDD

>  <SYNONYMS>
β-D-Galactopyranuronic acid; β-D-galacturonic acid

$$$$
