
 OpenBabel10282417103D

  9  8  0  0  0  0  0  0  0  0999 V2000
    0.8228   -0.0483    0.1082 N   0  0  0  0  0  0  0  0  0  0  0  0
   -1.1136   -1.1376    0.4842 N   0  0  0  0  0  0  0  0  0  0  0  0
    0.9151   -2.1918    0.8482 N   0  0  0  0  0  0  0  0  0  0  0  0
    0.2215   -1.1731    0.4965 C   0  0  0  0  0  0  0  0  0  0  0  0
    0.3443    0.7870   -0.1802 H   0  0  0  0  0  0  0  0  0  0  0  0
    1.8343   -0.0550    0.1105 H   0  0  0  0  0  0  0  0  0  0  0  0
   -1.6569   -1.9414    0.7617 H   0  0  0  0  0  0  0  0  0  0  0  0
   -1.6208   -0.3144    0.2000 H   0  0  0  0  0  0  0  0  0  0  0  0
    0.2881   -2.9522    1.1107 H   0  0  0  0  0  0  0  0  0  0  0  0
  1  4  1  0  0  0  0
  1  5  1  0  0  0  0
  1  6  1  0  0  0  0
  2  4  1  0  0  0  0
  2  7  1  0  0  0  0
  2  8  1  0  0  0  0
  3  4  2  0  0  0  0
  3  9  1  0  0  0  0
M  END
>  <DRUGBANK_ID>
DB00536

>  <SECONDARY_ACCESSION_NUMBERS>
APRD01008; EXPT01546

>  <COMMON_NAME>
Guanidine

>  <CAS_NUMBER>
113-00-8

>  <UNII>
JU58VJ6Y3B

>  <SYNONYMS>
Aminomethanamidine; Gu; Guanidin; Guanidine; Imidourea; Iminourea

$$$$
