
 OpenBabel10282417153D

 36 38  0  0  0  0  0  0  0  0999 V2000
    0.6932   -0.7299   -0.0614 Cl  0  0  0  0  0  0  0  0  0  0  0  0
    7.6826    0.6653   -0.0447 S   0  0  0  0  0  0  0  0  0  0  0  0
    2.2940    3.8770   -0.8321 S   0  0  0  0  0  0  0  0  0  0  0  0
    8.3615    0.7636    1.2316 O   0  0  0  0  0  0  0  0  0  0  0  0
    8.4439    0.8670   -1.2653 O   0  0  0  0  0  0  0  0  0  0  0  0
    1.9138    3.5325   -2.1678 O   0  0  0  0  0  0  0  0  0  0  0  0
    1.5051    3.4197    0.3144 O   0  0  0  0  0  0  0  0  0  0  0  0
    7.1468   -1.0513   -0.2378 N   0  0  0  0  0  0  0  0  0  0  0  0
    4.1788   -0.2634   -0.5501 N   0  0  0  0  0  0  0  0  0  0  0  0
    2.3967    5.5262   -0.7687 N   0  0  0  0  0  0  0  0  0  0  0  0
    4.6134   -1.3924   -0.0234 C   0  0  0  0  0  0  0  0  0  0  0  0
    5.9145   -1.8358    0.0641 C   0  0  0  0  0  0  0  0  0  0  0  0
    3.3260   -1.9429   -0.0115 C   0  0  0  0  0  0  0  0  0  0  0  0
    6.4564    1.9940   -0.0928 C   0  0  0  0  0  0  0  0  0  0  0  0
    5.7857   -3.2376    0.0055 C   0  0  0  0  0  0  0  0  0  0  0  0
    2.3538   -0.9006    0.0178 C   0  0  0  0  0  0  0  0  0  0  0  0
    3.2518   -3.2947   -0.0443 C   0  0  0  0  0  0  0  0  0  0  0  0
    4.0083    3.4808   -0.5870 C   0  0  0  0  0  0  0  0  0  0  0  0
    5.2249    1.7486    0.2602 C   0  0  0  0  0  0  0  0  0  0  0  0
    6.4619    3.3766   -0.1687 C   0  0  0  0  0  0  0  0  0  0  0  0
    3.1656    0.1101    0.3423 C   0  0  0  0  0  0  0  0  0  0  0  0
    4.4997   -3.9280   -0.0368 C   0  0  0  0  0  0  0  0  0  0  0  0
    4.2844    2.2045   -0.7079 C   0  0  0  0  0  0  0  0  0  0  0  0
    5.1600    4.1392   -0.2236 C   0  0  0  0  0  0  0  0  0  0  0  0
    7.9979   -1.6085   -0.0492 H   0  0  0  0  0  0  0  0  0  0  0  0
    4.9013    0.2307   -1.0618 H   0  0  0  0  0  0  0  0  0  0  0  0
    3.1197    5.7905   -1.4354 H   0  0  0  0  0  0  0  0  0  0  0  0
    1.4929    5.9381   -0.9880 H   0  0  0  0  0  0  0  0  0  0  0  0
    6.6727   -3.8652   -0.0451 H   0  0  0  0  0  0  0  0  0  0  0  0
    2.2587   -3.7103   -0.0632 H   0  0  0  0  0  0  0  0  0  0  0  0
    5.1252    0.9833    1.0297 H   0  0  0  0  0  0  0  0  0  0  0  0
    7.3939    3.9040   -0.0526 H   0  0  0  0  0  0  0  0  0  0  0  0
    2.9486    1.0908    0.7652 H   0  0  0  0  0  0  0  0  0  0  0  0
    4.4549   -5.0071   -0.0682 H   0  0  0  0  0  0  0  0  0  0  0  0
    3.4601    1.6606   -1.1879 H   0  0  0  0  0  0  0  0  0  0  0  0
    5.0819    5.1632    0.0974 H   0  0  0  0  0  0  0  0  0  0  0  0
  1 16  1  0  0  0  0
  2  4  2  0  0  0  0
  2  5  2  0  0  0  0
  2  8  1  0  0  0  0
  2 14  1  0  0  0  0
  3  6  2  0  0  0  0
  3  7  2  0  0  0  0
  3 10  1  0  0  0  0
  3 18  1  0  0  0  0
  8 12  1  0  0  0  0
  8 25  1  0  0  0  0
  9 11  1  0  0  0  0
  9 21  1  0  0  0  0
  9 26  1  0  0  0  0
 10 27  1  0  0  0  0
 10 28  1  0  0  0  0
 11 12  1  0  0  0  0
 11 13  2  0  0  0  0
 12 15  2  0  0  0  0
 13 16  1  0  0  0  0
 13 17  1  0  0  0  0
 14 19  2  0  0  0  0
 14 20  1  0  0  0  0
 15 22  1  0  0  0  0
 15 29  1  0  0  0  0
 16 21  2  0  0  0  0
 17 22  2  0  0  0  0
 17 30  1  0  0  0  0
 18 23  2  0  0  0  0
 18 24  1  0  0  0  0
 19 23  1  0  0  0  0
 19 31  1  0  0  0  0
 20 24  2  0  0  0  0
 20 32  1  0  0  0  0
 21 33  1  0  0  0  0
 22 34  1  0  0  0  0
 23 35  1  0  0  0  0
 24 36  1  0  0  0  0
M  END
>  <DRUGBANK_ID>
DB06370

>  <COMMON_NAME>
Indisulam

>  <CAS_NUMBER>
165668-41-7

>  <UNII>
WJ98J3NM90

>  <SYNONYMS>
Indisulam

$$$$
