
 OpenBabel10282417193D

114115  0  0  1  0  0  0  0  0999 V2000
    0.9768    0.0864   -0.0716 C   0  0  0  0  0  0  0  0  0  0  0  0
    0.4909    0.1542   -1.4989 C   0  0  0  0  0  0  0  0  0  0  0  0
    1.0115   -1.0482   -2.2545 C   0  0  0  0  0  0  0  0  0  0  0  0
    0.5387   -2.3174   -1.5539 C   0  0  0  0  0  0  0  0  0  0  0  0
   -0.9300   -2.3267   -1.4590 C   0  0  0  0  0  0  0  0  0  0  0  0
   -1.1688   -2.2642   -2.8617 C   0  0  0  0  0  0  0  0  0  0  0  0
   -0.3962   -3.4990   -3.5379 C   0  0  0  0  0  0  0  0  0  0  0  0
   -0.5376   -4.8910   -3.1692 C   0  0  0  0  0  0  0  0  0  0  0  0
   -1.7682   -4.9445   -3.7469 C   0  0  0  0  0  0  0  0  0  0  0  0
   -2.6291   -5.6017   -5.5537 C   0  0  0  0  0  0  0  0  0  0  0  0
   -2.6130   -6.9319   -5.8888 C   0  0  0  0  0  0  0  0  0  0  0  0
   -3.5034   -7.8349   -4.8614 C   0  0  0  0  0  0  0  0  0  0  0  0
   -5.7352   -7.7762   -4.9175 S   0  0  0  0  0  0  0  0  0  0  0  0
   -6.7448   -6.1715   -3.6283 C   0  0  0  0  0  0  0  0  0  0  0  0
   -6.0030   -5.9023   -2.0462 C   0  0  3  0  0  0  0  0  0  0  0  0
   -4.4667   -5.8917   -1.4937 C   0  0  0  0  0  0  0  0  0  0  0  0
   -3.4975   -4.6025   -2.9967 O   0  0  0  0  0  0  0  0  0  0  0  0
   -4.0741   -4.5195   -4.6256 P   0  0  3  0  0  0  0  0  0  0  0  0
   -5.3257   -5.4403   -4.6295 O   0  0  0  0  0  0  0  0  0  0  0  0
   -4.2815   -3.0923   -3.6400 O   0  0  0  0  0  0  0  0  0  0  0  0
   -4.6508   -4.4365   -6.2545 O   0  0  0  0  0  0  0  0  0  0  0  0
   -3.9623   -4.2705   -7.3900 C   0  0  0  0  0  0  0  0  0  0  0  0
   -3.3973   -2.8844   -7.4273 C   0  0  2  0  0  0  0  0  0  0  0  0
   -3.4155   -1.4494   -7.2147 C   0  0  2  0  0  0  0  0  0  0  0  0
   -2.1511   -0.7177   -7.6424 C   0  0  0  0  0  0  0  0  0  0  0  0
   -1.5765   -1.6260   -8.5705 C   0  0  1  0  0  0  0  0  0  0  0  0
   -2.1724   -2.7295   -7.6645 O   0  0  0  0  0  0  0  0  0  0  0  0
   -1.7749   -1.9294   -9.9715 N   0  0  0  0  0  0  0  0  0  0  0  0
   -1.3783   -0.8934  -10.7278 C   0  0  0  0  0  0  0  0  0  0  0  0
   -1.9793   -0.7622  -11.8868 C   0  0  0  0  0  0  0  0  0  0  0  0
   -2.6378   -1.9220  -12.4817 C   0  0  0  0  0  0  0  0  0  0  0  0
   -3.1889   -1.8009  -13.5620 O   0  0  0  0  0  0  0  0  0  0  0  0
   -2.5353   -3.0985  -11.8491 N   0  0  0  0  0  0  0  0  0  0  0  0
   -2.3087   -3.1657  -10.5413 C   0  0  0  0  0  0  0  0  0  0  0  0
   -2.5916   -4.2616  -10.0390 O   0  0  0  0  0  0  0  0  0  0  0  0
   -2.0155    0.5111  -12.5928 C   0  0  0  0  0  0  0  0  0  0  0  0
   -3.7733   -0.8335   -5.9908 N   0  0  0  0  0  0  0  0  0  0  0  0
   -3.1305   -0.7641   -4.9440 N   0  3  0  0  0  0  0  0  0  0  0  0
   -2.9304   -0.7682   -3.8316 N   0  5  0  0  0  0  0  0  0  0  0  0
   -6.3615   -4.6703   -1.4870 O   0  0  0  0  0  0  0  0  0  0  0  0
   -5.7202   -3.5782   -2.0768 C   0  0  0  0  0  0  0  0  0  0  0  0
   -4.2442   -4.0809   -1.6791 C   0  0  0  0  0  0  0  0  0  0  0  0
   -3.3300   -5.9946   -2.5654 C   0  0  0  0  0  0  0  0  0  0  0  0
   -3.3718   -5.6356   -3.9964 C   0  0  0  0  0  0  0  0  0  0  0  0
   -2.9857   -3.5205   -4.8695 C   0  0  0  0  0  0  0  0  0  0  0  0
   -1.7465   -3.0229   -5.3176 C   0  0  0  0  0  0  0  0  0  0  0  0
   -0.9151   -4.3848   -6.1588 C   0  0  0  0  0  0  0  0  0  0  0  0
   -1.2430   -4.7974   -7.5610 C   0  0  0  0  0  0  0  0  0  0  0  0
   -0.6652   -3.6250   -8.2035 C   0  0  0  0  0  0  0  0  0  0  0  0
    0.6717   -3.3428   -8.0378 C   0  0  0  0  0  0  0  0  0  0  0  0
    0.6139   -0.8141    0.4297 H   0  0  0  0  0  0  0  0  0  0  0  0
    0.6141    0.9381    0.4933 H   0  0  0  0  0  0  0  0  0  0  0  0
    2.0679    0.0689   -0.0584 H   0  0  0  0  0  0  0  0  0  0  0  0
   -0.6034    0.1841   -1.5119 H   0  0  0  0  0  0  0  0  0  0  0  0
    0.8365    1.0644   -1.9776 H   0  0  0  0  0  0  0  0  0  0  0  0
    0.6858   -0.9875   -3.3029 H   0  0  0  0  0  0  0  0  0  0  0  0
    2.0901   -1.0637   -2.2867 H   0  0  0  0  0  0  0  0  0  0  0  0
    0.9225   -3.1872   -2.0811 H   0  0  0  0  0  0  0  0  0  0  0  0
    0.8826   -2.4288   -0.5628 H   0  0  0  0  0  0  0  0  0  0  0  0
   -1.3865   -3.2379   -1.0787 H   0  0  0  0  0  0  0  0  0  0  0  0
   -1.4325   -1.4817   -1.0108 H   0  0  0  0  0  0  0  0  0  0  0  0
   -2.2372   -2.2460   -2.7008 H   0  0  0  0  0  0  0  0  0  0  0  0
   -1.0267   -1.3690   -3.4608 H   0  0  0  0  0  0  0  0  0  0  0  0
   -0.3595   -3.5014   -4.5616 H   0  0  0  0  0  0  0  0  0  0  0  0
    0.5809   -3.3586   -3.7797 H   0  0  0  0  0  0  0  0  0  0  0  0
   -0.6940   -5.7629   -3.8096 H   0  0  0  0  0  0  0  0  0  0  0  0
   -0.8364   -4.8773   -2.1137 H   0  0  0  0  0  0  0  0  0  0  0  0
   -1.8192   -6.0372   -3.0145 H   0  0  0  0  0  0  0  0  0  0  0  0
   -2.1948   -3.8609   -2.8633 H   0  0  0  0  0  0  0  0  0  0  0  0
   -4.1249   -5.8145   -5.8246 H   0  0  0  0  0  0  0  0  0  0  0  0
   -2.4888   -4.6742   -5.7872 H   0  0  0  0  0  0  0  0  0  0  0  0
   -3.3682   -6.6059   -6.5599 H   0  0  0  0  0  0  0  0  0  0  0  0
   -1.7801   -6.6595   -5.3003 H   0  0  0  0  0  0  0  0  0  0  0  0
   -3.1568   -8.5442   -5.4805 H   0  0  0  0  0  0  0  0  0  0  0  0
   -3.0701   -7.6368   -3.8617 H   0  0  0  0  0  0  0  0  0  0  0  0
   -6.7836   -4.9671   -4.3580 H   0  0  0  0  0  0  0  0  0  0  0  0
   -7.7209   -5.7393   -3.8017 H   0  0  0  0  0  0  0  0  0  0  0  0
   -6.1036   -6.9105   -1.6966 H   0  0  0  0  0  0  0  0  0  0  0  0
   -3.5673   -5.7839   -0.7963 H   0  0  0  0  0  0  0  0  0  0  0  0
   -4.0301   -7.2992   -2.0263 H   0  0  0  0  0  0  0  0  0  0  0  0
   -3.4304   -2.5177   -3.6137 H   0  0  0  0  0  0  0  0  0  0  0  0
   -3.4544   -5.2378   -7.3798 H   0  0  0  0  0  0  0  0  0  0  0  0
   -4.2211   -4.3773   -8.3981 H   0  0  0  0  0  0  0  0  0  0  0  0
   -2.8462   -3.0259   -6.6150 H   0  0  0  0  0  0  0  0  0  0  0  0
   -4.1788   -1.5174   -7.9202 H   0  0  0  0  0  0  0  0  0  0  0  0
   -2.2726    0.1200   -8.2487 H   0  0  0  0  0  0  0  0  0  0  0  0
   -1.3966   -0.5808   -6.8144 H   0  0  0  0  0  0  0  0  0  0  0  0
   -0.4551   -1.4548   -8.4411 H   0  0  0  0  0  0  0  0  0  0  0  0
   -0.7526   -0.1374  -10.2606 H   0  0  0  0  0  0  0  0  0  0  0  0
   -2.8482   -3.9588  -12.2601 H   0  0  0  0  0  0  0  0  0  0  0  0
   -1.5246    0.4075  -13.5536 H   0  0  0  0  0  0  0  0  0  0  0  0
   -3.0523    0.8228  -12.7356 H   0  0  0  0  0  0  0  0  0  0  0  0
   -1.5065    1.2678  -11.9963 H   0  0  0  0  0  0  0  0  0  0  0  0
   -6.0256   -3.3364   -3.1543 H   0  0  0  0  0  0  0  0  0  0  0  0
   -5.8986   -2.5934   -1.6343 H   0  0  0  0  0  0  0  0  0  0  0  0
   -3.9144   -2.7657   -2.0581 H   0  0  0  0  0  0  0  0  0  0  0  0
   -3.5938   -3.6320   -0.9981 H   0  0  0  0  0  0  0  0  0  0  0  0
   -2.5110   -5.2945   -1.8713 H   0  0  0  0  0  0  0  0  0  0  0  0
   -4.5005   -5.9430   -2.9772 H   0  0  0  0  0  0  0  0  0  0  0  0
   -3.9914   -6.3593   -4.5314 H   0  0  0  0  0  0  0  0  0  0  0  0
   -4.8092   -4.8233   -3.3842 H   0  0  0  0  0  0  0  0  0  0  0  0
   -4.1499   -2.9548   -5.7845 H   0  0  0  0  0  0  0  0  0  0  0  0
   -4.1901   -2.3758   -4.8958 H   0  0  0  0  0  0  0  0  0  0  0  0
   -1.3919   -2.0972   -5.5938 H   0  0  0  0  0  0  0  0  0  0  0  0
   -1.9910   -2.9533   -4.2947 H   0  0  0  0  0  0  0  0  0  0  0  0
    0.0696   -4.5012   -5.9255 H   0  0  0  0  0  0  0  0  0  0  0  0
   -0.9480   -5.2342   -5.5358 H   0  0  0  0  0  0  0  0  0  0  0  0
   -1.3426   -5.7373   -8.0809 H   0  0  0  0  0  0  0  0  0  0  0  0
   -2.2185   -4.6703   -7.9046 H   0  0  0  0  0  0  0  0  0  0  0  0
   -1.4409   -3.4539   -8.9345 H   0  0  0  0  0  0  0  0  0  0  0  0
   -0.6686   -2.5269   -7.2845 H   0  0  0  0  0  0  0  0  0  0  0  0
    0.7338   -4.2210   -8.5900 H   0  0  0  0  0  0  0  0  0  0  0  0
    0.9253   -2.4405   -8.5374 H   0  0  0  0  0  0  0  0  0  0  0  0
    0.6354   -3.2269   -6.9483 H   0  0  0  0  0  0  0  0  0  0  0  0
  1  2  1  0  0  0  0
  1 51  1  0  0  0  0
  1 52  1  0  0  0  0
  1 53  1  0  0  0  0
  2  3  1  0  0  0  0
  2 54  1  0  0  0  0
  2 55  1  0  0  0  0
  3  4  1  0  0  0  0
  3 56  1  0  0  0  0
  3 57  1  0  0  0  0
  4  5  1  0  0  0  0
  4 58  1  0  0  0  0
  4 59  1  0  0  0  0
  5  6  1  0  0  0  0
  5 60  1  0  0  0  0
  5 61  1  0  0  0  0
  6  7  1  0  0  0  0
  6 62  1  0  0  0  0
  6 63  1  0  0  0  0
  7  8  1  0  0  0  0
  7 64  1  0  0  0  0
  7 65  1  0  0  0  0
  8  9  1  0  0  0  0
  8 66  1  0  0  0  0
  8 67  1  0  0  0  0
  9 10  1  0  0  0  0
  9 68  1  0  0  0  0
  9 69  1  0  0  0  0
 10 11  1  0  0  0  0
 10 70  1  0  0  0  0
 10 71  1  0  0  0  0
 11 12  1  0  0  0  0
 11 72  1  0  0  0  0
 11 73  1  0  0  0  0
 12 13  1  0  0  0  0
 12 74  1  0  0  0  0
 12 75  1  0  0  0  0
 13 14  1  0  0  0  0
 14 15  1  0  0  0  0
 14 76  1  0  0  0  0
 14 77  1  0  0  0  0
 15 16  1  0  0  0  0
 15 40  1  0  0  0  0
 15 78  1  0  0  0  0
 16 17  1  0  0  0  0
 16 79  1  0  0  0  0
 16 80  1  0  0  0  0
 17 18  1  0  0  0  0
 18 19  2  0  0  0  0
 18 20  1  0  0  0  0
 18 21  1  0  0  0  0
 20 81  1  0  0  0  0
 21 22  1  0  0  0  0
 22 82  1  0  0  0  0
 22 83  1  0  0  0  0
 23 22  1  0  0  0  0
 23 24  1  0  0  0  0
 23 27  1  0  0  0  0
 23 84  1  1  0  0  0
 24 25  1  0  0  0  0
 24 85  1  6  0  0  0
 24 37  1  0  0  0  0
 25 26  1  0  0  0  0
 25 86  1  0  0  0  0
 25 87  1  0  0  0  0
 26 27  1  0  0  0  0
 26 28  1  0  0  0  0
 26 88  1  1  0  0  0
 28 29  1  0  0  0  0
 28 34  1  0  0  0  0
 29 30  2  0  0  0  0
 29 89  1  0  0  0  0
 30 31  1  0  0  0  0
 30 36  1  0  0  0  0
 31 32  2  0  0  0  0
 31 33  1  0  0  0  0
 33 34  1  0  0  0  0
 33 90  1  0  0  0  0
 34 35  2  0  0  0  0
 36 91  1  0  0  0  0
 36 92  1  0  0  0  0
 36 93  1  0  0  0  0
 37 38  2  0  0  0  0
 38 39  2  0  0  0  0
 40 41  1  0  0  0  0
 41 42  1  0  0  0  0
 41 94  1  0  0  0  0
 41 95  1  0  0  0  0
 42 43  1  0  0  0  0
 42 96  1  0  0  0  0
 42 97  1  0  0  0  0
 43 44  1  0  0  0  0
 43 98  1  0  0  0  0
 43 99  1  0  0  0  0
 44 45  1  0  0  0  0
 44100  1  0  0  0  0
 44101  1  0  0  0  0
 45 46  1  0  0  0  0
 45102  1  0  0  0  0
 45103  1  0  0  0  0
 46 47  1  0  0  0  0
 46104  1  0  0  0  0
 46105  1  0  0  0  0
 47 48  1  0  0  0  0
 47106  1  0  0  0  0
 47107  1  0  0  0  0
 48 49  1  0  0  0  0
 48108  1  0  0  0  0
 48109  1  0  0  0  0
 49 50  1  0  0  0  0
 49110  1  0  0  0  0
 49111  1  0  0  0  0
 50112  1  0  0  0  0
 50113  1  0  0  0  0
 50114  1  0  0  0  0
M  CHG  2  38   1  39  -1
M  END
>  <DRUGBANK_ID>
DB12423

>  <COMMON_NAME>
Fozivudine Tidoxil

>  <CAS_NUMBER>
141790-23-0

>  <UNII>
687805287F

>  <SYNONYMS>
Fozivudine Tidoxil

$$$$
