
 OpenBabel10282417183D

137143  0  0  0  0  0  0  0  0999 V2000
    2.0480    3.0406    5.1831 C   0  0  0  0  0  0  0  0  0  0  0  0
    3.3034    3.6259    4.8705 O   0  0  0  0  0  0  0  0  0  0  0  0
    3.7527    3.1310    3.6177 C   0  0  2  0  0  0  0  0  0  0  0  0
    3.5798    4.2321    2.5754 C   0  0  0  0  0  0  0  0  0  0  0  0
    2.1084    4.4688    2.2900 C   0  0  1  0  0  0  0  0  0  0  0  0
    1.4118    3.2878    2.0060 O   0  0  0  0  0  0  0  0  0  0  0  0
    1.4783    2.2973    3.0587 C   0  0  1  0  0  0  0  0  0  0  0  0
    0.5514    1.1857    2.6629 C   0  0  0  0  0  0  0  0  0  0  0  0
    2.9315    1.9033    3.2659 C   0  0  1  0  0  0  0  0  0  0  0  0
    3.4553    1.3037    2.0302 N   0  0  0  0  0  0  0  0  0  0  0  0
    2.5196    0.6412    1.1102 C   0  0  0  0  0  0  0  0  0  0  0  0
    3.0332    0.0166   -0.1769 C   0  0  0  0  0  0  0  0  0  0  0  0
    1.2811    0.5906    1.3909 O   0  0  0  0  0  0  0  0  0  0  0  0
    1.5326    5.0327    3.4591 O   0  0  0  0  0  0  0  0  0  0  0  0
    1.6707    4.1230    4.5407 C   0  0  2  0  0  0  0  0  0  0  0  0
    3.1448    3.8457    4.7855 C   0  0  2  0  0  0  0  0  0  0  0  0
    4.1061    4.7121    4.0261 C   0  0  0  0  0  0  0  0  0  0  0  0
    3.4290    2.4788    4.4060 O   0  0  0  0  0  0  0  0  0  0  0  0
    2.7164    1.5234    5.1409 C   0  0  2  0  0  0  0  0  0  0  0  0
    1.2128    1.7019    5.0395 C   0  0  0  0  0  0  0  0  0  0  0  0
    0.8238    3.1470    5.3380 C   0  0  2  0  0  0  0  0  0  0  0  0
   -0.5423    3.3373    5.0004 O   0  0  0  0  0  0  0  0  0  0  0  0
   -0.8425    4.7227    4.9176 C   0  0  0  0  0  0  0  0  0  0  0  0
    3.0735    1.6823    6.5060 O   0  0  0  0  0  0  0  0  0  0  0  0
    2.7153    2.9859    6.9403 C   0  0  1  0  0  0  0  0  0  0  0  0
   -6.4875    6.6431    2.4321 C   0  0  1  0  0  0  0  0  0  0  0  0
   -7.5187    5.5508    2.1997 C   0  0  0  0  0  0  0  0  0  0  0  0
   -5.4280    6.1420    3.4000 C   0  0  0  0  0  0  0  0  0  0  0  0
   -5.5113    4.8825    3.9073 C   0  0  0  0  0  0  0  0  0  0  0  0
   -4.4518    4.3813    4.8752 C   0  0  0  0  0  0  0  0  0  0  0  0
   -4.5351    3.1218    5.3824 C   0  0  0  0  0  0  0  0  0  0  0  0
   -5.5032    2.2195    5.1090 C   0  0  0  0  0  0  0  0  0  0  0  0
   -5.2575    1.0805    5.7932 O   0  0  0  0  0  0  0  0  0  0  0  0
   -4.1408    1.2528    6.4991 C   0  0  2  0  0  0  0  0  0  0  0  0
   -4.0800    0.2989    6.9800 H   0  0  0  0  0  0  0  0  0  0  0  0
   -3.4105    0.3645    7.4082 C   0  0  2  0  0  0  0  0  0  0  0  0
   -4.3063   -0.5628    8.0033 O   0  0  0  0  0  0  0  0  0  0  0  0
   -2.7771    1.2270    8.4749 C   0  0  0  0  0  0  0  0  0  0  0  0
   -2.3501    2.4372    8.2325 C   0  0  0  0  0  0  0  0  0  0  0  0
   -2.4551    3.0718    6.8645 C   0  0  1  0  0  0  0  0  0  0  0  0
   -2.4896    4.1382    6.9448 H   0  0  0  0  0  0  0  0  0  0  0  0
   -1.2435    2.6977    6.0263 C   0  0  0  0  0  0  0  0  0  0  0  0
   -0.8391    3.4795    5.1096 O   0  0  0  0  0  0  0  0  0  0  0  0
   -0.5634    1.4747    6.2676 O   0  0  0  0  0  0  0  0  0  0  0  0
   -1.0152    0.6012    7.2919 C   0  0  1  0  0  0  0  0  0  0  0  0
   -0.3882   -0.2649    7.3306 H   0  0  0  0  0  0  0  0  0  0  0  0
   -0.9590    1.3290    8.6365 C   0  0  0  0  0  0  0  0  0  0  0  0
   -1.7856    2.6158    8.5532 C   0  0  1  0  0  0  0  0  0  0  0  0
   -1.9036    3.0840    9.5081 H   0  0  0  0  0  0  0  0  0  0  0  0
   -1.0517    3.6489    7.7140 C   0  0  0  0  0  0  0  0  0  0  0  0
    0.4479    3.4567    7.8711 C   0  0  0  0  0  0  0  0  0  0  0  0
    1.2157    3.1782    6.7832 C   0  0  0  0  0  0  0  0  0  0  0  0
    0.5739    3.0592    5.4104 C   0  0  0  0  0  0  0  0  0  0  0  0
   -3.1817    2.2631    8.0917 O   0  0  0  0  0  0  0  0  0  0  0  0
   -3.3318    1.4208    6.8431 C   0  0  1  0  0  0  0  0  0  0  0  0
   -2.4525    0.1739    6.9922 C   0  0  0  0  0  0  0  0  0  0  0  0
   -2.8604    2.2278    5.6301 O   0  0  0  0  0  0  0  0  0  0  0  0
   -3.8288    3.3981    5.4070 C   0  0  2  0  0  0  0  0  0  0  0  0
   -3.8898    4.2888    6.6372 C   0  0  0  0  0  0  0  0  0  0  0  0
   -2.5088    4.8571    6.9203 C   0  0  0  0  0  0  0  0  0  0  0  0
   -4.8655    5.4278    6.3901 C   0  0  0  0  0  0  0  0  0  0  0  0
   -5.1893    2.8044    5.1061 C   0  0  1  0  0  0  0  0  0  0  0  0
   -5.1861    2.3787    3.6469 C   0  0  0  0  0  0  0  0  0  0  0  0
   -5.6214    1.6410    5.9034 C   0  0  0  0  0  0  0  0  0  0  0  0
   -4.7668    1.0092    6.6895 C   0  0  0  0  0  0  0  0  0  0  0  0
   -3.6764    2.5642    6.2349 C   0  0  2  0  0  0  0  0  0  0  0  0
   -2.7558    3.6339    6.3914 O   0  0  0  0  0  0  0  0  0  0  0  0
   -2.6316    0.6662    9.8801 C   0  0  0  0  0  0  0  0  0  0  0  0
    4.4493    1.3443    1.8048 H   0  0  0  0  0  0  0  0  0  0  0  0
   -3.7772   -0.2772    8.8023 H   0  0  0  0  0  0  0  0  0  0  0  0
   -3.0538    4.4134    5.8404 H   0  0  0  0  0  0  0  0  0  0  0  0
    2.1538    1.9772    5.2368 H   0  0  0  0  0  0  0  0  0  0  0  0
    1.3386    3.2904    4.4220 H   0  0  0  0  0  0  0  0  0  0  0  0
    1.7056    3.4131    6.1259 H   0  0  0  0  0  0  0  0  0  0  0  0
    4.7859    2.8570    3.6676 H   0  0  0  0  0  0  0  0  0  0  0  0
    4.0084    5.1365    2.9538 H   0  0  0  0  0  0  0  0  0  0  0  0
    4.0714    3.9407    1.6708 H   0  0  0  0  0  0  0  0  0  0  0  0
    2.0249    5.1251    1.4490 H   0  0  0  0  0  0  0  0  0  0  0  0
    1.1514    2.6501    4.0145 H   0  0  0  0  0  0  0  0  0  0  0  0
    0.6002    0.4041    3.3921 H   0  0  0  0  0  0  0  0  0  0  0  0
   -0.4497    1.5591    2.6067 H   0  0  0  0  0  0  0  0  0  0  0  0
    0.8429    0.8012    1.7079 H   0  0  0  0  0  0  0  0  0  0  0  0
    2.9947    1.1952    4.0655 H   0  0  0  0  0  0  0  0  0  0  0  0
    2.8102   -1.0299   -0.1793 H   0  0  0  0  0  0  0  0  0  0  0  0
    2.5590    0.4843   -1.0143 H   0  0  0  0  0  0  0  0  0  0  0  0
    4.0921    0.1557   -0.2430 H   0  0  0  0  0  0  0  0  0  0  0  0
    0.7668    4.6530    4.7575 H   0  0  0  0  0  0  0  0  0  0  0  0
    3.2933    4.0525    5.8248 H   0  0  0  0  0  0  0  0  0  0  0  0
    3.9047    5.7409    4.2400 H   0  0  0  0  0  0  0  0  0  0  0  0
    5.1076    4.4761    4.3198 H   0  0  0  0  0  0  0  0  0  0  0  0
    3.9916    4.5370    2.9767 H   0  0  0  0  0  0  0  0  0  0  0  0
    2.9703    0.5510    4.7736 H   0  0  0  0  0  0  0  0  0  0  0  0
    0.7398    1.0619    5.7547 H   0  0  0  0  0  0  0  0  0  0  0  0
    0.8943    1.4490    4.0498 H   0  0  0  0  0  0  0  0  0  0  0  0
    0.9861    3.3319    6.3793 H   0  0  0  0  0  0  0  0  0  0  0  0
   -0.6206    5.1923    5.8531 H   0  0  0  0  0  0  0  0  0  0  0  0
   -0.2525    5.1701    4.1452 H   0  0  0  0  0  0  0  0  0  0  0  0
   -1.8808    4.8498    4.6921 H   0  0  0  0  0  0  0  0  0  0  0  0
    2.9844    3.1057    7.9690 H   0  0  0  0  0  0  0  0  0  0  0  0
   -6.0267    6.9024    1.5019 H   0  0  0  0  0  0  0  0  0  0  0  0
   -8.2607    6.3094    2.3373 H   0  0  0  0  0  0  0  0  0  0  0  0
   -7.6264    5.1189    1.2267 H   0  0  0  0  0  0  0  0  0  0  0  0
   -7.6430    4.7912    2.9429 H   0  0  0  0  0  0  0  0  0  0  0  0
   -6.1738    6.4948    2.7187 H   0  0  0  0  0  0  0  0  0  0  0  0
   -6.3226    4.2446    3.6249 H   0  0  0  0  0  0  0  0  0  0  0  0
   -5.1977    4.7341    4.1938 H   0  0  0  0  0  0  0  0  0  0  0  0
   -6.4541    2.6145    5.3997 H   0  0  0  0  0  0  0  0  0  0  0  0
   -5.5117    2.0113    4.0594 H   0  0  0  0  0  0  0  0  0  0  0  0
   -2.6634   -0.1871    6.8767 H   0  0  0  0  0  0  0  0  0  0  0  0
   -1.9106    2.9991    9.0301 H   0  0  0  0  0  0  0  0  0  0  0  0
   -1.3579    0.6968    9.4021 H   0  0  0  0  0  0  0  0  0  0  0  0
    0.0568    1.5716    8.8689 H   0  0  0  0  0  0  0  0  0  0  0  0
   -1.3216    4.6313    8.0412 H   0  0  0  0  0  0  0  0  0  0  0  0
   -1.3207    3.5292    6.6853 H   0  0  0  0  0  0  0  0  0  0  0  0
   -0.6077    3.5920    7.7605 H   0  0  0  0  0  0  0  0  0  0  0  0
    0.9984    3.7896    4.7537 H   0  0  0  0  0  0  0  0  0  0  0  0
    0.7516    2.0800    5.0173 H   0  0  0  0  0  0  0  0  0  0  0  0
   -0.4800    3.2242    5.4939 H   0  0  0  0  0  0  0  0  0  0  0  0
   -2.4761   -0.3917    6.0843 H   0  0  0  0  0  0  0  0  0  0  0  0
   -2.8209   -0.4291    7.7957 H   0  0  0  0  0  0  0  0  0  0  0  0
   -3.4988    3.9946    4.5823 H   0  0  0  0  0  0  0  0  0  0  0  0
   -4.2181    3.7140    7.4778 H   0  0  0  0  0  0  0  0  0  0  0  0
   -2.1804    5.4319    6.0797 H   0  0  0  0  0  0  0  0  0  0  0  0
   -2.5518    5.4841    7.7863 H   0  0  0  0  0  0  0  0  0  0  0  0
   -1.8219    4.0553    7.0942 H   0  0  0  0  0  0  0  0  0  0  0  0
   -5.8377    5.0278    6.1908 H   0  0  0  0  0  0  0  0  0  0  0  0
   -4.9085    6.0548    7.2561 H   0  0  0  0  0  0  0  0  0  0  0  0
   -4.5372    6.0027    5.5495 H   0  0  0  0  0  0  0  0  0  0  0  0
   -5.8838    3.5782    5.3585 H   0  0  0  0  0  0  0  0  0  0  0  0
   -4.4579    1.6085    3.5005 H   0  0  0  0  0  0  0  0  0  0  0  0
   -6.1547    2.0086    3.3828 H   0  0  0  0  0  0  0  0  0  0  0  0
   -4.9451    3.2193    3.0303 H   0  0  0  0  0  0  0  0  0  0  0  0
   -6.6358    1.3056    5.8450 H   0  0  0  0  0  0  0  0  0  0  0  0
   -5.1153    0.1627    7.2436 H   0  0  0  0  0  0  0  0  0  0  0  0
   -3.5983    0.4226   10.2688 H   0  0  0  0  0  0  0  0  0  0  0  0
   -2.0262   -0.2156    9.8513 H   0  0  0  0  0  0  0  0  0  0  0  0
   -2.1679    1.3968   10.5094 H   0  0  0  0  0  0  0  0  0  0  0  0
  1  2  1  0  0  0  0
  1 72  1  0  0  0  0
  1 73  1  0  0  0  0
  1 74  1  0  0  0  0
  3  4  1  0  0  0  0
  3  9  1  0  0  0  0
  3 75  1  1  0  0  0
  3  2  1  0  0  0  0
  4  5  1  0  0  0  0
  4 76  1  0  0  0  0
  4 77  1  0  0  0  0
  5  6  1  0  0  0  0
  5 14  1  0  0  0  0
  5 78  1  6  0  0  0
  6  7  1  0  0  0  0
  7  8  1  0  0  0  0
  7  9  1  0  0  0  0
  7 79  1  1  0  0  0
  8 80  1  0  0  0  0
  8 81  1  0  0  0  0
  8 82  1  0  0  0  0
  9 83  1  1  0  0  0
  9 10  1  0  0  0  0
 10 11  1  0  0  0  0
 10 69  1  0  0  0  0
 11 12  1  0  0  0  0
 11 13  2  0  0  0  0
 12 84  1  0  0  0  0
 12 85  1  0  0  0  0
 12 86  1  0  0  0  0
 15 14  1  0  0  0  0
 15 16  1  0  0  0  0
 15 21  1  0  0  0  0
 15 87  1  1  0  0  0
 16 17  1  0  0  0  0
 16 18  1  0  0  0  0
 16 88  1  1  0  0  0
 17 89  1  0  0  0  0
 17 90  1  0  0  0  0
 17 91  1  0  0  0  0
 18 19  1  0  0  0  0
 19 20  1  0  0  0  0
 19 24  1  0  0  0  0
 19 92  1  6  0  0  0
 20 21  1  0  0  0  0
 20 93  1  0  0  0  0
 20 94  1  0  0  0  0
 21 95  1  1  0  0  0
 21 22  1  0  0  0  0
 22 23  1  0  0  0  0
 23 96  1  0  0  0  0
 23 97  1  0  0  0  0
 23 98  1  0  0  0  0
 25 24  1  0  0  0  0
 25 26  1  0  0  0  0
 25 52  1  0  0  0  0
 25 99  1  1  0  0  0
 26 28  1  0  0  0  0
 26100  1  6  0  0  0
 26 27  1  0  0  0  0
 27101  1  0  0  0  0
 27102  1  0  0  0  0
 27103  1  0  0  0  0
 28 29  2  0  0  0  0
 28104  1  0  0  0  0
 29 30  1  0  0  0  0
 29105  1  0  0  0  0
 30 31  2  0  0  0  0
 30106  1  0  0  0  0
 31 32  1  0  0  0  0
 31 66  1  0  0  0  0
 32 33  1  0  0  0  0
 32107  1  0  0  0  0
 32108  1  0  0  0  0
 33 34  1  0  0  0  0
 34 35  1  6  0  0  0
 34 36  1  0  0  0  0
 34 66  1  0  0  0  0
 36 38  1  0  0  0  0
 36109  1  6  0  0  0
 36 37  1  0  0  0  0
 37 70  1  0  0  0  0
 38 39  2  0  0  0  0
 38 68  1  0  0  0  0
 39 40  1  0  0  0  0
 39110  1  0  0  0  0
 40 41  1  1  0  0  0
 40 42  1  0  0  0  0
 40 66  1  0  0  0  0
 42 43  2  0  0  0  0
 42 44  1  0  0  0  0
 44 45  1  0  0  0  0
 45 46  1  1  0  0  0
 45 47  1  0  0  0  0
 45 56  1  0  0  0  0
 47 48  1  0  0  0  0
 47111  1  0  0  0  0
 47112  1  0  0  0  0
 48 49  1  1  0  0  0
 48 50  1  0  0  0  0
 48 54  1  0  0  0  0
 50 51  1  0  0  0  0
 50113  1  0  0  0  0
 50114  1  0  0  0  0
 51 52  2  0  0  0  0
 51115  1  0  0  0  0
 52 53  1  0  0  0  0
 53116  1  0  0  0  0
 53117  1  0  0  0  0
 53118  1  0  0  0  0
 55 54  1  6  0  0  0
 55 56  1  0  0  0  0
 55 57  1  0  0  0  0
 55 65  1  0  0  0  0
 56119  1  0  0  0  0
 56120  1  0  0  0  0
 57 58  1  0  0  0  0
 58 59  1  0  0  0  0
 58 62  1  0  0  0  0
 58121  1  6  0  0  0
 59 60  1  0  0  0  0
 59 61  1  0  0  0  0
 59122  1  0  0  0  0
 60123  1  0  0  0  0
 60124  1  0  0  0  0
 60125  1  0  0  0  0
 61126  1  0  0  0  0
 61127  1  0  0  0  0
 61128  1  0  0  0  0
 62 64  1  0  0  0  0
 62129  1  1  0  0  0
 62 63  1  0  0  0  0
 63130  1  0  0  0  0
 63131  1  0  0  0  0
 63132  1  0  0  0  0
 64 65  2  0  0  0  0
 64133  1  0  0  0  0
 65134  1  0  0  0  0
 66 67  1  6  0  0  0
 67 71  1  0  0  0  0
 68135  1  0  0  0  0
 68136  1  0  0  0  0
 68137  1  0  0  0  0
M  END
>  <DRUGBANK_ID>
DB11405

>  <COMMON_NAME>
Eprinomectin

>  <CAS_NUMBER>
123997-26-2

>  <UNII>
75KP30FD8O

>  <SYNONYMS>
Eprinomectin; Eprinomectina; éprinomectine; Eprinomectinum

$$$$
