948
 OpenBabel10282417113D

 61 64  0  0  1  0  0  0  0  0999 V2000
   -2.2245   -6.1131    4.3728 S   0  0  0  0  0  0  0  0  0  0  0  0
    1.2328   -7.9602   -0.1679 S   0  0  0  0  0  0  0  0  0  0  0  0
   -2.3175   -1.7823    4.7621 O   0  0  0  0  0  0  0  0  0  0  0  0
   -3.9564   -2.6881    7.8441 O   0  0  0  0  0  0  0  0  0  0  0  0
   -5.1249   -4.5594    7.5660 O   0  0  0  0  0  0  0  0  0  0  0  0
   -0.0297   -3.9810    0.7307 O   0  0  0  0  0  0  0  0  0  0  0  0
   -0.7755   -2.9786   -3.0547 O   0  0  0  0  0  0  0  0  0  0  0  0
   -1.2645   -6.5515   -1.3949 O   0  0  0  0  0  0  0  0  0  0  0  0
    2.2966   -8.5036   -0.9891 O   0  0  0  0  0  0  0  0  0  0  0  0
    1.3937   -7.8998    1.2708 O   0  0  0  0  0  0  0  0  0  0  0  0
   -3.4733   -3.8347    4.9343 N   0  0  0  0  0  0  0  0  0  0  0  0
   -1.3524   -3.8521    2.3904 N   0  0  0  0  0  0  0  0  0  0  0  0
   -2.0206   -3.5366   -1.3035 N   0  0  0  0  0  0  0  0  0  0  0  0
    0.0214   -4.6375   -1.7099 N   0  0  0  0  0  0  0  0  0  0  0  0
    0.9559   -6.4306   -0.7198 N   0  0  0  0  0  0  0  0  0  0  0  0
   -3.2662   -4.7827    3.8095 C   0  0  1  0  0  0  0  0  0  0  0  0
   -2.8973   -5.8525    6.0634 C   0  0  0  0  0  0  0  0  0  0  0  0
   -3.0803   -4.3182    6.2381 C   0  0  2  0  0  0  0  0  0  0  0  0
   -2.5815   -3.6793    3.1091 C   0  0  1  0  0  0  0  0  0  0  0  0
   -2.7248   -2.8567    4.3489 C   0  0  0  0  0  0  0  0  0  0  0  0
   -1.8319   -6.4141    6.9745 C   0  0  0  0  0  0  0  0  0  0  0  0
   -4.2005   -6.6577    6.0946 C   0  0  0  0  0  0  0  0  0  0  0  0
   -4.1337   -3.9038    7.2790 C   0  0  0  0  0  0  0  0  0  0  0  0
   -1.2198   -3.9684    1.0493 C   0  0  0  0  0  0  0  0  0  0  0  0
   -2.4079   -4.1226   -0.0160 C   0  0  1  0  0  0  0  0  0  0  0  0
   -3.7308   -3.4544    0.3746 C   0  0  0  0  0  0  0  0  0  0  0  0
   -0.9155   -3.7159   -2.0783 C   0  0  0  0  0  0  0  0  0  0  0  0
    1.4506   -4.3492   -1.6179 C   0  0  0  0  0  0  0  0  0  0  0  0
    1.9766   -5.3646   -0.5759 C   0  0  0  0  0  0  0  0  0  0  0  0
   -0.2238   -5.9329   -1.2939 C   0  0  0  0  0  0  0  0  0  0  0  0
   -3.7066   -2.1460    0.9255 C   0  0  0  0  0  0  0  0  0  0  0  0
   -4.9404   -4.1724    0.3811 C   0  0  0  0  0  0  0  0  0  0  0  0
   -4.7825   -1.7074    1.7073 C   0  0  0  0  0  0  0  0  0  0  0  0
   -6.0776   -3.6044    0.9646 C   0  0  0  0  0  0  0  0  0  0  0  0
   -0.2530   -8.9071   -0.5136 C   0  0  0  0  0  0  0  0  0  0  0  0
   -5.9742   -2.4248    1.7050 C   0  0  0  0  0  0  0  0  0  0  0  0
   -4.2013   -5.0873    3.3233 H   0  0  0  0  0  0  0  0  0  0  0  0
   -3.2459   -2.1228    7.4862 H   0  0  0  0  0  0  0  0  0  0  0  0
   -0.4463   -3.7348    2.8392 H   0  0  0  0  0  0  0  0  0  0  0  0
   -2.6747   -2.8710   -1.6976 H   0  0  0  0  0  0  0  0  0  0  0  0
   -2.1214   -3.8473    6.5001 H   0  0  0  0  0  0  0  0  0  0  0  0
   -3.3502   -3.4078    2.4647 H   0  0  0  0  0  0  0  0  0  0  0  0
   -2.1413   -6.3106    8.0138 H   0  0  0  0  0  0  0  0  0  0  0  0
   -1.6589   -7.4756    6.7637 H   0  0  0  0  0  0  0  0  0  0  0  0
   -0.8777   -5.8863    6.8442 H   0  0  0  0  0  0  0  0  0  0  0  0
   -4.0615   -7.6960    5.7802 H   0  0  0  0  0  0  0  0  0  0  0  0
   -4.5928   -6.7049    7.1111 H   0  0  0  0  0  0  0  0  0  0  0  0
   -4.9752   -6.2146    5.4515 H   0  0  0  0  0  0  0  0  0  0  0  0
   -2.6004   -5.1906   -0.1598 H   0  0  0  0  0  0  0  0  0  0  0  0
    1.9000   -4.5459   -2.5966 H   0  0  0  0  0  0  0  0  0  0  0  0
    1.6377   -3.3025   -1.3499 H   0  0  0  0  0  0  0  0  0  0  0  0
    3.0038   -5.6781   -0.7633 H   0  0  0  0  0  0  0  0  0  0  0  0
    1.9522   -4.9360    0.4342 H   0  0  0  0  0  0  0  0  0  0  0  0
   -2.7431   -1.6473    1.0618 H   0  0  0  0  0  0  0  0  0  0  0  0
   -5.0026   -5.1916   -0.0030 H   0  0  0  0  0  0  0  0  0  0  0  0
   -4.6386   -0.8866    2.4108 H   0  0  0  0  0  0  0  0  0  0  0  0
   -7.0412   -4.1022    0.8850 H   0  0  0  0  0  0  0  0  0  0  0  0
   -1.0873   -8.5119    0.0708 H   0  0  0  0  0  0  0  0  0  0  0  0
   -0.4586   -8.8831   -1.5860 H   0  0  0  0  0  0  0  0  0  0  0  0
   -0.0791   -9.9433   -0.2147 H   0  0  0  0  0  0  0  0  0  0  0  0
   -6.8148   -2.0784    2.3020 H   0  0  0  0  0  0  0  0  0  0  0  0
  1 16  1  0  0  0  0
  1 17  1  0  0  0  0
  2  9  2  0  0  0  0
  2 10  2  0  0  0  0
  2 15  1  0  0  0  0
  2 35  1  0  0  0  0
  3 20  2  0  0  0  0
  4 23  1  0  0  0  0
  4 38  1  0  0  0  0
  5 23  2  0  0  0  0
  6 24  2  0  0  0  0
  7 27  2  0  0  0  0
  8 30  2  0  0  0  0
 11 16  1  0  0  0  0
 11 18  1  0  0  0  0
 11 20  1  0  0  0  0
 12 24  1  0  0  0  0
 12 39  1  0  0  0  0
 13 27  1  0  0  0  0
 13 40  1  0  0  0  0
 14 27  1  0  0  0  0
 14 28  1  0  0  0  0
 14 30  1  0  0  0  0
 15 29  1  0  0  0  0
 15 30  1  0  0  0  0
 16 19  1  0  0  0  0
 16 37  1  6  0  0  0
 17 18  1  0  0  0  0
 17 21  1  0  0  0  0
 17 22  1  0  0  0  0
 18 41  1  1  0  0  0
 18 23  1  0  0  0  0
 19 20  1  0  0  0  0
 19 42  1  6  0  0  0
 19 12  1  0  0  0  0
 21 43  1  0  0  0  0
 21 44  1  0  0  0  0
 21 45  1  0  0  0  0
 22 46  1  0  0  0  0
 22 47  1  0  0  0  0
 22 48  1  0  0  0  0
 25 26  1  0  0  0  0
 25 49  1  6  0  0  0
 25 24  1  0  0  0  0
 25 13  1  0  0  0  0
 26 31  2  0  0  0  0
 26 32  1  0  0  0  0
 28 29  1  0  0  0  0
 28 50  1  0  0  0  0
 28 51  1  0  0  0  0
 29 52  1  0  0  0  0
 29 53  1  0  0  0  0
 31 33  1  0  0  0  0
 31 54  1  0  0  0  0
 32 34  2  0  0  0  0
 32 55  1  0  0  0  0
 33 36  2  0  0  0  0
 33 56  1  0  0  0  0
 34 36  1  0  0  0  0
 34 57  1  0  0  0  0
 35 58  1  0  0  0  0
 35 59  1  0  0  0  0
 35 60  1  0  0  0  0
 36 61  1  0  0  0  0
M  END
>  <DRUGBANK_ID>
DB00948

>  <SECONDARY_ACCESSION_NUMBERS>
APRD01113

>  <COMMON_NAME>
Mezlocillin

>  <CAS_NUMBER>
51481-65-3

>  <UNII>
OH2O403D1G

>  <SYNONYMS>
(2S,5R,6R)-3,3-dimethyl-6-{[(2R)-2-({[3-(methylsulfonyl)-2-oxoimidazolidin-1-yl]carbonyl}amino)-2-phenylacetyl]amino}-7-oxo-4-thia-1-azabicyclo[3.2.0]heptane-2-carboxylic acid; 6Î²-{(2R)-2-[3-(methanesulfonyl)-2-oxoimidazolidine-1-carboxamido]-2-phenylacetamido}penicillanic acid; Mezlocilina; Mezlocillin; Mezlocilline; Mezlocillinum

$$$$
