
 OpenBabel10282417193D

104110  0  0  0  0  0  0  0  0999 V2000
   -0.8824    1.4692    0.0025 N   0  0  0  0  0  0  0  0  0  0  0  0
   -1.9796    0.6619    0.0031 C   0  0  0  0  0  0  0  0  0  0  0  0
   -1.9691   -0.6888   -0.0168 N   0  0  0  0  0  0  0  0  0  0  0  0
   -0.8147   -1.3819   -0.0238 C   0  0  0  0  0  0  0  0  0  0  0  0
    0.2547    0.7355   -0.0100 C   0  0  0  0  0  0  0  0  0  0  0  0
    0.3651   -0.6464   -0.0082 C   0  0  0  0  0  0  0  0  0  0  0  0
    1.6745   -1.0567   -0.0080 N   0  0  0  0  0  0  0  0  0  0  0  0
    2.3707    0.0417   -0.0325 C   0  0  0  0  0  0  0  0  0  0  0  0
    1.5629    1.1445   -0.0300 N   0  0  0  0  0  0  0  0  0  0  0  0
   -0.9001   -2.7509   -0.0520 N   0  0  0  0  0  0  0  0  0  0  0  0
    0.2375   -3.6724   -0.0449 C   0  0  0  0  0  0  0  0  0  0  0  0
    0.3033   -4.6042    1.2162 C   0  0  0  0  0  0  0  0  0  0  0  0
    1.7236   -5.2998    1.2367 C   0  0  0  0  0  0  0  0  0  0  0  0
   -0.9829   -5.4833    1.3013 C   0  0  0  0  0  0  0  0  0  0  0  0
    1.9639   -6.6801    1.1301 C   0  0  0  0  0  0  0  0  0  0  0  0
    3.1871   -7.3210    1.2492 C   0  0  0  0  0  0  0  0  0  0  0  0
    4.3163   -6.5587    1.2893 C   0  0  0  0  0  0  0  0  0  0  0  0
    4.1784   -5.1710    1.2853 C   0  0  0  0  0  0  0  0  0  0  0  0
    2.9070   -4.5445    1.2994 C   0  0  0  0  0  0  0  0  0  0  0  0
   -2.2820   -4.9587    1.3462 C   0  0  0  0  0  0  0  0  0  0  0  0
   -3.4161   -5.7988    1.2817 C   0  0  0  0  0  0  0  0  0  0  0  0
   -3.2925   -7.1849    1.2121 C   0  0  0  0  0  0  0  0  0  0  0  0
   -2.0425   -7.7279    1.2418 C   0  0  0  0  0  0  0  0  0  0  0  0
   -0.9636   -6.8744    1.3602 C   0  0  0  0  0  0  0  0  0  0  0  0
    2.0539    2.4929    0.0389 C   0  0  2  0  0  0  0  0  0  0  0  0
    2.8994    2.7249   -1.1025 O   0  0  0  0  0  0  0  0  0  0  0  0
    4.0200    3.5147   -0.6741 C   0  0  1  0  0  0  0  0  0  0  0  0
    3.8247    3.8352    0.8199 C   0  0  2  0  0  0  0  0  0  0  0  0
    2.9028    2.7241    1.2854 C   0  0  1  0  0  0  0  0  0  0  0  0
    3.1919    5.1068    1.0293 O   0  0  0  0  0  0  0  0  0  0  0  0
    2.1218    3.0415    2.4292 O   0  0  0  0  0  0  0  0  0  0  0  0
   -3.3735    1.3149    0.0177 C   0  0  0  0  0  0  0  0  0  0  0  0
   -3.5034    2.5426    0.0241 O   0  0  0  0  0  0  0  0  0  0  0  0
   -4.5517    0.5604    0.0231 N   0  0  0  0  0  0  0  0  0  0  0  0
   -4.7590   -0.8904    0.0045 C   0  0  0  0  0  0  0  0  0  0  0  0
   -5.4288   -1.4224    1.2696 C   0  0  0  0  0  0  0  0  0  0  0  0
   -6.8560   -1.1503    1.3176 N   0  0  0  0  0  0  0  0  0  0  0  0
   -7.7632   -2.1982    1.3085 C   0  0  0  0  0  0  0  0  0  0  0  0
   -9.0503   -1.7709    1.4490 N   0  0  0  0  0  0  0  0  0  0  0  0
   -7.4518   -3.3617    1.2090 O   0  0  0  0  0  0  0  0  0  0  0  0
  -10.2983   -2.5320    1.2600 C   0  0  0  0  0  0  0  0  0  0  0  0
    5.3868    2.8411   -0.9164 C   0  0  0  0  0  0  0  0  0  0  0  0
    5.3804    1.6775   -1.6606 N   0  0  0  0  0  0  0  0  0  0  0  0
    6.4211    3.3299   -0.4678 O   0  0  0  0  0  0  0  0  0  0  0  0
    6.6170    0.9725   -1.9721 C   0  0  0  0  0  0  0  0  0  0  0  0
    6.6116   -0.4389   -1.4147 C   0  0  0  0  0  0  0  0  0  0  0  0
  -10.4938   -4.0390    1.5724 C   0  0  0  0  0  0  0  0  0  0  0  0
  -10.2308   -5.0075    0.4116 C   0  0  0  0  0  0  0  0  0  0  0  0
  -10.8927   -4.5110   -0.7906 N   0  0  0  0  0  0  0  0  0  0  0  0
  -10.4661   -3.1918   -1.2137 C   0  0  0  0  0  0  0  0  0  0  0  0
  -10.8787   -2.1886   -0.1206 C   0  0  0  0  0  0  0  0  0  0  0  0
  -11.7888   -5.2768   -1.5155 C   0  0  0  0  0  0  0  0  0  0  0  0
  -11.5714   -5.5736   -2.8188 N   0  0  0  0  0  0  0  0  0  0  0  0
  -12.4712   -6.3791   -3.4597 C   0  0  0  0  0  0  0  0  0  0  0  0
  -13.6289   -6.8770   -2.8866 C   0  0  0  0  0  0  0  0  0  0  0  0
  -13.8749   -6.5342   -1.5704 C   0  0  0  0  0  0  0  0  0  0  0  0
  -12.9458   -5.7445   -0.8864 C   0  0  0  0  0  0  0  0  0  0  0  0
    3.4519    0.0762   -0.0273 H   0  0  0  0  0  0  0  0  0  0  0  0
   -1.8112   -3.1166   -0.2911 H   0  0  0  0  0  0  0  0  0  0  0  0
    0.2063   -4.2739   -0.9582 H   0  0  0  0  0  0  0  0  0  0  0  0
    1.1742   -3.1301   -0.1169 H   0  0  0  0  0  0  0  0  0  0  0  0
    0.2800   -3.9551    2.1100 H   0  0  0  0  0  0  0  0  0  0  0  0
    1.2606   -7.4241    0.8343 H   0  0  0  0  0  0  0  0  0  0  0  0
    3.1966   -8.4082    1.2253 H   0  0  0  0  0  0  0  0  0  0  0  0
    5.2758   -7.0607    1.2779 H   0  0  0  0  0  0  0  0  0  0  0  0
    5.0804   -4.5691    1.2672 H   0  0  0  0  0  0  0  0  0  0  0  0
    2.8800   -3.4548    1.3077 H   0  0  0  0  0  0  0  0  0  0  0  0
   -2.4611   -3.8918    1.4607 H   0  0  0  0  0  0  0  0  0  0  0  0
   -4.4118   -5.3671    1.2935 H   0  0  0  0  0  0  0  0  0  0  0  0
   -4.1433   -7.8530    1.1992 H   0  0  0  0  0  0  0  0  0  0  0  0
   -1.8418   -8.7950    1.2459 H   0  0  0  0  0  0  0  0  0  0  0  0
   -0.1192   -7.4483    1.6384 H   0  0  0  0  0  0  0  0  0  0  0  0
    1.1994    3.1759   -0.0113 H   0  0  0  0  0  0  0  0  0  0  0  0
    4.0128    4.4343   -1.2706 H   0  0  0  0  0  0  0  0  0  0  0  0
    4.7587    3.8490    1.3898 H   0  0  0  0  0  0  0  0  0  0  0  0
    3.5095    1.8459    1.5371 H   0  0  0  0  0  0  0  0  0  0  0  0
    2.3481    5.1529    0.5512 H   0  0  0  0  0  0  0  0  0  0  0  0
    1.6920    3.9042    2.2854 H   0  0  0  0  0  0  0  0  0  0  0  0
   -5.3851    1.1354   -0.0153 H   0  0  0  0  0  0  0  0  0  0  0  0
   -5.3258   -1.1350   -0.8984 H   0  0  0  0  0  0  0  0  0  0  0  0
   -3.8365   -1.4391   -0.0808 H   0  0  0  0  0  0  0  0  0  0  0  0
   -5.2669   -2.5041    1.3053 H   0  0  0  0  0  0  0  0  0  0  0  0
   -4.9655   -0.9931    2.1653 H   0  0  0  0  0  0  0  0  0  0  0  0
   -7.1477   -0.1860    1.3644 H   0  0  0  0  0  0  0  0  0  0  0  0
   -9.1735   -0.7709    1.4058 H   0  0  0  0  0  0  0  0  0  0  0  0
  -10.9064   -2.0482    2.0377 H   0  0  0  0  0  0  0  0  0  0  0  0
    4.5142    1.3690   -2.0932 H   0  0  0  0  0  0  0  0  0  0  0  0
    6.7332    0.9499   -3.0609 H   0  0  0  0  0  0  0  0  0  0  0  0
    7.4751    1.5141   -1.5608 H   0  0  0  0  0  0  0  0  0  0  0  0
    5.8225   -1.0406   -1.8761 H   0  0  0  0  0  0  0  0  0  0  0  0
    7.5719   -0.9294   -1.6069 H   0  0  0  0  0  0  0  0  0  0  0  0
    6.4428   -0.4311   -0.3331 H   0  0  0  0  0  0  0  0  0  0  0  0
   -9.9841   -4.3652    2.4837 H   0  0  0  0  0  0  0  0  0  0  0  0
  -11.5723   -4.1454    1.7829 H   0  0  0  0  0  0  0  0  0  0  0  0
   -9.1533   -5.0825    0.2348 H   0  0  0  0  0  0  0  0  0  0  0  0
  -10.5768   -6.0160    0.6741 H   0  0  0  0  0  0  0  0  0  0  0  0
  -10.9031   -2.8898   -2.1702 H   0  0  0  0  0  0  0  0  0  0  0  0
   -9.3748   -3.1777   -1.3293 H   0  0  0  0  0  0  0  0  0  0  0  0
  -11.9717   -2.1758   -0.0270 H   0  0  0  0  0  0  0  0  0  0  0  0
  -10.5690   -1.1809   -0.4181 H   0  0  0  0  0  0  0  0  0  0  0  0
  -12.2299   -6.6319   -4.4907 H   0  0  0  0  0  0  0  0  0  0  0  0
  -14.3180   -7.5057   -3.4423 H   0  0  0  0  0  0  0  0  0  0  0  0
  -14.7764   -6.8752   -1.0703 H   0  0  0  0  0  0  0  0  0  0  0  0
  -13.1449   -5.4631    0.1404 H   0  0  0  0  0  0  0  0  0  0  0  0
  1  2  2  0  0  0  0
  2  3  1  0  0  0  0
  2 32  1  0  0  0  0
  3  4  2  0  0  0  0
  4  6  1  0  0  0  0
  4 10  1  0  0  0  0
  5  6  2  0  0  0  0
  5  1  1  0  0  0  0
  6  7  1  0  0  0  0
  7  8  2  0  0  0  0
  8  9  1  0  0  0  0
  8 58  1  0  0  0  0
  9  5  1  0  0  0  0
 10 11  1  0  0  0  0
 10 59  1  0  0  0  0
 11 12  1  0  0  0  0
 11 60  1  0  0  0  0
 11 61  1  0  0  0  0
 12 14  1  0  0  0  0
 12 13  1  0  0  0  0
 12 62  1  0  0  0  0
 13 15  2  0  0  0  0
 14 20  2  0  0  0  0
 15 16  1  0  0  0  0
 15 63  1  0  0  0  0
 16 17  2  0  0  0  0
 16 64  1  0  0  0  0
 17 18  1  0  0  0  0
 17 65  1  0  0  0  0
 18 19  2  0  0  0  0
 18 66  1  0  0  0  0
 19 13  1  0  0  0  0
 19 67  1  0  0  0  0
 20 21  1  0  0  0  0
 20 68  1  0  0  0  0
 21 22  2  0  0  0  0
 21 69  1  0  0  0  0
 22 23  1  0  0  0  0
 22 70  1  0  0  0  0
 23 24  2  0  0  0  0
 23 71  1  0  0  0  0
 24 14  1  0  0  0  0
 24 72  1  0  0  0  0
 25  9  1  0  0  0  0
 25 26  1  0  0  0  0
 25 73  1  6  0  0  0
 26 27  1  0  0  0  0
 27 28  1  0  0  0  0
 27 74  1  6  0  0  0
 27 42  1  0  0  0  0
 28 29  1  0  0  0  0
 28 30  1  0  0  0  0
 28 75  1  1  0  0  0
 29 25  1  0  0  0  0
 29 31  1  0  0  0  0
 29 76  1  1  0  0  0
 30 77  1  0  0  0  0
 31 78  1  0  0  0  0
 32 33  2  0  0  0  0
 32 34  1  0  0  0  0
 34 35  1  0  0  0  0
 34 79  1  0  0  0  0
 35 36  1  0  0  0  0
 35 80  1  0  0  0  0
 35 81  1  0  0  0  0
 36 37  1  0  0  0  0
 36 82  1  0  0  0  0
 36 83  1  0  0  0  0
 37 38  1  0  0  0  0
 37 84  1  0  0  0  0
 38 39  1  0  0  0  0
 38 40  2  0  0  0  0
 39 41  1  0  0  0  0
 39 85  1  0  0  0  0
 41 47  1  0  0  0  0
 41 51  1  0  0  0  0
 41 86  1  0  0  0  0
 42 43  1  0  0  0  0
 42 44  2  0  0  0  0
 43 45  1  0  0  0  0
 43 87  1  0  0  0  0
 45 46  1  0  0  0  0
 45 88  1  0  0  0  0
 45 89  1  0  0  0  0
 46 90  1  0  0  0  0
 46 91  1  0  0  0  0
 46 92  1  0  0  0  0
 47 48  1  0  0  0  0
 47 93  1  0  0  0  0
 47 94  1  0  0  0  0
 48 49  1  0  0  0  0
 48 95  1  0  0  0  0
 48 96  1  0  0  0  0
 49 50  1  0  0  0  0
 49 52  1  0  0  0  0
 50 51  1  0  0  0  0
 50 97  1  0  0  0  0
 50 98  1  0  0  0  0
 51 99  1  0  0  0  0
 51100  1  0  0  0  0
 52 53  2  0  0  0  0
 53 54  1  0  0  0  0
 54 55  2  0  0  0  0
 54101  1  0  0  0  0
 55 56  1  0  0  0  0
 55102  1  0  0  0  0
 56 57  2  0  0  0  0
 56103  1  0  0  0  0
 57 52  1  0  0  0  0
 57104  1  0  0  0  0
M  END
>  <DRUGBANK_ID>
DB12691

>  <COMMON_NAME>
UK-432097

>  <CAS_NUMBER>
380221-63-6

>  <UNII>
8L3OAJ1R5A

$$$$
