Untitled Document-1
 OpenBabel10282417133D

 30 30  0  0  0  0  0  0  0  0999 V2000
    0.6201    1.2335   -0.3053 C   0  0  2  0  0  0  0  0  0  0  0  0
    1.4518    0.0213    0.1503 C   0  0  1  0  0  0  0  0  0  0  0  0
    0.7499   -1.2842   -0.2676 C   0  0  1  0  0  0  0  0  0  0  0  0
   -0.6701   -1.3015    0.3565 C   0  0  2  0  0  0  0  0  0  0  0  0
   -1.4354   -0.0286   -0.0936 C   0  0  2  0  0  0  0  0  0  0  0  0
   -0.7162    1.1612    0.2193 O   0  0  0  0  0  0  0  0  0  0  0  0
    0.7039    1.4829   -1.8356 C   0  0  0  0  0  0  0  0  0  0  0  0
    2.7985    0.1001   -0.3105 O   0  0  0  0  0  0  0  0  0  0  0  0
    0.7384   -1.4945   -1.6877 O   0  0  0  0  0  0  0  0  0  0  0  0
   -0.6645   -1.3655    1.8293 N   0  0  0  0  0  0  0  0  0  0  0  0
   -2.7234    0.0365    0.5127 O   0  0  0  0  0  0  0  0  0  0  0  0
    0.2159   -2.1552    2.5283 C   0  0  0  0  0  0  0  0  0  0  0  0
    0.1703   -2.0290    4.0162 C   0  0  0  0  0  0  0  0  0  0  0  0
    1.0249   -2.9028    2.0063 O   0  0  0  0  0  0  0  0  0  0  0  0
   -0.5420    1.4780   -2.5201 O   0  0  0  0  0  0  0  0  0  0  0  0
    1.0898    2.1109    0.1627 H   0  0  0  0  0  0  0  0  0  0  0  0
    1.5101    0.0420    1.2477 H   0  0  0  0  0  0  0  0  0  0  0  0
    1.3533   -2.1264    0.0569 H   0  0  0  0  0  0  0  0  0  0  0  0
   -1.2353   -2.1734    0.0065 H   0  0  0  0  0  0  0  0  0  0  0  0
   -1.6280   -0.0945   -1.1592 H   0  0  0  0  0  0  0  0  0  0  0  0
    1.1447    2.4662   -2.0135 H   0  0  0  0  0  0  0  0  0  0  0  0
    1.3879    0.7910   -2.3368 H   0  0  0  0  0  0  0  0  0  0  0  0
    2.8318   -0.2229   -1.2269 H   0  0  0  0  0  0  0  0  0  0  0  0
    0.2099   -0.8310   -2.1413 H   0  0  0  0  0  0  0  0  0  0  0  0
   -1.3141   -0.7558    2.3212 H   0  0  0  0  0  0  0  0  0  0  0  0
   -3.0718   -0.8684    0.5586 H   0  0  0  0  0  0  0  0  0  0  0  0
    0.0219   -3.0346    4.4166 H   0  0  0  0  0  0  0  0  0  0  0  0
    1.1343   -1.6370    4.3544 H   0  0  0  0  0  0  0  0  0  0  0  0
   -0.6300   -1.3733    4.3591 H   0  0  0  0  0  0  0  0  0  0  0  0
   -0.8573    0.5843   -2.7106 H   0  0  0  0  0  0  0  0  0  0  0  0
  1  2  1  0  0  0  0
  1 16  1  1  0  0  0
  1  7  1  0  0  0  0
  2  3  1  0  0  0  0
  2  8  1  0  0  0  0
  2 17  1  1  0  0  0
  3  4  1  0  0  0  0
  3  9  1  0  0  0  0
  3 18  1  1  0  0  0
  4  5  1  0  0  0  0
  4 19  1  6  0  0  0
  4 10  1  0  0  0  0
  5  6  1  0  0  0  0
  5 20  1  6  0  0  0
  5 11  1  0  0  0  0
  6  1  1  0  0  0  0
  7 15  1  0  0  0  0
  7 21  1  0  0  0  0
  7 22  1  0  0  0  0
  8 23  1  0  0  0  0
  9 24  1  0  0  0  0
 10 12  1  0  0  0  0
 10 25  1  0  0  0  0
 11 26  1  0  0  0  0
 12 13  1  0  0  0  0
 12 14  2  0  0  0  0
 13 27  1  0  0  0  0
 13 28  1  0  0  0  0
 13 29  1  0  0  0  0
 15 30  1  0  0  0  0
M  END
>  <DRUGBANK_ID>
DB03567

>  <SECONDARY_ACCESSION_NUMBERS>
EXPT00365

>  <COMMON_NAME>
alpha-N-Acetyl-D-galactosamine

>  <CAS_NUMBER>
14215-68-0

>  <UNII>
00C01APN10

>  <SYNONYMS>
GalNAc-α; N-acetyl-2-deoxy-2-amino-galactose; N-acetyl-alpha-D-galactosamine; N-acetyl-α-D-galactosamine; Tn antigen saccharide; Tn antigen saccharide component; Tn saccharide; Tn saccharide component; α-GalNAc; α-GalpNAc

$$$$
