
 OpenBabel10282417163D

169176  0  0  0  0  0  0  0  0999 V2000
   -4.9345    3.7852   -2.2285 C   0  0  1  0  0  0  0  0  0  0  0  0
   -5.0595    5.2258   -1.6892 C   0  0  1  0  0  0  0  0  0  0  0  0
   -5.3162    5.1876   -0.2036 C   0  0  2  0  0  0  0  0  0  0  0  0
   -6.2306    3.1429   -2.0117 O   0  0  0  0  0  0  0  0  0  0  0  0
   -6.6528    4.5654   -0.0238 C   0  0  1  0  0  0  0  0  0  0  0  0
   -6.6230    3.1545   -0.6072 C   0  0  1  0  0  0  0  0  0  0  0  0
   -4.0638    6.2316   -1.6853 O   0  0  0  0  0  0  0  0  0  0  0  0
   -5.3424    6.5374    0.2887 O   0  0  0  0  0  0  0  0  0  0  0  0
   -7.0146    4.5800    1.3494 O   0  0  0  0  0  0  0  0  0  0  0  0
   -8.0486    2.6357   -0.4953 C   0  0  0  0  0  0  0  0  0  0  0  0
   -8.1171    1.2969   -0.9563 O   0  0  0  0  0  0  0  0  0  0  0  0
   -4.5951    3.7430   -3.6577 O   0  0  0  0  0  0  0  0  0  0  0  0
    2.3262   -0.9642   -0.0682 C   0  0  1  0  0  0  0  0  0  0  0  0
    1.4528    0.2486   -0.5251 C   0  0  1  0  0  0  0  0  0  0  0  0
   -3.2570    4.1247   -4.1129 C   0  0  1  0  0  0  0  0  0  0  0  0
    0.6392    1.2580   -2.8685 C   0  0  2  0  0  0  0  0  0  0  0  0
    1.6375    0.3861   -2.0968 C   0  0  1  0  0  0  0  0  0  0  0  0
   -2.7451    3.6727   -5.4913 C   0  0  1  0  0  0  0  0  0  0  0  0
    7.1197   -3.0458    0.5940 C   0  0  1  0  0  0  0  0  0  0  0  0
    8.1409   -3.8949    1.3262 C   0  0  1  0  0  0  0  0  0  0  0  0
    3.7625   -0.6371   -0.4705 C   0  0  2  0  0  0  0  0  0  0  0  0
   -2.5423    5.2485   -3.3641 C   0  0  2  0  0  0  0  0  0  0  0  0
   -0.7395    0.6541   -2.4059 C   0  0  2  0  0  0  0  0  0  0  0  0
    8.5521   -5.0442    0.3973 C   0  0  2  0  0  0  0  0  0  0  0  0
    6.0227   -3.8851    0.2711 O   0  0  0  0  0  0  0  0  0  0  0  0
   -1.4207    4.1520   -5.7630 O   0  0  0  0  0  0  0  0  0  0  0  0
   -1.9452    1.2188   -3.1314 C   0  0  0  0  0  0  0  0  0  0  0  0
    7.3356   -5.8071   -0.1721 C   0  0  1  0  0  0  0  0  0  0  0  0
   -1.2124    5.6990   -3.8375 C   0  0  1  0  0  0  0  0  0  0  0  0
    6.3457   -4.8137   -0.7536 C   0  0  1  0  0  0  0  0  0  0  0  0
    3.8845   -0.5891   -2.0083 C   0  0  1  0  0  0  0  0  0  0  0  0
   -1.0554    5.4585   -5.3132 C   0  0  1  0  0  0  0  0  0  0  0  0
    4.6379   -1.5484    0.3482 C   0  0  1  0  0  0  0  0  0  0  0  0
    3.0950    0.6593   -2.4333 C   0  0  0  0  0  0  0  0  0  0  0  0
    5.9709   -0.9389    0.8664 C   0  0  1  0  0  0  0  0  0  0  0  0
    6.7430   -1.9911    1.4621 O   0  0  0  0  0  0  0  0  0  0  0  0
   -2.7322    2.1740   -5.5186 O   0  0  0  0  0  0  0  0  0  0  0  0
   -1.7605    1.3851   -4.7263 C   0  0  1  0  0  0  0  0  0  0  0  0
    2.4875   -1.1588    1.4426 C   0  0  0  0  0  0  0  0  0  0  0  0
    0.0179   -0.0780   -0.1357 C   0  0  0  0  0  0  0  0  0  0  0  0
    0.7461    1.0018   -4.3997 C   0  0  0  0  0  0  0  0  0  0  0  0
   -0.9080    0.8085   -0.8603 C   0  0  0  0  0  0  0  0  0  0  0  0
    3.7441   -2.0198    1.5317 C   0  0  0  0  0  0  0  0  0  0  0  0
    4.2203   -4.5376   -2.0153 O   0  0  0  0  0  0  0  0  0  0  0  0
    5.0381   -5.4551   -1.2522 C   0  0  0  0  0  0  0  0  0  0  0  0
   -0.3402    1.6870   -5.1891 C   0  0  0  0  0  0  0  0  0  0  0  0
    6.1790    3.4195   -0.3096 C   0  0  0  0  0  0  0  0  0  0  0  0
    5.8681    2.1383   -0.0159 C   0  0  0  0  0  0  0  0  0  0  0  0
    9.2842   -3.1259    1.7165 O   0  0  0  0  0  0  0  0  0  0  0  0
   -2.3269    4.9823   -1.9179 O   0  0  0  0  0  0  0  0  0  0  0  0
    9.3929   -5.9535    1.1026 O   0  0  0  0  0  0  0  0  0  0  0  0
   -1.0364    7.0805   -3.4960 O   0  0  0  0  0  0  0  0  0  0  0  0
    7.7373   -6.7574   -1.1522 O   0  0  0  0  0  0  0  0  0  0  0  0
    1.8551   -2.3319   -0.6639 C   0  0  0  0  0  0  0  0  0  0  0  0
    5.1744   -0.5957   -2.6099 O   0  0  0  0  0  0  0  0  0  0  0  0
    1.8539    1.5825    0.2001 C   0  0  0  0  0  0  0  0  0  0  0  0
    0.9927    2.7601   -2.6650 C   0  0  0  0  0  0  0  0  0  0  0  0
    6.8326   -0.2438   -0.2164 C   0  0  0  0  0  0  0  0  0  0  0  0
    0.4510    5.6733   -5.5115 C   0  0  0  0  0  0  0  0  0  0  0  0
    6.2801    1.0159   -0.8435 C   0  0  0  0  0  0  0  0  0  0  0  0
    5.7288    0.0303    2.0443 C   0  0  0  0  0  0  0  0  0  0  0  0
    0.8296    5.3276   -6.8254 O   0  0  0  0  0  0  0  0  0  0  0  0
    5.7442    4.4366    0.6693 C   0  0  0  0  0  0  0  0  0  0  0  0
    6.8945    3.6943   -1.5750 C   0  0  0  0  0  0  0  0  0  0  0  0
    1.4104   -0.5987   -2.5151 H   0  0  0  0  0  0  0  0  0  0  0  0
   -0.7476   -0.4167   -2.6415 H   0  0  0  0  0  0  0  0  0  0  0  0
    3.9496    0.3470   -0.0674 H   0  0  0  0  0  0  0  0  0  0  0  0
    4.8085   -2.3742   -0.3320 H   0  0  0  0  0  0  0  0  0  0  0  0
    4.8732   -3.9554   -3.1521 C   0  0  2  0  0  0  0  0  0  0  0  0
    3.9603   -3.1108   -3.8811 O   0  0  0  0  0  0  0  0  0  0  0  0
    4.6464   -2.3972   -4.9302 C   0  0  1  0  0  0  0  0  0  0  0  0
    5.1365   -3.3687   -5.9771 C   0  0  2  0  0  0  0  0  0  0  0  0
    6.0359   -4.4015   -5.3438 C   0  0  1  0  0  0  0  0  0  0  0  0
    5.3935   -5.0394   -4.1224 C   0  0  1  0  0  0  0  0  0  0  0  0
    6.3879   -5.9097   -3.5756 O   0  0  0  0  0  0  0  0  0  0  0  0
    6.3456   -5.4129   -6.3037 O   0  0  0  0  0  0  0  0  0  0  0  0
    5.8162   -2.6758   -7.0214 O   0  0  0  0  0  0  0  0  0  0  0  0
    3.6950   -1.4652   -5.6681 C   0  0  0  0  0  0  0  0  0  0  0  0
    3.0904   -0.5806   -4.7858 O   0  0  0  0  0  0  0  0  0  0  0  0
   -3.2801    0.4747   -2.8911 C   0  0  0  0  0  0  0  0  0  0  0  0
   -2.0584    2.4469   -2.3074 C   0  0  0  0  0  0  0  0  0  0  0  0
   -4.3166    3.1682   -1.5733 H   0  0  0  0  0  0  0  0  0  0  0  0
   -5.8343    5.6712   -2.3044 H   0  0  0  0  0  0  0  0  0  0  0  0
   -4.5151    4.6668    0.3503 H   0  0  0  0  0  0  0  0  0  0  0  0
   -7.3604    5.1924   -0.5809 H   0  0  0  0  0  0  0  0  0  0  0  0
   -5.9448    2.4976   -0.0389 H   0  0  0  0  0  0  0  0  0  0  0  0
   -3.2894    5.8050   -1.2309 H   0  0  0  0  0  0  0  0  0  0  0  0
   -5.2983    7.0907   -0.5226 H   0  0  0  0  0  0  0  0  0  0  0  0
   -6.2391    4.3117    1.8721 H   0  0  0  0  0  0  0  0  0  0  0  0
   -8.3988    2.6742    0.5414 H   0  0  0  0  0  0  0  0  0  0  0  0
   -8.7082    3.2524   -1.1149 H   0  0  0  0  0  0  0  0  0  0  0  0
   -7.7572    1.3217   -1.8629 H   0  0  0  0  0  0  0  0  0  0  0  0
   -2.6669    3.3469   -3.8232 H   0  0  0  0  0  0  0  0  0  0  0  0
   -3.4224    4.0000   -6.2837 H   0  0  0  0  0  0  0  0  0  0  0  0
    7.5795   -2.6445   -0.3149 H   0  0  0  0  0  0  0  0  0  0  0  0
    7.6851   -4.2866    2.2427 H   0  0  0  0  0  0  0  0  0  0  0  0
   -3.2162    6.0893   -3.5049 H   0  0  0  0  0  0  0  0  0  0  0  0
    9.1585   -4.6402   -0.4257 H   0  0  0  0  0  0  0  0  0  0  0  0
    6.8480   -6.3572    0.6378 H   0  0  0  0  0  0  0  0  0  0  0  0
   -0.4378    5.1902   -3.2589 H   0  0  0  0  0  0  0  0  0  0  0  0
    6.8430   -4.2763   -1.5676 H   0  0  0  0  0  0  0  0  0  0  0  0
    3.4496   -1.5043   -2.3792 H   0  0  0  0  0  0  0  0  0  0  0  0
   -1.6412    6.1698   -5.8959 H   0  0  0  0  0  0  0  0  0  0  0  0
    3.4690    1.5558   -1.9355 H   0  0  0  0  0  0  0  0  0  0  0  0
    3.2593    0.9593   -3.4636 H   0  0  0  0  0  0  0  0  0  0  0  0
   -1.9345    0.3567   -5.0882 H   0  0  0  0  0  0  0  0  0  0  0  0
    2.6740   -0.2169    1.9674 H   0  0  0  0  0  0  0  0  0  0  0  0
    1.6210   -1.6307    1.9106 H   0  0  0  0  0  0  0  0  0  0  0  0
   -0.1392    0.0443    0.9404 H   0  0  0  0  0  0  0  0  0  0  0  0
   -0.2889   -1.0845   -0.4098 H   0  0  0  0  0  0  0  0  0  0  0  0
    1.6874    1.4102   -4.7887 H   0  0  0  0  0  0  0  0  0  0  0  0
    0.7203   -0.0679   -4.6233 H   0  0  0  0  0  0  0  0  0  0  0  0
   -0.6898    1.8277   -0.5119 H   0  0  0  0  0  0  0  0  0  0  0  0
   -1.9297    0.5778   -0.5404 H   0  0  0  0  0  0  0  0  0  0  0  0
    3.5039   -3.0814    1.4270 H   0  0  0  0  0  0  0  0  0  0  0  0
    4.2004   -1.9351    2.5181 H   0  0  0  0  0  0  0  0  0  0  0  0
    5.2023   -6.3605   -1.8396 H   0  0  0  0  0  0  0  0  0  0  0  0
    4.4402   -5.7905   -0.3995 H   0  0  0  0  0  0  0  0  0  0  0  0
   -0.1098    2.7365   -5.1053 H   0  0  0  0  0  0  0  0  0  0  0  0
   -0.2428    1.4679   -6.2605 H   0  0  0  0  0  0  0  0  0  0  0  0
    5.0960    2.0349    0.7218 H   0  0  0  0  0  0  0  0  0  0  0  0
    9.6109   -2.6397    0.9419 H   0  0  0  0  0  0  0  0  0  0  0  0
   -1.4689    4.5786   -1.6845 H   0  0  0  0  0  0  0  0  0  0  0  0
    8.8927   -6.2456    1.8860 H   0  0  0  0  0  0  0  0  0  0  0  0
   -1.8419    7.5684   -3.7500 H   0  0  0  0  0  0  0  0  0  0  0  0
    8.3230   -6.3431   -1.8067 H   0  0  0  0  0  0  0  0  0  0  0  0
    2.5918   -3.1208   -0.5063 H   0  0  0  0  0  0  0  0  0  0  0  0
    0.9312   -2.6739   -0.1940 H   0  0  0  0  0  0  0  0  0  0  0  0
    1.6815   -2.3226   -1.7403 H   0  0  0  0  0  0  0  0  0  0  0  0
    5.2841    0.2631   -3.0682 H   0  0  0  0  0  0  0  0  0  0  0  0
    1.8074    1.4883    1.2847 H   0  0  0  0  0  0  0  0  0  0  0  0
    2.8487    1.9485   -0.0545 H   0  0  0  0  0  0  0  0  0  0  0  0
    1.1952    2.4178   -0.0137 H   0  0  0  0  0  0  0  0  0  0  0  0
    0.4425    3.4111   -3.3318 H   0  0  0  0  0  0  0  0  0  0  0  0
    0.8060    3.1541   -1.6724 H   0  0  0  0  0  0  0  0  0  0  0  0
    2.0356    2.9826   -2.9209 H   0  0  0  0  0  0  0  0  0  0  0  0
    7.8369   -0.0312    0.1683 H   0  0  0  0  0  0  0  0  0  0  0  0
    7.0004   -0.9417   -1.0470 H   0  0  0  0  0  0  0  0  0  0  0  0
    0.7117    6.7150   -5.2957 H   0  0  0  0  0  0  0  0  0  0  0  0
    1.0436    5.0485   -4.8268 H   0  0  0  0  0  0  0  0  0  0  0  0
    6.8694    1.2433   -1.7338 H   0  0  0  0  0  0  0  0  0  0  0  0
    5.3240    0.8463   -1.2512 H   0  0  0  0  0  0  0  0  0  0  0  0
    4.8808    0.6833    1.8631 H   0  0  0  0  0  0  0  0  0  0  0  0
    5.4713   -0.4620    2.9822 H   0  0  0  0  0  0  0  0  0  0  0  0
    6.6240    0.6248    2.2561 H   0  0  0  0  0  0  0  0  0  0  0  0
    0.5321    4.4029   -6.9271 H   0  0  0  0  0  0  0  0  0  0  0  0
    6.6381    4.8889    1.1007 H   0  0  0  0  0  0  0  0  0  0  0  0
    5.0933    5.1756    0.2048 H   0  0  0  0  0  0  0  0  0  0  0  0
    5.1869    3.9910    1.5092 H   0  0  0  0  0  0  0  0  0  0  0  0
    7.8214    3.1095   -1.6242 H   0  0  0  0  0  0  0  0  0  0  0  0
    6.2632    3.3902   -2.4256 H   0  0  0  0  0  0  0  0  0  0  0  0
    7.1351    4.7470   -1.6770 H   0  0  0  0  0  0  0  0  0  0  0  0
    5.6718   -3.3060   -2.7800 H   0  0  0  0  0  0  0  0  0  0  0  0
    5.4811   -1.8229   -4.5062 H   0  0  0  0  0  0  0  0  0  0  0  0
    4.2689   -3.8755   -6.4145 H   0  0  0  0  0  0  0  0  0  0  0  0
    6.9935   -3.9467   -5.0584 H   0  0  0  0  0  0  0  0  0  0  0  0
    4.5444   -5.6715   -4.4086 H   0  0  0  0  0  0  0  0  0  0  0  0
    7.1614   -5.3792   -3.3396 H   0  0  0  0  0  0  0  0  0  0  0  0
    5.5219   -5.9046   -6.4781 H   0  0  0  0  0  0  0  0  0  0  0  0
    6.6167   -2.2616   -6.6541 H   0  0  0  0  0  0  0  0  0  0  0  0
    4.2126   -0.8668   -6.4197 H   0  0  0  0  0  0  0  0  0  0  0  0
    2.8739   -2.0230   -6.1158 H   0  0  0  0  0  0  0  0  0  0  0  0
    2.7075   -1.1544   -4.0989 H   0  0  0  0  0  0  0  0  0  0  0  0
   -3.6277    0.5867   -1.8559 H   0  0  0  0  0  0  0  0  0  0  0  0
   -4.0751    0.9127   -3.5110 H   0  0  0  0  0  0  0  0  0  0  0  0
   -3.2005   -0.5855   -3.1193 H   0  0  0  0  0  0  0  0  0  0  0  0
   -3.0657    2.6629   -2.4604 H   0  0  0  0  0  0  0  0  0  0  0  0
   -2.1532    2.5505   -1.2292 H   0  0  0  0  0  0  0  0  0  0  0  0
   -1.3197    3.1427   -2.6642 H   0  0  0  0  0  0  0  0  0  0  0  0
  1 12  1  0  0  0  0
  1 82  1  1  0  0  0
  2  7  1  0  0  0  0
  2  1  1  0  0  0  0
  2 83  1  6  0  0  0
  3  2  1  0  0  0  0
  3  8  1  0  0  0  0
  3  5  1  0  0  0  0
  3 84  1  1  0  0  0
  4  1  1  0  0  0  0
  5  6  1  0  0  0  0
  5  9  1  0  0  0  0
  5 85  1  6  0  0  0
  6  4  1  0  0  0  0
  6 10  1  0  0  0  0
  6 86  1  1  0  0  0
  7 87  1  0  0  0  0
  8 88  1  0  0  0  0
  9 89  1  0  0  0  0
 10 90  1  0  0  0  0
 10 91  1  0  0  0  0
 11 10  1  0  0  0  0
 11 92  1  0  0  0  0
 13 54  1  6  0  0  0
 14 56  1  1  0  0  0
 14 13  1  0  0  0  0
 15 12  1  0  0  0  0
 15 18  1  0  0  0  0
 15 93  1  1  0  0  0
 16 57  1  1  0  0  0
 16 23  1  0  0  0  0
 16 17  1  0  0  0  0
 17 65  1  6  0  0  0
 17 34  1  0  0  0  0
 17 14  1  0  0  0  0
 18 37  1  0  0  0  0
 18 94  1  6  0  0  0
 19 95  1  6  0  0  0
 19 36  1  0  0  0  0
 20 49  1  0  0  0  0
 20 19  1  0  0  0  0
 20 96  1  1  0  0  0
 21 67  1  1  0  0  0
 21 13  1  0  0  0  0
 22 50  1  0  0  0  0
 22 29  1  0  0  0  0
 22 15  1  0  0  0  0
 22 97  1  6  0  0  0
 23 66  1  6  0  0  0
 23 42  1  0  0  0  0
 24 20  1  0  0  0  0
 24 51  1  0  0  0  0
 24 28  1  0  0  0  0
 24 98  1  6  0  0  0
 25 19  1  0  0  0  0
 26 18  1  0  0  0  0
 27 23  1  0  0  0  0
 27 80  1  0  0  0  0
 27 81  1  0  0  0  0
 28 30  1  0  0  0  0
 28 53  1  0  0  0  0
 28 99  1  1  0  0  0
 29 32  1  0  0  0  0
 29 52  1  0  0  0  0
 29100  1  1  0  0  0
 30 25  1  0  0  0  0
 30 45  1  0  0  0  0
 30101  1  6  0  0  0
 31 21  1  0  0  0  0
 31 55  1  0  0  0  0
 31102  1  6  0  0  0
 32 26  1  0  0  0  0
 32 59  1  0  0  0  0
 32103  1  6  0  0  0
 33 21  1  0  0  0  0
 33 43  1  0  0  0  0
 33 68  1  6  0  0  0
 33 35  1  0  0  0  0
 34 31  1  0  0  0  0
 34104  1  0  0  0  0
 34105  1  0  0  0  0
 35 36  1  1  0  0  0
 38 27  1  0  0  0  0
 38106  1  6  0  0  0
 38 37  1  0  0  0  0
 39 13  1  0  0  0  0
 39107  1  0  0  0  0
 39108  1  0  0  0  0
 40 14  1  0  0  0  0
 40109  1  0  0  0  0
 40110  1  0  0  0  0
 41 16  1  0  0  0  0
 41111  1  0  0  0  0
 41112  1  0  0  0  0
 42 40  1  0  0  0  0
 42113  1  0  0  0  0
 42114  1  0  0  0  0
 43 39  1  0  0  0  0
 43115  1  0  0  0  0
 43116  1  0  0  0  0
 44 45  1  0  0  0  0
 45117  1  0  0  0  0
 45118  1  0  0  0  0
 46 41  1  0  0  0  0
 46 38  1  0  0  0  0
 46119  1  0  0  0  0
 46120  1  0  0  0  0
 47 48  2  0  0  0  0
 48 60  1  0  0  0  0
 48121  1  0  0  0  0
 49122  1  0  0  0  0
 50123  1  0  0  0  0
 51124  1  0  0  0  0
 52125  1  0  0  0  0
 53126  1  0  0  0  0
 54127  1  0  0  0  0
 54128  1  0  0  0  0
 54129  1  0  0  0  0
 55130  1  0  0  0  0
 56131  1  0  0  0  0
 56132  1  0  0  0  0
 56133  1  0  0  0  0
 57134  1  0  0  0  0
 57135  1  0  0  0  0
 57136  1  0  0  0  0
 58 35  1  0  0  0  0
 58137  1  0  0  0  0
 58138  1  0  0  0  0
 59139  1  0  0  0  0
 59140  1  0  0  0  0
 60 58  1  0  0  0  0
 60141  1  0  0  0  0
 60142  1  0  0  0  0
 61 35  1  0  0  0  0
 61143  1  0  0  0  0
 61144  1  0  0  0  0
 61145  1  0  0  0  0
 62 59  1  0  0  0  0
 62146  1  0  0  0  0
 63 47  1  0  0  0  0
 63147  1  0  0  0  0
 63148  1  0  0  0  0
 63149  1  0  0  0  0
 64 47  1  0  0  0  0
 64150  1  0  0  0  0
 64151  1  0  0  0  0
 64152  1  0  0  0  0
 69 70  1  0  0  0  0
 69 74  1  0  0  0  0
 69153  1  1  0  0  0
 69 44  1  0  0  0  0
 70 71  1  0  0  0  0
 71 72  1  0  0  0  0
 71 78  1  0  0  0  0
 71154  1  1  0  0  0
 72 73  1  0  0  0  0
 72 77  1  0  0  0  0
 72155  1  6  0  0  0
 73 74  1  0  0  0  0
 73 76  1  0  0  0  0
 73156  1  1  0  0  0
 74 75  1  0  0  0  0
 74157  1  6  0  0  0
 75158  1  0  0  0  0
 76159  1  0  0  0  0
 77160  1  0  0  0  0
 78 79  1  0  0  0  0
 78161  1  0  0  0  0
 78162  1  0  0  0  0
 79163  1  0  0  0  0
 80164  1  0  0  0  0
 80165  1  0  0  0  0
 80166  1  0  0  0  0
 81167  1  0  0  0  0
 81168  1  0  0  0  0
 81169  1  0  0  0  0
M  END
>  <DRUGBANK_ID>
DB06749

>  <COMMON_NAME>
Ginsenoside Rb1

>  <CAS_NUMBER>
41753-43-9

>  <UNII>
7413S0WMH6

>  <SYNONYMS>
Arasaponin E1; GRb 1; Gynosaponin C; Gypenoside III; Panax saponin E; Pseudoginsenoside D; Sanchinoside E1

$$$$
