
 OpenBabel10282417193D

 63 67  0  0  1  0  0  0  0  0999 V2000
   -6.9047    4.6162   12.7304 C   0  0  0  0  0  0  0  0  0  0  0  0
   -2.9137   -0.4042   11.2834 C   0  0  0  0  0  0  0  0  0  0  0  0
   -4.8840    3.2269    6.3306 C   0  0  0  0  0  0  0  0  0  0  0  0
   -8.1408   -0.1288   11.0481 C   0  0  0  0  0  0  0  0  0  0  0  0
   -2.9153   -0.3217    7.6192 C   0  0  0  0  0  0  0  0  0  0  0  0
   -4.2062   -1.0935    8.0073 C   0  0  0  0  0  0  0  0  0  0  0  0
   -2.3722    3.0675    5.6375 C   0  0  0  0  0  0  0  0  0  0  0  0
   -2.7959    2.8069    6.9238 C   0  0  0  0  0  0  0  0  0  0  0  0
   -2.9805    0.6243    5.3570 C   0  0  0  0  0  0  0  0  0  0  0  0
   -4.5192    1.4754   10.2804 C   0  0  0  0  0  0  0  0  0  0  0  0
   -7.5693    1.8136    9.5639 C   0  0  0  0  0  0  0  0  0  0  0  0
   -5.4365   -1.5161   12.2459 C   0  0  0  0  0  0  0  0  0  0  0  0
   -6.3971    3.2838   12.3446 C   0  0  0  0  0  0  0  0  0  0  0  0
   -2.9213   -1.6615   12.0017 C   0  0  0  0  0  0  0  0  0  0  0  0
   -3.4264    0.6900    6.6104 C   0  0  0  0  0  0  0  0  0  0  0  0
   -3.2107    1.9388    4.7967 C   0  0  0  0  0  0  0  0  0  0  0  0
   -5.2483    0.0241    8.4548 C   0  0  1  0  0  0  0  0  0  0  0  0
   -5.7447    0.2451    9.8339 C   0  0  1  0  0  0  0  0  0  0  0  0
   -6.4320    2.4246    8.7437 C   0  0  1  0  0  0  0  0  0  0  0  0
   -5.7267   -0.0666   12.8211 C   0  0  0  0  0  0  0  0  0  0  0  0
   -4.8909    1.9337   11.6279 C   0  0  2  0  0  0  0  0  0  0  0  0
   -5.4308    1.4324    7.8199 C   0  0  2  0  0  0  0  0  0  0  0  0
   -4.1333    2.0322    7.0933 C   0  0  2  0  0  0  0  0  0  0  0  0
   -6.9704    0.7743   10.5557 C   0  0  2  0  0  0  0  0  0  0  0  0
   -6.1759    1.1593   11.8946 C   0  0  1  0  0  0  0  0  0  0  0  0
   -6.9794    2.1568   12.6252 N   0  0  0  0  0  0  0  0  0  0  0  0
   -1.8630   -2.2648   12.1124 O   0  0  0  0  0  0  0  0  0  0  0  0
   -4.0543    2.1495    3.9375 O   0  0  0  0  0  0  0  0  0  0  0  0
   -6.4737    3.7931    8.4600 O   0  0  0  0  0  0  0  0  0  0  0  0
   -5.4353    0.1328   14.0063 O   0  0  0  0  0  0  0  0  0  0  0  0
   -4.1250   -2.1305   12.4321 O   0  0  0  0  0  0  0  0  0  0  0  0
   -5.2461    3.2974   11.6411 O   0  0  0  0  0  0  0  0  0  0  0  0
   -4.3556    0.0806    9.0344 H   0  0  0  0  0  0  0  0  0  0  0  0
   -5.9149   -0.8121    9.9438 H   0  0  0  0  0  0  0  0  0  0  0  0
   -5.9588    2.6819    9.6467 H   0  0  0  0  0  0  0  0  0  0  0  0
   -4.0461    1.8155   12.3047 H   0  0  0  0  0  0  0  0  0  0  0  0
   -6.0930    1.1593    6.9908 H   0  0  0  0  0  0  0  0  0  0  0  0
   -7.8454    4.8086   12.2090 H   0  0  0  0  0  0  0  0  0  0  0  0
   -6.1885    5.4060   12.4842 H   0  0  0  0  0  0  0  0  0  0  0  0
   -7.0676    4.5969   13.8078 H   0  0  0  0  0  0  0  0  0  0  0  0
   -2.4091    0.4579   11.7267 H   0  0  0  0  0  0  0  0  0  0  0  0
   -2.5875   -0.5582   10.2606 H   0  0  0  0  0  0  0  0  0  0  0  0
   -3.9519   -0.1991   11.2546 H   0  0  0  0  0  0  0  0  0  0  0  0
   -5.6416    3.8272    6.7835 H   0  0  0  0  0  0  0  0  0  0  0  0
   -4.2726    4.1216    6.1095 H   0  0  0  0  0  0  0  0  0  0  0  0
   -5.4471    2.8079    5.5191 H   0  0  0  0  0  0  0  0  0  0  0  0
   -9.0339    0.4876   11.2290 H   0  0  0  0  0  0  0  0  0  0  0  0
   -8.4054   -0.9319   10.3596 H   0  0  0  0  0  0  0  0  0  0  0  0
   -7.9635   -0.5964   12.0257 H   0  0  0  0  0  0  0  0  0  0  0  0
   -2.1287   -0.9881    7.2480 H   0  0  0  0  0  0  0  0  0  0  0  0
   -2.4038    0.2172    8.4405 H   0  0  0  0  0  0  0  0  0  0  0  0
   -4.3910   -1.8374    7.2289 H   0  0  0  0  0  0  0  0  0  0  0  0
   -4.1116   -1.7771    8.8780 H   0  0  0  0  0  0  0  0  0  0  0  0
   -2.1059    3.2386    4.6011 H   0  0  0  0  0  0  0  0  0  0  0  0
   -2.3020    3.2441    7.7849 H   0  0  0  0  0  0  0  0  0  0  0  0
   -2.2011   -0.0220    5.0031 H   0  0  0  0  0  0  0  0  0  0  0  0
   -3.4902    1.2094   10.0356 H   0  0  0  0  0  0  0  0  0  0  0  0
   -4.3618    2.3657    9.6487 H   0  0  0  0  0  0  0  0  0  0  0  0
   -8.3079    1.3523    8.9005 H   0  0  0  0  0  0  0  0  0  0  0  0
   -8.0862    2.5976   10.1301 H   0  0  0  0  0  0  0  0  0  0  0  0
   -6.1719   -2.1796   12.7142 H   0  0  0  0  0  0  0  0  0  0  0  0
   -5.6933   -1.7083   11.2248 H   0  0  0  0  0  0  0  0  0  0  0  0
   -5.5230    4.0501    8.5542 H   0  0  0  0  0  0  0  0  0  0  0  0
  1 38  1  0  0  0  0
  1 39  1  0  0  0  0
  1 40  1  0  0  0  0
  2 41  1  0  0  0  0
  2 42  1  0  0  0  0
  2 43  1  0  0  0  0
  3 44  1  0  0  0  0
  3 45  1  0  0  0  0
  3 46  1  0  0  0  0
  4 47  1  0  0  0  0
  4 48  1  0  0  0  0
  4 49  1  0  0  0  0
  5 50  1  0  0  0  0
  5 51  1  0  0  0  0
  6  5  1  0  0  0  0
  6 52  1  0  0  0  0
  6 53  1  0  0  0  0
  7 54  1  0  0  0  0
  8  7  2  0  0  0  0
  8 55  1  0  0  0  0
  9 56  1  0  0  0  0
 10 57  1  0  0  0  0
 10 58  1  0  0  0  0
 11 59  1  0  0  0  0
 11 60  1  0  0  0  0
 12 61  1  0  0  0  0
 12 62  1  0  0  0  0
 13  1  1  0  0  0  0
 14  2  1  0  0  0  0
 15  5  1  0  0  0  0
 15  9  2  0  0  0  0
 16  7  1  0  0  0  0
 16  9  1  0  0  0  0
 17  6  1  0  0  0  0
 17 33  1  6  0  0  0
 18 10  1  0  0  0  0
 18 17  1  0  0  0  0
 18 34  1  6  0  0  0
 19 11  1  0  0  0  0
 19 29  1  0  0  0  0
 19 35  1  1  0  0  0
 20 12  1  0  0  0  0
 21 10  1  0  0  0  0
 21 36  1  1  0  0  0
 22 17  1  0  0  0  0
 22 19  1  0  0  0  0
 22 37  1  1  0  0  0
 23  8  1  0  0  0  0
 23 15  1  0  0  0  0
 23 22  1  0  0  0  0
 23  3  1  6  0  0  0
 24 11  1  0  0  0  0
 24 18  1  0  0  0  0
 24  4  1  1  0  0  0
 25 21  1  0  0  0  0
 25 24  1  0  0  0  0
 25 20  1  1  0  0  0
 26 13  2  0  0  0  0
 26 25  1  0  0  0  0
 27 14  2  0  0  0  0
 28 16  2  0  0  0  0
 29 63  1  0  0  0  0
 30 20  2  0  0  0  0
 31 12  1  0  0  0  0
 31 14  1  0  0  0  0
 32 13  1  0  0  0  0
 32 21  1  0  0  0  0
M  END
>  <DRUGBANK_ID>
DB11921

>  <COMMON_NAME>
Deflazacort

>  <CAS_NUMBER>
14484-47-0

>  <UNII>
KR5YZ6AE4B

>  <SYNONYMS>
Deflazacort

$$$$
