
 OpenBabel10282417133D

 70 74  0  0  0  0  0  0  0  0999 V2000
    0.9836    0.0121    0.1325 C   0  0  0  0  0  0  0  0  0  0  0  0
    0.5647    0.1600   -1.3205 C   0  0  0  0  0  0  0  0  0  0  0  0
    1.0562   -0.9186   -2.1139 O   0  0  0  0  0  0  0  0  0  0  0  0
    2.4107   -1.0024   -2.2360 C   0  0  0  0  0  0  0  0  0  0  0  0
    3.2237   -0.1616   -1.8447 O   0  0  0  0  0  0  0  0  0  0  0  0
    2.7801   -2.2689   -2.9357 C   0  0  0  0  0  0  0  0  0  0  0  0
    2.0531   -3.3364   -2.3328 O   0  0  0  0  0  0  0  0  0  0  0  0
    2.5655   -3.6429   -1.0676 N   0  0  0  0  0  0  0  0  0  0  0  0
    2.2442   -4.8488   -0.6689 C   0  0  0  0  0  0  0  0  0  0  0  0
    2.6475   -5.2774    0.6934 C   0  0  0  0  0  0  0  0  0  0  0  0
    2.5613   -4.3055    1.6759 C   0  0  0  0  0  0  0  0  0  0  0  0
    2.9874   -4.6180    2.9544 C   0  0  0  0  0  0  0  0  0  0  0  0
    3.4876   -5.8890    3.2094 C   0  0  0  0  0  0  0  0  0  0  0  0
    3.5165   -6.8111    2.1701 C   0  0  0  0  0  0  0  0  0  0  0  0
    3.0917   -6.5424    0.9114 N   0  0  0  0  0  0  0  0  0  0  0  0
    1.5358   -5.8486   -1.5532 C   0  0  0  0  0  0  0  0  0  0  0  0
    0.1019   -5.5717   -2.0199 C   0  0  0  0  0  0  0  0  0  0  0  0
    0.3384   -6.5964   -0.9613 C   0  0  0  0  0  0  0  0  0  0  0  0
    2.5216   -6.4643   -2.5422 C   0  0  0  0  0  0  0  0  0  0  0  0
    3.0246   -5.6513   -3.5827 C   0  0  0  0  0  0  0  0  0  0  0  0
    4.2147   -5.8726   -4.2556 C   0  0  0  0  0  0  0  0  0  0  0  0
    4.7991   -7.0937   -4.0017 C   0  0  0  0  0  0  0  0  0  0  0  0
    5.8998   -7.6966   -4.5495 N   0  0  0  0  0  0  0  0  0  0  0  0
    6.7061   -7.0778   -5.5746 C   0  0  0  0  0  0  0  0  0  0  0  0
    6.0090   -8.9369   -3.9776 C   0  0  0  0  0  0  0  0  0  0  0  0
    7.0428   -9.9481   -4.3274 C   0  0  0  0  0  0  0  0  0  0  0  0
    7.8979  -10.2863   -3.2041 N   0  0  0  0  0  0  0  0  0  0  0  0
    7.9958  -11.5826   -2.7454 C   0  0  0  0  0  0  0  0  0  0  0  0
    8.1072  -12.6482   -3.6385 C   0  0  0  0  0  0  0  0  0  0  0  0
    8.3057  -13.9515   -3.1863 C   0  0  0  0  0  0  0  0  0  0  0  0
    8.3651  -14.2225   -1.8168 C   0  0  0  0  0  0  0  0  0  0  0  0
    8.2304  -13.1641   -0.9126 C   0  0  0  0  0  0  0  0  0  0  0  0
    7.9909  -11.8644   -1.3769 C   0  0  0  0  0  0  0  0  0  0  0  0
    8.5081  -15.6419   -1.3592 C   0  0  0  0  0  0  0  0  0  0  0  0
    8.5558  -15.9570   -0.0362 N   0  0  0  0  0  0  0  0  0  0  0  0
    8.5675  -16.5841   -2.2452 N   0  0  0  0  0  0  0  0  0  0  0  0
    5.0732   -9.1232   -3.0615 N   0  0  0  0  0  0  0  0  0  0  0  0
    4.3013   -8.0008   -3.0757 C   0  0  0  0  0  0  0  0  0  0  0  0
    3.1748   -7.6783   -2.3024 C   0  0  0  0  0  0  0  0  0  0  0  0
    0.6331   -0.9419    0.5396 H   0  0  0  0  0  0  0  0  0  0  0  0
    0.5845    0.8330    0.7310 H   0  0  0  0  0  0  0  0  0  0  0  0
    2.0713    0.0138    0.2461 H   0  0  0  0  0  0  0  0  0  0  0  0
   -0.5283    0.1233   -1.3830 H   0  0  0  0  0  0  0  0  0  0  0  0
    0.8884    1.1105   -1.7547 H   0  0  0  0  0  0  0  0  0  0  0  0
    2.4757   -2.1869   -3.9868 H   0  0  0  0  0  0  0  0  0  0  0  0
    3.8638   -2.4380   -2.9169 H   0  0  0  0  0  0  0  0  0  0  0  0
    2.1702   -3.3243    1.4323 H   0  0  0  0  0  0  0  0  0  0  0  0
    2.9380   -3.8636    3.7317 H   0  0  0  0  0  0  0  0  0  0  0  0
    3.8481   -6.1489    4.1987 H   0  0  0  0  0  0  0  0  0  0  0  0
    3.9028   -7.8147    2.3384 H   0  0  0  0  0  0  0  0  0  0  0  0
   -0.3742   -4.6392   -1.7340 H   0  0  0  0  0  0  0  0  0  0  0  0
   -0.2308   -5.9361   -2.9864 H   0  0  0  0  0  0  0  0  0  0  0  0
    0.1394   -7.6309   -1.2131 H   0  0  0  0  0  0  0  0  0  0  0  0
    0.0182   -6.3497    0.0490 H   0  0  0  0  0  0  0  0  0  0  0  0
    2.5219   -4.7308   -3.8323 H   0  0  0  0  0  0  0  0  0  0  0  0
    4.6287   -5.1381   -4.9348 H   0  0  0  0  0  0  0  0  0  0  0  0
    6.0538   -6.7886   -6.4053 H   0  0  0  0  0  0  0  0  0  0  0  0
    7.1787   -6.1881   -5.1481 H   0  0  0  0  0  0  0  0  0  0  0  0
    7.4717   -7.7547   -5.9458 H   0  0  0  0  0  0  0  0  0  0  0  0
    6.4999  -10.8145   -4.7262 H   0  0  0  0  0  0  0  0  0  0  0  0
    7.6935   -9.6046   -5.1327 H   0  0  0  0  0  0  0  0  0  0  0  0
    8.1732   -9.5298   -2.5921 H   0  0  0  0  0  0  0  0  0  0  0  0
    8.0837  -12.4652   -4.7081 H   0  0  0  0  0  0  0  0  0  0  0  0
    8.4287  -14.7462   -3.9170 H   0  0  0  0  0  0  0  0  0  0  0  0
    8.3103  -13.3153    0.1563 H   0  0  0  0  0  0  0  0  0  0  0  0
    7.7834  -11.0779   -0.6541 H   0  0  0  0  0  0  0  0  0  0  0  0
    8.5589  -16.9175    0.2734 H   0  0  0  0  0  0  0  0  0  0  0  0
    8.4129  -15.2641    0.6840 H   0  0  0  0  0  0  0  0  0  0  0  0
    8.6393  -17.4933   -1.7895 H   0  0  0  0  0  0  0  0  0  0  0  0
    2.8654   -8.3345   -1.4954 H   0  0  0  0  0  0  0  0  0  0  0  0
  1  2  1  0  0  0  0
  1 40  1  0  0  0  0
  1 41  1  0  0  0  0
  1 42  1  0  0  0  0
  2  3  1  0  0  0  0
  2 43  1  0  0  0  0
  2 44  1  0  0  0  0
  3  4  1  0  0  0  0
  4  5  2  0  0  0  0
  4  6  1  0  0  0  0
  6  7  1  0  0  0  0
  6 45  1  0  0  0  0
  6 46  1  0  0  0  0
  7  8  1  0  0  0  0
  8  9  2  0  0  0  0
  9 10  1  0  0  0  0
  9 16  1  0  0  0  0
 10 11  2  0  0  0  0
 10 15  1  0  0  0  0
 11 12  1  0  0  0  0
 11 47  1  0  0  0  0
 12 13  2  0  0  0  0
 12 48  1  0  0  0  0
 13 14  1  0  0  0  0
 13 49  1  0  0  0  0
 14 15  2  0  0  0  0
 14 50  1  0  0  0  0
 16 17  1  0  0  0  0
 16 18  1  0  0  0  0
 16 19  1  0  0  0  0
 17 18  1  0  0  0  0
 17 51  1  0  0  0  0
 17 52  1  0  0  0  0
 18 53  1  0  0  0  0
 18 54  1  0  0  0  0
 19 20  2  0  0  0  0
 19 39  1  0  0  0  0
 20 21  1  0  0  0  0
 20 55  1  0  0  0  0
 21 22  2  0  0  0  0
 21 56  1  0  0  0  0
 22 23  1  0  0  0  0
 22 38  1  0  0  0  0
 23 24  1  0  0  0  0
 23 25  1  0  0  0  0
 24 57  1  0  0  0  0
 24 58  1  0  0  0  0
 24 59  1  0  0  0  0
 25 26  1  0  0  0  0
 25 37  2  0  0  0  0
 26 27  1  0  0  0  0
 26 60  1  0  0  0  0
 26 61  1  0  0  0  0
 27 28  1  0  0  0  0
 27 62  1  0  0  0  0
 28 29  2  0  0  0  0
 28 33  1  0  0  0  0
 29 30  1  0  0  0  0
 29 63  1  0  0  0  0
 30 31  2  0  0  0  0
 30 64  1  0  0  0  0
 31 32  1  0  0  0  0
 31 34  1  0  0  0  0
 32 33  2  0  0  0  0
 32 65  1  0  0  0  0
 33 66  1  0  0  0  0
 34 35  1  0  0  0  0
 34 36  2  0  0  0  0
 35 67  1  0  0  0  0
 35 68  1  0  0  0  0
 36 69  1  0  0  0  0
 37 38  1  0  0  0  0
 38 39  2  0  0  0  0
 39 70  1  0  0  0  0
M  END
>  <DRUGBANK_ID>
DB04107

>  <SECONDARY_ACCESSION_NUMBERS>
EXPT02999

>  <COMMON_NAME>
[(1-{2[(4-Carbamimidoyl-Phenylamino)-Methyl]-1-Methyl-1h-Benzoimidazol-5-Yl}-Cyclopropyl)-Pyridin-2-Yl-Methyleneaminooxy]-Acetic Acid Ethyl Ester

$$$$
