DI4
 OpenBabel10282417163D

 67 68  0  0  0  0  0  0  0  0999 V2000
   -0.7856   -1.3294    1.4887 B   0  0  0  0  0  0  0  0  0  0  0  0
    0.1343   -1.3498    0.1797 C   0  0  2  0  0  0  0  0  0  0  0  0
    0.8943   -0.0377    0.0741 C   0  0  0  0  0  0  0  0  0  0  0  0
    1.0993    0.4969   -1.3340 C   0  0  0  0  0  0  0  0  0  0  0  0
   -0.0541    1.4168   -1.6997 C   0  0  0  0  0  0  0  0  0  0  0  0
   -0.1067    2.5776   -0.7197 C   0  0  0  0  0  0  0  0  0  0  0  0
    1.1992    3.3529   -0.7822 C   0  0  0  0  0  0  0  0  0  0  0  0
   -1.3886   -2.8668   -3.1181 C   0  0  2  0  0  0  0  0  0  0  0  0
   -0.5147   -2.6870   -1.8875 C   0  0  0  0  0  0  0  0  0  0  0  0
   -2.5645   -1.9299   -3.1042 C   0  0  0  0  0  0  0  0  0  0  0  0
   -3.5328   -2.5679   -4.1456 C   0  0  0  0  0  0  0  0  0  0  0  0
   -3.2905   -4.0702   -3.9776 C   0  0  0  0  0  0  0  0  0  0  0  0
   -1.5851   -5.3916   -2.4223 C   0  0  0  0  0  0  0  0  0  0  0  0
   -1.5094   -7.7676   -3.1363 C   0  0  0  0  0  0  0  0  0  0  0  0
   -2.3806   -6.6828   -2.5242 C   0  0  1  0  0  0  0  0  0  0  0  0
   -4.2441   -7.2362   -0.8799 C   0  0  0  0  0  0  0  0  0  0  0  0
   -4.6901   -7.6674    0.5077 C   0  0  0  0  0  0  0  0  0  0  0  0
    1.2232   -7.1103   -0.6954 C   0  0  0  0  0  0  0  0  0  0  0  0
    1.5369   -8.3533   -0.3493 C   0  0  0  0  0  0  0  0  0  0  0  0
    0.9272   -9.4237   -0.9579 C   0  0  0  0  0  0  0  0  0  0  0  0
    0.0538   -9.2400   -1.9936 C   0  0  0  0  0  0  0  0  0  0  0  0
   -0.2889   -7.9925   -2.2588 C   0  0  0  0  0  0  0  0  0  0  0  0
    0.3961   -6.8523   -1.7761 C   0  0  0  0  0  0  0  0  0  0  0  0
   -0.7109   -1.5237   -1.0104 N   0  0  0  0  0  0  0  0  0  0  0  0
    1.3976    3.8699   -2.1439 N   0  0  0  0  0  0  0  0  0  0  0  0
   -2.0491   -4.1852   -3.1223 N   0  0  0  0  0  0  0  0  0  0  0  0
   -2.8120   -7.0998   -1.1823 N   0  0  0  0  0  0  0  0  0  0  0  0
   -1.2743   -2.6175    2.0820 O   0  0  0  0  0  0  0  0  0  0  0  0
   -1.1591   -0.0223    2.1226 O   0  0  0  0  0  0  0  0  0  0  0  0
    0.3855   -3.5423   -1.6169 O   0  0  0  0  0  0  0  0  0  0  0  0
   -0.5187   -5.3551   -1.7318 O   0  0  0  0  0  0  0  0  0  0  0  0
   -5.1092   -6.9937   -1.7787 O   0  0  0  0  0  0  0  0  0  0  0  0
    0.8296   -2.1604    0.2450 H   0  0  0  0  0  0  0  0  0  0  0  0
   -0.7258   -2.7124   -3.9438 H   0  0  0  0  0  0  0  0  0  0  0  0
   -3.2398   -6.5245   -3.1419 H   0  0  0  0  0  0  0  0  0  0  0  0
    0.8573    0.7795    0.7639 H   0  0  0  0  0  0  0  0  0  0  0  0
    1.7062   -0.6853    0.3315 H   0  0  0  0  0  0  0  0  0  0  0  0
    2.0186    1.0427   -1.3779 H   0  0  0  0  0  0  0  0  0  0  0  0
    1.1363   -0.3202   -2.0238 H   0  0  0  0  0  0  0  0  0  0  0  0
    0.0903    1.7931   -2.6909 H   0  0  0  0  0  0  0  0  0  0  0  0
   -0.9734    0.8711   -1.6557 H   0  0  0  0  0  0  0  0  0  0  0  0
   -0.9186    3.2252   -0.9771 H   0  0  0  0  0  0  0  0  0  0  0  0
   -0.2510    2.2013    0.2715 H   0  0  0  0  0  0  0  0  0  0  0  0
    1.1622    4.1700   -0.0923 H   0  0  0  0  0  0  0  0  0  0  0  0
    2.0112    2.7053   -0.5247 H   0  0  0  0  0  0  0  0  0  0  0  0
   -3.0027   -1.8172   -2.1346 H   0  0  0  0  0  0  0  0  0  0  0  0
   -2.2744   -0.9440   -3.4023 H   0  0  0  0  0  0  0  0  0  0  0  0
   -4.5545   -2.2890   -3.9931 H   0  0  0  0  0  0  0  0  0  0  0  0
   -3.2919   -2.2495   -5.1383 H   0  0  0  0  0  0  0  0  0  0  0  0
   -4.1291   -4.5601   -3.5285 H   0  0  0  0  0  0  0  0  0  0  0  0
   -3.1330   -4.5325   -4.9296 H   0  0  0  0  0  0  0  0  0  0  0  0
   -2.0694   -8.6766   -3.2081 H   0  0  0  0  0  0  0  0  0  0  0  0
   -1.1954   -7.4641   -4.1131 H   0  0  0  0  0  0  0  0  0  0  0  0
   -5.3034   -6.9038    0.9386 H   0  0  0  0  0  0  0  0  0  0  0  0
   -5.2501   -8.5764    0.4359 H   0  0  0  0  0  0  0  0  0  0  0  0
   -3.8309   -7.8257    1.1254 H   0  0  0  0  0  0  0  0  0  0  0  0
    1.6169   -6.2925   -0.1288 H   0  0  0  0  0  0  0  0  0  0  0  0
    2.2710   -8.5229    0.4104 H   0  0  0  0  0  0  0  0  0  0  0  0
    1.1390  -10.4154   -0.6163 H   0  0  0  0  0  0  0  0  0  0  0  0
   -0.3315  -10.0628   -2.5589 H   0  0  0  0  0  0  0  0  0  0  0  0
    0.2851   -5.8792   -2.2068 H   0  0  0  0  0  0  0  0  0  0  0  0
   -1.4334   -0.8373   -1.2276 H   0  0  0  0  0  0  0  0  0  0  0  0
    2.2739    4.3902   -2.1858 H   0  0  0  0  0  0  0  0  0  0  0  0
    1.4328    3.0910   -2.8015 H   0  0  0  0  0  0  0  0  0  0  0  0
   -2.1176   -7.2945   -0.4609 H   0  0  0  0  0  0  0  0  0  0  0  0
   -0.9345   -3.3850    1.5385 H   0  0  0  0  0  0  0  0  0  0  0  0
   -0.7519    0.7287    1.6028 H   0  0  0  0  0  0  0  0  0  0  0  0
  1 28  1  0  0  0  0
  1 29  1  0  0  0  0
  2 24  1  0  0  0  0
  2 33  1  1  0  0  0
  2  3  1  0  0  0  0
  2  1  1  0  0  0  0
  3  4  1  0  0  0  0
  3 36  1  0  0  0  0
  3 37  1  0  0  0  0
  4  5  1  0  0  0  0
  4 38  1  0  0  0  0
  4 39  1  0  0  0  0
  5  6  1  0  0  0  0
  5 40  1  0  0  0  0
  5 41  1  0  0  0  0
  6  7  1  0  0  0  0
  6 42  1  0  0  0  0
  6 43  1  0  0  0  0
  7 25  1  0  0  0  0
  7 44  1  0  0  0  0
  7 45  1  0  0  0  0
  8  9  1  0  0  0  0
  8 10  1  0  0  0  0
  8 26  1  0  0  0  0
  8 34  1  6  0  0  0
  9 24  1  0  0  0  0
  9 30  2  0  0  0  0
 10 11  1  0  0  0  0
 10 46  1  0  0  0  0
 10 47  1  0  0  0  0
 11 12  1  0  0  0  0
 11 48  1  0  0  0  0
 11 49  1  0  0  0  0
 12 26  1  0  0  0  0
 12 50  1  0  0  0  0
 12 51  1  0  0  0  0
 13 15  1  0  0  0  0
 13 26  1  0  0  0  0
 13 31  2  0  0  0  0
 14 15  1  0  0  0  0
 14 22  1  0  0  0  0
 14 52  1  0  0  0  0
 14 53  1  0  0  0  0
 15 27  1  0  0  0  0
 15 35  1  6  0  0  0
 16 17  1  0  0  0  0
 16 27  1  0  0  0  0
 16 32  2  0  0  0  0
 17 54  1  0  0  0  0
 17 55  1  0  0  0  0
 17 56  1  0  0  0  0
 18 19  2  0  0  0  0
 18 23  1  0  0  0  0
 18 57  1  0  0  0  0
 19 20  1  0  0  0  0
 19 58  1  0  0  0  0
 20 21  2  0  0  0  0
 20 59  1  0  0  0  0
 21 22  1  0  0  0  0
 21 60  1  0  0  0  0
 22 23  2  0  0  0  0
 23 61  1  0  0  0  0
 24 62  1  0  0  0  0
 25 63  1  0  0  0  0
 25 64  1  0  0  0  0
 27 65  1  0  0  0  0
 28 66  1  0  0  0  0
 29 67  1  0  0  0  0
M  END
>  <DRUGBANK_ID>
DB07659

>  <COMMON_NAME>
AC-(D)PHE-PRO-BOROHOMOLYS-OH

$$$$
