
 OpenBabel10282417163D

 31 32  0  0  0  0  0  0  0  0999 V2000
    1.0342   -0.0240    0.0268 C   0  0  0  0  0  0  0  0  0  0  0  0
    5.8206   -5.1265   -8.0577 C   0  0  0  0  0  0  0  0  0  0  0  0
    4.0912   -6.1970   -6.7775 C   0  0  0  0  0  0  0  0  0  0  0  0
    5.3678   -3.8683   -7.6290 C   0  0  0  0  0  0  0  0  0  0  0  0
    3.6297   -4.9527   -6.3418 C   0  0  0  0  0  0  0  0  0  0  0  0
    2.2105   -1.2794   -2.2961 C   0  0  0  0  0  0  0  0  0  0  0  0
    0.0730   -1.9835   -2.7958 C   0  0  0  0  0  0  0  0  0  0  0  0
    5.1962   -6.3011   -7.6251 C   0  0  0  0  0  0  0  0  0  0  0  0
    0.9227   -1.4381   -1.8525 C   0  0  0  0  0  0  0  0  0  0  0  0
    4.2640   -3.7875   -6.7714 C   0  0  0  0  0  0  0  0  0  0  0  0
    1.7124   -2.0396   -4.3956 C   0  0  0  0  0  0  0  0  0  0  0  0
    5.5828   -7.5376   -8.1141 N   0  0  0  0  0  0  0  0  0  0  0  0
    2.6199   -1.5915   -3.5403 N   0  0  0  0  0  0  0  0  0  0  0  0
    0.4354   -2.2975   -4.0748 N   0  0  0  0  0  0  0  0  0  0  0  0
    2.1398   -2.5739   -5.6206 N   0  0  0  0  0  0  0  0  0  0  0  0
    3.4608   -1.4097   -7.4333 O   0  0  0  0  0  0  0  0  0  0  0  0
    4.6091   -1.7726   -5.2154 O   0  0  0  0  0  0  0  0  0  0  0  0
    0.4737   -1.1848   -0.5943 O   0  0  0  0  0  0  0  0  0  0  0  0
    3.6612   -2.1862   -6.2317 S   0  0  0  0  0  0  0  0  0  0  0  0
    0.6612    0.0255    1.0553 H   0  0  0  0  0  0  0  0  0  0  0  0
    0.6999    0.8774   -0.4971 H   0  0  0  0  0  0  0  0  0  0  0  0
    2.1271   -0.0489    0.0870 H   0  0  0  0  0  0  0  0  0  0  0  0
    6.6721   -5.1855   -8.7323 H   0  0  0  0  0  0  0  0  0  0  0  0
    3.5772   -7.0917   -6.4381 H   0  0  0  0  0  0  0  0  0  0  0  0
    5.8852   -2.9716   -7.9638 H   0  0  0  0  0  0  0  0  0  0  0  0
    2.7814   -4.9177   -5.6662 H   0  0  0  0  0  0  0  0  0  0  0  0
    3.0107   -0.9210   -1.6604 H   0  0  0  0  0  0  0  0  0  0  0  0
   -0.9645   -2.1891   -2.5378 H   0  0  0  0  0  0  0  0  0  0  0  0
    5.1839   -8.3807   -7.7214 H   0  0  0  0  0  0  0  0  0  0  0  0
    6.4396   -7.6306   -8.6433 H   0  0  0  0  0  0  0  0  0  0  0  0
    1.3944   -2.5971   -6.3118 H   0  0  0  0  0  0  0  0  0  0  0  0
  1 20  1  0  0  0  0
  1 21  1  0  0  0  0
  1 22  1  0  0  0  0
  2 23  1  0  0  0  0
  3 24  1  0  0  0  0
  4  2  1  0  0  0  0
  4 25  1  0  0  0  0
  5  3  2  0  0  0  0
  5 26  1  0  0  0  0
  6 27  1  0  0  0  0
  7 28  1  0  0  0  0
  8  2  2  0  0  0  0
  8  3  1  0  0  0  0
  9  6  2  0  0  0  0
  9  7  1  0  0  0  0
 10  4  2  0  0  0  0
 10  5  1  0  0  0  0
 12  8  1  0  0  0  0
 12 29  1  0  0  0  0
 12 30  1  0  0  0  0
 13  6  1  0  0  0  0
 13 11  2  0  0  0  0
 14  7  2  0  0  0  0
 14 11  1  0  0  0  0
 15 11  1  0  0  0  0
 15 31  1  0  0  0  0
 18  1  1  0  0  0  0
 18  9  1  0  0  0  0
 19 10  1  0  0  0  0
 19 15  1  0  0  0  0
 19 16  2  0  0  0  0
 19 17  2  0  0  0  0
M  END
>  <DRUGBANK_ID>
DB06821

>  <COMMON_NAME>
Sulfameter

>  <CAS_NUMBER>
651-06-9

>  <UNII>
3L179F09D6

>  <SYNONYMS>
Sulfa-5-methoxypyrimidine; Sulfameter; Sulfamethoxydiazine; Sulfametoxidiazina; Sulfametoxydiazine; Sulfametoxydiazinum

$$$$
