84098
 OpenBabel10282417203D

 36 38  0  0  0  0  0  0  0  0999 V2000
    0.1353   -0.1462    0.0045 S   0  0  0  0  0  0  0  0  0  0  0  0
   -2.9978    4.1099   -2.6701 F   0  0  0  0  0  0  0  0  0  0  0  0
   -1.3104    4.0557   -4.0502 F   0  0  0  0  0  0  0  0  0  0  0  0
   -2.3707    2.2270   -3.5579 F   0  0  0  0  0  0  0  0  0  0  0  0
    3.4620   -0.7497    2.1580 O   0  0  0  0  0  0  0  0  0  0  0  0
    2.5525    3.6096    1.7322 O   0  0  0  0  0  0  0  0  0  0  0  0
   -0.5008   -0.9043   -1.0807 O   0  0  0  0  0  0  0  0  0  0  0  0
   -0.0761   -0.3622    1.3936 O   0  0  0  0  0  0  0  0  0  0  0  0
    2.7164   -0.4767    3.3053 N   0  0  0  0  0  0  0  0  0  0  0  0
    4.0649    0.2353   -0.3545 C   0  0  0  0  0  0  0  0  0  0  0  0
    4.7613    1.2058   -1.2336 C   0  0  0  0  0  0  0  0  0  0  0  0
    3.3254    1.3280   -1.4306 C   0  0  0  0  0  0  0  0  0  0  0  0
    3.5307    0.3789    1.3200 C   0  0  0  0  0  0  0  0  0  0  0  0
    2.6393    1.3181    1.8855 C   0  0  0  0  0  0  0  0  0  0  0  0
    2.0699    2.5486    1.3388 C   0  0  0  0  0  0  0  0  0  0  0  0
    2.2929    0.7785    3.1626 C   0  0  0  0  0  0  0  0  0  0  0  0
    0.8937    2.6306    0.2954 C   0  0  0  0  0  0  0  0  0  0  0  0
    0.0969    1.6121   -0.3195 C   0  0  0  0  0  0  0  0  0  0  0  0
    0.6621    3.9448   -0.2198 C   0  0  0  0  0  0  0  0  0  0  0  0
   -0.7400    1.8861   -1.4119 C   0  0  0  0  0  0  0  0  0  0  0  0
   -0.9659    3.1736   -1.8635 C   0  0  0  0  0  0  0  0  0  0  0  0
   -0.3055    4.2149   -1.2163 C   0  0  0  0  0  0  0  0  0  0  0  0
    1.7197   -0.4976   -0.3769 C   0  0  0  0  0  0  0  0  0  0  0  0
   -1.9032    3.3911   -3.0240 C   0  0  0  0  0  0  0  0  0  0  0  0
    4.1117   -0.8249   -0.6757 H   0  0  0  0  0  0  0  0  0  0  0  0
    5.2380    1.9995   -0.6985 H   0  0  0  0  0  0  0  0  0  0  0  0
    5.2493    0.8017   -2.1164 H   0  0  0  0  0  0  0  0  0  0  0  0
    2.8112    0.9994   -2.3471 H   0  0  0  0  0  0  0  0  0  0  0  0
    2.8576    2.2502   -1.1137 H   0  0  0  0  0  0  0  0  0  0  0  0
    1.6826    1.2224    3.9474 H   0  0  0  0  0  0  0  0  0  0  0  0
    1.2641    4.7996    0.1088 H   0  0  0  0  0  0  0  0  0  0  0  0
   -1.2180    1.0584   -1.9413 H   0  0  0  0  0  0  0  0  0  0  0  0
   -0.5307    5.2424   -1.5073 H   0  0  0  0  0  0  0  0  0  0  0  0
    2.1361   -1.2826    0.2332 H   0  0  0  0  0  0  0  0  0  0  0  0
    1.9312   -0.6078   -1.4330 H   0  0  0  0  0  0  0  0  0  0  0  0
    2.0328    0.4828   -0.0952 H   0  0  0  0  0  0  0  0  0  0  0  0
  1  7  2  0  0  0  0
  1  8  2  0  0  0  0
  1 18  1  0  0  0  0
  1 23  1  0  0  0  0
  2 24  1  0  0  0  0
  3 24  1  0  0  0  0
  4 24  1  0  0  0  0
  5  9  1  0  0  0  0
  5 13  1  0  0  0  0
  6 15  2  0  0  0  0
  9 16  2  0  0  0  0
 10 11  1  0  0  0  0
 10 12  1  0  0  0  0
 10 13  1  0  0  0  0
 10 25  1  0  0  0  0
 11 12  1  0  0  0  0
 11 26  1  0  0  0  0
 11 27  1  0  0  0  0
 12 28  1  0  0  0  0
 12 29  1  0  0  0  0
 13 14  2  0  0  0  0
 14 15  1  0  0  0  0
 14 16  1  0  0  0  0
 15 17  1  0  0  0  0
 16 30  1  0  0  0  0
 17 18  2  0  0  0  0
 17 19  1  0  0  0  0
 18 20  1  0  0  0  0
 19 22  2  0  0  0  0
 19 31  1  0  0  0  0
 20 21  2  0  0  0  0
 20 32  1  0  0  0  0
 21 22  1  0  0  0  0
 21 24  1  0  0  0  0
 22 33  1  0  0  0  0
 23 34  1  0  0  0  0
 23 35  1  0  0  0  0
 23 36  1  0  0  0  0
M  END
>  <DRUGBANK_ID>
DB12938

>  <COMMON_NAME>
Isoxaflutole

>  <CAS_NUMBER>
141112-29-0

>  <UNII>
0T9R0O0EYT

>  <SYNONYMS>
Balance; Merlin

$$$$
