
 OpenBabel10282417143D

 28 28  0  0  1  0  0  0  0  0999 V2000
    0.9639    0.1513    0.1195 C   0  0  0  0  0  0  0  0  0  0  0  0
    0.4863    0.5034   -1.2969 C   0  0  1  0  0  0  0  0  0  0  0  0
    0.5568   -2.8061   -3.4501 C   0  0  1  0  0  0  0  0  0  0  0  0
   -0.0309   -1.7280   -2.5262 C   0  0  1  0  0  0  0  0  0  0  0  0
    1.9960   -3.1489   -3.0547 C   0  0  1  0  0  0  0  0  0  0  0  0
    0.9304   -0.5238   -2.3742 C   0  0  2  0  0  0  0  0  0  0  0  0
    2.8374   -1.8603   -2.9969 C   0  0  1  0  0  0  0  0  0  0  0  0
    0.4757   -1.1233    0.5247 O   0  0  0  0  0  0  0  0  0  0  0  0
   -0.9268    0.7048   -1.2969 O   0  0  0  0  0  0  0  0  0  0  0  0
   -0.2525   -3.9870   -3.4030 O   0  0  0  0  0  0  0  0  0  0  0  0
   -1.3164   -1.3232   -3.0011 O   0  0  0  0  0  0  0  0  0  0  0  0
    1.9701   -3.8269   -1.7822 O   0  0  0  0  0  0  0  0  0  0  0  0
    3.0451   -1.2307   -4.2450 O   0  0  0  0  0  0  0  0  0  0  0  0
    2.2676   -0.9444   -2.0641 O   0  0  0  0  0  0  0  0  0  0  0  0
    0.9297    1.4739   -1.5495 H   0  0  0  0  0  0  0  0  0  0  0  0
    0.5213   -2.4568   -4.4867 H   0  0  0  0  0  0  0  0  0  0  0  0
   -0.2178   -2.1937   -1.5562 H   0  0  0  0  0  0  0  0  0  0  0  0
    2.4178   -3.8562   -3.7759 H   0  0  0  0  0  0  0  0  0  0  0  0
    0.9425    0.0244   -3.3267 H   0  0  0  0  0  0  0  0  0  0  0  0
    3.8293   -2.1061   -2.6009 H   0  0  0  0  0  0  0  0  0  0  0  0
    0.5859    0.8806    0.8413 H   0  0  0  0  0  0  0  0  0  0  0  0
    2.0580    0.1471    0.1836 H   0  0  0  0  0  0  0  0  0  0  0  0
    1.0468   -1.7844    0.0980 H   0  0  0  0  0  0  0  0  0  0  0  0
   -1.3463   -0.1575   -1.0961 H   0  0  0  0  0  0  0  0  0  0  0  0
   -0.1553   -4.3630   -2.5067 H   0  0  0  0  0  0  0  0  0  0  0  0
   -1.2125   -0.7811   -3.8023 H   0  0  0  0  0  0  0  0  0  0  0  0
    1.9896   -3.1596   -1.0734 H   0  0  0  0  0  0  0  0  0  0  0  0
    2.2050   -1.1653   -4.7267 H   0  0  0  0  0  0  0  0  0  0  0  0
  1 21  1  0  0  0  0
  1 22  1  0  0  0  0
  2  1  1  0  0  0  0
  2  9  1  0  0  0  0
  2 15  1  6  0  0  0
  3 10  1  0  0  0  0
  3 16  1  6  0  0  0
  4  3  1  0  0  0  0
  4 11  1  0  0  0  0
  4 17  1  1  0  0  0
  5  3  1  0  0  0  0
  5 12  1  0  0  0  0
  5 18  1  6  0  0  0
  6  2  1  0  0  0  0
  6  4  1  0  0  0  0
  6 19  1  6  0  0  0
  7  5  1  0  0  0  0
  7 13  1  0  0  0  0
  7 20  1  1  0  0  0
  8  1  1  0  0  0  0
  8 23  1  0  0  0  0
  9 24  1  0  0  0  0
 10 25  1  0  0  0  0
 11 26  1  0  0  0  0
 12 27  1  0  0  0  0
 13 28  1  0  0  0  0
 14  6  1  0  0  0  0
 14  7  1  0  0  0  0
M  END
>  <DRUGBANK_ID>
DB04526

>  <SECONDARY_ACCESSION_NUMBERS>
EXPT01620

>  <COMMON_NAME>
L-Glycero-D-Manno-Heptopyranose

$$$$
