
 OpenBabel10282417213D

 38 39  0  0  0  0  0  0  0  0999 V2000
    2.6052    1.1001    0.0228 C   0  0  0  0  0  0  0  0  0  0  0  0
    1.3043    0.3573   -0.0204 C   0  0  0  0  0  0  0  0  0  0  0  0
    1.3657   -1.0799    0.0233 C   0  0  0  0  0  0  0  0  0  0  0  0
    0.2294   -1.8857    0.0265 C   0  0  0  0  0  0  0  0  0  0  0  0
   -0.9656   -1.2755   -0.1538 C   0  0  0  0  0  0  0  0  0  0  0  0
   -0.9734    0.0893   -0.4058 C   0  0  0  0  0  0  0  0  0  0  0  0
   -2.2454    0.5558   -0.9046 C   0  0  0  0  0  0  0  0  0  0  0  0
    0.0586    0.9925   -0.1292 C   0  0  0  0  0  0  0  0  0  0  0  0
   -0.1738    2.4431    0.0181 N   0  0  0  0  0  0  0  0  0  0  0  0
   -1.3276    3.3254    0.1501 C   0  0  0  0  0  0  0  0  0  0  0  0
   -1.1333    4.5301   -0.0586 O   0  0  0  0  0  0  0  0  0  0  0  0
   -2.8213    2.9431    0.4859 C   0  0  0  0  0  0  0  0  0  0  0  0
   -3.7801    3.1849   -0.5586 C   0  0  0  0  0  0  0  0  0  0  0  0
   -4.9814    2.4166   -0.6665 C   0  0  0  0  0  0  0  0  0  0  0  0
   -5.2297    1.3649    0.2277 C   0  0  0  0  0  0  0  0  0  0  0  0
   -6.5156    0.2164    0.0284 Cl  0  0  0  0  0  0  0  0  0  0  0  0
   -4.3280    1.1367    1.2820 C   0  0  0  0  0  0  0  0  0  0  0  0
   -3.1780    1.9589    1.4667 C   0  0  0  0  0  0  0  0  0  0  0  0
   -2.2620    1.4196    2.3474 O   0  0  0  0  0  0  0  0  0  0  0  0
   -6.1781    2.7113   -1.9518 S   0  0  0  0  0  0  0  0  0  0  0  0
   -6.2291    1.6155   -2.8622 O   0  0  0  0  0  0  0  0  0  0  0  0
   -7.3675    3.2416   -1.2844 O   0  0  0  0  0  0  0  0  0  0  0  0
   -5.5769    3.9980   -2.8605 N   0  0  0  0  0  0  0  0  0  0  0  0
    2.7021    1.7313   -0.8655 H   0  0  0  0  0  0  0  0  0  0  0  0
    2.6679    1.7075    0.9277 H   0  0  0  0  0  0  0  0  0  0  0  0
    3.4541    0.4044    0.0195 H   0  0  0  0  0  0  0  0  0  0  0  0
    2.3186   -1.5996    0.0695 H   0  0  0  0  0  0  0  0  0  0  0  0
    0.2424   -2.9666    0.1007 H   0  0  0  0  0  0  0  0  0  0  0  0
   -1.9103   -1.8166   -0.1389 H   0  0  0  0  0  0  0  0  0  0  0  0
   -2.2194    1.1893   -0.0942 H   0  0  0  0  0  0  0  0  0  0  0  0
   -2.2818    1.2045   -1.7718 H   0  0  0  0  0  0  0  0  0  0  0  0
   -3.1135   -0.0489   -0.6723 H   0  0  0  0  0  0  0  0  0  0  0  0
    0.6803    2.9998   -0.0588 H   0  0  0  0  0  0  0  0  0  0  0  0
   -3.5112    3.8515   -1.3784 H   0  0  0  0  0  0  0  0  0  0  0  0
   -4.3809    0.1732    1.8051 H   0  0  0  0  0  0  0  0  0  0  0  0
   -1.3560    1.5365    2.0020 H   0  0  0  0  0  0  0  0  0  0  0  0
   -4.8573    3.6882   -3.5145 H   0  0  0  0  0  0  0  0  0  0  0  0
   -6.3654    4.4033   -3.3774 H   0  0  0  0  0  0  0  0  0  0  0  0
  1  2  1  0  0  0  0
  1 24  1  0  0  0  0
  1 25  1  0  0  0  0
  1 26  1  0  0  0  0
  2  3  2  0  0  0  0
  2  8  1  0  0  0  0
  3  4  1  0  0  0  0
  3 27  1  0  0  0  0
  4  5  2  0  0  0  0
  4 28  1  0  0  0  0
  5  6  1  0  0  0  0
  5 29  1  0  0  0  0
  6  7  1  0  0  0  0
  6  8  2  0  0  0  0
  7 30  1  0  0  0  0
  7 31  1  0  0  0  0
  7 32  1  0  0  0  0
  8  9  1  0  0  0  0
  9 10  1  0  0  0  0
  9 33  1  0  0  0  0
 10 11  2  0  0  0  0
 10 12  1  0  0  0  0
 12 13  2  0  0  0  0
 12 18  1  0  0  0  0
 13 14  1  0  0  0  0
 13 34  1  0  0  0  0
 14 15  2  0  0  0  0
 14 20  1  0  0  0  0
 15 16  1  0  0  0  0
 15 17  1  0  0  0  0
 17 18  2  0  0  0  0
 17 35  1  0  0  0  0
 18 19  1  0  0  0  0
 19 36  1  0  0  0  0
 20 21  2  0  0  0  0
 20 22  2  0  0  0  0
 20 23  1  0  0  0  0
 23 37  1  0  0  0  0
 23 38  1  0  0  0  0
M  END
>  <DRUGBANK_ID>
DB13803

>  <COMMON_NAME>
Xipamide

>  <CAS_NUMBER>
14293-44-8

>  <UNII>
4S9EY0NUEC

>  <SYNONYMS>
Xipamida; Xipamide; Xipamidum

$$$$
