
 OpenBabel10282417123D

 16 16  0  0  0  0  0  0  0  0999 V2000
    2.5119    1.1901    0.0001 C   0  0  0  0  0  0  0  0  0  0  0  0
    1.2625    0.3615    0.0043 C   0  0  0  0  0  0  0  0  0  0  0  0
    1.3042   -1.0377    0.0164 C   0  0  0  0  0  0  0  0  0  0  0  0
    0.1169   -1.7777    0.0023 C   0  0  0  0  0  0  0  0  0  0  0  0
   -1.1180   -1.1264   -0.0138 C   0  0  0  0  0  0  0  0  0  0  0  0
   -1.1552    0.2633   -0.0116 C   0  0  0  0  0  0  0  0  0  0  0  0
   -2.3305    0.9540   -0.0126 O   0  0  0  0  0  0  0  0  0  0  0  0
    0.0202    1.0060   -0.0072 C   0  0  0  0  0  0  0  0  0  0  0  0
    2.5372    1.8183   -0.8966 H   0  0  0  0  0  0  0  0  0  0  0  0
    2.5363    1.8328    0.8862 H   0  0  0  0  0  0  0  0  0  0  0  0
    3.4135    0.5703    0.0043 H   0  0  0  0  0  0  0  0  0  0  0  0
    2.2570   -1.5623    0.0344 H   0  0  0  0  0  0  0  0  0  0  0  0
    0.1581   -2.8641    0.0034 H   0  0  0  0  0  0  0  0  0  0  0  0
   -2.0299   -1.7150   -0.0282 H   0  0  0  0  0  0  0  0  0  0  0  0
   -3.0648    0.3197    0.0146 H   0  0  0  0  0  0  0  0  0  0  0  0
   -0.0355    2.0910   -0.0128 H   0  0  0  0  0  0  0  0  0  0  0  0
  1  2  1  0  0  0  0
  1  9  1  0  0  0  0
  1 10  1  0  0  0  0
  1 11  1  0  0  0  0
  2  3  2  0  0  0  0
  2  8  1  0  0  0  0
  3  4  1  0  0  0  0
  3 12  1  0  0  0  0
  4  5  2  0  0  0  0
  4 13  1  0  0  0  0
  5  6  1  0  0  0  0
  5 14  1  0  0  0  0
  6  7  1  0  0  0  0
  6  8  2  0  0  0  0
  7 15  1  0  0  0  0
  8 16  1  0  0  0  0
M  END
>  <DRUGBANK_ID>
DB01776

>  <SECONDARY_ACCESSION_NUMBERS>
EXPT01026

>  <COMMON_NAME>
M-Cresol

>  <CAS_NUMBER>
108-39-4

>  <UNII>
GGO4Y809LO

>  <SYNONYMS>
3-Cresol; 3-Methylphenol; m-Cresylic acid; m-Kresol; meta-Cresol; Metacresol

$$$$
