
 OpenBabel10282417173D

 46 49  0  0  0  0  0  0  0  0999 V2000
    0.7284   -0.0182    0.0818 C   0  0  0  0  0  0  0  0  0  0  0  0
    0.4522    1.3715    0.5840 C   0  0  0  0  0  0  0  0  0  0  0  0
    7.5979    0.6346   -4.3258 C   0  0  0  0  0  0  0  0  0  0  0  0
    5.2808    7.0833    2.9728 C   0  0  0  0  0  0  0  0  0  0  0  0
    7.4269   -0.7504   -4.3318 C   0  0  0  0  0  0  0  0  0  0  0  0
    6.0827    6.4696    3.9333 C   0  0  0  0  0  0  0  0  0  0  0  0
    6.8737    1.4333   -3.4369 C   0  0  0  0  0  0  0  0  0  0  0  0
    4.6156    6.3055    2.0343 C   0  0  0  0  0  0  0  0  0  0  0  0
    6.5033   -1.3336   -3.4785 C   0  0  0  0  0  0  0  0  0  0  0  0
    6.2480    5.0833    3.9326 C   0  0  0  0  0  0  0  0  0  0  0  0
    5.9743    0.8484   -2.5430 C   0  0  0  0  0  0  0  0  0  0  0  0
    4.7412    4.9121    2.0524 C   0  0  0  0  0  0  0  0  0  0  0  0
    5.7854   -0.5216   -2.6128 C   0  0  0  0  0  0  0  0  0  0  0  0
    5.5803    4.3214    2.9806 C   0  0  0  0  0  0  0  0  0  0  0  0
    3.4222    1.7192    0.2571 C   0  0  0  0  0  0  0  0  0  0  0  0
    4.3283    0.9971   -0.7460 C   0  0  0  0  0  0  0  0  0  0  0  0
    4.1550    2.7399    1.1237 C   0  0  0  0  0  0  0  0  0  0  0  0
    5.2200    1.6081   -1.5556 C   0  0  0  0  0  0  0  0  0  0  0  0
    3.9836    4.0767    1.1372 C   0  0  0  0  0  0  0  0  0  0  0  0
    2.3406    2.3728   -0.6280 C   0  0  0  0  0  0  0  0  0  0  0  0
    4.1995   -0.4925   -0.8127 C   0  0  0  0  0  0  0  0  0  0  0  0
    5.1379    2.1156    2.0711 C   0  0  0  0  0  0  0  0  0  0  0  0
    5.5039    2.9569   -1.5594 O   0  0  0  0  0  0  0  0  0  0  0  0
    3.1231    4.8175    0.3607 O   0  0  0  0  0  0  0  0  0  0  0  0
    2.6710    3.1485   -1.5342 O   0  0  0  0  0  0  0  0  0  0  0  0
    3.5141   -1.1444   -0.0227 O   0  0  0  0  0  0  0  0  0  0  0  0
    5.3556    0.9081    2.0570 O   0  0  0  0  0  0  0  0  0  0  0  0
    1.0320    2.3243   -0.3148 O   0  0  0  0  0  0  0  0  0  0  0  0
    4.8600   -1.1726   -1.8057 O   0  0  0  0  0  0  0  0  0  0  0  0
    5.7788    2.9363    2.9873 O   0  0  0  0  0  0  0  0  0  0  0  0
    0.3884   -0.1777   -0.9437 H   0  0  0  0  0  0  0  0  0  0  0  0
    0.3937   -0.7989    0.7608 H   0  0  0  0  0  0  0  0  0  0  0  0
    1.7851   -0.1199    0.0002 H   0  0  0  0  0  0  0  0  0  0  0  0
   -0.6281    1.5395    0.5820 H   0  0  0  0  0  0  0  0  0  0  0  0
    0.8296    1.5633    1.5922 H   0  0  0  0  0  0  0  0  0  0  0  0
    8.3041    1.0967   -5.0089 H   0  0  0  0  0  0  0  0  0  0  0  0
    5.1556    8.1621    2.9530 H   0  0  0  0  0  0  0  0  0  0  0  0
    8.0072   -1.3763   -5.0016 H   0  0  0  0  0  0  0  0  0  0  0  0
    6.5807    7.0776    4.6821 H   0  0  0  0  0  0  0  0  0  0  0  0
    7.0206    2.5115   -3.4458 H   0  0  0  0  0  0  0  0  0  0  0  0
    3.9831    6.7937    1.2949 H   0  0  0  0  0  0  0  0  0  0  0  0
    6.3408   -2.4069   -3.4673 H   0  0  0  0  0  0  0  0  0  0  0  0
    6.8821    4.6034    4.6714 H   0  0  0  0  0  0  0  0  0  0  0  0
    2.9817    1.0306    0.9780 H   0  0  0  0  0  0  0  0  0  0  0  0
    4.8194    3.4701   -1.1048 H   0  0  0  0  0  0  0  0  0  0  0  0
    2.8222    4.3999   -0.4667 H   0  0  0  0  0  0  0  0  0  0  0  0
  1 31  1  0  0  0  0
  1 32  1  0  0  0  0
  1 33  1  0  0  0  0
  2  1  1  0  0  0  0
  2 34  1  0  0  0  0
  2 35  1  0  0  0  0
  3 36  1  0  0  0  0
  4 37  1  0  0  0  0
  5  3  2  0  0  0  0
  5 38  1  0  0  0  0
  6  4  2  0  0  0  0
  6 39  1  0  0  0  0
  7  3  1  0  0  0  0
  7 40  1  0  0  0  0
  8  4  1  0  0  0  0
  8 41  1  0  0  0  0
  9  5  1  0  0  0  0
  9 42  1  0  0  0  0
 10  6  1  0  0  0  0
 10 43  1  0  0  0  0
 11  7  2  0  0  0  0
 12  8  2  0  0  0  0
 13  9  2  0  0  0  0
 13 11  1  0  0  0  0
 14 10  2  0  0  0  0
 14 12  1  0  0  0  0
 15 44  1  0  0  0  0
 16 15  1  0  0  0  0
 17 15  1  0  0  0  0
 18 11  1  0  0  0  0
 18 16  2  0  0  0  0
 19 12  1  0  0  0  0
 19 17  2  0  0  0  0
 20 15  1  0  0  0  0
 21 16  1  0  0  0  0
 22 17  1  0  0  0  0
 23 18  1  0  0  0  0
 23 45  1  0  0  0  0
 24 19  1  0  0  0  0
 24 46  1  0  0  0  0
 25 20  2  0  0  0  0
 26 21  2  0  0  0  0
 27 22  2  0  0  0  0
 28  2  1  0  0  0  0
 28 20  1  0  0  0  0
 29 13  1  0  0  0  0
 29 21  1  0  0  0  0
 30 14  1  0  0  0  0
 30 22  1  0  0  0  0
M  END
>  <DRUGBANK_ID>
DB08794

>  <COMMON_NAME>
Ethyl biscoumacetate

>  <CAS_NUMBER>
548-00-5

>  <UNII>
08KL644731

>  <SYNONYMS>
Ethyl bis(4-hydroxy-2-oxo-2h-1-benzopyran-3-yl)acetate; Ethyl biscoumacetate; Ethyldicoumarol

$$$$
