
 OpenBabel10282417213D

 44 44  0  0  0  0  0  0  0  0999 V2000
    1.2593   -0.1046    0.0051 C   0  0  0  0  0  0  0  0  0  0  0  0
    0.7082    0.7251   -1.1643 C   0  0  0  0  0  0  0  0  0  0  0  0
    1.1086    0.1824   -2.5167 C   0  0  0  0  0  0  0  0  0  0  0  0
   -0.7572    0.6113   -0.8088 C   0  0  0  0  0  0  0  0  0  0  0  0
   -1.2093    1.6367   -0.3802 O   0  0  0  0  0  0  0  0  0  0  0  0
   -1.4628   -0.5753   -0.9904 O   0  0  0  0  0  0  0  0  0  0  0  0
   -2.9774   -0.7058   -0.9313 C   0  0  0  0  0  0  0  0  0  0  0  0
   -3.6959    0.0089    0.1906 C   0  0  0  0  0  0  0  0  0  0  0  0
   -3.4737    1.5061    0.2567 C   0  0  0  0  0  0  0  0  0  0  0  0
   -3.7746    2.4184   -1.0235 C   0  0  0  0  0  0  0  0  0  0  0  0
   -4.3636    3.4833   -0.7552 O   0  0  0  0  0  0  0  0  0  0  0  0
   -3.5057    2.1592   -2.4003 N   0  0  0  0  0  0  0  0  0  0  0  0
   -2.6439    1.1996   -3.0802 C   0  0  0  0  0  0  0  0  0  0  0  0
   -4.0436    3.0861   -3.3712 C   0  0  0  0  0  0  0  0  0  0  0  0
    1.2554    2.1101   -1.0745 O   0  0  0  0  0  0  0  0  0  0  0  0
    0.8290    3.1625   -1.8734 C   0  0  0  0  0  0  0  0  0  0  0  0
   -0.4552    3.3689   -2.3466 C   0  0  0  0  0  0  0  0  0  0  0  0
   -0.8684    4.4383   -3.1482 C   0  0  0  0  0  0  0  0  0  0  0  0
    0.0227    5.4150   -3.4818 C   0  0  0  0  0  0  0  0  0  0  0  0
    1.3180    5.3011   -2.9972 C   0  0  0  0  0  0  0  0  0  0  0  0
    1.7144    4.1899   -2.1942 C   0  0  0  0  0  0  0  0  0  0  0  0
   -0.5162    6.7183   -4.4607 Cl  0  0  0  0  0  0  0  0  0  0  0  0
    0.9040   -1.1438   -0.0597 H   0  0  0  0  0  0  0  0  0  0  0  0
    0.8786    0.2871    0.9629 H   0  0  0  0  0  0  0  0  0  0  0  0
    2.3445   -0.0932    0.0569 H   0  0  0  0  0  0  0  0  0  0  0  0
    0.7389   -0.8287   -2.6892 H   0  0  0  0  0  0  0  0  0  0  0  0
    0.7314    0.8236   -3.3214 H   0  0  0  0  0  0  0  0  0  0  0  0
    2.2014    0.1964   -2.5999 H   0  0  0  0  0  0  0  0  0  0  0  0
   -3.5036   -0.3992   -1.8414 H   0  0  0  0  0  0  0  0  0  0  0  0
   -3.2140   -1.7758   -0.9787 H   0  0  0  0  0  0  0  0  0  0  0  0
   -4.7799   -0.1298    0.1034 H   0  0  0  0  0  0  0  0  0  0  0  0
   -3.3714   -0.4669    1.1214 H   0  0  0  0  0  0  0  0  0  0  0  0
   -4.1045    1.9120    1.0608 H   0  0  0  0  0  0  0  0  0  0  0  0
   -2.5615    1.6896    0.8307 H   0  0  0  0  0  0  0  0  0  0  0  0
   -3.1822    0.4637   -3.6764 H   0  0  0  0  0  0  0  0  0  0  0  0
   -1.8003    1.5970   -3.6553 H   0  0  0  0  0  0  0  0  0  0  0  0
   -2.1381    0.7213   -2.3191 H   0  0  0  0  0  0  0  0  0  0  0  0
   -5.1209    2.9569   -3.4167 H   0  0  0  0  0  0  0  0  0  0  0  0
   -3.8017    4.1124   -3.0998 H   0  0  0  0  0  0  0  0  0  0  0  0
   -3.6092    2.8677   -4.3583 H   0  0  0  0  0  0  0  0  0  0  0  0
   -1.2540    2.7392   -2.0600 H   0  0  0  0  0  0  0  0  0  0  0  0
   -1.8929    4.5059   -3.4813 H   0  0  0  0  0  0  0  0  0  0  0  0
    2.0287    6.0813   -3.2433 H   0  0  0  0  0  0  0  0  0  0  0  0
    2.7332    4.1502   -1.8263 H   0  0  0  0  0  0  0  0  0  0  0  0
  1  2  1  0  0  0  0
  1 23  1  0  0  0  0
  1 24  1  0  0  0  0
  1 25  1  0  0  0  0
  2  3  1  0  0  0  0
  2  4  1  0  0  0  0
  2 15  1  0  0  0  0
  3 26  1  0  0  0  0
  3 27  1  0  0  0  0
  3 28  1  0  0  0  0
  4  5  2  0  0  0  0
  4  6  1  0  0  0  0
  6  7  1  0  0  0  0
  7  8  1  0  0  0  0
  7 29  1  0  0  0  0
  7 30  1  0  0  0  0
  8  9  1  0  0  0  0
  8 31  1  0  0  0  0
  8 32  1  0  0  0  0
  9 10  1  0  0  0  0
  9 33  1  0  0  0  0
  9 34  1  0  0  0  0
 10 11  2  0  0  0  0
 10 12  1  0  0  0  0
 12 13  1  0  0  0  0
 12 14  1  0  0  0  0
 13 35  1  0  0  0  0
 13 36  1  0  0  0  0
 13 37  1  0  0  0  0
 14 38  1  0  0  0  0
 14 39  1  0  0  0  0
 14 40  1  0  0  0  0
 15 16  1  0  0  0  0
 16 17  2  0  0  0  0
 16 21  1  0  0  0  0
 17 18  1  0  0  0  0
 17 41  1  0  0  0  0
 18 19  2  0  0  0  0
 18 42  1  0  0  0  0
 19 20  1  0  0  0  0
 19 22  1  0  0  0  0
 20 21  2  0  0  0  0
 20 43  1  0  0  0  0
 21 44  1  0  0  0  0
M  END
>  <DRUGBANK_ID>
DB13849

>  <COMMON_NAME>
Clofibride

>  <CAS_NUMBER>
26717-47-5

>  <UNII>
0S9SLS3L93

>  <SYNONYMS>
Clofibrida; Clofibride; Clofibridum

$$$$
