
 OpenBabel10282417213D

 29 28  0  0  0  0  0  0  0  0999 V2000
    1.1362    0.0860   -0.0369 C   0  0  0  0  0  0  0  0  0  0  0  0
    0.4973   -1.0514    0.2996 C   0  0  0  0  0  0  0  0  0  0  0  0
   -0.7819   -2.7932    2.5745 C   0  0  0  0  0  0  0  0  0  0  0  0
    0.6976   -2.5129    2.3864 C   0  0  0  0  0  0  0  0  0  0  0  0
   -1.7162   -1.8557    2.3216 C   0  0  0  0  0  0  0  0  0  0  0  0
    1.1159   -2.2798    0.9176 C   0  0  0  0  0  0  0  0  0  0  0  0
   -3.1911   -2.0607    2.2911 C   0  0  0  0  0  0  0  0  0  0  0  0
   -3.7770   -1.0951    3.1417 O   0  0  0  0  0  0  0  0  0  0  0  0
    2.6272    0.1739    0.0131 C   0  0  0  0  0  0  0  0  0  0  0  0
   -1.1769   -4.1621    3.0452 C   0  0  0  0  0  0  0  0  0  0  0  0
    0.3509    1.2859   -0.4863 C   0  0  0  0  0  0  0  0  0  0  0  0
   -0.5761   -1.0874    0.1362 H   0  0  0  0  0  0  0  0  0  0  0  0
    1.2837   -3.3629    2.7613 H   0  0  0  0  0  0  0  0  0  0  0  0
    0.9949   -1.6597    3.0106 H   0  0  0  0  0  0  0  0  0  0  0  0
   -1.4109   -0.8453    2.0560 H   0  0  0  0  0  0  0  0  0  0  0  0
    0.8477   -3.1487    0.3066 H   0  0  0  0  0  0  0  0  0  0  0  0
    2.2095   -2.2184    0.8961 H   0  0  0  0  0  0  0  0  0  0  0  0
   -3.5648   -1.9177    1.2714 H   0  0  0  0  0  0  0  0  0  0  0  0
   -3.4965   -3.0540    2.6256 H   0  0  0  0  0  0  0  0  0  0  0  0
   -3.3023   -1.1631    3.9879 H   0  0  0  0  0  0  0  0  0  0  0  0
    2.9984    1.1275   -0.3679 H   0  0  0  0  0  0  0  0  0  0  0  0
    2.9924    0.0440    1.0365 H   0  0  0  0  0  0  0  0  0  0  0  0
    3.0530   -0.6148   -0.6190 H   0  0  0  0  0  0  0  0  0  0  0  0
   -1.7830   -4.0728    3.9546 H   0  0  0  0  0  0  0  0  0  0  0  0
   -1.7594   -4.6785    2.2763 H   0  0  0  0  0  0  0  0  0  0  0  0
   -0.3154   -4.7859    3.2944 H   0  0  0  0  0  0  0  0  0  0  0  0
   -0.3023    1.0340   -1.3280 H   0  0  0  0  0  0  0  0  0  0  0  0
   -0.2721    1.6653    0.3334 H   0  0  0  0  0  0  0  0  0  0  0  0
    1.0042    2.1041   -0.8030 H   0  0  0  0  0  0  0  0  0  0  0  0
  1 11  1  0  0  0  0
  1  9  1  0  0  0  0
  2  1  2  0  0  0  0
  2 12  1  0  0  0  0
  3 10  1  0  0  0  0
  3  4  1  0  0  0  0
  3  5  2  0  0  0  0
  4  6  1  0  0  0  0
  4 13  1  0  0  0  0
  4 14  1  0  0  0  0
  5  7  1  0  0  0  0
  5 15  1  0  0  0  0
  6  2  1  0  0  0  0
  6 16  1  0  0  0  0
  6 17  1  0  0  0  0
  7  8  1  0  0  0  0
  7 18  1  0  0  0  0
  7 19  1  0  0  0  0
  8 20  1  0  0  0  0
  9 21  1  0  0  0  0
  9 22  1  0  0  0  0
  9 23  1  0  0  0  0
 10 24  1  0  0  0  0
 10 25  1  0  0  0  0
 10 26  1  0  0  0  0
 11 27  1  0  0  0  0
 11 28  1  0  0  0  0
 11 29  1  0  0  0  0
M  END
>  <DRUGBANK_ID>
DB14183

>  <COMMON_NAME>
Geraniol

>  <CAS_NUMBER>
106-24-1

>  <UNII>
L837108USY

>  <SYNONYMS>
(2E)-3,7-dimethylocta-2,6-dien-1-ol; (E)-3,7-Dimethyl-2,6-octadien-1-ol; (E)-Geraniol; (E)-Nerol; 2-trans-3,7-Dimethyl-2,6-octadien-1-ol; 2,6-Octadien-1-ol, 3,7-dimethyl-, (E)-; 2,6-Octadien-1-ol, 3,7-dimethyl-, trans-; 3,7-Dimethyl-2,6-octadien-1-ol, (E)-; 3,7-Dimethyl-trans-2,6-octadien-1-ol; geranyl alcohol; Lemonol; t-geraniol

$$$$
