
 OpenBabel10282417133D

 17 16  0  0  1  0  0  0  0  0999 V2000
    0.9781   -0.0716    0.1425 C   0  0  0  0  0  0  0  0  0  0  0  0
    0.3853   -1.3270    0.7981 C   0  0  1  0  0  0  0  0  0  0  0  0
    0.8524   -1.4206    2.1901 N   0  0  0  0  0  0  0  0  0  0  0  0
    0.0185   -1.6198    3.2442 C   0  0  0  0  0  0  0  0  0  0  0  0
    0.6113   -1.6143    4.4533 N   0  0  0  0  0  0  0  0  0  0  0  0
   -1.1933   -1.7744    3.1858 O   0  0  0  0  0  0  0  0  0  0  0  0
   -1.1452   -1.2181    0.5888 C   0  0  0  0  0  0  0  0  0  0  0  0
   -1.6957   -2.2570   -0.0885 O   0  0  0  0  0  0  0  0  0  0  0  0
   -1.8182   -0.2592    0.9451 O   0  0  0  0  0  0  0  0  0  0  0  0
    0.6607    0.8307    0.6798 H   0  0  0  0  0  0  0  0  0  0  0  0
    0.6350    0.0305   -0.8941 H   0  0  0  0  0  0  0  0  0  0  0  0
    2.0725   -0.0850    0.1401 H   0  0  0  0  0  0  0  0  0  0  0  0
    0.7779   -2.2025    0.2653 H   0  0  0  0  0  0  0  0  0  0  0  0
    1.8462   -1.4480    2.3646 H   0  0  0  0  0  0  0  0  0  0  0  0
   -0.0310   -1.7204    5.2294 H   0  0  0  0  0  0  0  0  0  0  0  0
    1.5995   -1.6378    4.6342 H   0  0  0  0  0  0  0  0  0  0  0  0
   -1.0928   -2.9838   -0.3238 H   0  0  0  0  0  0  0  0  0  0  0  0
  1 10  1  0  0  0  0
  1 11  1  0  0  0  0
  1 12  1  0  0  0  0
  2  1  1  0  0  0  0
  2  3  1  0  0  0  0
  2  7  1  0  0  0  0
  2 13  1  6  0  0  0
  3  4  1  0  0  0  0
  3 14  1  0  0  0  0
  4  5  1  0  0  0  0
  4  6  2  0  0  0  0
  5 15  1  0  0  0  0
  5 16  1  0  0  0  0
  7  8  1  0  0  0  0
  7  9  2  0  0  0  0
  8 17  1  0  0  0  0
M  END
>  <DRUGBANK_ID>
DB04048

>  <SECONDARY_ACCESSION_NUMBERS>
EXPT02308

>  <COMMON_NAME>
N-Carbamoyl-Alanine

$$$$
