
 OpenBabel10282417133D

 16 16  0  0  0  0  0  0  0  0999 V2000
    0.9724    0.0301    0.1752 N   0  0  0  0  0  0  0  0  0  0  0  0
    0.2909    1.2385    0.0731 C   0  0  0  0  0  0  0  0  0  0  0  0
    0.5676    2.3582   -0.6309 C   0  0  0  0  0  0  0  0  0  0  0  0
   -0.1763    3.5135   -0.5089 N   0  0  0  0  0  0  0  0  0  0  0  0
   -1.2326    3.6503    0.3272 C   0  0  0  0  0  0  0  0  0  0  0  0
   -1.8459    4.7090    0.4384 O   0  0  0  0  0  0  0  0  0  0  0  0
   -1.5726    2.5417    1.0292 N   0  0  0  0  0  0  0  0  0  0  0  0
   -0.9342    1.3402    0.9590 C   0  0  0  0  0  0  0  0  0  0  0  0
   -1.3335    0.3753    1.6067 O   0  0  0  0  0  0  0  0  0  0  0  0
    1.7112    2.3179   -1.5678 N   0  3  0  0  0  0  0  0  0  0  0  0
    1.9263    3.3700   -2.1885 O   0  5  0  0  0  0  0  0  0  0  0  0
    2.3674    1.2749   -1.7033 O   0  0  0  0  0  0  0  0  0  0  0  0
    0.3675   -0.7841    0.0479 H   0  0  0  0  0  0  0  0  0  0  0  0
    1.8487   -0.0316   -0.3466 H   0  0  0  0  0  0  0  0  0  0  0  0
    0.1047    4.3302   -1.0461 H   0  0  0  0  0  0  0  0  0  0  0  0
   -2.3596    2.6076    1.6578 H   0  0  0  0  0  0  0  0  0  0  0  0
  1  2  1  0  0  0  0
  1 13  1  0  0  0  0
  1 14  1  0  0  0  0
  2  3  2  0  0  0  0
  2  8  1  0  0  0  0
  3  4  1  0  0  0  0
  3 10  1  0  0  0  0
  4  5  1  0  0  0  0
  4 15  1  0  0  0  0
  5  6  2  0  0  0  0
  5  7  1  0  0  0  0
  7  8  1  0  0  0  0
  7 16  1  0  0  0  0
  8  9  2  0  0  0  0
 10 11  1  0  0  0  0
 10 12  2  0  0  0  0
M  CHG  2  10   1  11  -1
M  END
>  <DRUGBANK_ID>
DB03099

>  <SECONDARY_ACCESSION_NUMBERS>
EXPT03191

>  <COMMON_NAME>
5-Amino 6-Nitro Uracil

$$$$
