
 OpenBabel10282417173D

 45 46  0  0  0  0  0  0  0  0999 V2000
    1.6720    0.2669   -1.2736 C   0  0  0  0  0  0  0  0  0  0  0  0
    0.8246    1.3040    1.4779 C   0  0  0  0  0  0  0  0  0  0  0  0
   -0.4069    1.3701    0.6605 C   0  0  0  0  0  0  0  0  0  0  0  0
    1.3503    0.1396    1.9353 C   0  0  0  0  0  0  0  0  0  0  0  0
   -0.2124   -3.5617    2.7387 C   0  0  0  0  0  0  0  0  0  0  0  0
    0.0062   -2.9363    1.5690 C   0  0  0  0  0  0  0  0  0  0  0  0
   -1.2799    0.3076    0.3258 C   0  0  0  0  0  0  0  0  0  0  0  0
    0.7774   -0.8540    1.2065 C   0  0  0  0  0  0  0  0  0  0  0  0
    0.0326   -4.8236    2.4565 C   0  0  0  0  0  0  0  0  0  0  0  0
   -1.4180   -1.2592   -3.1795 C   0  0  0  0  0  0  0  0  0  0  0  0
   -1.2200   -2.7185   -2.8880 C   0  0  0  0  0  0  0  0  0  0  0  0
    1.2441   -2.2603   -1.2508 C   0  0  0  0  0  0  0  0  0  0  0  0
    0.8323   -4.5232   -0.0549 C   0  0  0  0  0  0  0  0  0  0  0  0
    0.8417   -0.7978   -2.0207 C   0  0  3  0  0  0  0  0  0  0  0  0
    0.6537   -3.2155    0.0930 C   0  0  0  0  0  0  0  0  0  0  0  0
   -0.6899   -0.9043    0.4294 C   0  0  0  0  0  0  0  0  0  0  0  0
    0.5592   -5.2476    1.1346 C   0  0  0  0  0  0  0  0  0  0  0  0
   -1.6762   -2.3430   -0.1887 C   0  0  0  0  0  0  0  0  0  0  0  0
    1.0621   -6.6173    1.1738 C   0  0  0  0  0  0  0  0  0  0  0  0
    2.0355   -6.6901    2.1163 F   0  0  0  0  0  0  0  0  0  0  0  0
    0.0788   -7.4751    1.5061 F   0  0  0  0  0  0  0  0  0  0  0  0
    1.6092   -7.0171    0.0036 F   0  0  0  0  0  0  0  0  0  0  0  0
   -0.6054   -0.4889   -2.2457 N   0  0  0  0  0  0  0  0  0  0  0  0
   -2.3834   -2.9429    0.5750 O   0  0  0  0  0  0  0  0  0  0  0  0
   -1.6257   -2.9525   -1.4700 O   0  0  0  0  0  0  0  0  0  0  0  0
    1.1120    0.2619   -0.4158 H   0  0  0  0  0  0  0  0  0  0  0  0
    1.6084    1.3447   -1.4441 H   0  0  0  0  0  0  0  0  0  0  0  0
    2.6421   -0.0409   -0.8549 H   0  0  0  0  0  0  0  0  0  0  0  0
    1.5888    2.0698    1.3433 H   0  0  0  0  0  0  0  0  0  0  0  0
   -0.3925    2.1364   -0.1229 H   0  0  0  0  0  0  0  0  0  0  0  0
    2.3071   -0.0530    2.4303 H   0  0  0  0  0  0  0  0  0  0  0  0
   -0.6011   -3.0198    3.6058 H   0  0  0  0  0  0  0  0  0  0  0  0
   -0.5550   -2.0519    1.9393 H   0  0  0  0  0  0  0  0  0  0  0  0
   -2.0870    0.4316   -0.3952 H   0  0  0  0  0  0  0  0  0  0  0  0
    1.5487   -1.6695    1.2254 H   0  0  0  0  0  0  0  0  0  0  0  0
   -0.1988   -5.5058    3.2545 H   0  0  0  0  0  0  0  0  0  0  0  0
   -2.4830   -1.0759   -2.9308 H   0  0  0  0  0  0  0  0  0  0  0  0
   -1.2393   -0.8923   -4.1803 H   0  0  0  0  0  0  0  0  0  0  0  0
   -1.8141   -3.3585   -3.5597 H   0  0  0  0  0  0  0  0  0  0  0  0
   -0.2087   -3.0657   -3.0734 H   0  0  0  0  0  0  0  0  0  0  0  0
    1.3117   -2.9384   -2.1086 H   0  0  0  0  0  0  0  0  0  0  0  0
    2.3195   -2.1502   -1.0316 H   0  0  0  0  0  0  0  0  0  0  0  0
    1.1660   -4.9550   -0.9929 H   0  0  0  0  0  0  0  0  0  0  0  0
    1.2546   -0.6415   -3.0153 H   0  0  0  0  0  0  0  0  0  0  0  0
   -1.0641   -0.8959   -1.4643 H   0  0  0  0  0  0  0  0  0  0  0  0
  1 26  1  0  0  0  0
  1 27  1  0  0  0  0
  1 28  1  0  0  0  0
  2 29  1  0  0  0  0
  3  2  2  0  0  0  0
  3 30  1  0  0  0  0
  4  2  1  0  0  0  0
  4 31  1  0  0  0  0
  5 32  1  0  0  0  0
  6  5  2  0  0  0  0
  6 33  1  0  0  0  0
  7  3  1  0  0  0  0
  7 34  1  0  0  0  0
  8  4  2  0  0  0  0
  8 35  1  0  0  0  0
  9  5  1  0  0  0  0
  9 36  1  0  0  0  0
 10 37  1  0  0  0  0
 10 38  1  0  0  0  0
 11 10  1  0  0  0  0
 11 39  1  0  0  0  0
 11 40  1  0  0  0  0
 12 41  1  0  0  0  0
 12 42  1  0  0  0  0
 13 43  1  0  0  0  0
 14  1  1  0  0  0  0
 14 12  1  0  0  0  0
 14 44  1  0  0  0  0
 15  6  1  0  0  0  0
 15 12  1  0  0  0  0
 15 13  2  0  0  0  0
 16  7  2  0  0  0  0
 16  8  1  0  0  0  0
 17  9  2  0  0  0  0
 17 13  1  0  0  0  0
 18 16  1  0  0  0  0
 19 17  1  0  0  0  0
 20 19  1  0  0  0  0
 21 19  1  0  0  0  0
 22 19  1  0  0  0  0
 23 10  1  0  0  0  0
 23 14  1  0  0  0  0
 23 45  1  0  0  0  0
 24 18  2  0  0  0  0
 25 11  1  0  0  0  0
 25 18  1  0  0  0  0
M  END
>  <DRUGBANK_ID>
DB09022

>  <COMMON_NAME>
Benfluorex

>  <CAS_NUMBER>
23602-78-0

>  <UNII>
403FO0NQG3

>  <SYNONYMS>
Benfluorex; Benfluorexum

$$$$
