
 OpenBabel10282417143D

 47 48  0  0  1  0  0  0  0  0999 V2000
    1.0716   -0.0420   -0.0775 C   0  0  0  0  0  0  0  0  0  0  0  0
    0.5615    0.4043   -1.4428 C   0  0  0  0  0  0  0  0  0  0  0  0
    0.5763   -1.4208    0.3465 C   0  0  0  0  0  0  0  0  0  0  0  0
    0.7302    3.3233    2.1273 C   0  0  0  0  0  0  0  0  0  0  0  0
    2.1751    3.7272    4.0122 C   0  0  0  0  0  0  0  0  0  0  0  0
    1.3373    4.3783    1.4255 C   0  0  0  0  0  0  0  0  0  0  0  0
    2.7817    4.7772    3.3155 C   0  0  0  0  0  0  0  0  0  0  0  0
    1.0604   -0.4381   -2.6177 C   0  0  0  0  0  0  0  0  0  0  0  0
    0.4537    1.9625    4.2445 C   0  0  0  0  0  0  0  0  0  0  0  0
   -0.5815   -2.8468    4.1984 C   0  0  0  0  0  0  0  0  0  0  0  0
    1.1310    2.9977    3.4360 C   0  0  0  0  0  0  0  0  0  0  0  0
    2.3507    5.1079    2.0369 C   0  0  0  0  0  0  0  0  0  0  0  0
    1.1358   -1.9583    1.6513 C   0  0  1  0  0  0  0  0  0  0  0  0
    0.3745    0.6734    3.8982 C   0  0  0  0  0  0  0  0  0  0  0  0
   -1.6154   -3.4125    3.2380 C   0  0  0  0  0  0  0  0  0  0  0  0
    0.6282   -1.1206    2.7994 C   0  0  0  0  0  0  0  0  0  0  0  0
   -0.3318   -0.4170    4.6384 C   0  0  0  0  0  0  0  0  0  0  0  0
    0.5382   -1.8007   -2.6665 N   0  0  0  0  0  0  0  0  0  0  0  0
    0.8059   -3.3760    1.6500 N   0  0  0  0  0  0  0  0  0  0  0  0
    0.9683    0.1327    2.8037 N   0  0  0  0  0  0  0  0  0  0  0  0
   -0.1545   -1.5082    3.8201 N   0  0  0  0  0  0  0  0  0  0  0  0
    2.9568    6.1684    1.4294 O   0  0  0  0  0  0  0  0  0  0  0  0
   -1.5310   -4.4901    2.6651 O   0  0  0  0  0  0  0  0  0  0  0  0
   -2.6659   -2.6131    2.9954 O   0  0  0  0  0  0  0  0  0  0  0  0
   -0.8618   -0.3491    5.7216 O   0  0  0  0  0  0  0  0  0  0  0  0
    0.0257    2.2949    5.1843 H   0  0  0  0  0  0  0  0  0  0  0  0
    2.2275   -1.8790    1.6344 H   0  0  0  0  0  0  0  0  0  0  0  0
    0.7198    0.7185    0.6200 H   0  0  0  0  0  0  0  0  0  0  0  0
    2.1672   -0.0198   -0.0548 H   0  0  0  0  0  0  0  0  0  0  0  0
   -0.5346    0.4528   -1.4291 H   0  0  0  0  0  0  0  0  0  0  0  0
    0.9059    1.4383   -1.5905 H   0  0  0  0  0  0  0  0  0  0  0  0
   -0.5208   -1.4651    0.2972 H   0  0  0  0  0  0  0  0  0  0  0  0
    0.9694   -2.1525   -0.3364 H   0  0  0  0  0  0  0  0  0  0  0  0
   -0.0655    2.7612    1.6427 H   0  0  0  0  0  0  0  0  0  0  0  0
    2.5278    3.4835    5.0103 H   0  0  0  0  0  0  0  0  0  0  0  0
    1.0013    4.6143    0.4198 H   0  0  0  0  0  0  0  0  0  0  0  0
    3.5851    5.3435    3.7768 H   0  0  0  0  0  0  0  0  0  0  0  0
    0.7554    0.0554   -3.5434 H   0  0  0  0  0  0  0  0  0  0  0  0
    2.1548   -0.4673   -2.5951 H   0  0  0  0  0  0  0  0  0  0  0  0
    0.2983   -3.4971    4.2302 H   0  0  0  0  0  0  0  0  0  0  0  0
   -1.0143   -2.8508    5.2010 H   0  0  0  0  0  0  0  0  0  0  0  0
    0.8863   -2.2735   -3.4966 H   0  0  0  0  0  0  0  0  0  0  0  0
    0.9762   -2.3580   -1.9417 H   0  0  0  0  0  0  0  0  0  0  0  0
    1.0881   -3.8708    2.4833 H   0  0  0  0  0  0  0  0  0  0  0  0
   -0.1790   -3.5550    1.4479 H   0  0  0  0  0  0  0  0  0  0  0  0
    2.5452    6.3240    0.5643 H   0  0  0  0  0  0  0  0  0  0  0  0
   -3.1911   -3.0948    2.3186 H   0  0  0  0  0  0  0  0  0  0  0  0
  1 28  1  0  0  0  0
  1 29  1  0  0  0  0
  2  1  1  0  0  0  0
  2 30  1  0  0  0  0
  2 31  1  0  0  0  0
  3  1  1  0  0  0  0
  3 32  1  0  0  0  0
  3 33  1  0  0  0  0
  4 34  1  0  0  0  0
  5 35  1  0  0  0  0
  6  4  1  0  0  0  0
  6 36  1  0  0  0  0
  7  5  2  0  0  0  0
  7 37  1  0  0  0  0
  8  2  1  0  0  0  0
  8 38  1  0  0  0  0
  8 39  1  0  0  0  0
 10 40  1  0  0  0  0
 10 41  1  0  0  0  0
 11  4  2  0  0  0  0
 11  5  1  0  0  0  0
 11  9  1  0  0  0  0
 12  6  2  0  0  0  0
 12  7  1  0  0  0  0
 13  3  1  0  0  0  0
 13 19  1  0  0  0  0
 13 27  1  6  0  0  0
 14  9  2  0  0  0  0
 15 10  1  0  0  0  0
 16 13  1  0  0  0  0
 17 14  1  0  0  0  0
 18  8  1  0  0  0  0
 18 42  1  0  0  0  0
 18 43  1  0  0  0  0
 19 44  1  0  0  0  0
 19 45  1  0  0  0  0
 20 14  1  0  0  0  0
 20 16  2  0  0  0  0
 21 10  1  0  0  0  0
 21 16  1  0  0  0  0
 21 17  1  0  0  0  0
 22 12  1  0  0  0  0
 22 46  1  0  0  0  0
 23 15  2  0  0  0  0
 24 15  1  0  0  0  0
 24 47  1  0  0  0  0
 25 17  2  0  0  0  0
 26  9  1  0  0  0  0
M  END
>  <DRUGBANK_ID>
DB04666

>  <COMMON_NAME>
CHROMOPHORE (LYS-TYR-GLY)

$$$$
