
 OpenBabel10282417173D

 28 28  0  0  0  0  0  0  0  0999 V2000
   -1.8733    0.0598   -0.0128 C   0  0  0  0  0  0  0  0  0  0  0  0
   -1.1784   -1.1689   -0.0011 C   0  0  0  0  0  0  0  0  0  0  0  0
    0.2399   -1.2353    0.0122 C   0  0  0  0  0  0  0  0  0  0  0  0
    0.9664   -0.0361    0.0095 C   0  0  0  0  0  0  0  0  0  0  0  0
    0.2969    1.1986    0.0170 C   0  0  0  0  0  0  0  0  0  0  0  0
   -1.1039    1.2320    0.0030 C   0  0  0  0  0  0  0  0  0  0  0  0
    2.3236    0.0620    0.0023 O   0  0  0  0  0  0  0  0  0  0  0  0
    0.8886    2.4463    0.0370 O   0  0  0  0  0  0  0  0  0  0  0  0
   -3.3613    0.0959   -0.0403 C   0  0  0  0  0  0  0  0  0  0  0  0
    2.3161    2.5009    0.0667 C   0  0  0  0  0  0  0  0  0  0  0  0
   -4.1034    1.2203   -0.0569 C   0  0  0  0  0  0  0  0  0  0  0  0
   -5.5714    1.2894   -0.0866 C   0  0  0  0  0  0  0  0  0  0  0  0
   -6.2048    2.3380   -0.0997 O   0  0  0  0  0  0  0  0  0  0  0  0
   -6.1819    0.0990   -0.0986 O   0  0  0  0  0  0  0  0  0  0  0  0
    0.7366   -2.5195    0.0317 O   0  0  0  0  0  0  0  0  0  0  0  0
    2.1449   -2.7071    0.0629 C   0  0  0  0  0  0  0  0  0  0  0  0
   -1.7413   -2.1035   -0.0027 H   0  0  0  0  0  0  0  0  0  0  0  0
   -1.5706    2.2124    0.0034 H   0  0  0  0  0  0  0  0  0  0  0  0
    2.8418   -0.7333   -0.0584 H   0  0  0  0  0  0  0  0  0  0  0  0
   -3.8672   -0.8686   -0.0505 H   0  0  0  0  0  0  0  0  0  0  0  0
    2.7119    2.0264    0.9753 H   0  0  0  0  0  0  0  0  0  0  0  0
    2.7438    2.0726   -0.8501 H   0  0  0  0  0  0  0  0  0  0  0  0
    2.6433    3.5401    0.0982 H   0  0  0  0  0  0  0  0  0  0  0  0
   -3.6604    2.2087   -0.0499 H   0  0  0  0  0  0  0  0  0  0  0  0
   -7.1376    0.3176   -0.1177 H   0  0  0  0  0  0  0  0  0  0  0  0
    2.5981   -2.3276   -0.8632 H   0  0  0  0  0  0  0  0  0  0  0  0
    2.5763   -2.2564    0.9677 H   0  0  0  0  0  0  0  0  0  0  0  0
    2.3973   -3.7672    0.1027 H   0  0  0  0  0  0  0  0  0  0  0  0
  1  9  1  0  0  0  0
  1  6  2  0  0  0  0
  2  1  1  0  0  0  0
  2 17  1  0  0  0  0
  3  2  2  0  0  0  0
  3 15  1  0  0  0  0
  3  4  1  0  0  0  0
  4  7  1  0  0  0  0
  4  5  2  0  0  0  0
  5  8  1  0  0  0  0
  5  6  1  0  0  0  0
  6 18  1  0  0  0  0
  7 19  1  0  0  0  0
  8 10  1  0  0  0  0
  9 11  2  0  0  0  0
  9 20  1  0  0  0  0
 10 21  1  0  0  0  0
 10 22  1  0  0  0  0
 10 23  1  0  0  0  0
 11 12  1  0  0  0  0
 11 24  1  0  0  0  0
 12 13  2  0  0  0  0
 12 14  1  0  0  0  0
 14 25  1  0  0  0  0
 15 16  1  0  0  0  0
 16 26  1  0  0  0  0
 16 27  1  0  0  0  0
 16 28  1  0  0  0  0
M  END
>  <DRUGBANK_ID>
DB08587

>  <COMMON_NAME>
Sinapic acid

>  <CAS_NUMBER>
7362-37-0

>  <UNII>
P0I60993EC

>  <SYNONYMS>
(E)-3-(4-Hydroxy-3,5-dimethoxyphenyl)-2-propenoic acid; Sinapinate; Sinapinic acid; trans-sinapic acid

$$$$
