
 OpenBabel10282417243D

 38 37  0  0  1  0  0  0  0  0999 V2000
    1.2693    0.1302    0.5930 N   0  0  0  0  0  0  0  0  0  0  0  0
    0.7839    1.4055    1.3108 C   0  0  1  0  0  0  0  0  0  0  0  0
    1.1899    2.5840    0.4851 C   0  0  0  0  0  0  0  0  0  0  0  0
    0.5718    2.6357   -0.9322 C   0  0  0  0  0  0  0  0  0  0  0  0
   -0.9657    2.5743   -1.1115 C   0  0  0  0  0  0  0  0  0  0  0  0
   -1.5620    3.6294   -1.3628 O   0  0  0  0  0  0  0  0  0  0  0  0
   -1.7282    1.4187   -0.9527 N   0  0  0  0  0  0  0  0  0  0  0  0
   -1.3869    0.0689   -0.4209 C   0  0  1  0  0  0  0  0  0  0  0  0
   -1.6124   -0.5327    1.1118 C   0  0  0  0  0  0  0  0  0  0  0  0
   -3.1705   -0.5919    2.2116 S   0  0  0  0  0  0  0  0  0  0  0  0
   -3.8372    0.8866    1.7459 N   0  0  0  0  0  0  0  0  0  0  0  0
   -5.0392    0.7773    1.4634 O   0  0  0  0  0  0  0  0  0  0  0  0
   -1.5716   -1.1171   -1.3458 C   0  0  0  0  0  0  0  0  0  0  0  0
   -0.6241   -1.6768   -1.8936 O   0  0  0  0  0  0  0  0  0  0  0  0
   -2.8440   -1.5972   -1.4266 N   0  0  0  0  0  0  0  0  0  0  0  0
   -3.9567   -0.9462   -0.7926 C   0  0  0  0  0  0  0  0  0  0  0  0
   -4.9726   -0.1634   -1.5680 C   0  0  0  0  0  0  0  0  0  0  0  0
   -6.2403   -0.4910   -1.2442 O   0  0  0  0  0  0  0  0  0  0  0  0
   -4.6751    0.7417   -2.3316 O   0  0  0  0  0  0  0  0  0  0  0  0
   -0.6975    1.8644    1.8407 C   0  0  0  0  0  0  0  0  0  0  0  0
   -0.8455    1.7005    3.1861 O   0  0  0  0  0  0  0  0  0  0  0  0
   -1.5949    2.3752    1.2616 O   0  0  0  0  0  0  0  0  0  0  0  0
    1.2110    0.1519   -0.4444 H   0  0  0  0  0  0  0  0  0  0  0  0
    2.3003    0.1362    0.5869 H   0  0  0  0  0  0  0  0  0  0  0  0
    1.3069    1.2678    2.2550 H   0  0  0  0  0  0  0  0  0  0  0  0
    0.8986    3.4732    1.0541 H   0  0  0  0  0  0  0  0  0  0  0  0
    2.2828    2.5904    0.4236 H   0  0  0  0  0  0  0  0  0  0  0  0
    0.8857    3.6184   -1.3207 H   0  0  0  0  0  0  0  0  0  0  0  0
    1.0295    1.9091   -1.6083 H   0  0  0  0  0  0  0  0  0  0  0  0
   -2.7070    1.6877   -0.9692 H   0  0  0  0  0  0  0  0  0  0  0  0
   -0.3625    0.2003   -0.5756 H   0  0  0  0  0  0  0  0  0  0  0  0
   -1.2771   -1.5842    1.0929 H   0  0  0  0  0  0  0  0  0  0  0  0
   -0.8486   -0.2350    1.8186 H   0  0  0  0  0  0  0  0  0  0  0  0
   -2.9677   -2.4129   -2.0070 H   0  0  0  0  0  0  0  0  0  0  0  0
   -4.3833   -1.6171   -0.0450 H   0  0  0  0  0  0  0  0  0  0  0  0
   -3.5457   -0.1104   -0.2614 H   0  0  0  0  0  0  0  0  0  0  0  0
   -6.3178   -1.1233   -0.5025 H   0  0  0  0  0  0  0  0  0  0  0  0
   -1.1977    0.8221    3.4160 H   0  0  0  0  0  0  0  0  0  0  0  0
  1 23  1  0  0  0  0
  1 24  1  0  0  0  0
  2  1  1  0  0  0  0
  2  3  1  0  0  0  0
  2 20  1  0  0  0  0
  2 25  1  1  0  0  0
  3  4  1  0  0  0  0
  3 26  1  0  0  0  0
  3 27  1  0  0  0  0
  4  5  1  0  0  0  0
  4 28  1  0  0  0  0
  4 29  1  0  0  0  0
  5  6  2  0  0  0  0
  5  7  1  0  0  0  0
  7 30  1  0  0  0  0
  8  7  1  0  0  0  0
  8  9  1  0  0  0  0
  8 13  1  0  0  0  0
  8 31  1  6  0  0  0
  9 10  1  0  0  0  0
  9 32  1  0  0  0  0
  9 33  1  0  0  0  0
 10 11  1  0  0  0  0
 11 12  2  0  0  0  0
 13 14  2  0  0  0  0
 13 15  1  0  0  0  0
 15 16  1  0  0  0  0
 15 34  1  0  0  0  0
 16 17  1  0  0  0  0
 16 35  1  0  0  0  0
 16 36  1  0  0  0  0
 17 18  1  0  0  0  0
 17 19  2  0  0  0  0
 18 37  1  0  0  0  0
 20 21  1  0  0  0  0
 20 22  2  0  0  0  0
 21 38  1  0  0  0  0
M  END
>  <DRUGBANK_ID>
DB17877

>  <COMMON_NAME>
S-Nitrosoglutathione

>  <CAS_NUMBER>
57564-91-7

>  <UNII>
78RRI89ZTO

>  <SYNONYMS>
Glycine, n-(n-l-.gamma.-glutamyl-s-nitroso-l-cysteinyl)-; RVC 588 (peptide)

$$$$
