
 OpenBabel10282417153D

 29 28  0  0  0  0  0  0  0  0999 V2000
    0.9858   -0.1858   -0.3556 C   0  0  0  0  0  0  0  0  0  0  0  0
    0.3165   -1.1893    0.5811 C   0  0  3  0  0  0  0  0  0  0  0  0
    0.8905   -1.2375    2.0644 C   0  0  0  0  0  0  0  0  0  0  0  0
    0.5020   -0.0626    2.9948 N   0  3  0  0  0  0  0  0  0  0  0  0
   -0.9713   -0.1519    3.3193 C   0  0  0  0  0  0  0  0  0  0  0  0
    1.1380   -0.1333    4.3719 C   0  0  0  0  0  0  0  0  0  0  0  0
    0.9884    1.2657    2.4100 C   0  0  0  0  0  0  0  0  0  0  0  0
   -1.1522   -1.1727    0.4594 O   0  0  0  0  0  0  0  0  0  0  0  0
   -1.8834   -0.0212    0.5770 C   0  0  0  0  0  0  0  0  0  0  0  0
   -1.4153    1.1178    0.6567 O   0  0  0  0  0  0  0  0  0  0  0  0
   -3.3114   -0.2724    0.9713 C   0  0  0  0  0  0  0  0  0  0  0  0
    0.6081    0.8268   -0.2618 H   0  0  0  0  0  0  0  0  0  0  0  0
    0.7551   -0.4294   -1.3947 H   0  0  0  0  0  0  0  0  0  0  0  0
    2.0686   -0.1520   -0.2073 H   0  0  0  0  0  0  0  0  0  0  0  0
    0.5984   -2.1737    0.1739 H   0  0  0  0  0  0  0  0  0  0  0  0
    0.5370   -2.1471    2.5711 H   0  0  0  0  0  0  0  0  0  0  0  0
    1.9890   -1.2813    2.0512 H   0  0  0  0  0  0  0  0  0  0  0  0
   -1.1530   -0.8901    4.1061 H   0  0  0  0  0  0  0  0  0  0  0  0
   -1.3836    0.8328    3.5311 H   0  0  0  0  0  0  0  0  0  0  0  0
   -1.4632   -0.6425    2.5185 H   0  0  0  0  0  0  0  0  0  0  0  0
    2.2212   -0.1164    4.2720 H   0  0  0  0  0  0  0  0  0  0  0  0
    0.7788    0.7487    4.9203 H   0  0  0  0  0  0  0  0  0  0  0  0
    0.7906   -1.0412    4.8706 H   0  0  0  0  0  0  0  0  0  0  0  0
    2.0751    1.1971    2.2716 H   0  0  0  0  0  0  0  0  0  0  0  0
    0.5358    1.4721    1.4602 H   0  0  0  0  0  0  0  0  0  0  0  0
    0.7162    2.0856    3.0742 H   0  0  0  0  0  0  0  0  0  0  0  0
   -3.9434   -0.3214    0.0918 H   0  0  0  0  0  0  0  0  0  0  0  0
   -3.4099   -1.1637    1.6014 H   0  0  0  0  0  0  0  0  0  0  0  0
   -3.6283    0.5662    1.6111 H   0  0  0  0  0  0  0  0  0  0  0  0
  1  2  1  0  0  0  0
  1 12  1  0  0  0  0
  1 13  1  0  0  0  0
  1 14  1  0  0  0  0
  2  3  1  0  0  0  0
  2  8  1  0  0  0  0
  2 15  1  0  0  0  0
  3  4  1  0  0  0  0
  3 16  1  0  0  0  0
  3 17  1  0  0  0  0
  4  5  1  0  0  0  0
  4  6  1  0  0  0  0
  4  7  1  0  0  0  0
  5 18  1  0  0  0  0
  5 19  1  0  0  0  0
  5 20  1  0  0  0  0
  6 21  1  0  0  0  0
  6 22  1  0  0  0  0
  6 23  1  0  0  0  0
  7 24  1  0  0  0  0
  7 25  1  0  0  0  0
  7 26  1  0  0  0  0
  8  9  1  0  0  0  0
  9 10  2  0  0  0  0
  9 11  1  0  0  0  0
 11 27  1  0  0  0  0
 11 28  1  0  0  0  0
 11 29  1  0  0  0  0
M  CHG  1   4   1
M  END
>  <DRUGBANK_ID>
DB06709

>  <COMMON_NAME>
Methacholine

>  <CAS_NUMBER>
55-92-5

>  <UNII>
03V657ZD3V

>  <SYNONYMS>
Acetyl-beta-methylcholine; Acetylmethylcholine; beta-Methylacetylcholine; MCh; Methacholine; Methacholinum

$$$$
