SLE
 OpenBabel10282417133D

 24 23  0  0  0  0  0  0  0  0999 V2000
    0.8455   -0.1527   -0.0536 C   0  0  0  0  0  0  0  0  0  0  0  0
    0.1201   -0.5015   -0.9746 O   0  0  0  0  0  0  0  0  0  0  0  0
    0.2904    0.1847    1.1232 O   0  0  0  0  0  0  0  0  0  0  0  0
    2.3659   -0.0687   -0.0753 C   0  0  1  0  0  0  0  0  0  0  0  0
    2.9176   -0.6148   -1.4027 C   0  0  0  0  0  0  0  0  0  0  0  0
    2.4644    0.3586   -2.8809 S   0  0  0  0  0  0  0  0  0  0  0  0
    2.9128    1.3472    0.2041 C   0  0  0  0  0  0  0  0  0  0  0  0
    2.5041    1.9314    1.5632 C   0  0  0  0  0  0  0  0  0  0  0  0
    2.9839    1.0509    2.7148 C   0  0  0  0  0  0  0  0  0  0  0  0
    3.0182    3.3561    1.7158 C   0  0  0  0  0  0  0  0  0  0  0  0
    2.7295   -0.7612    0.6947 H   0  0  0  0  0  0  0  0  0  0  0  0
   -0.6746    0.2315    0.9578 H   0  0  0  0  0  0  0  0  0  0  0  0
    4.0125   -0.6431   -1.3590 H   0  0  0  0  0  0  0  0  0  0  0  0
    2.5741   -1.6437   -1.5524 H   0  0  0  0  0  0  0  0  0  0  0  0
    1.1347    0.3259   -2.6619 H   0  0  0  0  0  0  0  0  0  0  0  0
    4.0115    1.3211    0.1485 H   0  0  0  0  0  0  0  0  0  0  0  0
    2.5832    2.0388   -0.5800 H   0  0  0  0  0  0  0  0  0  0  0  0
    1.4170    2.0246    1.6066 H   0  0  0  0  0  0  0  0  0  0  0  0
    4.0769    0.9915    2.7278 H   0  0  0  0  0  0  0  0  0  0  0  0
    2.6410    1.4479    3.6735 H   0  0  0  0  0  0  0  0  0  0  0  0
    2.5966    0.0301    2.6423 H   0  0  0  0  0  0  0  0  0  0  0  0
    2.6434    3.9856    0.9011 H   0  0  0  0  0  0  0  0  0  0  0  0
    2.6568    3.7815    2.6575 H   0  0  0  0  0  0  0  0  0  0  0  0
    4.1104    3.3898    1.7089 H   0  0  0  0  0  0  0  0  0  0  0  0
  1  2  2  0  0  0  0
  1  3  1  0  0  0  0
  1  4  1  0  0  0  0
  3 12  1  0  0  0  0
  4  5  1  0  0  0  0
  4  7  1  0  0  0  0
  4 11  1  1  0  0  0
  5  6  1  0  0  0  0
  5 13  1  0  0  0  0
  5 14  1  0  0  0  0
  6 15  1  0  0  0  0
  7  8  1  0  0  0  0
  7 16  1  0  0  0  0
  7 17  1  0  0  0  0
  8  9  1  0  0  0  0
  8 10  1  0  0  0  0
  8 18  1  0  0  0  0
  9 19  1  0  0  0  0
  9 20  1  0  0  0  0
  9 21  1  0  0  0  0
 10 22  1  0  0  0  0
 10 23  1  0  0  0  0
 10 24  1  0  0  0  0
M  END
>  <DRUGBANK_ID>
DB02996

>  <SECONDARY_ACCESSION_NUMBERS>
EXPT02916

>  <COMMON_NAME>
2-(Thiomethylene)-4-Methylpentanoic Acid

$$$$
