1086
 OpenBabel10282417113D

 23 23  0  0  0  0  0  0  0  0999 V2000
    0.9744    0.0666   -0.0141 O   0  0  0  0  0  0  0  0  0  0  0  0
    1.0164   -1.8510   -1.2871 O   0  0  0  0  0  0  0  0  0  0  0  0
   -5.2912   -0.9293   -0.6767 N   0  0  0  0  0  0  0  0  0  0  0  0
   -1.0781   -0.9121   -0.6626 C   0  0  0  0  0  0  0  0  0  0  0  0
   -1.7888    0.2774   -0.8433 C   0  0  0  0  0  0  0  0  0  0  0  0
   -1.7886   -2.1108   -0.5107 C   0  0  0  0  0  0  0  0  0  0  0  0
   -3.9085   -0.9300   -0.7016 C   0  0  0  0  0  0  0  0  0  0  0  0
   -3.1942    0.2623   -0.8564 C   0  0  0  0  0  0  0  0  0  0  0  0
   -3.1918   -2.1140   -0.5200 C   0  0  0  0  0  0  0  0  0  0  0  0
    0.4086   -0.9565   -0.7121 C   0  0  0  0  0  0  0  0  0  0  0  0
    2.4175    0.0380    0.0053 C   0  0  0  0  0  0  0  0  0  0  0  0
    2.9527    1.1828    0.8528 C   0  0  0  0  0  0  0  0  0  0  0  0
   -5.8081   -1.7959   -0.6075 H   0  0  0  0  0  0  0  0  0  0  0  0
   -5.8113   -0.0820   -0.8607 H   0  0  0  0  0  0  0  0  0  0  0  0
   -1.2653    1.2159   -1.0012 H   0  0  0  0  0  0  0  0  0  0  0  0
   -1.2568   -3.0517   -0.3861 H   0  0  0  0  0  0  0  0  0  0  0  0
   -3.7319    1.1964   -1.0009 H   0  0  0  0  0  0  0  0  0  0  0  0
   -3.7212   -3.0559   -0.3941 H   0  0  0  0  0  0  0  0  0  0  0  0
    2.7712   -0.9117    0.4256 H   0  0  0  0  0  0  0  0  0  0  0  0
    2.7964    0.1436   -1.0177 H   0  0  0  0  0  0  0  0  0  0  0  0
    2.6037    1.1016    1.8873 H   0  0  0  0  0  0  0  0  0  0  0  0
    4.0487    1.1863    0.8594 H   0  0  0  0  0  0  0  0  0  0  0  0
    2.6069    2.1477    0.4692 H   0  0  0  0  0  0  0  0  0  0  0  0
  1 10  1  0  0  0  0
  1 11  1  0  0  0  0
  2 10  2  0  0  0  0
  3  7  1  0  0  0  0
  3 13  1  0  0  0  0
  3 14  1  0  0  0  0
  4  5  2  0  0  0  0
  4  6  1  0  0  0  0
  4 10  1  0  0  0  0
  5  8  1  0  0  0  0
  5 15  1  0  0  0  0
  6  9  2  0  0  0  0
  6 16  1  0  0  0  0
  7  8  2  0  0  0  0
  7  9  1  0  0  0  0
  8 17  1  0  0  0  0
  9 18  1  0  0  0  0
 11 12  1  0  0  0  0
 11 19  1  0  0  0  0
 11 20  1  0  0  0  0
 12 21  1  0  0  0  0
 12 22  1  0  0  0  0
 12 23  1  0  0  0  0
M  END
>  <DRUGBANK_ID>
DB01086

>  <SECONDARY_ACCESSION_NUMBERS>
APRD00539

>  <COMMON_NAME>
Benzocaine

>  <CAS_NUMBER>
94-09-7

>  <UNII>
U3RSY48JW5

>  <SYNONYMS>
4-aminobenzoic acid ethyl ester; Amben ethyl ester; Benzocaina; Benzocaine; Benzocainum; Ethyl aminobenzoate; Ethyl p-aminobenzoate; Ethyl p-aminophenylcarboxylate; p-(Ethoxycarbonyl)aniline; p-Carbethoxyaniline; p-Ethoxycarboxylic aniline

$$$$
