
 OpenBabel10282417223D

 49 53  0  0  1  0  0  0  0  0999 V2000
   -2.0774   -0.0676   -0.0569 C   0  0  0  0  0  0  0  0  0  0  0  0
   -0.6353   -0.0888    0.0138 N   0  0  0  0  0  0  0  0  0  0  0  0
    0.1874   -1.1854    0.0237 C   0  0  0  0  0  0  0  0  0  0  0  0
    1.4708   -0.6908    0.0132 C   0  0  0  0  0  0  0  0  0  0  0  0
    2.6234   -1.3984   -0.0259 N   0  0  0  0  0  0  0  0  0  0  0  0
    3.9132   -0.8493   -0.0802 C   0  0  0  0  0  0  0  0  0  0  0  0
    4.6677   -1.1328   -1.1571 N   0  0  0  0  0  0  0  0  0  0  0  0
    5.8405   -0.4836   -1.2525 C   0  0  0  0  0  0  0  0  0  0  0  0
    6.3038    0.3722   -0.2916 C   0  0  0  0  0  0  0  0  0  0  0  0
    5.5200    0.5378    0.8303 C   0  0  0  0  0  0  0  0  0  0  0  0
    4.3178   -0.0484    0.9281 N   0  0  0  0  0  0  0  0  0  0  0  0
    6.0227    1.3530    1.8432 N   0  0  0  0  0  0  0  0  0  0  0  0
    6.1596    2.7620    1.4574 C   0  0  0  0  0  0  0  0  0  0  0  0
    6.5343    3.6714    2.6326 C   0  0  2  0  0  0  0  0  0  0  0  0
    7.9432    3.4031    3.1377 C   0  0  0  0  0  0  0  0  0  0  0  0
    7.7591    2.3284    4.2046 C   0  0  0  0  0  0  0  0  0  0  0  0
    6.2314    2.0894    4.2548 C   0  0  2  0  0  0  0  0  0  0  0  0
    5.8353    0.9555    3.2518 C   0  0  0  0  0  0  0  0  0  0  0  0
    5.7136    3.3815    3.7806 N   0  0  0  0  0  0  0  0  0  0  0  0
    4.5678    3.9765    4.2771 C   0  0  0  0  0  0  0  0  0  0  0  0
    3.9651    3.4491    5.2008 O   0  0  0  0  0  0  0  0  0  0  0  0
    4.0778    5.3289    3.8666 C   0  0  2  0  0  0  0  0  0  0  0  0
    3.3621    5.7271    2.5979 C   0  0  0  0  0  0  0  0  0  0  0  0
    4.6896    6.3063    2.9460 C   0  0  0  0  0  0  0  0  0  0  0  0
    4.7972    7.6182    3.3474 F   0  0  0  0  0  0  0  0  0  0  0  0
    5.5946    6.1776    1.9272 F   0  0  0  0  0  0  0  0  0  0  0  0
    1.3117    0.7114    0.0009 C   0  0  0  0  0  0  0  0  0  0  0  0
    0.0284    1.0830    0.0040 N   0  0  0  0  0  0  0  0  0  0  0  0
   -2.4627    0.5270    0.7761 H   0  0  0  0  0  0  0  0  0  0  0  0
   -2.3636    0.3893   -1.0086 H   0  0  0  0  0  0  0  0  0  0  0  0
   -2.4661   -1.0865   -0.0010 H   0  0  0  0  0  0  0  0  0  0  0  0
   -0.2112   -2.1894    0.0296 H   0  0  0  0  0  0  0  0  0  0  0  0
    2.6430   -2.3725   -0.2938 H   0  0  0  0  0  0  0  0  0  0  0  0
    6.4305   -0.6681   -2.1451 H   0  0  0  0  0  0  0  0  0  0  0  0
    7.2636    0.8615   -0.3808 H   0  0  0  0  0  0  0  0  0  0  0  0
    6.9610    2.8433    0.7151 H   0  0  0  0  0  0  0  0  0  0  0  0
    5.2357    3.1314    0.9935 H   0  0  0  0  0  0  0  0  0  0  0  0
    6.5254    4.6801    2.3015 H   0  0  0  0  0  0  0  0  0  0  0  0
    8.6306    3.1187    2.3374 H   0  0  0  0  0  0  0  0  0  0  0  0
    8.3318    4.3207    3.5991 H   0  0  0  0  0  0  0  0  0  0  0  0
    8.3424    1.4335    3.9705 H   0  0  0  0  0  0  0  0  0  0  0  0
    8.1224    2.7214    5.1623 H   0  0  0  0  0  0  0  0  0  0  0  0
    5.9078    1.8298    5.2687 H   0  0  0  0  0  0  0  0  0  0  0  0
    4.8143    0.6203    3.4612 H   0  0  0  0  0  0  0  0  0  0  0  0
    6.5041    0.0994    3.4232 H   0  0  0  0  0  0  0  0  0  0  0  0
    3.5690    5.7732    4.7274 H   0  0  0  0  0  0  0  0  0  0  0  0
    3.3060    5.0270    1.7751 H   0  0  0  0  0  0  0  0  0  0  0  0
    2.5703    6.4688    2.5984 H   0  0  0  0  0  0  0  0  0  0  0  0
    2.0810    1.4705   -0.0321 H   0  0  0  0  0  0  0  0  0  0  0  0
  1  2  1  0  0  0  0
  1 29  1  0  0  0  0
  1 30  1  0  0  0  0
  1 31  1  0  0  0  0
  2  3  1  0  0  0  0
  2 28  1  0  0  0  0
  3  4  2  0  0  0  0
  3 32  1  0  0  0  0
  4  5  1  0  0  0  0
  4 27  1  0  0  0  0
  5  6  1  0  0  0  0
  5 33  1  0  0  0  0
  6  7  2  0  0  0  0
  6 11  1  0  0  0  0
  7  8  1  0  0  0  0
  8  9  2  0  0  0  0
  8 34  1  0  0  0  0
  9 10  1  0  0  0  0
  9 35  1  0  0  0  0
 10 11  2  0  0  0  0
 10 12  1  0  0  0  0
 12 13  1  0  0  0  0
 12 18  1  0  0  0  0
 13 36  1  0  0  0  0
 13 37  1  0  0  0  0
 14 13  1  0  0  0  0
 14 15  1  0  0  0  0
 14 19  1  0  0  0  0
 14 38  1  6  0  0  0
 15 16  1  0  0  0  0
 15 39  1  0  0  0  0
 15 40  1  0  0  0  0
 16 41  1  0  0  0  0
 16 42  1  0  0  0  0
 17 16  1  0  0  0  0
 17 18  1  0  0  0  0
 17 19  1  0  0  0  0
 17 43  1  1  0  0  0
 18 44  1  0  0  0  0
 18 45  1  0  0  0  0
 19 20  1  0  0  0  0
 20 21  2  0  0  0  0
 22 20  1  0  0  0  0
 22 23  1  0  0  0  0
 22 24  1  0  0  0  0
 22 46  1  1  0  0  0
 23 24  1  0  0  0  0
 23 47  1  0  0  0  0
 23 48  1  0  0  0  0
 24 25  1  0  0  0  0
 24 26  1  0  0  0  0
 27 28  2  0  0  0  0
 27 49  1  0  0  0  0
M  END
>  <DRUGBANK_ID>
DB15003

>  <COMMON_NAME>
PF-06700841

>  <CAS_NUMBER>
1883299-62-4

>  <UNII>
3X8387Q25N

$$$$
