
 OpenBabel10282417173D

 51 52  0  0  0  0  0  0  0  0999 V2000
    1.2555   -0.1960    0.1097 F   0  0  0  0  0  0  0  0  0  0  0  0
    1.1460    1.6823   -1.2421 O   0  0  0  0  0  0  0  0  0  0  0  0
    2.0876    4.5959   -0.6125 O   0  0  0  0  0  0  0  0  0  0  0  0
    2.6045    1.7451    1.8741 O   0  0  0  0  0  0  0  0  0  0  0  0
   -9.1827    7.0742    1.9416 N   0  0  0  0  0  0  0  0  0  0  0  0
    0.4553    5.8752    0.3030 N   0  0  0  0  0  0  0  0  0  0  0  0
    2.3368    2.2189   -1.8387 C   0  0  0  0  0  0  0  0  0  0  0  0
    0.8093    2.0716    0.1285 C   0  0  0  0  0  0  0  0  0  0  0  0
    2.7124    3.7424   -1.6012 C   0  0  0  0  0  0  0  0  0  0  0  0
    1.2060    1.8008    1.5878 C   0  0  0  0  0  0  0  0  0  0  0  0
   -5.1794    6.3602    1.1182 C   0  0  0  0  0  0  0  0  0  0  0  0
   -1.8107    4.9956    0.5047 C   0  0  0  0  0  0  0  0  0  0  0  0
   -7.8508    6.8378    1.6599 C   0  0  0  0  0  0  0  0  0  0  0  0
    0.7272    4.8898   -0.5580 C   0  0  0  0  0  0  0  0  0  0  0  0
   -3.7535    6.2248    0.9671 C   0  0  0  0  0  0  0  0  0  0  0  0
   -5.8931    5.4397    1.8804 C   0  0  0  0  0  0  0  0  0  0  0  0
   -5.7627    7.4918    0.6035 C   0  0  0  0  0  0  0  0  0  0  0  0
   -3.2349    5.0651    0.7310 C   0  0  0  0  0  0  0  0  0  0  0  0
   -7.2327    5.6803    2.1462 C   0  0  0  0  0  0  0  0  0  0  0  0
   -7.0665    7.7614    0.9561 C   0  0  0  0  0  0  0  0  0  0  0  0
   -1.4732    3.9130   -0.2102 C   0  0  0  0  0  0  0  0  0  0  0  0
   -0.3205    4.0348   -0.9730 C   0  0  0  0  0  0  0  0  0  0  0  0
    3.2209    1.2546    0.7046 C   0  0  0  0  0  0  0  0  0  0  0  0
   -0.8427    5.9837    0.6832 C   0  0  0  0  0  0  0  0  0  0  0  0
    2.6105   -0.1330    0.2727 C   0  0  0  0  0  0  0  0  0  0  0  0
   -9.9221    8.1737    1.3598 C   0  0  0  0  0  0  0  0  0  0  0  0
    3.0787    1.5134   -1.4812 H   0  0  0  0  0  0  0  0  0  0  0  0
    2.5590    1.9132   -2.8791 H   0  0  0  0  0  0  0  0  0  0  0  0
   -0.2655    1.9705    0.1983 H   0  0  0  0  0  0  0  0  0  0  0  0
    1.2450    3.0201    0.1931 H   0  0  0  0  0  0  0  0  0  0  0  0
    3.8045    3.7433   -1.3728 H   0  0  0  0  0  0  0  0  0  0  0  0
    2.6192    4.3042   -2.5225 H   0  0  0  0  0  0  0  0  0  0  0  0
    0.7270    0.8838    1.8953 H   0  0  0  0  0  0  0  0  0  0  0  0
    0.7640    2.6224    2.1846 H   0  0  0  0  0  0  0  0  0  0  0  0
   -3.1672    7.1417    1.0649 H   0  0  0  0  0  0  0  0  0  0  0  0
   -5.4074    4.5523    2.2777 H   0  0  0  0  0  0  0  0  0  0  0  0
   -5.2158    8.1795   -0.0375 H   0  0  0  0  0  0  0  0  0  0  0  0
   -3.8455    4.1649    0.5348 H   0  0  0  0  0  0  0  0  0  0  0  0
   -7.7638    4.9609    2.7605 H   0  0  0  0  0  0  0  0  0  0  0  0
   -7.4316    8.7364    0.6739 H   0  0  0  0  0  0  0  0  0  0  0  0
   -2.1105    3.0182   -0.2440 H   0  0  0  0  0  0  0  0  0  0  0  0
   -0.2532    3.1817   -1.6271 H   0  0  0  0  0  0  0  0  0  0  0  0
    4.3127    1.2518    0.6605 H   0  0  0  0  0  0  0  0  0  0  0  0
    3.1001    2.1471    0.1162 H   0  0  0  0  0  0  0  0  0  0  0  0
   -1.0937    6.9625    1.0654 H   0  0  0  0  0  0  0  0  0  0  0  0
   -9.7232    6.3007    2.3128 H   0  0  0  0  0  0  0  0  0  0  0  0
    2.7790   -0.8144    1.0932 H   0  0  0  0  0  0  0  0  0  0  0  0
    3.0086   -0.4990   -0.6706 H   0  0  0  0  0  0  0  0  0  0  0  0
  -10.6771    7.8179    0.6536 H   0  0  0  0  0  0  0  0  0  0  0  0
  -10.4076    8.7230    2.1672 H   0  0  0  0  0  0  0  0  0  0  0  0
   -9.3159    8.9005    0.8171 H   0  0  0  0  0  0  0  0  0  0  0  0
  1 25  1  0  0  0  0
  2  7  1  0  0  0  0
  2  8  1  0  0  0  0
  3  9  1  0  0  0  0
  3 14  1  0  0  0  0
  4 10  1  0  0  0  0
  4 23  1  0  0  0  0
  5 13  1  0  0  0  0
  5 26  1  0  0  0  0
  5 46  1  0  0  0  0
  6 14  2  0  0  0  0
  6 24  1  0  0  0  0
  7  9  1  0  0  0  0
  7 27  1  0  0  0  0
  7 28  1  0  0  0  0
  8 10  1  0  0  0  0
  8 29  1  0  0  0  0
  8 30  1  0  0  0  0
  9 31  1  0  0  0  0
  9 32  1  0  0  0  0
 10 33  1  0  0  0  0
 10 34  1  0  0  0  0
 11 15  1  0  0  0  0
 11 16  2  0  0  0  0
 11 17  1  0  0  0  0
 12 18  1  0  0  0  0
 12 21  1  0  0  0  0
 12 24  2  0  0  0  0
 13 19  2  0  0  0  0
 13 20  1  0  0  0  0
 14 22  1  0  0  0  0
 15 18  2  0  0  0  0
 15 35  1  0  0  0  0
 16 19  1  0  0  0  0
 16 36  1  0  0  0  0
 17 20  2  0  0  0  0
 17 37  1  0  0  0  0
 18 38  1  0  0  0  0
 19 39  1  0  0  0  0
 20 40  1  0  0  0  0
 21 22  2  0  0  0  0
 21 41  1  0  0  0  0
 22 42  1  0  0  0  0
 23 25  1  0  0  0  0
 23 43  1  0  0  0  0
 23 44  1  0  0  0  0
 24 45  1  0  0  0  0
 25 47  1  0  0  0  0
 25 48  1  0  0  0  0
 26 49  1  0  0  0  0
 26 50  1  0  0  0  0
 26 51  1  0  0  0  0
M  ISO  1   1  18
M  END
>  <DRUGBANK_ID>
DB09149

>  <COMMON_NAME>
Florbetapir (18F)

>  <CAS_NUMBER>
956103-76-7

>  <UNII>
6W15Z5R0RU

>  <SYNONYMS>
[18F]Florbetapir; 4-{(E)-2-[6-(2-{2-[2-(18F)fluoroethoxy]ethoxy}ethoxy)pyridin-3-yl]ethenyl}-N-methylaniline; Florbetapir (18F); Florbetapir F-18; Florbetapir F18; florbetapir-fluorine-18

$$$$
