
 OpenBabel10282417233D

 57 59  0  0  0  0  0  0  0  0999 V2000
    0.6576    0.1572    0.1202 C   0  0  0  0  0  0  0  0  0  0  0  0
    0.5232    0.3591   -1.3780 C   0  0  0  0  0  0  0  0  0  0  0  0
    1.2112   -0.9222   -2.4692 S   0  0  0  0  0  0  0  0  0  0  0  0
    0.9069   -2.2057   -1.9294 O   0  0  0  0  0  0  0  0  0  0  0  0
    0.7313   -0.5884   -3.8242 O   0  0  0  0  0  0  0  0  0  0  0  0
    2.8821   -0.8027   -2.5946 N   0  0  0  0  0  0  0  0  0  0  0  0
    3.7077   -0.1055   -1.6730 C   0  0  0  0  0  0  0  0  0  0  0  0
    3.5112   -0.2434   -0.3186 C   0  0  0  0  0  0  0  0  0  0  0  0
    3.9811    0.7231    0.5774 C   0  0  0  0  0  0  0  0  0  0  0  0
    4.9310    1.6334    0.1070 C   0  0  0  0  0  0  0  0  0  0  0  0
    5.7723    2.5336    0.7726 N   0  0  0  0  0  0  0  0  0  0  0  0
    5.7921    2.6087    2.2700 C   0  0  0  0  0  0  0  0  0  0  0  0
    6.9490    1.8991    3.2535 C   0  0  0  0  0  0  0  0  0  0  0  0
    8.4272    2.2784    3.1126 C   0  0  0  0  0  0  0  0  0  0  0  0
    8.7428    1.8878    1.7233 C   0  0  0  0  0  0  0  0  0  0  0  0
    8.6092    0.4861    1.1867 C   0  0  0  0  0  0  0  0  0  0  0  0
    8.5523    0.4796   -0.1744 F   0  0  0  0  0  0  0  0  0  0  0  0
    9.7014   -0.2132    1.5305 F   0  0  0  0  0  0  0  0  0  0  0  0
    7.3183   -0.1230    1.7052 C   0  0  0  0  0  0  0  0  0  0  0  0
    7.0272    0.3560    3.1281 C   0  0  0  0  0  0  0  0  0  0  0  0
    6.6562    3.0635   -0.2328 C   0  0  0  0  0  0  0  0  0  0  0  0
    6.4067    2.4725   -1.3952 N   0  0  0  0  0  0  0  0  0  0  0  0
    5.3752    1.5867   -1.2100 C   0  0  0  0  0  0  0  0  0  0  0  0
    4.7638    0.6923   -2.1222 C   0  0  0  0  0  0  0  0  0  0  0  0
    7.9528    3.9716   -0.0213 C   0  0  0  0  0  0  0  0  0  0  0  0
    9.3756    3.2590   -0.5086 C   0  0  0  0  0  0  0  0  0  0  0  0
    7.9479    5.1809   -0.9280 C   0  0  0  0  0  0  0  0  0  0  0  0
    7.8584    4.6931    1.3621 C   0  0  0  0  0  0  0  0  0  0  0  0
    0.6100   -0.8909    0.4295 H   0  0  0  0  0  0  0  0  0  0  0  0
   -0.0635    0.7411    0.6972 H   0  0  0  0  0  0  0  0  0  0  0  0
    1.5791    0.5949    0.4709 H   0  0  0  0  0  0  0  0  0  0  0  0
   -0.5535    0.3448   -1.5866 H   0  0  0  0  0  0  0  0  0  0  0  0
    0.9123    1.3272   -1.6980 H   0  0  0  0  0  0  0  0  0  0  0  0
    3.3043   -1.5852   -3.0977 H   0  0  0  0  0  0  0  0  0  0  0  0
    2.8664   -1.0400    0.0443 H   0  0  0  0  0  0  0  0  0  0  0  0
    3.6231    0.7265    1.6016 H   0  0  0  0  0  0  0  0  0  0  0  0
    5.6248    3.6684    2.5177 H   0  0  0  0  0  0  0  0  0  0  0  0
    4.8493    2.1566    2.6096 H   0  0  0  0  0  0  0  0  0  0  0  0
    6.6948    2.1926    4.2805 H   0  0  0  0  0  0  0  0  0  0  0  0
    8.6119    3.3377    3.3318 H   0  0  0  0  0  0  0  0  0  0  0  0
    9.1902    1.7823    3.7171 H   0  0  0  0  0  0  0  0  0  0  0  0
    7.9248    2.2683    1.1933 H   0  0  0  0  0  0  0  0  0  0  0  0
    9.6289    2.4703    1.5372 H   0  0  0  0  0  0  0  0  0  0  0  0
    6.4969    0.1701    1.0670 H   0  0  0  0  0  0  0  0  0  0  0  0
    7.3449   -1.2074    1.6122 H   0  0  0  0  0  0  0  0  0  0  0  0
    7.8800    0.0090    3.7315 H   0  0  0  0  0  0  0  0  0  0  0  0
    6.1249   -0.0888    3.5338 H   0  0  0  0  0  0  0  0  0  0  0  0
    5.1102    0.6465   -3.1491 H   0  0  0  0  0  0  0  0  0  0  0  0
    9.3577    2.9895   -1.5697 H   0  0  0  0  0  0  0  0  0  0  0  0
   10.2288    3.9110   -0.2702 H   0  0  0  0  0  0  0  0  0  0  0  0
    9.7535    2.2893   -0.1587 H   0  0  0  0  0  0  0  0  0  0  0  0
    7.0409    5.7649   -0.7759 H   0  0  0  0  0  0  0  0  0  0  0  0
    8.8162    5.7986   -0.6506 H   0  0  0  0  0  0  0  0  0  0  0  0
    8.0402    4.8821   -1.9689 H   0  0  0  0  0  0  0  0  0  0  0  0
    7.0802    5.4686    1.3877 H   0  0  0  0  0  0  0  0  0  0  0  0
    7.4672    4.0813    2.1415 H   0  0  0  0  0  0  0  0  0  0  0  0
    8.8045    5.0844    1.7361 H   0  0  0  0  0  0  0  0  0  0  0  0
  1  2  1  0  0  0  0
  1 29  1  0  0  0  0
  1 30  1  0  0  0  0
  1 31  1  0  0  0  0
  2  3  1  0  0  0  0
  2 32  1  0  0  0  0
  2 33  1  0  0  0  0
  3  4  2  0  0  0  0
  3  5  2  0  0  0  0
  3  6  1  0  0  0  0
  6  7  1  0  0  0  0
  6 34  1  0  0  0  0
  7  8  2  0  0  0  0
  7 24  1  0  0  0  0
  8  9  1  0  0  0  0
  8 35  1  0  0  0  0
  9 10  2  0  0  0  0
  9 36  1  0  0  0  0
 10 11  1  0  0  0  0
 10 23  1  0  0  0  0
 11 12  1  0  0  0  0
 11 21  1  0  0  0  0
 12 13  1  0  0  0  0
 12 37  1  0  0  0  0
 12 38  1  0  0  0  0
 13 14  1  0  0  0  0
 13 20  1  0  0  0  0
 13 39  1  0  0  0  0
 14 15  1  0  0  0  0
 14 40  1  0  0  0  0
 14 41  1  0  0  0  0
 15 16  1  0  0  0  0
 15 42  1  0  0  0  0
 15 43  1  0  0  0  0
 16 17  1  0  0  0  0
 16 18  1  0  0  0  0
 16 19  1  0  0  0  0
 19 20  1  0  0  0  0
 19 44  1  0  0  0  0
 19 45  1  0  0  0  0
 20 46  1  0  0  0  0
 20 47  1  0  0  0  0
 21 22  2  0  0  0  0
 21 25  1  0  0  0  0
 22 23  1  0  0  0  0
 23 24  2  0  0  0  0
 24 48  1  0  0  0  0
 25 26  1  0  0  0  0
 25 27  1  0  0  0  0
 25 28  1  0  0  0  0
 26 49  1  0  0  0  0
 26 50  1  0  0  0  0
 26 51  1  0  0  0  0
 27 52  1  0  0  0  0
 27 53  1  0  0  0  0
 27 54  1  0  0  0  0
 28 55  1  0  0  0  0
 28 56  1  0  0  0  0
 28 57  1  0  0  0  0
M  END
>  <DRUGBANK_ID>
DB17077

>  <COMMON_NAME>
AZD-1940

>  <CAS_NUMBER>
881413-29-2

>  <UNII>
0J0035E9FT

>  <SYNONYMS>
Ethanesulfonamide, n-(1-((4,4-difluorocyclohexyl)methyl)-2-(1,1-dimethylethyl)-1h-benzimidazol-5-yl)-

$$$$
