
 OpenBabel10282417153D

 37 37  0  0  0  0  0  0  0  0999 V2000
    2.2272   -0.0321   -0.0370 C   0  0  0  0  0  0  0  0  0  0  0  0
    0.7844    0.0024   -0.0530 N   0  0  0  0  0  0  0  0  0  0  0  0
   -0.0170   -1.1414   -0.0891 C   0  0  0  0  0  0  0  0  0  0  0  0
   -1.3108   -0.6494   -0.1018 C   0  0  0  0  0  0  0  0  0  0  0  0
   -1.3305    0.7178   -0.0705 N   0  0  0  0  0  0  0  0  0  0  0  0
   -0.0672    1.0879   -0.0289 C   0  0  0  0  0  0  0  0  0  0  0  0
    0.3194    2.4825    0.0349 N   0  3  0  0  0  0  0  0  0  0  0  0
   -0.5951    3.3257    0.0367 O   0  0  0  0  0  0  0  0  0  0  0  0
    1.5184    2.7588    0.0874 O   0  5  0  0  0  0  0  0  0  0  0  0
    0.4561   -2.5669   -0.0177 C   0  0  0  0  0  0  0  0  0  0  0  0
   -0.0451   -3.2216    1.1677 O   0  0  0  0  0  0  0  0  0  0  0  0
    0.5191   -2.4088    2.5868 P   0  0  0  0  0  0  0  0  0  0  0  0
   -0.7748   -1.6429    2.5319 O   0  0  0  0  0  0  0  0  0  0  0  0
    0.4542   -3.8369    3.4618 N   0  0  0  0  0  0  0  0  0  0  0  0
   -0.4880   -4.0111    4.5735 C   0  0  0  0  0  0  0  0  0  0  0  0
   -1.9368   -3.7829    4.1765 C   0  0  0  0  0  0  0  0  0  0  0  0
   -2.5300   -5.1678    2.9516 Br  0  0  0  0  0  0  0  0  0  0  0  0
    1.0996   -1.5725    4.0469 N   0  0  0  0  0  0  0  0  0  0  0  0
    0.4423   -0.2345    4.2403 C   0  0  0  0  0  0  0  0  0  0  0  0
   -1.0859   -0.1227    4.5262 C   0  0  0  0  0  0  0  0  0  0  0  0
   -1.5508   -0.9102    6.2396 Br  0  0  0  0  0  0  0  0  0  0  0  0
    2.5503   -0.5765    0.8542 H   0  0  0  0  0  0  0  0  0  0  0  0
    2.5592   -0.5400   -0.9452 H   0  0  0  0  0  0  0  0  0  0  0  0
    2.6820    0.9516   -0.0151 H   0  0  0  0  0  0  0  0  0  0  0  0
   -2.2276   -1.2272   -0.0642 H   0  0  0  0  0  0  0  0  0  0  0  0
    0.0907   -3.1211   -0.8870 H   0  0  0  0  0  0  0  0  0  0  0  0
    1.5475   -2.6380   -0.0064 H   0  0  0  0  0  0  0  0  0  0  0  0
    0.2302   -4.5657    2.7852 H   0  0  0  0  0  0  0  0  0  0  0  0
   -0.3518   -5.0133    4.9953 H   0  0  0  0  0  0  0  0  0  0  0  0
   -0.2228   -3.3563    5.4052 H   0  0  0  0  0  0  0  0  0  0  0  0
   -2.5920   -3.7839    5.0470 H   0  0  0  0  0  0  0  0  0  0  0  0
   -2.1095   -2.8437    3.6645 H   0  0  0  0  0  0  0  0  0  0  0  0
    0.9906   -2.1208    4.8832 H   0  0  0  0  0  0  0  0  0  0  0  0
    0.9639    0.2655    5.0613 H   0  0  0  0  0  0  0  0  0  0  0  0
    0.6701    0.3566    3.3414 H   0  0  0  0  0  0  0  0  0  0  0  0
   -1.3926    0.9240    4.5581 H   0  0  0  0  0  0  0  0  0  0  0  0
   -1.7958   -0.5610    3.8234 H   0  0  0  0  0  0  0  0  0  0  0  0
  1  2  1  0  0  0  0
  1 22  1  0  0  0  0
  1 23  1  0  0  0  0
  1 24  1  0  0  0  0
  2  3  1  0  0  0  0
  2  6  1  0  0  0  0
  3  4  2  0  0  0  0
  3 10  1  0  0  0  0
  4  5  1  0  0  0  0
  4 25  1  0  0  0  0
  5  6  2  0  0  0  0
  6  7  1  0  0  0  0
  7  8  2  0  0  0  0
  7  9  1  0  0  0  0
 10 11  1  0  0  0  0
 10 26  1  0  0  0  0
 10 27  1  0  0  0  0
 11 12  1  0  0  0  0
 12 13  2  0  0  0  0
 12 14  1  0  0  0  0
 12 18  1  0  0  0  0
 14 15  1  0  0  0  0
 14 28  1  0  0  0  0
 15 16  1  0  0  0  0
 15 29  1  0  0  0  0
 15 30  1  0  0  0  0
 16 17  1  0  0  0  0
 16 31  1  0  0  0  0
 16 32  1  0  0  0  0
 18 19  1  0  0  0  0
 18 33  1  0  0  0  0
 19 20  1  0  0  0  0
 19 34  1  0  0  0  0
 19 35  1  0  0  0  0
 20 21  1  0  0  0  0
 20 36  1  0  0  0  0
 20 37  1  0  0  0  0
M  CHG  2   7   1   9  -1
M  END
>  <DRUGBANK_ID>
DB06091

>  <COMMON_NAME>
Evofosfamide

>  <CAS_NUMBER>
918633-87-1

>  <UNII>
8A9RZ3HN8W

>  <SYNONYMS>
(1-methyl-2-nitro-1H-imidazol-5-YL)methyl N,N'-bis(2-bromoethyl)diamidophosphate; (1-methyl-2-nitro-1H-imidazole-5-yl)methyl N,N'-bis(2-bromoethyl) diamidophosphate; Evofosfamide

$$$$
