
 OpenBabel10282417233D

 49 48  0  0  0  0  0  0  0  0999 V2000
    0.5518    0.2435   -0.5187 C   0  0  0  0  0  0  0  0  0  0  0  0
    0.4767   -0.6626   -1.7118 C   0  0  3  0  0  0  0  0  0  0  0  0
    1.1373   -2.0467   -1.4892 C   0  0  0  0  0  0  0  0  0  0  0  0
   -0.4882   -0.2857    0.3277 O   0  0  0  0  0  0  0  0  0  0  0  0
   -0.9299   -0.8841   -1.9215 O   0  0  0  0  0  0  0  0  0  0  0  0
    0.7161   -2.7617   -0.2803 O   0  0  0  0  0  0  0  0  0  0  0  0
    1.2067   -2.7027    0.9964 C   0  0  0  0  0  0  0  0  0  0  0  0
    2.0444   -1.4750    1.3496 C   0  0  0  0  0  0  0  0  0  0  0  0
    1.3029   -0.3691    2.1961 C   0  0  0  0  0  0  0  0  0  0  0  0
    0.7823   -0.9418    3.4917 C   0  0  0  0  0  0  0  0  0  0  0  0
    2.0196   -1.3227    4.2614 C   0  0  0  0  0  0  0  0  0  0  0  0
    2.8853   -0.0584    4.4321 C   0  0  0  0  0  0  0  0  0  0  0  0
    2.0888    0.9986    5.2071 C   0  0  0  0  0  0  0  0  0  0  0  0
    1.6884    0.3971    6.5540 C   0  0  0  0  0  0  0  0  0  0  0  0
    2.9513   -0.0431    7.3045 C   0  0  0  0  0  0  0  0  0  0  0  0
    3.8606    1.1620    7.5668 C   0  0  0  0  0  0  0  0  0  0  0  0
    3.1328    2.2247    8.3894 C   0  0  0  0  0  0  0  0  0  0  0  0
    2.6998    1.6465    9.7265 C   0  0  0  0  0  0  0  0  0  0  0  0
    0.8468   -3.4972    1.8229 O   0  0  0  0  0  0  0  0  0  0  0  0
    0.2927    1.2925   -0.6395 H   0  0  0  0  0  0  0  0  0  0  0  0
    1.5776    0.3059   -0.1385 H   0  0  0  0  0  0  0  0  0  0  0  0
    0.8939   -0.1611   -2.5858 H   0  0  0  0  0  0  0  0  0  0  0  0
    0.7907   -2.6843   -2.3123 H   0  0  0  0  0  0  0  0  0  0  0  0
    2.2295   -2.0187   -1.5366 H   0  0  0  0  0  0  0  0  0  0  0  0
   -0.2772   -1.2003    0.5955 H   0  0  0  0  0  0  0  0  0  0  0  0
   -1.2995   -0.9402   -1.0067 H   0  0  0  0  0  0  0  0  0  0  0  0
    2.9313   -1.8254    1.8847 H   0  0  0  0  0  0  0  0  0  0  0  0
    2.5394   -1.1131    0.4536 H   0  0  0  0  0  0  0  0  0  0  0  0
    1.9509    0.5115    2.2565 H   0  0  0  0  0  0  0  0  0  0  0  0
    0.4316    0.1903    1.8911 H   0  0  0  0  0  0  0  0  0  0  0  0
    0.1472   -0.2143    4.0184 H   0  0  0  0  0  0  0  0  0  0  0  0
    0.0946   -1.7715    3.3114 H   0  0  0  0  0  0  0  0  0  0  0  0
    1.7364   -1.8027    5.1967 H   0  0  0  0  0  0  0  0  0  0  0  0
    2.5823   -2.0989    3.7452 H   0  0  0  0  0  0  0  0  0  0  0  0
    3.8310   -0.3283    4.8987 H   0  0  0  0  0  0  0  0  0  0  0  0
    3.2438    0.3802    3.4973 H   0  0  0  0  0  0  0  0  0  0  0  0
    2.6804    1.9122    5.3100 H   0  0  0  0  0  0  0  0  0  0  0  0
    1.1967    1.3449    4.6718 H   0  0  0  0  0  0  0  0  0  0  0  0
    1.0849    1.1092    7.1196 H   0  0  0  0  0  0  0  0  0  0  0  0
    1.0129   -0.4563    6.4354 H   0  0  0  0  0  0  0  0  0  0  0  0
    2.6741   -0.5592    8.2247 H   0  0  0  0  0  0  0  0  0  0  0  0
    3.5118   -0.8079    6.7564 H   0  0  0  0  0  0  0  0  0  0  0  0
    4.7687    0.8315    8.0782 H   0  0  0  0  0  0  0  0  0  0  0  0
    4.2112    1.6068    6.6266 H   0  0  0  0  0  0  0  0  0  0  0  0
    3.7873    3.0870    8.5379 H   0  0  0  0  0  0  0  0  0  0  0  0
    2.2575    2.6125    7.8541 H   0  0  0  0  0  0  0  0  0  0  0  0
    3.5763    1.2892   10.2745 H   0  0  0  0  0  0  0  0  0  0  0  0
    2.1780    2.3956   10.3217 H   0  0  0  0  0  0  0  0  0  0  0  0
    2.0112    0.8031    9.6090 H   0  0  0  0  0  0  0  0  0  0  0  0
  1  2  1  0  0  0  0
  1  4  1  0  0  0  0
  1 20  1  0  0  0  0
  1 21  1  0  0  0  0
  2  3  1  0  0  0  0
  2  5  1  0  0  0  0
  2 22  1  0  0  0  0
  3  6  1  0  0  0  0
  3 23  1  0  0  0  0
  3 24  1  0  0  0  0
  4 25  1  0  0  0  0
  5 26  1  0  0  0  0
  7  8  1  0  0  0  0
  7 19  2  0  0  0  0
  7  6  1  0  0  0  0
  8  9  1  0  0  0  0
  8 27  1  0  0  0  0
  8 28  1  0  0  0  0
  9 10  1  0  0  0  0
  9 29  1  0  0  0  0
  9 30  1  0  0  0  0
 10 11  1  0  0  0  0
 10 31  1  0  0  0  0
 10 32  1  0  0  0  0
 11 12  1  0  0  0  0
 11 33  1  0  0  0  0
 11 34  1  0  0  0  0
 12 13  1  0  0  0  0
 12 35  1  0  0  0  0
 12 36  1  0  0  0  0
 13 14  1  0  0  0  0
 13 37  1  0  0  0  0
 13 38  1  0  0  0  0
 14 15  1  0  0  0  0
 14 39  1  0  0  0  0
 14 40  1  0  0  0  0
 15 16  1  0  0  0  0
 15 41  1  0  0  0  0
 15 42  1  0  0  0  0
 16 17  1  0  0  0  0
 16 43  1  0  0  0  0
 16 44  1  0  0  0  0
 17 18  1  0  0  0  0
 17 45  1  0  0  0  0
 17 46  1  0  0  0  0
 18 47  1  0  0  0  0
 18 48  1  0  0  0  0
 18 49  1  0  0  0  0
M  END
>  <DRUGBANK_ID>
DB16635

>  <COMMON_NAME>
Glyceryl laurate

>  <CAS_NUMBER>
27215-38-9

>  <UNII>
WR963Y5QYW

>  <SYNONYMS>
Glycerin monolaurate; Glycerol monolaurate; Glyceryl monolaurate; Lauric acid monoglyceride; Monododecanoyl glycerol; Monoglycerol laurate; Monolaurin; Monolauroylglycerin

$$$$
