
 OpenBabel10282417153D

 47 50  0  0  1  0  0  0  0  0999 V2000
    0.2279   -0.1019    0.3657 C   0  0  2  0  0  0  0  0  0  0  0  0
   -0.4161    0.5343   -0.9195 C   0  0  1  0  0  0  0  0  0  0  0  0
    1.7034    0.3742    0.6321 C   0  0  2  0  0  0  0  0  0  0  0  0
    0.1092   -1.6510    0.4193 C   0  0  2  0  0  0  0  0  0  0  0  0
   -0.5221    0.3283    1.5506 O   0  0  0  0  0  0  0  0  0  0  0  0
   -1.8075    0.2934   -1.0823 O   0  0  0  0  0  0  0  0  0  0  0  0
   -0.2146    1.9297   -1.0699 O   0  0  0  0  0  0  0  0  0  0  0  0
    1.7707    1.9068    0.3781 C   0  0  2  0  0  0  0  0  0  0  0  0
    2.8858   -0.4816    0.0767 C   0  0  0  0  0  0  0  0  0  0  0  0
    1.2318   -2.3858   -0.3625 C   0  0  1  0  0  0  0  0  0  0  0  0
   -1.2975   -2.1374   -0.0038 C   0  0  0  0  0  0  0  0  0  0  0  0
   -1.7823    0.9725    1.1588 O   0  0  0  0  0  0  0  0  0  0  0  0
   -2.4406    0.1678    0.1769 C   0  0  2  0  0  0  0  0  0  0  0  0
    1.1282    2.3804   -0.9512 C   0  0  1  0  0  0  0  0  0  0  0  0
    3.1452    2.5163    0.6311 C   0  0  0  0  0  0  0  0  0  0  0  0
    2.6266   -1.9762    0.1340 C   0  0  0  0  0  0  0  0  0  0  0  0
    1.1447   -3.9117   -0.2117 C   0  0  0  0  0  0  0  0  0  0  0  0
   -2.4783   -1.3225    0.5581 C   0  0  0  0  0  0  0  0  0  0  0  0
   -3.8453    0.7301   -0.0326 C   0  0  0  0  0  0  0  0  0  0  0  0
    1.9046    2.2063   -2.1384 O   0  0  0  0  0  0  0  0  0  0  0  0
   -0.0361    0.0224   -1.7969 H   0  0  0  0  0  0  0  0  0  0  0  0
    1.8495    0.2668    1.7188 H   0  0  0  0  0  0  0  0  0  0  0  0
    0.2200   -1.9431    1.4741 H   0  0  0  0  0  0  0  0  0  0  0  0
    1.9755    0.9061   -2.6661 C   0  0  0  0  0  0  0  0  0  0  0  0
    1.1201    2.3330    1.1591 H   0  0  0  0  0  0  0  0  0  0  0  0
    3.7993   -0.2544    0.6430 H   0  0  0  0  0  0  0  0  0  0  0  0
    3.2314   -0.2712   -0.9335 H   0  0  0  0  0  0  0  0  0  0  0  0
    1.1437   -2.1451   -1.4303 H   0  0  0  0  0  0  0  0  0  0  0  0
   -1.3618   -2.1559   -1.1011 H   0  0  0  0  0  0  0  0  0  0  0  0
   -1.4375   -3.1737    0.3195 H   0  0  0  0  0  0  0  0  0  0  0  0
    1.0422    3.4682   -0.8678 H   0  0  0  0  0  0  0  0  0  0  0  0
    3.0827    3.6105    0.6254 H   0  0  0  0  0  0  0  0  0  0  0  0
    3.5117    2.2234    1.6223 H   0  0  0  0  0  0  0  0  0  0  0  0
    3.8793    2.2110   -0.1171 H   0  0  0  0  0  0  0  0  0  0  0  0
    2.7819   -2.3200    1.1632 H   0  0  0  0  0  0  0  0  0  0  0  0
    3.3857   -2.4888   -0.4760 H   0  0  0  0  0  0  0  0  0  0  0  0
    0.1900   -4.3138   -0.5571 H   0  0  0  0  0  0  0  0  0  0  0  0
    1.9296   -4.4019   -0.7984 H   0  0  0  0  0  0  0  0  0  0  0  0
    1.2818   -4.2017    0.8364 H   0  0  0  0  0  0  0  0  0  0  0  0
   -3.3861   -1.7819    0.1472 H   0  0  0  0  0  0  0  0  0  0  0  0
   -2.5236   -1.4375    1.6467 H   0  0  0  0  0  0  0  0  0  0  0  0
   -3.7908    1.7854   -0.3305 H   0  0  0  0  0  0  0  0  0  0  0  0
   -4.3600    0.2080   -0.8488 H   0  0  0  0  0  0  0  0  0  0  0  0
   -4.4533    0.6747    0.8739 H   0  0  0  0  0  0  0  0  0  0  0  0
    1.8368    0.1903   -1.8653 H   0  0  0  0  0  0  0  0  0  0  0  0
    1.1717    0.6763   -3.3677 H   0  0  0  0  0  0  0  0  0  0  0  0
    2.9449    0.7092   -3.1035 H   0  0  0  0  0  0  0  0  0  0  0  0
  1  2  1  0  0  0  0
  1  3  1  0  0  0  0
  1  4  1  0  0  0  0
  1  5  1  1  0  0  0
  2  6  1  0  0  0  0
  2  7  1  0  0  0  0
  2 21  1  6  0  0  0
  3  8  1  0  0  0  0
  3  9  1  0  0  0  0
  3 22  1  1  0  0  0
  4 10  1  0  0  0  0
  4 11  1  0  0  0  0
  4 23  1  1  0  0  0
  5 12  1  0  0  0  0
  6 13  1  0  0  0  0
  7 14  1  0  0  0  0
  8 15  1  0  0  0  0
  8 14  1  0  0  0  0
  8 25  1  1  0  0  0
  9 16  1  0  0  0  0
  9 26  1  0  0  0  0
  9 27  1  0  0  0  0
 10 17  1  0  0  0  0
 10 16  1  0  0  0  0
 10 28  1  6  0  0  0
 11 18  1  0  0  0  0
 11 29  1  0  0  0  0
 11 30  1  0  0  0  0
 13 19  1  6  0  0  0
 13 12  1  0  0  0  0
 13 18  1  0  0  0  0
 14 20  1  0  0  0  0
 14 31  1  1  0  0  0
 15 32  1  0  0  0  0
 15 33  1  0  0  0  0
 15 34  1  0  0  0  0
 16 35  1  0  0  0  0
 16 36  1  0  0  0  0
 17 37  1  0  0  0  0
 17 38  1  0  0  0  0
 17 39  1  0  0  0  0
 18 40  1  0  0  0  0
 18 41  1  0  0  0  0
 19 42  1  0  0  0  0
 19 43  1  0  0  0  0
 19 44  1  0  0  0  0
 20 24  1  0  0  0  0
 24 45  1  0  0  0  0
 24 46  1  0  0  0  0
 24 47  1  0  0  0  0
M  END
>  <DRUGBANK_ID>
DB06697

>  <COMMON_NAME>
Artemether

>  <CAS_NUMBER>
71963-77-4

>  <UNII>
C7D6T3H22J

>  <SYNONYMS>
(1R,4S,5R,8S,9R,10S,12R,13R)-10-methoxy-1,5,9-trimethyl-11,14,15,16-tetraoxatetracyclo[10.3.1.0^{4,13}.0^{8,13}]hexadecane; 10-methoxy-1,5,9-trimethyl-(1R,4S,5R,8S,9R,10S,12R,13R)-11,14,15,16-tetraoxatetracyclo[10.3.1.04,13.08,13]hexadecane; Artemetero; Artemether; Artemetherum; Artemisininelactol methyl ether; Dihydroartemisinin methyl ether; Dihydroqinghaosu methyl ether; methyl-dihydroartemisinine; β-artemether; β-dihydroartemisinin methyl ether

$$$$
