C5D
 OpenBabel10282417163D

 65 66  0  0  0  0  0  0  0  0999 V2000
    1.8344   -1.4116    1.7484 C   0  0  0  0  0  0  0  0  0  0  0  0
    3.1182   -0.9658    1.0381 C   0  0  0  0  0  0  0  0  0  0  0  0
    3.3311    0.4994    1.1388 C   0  0  0  0  0  0  0  0  0  0  0  0
    3.3226    1.6988    1.1487 C   0  0  0  0  0  0  0  0  0  0  0  0
    3.1893    3.1818    1.1171 C   0  0  0  0  0  0  0  0  0  0  0  0
    3.0400    3.7162   -0.3105 C   0  0  0  0  0  0  0  0  0  0  0  0
    1.9480    3.6726    1.8707 C   0  0  0  0  0  0  0  0  0  0  0  0
    4.3963    3.7129    1.7342 O   0  0  0  0  0  0  0  0  0  0  0  0
    1.9032    3.3337   -0.9295 F   0  0  0  0  0  0  0  0  0  0  0  0
    3.0661    5.0741   -0.3211 F   0  0  0  0  0  0  0  0  0  0  0  0
    4.0720    3.3177   -1.0972 F   0  0  0  0  0  0  0  0  0  0  0  0
    1.9548    3.2472    3.1599 F   0  0  0  0  0  0  0  0  0  0  0  0
    1.9196    5.0288    1.9288 F   0  0  0  0  0  0  0  0  0  0  0  0
    0.7778    3.2761    1.3270 F   0  0  0  0  0  0  0  0  0  0  0  0
    0.8527   -1.5735    9.3248 O   0  0  0  0  0  0  0  0  0  0  0  0
   -2.0997   -1.8436    8.8635 C   0  0  1  0  0  0  0  0  0  0  0  0
   -1.3221   -2.3374   10.0852 C   0  0  0  0  0  0  0  0  0  0  0  0
    0.1114   -2.7334    9.7105 C   0  0  1  0  0  0  0  0  0  0  0  0
    0.1255   -3.7772    8.5807 C   0  0  0  0  0  0  0  0  0  0  0  0
   -0.6689   -3.2600    7.4004 C   0  0  0  0  0  0  0  0  0  0  0  0
   -0.1261   -3.0763    6.1855 C   0  0  0  0  0  0  0  0  0  0  0  0
   -0.8591   -2.5216    5.0766 C   0  0  0  0  0  0  0  0  0  0  0  0
   -0.3476   -2.3500    3.8572 C   0  0  0  0  0  0  0  0  0  0  0  0
   -2.0884   -2.9052    7.7645 C   0  0  0  0  0  0  0  0  0  0  0  0
   -1.7108    0.3565    1.4203 C   0  0  0  0  0  0  0  0  0  0  0  0
   -0.5762   -0.4410    2.1231 C   0  0  0  0  0  0  0  0  0  0  0  0
   -1.1589   -1.7481    2.7318 C   0  0  1  0  0  0  0  0  0  0  0  0
   -1.2133   -2.7417    1.5622 C   0  0  0  0  0  0  0  0  0  0  0  0
   -0.2484   -2.2263    0.4954 C   0  0  0  0  0  0  0  0  0  0  0  0
    0.4715   -0.9802    1.0789 C   0  0  2  0  0  0  0  0  0  0  0  0
    0.0046    0.5206    3.1764 C   0  0  0  0  0  0  0  0  0  0  0  0
   -3.4430   -1.5384    9.2181 O   0  0  0  0  0  0  0  0  0  0  0  0
    0.7078   -0.0012   -0.0799 C   0  0  0  0  0  0  0  0  0  0  0  0
   -1.6531   -0.9142    8.4879 H   0  0  0  0  0  0  0  0  0  0  0  0
    0.6158   -3.1457   10.5902 H   0  0  0  0  0  0  0  0  0  0  0  0
   -2.1815   -1.5653    3.0910 H   0  0  0  0  0  0  0  0  0  0  0  0
    1.9200   -1.0480    2.7738 H   0  0  0  0  0  0  0  0  0  0  0  0
    1.8633   -2.5057    1.8450 H   0  0  0  0  0  0  0  0  0  0  0  0
    3.0658   -1.2902   -0.0054 H   0  0  0  0  0  0  0  0  0  0  0  0
    3.9717   -1.4779    1.4876 H   0  0  0  0  0  0  0  0  0  0  0  0
    4.3135    4.6854    1.7252 H   0  0  0  0  0  0  0  0  0  0  0  0
    0.4655   -1.2179    8.5040 H   0  0  0  0  0  0  0  0  0  0  0  0
   -1.3225   -1.5567   10.8535 H   0  0  0  0  0  0  0  0  0  0  0  0
   -1.8432   -3.2026   10.5162 H   0  0  0  0  0  0  0  0  0  0  0  0
    1.1559   -4.0182    8.2965 H   0  0  0  0  0  0  0  0  0  0  0  0
   -0.3451   -4.7046    8.9331 H   0  0  0  0  0  0  0  0  0  0  0  0
    0.9215   -3.3295    6.0180 H   0  0  0  0  0  0  0  0  0  0  0  0
   -1.8871   -2.2122    5.2172 H   0  0  0  0  0  0  0  0  0  0  0  0
    0.6755   -2.6569    3.6811 H   0  0  0  0  0  0  0  0  0  0  0  0
   -2.6054   -3.8141    8.0932 H   0  0  0  0  0  0  0  0  0  0  0  0
   -2.6881   -2.5360    6.9327 H   0  0  0  0  0  0  0  0  0  0  0  0
   -2.4717    0.6883    2.1331 H   0  0  0  0  0  0  0  0  0  0  0  0
   -1.3174    1.2704    0.9577 H   0  0  0  0  0  0  0  0  0  0  0  0
   -2.2099   -0.2272    0.6406 H   0  0  0  0  0  0  0  0  0  0  0  0
   -0.9559   -3.7655    1.8583 H   0  0  0  0  0  0  0  0  0  0  0  0
   -2.2276   -2.7840    1.1451 H   0  0  0  0  0  0  0  0  0  0  0  0
    0.4509   -3.0093    0.1823 H   0  0  0  0  0  0  0  0  0  0  0  0
   -0.8277   -1.9613   -0.3986 H   0  0  0  0  0  0  0  0  0  0  0  0
    0.4686    1.3744    2.6822 H   0  0  0  0  0  0  0  0  0  0  0  0
   -0.7757    0.8982    3.8449 H   0  0  0  0  0  0  0  0  0  0  0  0
    0.7614    0.0786    3.8268 H   0  0  0  0  0  0  0  0  0  0  0  0
   -3.8749   -2.3642    9.4925 H   0  0  0  0  0  0  0  0  0  0  0  0
   -0.1916    0.3827   -0.5577 H   0  0  0  0  0  0  0  0  0  0  0  0
    1.2007    0.8886    0.2880 H   0  0  0  0  0  0  0  0  0  0  0  0
    1.2960   -0.4674   -0.8756 H   0  0  0  0  0  0  0  0  0  0  0  0
  1  2  1  0  0  0  0
  1 37  1  0  0  0  0
  1 38  1  0  0  0  0
  2  3  1  0  0  0  0
  2 39  1  0  0  0  0
  2 40  1  0  0  0  0
  3  4  3  0  0  0  0
  4  5  1  0  0  0  0
  5  6  1  0  0  0  0
  5  7  1  0  0  0  0
  5  8  1  0  0  0  0
  6  9  1  0  0  0  0
  6 10  1  0  0  0  0
  6 11  1  0  0  0  0
  7 12  1  0  0  0  0
  7 13  1  0  0  0  0
  7 14  1  0  0  0  0
  8 41  1  0  0  0  0
 15 42  1  0  0  0  0
 16 17  1  0  0  0  0
 16 24  1  0  0  0  0
 16 32  1  0  0  0  0
 16 34  1  6  0  0  0
 17 18  1  0  0  0  0
 17 43  1  0  0  0  0
 17 44  1  0  0  0  0
 18 15  1  0  0  0  0
 18 19  1  0  0  0  0
 18 35  1  1  0  0  0
 19 20  1  0  0  0  0
 19 45  1  0  0  0  0
 19 46  1  0  0  0  0
 20 21  2  0  0  0  0
 20 24  1  0  0  0  0
 21 22  1  0  0  0  0
 21 47  1  0  0  0  0
 22 23  2  0  0  0  0
 22 48  1  0  0  0  0
 23 49  1  0  0  0  0
 24 50  1  0  0  0  0
 24 51  1  0  0  0  0
 25 26  1  0  0  0  0
 25 52  1  0  0  0  0
 25 53  1  0  0  0  0
 25 54  1  0  0  0  0
 26 27  1  0  0  0  0
 26 30  1  0  0  0  0
 26 31  1  0  0  0  0
 27 23  1  0  0  0  0
 27 28  1  0  0  0  0
 27 36  1  1  0  0  0
 28 29  1  0  0  0  0
 28 55  1  0  0  0  0
 28 56  1  0  0  0  0
 29 30  1  0  0  0  0
 29 57  1  0  0  0  0
 29 58  1  0  0  0  0
 30 33  1  6  0  0  0
 30  1  1  0  0  0  0
 31 59  1  0  0  0  0
 31 60  1  0  0  0  0
 31 61  1  0  0  0  0
 32 62  1  0  0  0  0
 33 63  1  0  0  0  0
 33 64  1  0  0  0  0
 33 65  1  0  0  0  0
M  END
>  <DRUGBANK_ID>
DB07530

>  <COMMON_NAME>
(1R,3R)-5-[(2E)-3-{(1S,3R)-2,2,3-trimethyl-3-[6,6,6-trifluoro-5-hydroxy-5-(trifluoromethyl)hex-3-yn-1-yl]cyclopentyl}prop-2-en-1-ylidene]cyclohexane-1,3-diol

$$$$
