IEM
 OpenBabel10282417173D

 38 38  0  0  0  0  0  0  0  0999 V2000
    1.0236   -0.2412    0.0046 C   0  0  0  0  0  0  0  0  0  0  0  0
    0.3735   -0.9814    1.1541 C   0  0  0  0  0  0  0  0  0  0  0  0
   -0.8139   -1.5982    1.0520 C   0  0  0  0  0  0  0  0  0  0  0  0
   -1.3825   -2.3135    2.2365 C   0  0  1  0  0  0  0  0  0  0  0  0
   -1.1572   -1.5724    3.5653 C   0  0  2  0  0  0  0  0  0  0  0  0
    0.2886   -0.9964    3.6348 C   0  0  2  0  0  0  0  0  0  0  0  0
    0.4120    0.0741    4.6180 O   0  0  0  0  0  0  0  0  0  0  0  0
   -0.5647    1.1129    4.7018 C   0  0  0  0  0  0  0  0  0  0  0  0
   -0.3748    2.1171    3.5692 C   0  0  0  0  0  0  0  0  0  0  0  0
   -0.6213    1.5138    2.2209 C   0  0  0  0  0  0  0  0  0  0  0  0
   -1.3086    3.2870    3.5913 C   0  0  0  0  0  0  0  0  0  0  0  0
   -0.5486   -3.3754    5.1198 C   0  0  0  0  0  0  0  0  0  0  0  0
   -0.7680   -4.0772    6.4129 C   0  0  0  0  0  0  0  0  0  0  0  0
   -1.4443   -2.3958    4.7594 N   0  0  0  0  0  0  0  0  0  0  0  0
    0.2162    0.2571   -0.9567 O   0  0  0  0  0  0  0  0  0  0  0  0
    2.2353   -0.0044   -0.0187 O   0  0  0  0  0  0  0  0  0  0  0  0
   -2.7841   -2.4986    2.0055 O   0  0  0  0  0  0  0  0  0  0  0  0
    1.0238   -0.8659    2.3868 O   0  0  0  0  0  0  0  0  0  0  0  0
    0.4254   -3.6755    4.4334 O   0  0  0  0  0  0  0  0  0  0  0  0
   -0.9318   -3.3058    2.2811 H   0  0  0  0  0  0  0  0  0  0  0  0
   -1.9165   -0.7827    3.6122 H   0  0  0  0  0  0  0  0  0  0  0  0
    0.9544   -1.7026    4.1094 H   0  0  0  0  0  0  0  0  0  0  0  0
   -1.3433   -1.6589    0.1084 H   0  0  0  0  0  0  0  0  0  0  0  0
   -1.5888    0.7333    4.7848 H   0  0  0  0  0  0  0  0  0  0  0  0
   -0.3982    1.6237    5.6617 H   0  0  0  0  0  0  0  0  0  0  0  0
    0.6773    2.4316    3.6039 H   0  0  0  0  0  0  0  0  0  0  0  0
   -1.5525    0.9391    2.1588 H   0  0  0  0  0  0  0  0  0  0  0  0
   -0.5242    2.1686    1.3570 H   0  0  0  0  0  0  0  0  0  0  0  0
    0.2495    0.9286    2.1232 H   0  0  0  0  0  0  0  0  0  0  0  0
   -1.1895    3.8766    4.4945 H   0  0  0  0  0  0  0  0  0  0  0  0
   -1.0863    3.9102    2.7160 H   0  0  0  0  0  0  0  0  0  0  0  0
   -2.3397    2.9308    3.4950 H   0  0  0  0  0  0  0  0  0  0  0  0
   -0.6795   -5.1434    6.1899 H   0  0  0  0  0  0  0  0  0  0  0  0
    0.0280   -3.7880    7.1071 H   0  0  0  0  0  0  0  0  0  0  0  0
   -1.7426   -3.8693    6.8516 H   0  0  0  0  0  0  0  0  0  0  0  0
   -2.3197   -2.2785    5.2580 H   0  0  0  0  0  0  0  0  0  0  0  0
   -0.7477    0.2196   -0.8359 H   0  0  0  0  0  0  0  0  0  0  0  0
   -3.2133   -1.6310    1.9247 H   0  0  0  0  0  0  0  0  0  0  0  0
  1  2  1  0  0  0  0
  1 15  1  0  0  0  0
  1 16  2  0  0  0  0
  2  3  2  0  0  0  0
  2 18  1  0  0  0  0
  3  4  1  0  0  0  0
  3 23  1  0  0  0  0
  4  5  1  0  0  0  0
  4 17  1  0  0  0  0
  4 20  1  1  0  0  0
  5  6  1  0  0  0  0
  5 21  1  1  0  0  0
  5 14  1  0  0  0  0
  6  7  1  0  0  0  0
  6 18  1  0  0  0  0
  6 22  1  1  0  0  0
  7  8  1  0  0  0  0
  8  9  1  0  0  0  0
  8 24  1  0  0  0  0
  8 25  1  0  0  0  0
  9 10  1  0  0  0  0
  9 11  1  0  0  0  0
  9 26  1  0  0  0  0
 10 27  1  0  0  0  0
 10 28  1  0  0  0  0
 10 29  1  0  0  0  0
 11 30  1  0  0  0  0
 11 31  1  0  0  0  0
 11 32  1  0  0  0  0
 12 13  1  0  0  0  0
 12 14  1  0  0  0  0
 12 19  2  0  0  0  0
 13 33  1  0  0  0  0
 13 34  1  0  0  0  0
 13 35  1  0  0  0  0
 14 36  1  0  0  0  0
 15 37  1  0  0  0  0
 17 38  1  0  0  0  0
M  END
>  <DRUGBANK_ID>
DB07960

>  <COMMON_NAME>
5-ACETAMIDO-5,6-DIHYDRO-4-HYDROXY-6-ISOBUTOXY-4H-PYRAN-2-CARBOXYLIC ACID

$$$$
