
 OpenBabel10282417243D

 95 99  0  0  1  0  0  0  0  0999 V2000
   -3.9237   -7.7624   -1.9759 H   0  0  0  0  0  0  0  0  0  0  0  0
   -4.9016   -7.5308   -1.5455 C   0  0  2  0  0  0  0  0  0  0  0  0
   -4.7336   -7.0144    0.5734 C   0  0  0  0  0  0  0  0  0  0  0  0
   -6.0155   -5.2075    0.9445 C   0  0  0  0  0  0  0  0  0  0  0  0
   -6.1009   -5.7872   -0.8325 C   0  0  0  0  0  0  0  0  0  0  0  0
   -7.1533   -6.7513   -0.9212 C   0  0  0  0  0  0  0  0  0  0  0  0
   -5.1412   -5.7357   -1.7488 C   0  0  0  0  0  0  0  0  0  0  0  0
   -5.7711   -6.3666   -2.7154 C   0  0  1  0  0  0  0  0  0  0  0  0
   -6.8107   -6.6149   -2.7220 H   0  0  0  0  0  0  0  0  0  0  0  0
   -5.9721   -5.1768   -3.5900 C   0  0  0  0  0  0  0  0  0  0  0  0
   -6.5065   -3.8629   -3.3821 C   0  0  0  0  0  0  0  0  0  0  0  0
   -6.9579   -3.1970   -2.2738 O   0  0  0  0  0  0  0  0  0  0  0  0
   -6.8150   -3.8762   -1.0940 C   0  0  2  0  0  0  0  0  0  0  0  0
   -4.9970   -3.9741   -0.7329 O   0  0  0  0  0  0  0  0  0  0  0  0
   -4.5654   -5.4595    0.3296 C   0  0  2  0  0  0  0  0  0  0  0  0
   -2.9989   -5.9043    0.5365 C   0  0  0  0  0  0  0  0  0  0  0  0
   -2.4150   -4.6819    0.5581 O   0  0  0  0  0  0  0  0  0  0  0  0
   -2.8937   -3.7959    1.6122 C   0  0  2  0  0  0  0  0  0  0  0  0
   -4.1659   -3.7252    2.2732 O   0  0  0  0  0  0  0  0  0  0  0  0
   -4.2004   -3.0723    3.4973 C   0  0  2  0  0  0  0  0  0  0  0  0
   -5.6014   -3.1505    4.1206 C   0  0  0  0  0  0  0  0  0  0  0  0
   -5.9962   -4.4955    4.4052 O   0  0  0  0  0  0  0  0  0  0  0  0
   -3.8409   -1.6564    3.1163 C   0  0  1  0  0  0  0  0  0  0  0  0
   -3.7041   -0.9082    4.3057 O   0  0  0  0  0  0  0  0  0  0  0  0
   -2.5538   -1.6141    2.2584 C   0  0  2  0  0  0  0  0  0  0  0  0
   -2.2722   -0.2970    1.8358 O   0  0  0  0  0  0  0  0  0  0  0  0
   -2.6191   -2.4770    1.0221 C   0  0  1  0  0  0  0  0  0  0  0  0
   -1.3511   -2.5568    0.3582 O   0  0  0  0  0  0  0  0  0  0  0  0
   -6.2914   -6.8355    0.9335 C   0  0  1  0  0  0  0  0  0  0  0  0
   -6.3394   -7.7207    2.1440 O   0  0  0  0  0  0  0  0  0  0  0  0
   -8.2531   -6.3585    0.7222 C   0  0  2  0  0  0  0  0  0  0  0  0
   -8.8490   -7.7473    0.6718 O   0  0  0  0  0  0  0  0  0  0  0  0
   -8.3347   -5.1267   -0.9795 C   0  0  1  0  0  0  0  0  0  0  0  0
   -9.6101   -4.7503   -1.1504 O   0  0  0  0  0  0  0  0  0  0  0  0
   -6.6547   -2.9542   -4.4079 C   0  0  0  0  0  0  0  0  0  0  0  0
   -6.3048   -3.3179   -5.6723 C   0  0  0  0  0  0  0  0  0  0  0  0
   -6.4517   -2.2655   -6.7510 C   0  0  0  0  0  0  0  0  0  0  0  0
   -5.6343   -2.6270   -7.9816 C   0  0  0  0  0  0  0  0  0  0  0  0
   -6.1395   -3.9053   -8.6681 C   0  0  0  0  0  0  0  0  0  0  0  0
   -7.6024   -3.8441   -9.0008 C   0  0  0  0  0  0  0  0  0  0  0  0
   -7.7652   -2.7978  -10.0527 C   0  0  0  0  0  0  0  0  0  0  0  0
   -5.8015   -4.6577   -5.8255 C   0  0  0  0  0  0  0  0  0  0  0  0
   -5.7028   -5.6249   -4.8192 C   0  0  0  0  0  0  0  0  0  0  0  0
   -5.2141   -6.9411   -4.8037 O   0  0  0  0  0  0  0  0  0  0  0  0
   -5.5554   -8.0448   -3.4386 C   0  0  0  0  0  0  0  0  0  0  0  0
   -5.5808   -9.3718   -4.5625 C   0  0  0  0  0  0  0  0  0  0  0  0
   -7.1484   -8.3228   -3.6091 C   0  0  0  0  0  0  0  0  0  0  0  0
   -4.4402   -7.3563    1.9095 H   0  0  0  0  0  0  0  0  0  0  0  0
   -4.8759   -6.4117    1.9085 H   0  0  0  0  0  0  0  0  0  0  0  0
   -5.8269   -4.4197    1.7328 H   0  0  0  0  0  0  0  0  0  0  0  0
   -5.6629   -3.9527    0.7287 H   0  0  0  0  0  0  0  0  0  0  0  0
   -7.1833   -5.6362   -0.1043 H   0  0  0  0  0  0  0  0  0  0  0  0
   -8.1865   -6.9819   -1.2102 H   0  0  0  0  0  0  0  0  0  0  0  0
   -7.1067   -7.7239   -0.5573 H   0  0  0  0  0  0  0  0  0  0  0  0
   -4.1359   -5.3748   -1.9017 H   0  0  0  0  0  0  0  0  0  0  0  0
   -7.1050   -3.4931   -0.1474 H   0  0  0  0  0  0  0  0  0  0  0  0
   -4.3331   -5.1023    1.3188 H   0  0  0  0  0  0  0  0  0  0  0  0
   -2.9141   -6.3711    1.5643 H   0  0  0  0  0  0  0  0  0  0  0  0
   -2.8407   -6.7170   -0.2072 H   0  0  0  0  0  0  0  0  0  0  0  0
   -2.3321   -4.0801    2.4652 H   0  0  0  0  0  0  0  0  0  0  0  0
   -3.5082   -3.5952    4.1647 H   0  0  0  0  0  0  0  0  0  0  0  0
   -5.5741   -2.6167    5.0703 H   0  0  0  0  0  0  0  0  0  0  0  0
   -6.3671   -2.7057    3.4743 H   0  0  0  0  0  0  0  0  0  0  0  0
   -6.1182   -4.9533    3.5625 H   0  0  0  0  0  0  0  0  0  0  0  0
   -4.6509   -1.2448    2.4979 H   0  0  0  0  0  0  0  0  0  0  0  0
   -3.0019   -1.3330    4.8304 H   0  0  0  0  0  0  0  0  0  0  0  0
   -1.7234   -1.9797    2.8767 H   0  0  0  0  0  0  0  0  0  0  0  0
   -2.9803   -0.0524    1.2122 H   0  0  0  0  0  0  0  0  0  0  0  0
   -3.3957   -2.1559    0.3075 H   0  0  0  0  0  0  0  0  0  0  0  0
   -0.7789   -3.0950    0.9387 H   0  0  0  0  0  0  0  0  0  0  0  0
   -6.0219   -7.9781    0.3097 H   0  0  0  0  0  0  0  0  0  0  0  0
   -6.4242   -7.0724    2.8354 H   0  0  0  0  0  0  0  0  0  0  0  0
   -8.1230   -5.8642    1.7182 H   0  0  0  0  0  0  0  0  0  0  0  0
   -8.4816   -8.3446   -0.0395 H   0  0  0  0  0  0  0  0  0  0  0  0
   -8.1114   -5.6043   -2.0320 H   0  0  0  0  0  0  0  0  0  0  0  0
   -9.5438   -4.4030   -0.2649 H   0  0  0  0  0  0  0  0  0  0  0  0
   -6.9956   -1.9574   -4.1375 H   0  0  0  0  0  0  0  0  0  0  0  0
   -7.5124   -2.1291   -7.0106 H   0  0  0  0  0  0  0  0  0  0  0  0
   -6.1362   -1.2753   -6.3821 H   0  0  0  0  0  0  0  0  0  0  0  0
   -5.6861   -1.8094   -8.7081 H   0  0  0  0  0  0  0  0  0  0  0  0
   -4.5793   -2.7028   -7.6975 H   0  0  0  0  0  0  0  0  0  0  0  0
   -5.4767   -4.1787   -9.4874 H   0  0  0  0  0  0  0  0  0  0  0  0
   -6.1518   -4.8173   -8.1087 H   0  0  0  0  0  0  0  0  0  0  0  0
   -7.9197   -4.8327   -9.3419 H   0  0  0  0  0  0  0  0  0  0  0  0
   -8.2084   -3.6319   -8.1113 H   0  0  0  0  0  0  0  0  0  0  0  0
   -7.1352   -3.0602  -10.9069 H   0  0  0  0  0  0  0  0  0  0  0  0
   -8.8059   -2.7337  -10.3428 H   0  0  0  0  0  0  0  0  0  0  0  0
   -7.4508   -1.8202   -9.6790 H   0  0  0  0  0  0  0  0  0  0  0  0
   -5.3252   -4.9356   -6.7335 H   0  0  0  0  0  0  0  0  0  0  0  0
   -6.4537   -9.2754   -5.3804 H   0  0  0  0  0  0  0  0  0  0  0  0
   -4.8017   -9.6709   -5.2548 H   0  0  0  0  0  0  0  0  0  0  0  0
   -5.8545  -10.2440   -3.9821 H   0  0  0  0  0  0  0  0  0  0  0  0
   -7.4030   -9.3807   -3.6272 H   0  0  0  0  0  0  0  0  0  0  0  0
   -7.5896   -8.1567   -2.6727 H   0  0  0  0  0  0  0  0  0  0  0  0
   -7.6580   -7.9218   -4.5187 H   0  0  0  0  0  0  0  0  0  0  0  0
  2  3  1  0  0  0  0
  2  8  1  0  0  0  0
  2 45  1  0  0  0  0
  2  1  1  6  0  0  0
  3  4  1  0  0  0  0
  3 48  1  0  0  0  0
  3 49  1  0  0  0  0
  4  5  1  0  0  0  0
  4 50  1  0  0  0  0
  4 51  1  0  0  0  0
  5  7  2  0  0  0  0
  5  6  1  0  0  0  0
  6 52  1  0  0  0  0
  6 53  1  0  0  0  0
  6 54  1  0  0  0  0
  7 55  1  0  0  0  0
  8  7  1  0  0  0  0
  8 10  1  0  0  0  0
  8  9  1  1  0  0  0
 10 11  2  0  0  0  0
 10 43  1  0  0  0  0
 11 35  1  0  0  0  0
 11 12  1  0  0  0  0
 13 14  1  0  0  0  0
 13 56  1  1  0  0  0
 13 12  1  0  0  0  0
 15 14  1  0  0  0  0
 15 16  1  0  0  0  0
 15 57  1  1  0  0  0
 16 17  1  0  0  0  0
 16 58  1  0  0  0  0
 16 59  1  0  0  0  0
 18 19  1  0  0  0  0
 18 60  1  1  0  0  0
 18 17  1  0  0  0  0
 20 19  1  0  0  0  0
 20 21  1  0  0  0  0
 20 61  1  1  0  0  0
 21 22  1  0  0  0  0
 21 62  1  0  0  0  0
 21 63  1  0  0  0  0
 22 64  1  0  0  0  0
 23 20  1  0  0  0  0
 23 24  1  0  0  0  0
 23 25  1  0  0  0  0
 23 65  1  6  0  0  0
 24 66  1  0  0  0  0
 25 26  1  0  0  0  0
 25 27  1  0  0  0  0
 25 67  1  1  0  0  0
 26 68  1  0  0  0  0
 27 18  1  0  0  0  0
 27 28  1  0  0  0  0
 27 69  1  6  0  0  0
 28 70  1  0  0  0  0
 29 15  1  0  0  0  0
 29 30  1  0  0  0  0
 29 31  1  0  0  0  0
 29 71  1  6  0  0  0
 30 72  1  0  0  0  0
 31 32  1  0  0  0  0
 31 33  1  0  0  0  0
 31 73  1  1  0  0  0
 32 74  1  0  0  0  0
 33 13  1  0  0  0  0
 33 34  1  0  0  0  0
 33 75  1  6  0  0  0
 34 76  1  0  0  0  0
 35 36  2  0  0  0  0
 35 77  1  0  0  0  0
 36 42  1  0  0  0  0
 36 37  1  0  0  0  0
 37 38  1  0  0  0  0
 37 78  1  0  0  0  0
 37 79  1  0  0  0  0
 38 39  1  0  0  0  0
 38 80  1  0  0  0  0
 38 81  1  0  0  0  0
 39 40  1  0  0  0  0
 39 82  1  0  0  0  0
 39 83  1  0  0  0  0
 40 41  1  0  0  0  0
 40 84  1  0  0  0  0
 40 85  1  0  0  0  0
 41 86  1  0  0  0  0
 41 87  1  0  0  0  0
 41 88  1  0  0  0  0
 42 43  2  0  0  0  0
 42 89  1  0  0  0  0
 43 44  1  0  0  0  0
 44 45  1  0  0  0  0
 45 46  1  0  0  0  0
 45 47  1  0  0  0  0
 46 90  1  0  0  0  0
 46 91  1  0  0  0  0
 46 92  1  0  0  0  0
 47 93  1  0  0  0  0
 47 94  1  0  0  0  0
 47 95  1  0  0  0  0
M  END
>  <DRUGBANK_ID>
DB18537

>  <COMMON_NAME>
VB-310

>  <CAS_NUMBER>
2699021-76-4

>  <UNII>
SH72P2DRU7

$$$$
