
 OpenBabel10282417193D

 49 51  0  0  0  0  0  0  0  0999 V2000
    1.0349   -0.0153    0.0289 C   0  0  0  0  0  0  0  0  0  0  0  0
    0.5453   -1.3923   -0.3486 C   0  0  0  0  0  0  0  0  0  0  0  0
   -1.0322   -3.7413    0.6993 C   0  0  0  0  0  0  0  0  0  0  0  0
    0.2794   -3.4772    2.7311 C   0  0  0  0  0  0  0  0  0  0  0  0
    2.2499    6.3932    3.8607 C   0  0  0  0  0  0  0  0  0  0  0  0
    3.6749    5.8236    2.0009 C   0  0  0  0  0  0  0  0  0  0  0  0
    3.2107    7.3004    4.3031 C   0  0  0  0  0  0  0  0  0  0  0  0
    4.6400    6.7194    2.4457 C   0  0  0  0  0  0  0  0  0  0  0  0
   -1.9354   -4.5444    1.3897 C   0  0  0  0  0  0  0  0  0  0  0  0
   -0.6287   -4.2845    3.4160 C   0  0  0  0  0  0  0  0  0  0  0  0
    1.2754    3.5275    3.4203 C   0  0  0  0  0  0  0  0  0  0  0  0
    1.8748    3.8872    0.9987 C   0  0  0  0  0  0  0  0  0  0  0  0
    0.5276    0.4485    1.4062 C   0  0  0  0  0  0  0  0  0  0  0  0
    0.4538    2.3229    2.9610 C   0  0  0  0  0  0  0  0  0  0  0  0
    0.9982    2.7179    0.6578 C   0  0  0  0  0  0  0  0  0  0  0  0
    0.0797   -3.2199    1.3692 C   0  0  0  0  0  0  0  0  0  0  0  0
    2.4695    5.6278    2.7076 C   0  0  0  0  0  0  0  0  0  0  0  0
    4.4022    7.4532    3.5980 C   0  0  0  0  0  0  0  0  0  0  0  0
   -1.7212   -4.8166    2.7369 C   0  0  0  0  0  0  0  0  0  0  0  0
    1.0680   -2.4094    0.6316 C   0  0  0  0  0  0  0  0  0  0  0  0
    1.4523    4.5684    2.2942 C   0  0  0  0  0  0  0  0  0  0  0  0
    5.7111    8.6651    4.2114 Br  0  0  0  0  0  0  0  0  0  0  0  0
   -2.5787   -5.6125    3.3872 F   0  0  0  0  0  0  0  0  0  0  0  0
    1.0710    1.7561    1.7572 N   0  0  0  0  0  0  0  0  0  0  0  0
    2.2683   -2.5457    0.8710 O   0  0  0  0  0  0  0  0  0  0  0  0
    0.1896    5.1979    2.0299 O   0  0  0  0  0  0  0  0  0  0  0  0
    0.6538    0.6448   -0.7579 H   0  0  0  0  0  0  0  0  0  0  0  0
    2.1320    0.0282    0.0018 H   0  0  0  0  0  0  0  0  0  0  0  0
   -0.5482   -1.3675   -0.3795 H   0  0  0  0  0  0  0  0  0  0  0  0
    0.8983   -1.6523   -1.3520 H   0  0  0  0  0  0  0  0  0  0  0  0
   -1.1884   -3.5533   -0.3593 H   0  0  0  0  0  0  0  0  0  0  0  0
    1.1366   -3.0553    3.2536 H   0  0  0  0  0  0  0  0  0  0  0  0
    1.3374    6.2731    4.4388 H   0  0  0  0  0  0  0  0  0  0  0  0
    3.9117    5.2718    1.0940 H   0  0  0  0  0  0  0  0  0  0  0  0
    3.0216    7.8716    5.2059 H   0  0  0  0  0  0  0  0  0  0  0  0
    5.5656    6.8193    1.8859 H   0  0  0  0  0  0  0  0  0  0  0  0
   -2.7928   -4.9727    0.8813 H   0  0  0  0  0  0  0  0  0  0  0  0
   -0.4865   -4.5136    4.4675 H   0  0  0  0  0  0  0  0  0  0  0  0
    2.2591    3.1770    3.7635 H   0  0  0  0  0  0  0  0  0  0  0  0
    0.7755    3.9721    4.2904 H   0  0  0  0  0  0  0  0  0  0  0  0
    1.8496    4.5907    0.1571 H   0  0  0  0  0  0  0  0  0  0  0  0
    2.8970    3.4910    1.0812 H   0  0  0  0  0  0  0  0  0  0  0  0
   -0.5687    0.4566    1.4143 H   0  0  0  0  0  0  0  0  0  0  0  0
    0.8562   -0.2620    2.1750 H   0  0  0  0  0  0  0  0  0  0  0  0
    0.4321    1.5908    3.7782 H   0  0  0  0  0  0  0  0  0  0  0  0
   -0.5856    2.6240    2.7732 H   0  0  0  0  0  0  0  0  0  0  0  0
    1.4528    2.3342   -0.2580 H   0  0  0  0  0  0  0  0  0  0  0  0
   -0.0326    3.0064    0.4262 H   0  0  0  0  0  0  0  0  0  0  0  0
   -0.1072    5.6382    2.8411 H   0  0  0  0  0  0  0  0  0  0  0  0
  1 27  1  0  0  0  0
  1 28  1  0  0  0  0
  2  1  1  0  0  0  0
  2 29  1  0  0  0  0
  2 30  1  0  0  0  0
  3 31  1  0  0  0  0
  4 32  1  0  0  0  0
  5 33  1  0  0  0  0
  6 34  1  0  0  0  0
  7  5  1  0  0  0  0
  7 35  1  0  0  0  0
  8  6  2  0  0  0  0
  8 36  1  0  0  0  0
  9  3  1  0  0  0  0
  9 37  1  0  0  0  0
 10  4  2  0  0  0  0
 10 38  1  0  0  0  0
 11 39  1  0  0  0  0
 11 40  1  0  0  0  0
 12 41  1  0  0  0  0
 12 42  1  0  0  0  0
 13  1  1  0  0  0  0
 13 43  1  0  0  0  0
 13 44  1  0  0  0  0
 14 11  1  0  0  0  0
 14 45  1  0  0  0  0
 14 46  1  0  0  0  0
 15 12  1  0  0  0  0
 15 47  1  0  0  0  0
 15 48  1  0  0  0  0
 16  3  2  0  0  0  0
 16  4  1  0  0  0  0
 17  5  2  0  0  0  0
 17  6  1  0  0  0  0
 18  7  2  0  0  0  0
 18  8  1  0  0  0  0
 19  9  2  0  0  0  0
 19 10  1  0  0  0  0
 20  2  1  0  0  0  0
 20 16  1  0  0  0  0
 21 11  1  0  0  0  0
 21 12  1  0  0  0  0
 21 17  1  0  0  0  0
 22 18  1  0  0  0  0
 23 19  1  0  0  0  0
 24 13  1  0  0  0  0
 24 14  1  0  0  0  0
 24 15  1  0  0  0  0
 25 20  2  0  0  0  0
 26 21  1  0  0  0  0
 26 49  1  0  0  0  0
M  END
>  <DRUGBANK_ID>
DB12401

>  <COMMON_NAME>
Bromperidol

>  <CAS_NUMBER>
10457-90-6

>  <UNII>
LYH6F7I22E

>  <SYNONYMS>
Bromperidol

$$$$
