
 OpenBabel10282417213D

 68 71  0  0  0  0  0  0  0  0999 V2000
   -0.8733    1.3469   -0.5354 C   0  0  1  0  0  0  0  0  0  0  0  0
    0.1228    0.5355    0.1493 C   0  0  1  0  0  0  0  0  0  0  0  0
   -2.3546    1.0991   -0.0866 C   0  0  1  0  0  0  0  0  0  0  0  0
   -0.8589    1.3659   -2.0588 C   0  0  0  0  0  0  0  0  0  0  0  0
   -0.0884   -0.8174   -0.3596 C   0  0  1  0  0  0  0  0  0  0  0  0
    1.5747    0.9148   -0.0572 C   0  0  0  0  0  0  0  0  0  0  0  0
   -2.6157    2.6142   -1.0092 C   0  0  2  0  0  0  0  0  0  0  0  0
   -2.6378   -0.4128   -0.6308 C   0  0  0  0  0  0  0  0  0  0  0  0
   -2.5793    0.8191    1.5370 C   0  0  0  0  0  0  0  0  0  0  0  0
   -2.1106    2.0903   -2.3576 C   0  0  0  0  0  0  0  0  0  0  0  0
    0.8257   -1.6106    0.4503 C   0  0  2  0  0  0  0  0  0  0  0  0
   -1.5129   -1.3606   -0.1893 C   0  0  0  0  0  0  0  0  0  0  0  0
    2.6593   -0.2210    0.5433 C   0  0  0  0  0  0  0  0  0  0  0  0
   -2.5604    3.7464    0.0243 C   0  0  0  0  0  0  0  0  0  0  0  0
   -3.5143    3.5143   -1.7453 O   0  0  0  0  0  0  0  0  0  0  0  0
    2.2205   -1.8755    0.5703 C   0  0  0  0  0  0  0  0  0  0  0  0
    0.7400   -1.3192    2.0965 C   0  0  0  0  0  0  0  0  0  0  0  0
   -1.7069    3.6353    1.2069 C   0  0  0  0  0  0  0  0  0  0  0  0
   -3.4249    4.6350    0.1684 O   0  0  0  0  0  0  0  0  0  0  0  0
   -4.8301    3.2966   -1.8452 C   0  0  0  0  0  0  0  0  0  0  0  0
    2.0267   -3.1494    1.2627 C   0  0  0  0  0  0  0  0  0  0  0  0
   -0.1771   -2.3611    2.6010 C   0  0  0  0  0  0  0  0  0  0  0  0
   -5.0135    1.9184   -1.3309 C   0  0  0  0  0  0  0  0  0  0  0  0
   -5.6289    4.0350   -2.3191 O   0  0  0  0  0  0  0  0  0  0  0  0
    0.3211   -3.4647    1.6451 C   0  0  0  0  0  0  0  0  0  0  0  0
   -5.5651    1.8922    0.0480 C   0  0  0  0  0  0  0  0  0  0  0  0
   -0.4105   -4.1662    0.9559 O   0  0  0  0  0  0  0  0  0  0  0  0
   -7.0283    2.0347   -0.1819 C   0  0  0  0  0  0  0  0  0  0  0  0
   -7.4652    1.0165   -1.2522 C   0  0  0  0  0  0  0  0  0  0  0  0
   -7.0924   -0.4043   -0.8358 C   0  0  0  0  0  0  0  0  0  0  0  0
   -0.0878    0.6952    1.2005 H   0  0  0  0  0  0  0  0  0  0  0  0
    0.6791   -2.5085   -0.1889 H   0  0  0  0  0  0  0  0  0  0  0  0
   -0.5414    2.3428   -0.2981 H   0  0  0  0  0  0  0  0  0  0  0  0
    0.2064   -0.8885   -1.4141 H   0  0  0  0  0  0  0  0  0  0  0  0
   -0.0149    1.9499   -2.4040 H   0  0  0  0  0  0  0  0  0  0  0  0
   -0.8909    0.3979   -2.5678 H   0  0  0  0  0  0  0  0  0  0  0  0
    1.6952    1.9011    0.4277 H   0  0  0  0  0  0  0  0  0  0  0  0
    1.7185    1.1172   -1.1275 H   0  0  0  0  0  0  0  0  0  0  0  0
   -3.5495   -0.8423   -0.1791 H   0  0  0  0  0  0  0  0  0  0  0  0
   -2.7635   -0.5282   -1.7053 H   0  0  0  0  0  0  0  0  0  0  0  0
   -1.7783    0.1913    1.9547 H   0  0  0  0  0  0  0  0  0  0  0  0
   -2.6181    1.5967    2.2923 H   0  0  0  0  0  0  0  0  0  0  0  0
   -3.4728    0.2042    1.7494 H   0  0  0  0  0  0  0  0  0  0  0  0
   -2.0753    2.7322   -3.2445 H   0  0  0  0  0  0  0  0  0  0  0  0
   -2.8606    1.3412   -2.6846 H   0  0  0  0  0  0  0  0  0  0  0  0
   -1.7178   -1.5365    0.8550 H   0  0  0  0  0  0  0  0  0  0  0  0
   -1.5889   -2.3668   -0.6220 H   0  0  0  0  0  0  0  0  0  0  0  0
    2.8257    0.1479    1.5644 H   0  0  0  0  0  0  0  0  0  0  0  0
    3.5496   -0.0371   -0.0580 H   0  0  0  0  0  0  0  0  0  0  0  0
    1.6932   -1.4979    2.6679 H   0  0  0  0  0  0  0  0  0  0  0  0
    0.6621   -0.2875    2.4342 H   0  0  0  0  0  0  0  0  0  0  0  0
   -0.8973    2.9274    1.3215 H   0  0  0  0  0  0  0  0  0  0  0  0
   -2.4850    3.3143    1.8940 H   0  0  0  0  0  0  0  0  0  0  0  0
   -1.2906    4.6246    1.3048 H   0  0  0  0  0  0  0  0  0  0  0  0
    2.2968   -3.5008    2.2734 H   0  0  0  0  0  0  0  0  0  0  0  0
    0.0038   -2.5884    3.6421 H   0  0  0  0  0  0  0  0  0  0  0  0
   -1.1798   -1.9526    2.5091 H   0  0  0  0  0  0  0  0  0  0  0  0
   -5.2128    1.2629   -2.1709 H   0  0  0  0  0  0  0  0  0  0  0  0
   -4.1279    1.4104   -1.1024 H   0  0  0  0  0  0  0  0  0  0  0  0
   -5.2854    0.9382    0.5120 H   0  0  0  0  0  0  0  0  0  0  0  0
   -5.1374    2.6545    0.7147 H   0  0  0  0  0  0  0  0  0  0  0  0
   -7.5360    1.8911    0.7683 H   0  0  0  0  0  0  0  0  0  0  0  0
   -7.2141    3.0584   -0.5275 H   0  0  0  0  0  0  0  0  0  0  0  0
   -8.5258    1.1348   -1.4378 H   0  0  0  0  0  0  0  0  0  0  0  0
   -7.0216    1.2138   -2.2394 H   0  0  0  0  0  0  0  0  0  0  0  0
   -7.5429   -0.6178    0.1347 H   0  0  0  0  0  0  0  0  0  0  0  0
   -7.4357   -1.1221   -1.5797 H   0  0  0  0  0  0  0  0  0  0  0  0
   -6.0096   -0.5696   -0.7380 H   0  0  0  0  0  0  0  0  0  0  0  0
  1  2  1  0  0  0  0
  1  3  1  0  0  0  0
  1  4  1  0  0  0  0
  1 33  1  6  0  0  0
  2  5  1  0  0  0  0
  2  6  1  0  0  0  0
  2 31  1  1  0  0  0
  3  7  1  0  0  0  0
  3  8  1  0  0  0  0
  3  9  1  1  0  0  0
  4 10  1  0  0  0  0
  4 35  1  0  0  0  0
  4 36  1  0  0  0  0
  5 11  1  0  0  0  0
  5 12  1  0  0  0  0
  5 34  1  6  0  0  0
  6 13  1  0  0  0  0
  6 37  1  0  0  0  0
  6 38  1  0  0  0  0
  7 10  1  0  0  0  0
  7 15  1  6  0  0  0
  7 14  1  0  0  0  0
  8 12  1  0  0  0  0
  8 39  1  0  0  0  0
  8 40  1  0  0  0  0
  9 41  1  0  0  0  0
  9 42  1  0  0  0  0
  9 43  1  0  0  0  0
 10 44  1  0  0  0  0
 10 45  1  0  0  0  0
 11 16  1  0  0  0  0
 11 17  1  0  0  0  0
 11 32  1  1  0  0  0
 12 46  1  0  0  0  0
 12 47  1  0  0  0  0
 13 16  1  0  0  0  0
 13 48  1  0  0  0  0
 13 49  1  0  0  0  0
 14 18  1  0  0  0  0
 14 19  2  0  0  0  0
 15 20  1  0  0  0  0
 16 21  2  0  0  0  0
 17 22  1  0  0  0  0
 17 50  1  0  0  0  0
 17 51  1  0  0  0  0
 18 52  1  0  0  0  0
 18 53  1  0  0  0  0
 18 54  1  0  0  0  0
 20 23  1  0  0  0  0
 20 24  2  0  0  0  0
 21 25  1  0  0  0  0
 21 55  1  0  0  0  0
 22 25  1  0  0  0  0
 22 56  1  0  0  0  0
 22 57  1  0  0  0  0
 23 26  1  0  0  0  0
 23 58  1  0  0  0  0
 23 59  1  0  0  0  0
 25 27  2  0  0  0  0
 26 28  1  0  0  0  0
 26 60  1  0  0  0  0
 26 61  1  0  0  0  0
 28 29  1  0  0  0  0
 28 62  1  0  0  0  0
 28 63  1  0  0  0  0
 29 30  1  0  0  0  0
 29 64  1  0  0  0  0
 29 65  1  0  0  0  0
 30 66  1  0  0  0  0
 30 67  1  0  0  0  0
 30 68  1  0  0  0  0
M  END
>  <DRUGBANK_ID>
DB14677

>  <COMMON_NAME>
Gestonorone caproate

>  <CAS_NUMBER>
1253-28-7

>  <UNII>
U38E620NS6

>  <SYNONYMS>
Gestonorone caproate; Gestonorone hexanoate

$$$$
