1525
 OpenBabel10282417113D

 28 29  0  0  1  0  0  0  0  0999 V2000
   -0.9568   -0.2695   -1.1563 O   0  0  0  0  0  0  0  0  0  0  0  0
   -1.2147    3.2117   -1.1894 O   0  0  0  0  0  0  0  0  0  0  0  0
   -1.6489    1.8295   -2.8704 O   0  0  0  0  0  0  0  0  0  0  0  0
    1.3459    0.6795   -4.0065 N   0  0  0  0  0  0  0  0  0  0  0  0
    1.4646    1.7667   -3.0179 C   0  0  1  0  0  0  0  0  0  0  0  0
    1.9630   -0.4626   -3.3292 C   0  0  1  0  0  0  0  0  0  0  0  0
    0.5312    1.6077   -1.7889 C   0  0  2  0  0  0  0  0  0  0  0  0
    2.9591    1.6101   -2.6334 C   0  0  0  0  0  0  0  0  0  0  0  0
    3.2871    0.1381   -2.8720 C   0  0  0  0  0  0  0  0  0  0  0  0
    1.1462   -0.9491   -2.1221 C   0  0  0  0  0  0  0  0  0  0  0  0
    0.4101    0.1400   -1.3105 C   0  0  2  0  0  0  0  0  0  0  0  0
    0.0026    0.3932   -4.4967 C   0  0  0  0  0  0  0  0  0  0  0  0
   -0.8444    2.2326   -2.0335 C   0  0  0  0  0  0  0  0  0  0  0  0
    1.3241    2.7532   -3.4763 H   0  0  0  0  0  0  0  0  0  0  0  0
    2.1431   -1.2929   -4.0220 H   0  0  0  0  0  0  0  0  0  0  0  0
   -1.4626    0.0020   -1.9531 H   0  0  0  0  0  0  0  0  0  0  0  0
   -0.6296    3.3701   -0.4300 H   0  0  0  0  0  0  0  0  0  0  0  0
    0.9908    2.1769   -0.9671 H   0  0  0  0  0  0  0  0  0  0  0  0
    3.1801    1.9000   -1.6011 H   0  0  0  0  0  0  0  0  0  0  0  0
    3.5986    2.2196   -3.2864 H   0  0  0  0  0  0  0  0  0  0  0  0
    3.6851   -0.3432   -1.9727 H   0  0  0  0  0  0  0  0  0  0  0  0
    4.0500    0.0402   -3.6560 H   0  0  0  0  0  0  0  0  0  0  0  0
    1.8233   -1.4797   -1.4391 H   0  0  0  0  0  0  0  0  0  0  0  0
    0.4313   -1.7073   -2.4630 H   0  0  0  0  0  0  0  0  0  0  0  0
    0.8080    0.0964   -0.2900 H   0  0  0  0  0  0  0  0  0  0  0  0
   -0.6303   -0.0684   -3.7408 H   0  0  0  0  0  0  0  0  0  0  0  0
   -0.4840    1.3029   -4.8612 H   0  0  0  0  0  0  0  0  0  0  0  0
    0.0053   -0.3236   -5.3211 H   0  0  0  0  0  0  0  0  0  0  0  0
  1 16  1  0  0  0  0
  2 13  1  0  0  0  0
  2 17  1  0  0  0  0
  3 13  2  0  0  0  0
  4  5  1  0  0  0  0
  4  6  1  0  0  0  0
  4 12  1  0  0  0  0
  5  7  1  0  0  0  0
  5  8  1  0  0  0  0
  5 14  1  6  0  0  0
  6  9  1  0  0  0  0
  6 10  1  0  0  0  0
  6 15  1  6  0  0  0
  7 11  1  0  0  0  0
  7 13  1  0  0  0  0
  7 18  1  1  0  0  0
  8  9  1  0  0  0  0
  8 19  1  0  0  0  0
  8 20  1  0  0  0  0
  9 21  1  0  0  0  0
  9 22  1  0  0  0  0
 10 11  1  0  0  0  0
 10 23  1  0  0  0  0
 10 24  1  0  0  0  0
 11 25  1  1  0  0  0
 11  1  1  0  0  0  0
 12 26  1  0  0  0  0
 12 27  1  0  0  0  0
 12 28  1  0  0  0  0
M  END
>  <DRUGBANK_ID>
DB01525

>  <COMMON_NAME>
Ecgonine

>  <CAS_NUMBER>
481-37-8

>  <UNII>
DX2E9E17AV

$$$$
