
 OpenBabel10282417233D

135143  0  0  1  0  0  0  0  0999 V2000
   -1.1143   -0.2185    0.3390 H   0  0  0  0  0  0  0  0  0  0  0  0
   -2.1533   -0.2355    0.3047 C   0  0  1  0  0  0  0  0  0  0  0  0
   -2.6178   -1.2955   -0.5929 C   0  0  0  0  0  0  0  0  0  0  0  0
   -3.9838   -1.0092   -0.2634 C   0  0  1  0  0  0  0  0  0  0  0  0
   -4.4876   -1.8201   -0.4029 H   0  0  0  0  0  0  0  0  0  0  0  0
   -5.0257   -0.6145   -1.1743 C   0  0  2  0  0  0  0  0  0  0  0  0
   -6.0590   -0.7452   -0.9225 H   0  0  0  0  0  0  0  0  0  0  0  0
   -4.8251    0.7331   -1.2406 C   0  0  0  0  0  0  0  0  0  0  0  0
   -3.6545    1.2088   -1.7625 C   0  0  0  0  0  0  0  0  0  0  0  0
   -3.3136    0.6206   -2.8300 C   0  0  0  0  0  0  0  0  0  0  0  0
   -1.6430    0.7386   -3.3428 C   0  0  0  0  0  0  0  0  0  0  0  0
   -1.4656    0.5374   -5.3540 C   0  0  2  0  0  0  0  0  0  0  0  0
   -1.9664   -0.8904   -5.5235 C   0  0  0  0  0  0  0  0  0  0  0  0
   -3.4838   -1.2333   -4.7369 C   0  0  0  0  0  0  0  0  0  0  0  0
   -3.8443   -0.6085   -3.3721 C   0  0  1  0  0  0  0  0  0  0  0  0
   -2.5151   -0.8836   -3.1728 C   0  0  0  0  0  0  0  0  0  0  0  0
   -4.7557   -1.2898   -2.3989 C   0  0  1  0  0  0  0  0  0  0  0  0
   -5.5787   -0.8126   -3.0002 H   0  0  0  0  0  0  0  0  0  0  0  0
   -4.3705   -2.9703   -1.5106 C   0  0  0  0  0  0  0  0  0  0  0  0
   -4.0692   -2.9777    0.6184 C   0  0  0  0  0  0  0  0  0  0  0  0
   -4.0959   -1.2134    1.1146 C   0  0  1  0  0  0  0  0  0  0  0  0
   -5.3818   -0.6108    1.5060 C   0  0  0  0  0  0  0  0  0  0  0  0
   -2.8899   -0.3824    1.5556 C   0  0  1  0  0  0  0  0  0  0  0  0
   -2.1470   -0.7891    2.2128 H   0  0  0  0  0  0  0  0  0  0  0  0
   -3.1713    1.0918    2.0050 C   0  0  2  0  0  0  0  0  0  0  0  0
   -3.9787    1.6482    3.0833 C   0  0  0  0  0  0  0  0  0  0  0  0
   -3.3977    2.0025    0.8679 C   0  0  2  0  0  0  0  0  0  0  0  0
   -2.7531    3.3563    0.8785 C   0  0  0  0  0  0  0  0  0  0  0  0
   -3.0199    4.1988   -0.3569 C   0  0  0  0  0  0  0  0  0  0  0  0
   -4.2775    4.3381   -1.1007 C   0  0  1  0  0  0  0  0  0  0  0  0
   -4.1693    5.8210   -1.1698 C   0  0  0  0  0  0  0  0  0  0  0  0
   -5.0671    3.1177   -1.0792 C   0  0  0  0  0  0  0  0  0  0  0  0
   -4.9590    2.4321    0.4361 N   0  0  0  0  0  0  0  0  0  0  0  0
   -2.5405    1.0650    0.0882 O   0  0  0  0  0  0  0  0  0  0  0  0
   -0.4190    1.5896   -6.0453 O   0  0  0  0  0  0  0  0  0  0  0  0
    0.8538    1.6252   -5.5066 C   0  0  2  0  0  0  0  0  0  0  0  0
    0.7521    0.2375   -5.8600 H   0  0  0  0  0  0  0  0  0  0  0  0
    1.4480    1.7872   -3.9589 O   0  0  0  0  0  0  0  0  0  0  0  0
    1.1165    2.8200   -2.5773 C   0  0  2  0  0  0  0  0  0  0  0  0
   -0.7721    3.2172   -1.5260 C   0  0  0  0  0  0  0  0  0  0  0  0
   -1.1467    2.2416   -0.4894 O   0  0  0  0  0  0  0  0  0  0  0  0
    2.1502    4.1616   -3.5093 C   0  0  2  0  0  0  0  0  0  0  0  0
    1.9200    5.5321   -2.6566 O   0  0  0  0  0  0  0  0  0  0  0  0
    1.5638    4.0066   -4.7513 C   0  0  2  0  0  0  0  0  0  0  0  0
    0.3236    4.1379   -4.0915 O   0  0  0  0  0  0  0  0  0  0  0  0
   -0.3803    2.9489   -3.4680 C   0  0  2  0  0  0  0  0  0  0  0  0
   -1.2593    3.6889   -3.5275 H   0  0  0  0  0  0  0  0  0  0  0  0
   -0.0319    1.7508   -1.7902 O   0  0  0  0  0  0  0  0  0  0  0  0
    1.8908    0.6404   -1.3272 C   0  0  2  0  0  0  0  0  0  0  0  0
    2.8840    2.1759   -2.4900 C   0  0  0  0  0  0  0  0  0  0  0  0
    3.7250    4.0197   -1.9594 O   0  0  0  0  0  0  0  0  0  0  0  0
    1.0341   -0.9091   -2.7088 C   0  0  1  0  0  0  0  0  0  0  0  0
   -0.3971   -1.8546   -1.8749 O   0  0  0  0  0  0  0  0  0  0  0  0
    0.2202    0.1965   -4.2121 C   0  0  2  0  0  0  0  0  0  0  0  0
    1.9846    0.2054   -4.9093 O   0  0  0  0  0  0  0  0  0  0  0  0
   -0.9538    2.0906   -4.3496 C   0  0  1  0  0  0  0  0  0  0  0  0
   -2.4708    2.4604   -3.3221 O   0  0  0  0  0  0  0  0  0  0  0  0
    1.8950    2.7239   -5.4818 C   0  0  1  0  0  0  0  0  0  0  0  0
    3.4454    2.0255   -5.1193 O   0  0  0  0  0  0  0  0  0  0  0  0
    3.9806    1.2248   -3.6241 C   0  0  2  0  0  0  0  0  0  0  0  0
    4.8381    0.6108   -3.6338 H   0  0  0  0  0  0  0  0  0  0  0  0
    2.6531    0.1381   -3.0149 O   0  0  0  0  0  0  0  0  0  0  0  0
    0.9340    0.8454   -2.5161 C   0  0  1  0  0  0  0  0  0  0  0  0
    0.2860   -0.3182   -1.0948 C   0  0  0  0  0  0  0  0  0  0  0  0
    0.9804    2.3244   -0.6656 C   0  0  2  0  0  0  0  0  0  0  0  0
    0.6297    4.1233   -1.0296 O   0  0  0  0  0  0  0  0  0  0  0  0
    2.5020    3.3674   -1.0950 C   0  0  1  0  0  0  0  0  0  0  0  0
    2.3707    4.4452   -0.2523 O   0  0  0  0  0  0  0  0  0  0  0  0
    4.3972    2.5193   -1.9828 C   0  0  1  0  0  0  0  0  0  0  0  0
    4.5957    1.9147   -0.7797 O   0  0  0  0  0  0  0  0  0  0  0  0
   -2.7704   -1.7246   -1.5692 H   0  0  0  0  0  0  0  0  0  0  0  0
   -1.9733   -2.1319   -0.4543 H   0  0  0  0  0  0  0  0  0  0  0  0
   -5.7535    1.2150   -1.2191 H   0  0  0  0  0  0  0  0  0  0  0  0
   -4.3169    0.8792   -0.3610 H   0  0  0  0  0  0  0  0  0  0  0  0
   -3.1345    2.0444   -1.2822 H   0  0  0  0  0  0  0  0  0  0  0  0
   -1.0667    1.4143   -2.9447 H   0  0  0  0  0  0  0  0  0  0  0  0
   -1.2855    0.6696   -2.3416 H   0  0  0  0  0  0  0  0  0  0  0  0
   -1.9960    1.0878   -6.1106 H   0  0  0  0  0  0  0  0  0  0  0  0
   -1.8144   -1.3225   -6.4374 H   0  0  0  0  0  0  0  0  0  0  0  0
   -1.3114   -1.5764   -5.0017 H   0  0  0  0  0  0  0  0  0  0  0  0
   -4.2040   -1.2255   -5.4548 H   0  0  0  0  0  0  0  0  0  0  0  0
   -3.3750   -2.1616   -4.2344 H   0  0  0  0  0  0  0  0  0  0  0  0
   -1.6770   -1.4159   -3.5204 H   0  0  0  0  0  0  0  0  0  0  0  0
   -2.6079   -0.0215   -4.1610 H   0  0  0  0  0  0  0  0  0  0  0  0
   -2.0851   -0.5332   -2.2022 H   0  0  0  0  0  0  0  0  0  0  0  0
   -5.0684   -3.3247   -2.4236 H   0  0  0  0  0  0  0  0  0  0  0  0
   -3.5728   -3.1592   -2.3743 H   0  0  0  0  0  0  0  0  0  0  0  0
   -4.5936   -3.2290    1.7656 H   0  0  0  0  0  0  0  0  0  0  0  0
   -3.2533   -2.8158    1.6552 H   0  0  0  0  0  0  0  0  0  0  0  0
   -5.2412    0.3407    1.9309 H   0  0  0  0  0  0  0  0  0  0  0  0
   -6.0154   -0.2847    0.7107 H   0  0  0  0  0  0  0  0  0  0  0  0
   -5.9419   -1.2317    2.1426 H   0  0  0  0  0  0  0  0  0  0  0  0
   -2.2065    1.2508    2.4479 H   0  0  0  0  0  0  0  0  0  0  0  0
   -4.2528    2.6797    2.8319 H   0  0  0  0  0  0  0  0  0  0  0  0
   -4.8530    1.0957    3.3457 H   0  0  0  0  0  0  0  0  0  0  0  0
   -3.3013    1.6405    3.9106 H   0  0  0  0  0  0  0  0  0  0  0  0
   -2.8979    4.0704    1.6341 H   0  0  0  0  0  0  0  0  0  0  0  0
   -1.7456    2.9896    1.1185 H   0  0  0  0  0  0  0  0  0  0  0  0
   -2.3918    4.7647   -1.0772 H   0  0  0  0  0  0  0  0  0  0  0  0
   -2.3903    3.5271   -0.7375 H   0  0  0  0  0  0  0  0  0  0  0  0
   -5.2731    4.7306   -0.9576 H   0  0  0  0  0  0  0  0  0  0  0  0
   -3.1474    6.2082   -1.1561 H   0  0  0  0  0  0  0  0  0  0  0  0
   -4.5777    6.1258   -2.1150 H   0  0  0  0  0  0  0  0  0  0  0  0
   -4.5950    6.2469   -0.2553 H   0  0  0  0  0  0  0  0  0  0  0  0
   -5.9617    2.9813   -1.7459 H   0  0  0  0  0  0  0  0  0  0  0  0
   -4.6495    2.6648   -1.9834 H   0  0  0  0  0  0  0  0  0  0  0  0
   -5.4433    1.5130    0.4879 H   0  0  0  0  0  0  0  0  0  0  0  0
    2.0096    2.0821   -1.4898 H   0  0  0  0  0  0  0  0  0  0  0  0
   -0.9101    4.1187   -0.8309 H   0  0  0  0  0  0  0  0  0  0  0  0
   -1.5844    3.3108   -2.1183 H   0  0  0  0  0  0  0  0  0  0  0  0
   -1.1094    1.3490   -0.8864 H   0  0  0  0  0  0  0  0  0  0  0  0
    3.2082    3.8953   -3.4780 H   0  0  0  0  0  0  0  0  0  0  0  0
    1.3247    5.3058   -1.8087 H   0  0  0  0  0  0  0  0  0  0  0  0
    2.4354    4.6546   -4.8332 H   0  0  0  0  0  0  0  0  0  0  0  0
    2.1206    0.5708   -0.2997 H   0  0  0  0  0  0  0  0  0  0  0  0
    3.4375    1.2337   -2.0511 H   0  0  0  0  0  0  0  0  0  0  0  0
    2.8143    2.4404   -3.4475 H   0  0  0  0  0  0  0  0  0  0  0  0
    3.0685    4.8041   -1.8574 H   0  0  0  0  0  0  0  0  0  0  0  0
    1.8342   -1.5952   -2.7081 H   0  0  0  0  0  0  0  0  0  0  0  0
   -1.2473   -1.8075   -2.2529 H   0  0  0  0  0  0  0  0  0  0  0  0
   -0.1482   -0.7049   -4.5113 H   0  0  0  0  0  0  0  0  0  0  0  0
    2.2783    1.1891   -4.6382 H   0  0  0  0  0  0  0  0  0  0  0  0
   -1.9445    2.3631   -5.0113 H   0  0  0  0  0  0  0  0  0  0  0  0
   -2.1820    2.0419   -2.3600 H   0  0  0  0  0  0  0  0  0  0  0  0
    1.5084    2.7919   -6.4461 H   0  0  0  0  0  0  0  0  0  0  0  0
    0.3225    1.2544   -3.1443 H   0  0  0  0  0  0  0  0  0  0  0  0
   -0.3301   -0.2546   -2.1241 H   0  0  0  0  0  0  0  0  0  0  0  0
    0.9298   -1.4482   -1.0006 H   0  0  0  0  0  0  0  0  0  0  0  0
    0.1375    0.3415   -0.3285 H   0  0  0  0  0  0  0  0  0  0  0  0
    0.9359    1.9931    0.3451 H   0  0  0  0  0  0  0  0  0  0  0  0
    0.2522    4.2503   -2.0922 H   0  0  0  0  0  0  0  0  0  0  0  0
    1.8165    3.9968   -2.0043 H   0  0  0  0  0  0  0  0  0  0  0  0
    3.1414    3.9950   -0.0244 H   0  0  0  0  0  0  0  0  0  0  0  0
    4.7946    3.2286   -2.9457 H   0  0  0  0  0  0  0  0  0  0  0  0
    3.7145    1.5187   -0.5681 H   0  0  0  0  0  0  0  0  0  0  0  0
  2  3  1  0  0  0  0
  2 34  1  0  0  0  0
  2  1  1  6  0  0  0
  3 71  1  0  0  0  0
  3 72  1  0  0  0  0
  4  3  1  0  0  0  0
  4  6  1  0  0  0  0
  4  5  1  1  0  0  0
  6  8  1  0  0  0  0
  6 17  1  0  0  0  0
  6  7  1  6  0  0  0
  8  9  1  0  0  0  0
  8 73  1  0  0  0  0
  8 74  1  0  0  0  0
  9 10  2  0  0  0  0
  9 75  1  0  0  0  0
 10 11  1  0  0  0  0
 11 76  1  0  0  0  0
 11 77  1  0  0  0  0
 12 11  1  0  0  0  0
 12 13  1  0  0  0  0
 12 78  1  6  0  0  0
 12 35  1  0  0  0  0
 13 14  1  0  0  0  0
 13 79  1  0  0  0  0
 13 80  1  0  0  0  0
 14 81  1  0  0  0  0
 14 82  1  0  0  0  0
 15 14  1  0  0  0  0
 15 10  1  0  0  0  0
 15 16  1  1  0  0  0
 16 83  1  0  0  0  0
 16 84  1  0  0  0  0
 16 85  1  0  0  0  0
 17 15  1  0  0  0  0
 17 19  1  0  0  0  0
 17 18  1  6  0  0  0
 19 20  1  0  0  0  0
 19 86  1  0  0  0  0
 19 87  1  0  0  0  0
 20 88  1  0  0  0  0
 20 89  1  0  0  0  0
 21 20  1  0  0  0  0
 21  4  1  0  0  0  0
 21 22  1  6  0  0  0
 22 90  1  0  0  0  0
 22 91  1  0  0  0  0
 22 92  1  0  0  0  0
 23 21  1  0  0  0  0
 23  2  1  0  0  0  0
 23 25  1  0  0  0  0
 23 24  1  6  0  0  0
 25 27  1  0  0  0  0
 25 26  1  0  0  0  0
 25 93  1  1  0  0  0
 26 94  1  0  0  0  0
 26 95  1  0  0  0  0
 26 96  1  0  0  0  0
 27 28  1  0  0  0  0
 27 33  1  0  0  0  0
 27 34  1  6  0  0  0
 28 29  1  0  0  0  0
 28 97  1  0  0  0  0
 28 98  1  0  0  0  0
 29 99  1  0  0  0  0
 29100  1  0  0  0  0
 30 29  1  0  0  0  0
 30 32  1  0  0  0  0
 30101  1  1  0  0  0
 30 31  1  0  0  0  0
 31102  1  0  0  0  0
 31103  1  0  0  0  0
 31104  1  0  0  0  0
 32 33  1  0  0  0  0
 32105  1  0  0  0  0
 32106  1  0  0  0  0
 33107  1  0  0  0  0
 36 35  1  0  0  0  0
 36 37  1  6  0  0  0
 36 38  1  0  0  0  0
 39 38  1  0  0  0  0
 39 40  1  0  0  0  0
 39108  1  1  0  0  0
 40 41  1  0  0  0  0
 40109  1  0  0  0  0
 40110  1  0  0  0  0
 41111  1  0  0  0  0
 42 39  1  0  0  0  0
 42 43  1  0  0  0  0
 42 44  1  0  0  0  0
 42112  1  6  0  0  0
 43113  1  0  0  0  0
 44 45  1  0  0  0  0
 44 58  1  0  0  0  0
 44114  1  6  0  0  0
 46 45  1  0  0  0  0
 46 47  1  1  0  0  0
 46 48  1  0  0  0  0
 49 48  1  0  0  0  0
 49 50  1  0  0  0  0
 49115  1  1  0  0  0
 50 51  1  0  0  0  0
 50116  1  0  0  0  0
 50117  1  0  0  0  0
 51118  1  0  0  0  0
 52 49  1  0  0  0  0
 52 54  1  0  0  0  0
 52119  1  6  0  0  0
 52 53  1  0  0  0  0
 53120  1  0  0  0  0
 54 55  1  0  0  0  0
 54 56  1  0  0  0  0
 54121  1  6  0  0  0
 55122  1  0  0  0  0
 56 46  1  0  0  0  0
 56 57  1  0  0  0  0
 56123  1  6  0  0  0
 57124  1  0  0  0  0
 58 36  1  0  0  0  0
 58 59  1  0  0  0  0
 58125  1  6  0  0  0
 60 59  1  0  0  0  0
 60 61  1  6  0  0  0
 60 62  1  0  0  0  0
 63 62  1  0  0  0  0
 63126  1  6  0  0  0
 63 64  1  0  0  0  0
 64127  1  0  0  0  0
 64128  1  0  0  0  0
 64129  1  0  0  0  0
 65 63  1  0  0  0  0
 65 66  1  0  0  0  0
 65 67  1  0  0  0  0
 65130  1  1  0  0  0
 66131  1  0  0  0  0
 67 69  1  0  0  0  0
 67132  1  6  0  0  0
 67 68  1  0  0  0  0
 68133  1  0  0  0  0
 69 60  1  0  0  0  0
 69 70  1  0  0  0  0
 69134  1  6  0  0  0
 70135  1  0  0  0  0
M  END
>  <DRUGBANK_ID>
DB17103

>  <COMMON_NAME>
Solasonine

>  <CAS_NUMBER>
19121-58-5

>  <UNII>
TR60638HXL

>  <SYNONYMS>
alpha-Solasonine; Purapurine; Solasonin; Tomatine solaradixine

$$$$
