827
 OpenBabel10282417113D

 29 31  0  0  0  0  0  0  0  0999 V2000
    3.2719   -1.0272    1.5005 O   0  0  0  0  0  0  0  0  0  0  0  0
    2.8002    1.1606    0.9796 O   0  0  0  0  0  0  0  0  0  0  0  0
    7.0026    2.1049   -1.1856 O   0  0  0  0  0  0  0  0  0  0  0  0
    9.2567    2.3502   -2.0682 O   0  0  0  0  0  0  0  0  0  0  0  0
   10.9695    1.4458   -0.9403 O   0  0  0  0  0  0  0  0  0  0  0  0
    8.1409   -0.1256    1.9311 N   0  0  0  0  0  0  0  0  0  0  0  0
    9.1063    0.3954    1.0301 N   0  0  0  0  0  0  0  0  0  0  0  0
    6.7528    0.0331    1.7173 C   0  0  0  0  0  0  0  0  0  0  0  0
    6.3704    0.9480    0.7366 C   0  0  0  0  0  0  0  0  0  0  0  0
    4.3157   -0.2109    1.9719 C   0  0  0  0  0  0  0  0  0  0  0  0
    5.6427   -0.5837    2.3603 C   0  0  0  0  0  0  0  0  0  0  0  0
    4.0907    0.9630    1.3392 C   0  0  0  0  0  0  0  0  0  0  0  0
    5.0938    1.4731    0.5936 C   0  0  0  0  0  0  0  0  0  0  0  0
    8.7538   -0.8602    3.0644 C   0  0  0  0  0  0  0  0  0  0  0  0
    7.3299    1.4367   -0.2086 C   0  0  0  0  0  0  0  0  0  0  0  0
    8.7514    1.1128   -0.0049 C   0  0  0  0  0  0  0  0  0  0  0  0
    2.4992   -0.1714    0.5190 C   0  0  0  0  0  0  0  0  0  0  0  0
    8.5429   -0.1691    4.4050 C   0  0  0  0  0  0  0  0  0  0  0  0
    9.7880    1.6461   -1.0361 C   0  0  0  0  0  0  0  0  0  0  0  0
    8.2734    2.4666   -2.0574 H   0  0  0  0  0  0  0  0  0  0  0  0
    5.7786   -1.1604    3.2768 H   0  0  0  0  0  0  0  0  0  0  0  0
    4.8433    2.1428   -0.2143 H   0  0  0  0  0  0  0  0  0  0  0  0
    8.4031   -1.8958    3.0916 H   0  0  0  0  0  0  0  0  0  0  0  0
    9.8462   -0.9211    2.9164 H   0  0  0  0  0  0  0  0  0  0  0  0
    2.9560   -0.8148   -0.2783 H   0  0  0  0  0  0  0  0  0  0  0  0
    2.5818    0.3198   -0.5056 H   0  0  0  0  0  0  0  0  0  0  0  0
    7.4817   -0.0519    4.6303 H   0  0  0  0  0  0  0  0  0  0  0  0
    8.9940   -0.7550    5.2162 H   0  0  0  0  0  0  0  0  0  0  0  0
    9.0049    0.8243    4.4213 H   0  0  0  0  0  0  0  0  0  0  0  0
  1 10  1  0  0  0  0
  1 17  1  0  0  0  0
  2 12  1  0  0  0  0
  2 17  1  0  0  0  0
  3 15  2  0  0  0  0
  4 19  1  0  0  0  0
  4 20  1  0  0  0  0
  5 19  2  0  0  0  0
  6  7  1  0  0  0  0
  6  8  1  0  0  0  0
  6 14  1  0  0  0  0
  7 16  2  0  0  0  0
  8  9  1  0  0  0  0
  8 11  2  0  0  0  0
  9 13  2  0  0  0  0
  9 15  1  0  0  0  0
 10 11  1  0  0  0  0
 10 12  2  0  0  0  0
 11 21  1  0  0  0  0
 12 13  1  0  0  0  0
 13 22  1  0  0  0  0
 14 18  1  0  0  0  0
 14 23  1  0  0  0  0
 14 24  1  0  0  0  0
 15 16  1  0  0  0  0
 16 19  1  0  0  0  0
 17 25  1  0  0  0  0
 17 26  1  0  0  0  0
 18 27  1  0  0  0  0
 18 28  1  0  0  0  0
 18 29  1  0  0  0  0
M  END
>  <DRUGBANK_ID>
DB00827

>  <SECONDARY_ACCESSION_NUMBERS>
APRD00873

>  <COMMON_NAME>
Cinoxacin

>  <CAS_NUMBER>
28657-80-9

>  <UNII>
LMK22VUH23

>  <SYNONYMS>
1-ethyl-6,7-methylenedioxy-4(1H)-oxocinnoline-3-carboxylic acid; 5-Ethyl-8-oxo-5,8-dihydro-1,3-dioxa-5,6-diaza-cyclopenta[b]naphthalene-7-carboxylic acid; Cinoxacin; Cinoxacine; Cinoxacino; Cinoxacinum

$$$$
