
 OpenBabel10282417133D

 66 68  0  0  1  0  0  0  0  0999 V2000
    3.3184   -8.6338   -0.4995 C   0  0  2  0  0  0  0  0  0  0  0  0
    3.2963  -10.0434   -0.8882 N   0  0  0  0  0  0  0  0  0  0  0  0
    2.0120   -8.0444   -0.5427 O   0  0  0  0  0  0  0  0  0  0  0  0
    4.2490   -7.8092   -1.4046 C   0  0  1  0  0  0  0  0  0  0  0  0
    2.8029  -10.3865   -2.1411 C   0  0  0  0  0  0  0  0  0  0  0  0
    4.1360  -10.9029   -0.2048 C   0  0  0  0  0  0  0  0  0  0  0  0
    2.1214   -6.7846   -1.2222 C   0  0  1  0  0  0  0  0  0  0  0  0
    3.6081   -6.4460   -1.3764 C   0  0  1  0  0  0  0  0  0  0  0  0
    5.6000   -7.8059   -0.9621 O   0  0  0  0  0  0  0  0  0  0  0  0
    3.1600  -11.6081   -2.6223 N   0  0  0  0  0  0  0  0  0  0  0  0
    2.1435   -9.6606   -2.8655 O   0  0  0  0  0  0  0  0  0  0  0  0
    4.6401  -11.9926   -0.7867 C   0  0  0  0  0  0  0  0  0  0  0  0
    1.4088   -6.8243   -2.5735 C   0  0  0  0  0  0  0  0  0  0  0  0
    4.0627   -5.6403   -0.2861 O   0  0  0  0  0  0  0  0  0  0  0  0
    4.2212  -12.3227   -2.1593 C   0  0  0  0  0  0  0  0  0  0  0  0
    1.8143   -5.7270   -3.3736 O   0  0  0  0  0  0  0  0  0  0  0  0
    4.7913  -13.1743   -2.8158 O   0  0  0  0  0  0  0  0  0  0  0  0
    1.6695   -4.1676   -2.6386 P   0  0  3  0  0  0  0  0  0  0  0  0
    1.6525   -3.6752   -4.1351 O   0  0  0  0  0  0  0  0  0  0  0  0
    0.0832   -4.5249   -2.4276 O   0  0  0  0  0  0  0  0  0  0  0  0
    1.5398   -2.7719   -1.9808 O   0  0  0  0  0  0  0  0  0  0  0  0
    2.6864   -2.8269   -4.9502 P   0  0  3  0  0  0  0  0  0  0  0  0
    1.9335   -2.8013   -6.3771 O   0  0  0  0  0  0  0  0  0  0  0  0
    2.4511   -1.3908   -4.2794 O   0  0  0  0  0  0  0  0  0  0  0  0
    4.1003   -3.2949   -4.9832 O   0  0  0  0  0  0  0  0  0  0  0  0
    0.5633   -3.1896   -6.3227 C   0  0  2  0  0  0  0  0  0  0  0  0
   -0.0635   -3.3219   -7.7075 C   0  0  1  0  0  0  0  0  0  0  0  0
   -0.1731   -2.2350   -5.5623 O   0  0  0  0  0  0  0  0  0  0  0  0
    0.0599   -1.9621   -8.4002 C   0  0  2  0  0  0  0  0  0  0  0  0
    0.5122   -4.4259   -8.4957 N   0  0  0  0  0  0  0  0  0  0  0  0
    0.0180   -0.9107   -6.0645 C   0  0  1  0  0  0  0  0  0  0  0  0
   -0.4829   -0.8150   -7.5078 C   0  0  1  0  0  0  0  0  0  0  0  0
   -0.6395   -1.9764   -9.6502 O   0  0  0  0  0  0  0  0  0  0  0  0
   -0.2666   -5.4718   -8.9380 C   0  0  0  0  0  0  0  0  0  0  0  0
   -0.6336    0.1052   -5.1150 C   0  0  0  0  0  0  0  0  0  0  0  0
   -0.0923    0.4478   -8.0560 O   0  0  0  0  0  0  0  0  0  0  0  0
    0.4343   -6.5109   -9.7761 C   0  0  0  0  0  0  0  0  0  0  0  0
   -1.4616   -5.5720   -8.6726 O   0  0  0  0  0  0  0  0  0  0  0  0
   -1.8331   -0.3706   -4.5132 O   0  0  0  0  0  0  0  0  0  0  0  0
    3.6517   -8.5525    0.5439 H   0  0  0  0  0  0  0  0  0  0  0  0
    4.2334   -8.1789   -2.4360 H   0  0  0  0  0  0  0  0  0  0  0  0
    4.4253  -10.6239    0.8046 H   0  0  0  0  0  0  0  0  0  0  0  0
    1.6390   -6.0388   -0.5773 H   0  0  0  0  0  0  0  0  0  0  0  0
    3.8534   -5.8779   -2.2778 H   0  0  0  0  0  0  0  0  0  0  0  0
    5.6656   -7.2189   -0.1879 H   0  0  0  0  0  0  0  0  0  0  0  0
    2.8794  -11.7800   -3.5755 H   0  0  0  0  0  0  0  0  0  0  0  0
    5.3798  -12.6284   -0.3243 H   0  0  0  0  0  0  0  0  0  0  0  0
    1.6181   -7.6984   -3.1671 H   0  0  0  0  0  0  0  0  0  0  0  0
    0.3189   -6.8511   -2.4481 H   0  0  0  0  0  0  0  0  0  0  0  0
    3.9030   -6.0905    0.5596 H   0  0  0  0  0  0  0  0  0  0  0  0
   -0.0963   -4.9974   -1.5943 H   0  0  0  0  0  0  0  0  0  0  0  0
    2.1108   -1.4980   -3.3558 H   0  0  0  0  0  0  0  0  0  0  0  0
    0.4690   -4.1792   -5.8583 H   0  0  0  0  0  0  0  0  0  0  0  0
   -1.1313   -3.5346   -7.5661 H   0  0  0  0  0  0  0  0  0  0  0  0
    1.1111   -1.7708   -8.6477 H   0  0  0  0  0  0  0  0  0  0  0  0
    1.4890   -4.3735   -8.7607 H   0  0  0  0  0  0  0  0  0  0  0  0
    1.0820   -0.6447   -6.0753 H   0  0  0  0  0  0  0  0  0  0  0  0
   -1.5773   -0.8503   -7.5097 H   0  0  0  0  0  0  0  0  0  0  0  0
   -1.5702   -2.1994   -9.4659 H   0  0  0  0  0  0  0  0  0  0  0  0
    0.0611    0.3309   -4.2979 H   0  0  0  0  0  0  0  0  0  0  0  0
   -0.8514    1.0447   -5.6288 H   0  0  0  0  0  0  0  0  0  0  0  0
    0.8752    0.4340   -8.1796 H   0  0  0  0  0  0  0  0  0  0  0  0
    0.3478   -7.4841   -9.2828 H   0  0  0  0  0  0  0  0  0  0  0  0
   -0.0534   -6.5645  -10.7546 H   0  0  0  0  0  0  0  0  0  0  0  0
    1.4930   -6.2866   -9.9246 H   0  0  0  0  0  0  0  0  0  0  0  0
   -2.4107   -0.7040   -5.2170 H   0  0  0  0  0  0  0  0  0  0  0  0
  1  3  1  0  0  0  0
  1  4  1  0  0  0  0
  1 40  1  1  0  0  0
  1  2  1  0  0  0  0
  2  5  1  0  0  0  0
  2  6  1  0  0  0  0
  3  7  1  0  0  0  0
  4  8  1  0  0  0  0
  4  9  1  0  0  0  0
  4 41  1  6  0  0  0
  5 10  1  0  0  0  0
  5 11  2  0  0  0  0
  6 12  2  0  0  0  0
  6 42  1  0  0  0  0
  7  8  1  0  0  0  0
  7 43  1  1  0  0  0
  7 13  1  0  0  0  0
  8 14  1  0  0  0  0
  8 44  1  6  0  0  0
  9 45  1  0  0  0  0
 10 15  1  0  0  0  0
 10 46  1  0  0  0  0
 12 15  1  0  0  0  0
 12 47  1  0  0  0  0
 13 16  1  0  0  0  0
 13 48  1  0  0  0  0
 13 49  1  0  0  0  0
 14 50  1  0  0  0  0
 15 17  2  0  0  0  0
 16 18  1  0  0  0  0
 18 19  1  0  0  0  0
 18 20  1  0  0  0  0
 18 21  2  0  0  0  0
 19 22  1  0  0  0  0
 20 51  1  0  0  0  0
 22 23  1  0  0  0  0
 22 24  1  0  0  0  0
 22 25  2  0  0  0  0
 24 52  1  0  0  0  0
 26 27  1  0  0  0  0
 26 28  1  0  0  0  0
 26 53  1  1  0  0  0
 26 23  1  0  0  0  0
 27 29  1  0  0  0  0
 27 30  1  0  0  0  0
 27 54  1  1  0  0  0
 28 31  1  0  0  0  0
 29 32  1  0  0  0  0
 29 33  1  0  0  0  0
 29 55  1  6  0  0  0
 30 34  1  0  0  0  0
 30 56  1  0  0  0  0
 31 32  1  0  0  0  0
 31 57  1  6  0  0  0
 31 35  1  0  0  0  0
 32 36  1  0  0  0  0
 32 58  1  1  0  0  0
 33 59  1  0  0  0  0
 34 37  1  0  0  0  0
 34 38  2  0  0  0  0
 35 39  1  0  0  0  0
 35 60  1  0  0  0  0
 35 61  1  0  0  0  0
 36 62  1  0  0  0  0
 37 63  1  0  0  0  0
 37 64  1  0  0  0  0
 37 65  1  0  0  0  0
 39 66  1  0  0  0  0
M  END
>  <DRUGBANK_ID>
DB03397

>  <SECONDARY_ACCESSION_NUMBERS>
EXPT03168

>  <COMMON_NAME>
Uridine-Diphosphate-N-Acetylglucosamine

$$$$
