
 OpenBabel10282417143D

 49 52  0  0  0  0  0  0  0  0999 V2000
   -0.8705   -0.0053    0.5458 N   0  0  0  0  0  0  0  0  0  0  0  0
   -0.6559   -1.2057    0.0135 C   0  0  0  0  0  0  0  0  0  0  0  0
   -5.9296   -2.0119   -0.5970 C   0  0  3  0  0  0  0  0  0  0  0  0
    0.6638   -1.3211   -0.3365 O   0  0  0  0  0  0  0  0  0  0  0  0
    0.1413    0.8340    0.0779 C   0  0  0  0  0  0  0  0  0  0  0  0
   -6.8983   -1.3973   -1.4843 C   0  0  0  0  0  0  0  0  0  0  0  0
   -6.1551   -1.4513    0.7486 C   0  0  0  0  0  0  0  0  0  0  0  0
   -7.7783   -0.7485   -0.6780 N   0  0  0  0  0  0  0  0  0  0  0  0
    1.1665   -0.0473   -0.1500 C   0  0  0  0  0  0  0  0  0  0  0  0
   -7.3125   -0.7363    0.6731 O   0  0  0  0  0  0  0  0  0  0  0  0
   -4.6152   -1.5185   -1.0430 C   0  0  0  0  0  0  0  0  0  0  0  0
   -1.5492   -2.4185   -0.1476 C   0  0  0  0  0  0  0  0  0  0  0  0
   -6.8614   -1.4206   -2.7208 O   0  0  0  0  0  0  0  0  0  0  0  0
   -5.4170   -1.5479    1.7295 O   0  0  0  0  0  0  0  0  0  0  0  0
    0.1144    2.3953    0.0519 C   0  0  0  0  0  0  0  0  0  0  0  0
   -4.1902   -0.1091   -1.0265 C   0  0  0  0  0  0  0  0  0  0  0  0
   -2.6873    2.1681   -1.3451 C   0  0  0  0  0  0  0  0  0  0  0  0
   -0.4931    3.1108   -1.2223 C   0  0  0  0  0  0  0  0  0  0  0  0
   -4.3506    0.6541   -2.1682 C   0  0  0  0  0  0  0  0  0  0  0  0
   -3.4221    0.3424    0.0219 C   0  0  0  0  0  0  0  0  0  0  0  0
   -3.5637    1.7799   -2.3498 C   0  0  0  0  0  0  0  0  0  0  0  0
   -2.7514    1.5317   -0.1278 C   0  0  0  0  0  0  0  0  0  0  0  0
   -1.9080    3.2672   -1.4677 O   0  0  0  0  0  0  0  0  0  0  0  0
    2.6116    0.0872   -0.1134 C   0  0  0  0  0  0  0  0  0  0  0  0
   -2.1780   -2.8136   -1.3694 C   0  0  0  0  0  0  0  0  0  0  0  0
   -2.0292   -3.0891    0.9916 C   0  0  0  0  0  0  0  0  0  0  0  0
   -3.0274   -4.1024    0.9423 C   0  0  0  0  0  0  0  0  0  0  0  0
   -3.2417   -3.8134   -1.4154 C   0  0  0  0  0  0  0  0  0  0  0  0
   -3.6871   -4.4202   -0.2400 C   0  0  0  0  0  0  0  0  0  0  0  0
   -6.0595   -3.0992   -0.6032 H   0  0  0  0  0  0  0  0  0  0  0  0
   -8.2570    0.0677   -1.0274 H   0  0  0  0  0  0  0  0  0  0  0  0
   -4.4172   -1.8540   -2.0660 H   0  0  0  0  0  0  0  0  0  0  0  0
   -3.9775   -1.9516   -0.2956 H   0  0  0  0  0  0  0  0  0  0  0  0
   -0.3404    2.8206    0.9567 H   0  0  0  0  0  0  0  0  0  0  0  0
    1.1602    2.7447    0.0865 H   0  0  0  0  0  0  0  0  0  0  0  0
   -0.1848    4.1684   -1.1503 H   0  0  0  0  0  0  0  0  0  0  0  0
   -0.0270    2.7445   -2.1424 H   0  0  0  0  0  0  0  0  0  0  0  0
   -5.0283    0.3053   -2.9385 H   0  0  0  0  0  0  0  0  0  0  0  0
   -3.1870   -0.2841    0.8885 H   0  0  0  0  0  0  0  0  0  0  0  0
   -3.6653    2.3277   -3.2759 H   0  0  0  0  0  0  0  0  0  0  0  0
   -2.1476    1.8625    0.7009 H   0  0  0  0  0  0  0  0  0  0  0  0
    2.9611   -0.4066    0.8007 H   0  0  0  0  0  0  0  0  0  0  0  0
    3.0357   -0.3904   -0.9924 H   0  0  0  0  0  0  0  0  0  0  0  0
    2.9031    1.1389   -0.0620 H   0  0  0  0  0  0  0  0  0  0  0  0
   -2.1240   -2.1166   -2.2174 H   0  0  0  0  0  0  0  0  0  0  0  0
   -1.7230   -2.7369    1.9729 H   0  0  0  0  0  0  0  0  0  0  0  0
   -3.3599   -4.5730    1.8636 H   0  0  0  0  0  0  0  0  0  0  0  0
   -3.9495   -3.8538   -2.2629 H   0  0  0  0  0  0  0  0  0  0  0  0
   -4.6443   -4.9543   -0.1952 H   0  0  0  0  0  0  0  0  0  0  0  0
  2  1  2  0  0  0  0
  3 11  1  0  0  0  0
  3 30  1  0  0  0  0
  4  2  1  0  0  0  0
  5  1  1  0  0  0  0
  6  3  1  0  0  0  0
  7  3  1  0  0  0  0
  8  6  1  0  0  0  0
  8 10  1  0  0  0  0
  8 31  1  0  0  0  0
  9  5  2  0  0  0  0
  9  4  1  0  0  0  0
 10  7  1  0  0  0  0
 11 16  1  0  0  0  0
 11 32  1  0  0  0  0
 11 33  1  0  0  0  0
 12  2  1  0  0  0  0
 13  6  2  0  0  0  0
 14  7  2  0  0  0  0
 15  5  1  0  0  0  0
 15 34  1  0  0  0  0
 15 35  1  0  0  0  0
 16 20  2  0  0  0  0
 16 19  1  0  0  0  0
 17 23  1  0  0  0  0
 18 15  1  0  0  0  0
 18 36  1  0  0  0  0
 18 37  1  0  0  0  0
 19 21  2  0  0  0  0
 19 38  1  0  0  0  0
 20 22  1  0  0  0  0
 20 39  1  0  0  0  0
 21 17  1  0  0  0  0
 21 40  1  0  0  0  0
 22 17  2  0  0  0  0
 22 41  1  0  0  0  0
 23 18  1  0  0  0  0
 24  9  1  0  0  0  0
 24 42  1  0  0  0  0
 24 43  1  0  0  0  0
 24 44  1  0  0  0  0
 25 12  1  0  0  0  0
 25 45  1  0  0  0  0
 26 12  2  0  0  0  0
 26 46  1  0  0  0  0
 27 26  1  0  0  0  0
 27 47  1  0  0  0  0
 28 25  2  0  0  0  0
 28 48  1  0  0  0  0
 29 27  2  0  0  0  0
 29 28  1  0  0  0  0
 29 49  1  0  0  0  0
M  END
>  <DRUGBANK_ID>
DB04971

>  <COMMON_NAME>
Reglitazar

>  <CAS_NUMBER>
170861-63-9

>  <UNII>
P9UTN18JVV

>  <SYNONYMS>
Reglitazar; Reglixane

$$$$
