
 OpenBabel10282417153D

 77 80  0  0  1  0  0  0  0  0999 V2000
    6.4458    1.1727   -2.0697 O   0  0  0  0  0  0  0  0  0  0  0  0
    9.9274    0.3883    4.2034 O   0  0  0  0  0  0  0  0  0  0  0  0
    8.2829   -1.1106    4.0261 O   0  0  0  0  0  0  0  0  0  0  0  0
    3.3005   -2.4169    1.4267 O   0  0  0  0  0  0  0  0  0  0  0  0
    5.3400    2.0249    0.6523 O   0  0  0  0  0  0  0  0  0  0  0  0
    7.3546    1.4674    0.2648 O   0  0  0  0  0  0  0  0  0  0  0  0
    5.0103   -0.0810   -0.8311 N   0  0  0  0  0  0  0  0  0  0  0  0
    5.5048   -2.1748    1.3482 N   0  0  0  0  0  0  0  0  0  0  0  0
    7.8838   -0.4708   -0.3484 C   0  0  0  0  0  0  0  0  0  0  0  0
    9.2116   -0.4487   -1.0622 C   0  0  0  0  0  0  0  0  0  0  0  0
    7.4929   -1.7625   -0.6034 C   0  0  0  0  0  0  0  0  0  0  0  0
    8.2831   -0.7531    1.2224 C   0  0  0  0  0  0  0  0  0  0  0  0
    9.7828   -1.8577   -1.0625 C   0  0  0  0  0  0  0  0  0  0  0  0
    8.5613   -2.6366   -1.0395 C   0  0  0  0  0  0  0  0  0  0  0  0
    8.5250    0.5263    2.2112 C   0  0  1  0  0  0  0  0  0  0  0  0
    6.3640    0.2593   -1.3022 C   0  0  0  0  0  0  0  0  0  0  0  0
    7.4989    1.9785    2.4771 C   0  0  0  0  0  0  0  0  0  0  0  0
    4.2912   -1.3888   -0.6455 C   0  0  1  0  0  0  0  0  0  0  0  0
    8.8772   -0.2073    3.5533 C   0  0  0  0  0  0  0  0  0  0  0  0
    5.8130    1.8659    2.8904 C   0  0  0  0  0  0  0  0  0  0  0  0
    4.5650   -2.3081   -1.8956 C   0  0  0  0  0  0  0  0  0  0  0  0
    4.2774   -2.0592    0.7824 C   0  0  0  0  0  0  0  0  0  0  0  0
    5.9393   -2.9652   -2.1764 C   0  0  0  0  0  0  0  0  0  0  0  0
    5.7540    1.7082    4.2979 C   0  0  0  0  0  0  0  0  0  0  0  0
    6.3705   -4.0205   -0.7762 C   0  0  0  0  0  0  0  0  0  0  0  0
    6.2754   -3.5637    0.8019 C   0  0  0  0  0  0  0  0  0  0  0  0
   11.0373    0.5806    3.3503 C   0  0  0  0  0  0  0  0  0  0  0  0
    5.9215   -0.6149    1.6815 C   0  0  0  0  0  0  0  0  0  0  0  0
    6.8557    1.1858    4.9047 C   0  0  0  0  0  0  0  0  0  0  0  0
    4.6977    2.1920    4.9786 C   0  0  0  0  0  0  0  0  0  0  0  0
    7.4133   -5.0113   -1.1031 C   0  0  0  0  0  0  0  0  0  0  0  0
    7.2261   -4.1361    1.7095 C   0  0  0  0  0  0  0  0  0  0  0  0
   11.2709   -0.6661    2.5024 C   0  0  0  0  0  0  0  0  0  0  0  0
    8.2798   -5.5285   -0.0752 C   0  0  0  0  0  0  0  0  0  0  0  0
    8.1766   -5.1109    1.2817 C   0  0  0  0  0  0  0  0  0  0  0  0
    6.8064    0.6649    6.1274 C   0  0  0  0  0  0  0  0  0  0  0  0
    4.8636    2.1113    6.3261 C   0  0  0  0  0  0  0  0  0  0  0  0
    6.2911    1.0416    0.7658 C   0  0  0  0  0  0  0  0  0  0  0  0
    5.8217    1.2300    6.8817 C   0  0  0  0  0  0  0  0  0  0  0  0
    5.8396    2.8792    0.8463 H   0  0  0  0  0  0  0  0  0  0  0  0
    4.3753    0.7300   -0.9241 H   0  0  0  0  0  0  0  0  0  0  0  0
    9.0401   -0.0984   -2.0694 H   0  0  0  0  0  0  0  0  0  0  0  0
    9.8805    0.1647   -0.4746 H   0  0  0  0  0  0  0  0  0  0  0  0
    6.6578   -2.0216   -0.0788 H   0  0  0  0  0  0  0  0  0  0  0  0
    6.7341   -1.5170   -1.2267 H   0  0  0  0  0  0  0  0  0  0  0  0
    7.7674   -1.5897    1.7428 H   0  0  0  0  0  0  0  0  0  0  0  0
    9.0903   -1.5109    1.2558 H   0  0  0  0  0  0  0  0  0  0  0  0
   10.3128   -2.1869   -1.9475 H   0  0  0  0  0  0  0  0  0  0  0  0
   10.3437   -2.1795   -0.1731 H   0  0  0  0  0  0  0  0  0  0  0  0
    8.3873   -3.0378   -2.0304 H   0  0  0  0  0  0  0  0  0  0  0  0
    8.7355   -3.3311   -0.2431 H   0  0  0  0  0  0  0  0  0  0  0  0
    9.3800    0.9549    1.6834 H   0  0  0  0  0  0  0  0  0  0  0  0
    7.9590    2.7133    3.1421 H   0  0  0  0  0  0  0  0  0  0  0  0
    7.6675    2.6618    1.6262 H   0  0  0  0  0  0  0  0  0  0  0  0
    3.2246   -1.0916   -0.6780 H   0  0  0  0  0  0  0  0  0  0  0  0
    5.1077    2.6602    2.5940 H   0  0  0  0  0  0  0  0  0  0  0  0
    5.1216    1.0859    2.5129 H   0  0  0  0  0  0  0  0  0  0  0  0
    3.9351   -3.1751   -1.8006 H   0  0  0  0  0  0  0  0  0  0  0  0
    4.2638   -1.7058   -2.7723 H   0  0  0  0  0  0  0  0  0  0  0  0
    6.2741   -3.3371   -3.1757 H   0  0  0  0  0  0  0  0  0  0  0  0
    6.5915   -2.0980   -2.5476 H   0  0  0  0  0  0  0  0  0  0  0  0
   10.8786    1.5009    2.7744 H   0  0  0  0  0  0  0  0  0  0  0  0
   11.8919    0.7403    3.9954 H   0  0  0  0  0  0  0  0  0  0  0  0
    5.3558   -0.5334    2.6174 H   0  0  0  0  0  0  0  0  0  0  0  0
    6.7012   -0.5799    2.4349 H   0  0  0  0  0  0  0  0  0  0  0  0
    7.8094    1.3029    4.4606 H   0  0  0  0  0  0  0  0  0  0  0  0
    3.9342    2.7490    4.4418 H   0  0  0  0  0  0  0  0  0  0  0  0
    7.8648   -5.0711   -2.1158 H   0  0  0  0  0  0  0  0  0  0  0  0
    7.3645   -3.7291    2.7176 H   0  0  0  0  0  0  0  0  0  0  0  0
   10.5120   -0.7883    1.7603 H   0  0  0  0  0  0  0  0  0  0  0  0
   12.1436   -0.6005    1.8719 H   0  0  0  0  0  0  0  0  0  0  0  0
   11.1899   -1.5836    3.0969 H   0  0  0  0  0  0  0  0  0  0  0  0
    9.2056   -6.0564   -0.3589 H   0  0  0  0  0  0  0  0  0  0  0  0
    8.9521   -5.4384    1.9882 H   0  0  0  0  0  0  0  0  0  0  0  0
    7.6261    0.0327    6.4383 H   0  0  0  0  0  0  0  0  0  0  0  0
    4.2692    2.7682    6.9318 H   0  0  0  0  0  0  0  0  0  0  0  0
    5.8769    1.0489    7.9358 H   0  0  0  0  0  0  0  0  0  0  0  0
  1 16  2  0  0  0  0
  2 19  1  0  0  0  0
  2 27  1  0  0  0  0
  3 19  2  0  0  0  0
  4 22  2  0  0  0  0
  5 38  1  0  0  0  0
  5 40  1  0  0  0  0
  6 38  2  0  0  0  0
  7 16  1  0  0  0  0
  7 41  1  0  0  0  0
  8 22  1  0  0  0  0
  8 26  1  0  0  0  0
  8 28  1  0  0  0  0
  9 10  1  0  0  0  0
  9 11  1  0  0  0  0
  9 12  1  0  0  0  0
  9 16  1  0  0  0  0
 10 13  1  0  0  0  0
 10 42  1  0  0  0  0
 10 43  1  0  0  0  0
 11 14  1  0  0  0  0
 11 44  1  0  0  0  0
 11 45  1  0  0  0  0
 12 15  1  0  0  0  0
 12 46  1  0  0  0  0
 12 47  1  0  0  0  0
 13 14  1  0  0  0  0
 13 48  1  0  0  0  0
 13 49  1  0  0  0  0
 14 50  1  0  0  0  0
 14 51  1  0  0  0  0
 15 17  1  0  0  0  0
 15 19  1  0  0  0  0
 15 52  1  6  0  0  0
 17 20  1  0  0  0  0
 17 53  1  0  0  0  0
 17 54  1  0  0  0  0
 18 21  1  0  0  0  0
 18 22  1  0  0  0  0
 18 55  1  6  0  0  0
 18  7  1  0  0  0  0
 20 24  1  0  0  0  0
 20 56  1  0  0  0  0
 20 57  1  0  0  0  0
 21 23  1  0  0  0  0
 21 58  1  0  0  0  0
 21 59  1  0  0  0  0
 23 25  1  0  0  0  0
 23 60  1  0  0  0  0
 23 61  1  0  0  0  0
 24 29  2  0  0  0  0
 24 30  1  0  0  0  0
 25 26  1  0  0  0  0
 25 31  2  0  0  0  0
 26 32  2  0  0  0  0
 27 33  1  0  0  0  0
 27 62  1  0  0  0  0
 27 63  1  0  0  0  0
 28 38  1  0  0  0  0
 28 64  1  0  0  0  0
 28 65  1  0  0  0  0
 29 36  1  0  0  0  0
 29 66  1  0  0  0  0
 30 37  2  0  0  0  0
 30 67  1  0  0  0  0
 31 34  1  0  0  0  0
 31 68  1  0  0  0  0
 32 35  1  0  0  0  0
 32 69  1  0  0  0  0
 33 70  1  0  0  0  0
 33 71  1  0  0  0  0
 33 72  1  0  0  0  0
 34 35  2  0  0  0  0
 34 73  1  0  0  0  0
 35 74  1  0  0  0  0
 36 39  2  0  0  0  0
 36 75  1  0  0  0  0
 37 39  1  0  0  0  0
 37 76  1  0  0  0  0
 39 77  1  0  0  0  0
M  END
>  <DRUGBANK_ID>
DB05796

>  <SECONDARY_ACCESSION_NUMBERS>
DB12995

>  <COMMON_NAME>
Daglutril

>  <CAS_NUMBER>
182821-27-8

>  <UNII>
KKV299446X

>  <SYNONYMS>
((3S)-3-{1-((2R)-2-Ethoxycarbonyl-4-phenylbutyl)cyclopentanecarboxamido}-2-oxo-2,3,4,5-tetrahydro-1H-1-benzazepin-1-yl)acetic acid; Daglutril

$$$$
