Indole.mol
 OpenBabel10282417143D

 16 17  0  0  0  0  0  0  0  0999 V2000
   -1.5678    1.0355    0.0053 N   0  0  0  0  0  0  0  0  0  0  0  0
   -2.3863   -0.0638   -0.0353 C   0  0  0  0  0  0  0  0  0  0  0  0
   -1.5889   -1.1838   -0.0058 C   0  0  0  0  0  0  0  0  0  0  0  0
   -0.2354   -0.7511    0.0125 C   0  0  0  0  0  0  0  0  0  0  0  0
    1.0013   -1.4223    0.0166 C   0  0  0  0  0  0  0  0  0  0  0  0
    2.1844   -0.6773   -0.0136 C   0  0  0  0  0  0  0  0  0  0  0  0
    2.1459    0.7156   -0.0252 C   0  0  0  0  0  0  0  0  0  0  0  0
    0.9288    1.4061   -0.0006 C   0  0  0  0  0  0  0  0  0  0  0  0
   -0.2466    0.6439    0.0084 C   0  0  0  0  0  0  0  0  0  0  0  0
   -1.8823    1.9949    0.0058 H   0  0  0  0  0  0  0  0  0  0  0  0
   -3.4616    0.0444   -0.0813 H   0  0  0  0  0  0  0  0  0  0  0  0
   -1.9342   -2.2090   -0.0204 H   0  0  0  0  0  0  0  0  0  0  0  0
    1.0353   -2.5072    0.0252 H   0  0  0  0  0  0  0  0  0  0  0  0
    3.1405   -1.1941   -0.0349 H   0  0  0  0  0  0  0  0  0  0  0  0
    3.0782    1.2750   -0.0577 H   0  0  0  0  0  0  0  0  0  0  0  0
    0.9060    2.4908   -0.0049 H   0  0  0  0  0  0  0  0  0  0  0  0
  1  2  1  0  0  0  0
  1  9  1  0  0  0  0
  1 10  1  0  0  0  0
  2  3  2  0  0  0  0
  2 11  1  0  0  0  0
  3  4  1  0  0  0  0
  3 12  1  0  0  0  0
  4  5  1  0  0  0  0
  4  9  2  0  0  0  0
  5  6  2  0  0  0  0
  5 13  1  0  0  0  0
  6  7  1  0  0  0  0
  6 14  1  0  0  0  0
  7  8  2  0  0  0  0
  7 15  1  0  0  0  0
  8  9  1  0  0  0  0
  8 16  1  0  0  0  0
M  END
>  <DRUGBANK_ID>
DB04532

>  <SECONDARY_ACCESSION_NUMBERS>
EXPT01882

>  <COMMON_NAME>
Indole

>  <CAS_NUMBER>
120-72-9

>  <UNII>
8724FJW4M5

$$$$
