
 OpenBabel10282417133D

 28 29  0  0  1  0  0  0  0  0999 V2000
    2.1382   -0.6740    0.0168 C   0  0  0  0  0  0  0  0  0  0  0  0
    2.1256    0.7184    0.0137 C   0  0  0  0  0  0  0  0  0  0  0  0
    0.9396   -1.3997    0.0222 C   0  0  0  0  0  0  0  0  0  0  0  0
    0.9212    1.4261    0.0060 C   0  0  0  0  0  0  0  0  0  0  0  0
   -2.2128   -2.5061    0.0394 C   0  0  0  0  0  0  0  0  0  0  0  0
   -0.2923   -0.7106   -0.0116 C   0  0  0  0  0  0  0  0  0  0  0  0
   -1.6720   -1.1108   -0.0499 C   0  0  0  0  0  0  0  0  0  0  0  0
   -3.0242   -2.7992    1.3243 C   0  0  1  0  0  0  0  0  0  0  0  0
   -0.2653    0.6850   -0.0260 C   0  0  0  0  0  0  0  0  0  0  0  0
   -2.4068    0.0453   -0.2435 C   0  0  0  0  0  0  0  0  0  0  0  0
   -4.2913   -1.9307    1.4621 C   0  0  0  0  0  0  0  0  0  0  0  0
   -3.4518   -4.2251    1.2854 N   0  0  0  0  0  0  0  0  0  0  0  0
   -1.5691    1.1093   -0.0832 N   0  0  0  0  0  0  0  0  0  0  0  0
   -3.6982    0.2632   -0.4656 O   0  0  0  0  0  0  0  0  0  0  0  0
   -5.4040   -2.2345    1.0728 O   0  0  0  0  0  0  0  0  0  0  0  0
   -4.0469   -0.7017    1.9592 O   0  0  0  0  0  0  0  0  0  0  0  0
   -2.4070   -2.6477    2.2159 H   0  0  0  0  0  0  0  0  0  0  0  0
    3.0876   -1.2043    0.0078 H   0  0  0  0  0  0  0  0  0  0  0  0
    3.0658    1.2650    0.0089 H   0  0  0  0  0  0  0  0  0  0  0  0
    0.9697   -2.4853    0.0151 H   0  0  0  0  0  0  0  0  0  0  0  0
    0.9125    2.5109   -0.0026 H   0  0  0  0  0  0  0  0  0  0  0  0
   -2.8148   -2.6992   -0.8588 H   0  0  0  0  0  0  0  0  0  0  0  0
   -1.3733   -3.2148   -0.0063 H   0  0  0  0  0  0  0  0  0  0  0  0
   -4.0686   -4.3870    2.0843 H   0  0  0  0  0  0  0  0  0  0  0  0
   -4.0682   -4.3439    0.4756 H   0  0  0  0  0  0  0  0  0  0  0  0
   -1.8762    2.0696   -0.0684 H   0  0  0  0  0  0  0  0  0  0  0  0
   -4.1274   -0.6063   -0.5675 H   0  0  0  0  0  0  0  0  0  0  0  0
   -4.7207   -0.0950    1.5786 H   0  0  0  0  0  0  0  0  0  0  0  0
  1 18  1  0  0  0  0
  2  1  2  0  0  0  0
  2 19  1  0  0  0  0
  3  1  1  0  0  0  0
  3 20  1  0  0  0  0
  4  2  1  0  0  0  0
  4 21  1  0  0  0  0
  5 22  1  0  0  0  0
  5 23  1  0  0  0  0
  6  3  2  0  0  0  0
  7  5  1  0  0  0  0
  7  6  1  0  0  0  0
  8  5  1  0  0  0  0
  8 12  1  0  0  0  0
  8 17  1  1  0  0  0
  9  4  2  0  0  0  0
  9  6  1  0  0  0  0
 10  7  2  0  0  0  0
 11  8  1  0  0  0  0
 12 24  1  0  0  0  0
 12 25  1  0  0  0  0
 13  9  1  0  0  0  0
 13 10  1  0  0  0  0
 13 26  1  0  0  0  0
 14 10  1  0  0  0  0
 14 27  1  0  0  0  0
 15 11  2  0  0  0  0
 16 11  1  0  0  0  0
 16 28  1  0  0  0  0
M  END
>  <DRUGBANK_ID>
DB03679

>  <SECONDARY_ACCESSION_NUMBERS>
EXPT03112

>  <COMMON_NAME>
2-Hydroxy-Tryptophan

>  <UNII>
TCB9GM9U3X

$$$$
