
 OpenBabel10282417183D

 59 60  0  0  0  0  0  0  0  0999 V2000
   -9.4690    0.0217   -3.1530 O   0  0  0  0  0  0  0  0  0  0  0  0
   -9.2536    2.0889   -0.7598 O   0  0  0  0  0  0  0  0  0  0  0  0
   -1.8968   -0.4197   -4.9982 O   0  0  0  0  0  0  0  0  0  0  0  0
   -3.2651   -0.7279   -2.2240 O   0  0  0  0  0  0  0  0  0  0  0  0
   -5.6493   -4.1714    6.0930 O   0  0  0  0  0  0  0  0  0  0  0  0
   -5.9636   -2.2507    5.0159 O   0  0  0  0  0  0  0  0  0  0  0  0
   -7.2493   -0.2691   -2.3861 C   0  0  1  0  0  0  0  0  0  0  0  0
   -7.4506    0.3935   -1.0001 C   0  0  1  0  0  0  0  0  0  0  0  0
   -8.1460    0.5238   -3.3227 C   0  0  2  0  0  0  0  0  0  0  0  0
   -7.9655    1.8237   -1.3034 C   0  0  1  0  0  0  0  0  0  0  0  0
   -8.0307    1.9571   -2.8251 C   0  0  0  0  0  0  0  0  0  0  0  0
   -5.8384   -0.2421   -2.8536 C   0  0  0  0  0  0  0  0  0  0  0  0
   -8.4209   -0.4250   -0.1374 C   0  0  0  0  0  0  0  0  0  0  0  0
   -5.1670   -1.3606   -3.1759 C   0  0  0  0  0  0  0  0  0  0  0  0
   -7.8963   -1.7952    0.1681 C   0  0  0  0  0  0  0  0  0  0  0  0
   -3.7109   -1.2989   -3.4561 C   0  0  1  0  0  0  0  0  0  0  0  0
   -3.3045   -0.4035   -4.6489 C   0  0  0  0  0  0  0  0  0  0  0  0
   -0.9502   -0.0132   -4.0932 C   0  0  0  0  0  0  0  0  0  0  0  0
   -7.7185   -2.2408    1.3600 C   0  0  0  0  0  0  0  0  0  0  0  0
   -0.7589   -0.5973   -2.8395 C   0  0  0  0  0  0  0  0  0  0  0  0
    0.0052    0.9075   -4.5094 C   0  0  0  0  0  0  0  0  0  0  0  0
   -7.5564   -2.6679    2.5787 C   0  0  0  0  0  0  0  0  0  0  0  0
    0.1453   -0.0903   -1.9100 C   0  0  0  0  0  0  0  0  0  0  0  0
    1.0787    1.2375   -3.6643 C   0  0  0  0  0  0  0  0  0  0  0  0
    1.1047    0.8030   -2.3391 C   0  0  0  0  0  0  0  0  0  0  0  0
   -7.2260   -4.0781    2.9383 C   0  0  0  0  0  0  0  0  0  0  0  0
   -5.8728   -4.2133    3.6295 C   0  0  0  0  0  0  0  0  0  0  0  0
   -5.8315   -3.4706    4.9526 C   0  0  0  0  0  0  0  0  0  0  0  0
   -5.4051   -5.5782    6.1037 C   0  0  0  0  0  0  0  0  0  0  0  0
  -10.0577    0.5119   -3.7474 H   0  0  0  0  0  0  0  0  0  0  0  0
   -9.8711    1.4346   -1.1355 H   0  0  0  0  0  0  0  0  0  0  0  0
   -2.8679    0.1299   -2.4574 H   0  0  0  0  0  0  0  0  0  0  0  0
   -7.5754   -1.3117   -2.3810 H   0  0  0  0  0  0  0  0  0  0  0  0
   -6.4923    0.4723   -0.4637 H   0  0  0  0  0  0  0  0  0  0  0  0
   -7.8592    0.4270   -4.3758 H   0  0  0  0  0  0  0  0  0  0  0  0
   -7.2861    2.5754   -0.8862 H   0  0  0  0  0  0  0  0  0  0  0  0
   -8.8751    2.5690   -3.1542 H   0  0  0  0  0  0  0  0  0  0  0  0
   -7.0997    2.4069   -3.1902 H   0  0  0  0  0  0  0  0  0  0  0  0
   -5.3242    0.7179   -2.8678 H   0  0  0  0  0  0  0  0  0  0  0  0
   -8.6226    0.1156    0.7960 H   0  0  0  0  0  0  0  0  0  0  0  0
   -9.3823   -0.5498   -0.6470 H   0  0  0  0  0  0  0  0  0  0  0  0
   -5.6139   -2.3415   -3.0289 H   0  0  0  0  0  0  0  0  0  0  0  0
   -7.7027   -2.4757   -0.6557 H   0  0  0  0  0  0  0  0  0  0  0  0
   -3.2839   -2.3036   -3.5697 H   0  0  0  0  0  0  0  0  0  0  0  0
   -3.8479   -0.7465   -5.5440 H   0  0  0  0  0  0  0  0  0  0  0  0
   -3.6221    0.6354   -4.4882 H   0  0  0  0  0  0  0  0  0  0  0  0
   -1.3212   -1.4627   -2.5112 H   0  0  0  0  0  0  0  0  0  0  0  0
   -0.0437    1.3407   -5.5043 H   0  0  0  0  0  0  0  0  0  0  0  0
   -7.6509   -1.9332    3.3711 H   0  0  0  0  0  0  0  0  0  0  0  0
    0.1204   -0.4514   -0.8844 H   0  0  0  0  0  0  0  0  0  0  0  0
    1.9103    1.8234   -4.0439 H   0  0  0  0  0  0  0  0  0  0  0  0
    1.8919    1.1113   -1.6576 H   0  0  0  0  0  0  0  0  0  0  0  0
   -8.0230   -4.4716    3.5786 H   0  0  0  0  0  0  0  0  0  0  0  0
   -7.2171   -4.6959    2.0291 H   0  0  0  0  0  0  0  0  0  0  0  0
   -5.6647   -5.2784    3.7402 H   0  0  0  0  0  0  0  0  0  0  0  0
   -5.0652   -3.8206    2.9997 H   0  0  0  0  0  0  0  0  0  0  0  0
   -6.2741   -6.1133    5.7123 H   0  0  0  0  0  0  0  0  0  0  0  0
   -4.4958   -5.8091    5.5423 H   0  0  0  0  0  0  0  0  0  0  0  0
   -5.2533   -5.8787    7.1432 H   0  0  0  0  0  0  0  0  0  0  0  0
  1 30  1  0  0  0  0
  2 31  1  0  0  0  0
  3 17  1  0  0  0  0
  3 18  1  0  0  0  0
  4 32  1  0  0  0  0
  5 28  1  0  0  0  0
  5 29  1  0  0  0  0
  6 28  2  0  0  0  0
  7  8  1  0  0  0  0
  7  9  1  0  0  0  0
  7 12  1  0  0  0  0
  7 33  1  1  0  0  0
  8 10  1  0  0  0  0
  8 13  1  0  0  0  0
  8 34  1  1  0  0  0
  9  1  1  0  0  0  0
  9 11  1  0  0  0  0
  9 35  1  6  0  0  0
 10  2  1  0  0  0  0
 10 11  1  0  0  0  0
 10 36  1  1  0  0  0
 11 37  1  0  0  0  0
 11 38  1  0  0  0  0
 12 14  2  0  0  0  0
 12 39  1  0  0  0  0
 13 15  1  0  0  0  0
 13 40  1  0  0  0  0
 13 41  1  0  0  0  0
 14 42  1  0  0  0  0
 15 19  2  0  0  0  0
 15 43  1  0  0  0  0
 16 17  1  0  0  0  0
 16 44  1  6  0  0  0
 16 14  1  0  0  0  0
 16  4  1  0  0  0  0
 17 45  1  0  0  0  0
 17 46  1  0  0  0  0
 18 20  2  0  0  0  0
 18 21  1  0  0  0  0
 19 22  2  0  0  0  0
 20 23  1  0  0  0  0
 20 47  1  0  0  0  0
 21 24  2  0  0  0  0
 21 48  1  0  0  0  0
 22 26  1  0  0  0  0
 22 49  1  0  0  0  0
 23 25  2  0  0  0  0
 23 50  1  0  0  0  0
 24 25  1  0  0  0  0
 24 51  1  0  0  0  0
 25 52  1  0  0  0  0
 26 27  1  0  0  0  0
 26 53  1  0  0  0  0
 26 54  1  0  0  0  0
 27 28  1  0  0  0  0
 27 55  1  0  0  0  0
 27 56  1  0  0  0  0
 29 57  1  0  0  0  0
 29 58  1  0  0  0  0
 29 59  1  0  0  0  0
M  END
>  <DRUGBANK_ID>
DB11411

>  <COMMON_NAME>
Fenprostalene

>  <CAS_NUMBER>
69381-94-8

>  <UNII>
X8I39OJF4P

>  <SYNONYMS>
Fenprostalene

$$$$
