
 OpenBabel10282417203D

 46 49  0  0  1  0  0  0  0  0999 V2000
    0.8293   -0.0931   -0.0000 C   0  0  0  0  0  0  0  0  0  0  0  0
    0.2191    1.2910    0.2246 C   0  0  1  0  0  0  0  0  0  0  0  0
    0.7893    2.2812   -0.7783 C   0  0  0  0  0  0  0  0  0  0  0  0
    0.9581    3.7675   -0.4979 C   0  0  0  0  0  0  0  0  0  0  0  0
   -0.0765    3.2963   -1.4787 C   0  0  0  0  0  0  0  0  0  0  0  0
   -1.2601    1.2784    0.3006 N   0  0  0  0  0  0  0  0  0  0  0  0
   -1.8857    2.1566    1.2532 C   0  0  0  0  0  0  0  0  0  0  0  0
   -3.3322    1.9919    1.0018 C   0  0  0  0  0  0  0  0  0  0  0  0
   -4.3373    2.6795    1.6689 C   0  0  0  0  0  0  0  0  0  0  0  0
   -5.6517    2.4709    1.2881 C   0  0  0  0  0  0  0  0  0  0  0  0
   -5.9196    1.4835    0.3032 C   0  0  0  0  0  0  0  0  0  0  0  0
   -4.8798    0.8001   -0.3765 C   0  0  0  0  0  0  0  0  0  0  0  0
   -3.5676    1.0790   -0.0244 C   0  0  0  0  0  0  0  0  0  0  0  0
   -2.2170    0.6335   -0.4962 C   0  0  0  0  0  0  0  0  0  0  0  0
   -2.0188   -0.1465   -1.4180 O   0  0  0  0  0  0  0  0  0  0  0  0
   -5.3220   -0.3337   -1.5917 Cl  0  0  0  0  0  0  0  0  0  0  0  0
   -6.7274    3.0272    2.0858 C   0  0  0  0  0  0  0  0  0  0  0  0
   -7.5997    2.3411    2.8621 C   0  0  0  0  0  0  0  0  0  0  0  0
   -8.4788    3.2594    3.4619 C   0  0  0  0  0  0  0  0  0  0  0  0
   -8.0840    4.5049    3.0865 N   0  0  0  0  0  0  0  0  0  0  0  0
   -6.9683    4.3500    2.2394 O   0  0  0  0  0  0  0  0  0  0  0  0
   -9.6617    3.0364    4.3612 C   0  0  0  0  0  0  0  0  0  0  0  0
  -10.3268    3.9938    4.7714 O   0  0  0  0  0  0  0  0  0  0  0  0
  -10.0483    1.7258    4.7531 N   0  0  0  0  0  0  0  0  0  0  0  0
   -9.4372    0.4643    4.4114 C   0  0  0  0  0  0  0  0  0  0  0  0
  -11.2109    1.5652    5.6168 C   0  0  0  0  0  0  0  0  0  0  0  0
    0.5647   -0.4827   -0.9866 H   0  0  0  0  0  0  0  0  0  0  0  0
    0.4996   -0.8040    0.7626 H   0  0  0  0  0  0  0  0  0  0  0  0
    1.9261   -0.0441    0.0422 H   0  0  0  0  0  0  0  0  0  0  0  0
    0.5650    1.6082    1.2200 H   0  0  0  0  0  0  0  0  0  0  0  0
    1.6340    1.8569   -1.3163 H   0  0  0  0  0  0  0  0  0  0  0  0
    0.6364    4.1934    0.4440 H   0  0  0  0  0  0  0  0  0  0  0  0
    1.8287    4.2736   -0.9125 H   0  0  0  0  0  0  0  0  0  0  0  0
    0.0926    3.4396   -2.5388 H   0  0  0  0  0  0  0  0  0  0  0  0
   -1.1205    3.3664   -1.2072 H   0  0  0  0  0  0  0  0  0  0  0  0
   -1.6070    3.1905    1.0483 H   0  0  0  0  0  0  0  0  0  0  0  0
   -1.6232    1.8471    2.2661 H   0  0  0  0  0  0  0  0  0  0  0  0
   -4.0881    3.3318    2.5001 H   0  0  0  0  0  0  0  0  0  0  0  0
   -6.9591    1.2275    0.0841 H   0  0  0  0  0  0  0  0  0  0  0  0
   -7.4629    1.2860    2.8714 H   0  0  0  0  0  0  0  0  0  0  0  0
   -9.0776   -0.0283    5.3161 H   0  0  0  0  0  0  0  0  0  0  0  0
  -10.1442   -0.1493    3.8508 H   0  0  0  0  0  0  0  0  0  0  0  0
   -8.5888    0.5429    3.7920 H   0  0  0  0  0  0  0  0  0  0  0  0
  -11.0454    2.0773    6.5673 H   0  0  0  0  0  0  0  0  0  0  0  0
  -12.1035    1.9546    5.1218 H   0  0  0  0  0  0  0  0  0  0  0  0
  -11.3697    0.4980    5.8235 H   0  0  0  0  0  0  0  0  0  0  0  0
  1 27  1  0  0  0  0
  1 28  1  0  0  0  0
  1 29  1  0  0  0  0
  2  1  1  0  0  0  0
  2  3  1  0  0  0  0
  2  6  1  0  0  0  0
  2 30  1  1  0  0  0
  3  4  1  0  0  0  0
  3  5  1  0  0  0  0
  3 31  1  0  0  0  0
  4  5  1  0  0  0  0
  4 32  1  0  0  0  0
  4 33  1  0  0  0  0
  5 34  1  0  0  0  0
  5 35  1  0  0  0  0
  6  7  1  0  0  0  0
  6 14  1  0  0  0  0
  7  8  1  0  0  0  0
  7 36  1  0  0  0  0
  7 37  1  0  0  0  0
  8  9  2  0  0  0  0
  8 13  1  0  0  0  0
  9 10  1  0  0  0  0
  9 38  1  0  0  0  0
 10 11  2  0  0  0  0
 10 17  1  0  0  0  0
 11 12  1  0  0  0  0
 11 39  1  0  0  0  0
 12 13  2  0  0  0  0
 12 16  1  0  0  0  0
 13 14  1  0  0  0  0
 14 15  2  0  0  0  0
 17 18  2  0  0  0  0
 17 21  1  0  0  0  0
 18 19  1  0  0  0  0
 18 40  1  0  0  0  0
 19 20  2  0  0  0  0
 19 22  1  0  0  0  0
 20 21  1  0  0  0  0
 22 23  2  0  0  0  0
 22 24  1  0  0  0  0
 24 25  1  0  0  0  0
 24 26  1  0  0  0  0
 25 41  1  0  0  0  0
 25 42  1  0  0  0  0
 25 43  1  0  0  0  0
 26 44  1  0  0  0  0
 26 45  1  0  0  0  0
 26 46  1  0  0  0  0
M  END
>  <DRUGBANK_ID>
DB13102

>  <COMMON_NAME>
AZD-8418

>  <CAS_NUMBER>
1198309-73-7

>  <UNII>
7U6B825568

$$$$
