
 OpenBabel10282417193D

 15 15  0  0  0  0  0  0  0  0999 V2000
    1.1063    0.6539    0.0112 C   0  0  0  0  0  0  0  0  0  0  0  0
    1.0481   -0.7546    0.0196 C   0  0  0  0  0  0  0  0  0  0  0  0
   -0.6923    2.4646   -0.0178 C   0  0  0  0  0  0  0  0  0  0  0  0
   -0.9406   -2.4331   -0.0203 C   0  0  0  0  0  0  0  0  0  0  0  0
   -0.1982    1.1086    0.0016 C   0  0  0  0  0  0  0  0  0  0  0  0
   -0.2866   -1.0984    0.0176 C   0  0  0  0  0  0  0  0  0  0  0  0
   -1.8674    2.8285   -0.0279 O   0  0  0  0  0  0  0  0  0  0  0  0
   -1.7204   -2.6187    1.1516 O   0  0  0  0  0  0  0  0  0  0  0  0
   -1.0574    0.0354    0.0050 O   0  0  0  0  0  0  0  0  0  0  0  0
    1.9936    1.2705    0.0034 H   0  0  0  0  0  0  0  0  0  0  0  0
    1.8739   -1.4510    0.0113 H   0  0  0  0  0  0  0  0  0  0  0  0
    0.1061    3.2289   -0.0252 H   0  0  0  0  0  0  0  0  0  0  0  0
   -1.5733   -2.5560   -0.9026 H   0  0  0  0  0  0  0  0  0  0  0  0
   -0.1751   -3.2178   -0.0408 H   0  0  0  0  0  0  0  0  0  0  0  0
   -1.1313   -2.4976    1.9140 H   0  0  0  0  0  0  0  0  0  0  0  0
  1 10  1  0  0  0  0
  2  1  1  0  0  0  0
  2 11  1  0  0  0  0
  3 12  1  0  0  0  0
  4 13  1  0  0  0  0
  4 14  1  0  0  0  0
  5  1  2  0  0  0  0
  5  3  1  0  0  0  0
  6  2  2  0  0  0  0
  6  4  1  0  0  0  0
  7  3  2  0  0  0  0
  8  4  1  0  0  0  0
  8 15  1  0  0  0  0
  9  5  1  0  0  0  0
  9  6  1  0  0  0  0
M  END
>  <DRUGBANK_ID>
DB12298

>  <COMMON_NAME>
5-Hydroxymethylfurfural

>  <CAS_NUMBER>
67-47-0

>  <UNII>
70ETD81LF0

>  <SYNONYMS>
5-(hydroxymethyl)-2-furaldehyde; 5-(Hydroxymethyl)-2-furfural; 5-(Hydroxymethyl)furfural; 5-Hydroxymethyl-2-furaldehyde; Hydroxymethylfurfural

$$$$
