
 OpenBabel10282417203D

155164  0  0  1  0  0  0  0  0999 V2000
    1.3562    8.8073    6.3737 C   0  0  0  0  0  0  0  0  0  0  0  0
   -0.1284    8.0371    7.4067 C   0  0  0  0  0  0  0  0  0  0  0  0
   -1.4189    7.8665    6.9647 S   0  0  0  0  0  0  0  0  0  0  0  0
   -1.1132   10.4023    6.8483 C   0  0  0  0  0  0  0  0  0  0  0  0
   -1.5770    8.9702    8.0584 N   0  0  0  0  0  0  0  0  0  0  0  0
   -0.6955    8.0701    9.0784 C   0  0  0  0  0  0  0  0  0  0  0  0
    0.3720    8.5889   10.3479 C   0  0  0  0  0  0  0  0  0  0  0  0
   -0.0077    8.4484   11.5046 O   0  0  0  0  0  0  0  0  0  0  0  0
    1.7196    9.1470   10.1064 N   0  0  0  0  0  0  0  0  0  0  0  0
    2.2999    9.3931    8.8166 C   0  0  2  0  0  0  0  0  0  0  0  0
    2.5609   10.8608    8.3527 C   0  0  0  0  0  0  0  0  0  0  0  0
    2.8163   11.7164    9.6151 S   0  0  0  0  0  0  0  0  0  0  0  0
    2.8579   13.1065    8.9508 C   0  0  0  0  0  0  0  0  0  0  0  0
    2.6751   13.2023    7.6300 C   0  0  0  0  0  0  0  0  0  0  0  0
    2.5862   11.6853    7.0884 N   0  0  0  0  0  0  0  0  0  0  0  0
    3.0352   14.9763    6.8421 C   0  0  0  0  0  0  0  0  0  0  0  0
    3.5356   15.2768    5.6810 O   0  0  0  0  0  0  0  0  0  0  0  0
    3.2202   16.1465    7.3827 N   0  0  0  0  0  0  0  0  0  0  0  0
    3.4623   16.3005    8.7502 C   0  0  0  0  0  0  0  0  0  0  0  0
    5.1827   16.4691    9.1752 C   0  0  0  0  0  0  0  0  0  0  0  0
    5.2901   17.3129   10.0179 O   0  0  0  0  0  0  0  0  0  0  0  0
    6.2363   15.6110    8.6922 N   0  0  0  0  0  0  0  0  0  0  0  0
    6.0860   14.2914    7.7914 C   0  0  2  0  0  0  0  0  0  0  0  0
    6.7066   14.5030    6.6351 C   0  0  0  0  0  0  0  0  0  0  0  0
    8.2117   14.8429    6.6167 S   0  0  0  0  0  0  0  0  0  0  0  0
    8.2505   14.8757    5.0068 C   0  0  0  0  0  0  0  0  0  0  0  0
    7.1069   14.5826    4.4575 C   0  0  0  0  0  0  0  0  0  0  0  0
    6.2982   14.6745    5.4466 N   0  0  0  0  0  0  0  0  0  0  0  0
    6.7735   14.5636    3.0763 C   0  0  0  0  0  0  0  0  0  0  0  0
    7.6190   13.5302    2.1771 S   0  0  0  0  0  0  0  0  0  0  0  0
    6.8385   13.9435    0.8304 C   0  0  0  0  0  0  0  0  0  0  0  0
    5.8864   14.8564    1.0890 C   0  0  0  0  0  0  0  0  0  0  0  0
    5.8530   15.1979    2.4143 N   0  0  0  0  0  0  0  0  0  0  0  0
    5.0088   15.4000    0.0595 C   0  0  0  0  0  0  0  0  0  0  0  0
    4.2562   14.4793   -0.6148 N   0  0  0  0  0  0  0  0  0  0  0  0
    3.5604   14.8609   -1.6856 C   0  0  0  0  0  0  0  0  0  0  0  0
    3.5089   16.1887   -2.0026 C   0  0  0  0  0  0  0  0  0  0  0  0
    3.9364   17.1294   -1.1061 C   0  0  0  0  0  0  0  0  0  0  0  0
    4.8688   16.7456   -0.1714 C   0  0  0  0  0  0  0  0  0  0  0  0
    5.5696   17.7102    0.5444 C   0  0  0  0  0  0  0  0  0  0  0  0
    7.1806   17.7426    0.4796 S   0  0  0  0  0  0  0  0  0  0  0  0
    6.5872   18.5840    2.1044 C   0  0  0  0  0  0  0  0  0  0  0  0
    4.8353   17.6675    3.0349 C   0  0  0  0  0  0  0  0  0  0  0  0
    5.0558   18.5946    1.3722 N   0  0  0  0  0  0  0  0  0  0  0  0
    3.0985   16.3119    4.0828 C   0  0  0  0  0  0  0  0  0  0  0  0
    3.6918   17.9752    3.9792 O   0  0  0  0  0  0  0  0  0  0  0  0
    1.4848   14.4162    4.8794 N   0  0  0  0  0  0  0  0  0  0  0  0
    0.0944   12.1994    5.5071 C   0  0  1  0  0  0  0  0  0  0  0  0
   -1.4333    9.9956    5.4059 C   0  0  0  0  0  0  0  0  0  0  0  0
   -2.5798    8.1979    4.6707 C   0  0  0  0  0  0  0  0  0  0  0  0
   -2.0747    7.1200    4.0175 O   0  0  0  0  0  0  0  0  0  0  0  0
   -3.8299    8.6783    4.1089 N   0  0  0  0  0  0  0  0  0  0  0  0
   -5.0158    9.1190    4.8237 C   0  0  0  0  0  0  0  0  0  0  0  0
    2.8098   13.8918   -2.3908 C   0  0  0  0  0  0  0  0  0  0  0  0
    1.6201   13.1427   -1.6835 S   0  0  0  0  0  0  0  0  0  0  0  0
    1.1975   12.5659   -3.0860 C   0  0  0  0  0  0  0  0  0  0  0  0
    1.9189   12.6946   -4.1429 C   0  0  0  0  0  0  0  0  0  0  0  0
    2.7038   13.5615   -3.6083 N   0  0  0  0  0  0  0  0  0  0  0  0
    1.8202   12.1833   -5.4348 N   0  0  0  0  0  0  0  0  0  0  0  0
    2.6882   12.5873   -6.5101 C   0  0  0  0  0  0  0  0  0  0  0  0
    2.5592   12.1336   -7.6600 O   0  0  0  0  0  0  0  0  0  0  0  0
    3.7010   13.5178   -6.2873 O   0  0  0  0  0  0  0  0  0  0  0  0
    4.0669   14.0802   -5.0387 C   0  0  1  0  0  0  0  0  0  0  0  0
    5.4806   14.5039   -5.0279 C   0  0  0  0  0  0  0  0  0  0  0  0
    5.6639   15.6667   -5.9682 C   0  0  0  0  0  0  0  0  0  0  0  0
    4.7829   16.8368   -5.5816 C   0  0  1  0  0  0  0  0  0  0  0  0
    3.3317   16.4297   -5.5639 C   0  0  0  0  0  0  0  0  0  0  0  0
    3.1261   15.2619   -4.7236 C   0  0  0  0  0  0  0  0  0  0  0  0
    5.2219   17.3945   -4.2240 C   0  0  0  0  0  0  0  0  0  0  0  0
    5.5939   18.5443   -4.0848 O   0  0  0  0  0  0  0  0  0  0  0  0
    5.2523   16.5354   -3.1868 O   0  0  0  0  0  0  0  0  0  0  0  0
    0.7592   11.1810   -5.7134 C   0  0  0  0  0  0  0  0  0  0  0  0
    0.9557    9.9427   -4.8576 C   0  0  0  0  0  0  0  0  0  0  0  0
    0.8742   10.2291   -3.4117 C   0  0  0  0  0  0  0  0  0  0  0  0
   -0.5913   10.8253   -3.0987 C   0  0  0  0  0  0  0  0  0  0  0  0
   -1.6187    9.8947   -3.3563 C   0  0  0  0  0  0  0  0  0  0  0  0
   -2.3344    9.5658   -2.4337 O   0  0  0  0  0  0  0  0  0  0  0  0
   -1.7255    9.4422   -4.6354 O   0  0  0  0  0  0  0  0  0  0  0  0
    4.8052   13.8286    7.5334 C   0  0  1  0  0  0  0  0  0  0  0  0
    4.3858   14.8523    8.1106 O   0  0  0  0  0  0  0  0  0  0  0  0
    4.3239   13.5460    6.2102 C   0  0  0  0  0  0  0  0  0  0  0  0
    5.0790   13.1409    5.3253 C   0  0  0  0  0  0  0  0  0  0  0  0
    4.8594   13.2651    4.0076 C   0  0  0  0  0  0  0  0  0  0  0  0
    3.9224   13.8529    3.3248 C   0  0  0  0  0  0  0  0  0  0  0  0
    2.9844   14.2194    3.9487 C   0  0  0  0  0  0  0  0  0  0  0  0
    2.9331   13.4172    5.5071 C   0  0  0  0  0  0  0  0  0  0  0  0
    3.3192   13.9490    9.9870 C   0  0  0  0  0  0  0  0  0  0  0  0
    4.7426   14.4166    9.8899 O   0  0  0  0  0  0  0  0  0  0  0  0
    5.7124   13.5464    9.7487 C   0  0  0  0  0  0  0  0  0  0  0  0
    1.2205    9.0495    8.0898 C   0  0  0  0  0  0  0  0  0  0  0  0
    0.5270   10.2134    6.4936 C   0  0  0  0  0  0  0  0  0  0  0  0
    1.8532    7.2979    7.0209 C   0  0  0  0  0  0  0  0  0  0  0  0
    1.0791    8.6060    5.4526 H   0  0  0  0  0  0  0  0  0  0  0  0
    2.2000    8.8543    6.9568 H   0  0  0  0  0  0  0  0  0  0  0  0
    1.9912    9.9852    7.0495 H   0  0  0  0  0  0  0  0  0  0  0  0
    2.3078    9.4293   10.8743 H   0  0  0  0  0  0  0  0  0  0  0  0
    3.1403    8.7534    8.5925 H   0  0  0  0  0  0  0  0  0  0  0  0
    3.7072   16.7288    6.7955 H   0  0  0  0  0  0  0  0  0  0  0  0
    2.7874   16.6059    9.4054 H   0  0  0  0  0  0  0  0  0  0  0  0
    3.1116   15.1769    8.8970 H   0  0  0  0  0  0  0  0  0  0  0  0
    7.1727   15.7448    9.0264 H   0  0  0  0  0  0  0  0  0  0  0  0
    6.5535   13.3473    8.2076 H   0  0  0  0  0  0  0  0  0  0  0  0
    9.1418   15.1579    4.6117 H   0  0  0  0  0  0  0  0  0  0  0  0
    7.1777   13.4646   -0.0249 H   0  0  0  0  0  0  0  0  0  0  0  0
    3.3416   16.6129   -3.0091 H   0  0  0  0  0  0  0  0  0  0  0  0
    3.5548   18.1314   -1.1655 H   0  0  0  0  0  0  0  0  0  0  0  0
    8.1906   19.1167    1.7558 H   0  0  0  0  0  0  0  0  0  0  0  0
    2.6005   15.7035    4.9863 H   0  0  0  0  0  0  0  0  0  0  0  0
   -1.0855   11.1627    6.1959 H   0  0  0  0  0  0  0  0  0  0  0  0
   -2.1748    8.3233    5.6244 H   0  0  0  0  0  0  0  0  0  0  0  0
   -2.6473    8.6416    5.6976 H   0  0  0  0  0  0  0  0  0  0  0  0
   -3.4575    9.2186    3.3446 H   0  0  0  0  0  0  0  0  0  0  0  0
   -4.8776   10.1172    5.2217 H   0  0  0  0  0  0  0  0  0  0  0  0
   -5.8484    9.1299    4.1266 H   0  0  0  0  0  0  0  0  0  0  0  0
   -5.2485    8.4422    5.6380 H   0  0  0  0  0  0  0  0  0  0  0  0
    0.5303   11.9288   -2.8746 H   0  0  0  0  0  0  0  0  0  0  0  0
    4.0637   13.2416   -4.3433 H   0  0  0  0  0  0  0  0  0  0  0  0
    5.7797   14.7998   -4.0304 H   0  0  0  0  0  0  0  0  0  0  0  0
    6.0908   13.6701   -5.3402 H   0  0  0  0  0  0  0  0  0  0  0  0
    6.6985   15.9795   -5.9311 H   0  0  0  0  0  0  0  0  0  0  0  0
    5.4138   15.3417   -6.9763 H   0  0  0  0  0  0  0  0  0  0  0  0
    4.9029   17.6297   -6.3298 H   0  0  0  0  0  0  0  0  0  0  0  0
    2.7271   17.2537   -5.2104 H   0  0  0  0  0  0  0  0  0  0  0  0
    3.0111   16.1297   -6.5527 H   0  0  0  0  0  0  0  0  0  0  0  0
    2.0778   14.9684   -4.7067 H   0  0  0  0  0  0  0  0  0  0  0  0
    3.3472   15.4313   -3.7435 H   0  0  0  0  0  0  0  0  0  0  0  0
    5.4401   16.8551   -2.2647 H   0  0  0  0  0  0  0  0  0  0  0  0
   -0.2184   11.6204   -5.5068 H   0  0  0  0  0  0  0  0  0  0  0  0
    0.7704   10.8931   -6.7567 H   0  0  0  0  0  0  0  0  0  0  0  0
    0.1919    9.2178   -5.0622 H   0  0  0  0  0  0  0  0  0  0  0  0
    1.9130    9.5038   -5.0702 H   0  0  0  0  0  0  0  0  0  0  0  0
    1.0508    9.4418   -2.7511 H   0  0  0  0  0  0  0  0  0  0  0  0
    1.7418   10.8703   -3.1803 H   0  0  0  0  0  0  0  0  0  0  0  0
   -0.5424   11.2041   -2.0156 H   0  0  0  0  0  0  0  0  0  0  0  0
   -0.7062   11.7983   -3.7088 H   0  0  0  0  0  0  0  0  0  0  0  0
   -2.4236    8.7697   -4.8254 H   0  0  0  0  0  0  0  0  0  0  0  0
    4.4042   13.1046    8.1176 H   0  0  0  0  0  0  0  0  0  0  0  0
    4.3928   15.1209    9.1736 H   0  0  0  0  0  0  0  0  0  0  0  0
    6.0614   12.9531    5.7477 H   0  0  0  0  0  0  0  0  0  0  0  0
    5.5674   12.8049    3.4001 H   0  0  0  0  0  0  0  0  0  0  0  0
    3.6312   13.8404    2.3795 H   0  0  0  0  0  0  0  0  0  0  0  0
    2.2619   15.2516    3.6226 H   0  0  0  0  0  0  0  0  0  0  0  0
    1.9076   14.0465    6.3002 H   0  0  0  0  0  0  0  0  0  0  0  0
    2.4231   14.8875    9.9597 H   0  0  0  0  0  0  0  0  0  0  0  0
    3.4146   13.8225   10.9532 H   0  0  0  0  0  0  0  0  0  0  0  0
    5.6978   13.2993   10.6692 H   0  0  0  0  0  0  0  0  0  0  0  0
    5.4270   12.7757    9.0390 H   0  0  0  0  0  0  0  0  0  0  0  0
    6.6806   14.0428    9.5058 H   0  0  0  0  0  0  0  0  0  0  0  0
    0.6084    8.6198    8.5726 H   0  0  0  0  0  0  0  0  0  0  0  0
    1.3802   10.4343    5.9791 H   0  0  0  0  0  0  0  0  0  0  0  0
   -0.0036    9.4745    5.7342 H   0  0  0  0  0  0  0  0  0  0  0  0
    0.3548   10.8139    7.3140 H   0  0  0  0  0  0  0  0  0  0  0  0
    2.1288    6.7941    7.7686 H   0  0  0  0  0  0  0  0  0  0  0  0
    1.0591    7.1223    6.2522 H   0  0  0  0  0  0  0  0  0  0  0  0
    2.7562    7.8243    6.3435 H   0  0  0  0  0  0  0  0  0  0  0  0
  1  2  1  0  0  0  0
  1 93  1  0  0  0  0
  1 94  1  0  0  0  0
  1 95  1  0  0  0  0
  2  3  1  0  0  0  0
  2  6  2  0  0  0  0
  3  4  1  0  0  0  0
  4  5  2  0  0  0  0
  4 48  1  0  0  0  0
  5  6  1  0  0  0  0
  6  7  1  0  0  0  0
  7  8  2  0  0  0  0
  7  9  1  0  0  0  0
  9 10  1  0  0  0  0
  9 96  1  0  0  0  0
 10 11  1  0  0  0  0
 10 97  1  6  0  0  0
 10 90  1  0  0  0  0
 11 12  1  0  0  0  0
 11 15  2  0  0  0  0
 12 13  1  0  0  0  0
 13 14  2  0  0  0  0
 13 87  1  0  0  0  0
 14 15  1  0  0  0  0
 14 16  1  0  0  0  0
 16 17  2  0  0  0  0
 16 18  1  0  0  0  0
 18 19  1  0  0  0  0
 18 98  1  0  0  0  0
 19 20  1  0  0  0  0
 19 99  1  0  0  0  0
 19100  1  0  0  0  0
 20 21  2  0  0  0  0
 20 22  1  0  0  0  0
 22 23  1  0  0  0  0
 22101  1  0  0  0  0
 23 24  1  0  0  0  0
 23102  1  1  0  0  0
 23 79  1  0  0  0  0
 24 25  1  0  0  0  0
 24 28  2  0  0  0  0
 25 26  1  0  0  0  0
 26 27  2  0  0  0  0
 26103  1  0  0  0  0
 27 28  1  0  0  0  0
 27 29  1  0  0  0  0
 29 30  1  0  0  0  0
 29 33  2  0  0  0  0
 30 31  1  0  0  0  0
 31 32  2  0  0  0  0
 31104  1  0  0  0  0
 32 33  1  0  0  0  0
 32 34  1  0  0  0  0
 34 35  2  0  0  0  0
 34 39  1  0  0  0  0
 35 36  1  0  0  0  0
 36 37  2  0  0  0  0
 36 54  1  0  0  0  0
 37 38  1  0  0  0  0
 37105  1  0  0  0  0
 38 39  2  0  0  0  0
 38106  1  0  0  0  0
 39 40  1  0  0  0  0
 40 41  1  0  0  0  0
 40 44  2  0  0  0  0
 41 42  1  0  0  0  0
 42 43  2  0  0  0  0
 42107  1  0  0  0  0
 43 44  1  0  0  0  0
 43 45  1  0  0  0  0
 45 46  2  0  0  0  0
 45 47  1  0  0  0  0
 47 48  1  0  0  0  0
 47108  1  0  0  0  0
 48109  1  1  0  0  0
 48 49  1  0  0  0  0
 49 50  1  0  0  0  0
 49110  1  0  0  0  0
 49111  1  0  0  0  0
 50 51  2  0  0  0  0
 50 52  1  0  0  0  0
 52 53  1  0  0  0  0
 52112  1  0  0  0  0
 53113  1  0  0  0  0
 53114  1  0  0  0  0
 53115  1  0  0  0  0
 54 55  1  0  0  0  0
 54 58  2  0  0  0  0
 55 56  1  0  0  0  0
 56 57  2  0  0  0  0
 56116  1  0  0  0  0
 57 58  1  0  0  0  0
 57 59  1  0  0  0  0
 59 60  1  0  0  0  0
 59 72  1  0  0  0  0
 60 61  2  0  0  0  0
 60 62  1  0  0  0  0
 63 64  1  0  0  0  0
 63 68  1  0  0  0  0
 63117  1  1  0  0  0
 63 62  1  0  0  0  0
 64 65  1  0  0  0  0
 64118  1  0  0  0  0
 64119  1  0  0  0  0
 65 66  1  0  0  0  0
 65120  1  0  0  0  0
 65121  1  0  0  0  0
 66 67  1  0  0  0  0
 66 69  1  0  0  0  0
 66122  1  6  0  0  0
 67 68  1  0  0  0  0
 67123  1  0  0  0  0
 67124  1  0  0  0  0
 68125  1  0  0  0  0
 68126  1  0  0  0  0
 69 70  2  0  0  0  0
 69 71  1  0  0  0  0
 71127  1  0  0  0  0
 72 73  1  0  0  0  0
 72128  1  0  0  0  0
 72129  1  0  0  0  0
 73 74  1  0  0  0  0
 73130  1  0  0  0  0
 73131  1  0  0  0  0
 74 75  1  0  0  0  0
 74132  1  0  0  0  0
 74133  1  0  0  0  0
 75 76  1  0  0  0  0
 75134  1  0  0  0  0
 75135  1  0  0  0  0
 76 77  2  0  0  0  0
 76 78  1  0  0  0  0
 78136  1  0  0  0  0
 79 80  1  0  0  0  0
 79 81  1  0  0  0  0
 79137  1  1  0  0  0
 80138  1  0  0  0  0
 81 82  2  0  0  0  0
 81 86  1  0  0  0  0
 82 83  1  0  0  0  0
 82139  1  0  0  0  0
 83 84  2  0  0  0  0
 83140  1  0  0  0  0
 84 85  1  0  0  0  0
 84141  1  0  0  0  0
 85 86  2  0  0  0  0
 85142  1  0  0  0  0
 86143  1  0  0  0  0
 87 88  1  0  0  0  0
 87144  1  0  0  0  0
 87145  1  0  0  0  0
 88 89  1  0  0  0  0
 89146  1  0  0  0  0
 89147  1  0  0  0  0
 89148  1  0  0  0  0
 90 91  1  0  0  0  0
 90 92  1  0  0  0  0
 90149  1  0  0  0  0
 91150  1  0  0  0  0
 91151  1  0  0  0  0
 91152  1  0  0  0  0
 92153  1  0  0  0  0
 92154  1  0  0  0  0
 92155  1  0  0  0  0
M  END
>  <DRUGBANK_ID>
DB13013

>  <COMMON_NAME>
LFF-571

>  <CAS_NUMBER>
1160959-55-6

>  <UNII>
W7AUL2R95Z

$$$$
