1437
 OpenBabel10282417113D

 31 32  0  0  1  0  0  0  0  0999 V2000
   -2.1177   -1.1281   -0.1188 O   0  0  0  0  0  0  0  0  0  0  0  0
    2.3428   -0.9478   -0.0539 O   0  0  0  0  0  0  0  0  0  0  0  0
    0.0932   -0.9181   -0.1549 N   0  0  0  0  0  0  0  0  0  0  0  0
   -1.2347    1.1178    0.3966 C   0  0  3  0  0  0  0  0  0  0  0  0
   -0.0649    1.8302   -0.3555 C   0  0  0  0  0  0  0  0  0  0  0  0
   -2.5770    1.7090   -0.1546 C   0  0  0  0  0  0  0  0  0  0  0  0
   -1.0769    1.3541    1.9211 C   0  0  0  0  0  0  0  0  0  0  0  0
    1.3083    1.2225   -0.0662 C   0  0  0  0  0  0  0  0  0  0  0  0
   -1.1573   -0.3786    0.0126 C   0  0  0  0  0  0  0  0  0  0  0  0
    1.3102   -0.2916   -0.1237 C   0  0  0  0  0  0  0  0  0  0  0  0
   -3.8561    1.0938    0.4321 C   0  0  0  0  0  0  0  0  0  0  0  0
   -0.0256    0.7674    2.6460 C   0  0  0  0  0  0  0  0  0  0  0  0
   -1.9035    2.2386    2.6383 C   0  0  0  0  0  0  0  0  0  0  0  0
    0.2523    1.1154    3.9641 C   0  0  0  0  0  0  0  0  0  0  0  0
   -1.6796    2.5291    3.9836 C   0  0  0  0  0  0  0  0  0  0  0  0
   -0.5913    1.9780    4.6423 C   0  0  0  0  0  0  0  0  0  0  0  0
    0.1029   -1.9258   -0.2346 H   0  0  0  0  0  0  0  0  0  0  0  0
   -0.2285    1.7691   -1.4404 H   0  0  0  0  0  0  0  0  0  0  0  0
   -0.0385    2.8985   -0.1029 H   0  0  0  0  0  0  0  0  0  0  0  0
   -2.5937    2.7961    0.0152 H   0  0  0  0  0  0  0  0  0  0  0  0
   -2.6177    1.5926   -1.2457 H   0  0  0  0  0  0  0  0  0  0  0  0
    2.0445    1.5904   -0.7866 H   0  0  0  0  0  0  0  0  0  0  0  0
    1.6696    1.5400    0.9173 H   0  0  0  0  0  0  0  0  0  0  0  0
   -3.8797    1.0905    1.5235 H   0  0  0  0  0  0  0  0  0  0  0  0
   -4.7340    1.6454    0.0882 H   0  0  0  0  0  0  0  0  0  0  0  0
   -3.9915    0.0572    0.1270 H   0  0  0  0  0  0  0  0  0  0  0  0
    0.6569    0.0505    2.2085 H   0  0  0  0  0  0  0  0  0  0  0  0
   -2.7601    2.7323    2.1883 H   0  0  0  0  0  0  0  0  0  0  0  0
    1.1396    0.7104    4.4421 H   0  0  0  0  0  0  0  0  0  0  0  0
   -2.3500    3.2095    4.5003 H   0  0  0  0  0  0  0  0  0  0  0  0
   -0.4011    2.2171    5.6820 H   0  0  0  0  0  0  0  0  0  0  0  0
  1  9  2  0  0  0  0
  2 10  2  0  0  0  0
  3  9  1  0  0  0  0
  3 10  1  0  0  0  0
  3 17  1  0  0  0  0
  4  5  1  0  0  0  0
  4  6  1  0  0  0  0
  4  7  1  0  0  0  0
  4  9  1  0  0  0  0
  5  8  1  0  0  0  0
  5 18  1  0  0  0  0
  5 19  1  0  0  0  0
  6 11  1  0  0  0  0
  6 20  1  0  0  0  0
  6 21  1  0  0  0  0
  7 12  2  0  0  0  0
  7 13  1  0  0  0  0
  8 10  1  0  0  0  0
  8 22  1  0  0  0  0
  8 23  1  0  0  0  0
 11 24  1  0  0  0  0
 11 25  1  0  0  0  0
 11 26  1  0  0  0  0
 12 14  1  0  0  0  0
 12 27  1  0  0  0  0
 13 15  2  0  0  0  0
 13 28  1  0  0  0  0
 14 16  2  0  0  0  0
 14 29  1  0  0  0  0
 15 16  1  0  0  0  0
 15 30  1  0  0  0  0
 16 31  1  0  0  0  0
M  END
>  <DRUGBANK_ID>
DB01437

>  <COMMON_NAME>
Glutethimide

>  <CAS_NUMBER>
77-21-4

>  <UNII>
C8I4BVN78E

>  <SYNONYMS>
2-Ethyl-2-phenylglutarimide; Glutethimide; Glutetimida

$$$$
