
 OpenBabel10282417143D

 18 19  0  0  0  0  0  0  0  0999 V2000
    1.0750   -0.0547   -0.1066 O   0  5  0  0  0  0  0  0  0  0  0  0
    2.3139   -0.0527   -0.0976 N   0  3  0  0  0  0  0  0  0  0  0  0
    3.0279   -0.8496    0.5229 O   0  0  0  0  0  0  0  0  0  0  0  0
    2.9808    0.9667   -0.8843 C   0  0  0  0  0  0  0  0  0  0  0  0
    4.0203    0.6110   -1.7604 C   0  0  0  0  0  0  0  0  0  0  0  0
    4.6058    1.5926   -2.5833 C   0  0  0  0  0  0  0  0  0  0  0  0
    4.1715    2.9213   -2.5251 C   0  0  0  0  0  0  0  0  0  0  0  0
    3.1732    3.2292   -1.6144 C   0  0  0  0  0  0  0  0  0  0  0  0
    2.5716    2.2858   -0.7902 C   0  0  0  0  0  0  0  0  0  0  0  0
    1.6016    2.9534    0.0615 C   0  0  0  0  0  0  0  0  0  0  0  0
    1.5861    4.2635   -0.2144 C   0  0  0  0  0  0  0  0  0  0  0  0
    2.5587    4.5181   -1.2992 C   0  0  0  0  0  0  0  0  0  0  0  0
    2.7953    5.5868   -1.8157 O   0  0  0  0  0  0  0  0  0  0  0  0
    4.3754   -0.4170   -1.8186 H   0  0  0  0  0  0  0  0  0  0  0  0
    5.4011    1.3157   -3.2743 H   0  0  0  0  0  0  0  0  0  0  0  0
    4.6064    3.6889   -3.1594 H   0  0  0  0  0  0  0  0  0  0  0  0
    1.0017    2.4547    0.8087 H   0  0  0  0  0  0  0  0  0  0  0  0
    0.9898    5.0303    0.2482 H   0  0  0  0  0  0  0  0  0  0  0  0
  1  2  1  0  0  0  0
  2  3  2  0  0  0  0
  2  4  1  0  0  0  0
  4  5  2  0  0  0  0
  4  9  1  0  0  0  0
  5  6  1  0  0  0  0
  5 14  1  0  0  0  0
  6  7  2  0  0  0  0
  6 15  1  0  0  0  0
  7  8  1  0  0  0  0
  7 16  1  0  0  0  0
  8  9  2  0  0  0  0
  8 12  1  0  0  0  0
  9 10  1  0  0  0  0
 10 11  2  0  0  0  0
 10 17  1  0  0  0  0
 11 12  1  0  0  0  0
 11 18  1  0  0  0  0
 12 13  2  0  0  0  0
M  CHG  2   1  -1   2   1
M  END
>  <DRUGBANK_ID>
DB04479

>  <SECONDARY_ACCESSION_NUMBERS>
EXPT02349

>  <COMMON_NAME>
4-Nitro-Inden-1-One

$$$$
