
 OpenBabel10282417163D

 20 21  0  0  0  0  0  0  0  0999 V2000
    1.2369   -1.3627    0.0226 C   0  0  0  0  0  0  0  0  0  0  0  0
    2.4297   -0.6443   -0.0541 C   0  0  0  0  0  0  0  0  0  0  0  0
   -2.4079   -0.7444   -0.0318 C   0  0  0  0  0  0  0  0  0  0  0  0
   -2.4482    0.6418   -0.1190 C   0  0  0  0  0  0  0  0  0  0  0  0
   -1.2708    1.3664    0.0501 C   0  0  0  0  0  0  0  0  0  0  0  0
   -0.0252    0.7188    0.0886 C   0  0  0  0  0  0  0  0  0  0  0  0
    1.1924    1.4202    0.0635 C   0  0  0  0  0  0  0  0  0  0  0  0
    2.4109    0.7505   -0.0241 C   0  0  0  0  0  0  0  0  0  0  0  0
    0.0045   -0.7010    0.0862 C   0  0  0  0  0  0  0  0  0  0  0  0
   -1.2003   -1.4139    0.1071 C   0  0  0  0  0  0  0  0  0  0  0  0
   -3.5491   -1.4879   -0.0820 O   0  0  0  0  0  0  0  0  0  0  0  0
    1.1686    2.7928    0.0710 O   0  0  0  0  0  0  0  0  0  0  0  0
    1.2709   -2.4514   -0.0170 H   0  0  0  0  0  0  0  0  0  0  0  0
    3.3731   -1.1743   -0.1495 H   0  0  0  0  0  0  0  0  0  0  0  0
   -3.3699    1.1722   -0.3287 H   0  0  0  0  0  0  0  0  0  0  0  0
   -1.3178    2.4536    0.1020 H   0  0  0  0  0  0  0  0  0  0  0  0
    3.3478    1.2926   -0.0929 H   0  0  0  0  0  0  0  0  0  0  0  0
   -1.2039   -2.4992    0.1907 H   0  0  0  0  0  0  0  0  0  0  0  0
   -4.3073   -0.8812   -0.0767 H   0  0  0  0  0  0  0  0  0  0  0  0
    2.0778    3.1244    0.0047 H   0  0  0  0  0  0  0  0  0  0  0  0
  1  9  1  0  0  0  0
  1 13  1  0  0  0  0
  2  1  2  0  0  0  0
  2 14  1  0  0  0  0
  3  4  2  0  0  0  0
  3 10  1  0  0  0  0
  4  5  1  0  0  0  0
  4 15  1  0  0  0  0
  5  6  2  0  0  0  0
  5 16  1  0  0  0  0
  6  7  1  0  0  0  0
  6  9  1  0  0  0  0
  7 12  1  0  0  0  0
  7  8  2  0  0  0  0
  8  2  1  0  0  0  0
  8 17  1  0  0  0  0
  9 10  2  0  0  0  0
 10 18  1  0  0  0  0
 11  3  1  0  0  0  0
 11 19  1  0  0  0  0
 12 20  1  0  0  0  0
M  END
>  <DRUGBANK_ID>
DB07661

>  <COMMON_NAME>
1,6-Naphthalenediol

>  <CAS_NUMBER>
575-44-0

>  <UNII>
34C30KW024

>  <SYNONYMS>
1,6-dihydroxynaphthalene; 2,5-dihydroxynaphthalene; 2,5-naphthalenediol; 6-hydroxy-1-naphthol; Naphthalene-1,6-diol

$$$$
