
 OpenBabel10282417173D

 63 66  0  0  0  0  0  0  0  0999 V2000
    1.9140    4.7952    9.9288 N   0  0  0  0  0  0  0  0  0  0  0  0
    0.8293    4.3776   10.6638 C   0  0  0  0  0  0  0  0  0  0  0  0
    2.4386    4.2528    8.6913 C   0  0  1  0  0  0  0  0  0  0  0  0
    2.5540    5.7536   10.6678 C   0  0  0  0  0  0  0  0  0  0  0  0
    0.8480    5.1657   11.8118 C   0  0  0  0  0  0  0  0  0  0  0  0
   -0.0633    3.4212   10.3624 N   0  0  0  0  0  0  0  0  0  0  0  0
    1.5675    4.3407    7.4331 C   0  0  1  0  0  0  0  0  0  0  0  0
    3.6358    5.0259    8.3436 O   0  0  0  0  0  0  0  0  0  0  0  0
    1.9291    6.0165   11.7799 N   0  0  0  0  0  0  0  0  0  0  0  0
   -0.1709    4.9891   12.7851 C   0  0  0  0  0  0  0  0  0  0  0  0
   -0.9911    3.3166   11.3449 C   0  0  0  0  0  0  0  0  0  0  0  0
    1.8152    5.7769    6.9844 C   0  0  1  0  0  0  0  0  0  0  0  0
    2.0688    3.4403    6.4108 O   0  0  0  0  0  0  0  0  0  0  0  0
    3.3137    5.9172    7.2470 C   0  0  1  0  0  0  0  0  0  0  0  0
   -1.0973    4.0225   12.4983 N   0  0  0  0  0  0  0  0  0  0  0  0
   -0.2642    5.7184   13.9623 N   0  0  0  0  0  0  0  0  0  0  0  0
    1.4863    6.0180    5.5920 N   0  0  0  0  0  0  0  0  0  0  0  0
    3.6946    7.3726    7.5174 C   0  0  0  0  0  0  0  0  0  0  0  0
    0.6866    6.7544   14.3321 C   0  0  0  0  0  0  0  0  0  0  0  0
   -1.3627    5.4716   14.8774 C   0  0  0  0  0  0  0  0  0  0  0  0
    0.5866    6.9764    5.1935 C   0  0  0  0  0  0  0  0  0  0  0  0
    5.0783    7.4802    7.8279 O   0  0  0  0  0  0  0  0  0  0  0  0
    0.2898    7.1455    3.6743 C   0  0  2  0  0  0  0  0  0  0  0  0
    0.0362    7.7096    6.0259 O   0  0  0  0  0  0  0  0  0  0  0  0
    1.2338    6.3613    2.7515 C   0  0  0  0  0  0  0  0  0  0  0  0
    0.3671    8.5952    3.3426 N   0  0  0  0  0  0  0  0  0  0  0  0
    0.6264    5.9078    1.4538 C   0  0  0  0  0  0  0  0  0  0  0  0
    0.3254    4.5520    1.2631 C   0  0  0  0  0  0  0  0  0  0  0  0
    0.4056    6.8131    0.4169 C   0  0  0  0  0  0  0  0  0  0  0  0
   -0.1684    4.1050    0.0401 C   0  0  0  0  0  0  0  0  0  0  0  0
   -0.0928    6.3627   -0.8039 C   0  0  0  0  0  0  0  0  0  0  0  0
   -0.3775    5.0092   -1.0006 C   0  0  0  0  0  0  0  0  0  0  0  0
   -0.8500    4.6909   -2.2441 O   0  0  0  0  0  0  0  0  0  0  0  0
   -1.1481    3.3182   -2.4657 C   0  0  0  0  0  0  0  0  0  0  0  0
    2.7550    3.2254    8.9009 H   0  0  0  0  0  0  0  0  0  0  0  0
    3.4773    6.2284   10.3674 H   0  0  0  0  0  0  0  0  0  0  0  0
    0.5108    4.1078    7.5828 H   0  0  0  0  0  0  0  0  0  0  0  0
   -1.7618    2.5642   11.1900 H   0  0  0  0  0  0  0  0  0  0  0  0
    1.2459    6.4529    7.6309 H   0  0  0  0  0  0  0  0  0  0  0  0
    3.0427    3.5072    6.3854 H   0  0  0  0  0  0  0  0  0  0  0  0
    3.9211    5.5556    6.4075 H   0  0  0  0  0  0  0  0  0  0  0  0
    1.9140    5.3751    4.9419 H   0  0  0  0  0  0  0  0  0  0  0  0
    3.5053    7.9762    6.6229 H   0  0  0  0  0  0  0  0  0  0  0  0
    3.1228    7.8001    8.3462 H   0  0  0  0  0  0  0  0  0  0  0  0
    0.1727    7.7151   14.4374 H   0  0  0  0  0  0  0  0  0  0  0  0
    1.1608    6.5007   15.2855 H   0  0  0  0  0  0  0  0  0  0  0  0
    1.5022    6.9321   13.6392 H   0  0  0  0  0  0  0  0  0  0  0  0
   -2.3305    5.6697   14.4053 H   0  0  0  0  0  0  0  0  0  0  0  0
   -1.3423    4.4455   15.2579 H   0  0  0  0  0  0  0  0  0  0  0  0
   -1.2940    6.1351   15.7500 H   0  0  0  0  0  0  0  0  0  0  0  0
    5.2322    6.9529    8.6321 H   0  0  0  0  0  0  0  0  0  0  0  0
   -0.7502    6.8241    3.5287 H   0  0  0  0  0  0  0  0  0  0  0  0
    2.1417    6.9424    2.5456 H   0  0  0  0  0  0  0  0  0  0  0  0
    1.5937    5.4458    3.2171 H   0  0  0  0  0  0  0  0  0  0  0  0
   -0.2461    9.0989    3.9904 H   0  0  0  0  0  0  0  0  0  0  0  0
    1.3053    8.9377    3.5499 H   0  0  0  0  0  0  0  0  0  0  0  0
    0.4886    3.8259    2.0573 H   0  0  0  0  0  0  0  0  0  0  0  0
    0.6302    7.8687    0.5536 H   0  0  0  0  0  0  0  0  0  0  0  0
   -0.3707    3.0450   -0.0664 H   0  0  0  0  0  0  0  0  0  0  0  0
   -0.2532    7.0750   -1.6084 H   0  0  0  0  0  0  0  0  0  0  0  0
   -0.2480    2.7008   -2.3707 H   0  0  0  0  0  0  0  0  0  0  0  0
   -1.9366    2.9727   -1.7881 H   0  0  0  0  0  0  0  0  0  0  0  0
   -1.5179    3.2145   -3.4890 H   0  0  0  0  0  0  0  0  0  0  0  0
  1  2  1  0  0  0  0
  1  4  1  0  0  0  0
  2  5  2  0  0  0  0
  2  6  1  0  0  0  0
  3  7  1  0  0  0  0
  3  8  1  0  0  0  0
  3 35  1  1  0  0  0
  3  1  1  0  0  0  0
  4  9  2  0  0  0  0
  4 36  1  0  0  0  0
  5 10  1  0  0  0  0
  5  9  1  0  0  0  0
  6 11  2  0  0  0  0
  7 12  1  0  0  0  0
  7 13  1  0  0  0  0
  7 37  1  1  0  0  0
  8 14  1  0  0  0  0
 10 15  2  0  0  0  0
 10 16  1  0  0  0  0
 11 15  1  0  0  0  0
 11 38  1  0  0  0  0
 12 17  1  0  0  0  0
 12 14  1  0  0  0  0
 12 39  1  1  0  0  0
 13 40  1  0  0  0  0
 14 18  1  0  0  0  0
 14 41  1  6  0  0  0
 16 19  1  0  0  0  0
 16 20  1  0  0  0  0
 17 21  1  0  0  0  0
 17 42  1  0  0  0  0
 18 22  1  0  0  0  0
 18 43  1  0  0  0  0
 18 44  1  0  0  0  0
 19 45  1  0  0  0  0
 19 46  1  0  0  0  0
 19 47  1  0  0  0  0
 20 48  1  0  0  0  0
 20 49  1  0  0  0  0
 20 50  1  0  0  0  0
 21 24  2  0  0  0  0
 22 51  1  0  0  0  0
 23 26  1  0  0  0  0
 23 52  1  6  0  0  0
 23 25  1  0  0  0  0
 23 21  1  0  0  0  0
 25 27  1  0  0  0  0
 25 53  1  0  0  0  0
 25 54  1  0  0  0  0
 26 55  1  0  0  0  0
 26 56  1  0  0  0  0
 27 28  1  0  0  0  0
 27 29  2  0  0  0  0
 28 30  2  0  0  0  0
 28 57  1  0  0  0  0
 29 31  1  0  0  0  0
 29 58  1  0  0  0  0
 30 32  1  0  0  0  0
 30 59  1  0  0  0  0
 31 32  2  0  0  0  0
 31 60  1  0  0  0  0
 32 33  1  0  0  0  0
 33 34  1  0  0  0  0
 34 61  1  0  0  0  0
 34 62  1  0  0  0  0
 34 63  1  0  0  0  0
M  END
>  <DRUGBANK_ID>
DB08437

>  <COMMON_NAME>
Puromycin

>  <CAS_NUMBER>
53-79-2

>  <UNII>
4A6ZS6Q2CL

>  <SYNONYMS>
puromicina; Puromycin

$$$$
