
 OpenBabel10282417213D

 52 54  0  0  0  0  0  0  0  0999 V2000
   -0.9626    1.3050    0.0332 C   0  0  0  0  0  0  0  0  0  0  0  0
    0.4037    1.2214    0.0394 C   0  0  0  0  0  0  0  0  0  0  0  0
    1.0072   -0.0350    0.0418 C   0  0  0  0  0  0  0  0  0  0  0  0
    0.2777   -1.2313    0.0761 C   0  0  0  0  0  0  0  0  0  0  0  0
   -1.1090   -1.1669    0.0907 C   0  0  0  0  0  0  0  0  0  0  0  0
   -1.6876    0.1224    0.0412 C   0  0  0  0  0  0  0  0  0  0  0  0
    2.3680   -0.0334   -0.0087 O   0  0  0  0  0  0  0  0  0  0  0  0
   -2.0352   -2.7495    0.0663 S   0  0  0  0  0  0  0  0  0  0  0  0
   -2.8729   -2.7967    1.2554 O   0  0  0  0  0  0  0  0  0  0  0  0
   -3.0201   -2.6956   -1.3468 N   0  0  0  0  0  0  0  0  0  0  0  0
   -1.0786   -3.8095   -0.1475 O   0  0  0  0  0  0  0  0  0  0  0  0
   -2.2754   -2.7243   -2.6333 C   0  0  0  0  0  0  0  0  0  0  0  0
   -2.1140   -1.2606   -2.9650 C   0  0  0  0  0  0  0  0  0  0  0  0
   -3.4705   -0.6810   -2.5908 C   0  0  0  0  0  0  0  0  0  0  0  0
   -4.0575   -1.6280   -1.4999 C   0  0  2  0  0  0  0  0  0  0  0  0
   -4.4996   -1.0551   -0.1603 C   0  0  0  0  0  0  0  0  0  0  0  0
   -5.1469    0.2857   -0.2833 C   0  0  0  0  0  0  0  0  0  0  0  0
   -6.5045   -0.0139   -0.6797 N   0  0  0  0  0  0  0  0  0  0  0  0
   -6.9797    0.9221   -1.6880 C   0  0  0  0  0  0  0  0  0  0  0  0
   -7.0355    2.3394   -1.1384 C   0  0  0  0  0  0  0  0  0  0  0  0
   -7.8574    2.3918    0.1585 C   0  0  3  0  0  0  0  0  0  0  0  0
   -7.4125    1.3391    1.1799 C   0  0  0  0  0  0  0  0  0  0  0  0
   -7.3376   -0.0407    0.5265 C   0  0  0  0  0  0  0  0  0  0  0  0
   -7.7623    3.7786    0.7699 C   0  0  0  0  0  0  0  0  0  0  0  0
   -1.4864    2.2585   -0.0073 H   0  0  0  0  0  0  0  0  0  0  0  0
    0.9911    2.1316    0.0223 H   0  0  0  0  0  0  0  0  0  0  0  0
    0.7719   -2.1971    0.0649 H   0  0  0  0  0  0  0  0  0  0  0  0
   -2.7207    0.3527   -0.0768 H   0  0  0  0  0  0  0  0  0  0  0  0
    2.6783   -0.9518   -0.0090 H   0  0  0  0  0  0  0  0  0  0  0  0
   -2.8789   -3.2202   -3.4044 H   0  0  0  0  0  0  0  0  0  0  0  0
   -1.3277   -3.2575   -2.5597 H   0  0  0  0  0  0  0  0  0  0  0  0
   -1.3274   -0.8219   -2.3520 H   0  0  0  0  0  0  0  0  0  0  0  0
   -1.8218   -1.0619   -3.9963 H   0  0  0  0  0  0  0  0  0  0  0  0
   -3.3552    0.3655   -2.3065 H   0  0  0  0  0  0  0  0  0  0  0  0
   -4.1219   -0.6883   -3.4733 H   0  0  0  0  0  0  0  0  0  0  0  0
   -4.9639   -2.0771   -1.9346 H   0  0  0  0  0  0  0  0  0  0  0  0
   -5.1130   -1.7801    0.3867 H   0  0  0  0  0  0  0  0  0  0  0  0
   -3.7233   -0.9133    0.5740 H   0  0  0  0  0  0  0  0  0  0  0  0
   -5.0245    0.7933    0.6784 H   0  0  0  0  0  0  0  0  0  0  0  0
   -4.6373    0.9618   -0.9746 H   0  0  0  0  0  0  0  0  0  0  0  0
   -7.9630    0.5989   -2.0452 H   0  0  0  0  0  0  0  0  0  0  0  0
   -6.3199    0.8831   -2.5670 H   0  0  0  0  0  0  0  0  0  0  0  0
   -7.4675    2.9993   -1.8972 H   0  0  0  0  0  0  0  0  0  0  0  0
   -6.0177    2.7122   -0.9566 H   0  0  0  0  0  0  0  0  0  0  0  0
   -8.9011    2.1764   -0.0966 H   0  0  0  0  0  0  0  0  0  0  0  0
   -6.4486    1.6378    1.6121 H   0  0  0  0  0  0  0  0  0  0  0  0
   -8.0912    1.2956    2.0359 H   0  0  0  0  0  0  0  0  0  0  0  0
   -8.3346   -0.4078    0.2676 H   0  0  0  0  0  0  0  0  0  0  0  0
   -6.9315   -0.7666    1.2454 H   0  0  0  0  0  0  0  0  0  0  0  0
   -8.1350    4.5273    0.0662 H   0  0  0  0  0  0  0  0  0  0  0  0
   -8.3561    3.8310    1.6860 H   0  0  0  0  0  0  0  0  0  0  0  0
   -6.7250    4.0311    1.0202 H   0  0  0  0  0  0  0  0  0  0  0  0
  1  2  2  0  0  0  0
  1 25  1  0  0  0  0
  2  3  1  0  0  0  0
  2 26  1  0  0  0  0
  3  7  1  0  0  0  0
  3  4  2  0  0  0  0
  4  5  1  0  0  0  0
  4 27  1  0  0  0  0
  5  6  2  0  0  0  0
  5  8  1  0  0  0  0
  6  1  1  0  0  0  0
  6 28  1  0  0  0  0
  7 29  1  0  0  0  0
  8  9  2  0  0  0  0
  8 10  1  0  0  0  0
  8 11  2  0  0  0  0
 10 12  1  0  0  0  0
 12 13  1  0  0  0  0
 12 30  1  0  0  0  0
 12 31  1  0  0  0  0
 13 14  1  0  0  0  0
 13 32  1  0  0  0  0
 13 33  1  0  0  0  0
 14 15  1  0  0  0  0
 14 34  1  0  0  0  0
 14 35  1  0  0  0  0
 15 10  1  0  0  0  0
 15 16  1  0  0  0  0
 15 36  1  6  0  0  0
 16 17  1  0  0  0  0
 16 37  1  0  0  0  0
 16 38  1  0  0  0  0
 17 18  1  0  0  0  0
 17 39  1  0  0  0  0
 17 40  1  0  0  0  0
 18 19  1  0  0  0  0
 18 23  1  0  0  0  0
 19 20  1  0  0  0  0
 19 41  1  0  0  0  0
 19 42  1  0  0  0  0
 20 21  1  0  0  0  0
 20 43  1  0  0  0  0
 20 44  1  0  0  0  0
 21 22  1  0  0  0  0
 21 24  1  0  0  0  0
 21 45  1  0  0  0  0
 22 23  1  0  0  0  0
 22 46  1  0  0  0  0
 22 47  1  0  0  0  0
 23 48  1  0  0  0  0
 23 49  1  0  0  0  0
 24 50  1  0  0  0  0
 24 51  1  0  0  0  0
 24 52  1  0  0  0  0
M  END
>  <DRUGBANK_ID>
DB13988

>  <COMMON_NAME>
SB-269970

>  <CAS_NUMBER>
201038-74-6

>  <UNII>
KC8KP5XU6F

$$$$
