
 OpenBabel10282417243D

 55 58  0  0  1  0  0  0  0  0999 V2000
   -1.7188    0.5727    1.0732 H   0  0  0  0  0  0  0  0  0  0  0  0
   -1.6651    0.6972   -0.0145 C   0  0  2  0  0  0  0  0  0  0  0  0
   -0.4847    2.1557   -0.1176 C   0  0  0  0  0  0  0  0  0  0  0  0
   -1.0949    3.3598   -0.9190 C   0  0  0  0  0  0  0  0  0  0  0  0
   -2.4381    2.9624   -0.5367 C   0  0  0  0  0  0  0  0  0  0  0  0
   -3.2478    3.7199    0.1310 N   0  0  0  0  0  0  0  0  0  0  0  0
   -4.1706    4.1713   -0.8206 O   0  0  0  0  0  0  0  0  0  0  0  0
   -2.6632    1.5398   -0.8340 C   0  0  2  0  0  0  0  0  0  0  0  0
   -2.2378    1.3192   -2.3703 C   0  0  0  0  0  0  0  0  0  0  0  0
   -4.0679    1.3167   -0.3591 C   0  0  0  0  0  0  0  0  0  0  0  0
   -4.5890    0.1882   -1.0631 C   0  0  0  0  0  0  0  0  0  0  0  0
   -3.9984   -1.1150   -0.6864 C   0  0  1  0  0  0  0  0  0  0  0  0
   -4.3641   -1.3308    0.3287 H   0  0  0  0  0  0  0  0  0  0  0  0
   -2.3834   -0.9442   -0.6524 C   0  0  1  0  0  0  0  0  0  0  0  0
   -2.0068   -1.0131   -1.6595 H   0  0  0  0  0  0  0  0  0  0  0  0
   -2.1721   -2.4261   -0.1981 C   0  0  0  0  0  0  0  0  0  0  0  0
   -2.9606   -3.6199   -1.2823 C   0  0  0  0  0  0  0  0  0  0  0  0
   -4.6559   -3.5899   -1.9478 C   0  0  1  0  0  0  0  0  0  0  0  0
   -5.2042   -4.3196   -1.3362 H   0  0  0  0  0  0  0  0  0  0  0  0
   -5.8351   -3.1789   -3.4464 C   0  0  0  0  0  0  0  0  0  0  0  0
   -6.0437   -1.4484   -3.9510 C   0  0  1  0  0  0  0  0  0  0  0  0
   -6.0710   -0.3064   -3.1169 O   0  0  0  0  0  0  0  0  0  0  0  0
   -4.5764   -1.1392   -4.2335 C   0  0  0  0  0  0  0  0  0  0  0  0
   -3.8701   -2.0835   -3.2699 C   0  0  0  0  0  0  0  0  0  0  0  0
   -4.7094   -2.1561   -1.6812 C   0  0  2  0  0  0  0  0  0  0  0  0
   -6.3337   -2.2419   -1.2002 C   0  0  0  0  0  0  0  0  0  0  0  0
   -7.4495   -1.0756   -4.2745 C   0  0  0  0  0  0  0  0  0  0  0  0
   -8.5645   -0.5380   -4.0156 C   0  0  0  0  0  0  0  0  0  0  0  0
   -0.4664    2.7782    0.8152 H   0  0  0  0  0  0  0  0  0  0  0  0
    0.6017    1.9842   -0.1580 H   0  0  0  0  0  0  0  0  0  0  0  0
   -1.0924    4.4387   -0.7093 H   0  0  0  0  0  0  0  0  0  0  0  0
   -0.8890    3.3185   -1.9784 H   0  0  0  0  0  0  0  0  0  0  0  0
   -5.0280    3.8548   -0.4838 H   0  0  0  0  0  0  0  0  0  0  0  0
   -1.6218    0.4335   -2.5384 H   0  0  0  0  0  0  0  0  0  0  0  0
   -3.0652    1.3554   -3.0644 H   0  0  0  0  0  0  0  0  0  0  0  0
   -1.5589    2.0270   -2.8300 H   0  0  0  0  0  0  0  0  0  0  0  0
   -4.7727    2.0663   -0.7040 H   0  0  0  0  0  0  0  0  0  0  0  0
   -4.1775    1.2346    0.7250 H   0  0  0  0  0  0  0  0  0  0  0  0
   -5.6709    0.2792   -0.9548 H   0  0  0  0  0  0  0  0  0  0  0  0
   -4.3226    0.3828   -2.0875 H   0  0  0  0  0  0  0  0  0  0  0  0
   -2.4746   -2.6353    0.8453 H   0  0  0  0  0  0  0  0  0  0  0  0
   -1.0892   -2.5742   -0.2172 H   0  0  0  0  0  0  0  0  0  0  0  0
   -2.9064   -4.5726   -0.7300 H   0  0  0  0  0  0  0  0  0  0  0  0
   -2.2082   -3.7300   -2.0674 H   0  0  0  0  0  0  0  0  0  0  0  0
   -6.8598   -3.5934   -3.3596 H   0  0  0  0  0  0  0  0  0  0  0  0
   -5.5212   -3.6249   -4.4109 H   0  0  0  0  0  0  0  0  0  0  0  0
   -5.7493   -0.6697   -2.3249 H   0  0  0  0  0  0  0  0  0  0  0  0
   -4.2950   -1.0621   -5.2767 H   0  0  0  0  0  0  0  0  0  0  0  0
   -4.0904   -0.2595   -3.8183 H   0  0  0  0  0  0  0  0  0  0  0  0
   -3.7773   -3.0803   -3.7964 H   0  0  0  0  0  0  0  0  0  0  0  0
   -2.8011   -1.9613   -3.1228 H   0  0  0  0  0  0  0  0  0  0  0  0
   -7.0985   -2.2775   -1.9793 H   0  0  0  0  0  0  0  0  0  0  0  0
   -6.5679   -3.1451   -0.6157 H   0  0  0  0  0  0  0  0  0  0  0  0
   -6.6513   -1.3898   -0.6134 H   0  0  0  0  0  0  0  0  0  0  0  0
   -9.4397   -0.0366   -3.6733 H   0  0  0  0  0  0  0  0  0  0  0  0
  2  3  1  0  0  0  0
  2  8  1  0  0  0  0
  2 14  1  0  0  0  0
  2  1  1  6  0  0  0
  3  4  1  0  0  0  0
  3 29  1  0  0  0  0
  3 30  1  0  0  0  0
  4  5  1  0  0  0  0
  4 31  1  0  0  0  0
  4 32  1  0  0  0  0
  5  6  2  0  0  0  0
  6  7  1  0  0  0  0
  7 33  1  0  0  0  0
  8  5  1  0  0  0  0
  8 10  1  0  0  0  0
  8  9  1  1  0  0  0
  9 34  1  0  0  0  0
  9 35  1  0  0  0  0
  9 36  1  0  0  0  0
 10 11  1  0  0  0  0
 10 37  1  0  0  0  0
 10 38  1  0  0  0  0
 11 39  1  0  0  0  0
 11 40  1  0  0  0  0
 12 11  1  0  0  0  0
 12 25  1  0  0  0  0
 12 13  1  6  0  0  0
 14 12  1  0  0  0  0
 14 16  1  0  0  0  0
 14 15  1  1  0  0  0
 16 17  1  0  0  0  0
 16 41  1  0  0  0  0
 16 42  1  0  0  0  0
 17 43  1  0  0  0  0
 17 44  1  0  0  0  0
 18 17  1  0  0  0  0
 18 20  1  0  0  0  0
 18 19  1  6  0  0  0
 20 45  1  0  0  0  0
 20 46  1  0  0  0  0
 21 20  1  0  0  0  0
 21 23  1  0  0  0  0
 21 27  1  6  0  0  0
 21 22  1  0  0  0  0
 22 47  1  0  0  0  0
 23 24  1  0  0  0  0
 23 48  1  0  0  0  0
 23 49  1  0  0  0  0
 24 50  1  0  0  0  0
 24 51  1  0  0  0  0
 25 24  1  0  0  0  0
 25 18  1  0  0  0  0
 25 26  1  6  0  0  0
 26 52  1  0  0  0  0
 26 53  1  0  0  0  0
 26 54  1  0  0  0  0
 27 28  3  0  0  0  0
 28 55  1  0  0  0  0
M  END
>  <DRUGBANK_ID>
DB18200

>  <COMMON_NAME>
Golexanolone

>  <CAS_NUMBER>
2089238-18-4

>  <UNII>
9C48F08TP2

>  <SYNONYMS>
Androstan-17-one, 3-ethynyl-3-hydroxy-, oxime, (3.beta.,5.alpha.,17e)-

$$$$
