
 OpenBabel10282417223D

132137  0  0  0  0  0  0  0  0999 V2000
  -32.1692   48.6056   28.7315 C   0  0  0  0  0  0  0  0  0  0  0  0
  -28.2754   47.0269   26.5837 C   0  0  0  0  0  0  0  0  0  0  0  0
  -31.9547   48.4151   28.9702 C   0  0  0  0  0  0  0  0  0  0  0  0
  -35.3171   49.3003   30.4378 N   0  0  0  0  0  0  0  0  0  0  0  0
  -38.3591   50.2299   31.6440 C   0  0  0  0  0  0  0  0  0  0  0  0
  -35.7089   49.9075   30.4517 C   0  0  0  0  0  0  0  0  0  0  0  0
  -41.6403   50.1504   31.8540 C   0  0  0  0  0  0  0  0  0  0  0  0
  -43.3996   50.4255   31.7328 N   0  0  0  0  0  0  0  0  0  0  0  0
  -44.2521   49.5868   30.8738 C   0  0  0  0  0  0  0  0  0  0  0  0
  -45.7427   49.8916   30.7444 C   0  0  0  0  0  0  0  0  0  0  0  0
  -46.5834   49.0559   29.8853 N   0  0  0  0  0  0  0  0  0  0  0  0
  -48.0112   49.3933   29.7435 C   0  0  2  0  0  0  0  0  0  0  0  0
  -48.8469   48.4123   30.5592 C   0  0  0  0  0  0  0  0  0  0  0  0
  -50.2204   48.0575   30.1997 N   0  0  0  0  0  0  0  0  0  0  0  0
  -48.2273   47.7540   31.4405 O   0  0  0  0  0  0  0  0  0  0  0  0
  -48.4107   49.3100   28.2832 C   0  0  0  0  0  0  0  0  0  0  0  0
  -46.2425   50.8639   31.3762 O   0  0  0  0  0  0  0  0  0  0  0  0
  -43.7150   48.5427   30.1939 C   0  0  0  0  0  0  0  0  0  0  0  0
  -41.4627   49.1534   31.2246 O   0  0  0  0  0  0  0  0  0  0  0  0
  -34.4251   49.8170   31.5035 C   0  0  0  0  0  0  0  0  0  0  0  0
  -23.9834   45.3397   24.0037 C   0  0  0  0  0  0  0  0  0  0  0  0
  -20.4009   44.1549   21.9952 N   0  0  0  0  0  0  0  0  0  0  0  0
  -16.4885   43.0090   19.8601 C   0  0  0  0  0  0  0  0  0  0  0  0
  -16.0114   41.6823   18.6607 C   0  0  0  0  0  0  0  0  0  0  0  0
  -19.8163   43.4447   21.2527 S   0  0  0  0  0  0  0  0  0  0  0  0
  -12.8041   42.2371   17.9211 C   0  0  0  0  0  0  0  0  0  0  0  0
  -10.5347   41.4539   17.6529 N   0  0  0  0  0  0  0  0  0  0  0  0
  -10.1540   42.2747   16.6224 O   0  0  0  0  0  0  0  0  0  0  0  0
  -36.1920   50.7979   33.8462 C   0  0  0  0  0  0  0  0  0  0  0  0
  -35.3562   51.1163   34.0454 O   0  0  0  0  0  0  0  0  0  0  0  0
  -35.5070   51.4746   32.7942 C   0  0  0  0  0  0  0  0  0  0  0  0
  -36.5883   51.5801   32.4377 N   0  0  0  0  0  0  0  0  0  0  0  0
  -34.3693   51.6343   31.7952 C   0  0  0  0  0  0  0  0  0  0  0  0
  -32.9993   51.3481   32.2149 N   0  0  0  0  0  0  0  0  0  0  0  0
  -34.6421   51.9807   30.5096 C   0  0  0  0  0  0  0  0  0  0  0  0
  -10.6168   42.6733   18.4297 C   0  0  2  0  0  0  0  0  0  0  0  0
  -12.0374   43.1940   18.4757 C   0  0  0  0  0  0  0  0  0  0  0  0
   -9.6696   43.7146   17.8543 C   0  0  2  0  0  0  0  0  0  0  0  0
   -8.3069   43.0812   17.6158 C   0  0  0  0  0  0  0  0  0  0  0  0
   -9.5288   44.7860   18.7720 O   0  0  0  0  0  0  0  0  0  0  0  0
  -12.2908   43.3900   17.2797 O   0  0  0  0  0  0  0  0  0  0  0  0
  -12.7829   43.2752   19.7145 N   0  0  0  0  0  0  0  0  0  0  0  0
  -14.1670   43.7519   19.7389 C   0  0  0  0  0  0  0  0  0  0  0  0
  -14.7899   44.0876   18.5674 C   0  0  0  0  0  0  0  0  0  0  0  0
  -14.0912   43.9797   17.2437 C   0  0  0  0  0  0  0  0  0  0  0  0
  -14.9185   43.8634   21.0483 C   0  0  0  0  0  0  0  0  0  0  0  0
  -16.1407   44.2651   21.1786 N   0  0  0  0  0  0  0  0  0  0  0  0
  -16.4796   44.2379   22.4483 C   0  0  0  0  0  0  0  0  0  0  0  0
  -15.3998   43.8042   23.1418 C   0  0  0  0  0  0  0  0  0  0  0  0
  -14.4244   43.5682   22.2308 O   0  0  0  0  0  0  0  0  0  0  0  0
  -17.8295   44.6196   23.0188 C   0  0  0  0  0  0  0  0  0  0  0  0
  -17.9072   45.4635   24.2169 N   0  0  0  0  0  0  0  0  0  0  0  0
  -18.8528   44.2313   22.5080 O   0  0  0  0  0  0  0  0  0  0  0  0
  -19.2131   45.8342   24.7731 C   0  0  0  0  0  0  0  0  0  0  0  0
  -19.2940   46.7093   26.0137 C   0  0  0  0  0  0  0  0  0  0  0  0
  -20.3535   45.3983   24.1842 C   0  0  0  0  0  0  0  0  0  0  0  0
  -20.5994   47.0783   26.5700 N   0  0  0  0  0  0  0  0  0  0  0  0
  -18.2182   47.1026   26.5450 O   0  0  0  0  0  0  0  0  0  0  0  0
  -20.6768   47.9263   27.7714 C   0  0  2  0  0  0  0  0  0  0  0  0
  -21.4378   49.2067   27.4439 C   0  0  0  0  0  0  0  0  0  0  0  0
  -21.0034   49.9802   26.5466 O   0  0  0  0  0  0  0  0  0  0  0  0
  -22.6689   49.5310   28.1704 N   0  0  0  0  0  0  0  0  0  0  0  0
  -19.2726   48.2797   28.2361 C   0  0  0  0  0  0  0  0  0  0  0  0
  -19.3454   49.0964   29.3941 O   0  0  0  0  0  0  0  0  0  0  0  0
  -18.5137   47.0031   28.5679 C   0  0  0  0  0  0  0  0  0  0  0  0
  -18.5480   49.0350   27.1328 C   0  0  0  0  0  0  0  0  0  0  0  0
  -23.4056   50.7611   27.8595 C   0  0  0  0  0  0  0  0  0  0  0  0
  -22.9444   51.6017   26.8949 C   0  0  0  0  0  0  0  0  0  0  0  0
  -24.6926   51.0877   28.6276 C   0  0  0  0  0  0  0  0  0  0  0  0
  -25.5167   52.2042   28.4661 O   0  0  0  0  0  0  0  0  0  0  0  0
  -26.6246   52.2578   29.2766 C   0  0  0  0  0  0  0  0  0  0  0  0
  -26.8326   51.2468   30.1692 C   0  0  0  0  0  0  0  0  0  0  0  0
  -25.4951   50.2046   29.8887 N   0  0  0  0  0  0  0  0  0  0  0  0
  -27.5901   53.4199   29.1742 C   0  0  0  0  0  0  0  0  0  0  0  0
  -27.9799   51.1045   31.1666 C   0  0  0  0  0  0  0  0  0  0  0  0
  -29.3631   51.3636   30.7410 N   0  0  0  0  0  0  0  0  0  0  0  0
  -27.7360   50.7611   32.3556 O   0  0  0  0  0  0  0  0  0  0  0  0
  -30.4657   51.2214   31.6979 C   0  0  0  0  0  0  0  0  0  0  0  0
  -31.9013   51.4898   31.2552 C   0  0  0  0  0  0  0  0  0  0  0  0
  -30.2123   50.8516   32.9785 C   0  0  0  0  0  0  0  0  0  0  0  0
  -32.1321   51.8332   30.0630 O   0  0  0  0  0  0  0  0  0  0  0  0
  -34.4901   49.8491   30.3568 H   0  0  0  0  0  0  0  0  0  0  0  0
  -38.6127   51.0590   31.7488 H   0  0  0  0  0  0  0  0  0  0  0  0
  -43.8127   51.2080   32.2414 H   0  0  0  0  0  0  0  0  0  0  0  0
  -46.1814   48.2685   29.3748 H   0  0  0  0  0  0  0  0  0  0  0  0
  -48.1753   50.3899   30.1041 H   0  0  0  0  0  0  0  0  0  0  0  0
  -50.6813   47.2691   30.6616 H   0  0  0  0  0  0  0  0  0  0  0  0
  -50.7257   48.5880   29.4894 H   0  0  0  0  0  0  0  0  0  0  0  0
  -49.4484   49.5588   28.1799 H   0  0  0  0  0  0  0  0  0  0  0  0
  -47.8218   49.9974   27.7091 H   0  0  0  0  0  0  0  0  0  0  0  0
  -48.2467   48.3137   27.9223 H   0  0  0  0  0  0  0  0  0  0  0  0
  -42.6695   48.3246   30.2817 H   0  0  0  0  0  0  0  0  0  0  0  0
  -44.3293   47.9302   29.5669 H   0  0  0  0  0  0  0  0  0  0  0  0
  -13.4155   40.4545   16.7716 H   0  0  0  0  0  0  0  0  0  0  0  0
  -11.0589   40.6247   17.8733 H   0  0  0  0  0  0  0  0  0  0  0  0
  -36.8797   50.8437   35.5817 H   0  0  0  0  0  0  0  0  0  0  0  0
  -32.8094   51.0677   33.1790 H   0  0  0  0  0  0  0  0  0  0  0  0
  -35.6506   52.1634   30.1973 H   0  0  0  0  0  0  0  0  0  0  0  0
  -33.8437   52.0795   29.8077 H   0  0  0  0  0  0  0  0  0  0  0  0
  -10.3037   42.4612   19.4265 H   0  0  0  0  0  0  0  0  0  0  0  0
  -10.0628   44.0853   16.9258 H   0  0  0  0  0  0  0  0  0  0  0  0
   -7.5914   43.5765   18.2197 H   0  0  0  0  0  0  0  0  0  0  0  0
   -8.3298   42.0335   17.8585 H   0  0  0  0  0  0  0  0  0  0  0  0
   -8.0264   43.1993   16.5816 H   0  0  0  0  0  0  0  0  0  0  0  0
   -9.1630   44.4403   19.6307 H   0  0  0  0  0  0  0  0  0  0  0  0
  -12.3194   43.0250   20.5904 H   0  0  0  0  0  0  0  0  0  0  0  0
  -15.8090   44.4233   18.5805 H   0  0  0  0  0  0  0  0  0  0  0  0
  -14.5614   43.2763   16.6075 H   0  0  0  0  0  0  0  0  0  0  0  0
  -14.0008   44.9252   16.7809 H   0  0  0  0  0  0  0  0  0  0  0  0
  -13.3712   43.7077   17.4989 H   0  0  0  0  0  0  0  0  0  0  0  0
  -15.3262   43.6720   24.2018 H   0  0  0  0  0  0  0  0  0  0  0  0
  -17.0502   45.7950   24.6642 H   0  0  0  0  0  0  0  0  0  0  0  0
  -21.3085   45.6651   24.5853 H   0  0  0  0  0  0  0  0  0  0  0  0
  -20.3030   44.7828   23.3118 H   0  0  0  0  0  0  0  0  0  0  0  0
  -21.4562   46.7516   26.1271 H   0  0  0  0  0  0  0  0  0  0  0  0
  -21.1873   47.3968   28.5511 H   0  0  0  0  0  0  0  0  0  0  0  0
  -23.0185   48.9011   28.8966 H   0  0  0  0  0  0  0  0  0  0  0  0
  -19.8423   49.9324   29.1788 H   0  0  0  0  0  0  0  0  0  0  0  0
  -18.4595   46.3714   27.7091 H   0  0  0  0  0  0  0  0  0  0  0  0
  -17.5219   47.2485   28.8870 H   0  0  0  0  0  0  0  0  0  0  0  0
  -19.0224   46.4717   29.3402 H   0  0  0  0  0  0  0  0  0  0  0  0
  -18.4953   48.4384   26.2493 H   0  0  0  0  0  0  0  0  0  0  0  0
  -19.0802   49.9288   26.8990 H   0  0  0  0  0  0  0  0  0  0  0  0
  -17.5571   49.2768   27.4546 H   0  0  0  0  0  0  0  0  0  0  0  0
  -23.4760   52.5014   26.6617 H   0  0  0  0  0  0  0  0  0  0  0  0
  -22.0442   51.3682   26.3614 H   0  0  0  0  0  0  0  0  0  0  0  0
  -28.5656   53.0545   28.9153 H   0  0  0  0  0  0  0  0  0  0  0  0
  -27.6431   53.9275   30.1185 H   0  0  0  0  0  0  0  0  0  0  0  0
  -27.2558   54.1030   28.4214 H   0  0  0  0  0  0  0  0  0  0  0  0
  -29.5588   51.6421   29.7767 H   0  0  0  0  0  0  0  0  0  0  0  0
  -31.0127   50.7462   33.6813 H   0  0  0  0  0  0  0  0  0  0  0  0
  -29.2058   50.6622   33.2945 H   0  0  0  0  0  0  0  0  0  0  0  0
  1  2  2  0  0  0  0
  1  6  1  0  0  0  0
  1 82  1  0  0  0  0
  2  3  1  0  0  0  0
  2 21  1  0  0  0  0
  3  4  2  0  0  0  0
  3 20  1  0  0  0  0
  4  5  1  0  0  0  0
  5  6  2  0  0  0  0
  5  7  1  0  0  0  0
  6 83  1  0  0  0  0
  7  8  1  0  0  0  0
  7 19  2  0  0  0  0
  8  9  1  0  0  0  0
  8 84  1  0  0  0  0
  9 10  1  0  0  0  0
  9 18  2  0  0  0  0
 10 11  1  0  0  0  0
 10 17  2  0  0  0  0
 11 85  1  0  0  0  0
 12 16  1  0  0  0  0
 12 86  1  1  0  0  0
 12 13  1  0  0  0  0
 12 11  1  0  0  0  0
 13 14  1  0  0  0  0
 13 15  2  0  0  0  0
 14 87  1  0  0  0  0
 14 88  1  0  0  0  0
 16 89  1  0  0  0  0
 16 90  1  0  0  0  0
 16 91  1  0  0  0  0
 18 92  1  0  0  0  0
 18 93  1  0  0  0  0
 20 29  2  0  0  0  0
 20 32  1  0  0  0  0
 21 22  2  0  0  0  0
 21 25  1  0  0  0  0
 22 23  1  0  0  0  0
 23 24  2  0  0  0  0
 23 26  1  0  0  0  0
 24 25  1  0  0  0  0
 24 94  1  0  0  0  0
 26 27  1  0  0  0  0
 26 28  2  0  0  0  0
 27 95  1  0  0  0  0
 29 30  1  0  0  0  0
 29 96  1  0  0  0  0
 30 31  1  0  0  0  0
 31 32  2  0  0  0  0
 31 33  1  0  0  0  0
 33 34  1  0  0  0  0
 33 35  2  0  0  0  0
 34 79  1  0  0  0  0
 34 97  1  0  0  0  0
 35 98  1  0  0  0  0
 35 99  1  0  0  0  0
 36 27  1  0  0  0  0
 36 37  1  0  0  0  0
 36100  1  1  0  0  0
 37 41  2  0  0  0  0
 37 42  1  0  0  0  0
 38 40  1  0  0  0  0
 38101  1  6  0  0  0
 38 39  1  0  0  0  0
 38 36  1  0  0  0  0
 39102  1  0  0  0  0
 39103  1  0  0  0  0
 39104  1  0  0  0  0
 40105  1  0  0  0  0
 42 43  1  0  0  0  0
 42106  1  0  0  0  0
 43 44  2  0  0  0  0
 43 46  1  0  0  0  0
 44 45  1  0  0  0  0
 44107  1  0  0  0  0
 45108  1  0  0  0  0
 45109  1  0  0  0  0
 45110  1  0  0  0  0
 46 47  2  0  0  0  0
 46 50  1  0  0  0  0
 47 48  1  0  0  0  0
 48 49  2  0  0  0  0
 48 51  1  0  0  0  0
 49 50  1  0  0  0  0
 49111  1  0  0  0  0
 51 52  1  0  0  0  0
 51 53  2  0  0  0  0
 52 54  1  0  0  0  0
 52112  1  0  0  0  0
 54 55  1  0  0  0  0
 54 56  2  0  0  0  0
 55 57  1  0  0  0  0
 55 58  2  0  0  0  0
 56113  1  0  0  0  0
 56114  1  0  0  0  0
 57 59  1  0  0  0  0
 57115  1  0  0  0  0
 59 60  1  0  0  0  0
 59 63  1  0  0  0  0
 59116  1  1  0  0  0
 60 61  2  0  0  0  0
 60 62  1  0  0  0  0
 62 67  1  0  0  0  0
 62117  1  0  0  0  0
 63 64  1  0  0  0  0
 63 65  1  0  0  0  0
 63 66  1  0  0  0  0
 64118  1  0  0  0  0
 65119  1  0  0  0  0
 65120  1  0  0  0  0
 65121  1  0  0  0  0
 66122  1  0  0  0  0
 66123  1  0  0  0  0
 66124  1  0  0  0  0
 67 68  2  0  0  0  0
 67 69  1  0  0  0  0
 68125  1  0  0  0  0
 68126  1  0  0  0  0
 69 70  1  0  0  0  0
 69 73  2  0  0  0  0
 70 71  1  0  0  0  0
 71 72  2  0  0  0  0
 71 74  1  0  0  0  0
 72 73  1  0  0  0  0
 72 75  1  0  0  0  0
 74127  1  0  0  0  0
 74128  1  0  0  0  0
 74129  1  0  0  0  0
 75 76  1  0  0  0  0
 75 77  2  0  0  0  0
 76 78  1  0  0  0  0
 76130  1  0  0  0  0
 78 79  1  0  0  0  0
 78 80  2  0  0  0  0
 79 81  2  0  0  0  0
 80131  1  0  0  0  0
 80132  1  0  0  0  0
M  END
>  <DRUGBANK_ID>
DB15657

>  <COMMON_NAME>
Ala-geninthiocin

$$$$
