
 OpenBabel10282417153D

198201  0  0  0  0  0  0  0  0999 V2000
   -1.6362   -9.1273    7.4878 C   0  0  0  0  0  0  0  0  0  0  0  0
   -0.9477   -9.7250    8.4510 N   0  0  0  0  0  0  0  0  0  0  0  0
   -2.4820   -9.7531    6.8818 N   0  0  0  0  0  0  0  0  0  0  0  0
   -1.8890   -7.9340    6.8978 N   0  0  0  0  0  0  0  0  0  0  0  0
   -2.3391  -11.0691    6.5037 C   0  0  0  0  0  0  0  0  0  0  0  0
   -1.4370  -10.2199    4.7293 N   0  0  0  0  0  0  0  0  0  0  0  0
   -2.3212  -15.0171    5.1229 N   0  0  0  0  0  0  0  0  0  0  0  0
   -3.1253   -9.6199    4.8286 C   0  0  0  0  0  0  0  0  0  0  0  0
   -2.2611  -14.3815    3.7733 C   0  0  0  0  0  0  0  0  0  0  0  0
   -4.3755  -13.3736    6.3480 C   0  0  0  0  0  0  0  0  0  0  0  0
   -1.1446  -12.9084    6.4842 C   0  0  0  0  0  0  0  0  0  0  0  0
   -3.0407  -14.5998    6.3864 C   0  0  2  0  0  0  0  0  0  0  0  0
   -0.5627  -11.6903    5.2654 C   0  0  2  0  0  0  0  0  0  0  0  0
   -7.2088  -10.1918   12.3794 C   0  0  0  0  0  0  0  0  0  0  0  0
   -1.0818   -7.1842    9.0404 C   0  0  0  0  0  0  0  0  0  0  0  0
   -8.0104  -10.5598    8.3823 C   0  0  0  0  0  0  0  0  0  0  0  0
   -5.5308  -12.6080    8.7569 C   0  0  0  0  0  0  0  0  0  0  0  0
   -4.2625  -11.8749    6.9732 N   0  0  0  0  0  0  0  0  0  0  0  0
   -2.2610  -12.7189    7.8906 N   0  0  0  0  0  0  0  0  0  0  0  0
   -7.9641  -10.8832    9.7628 N   0  0  0  0  0  0  0  0  0  0  0  0
   -6.8342  -11.4601   12.5456 N   0  0  0  0  0  0  0  0  0  0  0  0
   -6.2869  -12.3080    7.5981 N   0  0  0  0  0  0  0  0  0  0  0  0
    0.1445   -7.8296    8.8247 N   0  0  0  0  0  0  0  0  0  0  0  0
   -4.4649  -12.0523   13.1307 C   0  0  0  0  0  0  0  0  0  0  0  0
   -7.8829   -9.9356   11.0514 C   0  0  1  0  0  0  0  0  0  0  0  0
   -4.4566  -10.2827    6.2981 C   0  0  1  0  0  0  0  0  0  0  0  0
   -5.9498  -11.8391   13.6244 C   0  0  2  0  0  0  0  0  0  0  0  0
   -2.3871   -7.9202    9.4969 C   0  0  1  0  0  0  0  0  0  0  0  0
   -2.3217   -8.8639   10.6820 N   0  0  0  0  0  0  0  0  0  0  0  0
    2.0366   -7.4142    6.7330 C   0  0  0  0  0  0  0  0  0  0  0  0
   -3.7504  -13.2499    8.6787 C   0  0  1  0  0  0  0  0  0  0  0  0
   -7.4042  -11.4424    7.3214 C   0  0  1  0  0  0  0  0  0  0  0  0
   -2.8156  -10.1942   10.8029 C   0  0  0  0  0  0  0  0  0  0  0  0
   -3.6939  -10.8930   12.9092 N   0  0  0  0  0  0  0  0  0  0  0  0
    1.1357   -7.1364    8.0232 C   0  0  2  0  0  0  0  0  0  0  0  0
   -4.5382  -15.7711    9.4535 C   0  0  0  0  0  0  0  0  0  0  0  0
   -3.0594   -8.4851    4.3464 O   0  0  0  0  0  0  0  0  0  0  0  0
   -1.8434  -15.0741    2.8311 O   0  0  0  0  0  0  0  0  0  0  0  0
   -0.5375  -13.8141    6.0093 O   0  0  0  0  0  0  0  0  0  0  0  0
   -5.3607  -13.5449    5.6224 O   0  0  0  0  0  0  0  0  0  0  0  0
   -2.4865  -12.7188    3.3194 C   0  0  1  0  0  0  0  0  0  0  0  0
   -6.8800   -9.2927   13.1563 O   0  0  0  0  0  0  0  0  0  0  0  0
   -1.2868   -6.1002    8.4701 O   0  0  0  0  0  0  0  0  0  0  0  0
   -6.0955  -12.4177    9.8323 O   0  0  0  0  0  0  0  0  0  0  0  0
   -8.6618   -9.6336    7.8792 O   0  0  0  0  0  0  0  0  0  0  0  0
   -9.1606   -9.2211   11.3377 C   0  0  0  0  0  0  0  0  0  0  0  0
   -6.6428  -13.0340   14.2161 C   0  0  0  0  0  0  0  0  0  0  0  0
   -4.0055  -13.1718   12.9133 O   0  0  0  0  0  0  0  0  0  0  0  0
    3.2381   -7.5855    6.6315 O   0  0  0  0  0  0  0  0  0  0  0  0
   -3.6138   -6.9211    8.9555 C   0  0  0  0  0  0  0  0  0  0  0  0
   -3.5679  -10.7970   10.0460 O   0  0  0  0  0  0  0  0  0  0  0  0
   -3.9243  -16.8261    9.5870 O   0  0  0  0  0  0  0  0  0  0  0  0
   -3.2533  -13.5899   10.0021 C   0  0  0  0  0  0  0  0  0  0  0  0
   -8.5283  -12.3109    6.9153 C   0  0  0  0  0  0  0  0  0  0  0  0
   -2.4779  -10.8945   12.1212 C   0  0  0  0  0  0  0  0  0  0  0  0
   -1.0956  -15.9260    5.6422 C   0  0  0  0  0  0  0  0  0  0  0  0
   -0.3495   -9.2733    4.9183 C   0  0  0  0  0  0  0  0  0  0  0  0
   -4.2646  -14.6009   10.4419 C   0  0  0  0  0  0  0  0  0  0  0  0
   -5.3099  -15.6205    8.3077 N   0  0  0  0  0  0  0  0  0  0  0  0
    1.2903   -7.4112    5.6248 N   0  0  0  0  0  0  0  0  0  0  0  0
    1.9968   -6.6162    9.0899 C   0  0  0  0  0  0  0  0  0  0  0  0
   -2.5316  -12.3625    1.9303 N   0  0  0  0  0  0  0  0  0  0  0  0
   -3.6087  -11.9193    3.7852 C   0  0  0  0  0  0  0  0  0  0  0  0
   -5.9470  -13.5078   15.4364 C   0  0  0  0  0  0  0  0  0  0  0  0
   -9.1080   -8.0736   12.3375 C   0  0  0  0  0  0  0  0  0  0  0  0
    1.6906   -4.0469    7.9926 S   0  0  0  0  0  0  0  0  0  0  0  0
   -6.7717   -7.3709    9.9579 N   0  0  0  0  0  0  0  0  0  0  0  0
    0.6136  -11.3219    6.1864 C   0  0  0  0  0  0  0  0  0  0  0  0
   -1.9400  -14.9317    7.6439 C   0  0  0  0  0  0  0  0  0  0  0  0
    0.9477  -10.0146    5.5994 C   0  0  0  0  0  0  0  0  0  0  0  0
   -1.0082  -15.9596    7.2039 C   0  0  0  0  0  0  0  0  0  0  0  0
   -4.7932   -9.8097    7.9227 C   0  0  0  0  0  0  0  0  0  0  0  0
   -4.2874   -6.5326    7.1145 C   0  0  0  0  0  0  0  0  0  0  0  0
    2.7253   -5.4321    8.5348 C   0  0  0  0  0  0  0  0  0  0  0  0
   -7.0797   -8.4438    9.0678 C   0  0  0  0  0  0  0  0  0  0  0  0
    0.8064   -3.5965    9.4652 C   0  0  0  0  0  0  0  0  0  0  0  0
   -8.1707   -7.0129   12.4131 C   0  0  0  0  0  0  0  0  0  0  0  0
  -10.0698   -8.0988   13.3217 C   0  0  0  0  0  0  0  0  0  0  0  0
   -6.2271  -12.9174   16.6692 C   0  0  0  0  0  0  0  0  0  0  0  0
   -5.0161  -14.5408   15.3375 C   0  0  0  0  0  0  0  0  0  0  0  0
   -5.2893   -8.4988    7.9999 C   0  0  0  0  0  0  0  0  0  0  0  0
   -6.6521   -8.1641    7.7275 C   0  0  0  0  0  0  0  0  0  0  0  0
   -4.8061   -7.6424    5.7880 C   0  0  0  0  0  0  0  0  0  0  0  0
   -5.5775   -5.7819    6.8053 C   0  0  0  0  0  0  0  0  0  0  0  0
   -4.4615  -15.0737   16.4858 C   0  0  0  0  0  0  0  0  0  0  0  0
   -8.2022   -5.9908   13.3326 C   0  0  0  0  0  0  0  0  0  0  0  0
  -10.1647   -7.0371   14.2134 C   0  0  0  0  0  0  0  0  0  0  0  0
   -5.6272  -13.4199   17.8133 C   0  0  0  0  0  0  0  0  0  0  0  0
   -9.2173   -6.0105   14.2450 C   0  0  0  0  0  0  0  0  0  0  0  0
   -4.7442  -14.4956   17.7198 C   0  0  0  0  0  0  0  0  0  0  0  0
   -9.8019  -11.4868    6.7746 C   0  0  0  0  0  0  0  0  0  0  0  0
   -9.7482  -10.4971    5.5945 C   0  0  0  0  0  0  0  0  0  0  0  0
  -10.7462  -10.6869    4.7126 N   0  0  0  0  0  0  0  0  0  0  0  0
   -8.9226   -9.6267    5.3418 O   0  0  0  0  0  0  0  0  0  0  0  0
   -4.3605   -9.6340   12.9117 C   0  0  0  0  0  0  0  0  0  0  0  0
    2.6123   -2.9809    7.6623 O   0  0  0  0  0  0  0  0  0  0  0  0
    0.7125   -4.4340    6.9938 O   0  0  0  0  0  0  0  0  0  0  0  0
   -3.1046  -11.8702    5.1645 C   0  0  0  0  0  0  0  0  0  0  0  0
   -1.4660  -10.5462    8.7494 H   0  0  0  0  0  0  0  0  0  0  0  0
   -1.9928   -9.5080    6.0463 H   0  0  0  0  0  0  0  0  0  0  0  0
   -2.3997   -7.8224    6.0053 H   0  0  0  0  0  0  0  0  0  0  0  0
   -2.0829   -7.0559    7.3568 H   0  0  0  0  0  0  0  0  0  0  0  0
   -1.3408  -10.8823    6.4496 H   0  0  0  0  0  0  0  0  0  0  0  0
   -1.6951  -11.3010    7.2667 H   0  0  0  0  0  0  0  0  0  0  0  0
   -3.6911  -15.4581    6.5175 H   0  0  0  0  0  0  0  0  0  0  0  0
   -0.0442  -12.0293    4.3604 H   0  0  0  0  0  0  0  0  0  0  0  0
   -3.9579  -11.6027    7.9144 H   0  0  0  0  0  0  0  0  0  0  0  0
   -2.4121  -11.8397    8.3562 H   0  0  0  0  0  0  0  0  0  0  0  0
   -7.3862  -11.6999    9.8851 H   0  0  0  0  0  0  0  0  0  0  0  0
   -7.1317  -12.1195   11.8430 H   0  0  0  0  0  0  0  0  0  0  0  0
   -5.8108  -12.2307    6.6994 H   0  0  0  0  0  0  0  0  0  0  0  0
    0.1618   -8.8602    8.8822 H   0  0  0  0  0  0  0  0  0  0  0  0
   -7.0838   -9.2464   10.9150 H   0  0  0  0  0  0  0  0  0  0  0  0
   -5.4137  -10.3284    5.8504 H   0  0  0  0  0  0  0  0  0  0  0  0
   -5.9175  -11.0532   14.3892 H   0  0  0  0  0  0  0  0  0  0  0  0
   -2.7162   -8.7331    8.9296 H   0  0  0  0  0  0  0  0  0  0  0  0
   -1.3932   -8.8238   11.0664 H   0  0  0  0  0  0  0  0  0  0  0  0
   -3.9256  -14.1345    8.1692 H   0  0  0  0  0  0  0  0  0  0  0  0
   -7.1482  -10.8389    6.4074 H   0  0  0  0  0  0  0  0  0  0  0  0
    0.5243   -6.3621    7.5999 H   0  0  0  0  0  0  0  0  0  0  0  0
   -1.6085  -12.1899    3.5911 H   0  0  0  0  0  0  0  0  0  0  0  0
   -9.6249   -8.8615   10.4193 H   0  0  0  0  0  0  0  0  0  0  0  0
   -9.7635  -10.0485   11.7232 H   0  0  0  0  0  0  0  0  0  0  0  0
   -7.6727  -12.7433   14.4858 H   0  0  0  0  0  0  0  0  0  0  0  0
   -6.7562  -13.8314   13.4717 H   0  0  0  0  0  0  0  0  0  0  0  0
   -4.1926   -7.4742    9.7322 H   0  0  0  0  0  0  0  0  0  0  0  0
   -3.5462   -5.9885    9.4851 H   0  0  0  0  0  0  0  0  0  0  0  0
   -2.2048  -13.9032    9.9738 H   0  0  0  0  0  0  0  0  0  0  0  0
   -3.1874  -12.7124   10.5979 H   0  0  0  0  0  0  0  0  0  0  0  0
   -8.2699  -12.8449    5.9949 H   0  0  0  0  0  0  0  0  0  0  0  0
   -8.5704  -13.0085    7.7541 H   0  0  0  0  0  0  0  0  0  0  0  0
   -1.7311  -10.2955   12.6216 H   0  0  0  0  0  0  0  0  0  0  0  0
   -2.1091  -11.9072   11.9456 H   0  0  0  0  0  0  0  0  0  0  0  0
   -0.1199  -15.5485    5.2735 H   0  0  0  0  0  0  0  0  0  0  0  0
   -1.1645  -16.9438    5.3196 H   0  0  0  0  0  0  0  0  0  0  0  0
   -0.6957   -8.5968    5.6371 H   0  0  0  0  0  0  0  0  0  0  0  0
   -0.2454   -8.5549    4.1184 H   0  0  0  0  0  0  0  0  0  0  0  0
   -3.8437  -14.9698   11.3633 H   0  0  0  0  0  0  0  0  0  0  0  0
   -5.1979  -14.0954   10.6572 H   0  0  0  0  0  0  0  0  0  0  0  0
   -5.6876  -14.7800    7.8733 H   0  0  0  0  0  0  0  0  0  0  0  0
   -5.1723  -16.3399    7.5971 H   0  0  0  0  0  0  0  0  0  0  0  0
    0.4234   -7.6759    6.0396 H   0  0  0  0  0  0  0  0  0  0  0  0
    1.6617   -7.9716    4.8601 H   0  0  0  0  0  0  0  0  0  0  0  0
    1.3806   -6.3473    9.9581 H   0  0  0  0  0  0  0  0  0  0  0  0
    2.6181   -7.4703    9.3906 H   0  0  0  0  0  0  0  0  0  0  0  0
   -1.6332  -12.6006    1.5447 H   0  0  0  0  0  0  0  0  0  0  0  0
   -3.2984  -12.8733    1.5283 H   0  0  0  0  0  0  0  0  0  0  0  0
   -4.5453  -12.4990    3.6629 H   0  0  0  0  0  0  0  0  0  0  0  0
   -3.9154  -10.9213    3.4429 H   0  0  0  0  0  0  0  0  0  0  0  0
   -7.6859   -7.3743   10.3888 H   0  0  0  0  0  0  0  0  0  0  0  0
   -6.0524   -7.7427   10.5864 H   0  0  0  0  0  0  0  0  0  0  0  0
    0.4153  -11.2859    7.2818 H   0  0  0  0  0  0  0  0  0  0  0  0
    1.3516  -12.1304    6.1340 H   0  0  0  0  0  0  0  0  0  0  0  0
   -1.1721  -14.2268    8.0725 H   0  0  0  0  0  0  0  0  0  0  0  0
   -2.4117  -15.2227    8.5558 H   0  0  0  0  0  0  0  0  0  0  0  0
    1.4950   -9.5691    6.4443 H   0  0  0  0  0  0  0  0  0  0  0  0
    1.6302  -10.2097    4.7898 H   0  0  0  0  0  0  0  0  0  0  0  0
   -0.0229  -15.6883    7.6625 H   0  0  0  0  0  0  0  0  0  0  0  0
   -1.4143  -16.8185    7.7149 H   0  0  0  0  0  0  0  0  0  0  0  0
   -5.3404  -10.4656    8.5737 H   0  0  0  0  0  0  0  0  0  0  0  0
   -3.9673   -9.7329    8.5891 H   0  0  0  0  0  0  0  0  0  0  0  0
   -3.4763   -5.9883    6.6435 H   0  0  0  0  0  0  0  0  0  0  0  0
    3.4281   -5.1090    9.2898 H   0  0  0  0  0  0  0  0  0  0  0  0
    3.3164   -5.6823    7.6575 H   0  0  0  0  0  0  0  0  0  0  0  0
   -8.1397   -8.4500    9.1285 H   0  0  0  0  0  0  0  0  0  0  0  0
   -6.5243   -9.3400    9.3935 H   0  0  0  0  0  0  0  0  0  0  0  0
    1.5426   -3.3370   10.2251 H   0  0  0  0  0  0  0  0  0  0  0  0
    0.1759   -2.7397    9.2274 H   0  0  0  0  0  0  0  0  0  0  0  0
    0.1773   -4.4193    9.8110 H   0  0  0  0  0  0  0  0  0  0  0  0
   -7.2544   -6.9160   11.8712 H   0  0  0  0  0  0  0  0  0  0  0  0
  -10.7317   -8.9554   13.3988 H   0  0  0  0  0  0  0  0  0  0  0  0
   -6.9163  -12.0774   16.7363 H   0  0  0  0  0  0  0  0  0  0  0  0
   -4.7191  -14.9335   14.3666 H   0  0  0  0  0  0  0  0  0  0  0  0
   -5.2496   -7.8113    8.7700 H   0  0  0  0  0  0  0  0  0  0  0  0
   -4.3563   -8.2643    7.6146 H   0  0  0  0  0  0  0  0  0  0  0  0
   -6.9695   -7.1445    7.7782 H   0  0  0  0  0  0  0  0  0  0  0  0
   -6.9947   -8.6789    6.8546 H   0  0  0  0  0  0  0  0  0  0  0  0
   -5.6367   -8.3809    5.7726 H   0  0  0  0  0  0  0  0  0  0  0  0
   -4.8381   -7.3884    4.7251 H   0  0  0  0  0  0  0  0  0  0  0  0
   -4.0425   -8.3013    5.9801 H   0  0  0  0  0  0  0  0  0  0  0  0
   -5.8393   -5.1750    7.6428 H   0  0  0  0  0  0  0  0  0  0  0  0
   -5.4825   -5.3616    5.8001 H   0  0  0  0  0  0  0  0  0  0  0  0
   -6.4552   -6.3747    6.4731 H   0  0  0  0  0  0  0  0  0  0  0  0
   -3.8286  -15.9509   16.4109 H   0  0  0  0  0  0  0  0  0  0  0  0
   -7.4247   -5.2302   13.3028 H   0  0  0  0  0  0  0  0  0  0  0  0
  -11.0096   -7.0022   14.8835 H   0  0  0  0  0  0  0  0  0  0  0  0
   -5.8729  -12.9928   18.7796 H   0  0  0  0  0  0  0  0  0  0  0  0
   -9.2577   -5.2326   14.9911 H   0  0  0  0  0  0  0  0  0  0  0  0
   -4.2692  -14.8879   18.6118 H   0  0  0  0  0  0  0  0  0  0  0  0
  -10.6259  -12.1797    6.7344 H   0  0  0  0  0  0  0  0  0  0  0  0
  -10.0747  -10.9417    7.6899 H   0  0  0  0  0  0  0  0  0  0  0  0
  -10.7471  -10.0560    3.9253 H   0  0  0  0  0  0  0  0  0  0  0  0
  -11.4252  -11.4171    4.8318 H   0  0  0  0  0  0  0  0  0  0  0  0
   -5.0828   -9.8167   12.1341 H   0  0  0  0  0  0  0  0  0  0  0  0
   -4.7058   -9.4248   13.9194 H   0  0  0  0  0  0  0  0  0  0  0  0
   -3.8581   -8.7629   12.5011 H   0  0  0  0  0  0  0  0  0  0  0  0
   -2.8568  -12.8671    5.3149 H   0  0  0  0  0  0  0  0  0  0  0  0
   -4.1619  -11.7039    5.2240 H   0  0  0  0  0  0  0  0  0  0  0  0
  1  3  1  0  0  0  0
  2  1  2  0  0  0  0
  2 99  1  0  0  0  0
  3  5  1  0  0  0  0
  3100  1  0  0  0  0
  4  1  1  0  0  0  0
  4101  1  0  0  0  0
  4102  1  0  0  0  0
  5103  1  0  0  0  0
  5104  1  0  0  0  0
  7 12  1  0  0  0  0
  8  6  1  0  0  0  0
  9  7  1  0  0  0  0
 10 18  1  0  0  0  0
 12105  1  1  0  0  0
 12 10  1  0  0  0  0
 13  6  1  0  0  0  0
 13106  1  6  0  0  0
 13 11  1  0  0  0  0
 18107  1  0  0  0  0
 19 11  1  0  0  0  0
 19108  1  0  0  0  0
 20 16  1  0  0  0  0
 20109  1  0  0  0  0
 21 14  1  0  0  0  0
 21110  1  0  0  0  0
 22 17  1  0  0  0  0
 22111  1  0  0  0  0
 23 15  1  0  0  0  0
 23112  1  0  0  0  0
 25 46  1  0  0  0  0
 25113  1  6  0  0  0
 25 20  1  0  0  0  0
 25 14  1  0  0  0  0
 26 72  1  0  0  0  0
 26114  1  6  0  0  0
 26  8  1  0  0  0  0
 26 18  1  0  0  0  0
 27 47  1  0  0  0  0
 27115  1  1  0  0  0
 27 21  1  0  0  0  0
 27 24  1  0  0  0  0
 28116  1  6  0  0  0
 28 29  1  0  0  0  0
 28 15  1  0  0  0  0
 29 33  1  0  0  0  0
 29117  1  0  0  0  0
 31118  1  6  0  0  0
 31 19  1  0  0  0  0
 31 17  1  0  0  0  0
 32119  1  6  0  0  0
 32 22  1  0  0  0  0
 32 16  1  0  0  0  0
 33 55  1  0  0  0  0
 34 24  1  0  0  0  0
 34 95  1  0  0  0  0
 35120  1  6  0  0  0
 35 23  1  0  0  0  0
 35 30  1  0  0  0  0
 36 58  1  0  0  0  0
 37  8  2  0  0  0  0
 38  9  2  0  0  0  0
 39 11  2  0  0  0  0
 40 10  2  0  0  0  0
 41  9  1  0  0  0  0
 41 62  1  0  0  0  0
 41121  1  1  0  0  0
 42 14  2  0  0  0  0
 43 15  2  0  0  0  0
 44 17  2  0  0  0  0
 45 16  2  0  0  0  0
 46122  1  0  0  0  0
 46123  1  0  0  0  0
 47124  1  0  0  0  0
 47125  1  0  0  0  0
 48 24  2  0  0  0  0
 49 30  2  0  0  0  0
 50 28  1  0  0  0  0
 50126  1  0  0  0  0
 50127  1  0  0  0  0
 51 33  2  0  0  0  0
 52 36  2  0  0  0  0
 53 31  1  0  0  0  0
 53128  1  0  0  0  0
 53129  1  0  0  0  0
 54 32  1  0  0  0  0
 54 91  1  0  0  0  0
 54130  1  0  0  0  0
 54131  1  0  0  0  0
 55 34  1  0  0  0  0
 55132  1  0  0  0  0
 55133  1  0  0  0  0
 56  7  1  0  0  0  0
 56134  1  0  0  0  0
 56135  1  0  0  0  0
 57  6  1  0  0  0  0
 57136  1  0  0  0  0
 57137  1  0  0  0  0
 58 53  1  0  0  0  0
 58138  1  0  0  0  0
 58139  1  0  0  0  0
 59 36  1  0  0  0  0
 59140  1  0  0  0  0
 59141  1  0  0  0  0
 60 30  1  0  0  0  0
 60142  1  0  0  0  0
 60143  1  0  0  0  0
 61 35  1  0  0  0  0
 61144  1  0  0  0  0
 61145  1  0  0  0  0
 62146  1  0  0  0  0
 62147  1  0  0  0  0
 63 41  1  0  0  0  0
 63 98  1  0  0  0  0
 63148  1  0  0  0  0
 63149  1  0  0  0  0
 64 47  1  0  0  0  0
 65 46  1  0  0  0  0
 66 74  1  0  0  0  0
 66 96  2  0  0  0  0
 66 97  2  0  0  0  0
 67 75  1  0  0  0  0
 67150  1  0  0  0  0
 67151  1  0  0  0  0
 68 13  1  0  0  0  0
 68152  1  0  0  0  0
 68153  1  0  0  0  0
 69 12  1  0  0  0  0
 69154  1  0  0  0  0
 69155  1  0  0  0  0
 70 57  1  0  0  0  0
 70 68  1  0  0  0  0
 70156  1  0  0  0  0
 70157  1  0  0  0  0
 71 69  1  0  0  0  0
 71 56  1  0  0  0  0
 71158  1  0  0  0  0
 71159  1  0  0  0  0
 72160  1  0  0  0  0
 72161  1  0  0  0  0
 73 50  1  0  0  0  0
 73162  1  0  0  0  0
 74 61  1  0  0  0  0
 74163  1  0  0  0  0
 74164  1  0  0  0  0
 75 82  1  0  0  0  0
 75165  1  0  0  0  0
 75166  1  0  0  0  0
 76 66  1  0  0  0  0
 76167  1  0  0  0  0
 76168  1  0  0  0  0
 76169  1  0  0  0  0
 77 65  2  0  0  0  0
 77170  1  0  0  0  0
 78 65  1  0  0  0  0
 78171  1  0  0  0  0
 79 64  2  0  0  0  0
 79172  1  0  0  0  0
 80 64  1  0  0  0  0
 80173  1  0  0  0  0
 81 72  1  0  0  0  0
 81174  1  0  0  0  0
 81175  1  0  0  0  0
 82 81  1  0  0  0  0
 82176  1  0  0  0  0
 82177  1  0  0  0  0
 83 73  1  0  0  0  0
 83178  1  0  0  0  0
 83179  1  0  0  0  0
 83180  1  0  0  0  0
 84 73  1  0  0  0  0
 84181  1  0  0  0  0
 84182  1  0  0  0  0
 84183  1  0  0  0  0
 85 80  2  0  0  0  0
 85184  1  0  0  0  0
 86 77  1  0  0  0  0
 86185  1  0  0  0  0
 87 78  2  0  0  0  0
 87186  1  0  0  0  0
 88 79  1  0  0  0  0
 88187  1  0  0  0  0
 89 87  1  0  0  0  0
 89 86  2  0  0  0  0
 89188  1  0  0  0  0
 90 85  1  0  0  0  0
 90 88  2  0  0  0  0
 90189  1  0  0  0  0
 91 92  1  0  0  0  0
 91190  1  0  0  0  0
 91191  1  0  0  0  0
 92 93  1  0  0  0  0
 92 94  2  0  0  0  0
 93192  1  0  0  0  0
 93193  1  0  0  0  0
 95194  1  0  0  0  0
 95195  1  0  0  0  0
 95196  1  0  0  0  0
 98  5  1  0  0  0  0
 98197  1  0  0  0  0
 98198  1  0  0  0  0
M  END
>  <DRUGBANK_ID>
DB05875

>  <COMMON_NAME>
Sar9, Met (O2)11-Substance P

>  <CAS_NUMBER>
110880-55-2

>  <UNII>
8V0QAFPRXV

>  <SYNONYMS>
(Sar(9),met(O2)(11))SP; (Sar(9))SP sulfone; 9-Sar-11-met(O2)-substance P; 9-Sar-substance P sulfone; 9-Sarcosyl-11-methionine(O2)-substance P; Bolton hunter-9-sar-11-met(02)-substance P; Sarcosyl(9)-substance P sulfone

$$$$
