
 OpenBabel10282417203D

 36 36  0  0  0  0  0  0  0  0999 V2000
    1.0892    0.0452   -0.0253 C   0  0  0  0  0  0  0  0  0  0  0  0
    0.6306   -0.1170   -1.4661 C   0  0  0  0  0  0  0  0  0  0  0  0
    1.1268   -1.4411   -2.0539 C   0  0  0  0  0  0  0  0  0  0  0  0
    0.5988   -2.6610   -1.2781 C   0  0  0  0  0  0  0  0  0  0  0  0
   -0.9504   -2.7626   -1.2960 C   0  0  3  0  0  0  0  0  0  0  0  0
   -1.4586   -2.8110   -2.7551 C   0  0  0  0  0  0  0  0  0  0  0  0
   -0.8663   -3.9687   -3.5620 C   0  0  0  0  0  0  0  0  0  0  0  0
   -1.5490   -3.8615   -0.3771 C   0  0  3  0  0  0  0  0  0  0  0  0
   -2.1105   -5.1022   -1.0869 C   0  0  0  0  0  0  0  0  0  0  0  0
   -3.1011   -5.0851   -1.8101 O   0  0  0  0  0  0  0  0  0  0  0  0
   -1.2720   -6.1674   -0.8306 N   0  0  0  0  0  0  0  0  0  0  0  0
   -0.4011   -5.8179    0.1586 C   0  0  0  0  0  0  0  0  0  0  0  0
    0.4163   -6.4930    0.7664 O   0  0  0  0  0  0  0  0  0  0  0  0
   -0.5764   -4.4943    0.4652 N   0  0  0  0  0  0  0  0  0  0  0  0
   -1.3766   -7.6189   -1.6989 S   0  0  0  0  0  0  0  0  0  0  0  0
   -0.2433   -8.8111   -0.9175 C   0  0  0  0  0  0  0  0  0  0  0  0
    1.4736   -8.3679   -1.1174 Cl  0  0  0  0  0  0  0  0  0  0  0  0
   -0.7234   -9.1745    0.7596 Cl  0  0  0  0  0  0  0  0  0  0  0  0
   -0.4216  -10.3831   -1.8202 Cl  0  0  0  0  0  0  0  0  0  0  0  0
    0.6984   -0.7476    0.6203 H   0  0  0  0  0  0  0  0  0  0  0  0
    0.7382    0.9916    0.3894 H   0  0  0  0  0  0  0  0  0  0  0  0
    2.1818    0.0148    0.0252 H   0  0  0  0  0  0  0  0  0  0  0  0
   -0.4621   -0.0493   -1.5150 H   0  0  0  0  0  0  0  0  0  0  0  0
    1.0059    0.7147   -2.0714 H   0  0  0  0  0  0  0  0  0  0  0  0
    0.8453   -1.4985   -3.1112 H   0  0  0  0  0  0  0  0  0  0  0  0
    2.2225   -1.4585   -2.0481 H   0  0  0  0  0  0  0  0  0  0  0  0
    1.0471   -3.5726   -1.6862 H   0  0  0  0  0  0  0  0  0  0  0  0
    0.9702   -2.6098   -0.2500 H   0  0  0  0  0  0  0  0  0  0  0  0
   -1.3341   -1.8296   -0.8583 H   0  0  0  0  0  0  0  0  0  0  0  0
   -2.5536   -2.8280   -2.7623 H   0  0  0  0  0  0  0  0  0  0  0  0
   -1.2049   -1.8792   -3.2746 H   0  0  0  0  0  0  0  0  0  0  0  0
   -1.0674   -4.9466   -3.1388 H   0  0  0  0  0  0  0  0  0  0  0  0
   -1.2796   -3.9892   -4.5695 H   0  0  0  0  0  0  0  0  0  0  0  0
    0.2222   -3.9076   -3.6273 H   0  0  0  0  0  0  0  0  0  0  0  0
   -2.3283   -3.4472    0.2700 H   0  0  0  0  0  0  0  0  0  0  0  0
   -0.0184   -4.0591    1.1893 H   0  0  0  0  0  0  0  0  0  0  0  0
  1  2  1  0  0  0  0
  1 20  1  0  0  0  0
  1 21  1  0  0  0  0
  1 22  1  0  0  0  0
  2  3  1  0  0  0  0
  2 23  1  0  0  0  0
  2 24  1  0  0  0  0
  3  4  1  0  0  0  0
  3 25  1  0  0  0  0
  3 26  1  0  0  0  0
  4  5  1  0  0  0  0
  4 27  1  0  0  0  0
  4 28  1  0  0  0  0
  5  6  1  0  0  0  0
  5  8  1  0  0  0  0
  5 29  1  0  0  0  0
  6  7  1  0  0  0  0
  6 30  1  0  0  0  0
  6 31  1  0  0  0  0
  7 32  1  0  0  0  0
  7 33  1  0  0  0  0
  7 34  1  0  0  0  0
  8  9  1  0  0  0  0
  8 14  1  0  0  0  0
  8 35  1  0  0  0  0
  9 10  2  0  0  0  0
  9 11  1  0  0  0  0
 11 12  1  0  0  0  0
 11 15  1  0  0  0  0
 12 13  2  0  0  0  0
 12 14  1  0  0  0  0
 14 36  1  0  0  0  0
 15 16  1  0  0  0  0
 16 17  1  0  0  0  0
 16 18  1  0  0  0  0
 16 19  1  0  0  0  0
M  END
>  <DRUGBANK_ID>
DB13516

>  <COMMON_NAME>
Clodantoin

>  <CAS_NUMBER>
5588-20-5

>  <UNII>
W14Z7581PA

>  <SYNONYMS>
Chlordantoin; Clodantoin

$$$$
