
 OpenBabel10282417133D

 23 23  0  0  0  0  0  0  0  0999 V2000
    0.6521    1.2693   -0.3183 C   0  0  2  0  0  0  0  0  0  0  0  0
    1.4230    0.0141    0.1515 C   0  0  1  0  0  0  0  0  0  0  0  0
   -0.7132    1.2509    0.1193 O   0  0  0  0  0  0  0  0  0  0  0  0
    0.7650    1.4539   -1.8377 C   0  0  0  0  0  0  0  0  0  0  0  0
    0.6983   -1.2973   -0.2316 C   0  0  1  0  0  0  0  0  0  0  0  0
    2.7805    0.0181   -0.2911 O   0  0  0  0  0  0  0  0  0  0  0  0
   -1.4014    0.0529   -0.2624 C   0  0  1  0  0  0  0  0  0  0  0  0
   -0.0419    2.3937   -2.3653 O   0  0  0  0  0  0  0  0  0  0  0  0
    1.4657    0.7453   -2.5566 O   0  0  0  0  0  0  0  0  0  0  0  0
   -0.7424   -1.2389    0.2763 C   0  0  2  0  0  0  0  0  0  0  0  0
    0.6989   -1.6027   -1.6288 O   0  0  0  0  0  0  0  0  0  0  0  0
   -2.7407    0.1577    0.1794 O   0  0  0  0  0  0  0  0  0  0  0  0
   -0.7417   -1.2599    1.7112 O   0  0  0  0  0  0  0  0  0  0  0  0
    1.1324    2.1535    0.1212 H   0  0  0  0  0  0  0  0  0  0  0  0
    1.4695    0.0476    1.2493 H   0  0  0  0  0  0  0  0  0  0  0  0
    1.2336   -2.1318    0.2351 H   0  0  0  0  0  0  0  0  0  0  0  0
    2.7678   -0.1024   -1.2647 H   0  0  0  0  0  0  0  0  0  0  0  0
   -1.4468    0.0200   -1.3547 H   0  0  0  0  0  0  0  0  0  0  0  0
   -0.5782    2.8770   -1.7058 H   0  0  0  0  0  0  0  0  0  0  0  0
   -1.3208   -2.1032   -0.0698 H   0  0  0  0  0  0  0  0  0  0  0  0
    0.5242   -0.8187   -2.1827 H   0  0  0  0  0  0  0  0  0  0  0  0
   -2.7512    0.9702    0.7113 H   0  0  0  0  0  0  0  0  0  0  0  0
   -0.5900   -2.1842    1.9823 H   0  0  0  0  0  0  0  0  0  0  0  0
  1  2  1  0  0  0  0
  1  3  1  0  0  0  0
  1 14  1  1  0  0  0
  1  4  1  0  0  0  0
  2  5  1  0  0  0  0
  2  6  1  0  0  0  0
  2 15  1  1  0  0  0
  3  7  1  0  0  0  0
  4  8  1  0  0  0  0
  4  9  2  0  0  0  0
  5 10  1  0  0  0  0
  5 11  1  0  0  0  0
  5 16  1  1  0  0  0
  6 17  1  0  0  0  0
  7 10  1  0  0  0  0
  7 18  1  6  0  0  0
  7 12  1  0  0  0  0
  8 19  1  0  0  0  0
 10 20  1  6  0  0  0
 10 13  1  0  0  0  0
 11 21  1  0  0  0  0
 12 22  1  0  0  0  0
 13 23  1  0  0  0  0
M  END
>  <DRUGBANK_ID>
DB03511

>  <SECONDARY_ACCESSION_NUMBERS>
EXPT01661; DB03334

>  <COMMON_NAME>
alpha-D-galacturonic acid

>  <CAS_NUMBER>
6294-16-2

>  <UNII>
CEP8I6411H

>  <SYNONYMS>
alpha-D-galactopyranuronic acid; α-D-galactopyranuronic acid; α-D-galacturonic acid

$$$$
