
 OpenBabel10282417213D

 57 60  0  0  0  0  0  0  0  0999 V2000
    0.9114   -0.3924   -0.3313 C   0  0  0  0  0  0  0  0  0  0  0  0
    1.4885   -1.3498   -1.3704 C   0  0  0  0  0  0  0  0  0  0  0  0
    1.1306   -2.8593   -1.2336 C   0  0  0  0  0  0  0  0  0  0  0  0
    0.9447   -3.3607    0.0256 C   0  0  0  0  0  0  0  0  0  0  0  0
    1.2117   -2.3637    1.0879 C   0  0  2  0  0  0  0  0  0  0  0  0
    0.3623   -1.1521    0.6212 C   0  0  0  0  0  0  0  0  0  0  0  0
    0.6193   -4.7402    0.5421 C   0  0  2  0  0  0  0  0  0  0  0  0
    1.0481   -5.0503    2.0859 C   0  0  0  0  0  0  0  0  0  0  0  0
    0.3472   -3.9973    3.1613 C   0  0  2  0  0  0  0  0  0  0  0  0
    1.0146   -2.6899    2.5884 C   0  0  2  0  0  0  0  0  0  0  0  0
    0.3819   -4.1257    5.0733 C   0  0  1  0  0  0  0  0  0  0  0  0
    0.7997   -2.7478    5.1452 C   0  0  2  0  0  0  0  0  0  0  0  0
    1.2204   -1.4982    4.5408 C   0  0  0  0  0  0  0  0  0  0  0  0
    0.7236   -1.3213    3.1890 C   0  0  2  0  0  0  0  0  0  0  0  0
   -0.0394   -3.0879    6.8019 C   0  0  0  0  0  0  0  0  0  0  0  0
    1.1973   -2.3515    7.4076 C   0  0  2  0  0  0  0  0  0  0  0  0
    1.8900   -3.1543    6.4440 C   0  0  2  0  0  0  0  0  0  0  0  0
    2.3587   -0.9397   -2.1316 O   0  0  0  0  0  0  0  0  0  0  0  0
    2.7906   -2.1448    1.0108 C   0  0  0  0  0  0  0  0  0  0  0  0
   -0.6916   -4.1587    2.8584 H   0  0  0  0  0  0  0  0  0  0  0  0
   -0.5728   -0.7568    3.1483 O   0  0  0  0  0  0  0  0  0  0  0  0
   -1.0855   -2.7831    4.9120 C   0  0  0  0  0  0  0  0  0  0  0  0
    2.3206   -3.0022    3.0538 F   0  0  0  0  0  0  0  0  0  0  0  0
    1.1286   -4.8912    5.2072 H   0  0  0  0  0  0  0  0  0  0  0  0
    1.1861   -5.6572   -0.2885 F   0  0  0  0  0  0  0  0  0  0  0  0
    1.6912   -2.4482    8.8369 C   0  0  0  0  0  0  0  0  0  0  0  0
    3.4025   -3.0266    6.2481 C   0  0  0  0  0  0  0  0  0  0  0  0
    4.2810   -1.4963    6.3094 S   0  0  0  0  0  0  0  0  0  0  0  0
    4.0767   -4.0435    6.1029 O   0  0  0  0  0  0  0  0  0  0  0  0
    1.7857   -4.5495    7.0818 O   0  0  0  0  0  0  0  0  0  0  0  0
    3.2274   -0.0964    6.6729 C   0  0  0  0  0  0  0  0  0  0  0  0
    2.4364    0.2688    5.6410 F   0  0  0  0  0  0  0  0  0  0  0  0
    1.7801    0.1958    0.0067 H   0  0  0  0  0  0  0  0  0  0  0  0
    1.1545   -3.4444   -2.1407 H   0  0  0  0  0  0  0  0  0  0  0  0
   -0.7272   -1.2770    0.5825 H   0  0  0  0  0  0  0  0  0  0  0  0
   -0.4664   -4.8722    0.4659 H   0  0  0  0  0  0  0  0  0  0  0  0
    2.1479   -4.9793    2.0877 H   0  0  0  0  0  0  0  0  0  0  0  0
    0.8139   -6.0950    2.2971 H   0  0  0  0  0  0  0  0  0  0  0  0
    0.8178   -0.6813    5.1278 H   0  0  0  0  0  0  0  0  0  0  0  0
    2.3134   -1.4585    4.4512 H   0  0  0  0  0  0  0  0  0  0  0  0
    1.3597   -0.5390    2.7594 H   0  0  0  0  0  0  0  0  0  0  0  0
   -0.7573   -3.3914    7.5621 H   0  0  0  0  0  0  0  0  0  0  0  0
   -0.5442   -2.0992    6.6360 H   0  0  0  0  0  0  0  0  0  0  0  0
    1.1471   -1.2910    7.1479 H   0  0  0  0  0  0  0  0  0  0  0  0
    3.2216   -1.9127    0.0400 H   0  0  0  0  0  0  0  0  0  0  0  0
    3.1064   -1.3515    1.6943 H   0  0  0  0  0  0  0  0  0  0  0  0
    3.3041   -3.0786    1.2787 H   0  0  0  0  0  0  0  0  0  0  0  0
   -1.2607   -1.3907    3.3582 H   0  0  0  0  0  0  0  0  0  0  0  0
   -1.4479   -3.0082    3.9175 H   0  0  0  0  0  0  0  0  0  0  0  0
   -1.5906   -3.6235    5.4708 H   0  0  0  0  0  0  0  0  0  0  0  0
   -1.5653   -1.8549    5.2140 H   0  0  0  0  0  0  0  0  0  0  0  0
    2.7888   -2.3658    8.8778 H   0  0  0  0  0  0  0  0  0  0  0  0
    1.3171   -1.6050    9.4284 H   0  0  0  0  0  0  0  0  0  0  0  0
    1.4027   -3.3748    9.3241 H   0  0  0  0  0  0  0  0  0  0  0  0
    0.9456   -4.6915    7.5681 H   0  0  0  0  0  0  0  0  0  0  0  0
    2.6318   -0.1608    7.5843 H   0  0  0  0  0  0  0  0  0  0  0  0
    3.8583    0.7759    6.7985 H   0  0  0  0  0  0  0  0  0  0  0  0
  1  2  1  0  0  0  0
  1  6  2  0  0  0  0
  1 33  1  0  0  0  0
  2  3  1  0  0  0  0
  2 18  2  0  0  0  0
  3  4  2  0  0  0  0
  3 34  1  0  0  0  0
  4  5  1  0  0  0  0
  4  7  1  0  0  0  0
  5  6  1  0  0  0  0
  5 10  1  0  0  0  0
  5 19  1  1  0  0  0
  6 35  1  0  0  0  0
  7  8  1  0  0  0  0
  7 25  1  0  0  0  0
  7 36  1  6  0  0  0
  8  9  1  0  0  0  0
  8 37  1  0  0  0  0
  8 38  1  0  0  0  0
  9 10  1  0  0  0  0
  9 11  1  0  0  0  0
  9 20  1  6  0  0  0
 10 14  1  0  0  0  0
 10 23  1  1  0  0  0
 11 12  1  0  0  0  0
 11 15  1  0  0  0  0
 11 24  1  1  0  0  0
 12 13  1  0  0  0  0
 12 17  1  0  0  0  0
 12 22  1  1  0  0  0
 13 14  1  0  0  0  0
 13 39  1  0  0  0  0
 13 40  1  0  0  0  0
 14 21  1  0  0  0  0
 14 41  1  6  0  0  0
 15 16  1  0  0  0  0
 15 42  1  0  0  0  0
 15 43  1  0  0  0  0
 16 17  1  0  0  0  0
 16 26  1  0  0  0  0
 16 44  1  6  0  0  0
 17 30  1  1  0  0  0
 17 27  1  0  0  0  0
 19 45  1  0  0  0  0
 19 46  1  0  0  0  0
 19 47  1  0  0  0  0
 21 48  1  0  0  0  0
 22 49  1  0  0  0  0
 22 50  1  0  0  0  0
 22 51  1  0  0  0  0
 26 52  1  0  0  0  0
 26 53  1  0  0  0  0
 26 54  1  0  0  0  0
 27 28  1  0  0  0  0
 27 29  2  0  0  0  0
 28 31  1  0  0  0  0
 30 55  1  0  0  0  0
 31 32  1  0  0  0  0
 31 56  1  0  0  0  0
 31 57  1  0  0  0  0
M  END
>  <DRUGBANK_ID>
DB13867

>  <COMMON_NAME>
Fluticasone

>  <CAS_NUMBER>
90566-53-3

>  <UNII>
CUT2W21N7U

>  <SYNONYMS>
Fluticason; Fluticasona; Fluticasone; Fluticasonum

$$$$
