
 OpenBabel10282417183D

  6  4  0  0  0  0  0  0  0  0999 V2000
    1.5000    0.2015    0.5861 O   0  5  0  0  0  0  0  0  0  0  0  0
    3.7360    0.6531    1.2841 O   0  5  0  0  0  0  0  0  0  0  0  0
    3.0811   -1.3956    0.0780 O   0  0  0  0  0  0  0  0  0  0  0  0
    3.0086    0.6703   -1.0722 O   0  0  0  0  0  0  0  0  0  0  0  0
    2.9459    0.0509    0.2553 S   0  0  0  0  0  0  0  0  0  0  0  0
    0.3946   -0.3603   -0.6323 Zn  0  2  0  0  0  0  0  0  0  0  0  0
  5  1  1  0  0  0  0
  5  2  1  0  0  0  0
  5  3  2  0  0  0  0
  5  4  2  0  0  0  0
M  CHG  3   1  -1   2  -1   6   2
M  END
>  <DRUGBANK_ID>
DB09322

>  <COMMON_NAME>
Zinc sulfate

>  <CAS_NUMBER>
7733-02-0

>  <UNII>
0J6Z13X3WO

>  <SYNONYMS>
Zinc sulfate (anhydrous); Zinc sulfate anhydrous; Zinc sulfate, anhydrous; Zinc sulphate; Zinc sulphate anhydrous; Zinc sulphate, anhydrous

$$$$
