BPX
 OpenBabel10282417163D

 34 34  0  0  0  0  0  0  0  0999 V2000
    1.2954   -0.2655    0.0288 C   0  0  0  0  0  0  0  0  0  0  0  0
    0.4623   -1.3744    0.0314 C   0  0  0  0  0  0  0  0  0  0  0  0
   -0.9196   -1.1899    0.0163 C   0  0  0  0  0  0  0  0  0  0  0  0
   -1.4630    0.0853    0.1375 C   0  0  0  0  0  0  0  0  0  0  0  0
   -0.6263    1.1686    0.2990 C   0  0  0  0  0  0  0  0  0  0  0  0
    0.7257    1.0147    0.0488 C   0  0  0  0  0  0  0  0  0  0  0  0
    1.5259    2.2322   -0.2698 C   0  0  0  0  0  0  0  0  0  0  0  0
    1.2943    2.9600   -1.6108 C   0  0  1  0  0  0  0  0  0  0  0  0
   -0.0872    3.6020   -1.6652 C   0  0  0  0  0  0  0  0  0  0  0  0
   -0.3506    4.7704   -1.5079 O   0  0  0  0  0  0  0  0  0  0  0  0
   -1.0708    2.6989   -1.8565 O   0  0  0  0  0  0  0  0  0  0  0  0
    2.3534    4.0804   -1.8409 C   0  0  0  0  0  0  0  0  0  0  0  0
    3.8383    3.6465   -1.9407 C   0  0  0  0  0  0  0  0  0  0  0  0
    3.9649    2.7142   -3.0131 O   0  0  0  0  0  0  0  0  0  0  0  0
    4.6389    4.7531   -2.3409 O   0  0  0  0  0  0  0  0  0  0  0  0
    4.5120    3.0757   -0.6872 C   0  0  0  0  0  0  0  0  0  0  0  0
    4.2958    3.9920    0.4794 N   0  3  0  0  0  0  0  0  0  0  0  0
    3.5395    3.6003    1.3773 O   0  0  0  0  0  0  0  0  0  0  0  0
    4.8968    5.0697    0.4909 O   0  5  0  0  0  0  0  0  0  0  0  0
    1.3475    2.2513   -2.4469 H   0  0  0  0  0  0  0  0  0  0  0  0
    2.3748   -0.4084   -0.0076 H   0  0  0  0  0  0  0  0  0  0  0  0
    0.8862   -2.3732   -0.0054 H   0  0  0  0  0  0  0  0  0  0  0  0
   -1.5829   -2.0421   -0.0687 H   0  0  0  0  0  0  0  0  0  0  0  0
   -2.5313    0.2556    0.0695 H   0  0  0  0  0  0  0  0  0  0  0  0
   -1.0283    2.1602    0.4814 H   0  0  0  0  0  0  0  0  0  0  0  0
    1.4712    2.9290    0.5672 H   0  0  0  0  0  0  0  0  0  0  0  0
    2.5068    1.8035   -0.3181 H   0  0  0  0  0  0  0  0  0  0  0  0
   -1.8861    3.1070   -1.4955 H   0  0  0  0  0  0  0  0  0  0  0  0
    2.0863    4.5927   -2.7800 H   0  0  0  0  0  0  0  0  0  0  0  0
    2.2467    4.8614   -1.0759 H   0  0  0  0  0  0  0  0  0  0  0  0
    3.3693    1.9608   -2.8741 H   0  0  0  0  0  0  0  0  0  0  0  0
    4.2436    5.1535   -3.1296 H   0  0  0  0  0  0  0  0  0  0  0  0
    4.2001    2.0683   -0.4227 H   0  0  0  0  0  0  0  0  0  0  0  0
    5.5904    2.9621   -0.8046 H   0  0  0  0  0  0  0  0  0  0  0  0
  1  2  2  0  0  0  0
  1  6  1  0  0  0  0
  1 21  1  0  0  0  0
  2  3  1  0  0  0  0
  2 22  1  0  0  0  0
  3  4  2  0  0  0  0
  3 23  1  0  0  0  0
  4  5  1  0  0  0  0
  4 24  1  0  0  0  0
  5  6  2  0  0  0  0
  5 25  1  0  0  0  0
  6  7  1  0  0  0  0
  7  8  1  0  0  0  0
  7 26  1  0  0  0  0
  7 27  1  0  0  0  0
  8  9  1  0  0  0  0
  8 12  1  0  0  0  0
  8 20  1  6  0  0  0
  9 10  2  0  0  0  0
  9 11  1  0  0  0  0
 11 28  1  0  0  0  0
 12 13  1  0  0  0  0
 12 29  1  0  0  0  0
 12 30  1  0  0  0  0
 13 14  1  0  0  0  0
 13 15  1  0  0  0  0
 13 16  1  0  0  0  0
 14 31  1  0  0  0  0
 15 32  1  0  0  0  0
 16 17  1  0  0  0  0
 16 33  1  0  0  0  0
 16 34  1  0  0  0  0
 17 18  2  0  0  0  0
 17 19  1  0  0  0  0
M  CHG  2  17   1  19  -1
M  END
>  <DRUGBANK_ID>
DB07484

>  <COMMON_NAME>
(2R)-4,4-dihydroxy-5-nitro-2-(phenylmethyl)pentanoic acid

$$$$
