
 OpenBabel10282417143D

 20 20  0  0  0  0  0  0  0  0999 V2000
    1.4284   -0.2735    0.0118 C   0  0  0  0  0  0  0  0  0  0  0  0
    0.5225   -1.3328    0.0251 C   0  0  0  0  0  0  0  0  0  0  0  0
    0.9625    1.0347   -0.0720 C   0  0  0  0  0  0  0  0  0  0  0  0
   -0.8531   -1.0887   -0.0190 C   0  0  0  0  0  0  0  0  0  0  0  0
   -0.4061    1.2749   -0.1464 C   0  0  0  0  0  0  0  0  0  0  0  0
   -2.8188    0.5108   -0.1782 C   0  0  0  0  0  0  0  0  0  0  0  0
   -3.4087    1.2730    1.0243 C   0  0  0  0  0  0  0  0  0  0  0  0
   -1.3350    0.2254   -0.0954 C   0  0  0  0  0  0  0  0  0  0  0  0
   -2.8456    2.6102    1.2255 N   0  0  0  0  0  0  0  0  0  0  0  0
    2.4966   -0.4633    0.0510 H   0  0  0  0  0  0  0  0  0  0  0  0
    0.8910   -2.3554    0.0611 H   0  0  0  0  0  0  0  0  0  0  0  0
    1.6572    1.8687   -0.0974 H   0  0  0  0  0  0  0  0  0  0  0  0
   -1.5399   -1.9316   -0.0110 H   0  0  0  0  0  0  0  0  0  0  0  0
   -0.7445    2.3041   -0.2527 H   0  0  0  0  0  0  0  0  0  0  0  0
   -3.0151    1.0586   -1.1088 H   0  0  0  0  0  0  0  0  0  0  0  0
   -3.3662   -0.4372   -0.2724 H   0  0  0  0  0  0  0  0  0  0  0  0
   -4.4878    1.3842    0.8696 H   0  0  0  0  0  0  0  0  0  0  0  0
   -3.2675    0.6901    1.9411 H   0  0  0  0  0  0  0  0  0  0  0  0
   -3.3055    3.0621    2.0132 H   0  0  0  0  0  0  0  0  0  0  0  0
   -1.8742    2.4999    1.5211 H   0  0  0  0  0  0  0  0  0  0  0  0
  1  2  2  0  0  0  0
  1  3  1  0  0  0  0
  1 10  1  0  0  0  0
  2  4  1  0  0  0  0
  2 11  1  0  0  0  0
  3  5  2  0  0  0  0
  3 12  1  0  0  0  0
  4  8  2  0  0  0  0
  4 13  1  0  0  0  0
  5  8  1  0  0  0  0
  5 14  1  0  0  0  0
  6  7  1  0  0  0  0
  6  8  1  0  0  0  0
  6 15  1  0  0  0  0
  6 16  1  0  0  0  0
  7  9  1  0  0  0  0
  7 17  1  0  0  0  0
  7 18  1  0  0  0  0
  9 19  1  0  0  0  0
  9 20  1  0  0  0  0
M  END
>  <DRUGBANK_ID>
DB04325

>  <SECONDARY_ACCESSION_NUMBERS>
EXPT02542

>  <COMMON_NAME>
Phenethylamine

>  <CAS_NUMBER>
64-04-0

>  <UNII>
327C7L2BXQ

>  <SYNONYMS>
2-phenylethylamine; benzeneethanamine; beta-Phenylethylamine; Phenylethylamine; β-aminoethylbenzene; β-phenethylamine

$$$$
