
 OpenBabel10282417133D

 54 57  0  0  1  0  0  0  0  0999 V2000
    1.1151    0.0940    0.0182 C   0  0  0  0  0  0  0  0  0  0  0  0
   -0.6219    1.9552   -0.7220 C   0  0  0  0  0  0  0  0  0  0  0  0
    3.7726   -5.8432    1.0566 C   0  0  0  0  0  0  0  0  0  0  0  0
    0.4944    3.7020   -0.2756 C   0  0  0  0  0  0  0  0  0  0  0  0
    5.7589   -9.7457    2.7071 C   0  0  0  0  0  0  0  0  0  0  0  0
    8.4448   -7.3060    0.2774 C   0  0  0  0  0  0  0  0  0  0  0  0
    0.5829    1.4882   -0.2185 C   0  0  0  0  0  0  0  0  0  0  0  0
    0.6883   -0.8996   -1.0708 C   0  0  1  0  0  0  0  0  0  0  0  0
    4.7509   -4.9140    1.7689 C   0  0  2  0  0  0  0  0  0  0  0  0
    7.7730   -9.1747    1.0587 C   0  0  0  0  0  0  0  0  0  0  0  0
    5.4326   -3.9649    0.7723 C   0  0  2  0  0  0  0  0  0  0  0  0
    6.5175   -4.8638    0.1964 C   0  0  2  0  0  0  0  0  0  0  0  0
    7.5446  -10.5083    1.4388 C   0  0  0  0  0  0  0  0  0  0  0  0
    6.9200   -8.2192    1.5896 C   0  0  0  0  0  0  0  0  0  0  0  0
    6.9346   -5.6817    1.4187 C   0  0  2  0  0  0  0  0  0  0  0  0
    1.0651   -2.3565   -0.8223 C   0  0  0  0  0  0  0  0  0  0  0  0
   -0.8266   -0.8905   -1.1432 N   0  0  0  0  0  0  0  0  0  0  0  0
    8.3276  -11.5531    1.0052 N   0  0  0  0  0  0  0  0  0  0  0  0
   -0.6603    3.3200   -0.7585 N   0  0  0  0  0  0  0  0  0  0  0  0
    1.2785    2.6372    0.0696 N   0  0  0  0  0  0  0  0  0  0  0  0
    6.5162  -10.7755    2.2758 N   0  0  0  0  0  0  0  0  0  0  0  0
    5.8859   -8.4386    2.4171 N   0  0  0  0  0  0  0  0  0  0  0  0
    8.7162   -8.5921    0.2370 N   0  0  0  0  0  0  0  0  0  0  0  0
    7.3775   -7.0271    1.0997 N   0  0  0  0  0  0  0  0  0  0  0  0
    5.9515   -2.7978    1.4041 O   0  0  0  0  0  0  0  0  0  0  0  0
    7.5861   -4.1071   -0.3555 O   0  0  0  0  0  0  0  0  0  0  0  0
    0.1042   -3.1585   -0.8170 O   0  0  0  0  0  0  0  0  0  0  0  0
    1.4384   -4.6616    0.6355 O   0  0  0  0  0  0  0  0  0  0  0  0
    1.8338   -4.9395   -2.0240 O   0  0  0  0  0  0  0  0  0  0  0  0
    3.6116   -5.2729   -0.2429 O   0  0  0  0  0  0  0  0  0  0  0  0
    5.8244   -5.6761    2.3449 O   0  0  0  0  0  0  0  0  0  0  0  0
    2.3451   -2.8091   -0.6478 O   0  0  0  0  0  0  0  0  0  0  0  0
    2.3103   -4.4555   -0.6965 P   0  0  3  0  0  0  0  0  0  0  0  0
    1.0462   -0.5934   -2.0585 H   0  0  0  0  0  0  0  0  0  0  0  0
    4.2428   -4.3921    2.5869 H   0  0  0  0  0  0  0  0  0  0  0  0
    4.8025   -3.5610   -0.0205 H   0  0  0  0  0  0  0  0  0  0  0  0
    6.1168   -5.5177   -0.5915 H   0  0  0  0  0  0  0  0  0  0  0  0
    7.7705   -5.2013    1.9359 H   0  0  0  0  0  0  0  0  0  0  0  0
    0.7637   -0.2510    1.0004 H   0  0  0  0  0  0  0  0  0  0  0  0
    2.2098    0.1160    0.0715 H   0  0  0  0  0  0  0  0  0  0  0  0
   -1.4724    1.3841   -1.0744 H   0  0  0  0  0  0  0  0  0  0  0  0
    2.8396   -5.9451    1.6251 H   0  0  0  0  0  0  0  0  0  0  0  0
    4.1310   -6.8780    0.9828 H   0  0  0  0  0  0  0  0  0  0  0  0
    0.8076    4.7289   -0.1553 H   0  0  0  0  0  0  0  0  0  0  0  0
    4.9422  -10.0019    3.3755 H   0  0  0  0  0  0  0  0  0  0  0  0
    8.9869   -6.5356   -0.2601 H   0  0  0  0  0  0  0  0  0  0  0  0
   -1.1203   -1.6033   -1.8190 H   0  0  0  0  0  0  0  0  0  0  0  0
   -1.1877   -1.2630   -0.2573 H   0  0  0  0  0  0  0  0  0  0  0  0
    9.0855  -11.3624    0.3656 H   0  0  0  0  0  0  0  0  0  0  0  0
    8.0949  -12.4853    1.3056 H   0  0  0  0  0  0  0  0  0  0  0  0
    2.2057    2.7007    0.4631 H   0  0  0  0  0  0  0  0  0  0  0  0
    6.4832   -3.0576    2.1719 H   0  0  0  0  0  0  0  0  0  0  0  0
    7.7035   -3.3223    0.2130 H   0  0  0  0  0  0  0  0  0  0  0  0
    1.8198   -4.1255    1.3580 H   0  0  0  0  0  0  0  0  0  0  0  0
  1 39  1  0  0  0  0
  1 40  1  0  0  0  0
  2 41  1  0  0  0  0
  3 42  1  0  0  0  0
  3 43  1  0  0  0  0
  4 44  1  0  0  0  0
  5 45  1  0  0  0  0
  6 46  1  0  0  0  0
  7  1  1  0  0  0  0
  7  2  2  0  0  0  0
  8  1  1  0  0  0  0
  8 17  1  0  0  0  0
  8 34  1  6  0  0  0
  9  3  1  0  0  0  0
  9 35  1  1  0  0  0
 11  9  1  0  0  0  0
 11 25  1  0  0  0  0
 11 36  1  6  0  0  0
 12 11  1  0  0  0  0
 12 26  1  0  0  0  0
 12 37  1  6  0  0  0
 13 10  2  0  0  0  0
 14 10  1  0  0  0  0
 15 12  1  0  0  0  0
 15 38  1  1  0  0  0
 15 24  1  0  0  0  0
 16  8  1  0  0  0  0
 17 47  1  0  0  0  0
 17 48  1  0  0  0  0
 18 13  1  0  0  0  0
 18 49  1  0  0  0  0
 18 50  1  0  0  0  0
 19  2  1  0  0  0  0
 19  4  2  0  0  0  0
 20  4  1  0  0  0  0
 20  7  1  0  0  0  0
 20 51  1  0  0  0  0
 21  5  2  0  0  0  0
 21 13  1  0  0  0  0
 22  5  1  0  0  0  0
 22 14  2  0  0  0  0
 23  6  2  0  0  0  0
 23 10  1  0  0  0  0
 24  6  1  0  0  0  0
 24 14  1  0  0  0  0
 25 52  1  0  0  0  0
 26 53  1  0  0  0  0
 27 16  2  0  0  0  0
 28 54  1  0  0  0  0
 30  3  1  0  0  0  0
 31  9  1  0  0  0  0
 31 15  1  0  0  0  0
 32 16  1  0  0  0  0
 33 28  1  0  0  0  0
 33 29  2  0  0  0  0
 33 30  1  0  0  0  0
 33 32  1  0  0  0  0
M  END
>  <DRUGBANK_ID>
DB04201

>  <SECONDARY_ACCESSION_NUMBERS>
EXPT01691

>  <COMMON_NAME>
Histidyl-Adenosine Monophosphate

$$$$
