
 OpenBabel10282417133D

 36 35  0  0  1  0  0  0  0  0999 V2000
    0.9534   -2.4429    0.8374 C   0  0  0  0  0  0  0  0  0  0  0  0
    0.4491   -1.4637   -0.2064 C   0  0  2  0  0  0  0  0  0  0  0  0
    1.0760   -0.1515    0.0296 N   0  0  0  0  0  0  0  0  0  0  0  0
   -1.1163   -1.4567   -0.2229 C   0  0  1  0  0  0  0  0  0  0  0  0
   -1.6019   -0.4815   -1.3223 C   0  0  0  0  0  0  0  0  0  0  0  0
   -1.1005   -0.8438   -2.7313 C   0  0  0  0  0  0  0  0  0  0  0  0
   -1.5945   -2.2112   -3.2029 C   0  0  0  0  0  0  0  0  0  0  0  0
   -3.1273   -2.2903   -3.1966 C   0  0  0  0  0  0  0  0  0  0  0  0
   -3.7116   -1.3138   -4.2161 C   0  0  0  0  0  0  0  0  0  0  0  0
   -3.1966   -1.6164   -5.6115 C   0  0  0  0  0  0  0  0  0  0  0  0
   -4.1489   -1.9674   -6.4925 O   0  0  0  0  0  0  0  0  0  0  0  0
   -2.0226   -1.5652   -5.9464 O   0  0  0  0  0  0  0  0  0  0  0  0
   -1.6835   -2.8252   -0.3786 N   0  0  0  0  0  0  0  0  0  0  0  0
   -2.5037   -3.4448    0.5048 C   0  0  0  0  0  0  0  0  0  0  0  0
   -2.8475   -4.6834    0.1001 O   0  0  0  0  0  0  0  0  0  0  0  0
   -2.8917   -2.9734    1.5640 O   0  0  0  0  0  0  0  0  0  0  0  0
    0.7261   -2.0874    1.8453 H   0  0  0  0  0  0  0  0  0  0  0  0
    2.0315   -2.5925    0.7357 H   0  0  0  0  0  0  0  0  0  0  0  0
    0.4840   -3.4217    0.7028 H   0  0  0  0  0  0  0  0  0  0  0  0
    0.8250   -1.8244   -1.1704 H   0  0  0  0  0  0  0  0  0  0  0  0
    0.6181    0.3338    0.8018 H   0  0  0  0  0  0  0  0  0  0  0  0
    0.9764    0.4561   -0.7847 H   0  0  0  0  0  0  0  0  0  0  0  0
   -1.4797   -1.0746    0.7376 H   0  0  0  0  0  0  0  0  0  0  0  0
   -2.6944   -0.4017   -1.2999 H   0  0  0  0  0  0  0  0  0  0  0  0
   -1.2566    0.5353   -1.0923 H   0  0  0  0  0  0  0  0  0  0  0  0
   -1.4093   -0.0619   -3.4338 H   0  0  0  0  0  0  0  0  0  0  0  0
   -0.0078   -0.8214   -2.7814 H   0  0  0  0  0  0  0  0  0  0  0  0
   -1.1804   -2.4452   -4.1804 H   0  0  0  0  0  0  0  0  0  0  0  0
   -1.1395   -3.0203   -2.6457 H   0  0  0  0  0  0  0  0  0  0  0  0
   -3.4536   -3.3153   -3.3995 H   0  0  0  0  0  0  0  0  0  0  0  0
   -3.5405   -2.0585   -2.2049 H   0  0  0  0  0  0  0  0  0  0  0  0
   -4.8040   -1.3442   -4.1747 H   0  0  0  0  0  0  0  0  0  0  0  0
   -3.4436   -0.2790   -3.9729 H   0  0  0  0  0  0  0  0  0  0  0  0
   -5.0583   -1.9131   -6.1533 H   0  0  0  0  0  0  0  0  0  0  0  0
   -1.2160   -3.4556   -1.0045 H   0  0  0  0  0  0  0  0  0  0  0  0
   -2.5636   -4.9511   -0.7913 H   0  0  0  0  0  0  0  0  0  0  0  0
  1 17  1  0  0  0  0
  1 18  1  0  0  0  0
  1 19  1  0  0  0  0
  2  4  1  0  0  0  0
  2 20  1  6  0  0  0
  2  3  1  0  0  0  0
  2  1  1  0  0  0  0
  3 21  1  0  0  0  0
  3 22  1  0  0  0  0
  4  5  1  0  0  0  0
  4 13  1  0  0  0  0
  4 23  1  1  0  0  0
  5  6  1  0  0  0  0
  5 24  1  0  0  0  0
  5 25  1  0  0  0  0
  6  7  1  0  0  0  0
  6 26  1  0  0  0  0
  6 27  1  0  0  0  0
  7  8  1  0  0  0  0
  7 28  1  0  0  0  0
  7 29  1  0  0  0  0
  8  9  1  0  0  0  0
  8 30  1  0  0  0  0
  8 31  1  0  0  0  0
  9 10  1  0  0  0  0
  9 32  1  0  0  0  0
  9 33  1  0  0  0  0
 10 11  1  0  0  0  0
 10 12  2  0  0  0  0
 11 34  1  0  0  0  0
 13 14  1  0  0  0  0
 13 35  1  0  0  0  0
 14 15  1  0  0  0  0
 14 16  2  0  0  0  0
 15 36  1  0  0  0  0
M  END
>  <DRUGBANK_ID>
DB03624

>  <SECONDARY_ACCESSION_NUMBERS>
EXPT01273

>  <COMMON_NAME>
7-(Carboxyamino)-8-Amino-Nonanoic Acid

$$$$
