
 OpenBabel10282417213D

 31 31  0  0  0  0  0  0  0  0999 V2000
    0.7146    1.2684   -0.1659 C   0  0  0  0  0  0  0  0  0  0  0  0
    1.4428   -0.0235    0.2240 C   0  0  0  0  0  0  0  0  0  0  0  0
    0.7090   -1.2848   -0.3062 C   0  0  3  0  0  0  0  0  0  0  0  0
   -0.7320   -1.2619    0.2664 C   0  0  3  0  0  0  0  0  0  0  0  0
   -1.4759    0.0091   -0.1625 C   0  0  0  0  0  0  0  0  0  0  0  0
   -0.7439    1.2705    0.3193 C   0  0  3  0  0  0  0  0  0  0  0  0
    0.7878   -1.3828   -1.8674 C   0  0  0  0  0  0  0  0  0  0  0  0
    2.2394   -1.3742   -2.3616 C   0  0  0  0  0  0  0  0  0  0  0  0
    0.1090   -2.6229   -2.4565 C   0  0  0  0  0  0  0  0  0  0  0  0
   -0.8101    1.3831    1.8474 C   0  0  0  0  0  0  0  0  0  0  0  0
   -1.4695   -2.4305   -0.0539 O   0  0  0  0  0  0  0  0  0  0  0  0
    1.2502    2.1358    0.2373 H   0  0  0  0  0  0  0  0  0  0  0  0
    0.7343    1.3875   -1.2566 H   0  0  0  0  0  0  0  0  0  0  0  0
    2.4809    0.0194   -0.1165 H   0  0  0  0  0  0  0  0  0  0  0  0
    1.5212   -0.0820    1.3166 H   0  0  0  0  0  0  0  0  0  0  0  0
    1.2150   -2.1697    0.1040 H   0  0  0  0  0  0  0  0  0  0  0  0
   -0.6653   -1.2841    1.3596 H   0  0  0  0  0  0  0  0  0  0  0  0
   -1.5721    0.0325   -1.2562 H   0  0  0  0  0  0  0  0  0  0  0  0
   -2.5080   -0.0086    0.2072 H   0  0  0  0  0  0  0  0  0  0  0  0
   -1.2497    2.1476   -0.1033 H   0  0  0  0  0  0  0  0  0  0  0  0
    0.2948   -0.5118   -2.3123 H   0  0  0  0  0  0  0  0  0  0  0  0
    2.7966   -2.2206   -1.9474 H   0  0  0  0  0  0  0  0  0  0  0  0
    2.2714   -1.4412   -3.4537 H   0  0  0  0  0  0  0  0  0  0  0  0
    2.7603   -0.4509   -2.0983 H   0  0  0  0  0  0  0  0  0  0  0  0
   -0.9771   -2.5799   -2.3714 H   0  0  0  0  0  0  0  0  0  0  0  0
    0.3074   -2.6959   -3.5309 H   0  0  0  0  0  0  0  0  0  0  0  0
    0.4694   -3.5387   -1.9780 H   0  0  0  0  0  0  0  0  0  0  0  0
   -0.3519    2.3160    2.1870 H   0  0  0  0  0  0  0  0  0  0  0  0
   -1.8484    1.3582    2.1908 H   0  0  0  0  0  0  0  0  0  0  0  0
   -0.2845    0.5680    2.3537 H   0  0  0  0  0  0  0  0  0  0  0  0
   -2.0836   -2.2191   -0.7788 H   0  0  0  0  0  0  0  0  0  0  0  0
  1  2  1  0  0  0  0
  1  6  1  0  0  0  0
  1 12  1  0  0  0  0
  1 13  1  0  0  0  0
  2  3  1  0  0  0  0
  2 14  1  0  0  0  0
  2 15  1  0  0  0  0
  3  7  1  0  0  0  0
  3  4  1  0  0  0  0
  3 16  1  0  0  0  0
  4  5  1  0  0  0  0
  4 11  1  0  0  0  0
  4 17  1  0  0  0  0
  5  6  1  0  0  0  0
  5 18  1  0  0  0  0
  5 19  1  0  0  0  0
  6 10  1  0  0  0  0
  6 20  1  0  0  0  0
  7  8  1  0  0  0  0
  7  9  1  0  0  0  0
  7 21  1  0  0  0  0
  8 22  1  0  0  0  0
  8 23  1  0  0  0  0
  8 24  1  0  0  0  0
  9 25  1  0  0  0  0
  9 26  1  0  0  0  0
  9 27  1  0  0  0  0
 10 28  1  0  0  0  0
 10 29  1  0  0  0  0
 10 30  1  0  0  0  0
 11 31  1  0  0  0  0
M  END
>  <DRUGBANK_ID>
DB14123

>  <COMMON_NAME>
Menthol

>  <CAS_NUMBER>
1490-04-6

>  <UNII>
L7T10EIP3A

>  <SYNONYMS>
(+-)-Menthol; (1R,2S,5R)-Menthol; DL-menthol; Hexahydrothymol; Menthol natural; Menthol racemic; Menthol racemique; p-Menthan-3-ol; Racementhol; Racementholum; Racementol

$$$$
