995
 OpenBabel10282417163D

 66 66  0  0  0  0  0  0  0  0999 V2000
    1.7271   -5.4179   -3.4933 C   0  0  0  0  0  0  0  0  0  0  0  0
    0.4251   -5.9925   -2.9370 C   0  0  2  0  0  0  0  0  0  0  0  0
    2.3141   -4.2431   -2.9129 C   0  0  0  0  0  0  0  0  0  0  0  0
    2.3516   -6.0545   -4.3652 O   0  0  0  0  0  0  0  0  0  0  0  0
    3.2260   -4.4577   -1.4863 S   0  0  0  0  0  0  0  0  0  0  0  0
    3.7654   -2.8454   -1.6199 C   0  0  0  0  0  0  0  0  0  0  0  0
    3.2503   -2.2633   -2.7601 C   0  0  0  0  0  0  0  0  0  0  0  0
    2.4460   -3.0873   -3.5401 N   0  0  0  0  0  0  0  0  0  0  0  0
   -0.4646   -6.7379   -3.9519 C   0  0  0  0  0  0  0  0  0  0  0  0
   -0.9740   -5.9132   -5.1447 C   0  0  0  0  0  0  0  0  0  0  0  0
   -0.3598   -5.0826   -2.1156 N   0  0  0  0  0  0  0  0  0  0  0  0
   -0.3903   -5.2728   -0.7478 C   0  0  0  0  0  0  0  0  0  0  0  0
   -1.2429   -4.2860    0.0604 C   0  0  2  0  0  0  0  0  0  0  0  0
   -0.3486   -3.2427    0.7579 C   0  0  0  0  0  0  0  0  0  0  0  0
   -1.1966   -2.1236    1.3703 C   0  0  0  0  0  0  0  0  0  0  0  0
    0.5219   -3.8728    1.8512 C   0  0  0  0  0  0  0  0  0  0  0  0
   -2.0323   -5.0367    1.0323 N   0  0  0  0  0  0  0  0  0  0  0  0
   -3.3959   -5.0630    0.9577 C   0  0  0  0  0  0  0  0  0  0  0  0
   -4.1057   -5.8064    2.0783 C   0  0  0  0  0  0  0  0  0  0  0  0
   -5.0360   -4.8879    2.8827 C   0  0  0  0  0  0  0  0  0  0  0  0
   -6.1090   -4.1889    2.0260 C   0  0  0  0  0  0  0  0  0  0  0  0
   -6.9918   -5.2049    1.3012 C   0  0  0  0  0  0  0  0  0  0  0  0
   -6.9630   -3.2456    2.8637 C   0  0  0  0  0  0  0  0  0  0  0  0
   -3.9877   -4.5086    0.0354 O   0  0  0  0  0  0  0  0  0  0  0  0
    0.2684   -6.1648   -0.2133 O   0  0  0  0  0  0  0  0  0  0  0  0
    0.1083   -5.3577   -6.0777 C   0  0  0  0  0  0  0  0  0  0  0  0
    1.1156   -6.3653   -6.4662 N   0  0  0  0  0  0  0  0  0  0  0  0
    2.2232   -6.0107   -7.3073 C   0  0  0  0  0  0  0  0  0  0  0  0
    3.0768   -5.0872   -6.6589 N   0  0  0  0  0  0  0  0  0  0  0  0
    3.0334   -7.1426   -7.5958 N   0  0  0  0  0  0  0  0  0  0  0  0
    0.8190   -6.7824   -2.2846 H   0  0  0  0  0  0  0  0  0  0  0  0
   -1.9087   -3.7668   -0.6405 H   0  0  0  0  0  0  0  0  0  0  0  0
    4.4211   -2.4295   -0.8710 H   0  0  0  0  0  0  0  0  0  0  0  0
    3.4495   -1.2408   -3.0667 H   0  0  0  0  0  0  0  0  0  0  0  0
    0.0633   -7.6267   -4.3194 H   0  0  0  0  0  0  0  0  0  0  0  0
   -1.3383   -7.1381   -3.4163 H   0  0  0  0  0  0  0  0  0  0  0  0
   -1.6586   -6.5392   -5.7315 H   0  0  0  0  0  0  0  0  0  0  0  0
   -1.5728   -5.0770   -4.7633 H   0  0  0  0  0  0  0  0  0  0  0  0
   -0.9734   -4.3917   -2.5398 H   0  0  0  0  0  0  0  0  0  0  0  0
    0.3151   -2.7920    0.0080 H   0  0  0  0  0  0  0  0  0  0  0  0
   -1.8822   -2.5119    2.1314 H   0  0  0  0  0  0  0  0  0  0  0  0
   -0.5570   -1.3755    1.8497 H   0  0  0  0  0  0  0  0  0  0  0  0
   -1.7926   -1.6162    0.6047 H   0  0  0  0  0  0  0  0  0  0  0  0
    1.1686   -4.6556    1.4476 H   0  0  0  0  0  0  0  0  0  0  0  0
    1.1686   -3.1255    2.3167 H   0  0  0  0  0  0  0  0  0  0  0  0
   -0.0916   -4.3180    2.6418 H   0  0  0  0  0  0  0  0  0  0  0  0
   -1.5469   -5.6361    1.6906 H   0  0  0  0  0  0  0  0  0  0  0  0
   -4.6650   -6.6302    1.6239 H   0  0  0  0  0  0  0  0  0  0  0  0
   -3.3852   -6.2762    2.7577 H   0  0  0  0  0  0  0  0  0  0  0  0
   -5.5313   -5.4821    3.6632 H   0  0  0  0  0  0  0  0  0  0  0  0
   -4.4339   -4.1330    3.4052 H   0  0  0  0  0  0  0  0  0  0  0  0
   -5.6225   -3.5503    1.2835 H   0  0  0  0  0  0  0  0  0  0  0  0
   -7.5352   -5.8274    2.0194 H   0  0  0  0  0  0  0  0  0  0  0  0
   -7.7170   -4.7001    0.6573 H   0  0  0  0  0  0  0  0  0  0  0  0
   -6.4087   -5.8687    0.6559 H   0  0  0  0  0  0  0  0  0  0  0  0
   -6.3377   -2.4916    3.3532 H   0  0  0  0  0  0  0  0  0  0  0  0
   -7.6765   -2.7180    2.2209 H   0  0  0  0  0  0  0  0  0  0  0  0
   -7.5226   -3.7882    3.6301 H   0  0  0  0  0  0  0  0  0  0  0  0
   -0.3280   -4.9212   -6.9794 H   0  0  0  0  0  0  0  0  0  0  0  0
    0.6179   -4.5421   -5.5589 H   0  0  0  0  0  0  0  0  0  0  0  0
    1.2431   -7.1843   -5.8864 H   0  0  0  0  0  0  0  0  0  0  0  0
    1.8390   -5.5794   -8.2317 H   0  0  0  0  0  0  0  0  0  0  0  0
    4.0780   -5.0600   -6.8083 H   0  0  0  0  0  0  0  0  0  0  0  0
    2.8042   -4.6843   -5.7680 H   0  0  0  0  0  0  0  0  0  0  0  0
    3.6697   -7.1232   -8.3859 H   0  0  0  0  0  0  0  0  0  0  0  0
    3.1015   -7.9709   -7.0131 H   0  0  0  0  0  0  0  0  0  0  0  0
  1  3  1  0  0  0  0
  1  4  2  0  0  0  0
  2 11  1  0  0  0  0
  2 31  1  1  0  0  0
  2  9  1  0  0  0  0
  2  1  1  0  0  0  0
  3  5  1  0  0  0  0
  3  8  2  0  0  0  0
  5  6  1  0  0  0  0
  6  7  2  0  0  0  0
  6 33  1  0  0  0  0
  7  8  1  0  0  0  0
  7 34  1  0  0  0  0
  9 10  1  0  0  0  0
  9 35  1  0  0  0  0
  9 36  1  0  0  0  0
 10 26  1  0  0  0  0
 10 37  1  0  0  0  0
 10 38  1  0  0  0  0
 11 12  1  0  0  0  0
 11 39  1  0  0  0  0
 12 25  2  0  0  0  0
 13 17  1  0  0  0  0
 13 32  1  6  0  0  0
 13 14  1  0  0  0  0
 13 12  1  0  0  0  0
 14 15  1  0  0  0  0
 14 16  1  0  0  0  0
 14 40  1  0  0  0  0
 15 41  1  0  0  0  0
 15 42  1  0  0  0  0
 15 43  1  0  0  0  0
 16 44  1  0  0  0  0
 16 45  1  0  0  0  0
 16 46  1  0  0  0  0
 17 18  1  0  0  0  0
 17 47  1  0  0  0  0
 18 19  1  0  0  0  0
 18 24  2  0  0  0  0
 19 20  1  0  0  0  0
 19 48  1  0  0  0  0
 19 49  1  0  0  0  0
 20 21  1  0  0  0  0
 20 50  1  0  0  0  0
 20 51  1  0  0  0  0
 21 22  1  0  0  0  0
 21 23  1  0  0  0  0
 21 52  1  0  0  0  0
 22 53  1  0  0  0  0
 22 54  1  0  0  0  0
 22 55  1  0  0  0  0
 23 56  1  0  0  0  0
 23 57  1  0  0  0  0
 23 58  1  0  0  0  0
 26 27  1  0  0  0  0
 26 59  1  0  0  0  0
 26 60  1  0  0  0  0
 27 28  1  0  0  0  0
 27 61  1  0  0  0  0
 28 29  1  0  0  0  0
 28 30  1  0  0  0  0
 28 62  1  0  0  0  0
 29 63  1  0  0  0  0
 29 64  1  0  0  0  0
 30 65  1  0  0  0  0
 30 66  1  0  0  0  0
M  END
>  <DRUGBANK_ID>
DB07299

>  <COMMON_NAME>
4-METHYL-PENTANOIC ACID {1-[4-GUANIDINO-1-(THIAZOLE-2-CARBONYL)-BUTYLCARBAMOYL]-2-METHYL-PROPYL}-AMIDE

$$$$
