ChEBI
 OpenBabel10282417213D

 34 33  0  0  1  0  0  0  0  0999 V2000
   -2.0288   -3.6873    1.1999 C   0  0  0  0  0  0  0  0  0  0  0  0
   -1.5626   -2.3558    0.5465 C   0  0  0  0  0  0  0  0  0  0  0  0
   -0.1705   -1.7691    0.9022 C   0  0  2  0  0  0  0  0  0  0  0  0
    0.6551   -1.3082   -0.2362 C   0  0  1  0  0  0  0  0  0  0  0  0
    2.0138   -0.8472    0.4087 C   0  0  1  0  0  0  0  0  0  0  0  0
    3.1792   -1.7811    0.1105 C   0  0  0  0  0  0  0  0  0  0  0  0
    3.4254   -2.6607    1.1872 O   0  0  0  0  0  0  0  0  0  0  0  0
   -1.1617   -4.3107    2.1300 O   0  0  0  0  0  0  0  0  0  0  0  0
   -2.3964   -1.6688   -0.0863 O   0  0  0  0  0  0  0  0  0  0  0  0
    0.7224   -2.6075    1.5989 O   0  0  0  0  0  0  0  0  0  0  0  0
   -0.3395   -0.8645    1.5137 H   0  0  0  0  0  0  0  0  0  0  0  0
    0.1401   -0.5041   -0.7624 H   0  0  0  0  0  0  0  0  0  0  0  0
    0.7165   -2.4883   -1.0468 O   0  0  0  0  0  0  0  0  0  0  0  0
    1.9142   -0.7539    1.5016 H   0  0  0  0  0  0  0  0  0  0  0  0
    2.3409    0.4798   -0.0042 O   0  0  0  0  0  0  0  0  0  0  0  0
   -0.7943   -3.3559    3.5251 P   0  0  0  0  0  0  0  0  0  0  0  0
    0.6589   -3.7861    3.5667 O   0  0  0  0  0  0  0  0  0  0  0  0
   -1.2508   -1.9354    2.9383 O   0  0  0  0  0  0  0  0  0  0  0  0
   -0.4269   -2.4012    4.9202 O   0  0  0  0  0  0  0  0  0  0  0  0
    4.2017   -2.3076    2.5349 P   0  0  0  0  0  0  0  0  0  0  0  0
    4.3627   -3.3987    3.5297 O   0  0  0  0  0  0  0  0  0  0  0  0
    5.5817   -1.7975    1.9090 O   0  0  0  0  0  0  0  0  0  0  0  0
    3.7194   -0.8838    3.0717 O   0  0  0  0  0  0  0  0  0  0  0  0
   -2.2792   -4.4008    0.4099 H   0  0  0  0  0  0  0  0  0  0  0  0
   -2.9655   -3.4820    1.7405 H   0  0  0  0  0  0  0  0  0  0  0  0
    2.9702   -2.4218   -0.7493 H   0  0  0  0  0  0  0  0  0  0  0  0
    4.0741   -1.2210   -0.1694 H   0  0  0  0  0  0  0  0  0  0  0  0
    0.6390   -3.5428    1.3410 H   0  0  0  0  0  0  0  0  0  0  0  0
    1.2105   -2.2728   -1.8462 H   0  0  0  0  0  0  0  0  0  0  0  0
    3.1002    0.7337    0.5572 H   0  0  0  0  0  0  0  0  0  0  0  0
   -2.1770   -1.7038    2.7468 H   0  0  0  0  0  0  0  0  0  0  0  0
    0.5487   -2.3217    4.8440 H   0  0  0  0  0  0  0  0  0  0  0  0
    5.6421   -2.0967    0.9876 H   0  0  0  0  0  0  0  0  0  0  0  0
    4.4279   -0.5541    3.6625 H   0  0  0  0  0  0  0  0  0  0  0  0
  1 24  1  0  0  0  0
  1 25  1  0  0  0  0
  2  1  1  0  0  0  0
  2  9  2  0  0  0  0
  3 10  1  0  0  0  0
  3 11  1  1  0  0  0
  3  4  1  0  0  0  0
  3  2  1  0  0  0  0
  4 13  1  0  0  0  0
  4 12  1  6  0  0  0
  4  5  1  0  0  0  0
  5 15  1  0  0  0  0
  5 14  1  1  0  0  0
  5  6  1  0  0  0  0
  6 26  1  0  0  0  0
  6 27  1  0  0  0  0
  7  6  1  0  0  0  0
  7 20  1  0  0  0  0
  8  1  1  0  0  0  0
  8 16  1  0  0  0  0
 10 28  1  0  0  0  0
 13 29  1  0  0  0  0
 15 30  1  0  0  0  0
 17 16  2  0  0  0  0
 18 16  1  0  0  0  0
 18 31  1  0  0  0  0
 19 16  1  0  0  0  0
 19 32  1  0  0  0  0
 21 20  2  0  0  0  0
 22 20  1  0  0  0  0
 22 33  1  0  0  0  0
 23 20  1  0  0  0  0
 23 34  1  0  0  0  0
M  END
>  <DRUGBANK_ID>
DB13863

>  <COMMON_NAME>
Fosfructose

>  <CAS_NUMBER>
488-69-7

>  <UNII>
M7522JYX1H

>  <SYNONYMS>
1,6-di-O-phosphono-D-fructose; D-fructose 1,6-bisphosphate; Fosfructose; Fructose 1,6-bisphosphate; Fructose 1,6-diphosphate; Fructose-1,6-diphosphate; Harden-young ester; keto-D-fructose 1,6-bisphosphate

$$$$
