
 OpenBabel10282417123D

 40 40  0  0  1  0  0  0  0  0999 V2000
   -1.9336   -7.6057   -0.2949 C   0  0  0  0  0  0  0  0  0  0  0  0
   -1.0753   -7.8354    0.9655 C   0  0  0  0  0  0  0  0  0  0  0  0
   -1.6987   -8.9981    1.7359 C   0  0  0  0  0  0  0  0  0  0  0  0
    0.3703   -8.2521    0.5863 C   0  0  0  0  0  0  0  0  0  0  0  0
   -1.0551   -6.5218    1.6995 C   0  0  0  0  0  0  0  0  0  0  0  0
   -0.6306   -5.2884    1.2452 C   0  0  0  0  0  0  0  0  0  0  0  0
    0.0421   -5.0334   -0.0547 C   0  0  0  0  0  0  0  0  0  0  0  0
   -0.3423   -3.7096   -0.7295 C   0  0  2  0  0  0  0  0  0  0  0  0
   -1.0913   -2.7175    0.0752 N   0  0  0  0  0  0  0  0  0  0  0  0
   -1.2285   -4.1241   -1.8718 C   0  0  0  0  0  0  0  0  0  0  0  0
   -0.6681   -3.8480   -3.0746 O   0  0  0  0  0  0  0  0  0  0  0  0
   -2.3066   -4.6223   -1.7194 O   0  0  0  0  0  0  0  0  0  0  0  0
   -0.7065   -4.4547    2.3861 C   0  0  0  0  0  0  0  0  0  0  0  0
    0.0104   -3.3284    2.6694 O   0  0  0  0  0  0  0  0  0  0  0  0
    1.0026   -2.8451    1.7512 C   0  0  0  0  0  0  0  0  0  0  0  0
    2.4100   -3.9669    1.4198 P   0  0  0  0  0  0  0  0  0  0  0  0
    3.0513   -3.1962    2.7300 O   0  0  0  0  0  0  0  0  0  0  0  0
    1.8734   -5.2356    2.2903 O   0  0  0  0  0  0  0  0  0  0  0  0
    3.6007   -4.9160    1.1394 O   0  0  0  0  0  0  0  0  0  0  0  0
   -1.1637   -5.1251    3.4541 N   0  0  0  0  0  0  0  0  0  0  0  0
   -1.4182   -6.4271    3.0080 O   0  0  0  0  0  0  0  0  0  0  0  0
   -1.9750   -8.4811   -0.9406 H   0  0  0  0  0  0  0  0  0  0  0  0
   -1.5522   -6.8150   -0.9293 H   0  0  0  0  0  0  0  0  0  0  0  0
   -2.9446   -7.2813   -0.0223 H   0  0  0  0  0  0  0  0  0  0  0  0
   -1.7332   -9.8885    1.0927 H   0  0  0  0  0  0  0  0  0  0  0  0
   -1.1165   -9.2594    2.6253 H   0  0  0  0  0  0  0  0  0  0  0  0
   -2.7233   -8.7737    2.0456 H   0  0  0  0  0  0  0  0  0  0  0  0
    0.9345   -7.4814    0.0559 H   0  0  0  0  0  0  0  0  0  0  0  0
    0.9673   -8.4899    1.4758 H   0  0  0  0  0  0  0  0  0  0  0  0
    0.3654   -9.1272   -0.0711 H   0  0  0  0  0  0  0  0  0  0  0  0
    1.1186   -5.1267    0.0609 H   0  0  0  0  0  0  0  0  0  0  0  0
   -0.0390   -5.8558   -0.7566 H   0  0  0  0  0  0  0  0  0  0  0  0
    0.5967   -3.2823   -1.1182 H   0  0  0  0  0  0  0  0  0  0  0  0
   -1.9203   -2.3579   -0.3770 H   0  0  0  0  0  0  0  0  0  0  0  0
   -0.5878   -1.9032    0.4237 H   0  0  0  0  0  0  0  0  0  0  0  0
    0.2013   -3.4091   -3.0421 H   0  0  0  0  0  0  0  0  0  0  0  0
    0.8832   -2.7015    0.7109 H   0  0  0  0  0  0  0  0  0  0  0  0
    1.3199   -1.8508    2.0912 H   0  0  0  0  0  0  0  0  0  0  0  0
    4.0129   -3.0759    2.7347 H   0  0  0  0  0  0  0  0  0  0  0  0
    1.0462   -5.2204    2.7697 H   0  0  0  0  0  0  0  0  0  0  0  0
  1  2  1  0  0  0  0
  1 22  1  0  0  0  0
  1 23  1  0  0  0  0
  1 24  1  0  0  0  0
  2  3  1  0  0  0  0
  2  4  1  0  0  0  0
  2  5  1  0  0  0  0
  3 25  1  0  0  0  0
  3 26  1  0  0  0  0
  3 27  1  0  0  0  0
  4 28  1  0  0  0  0
  4 29  1  0  0  0  0
  4 30  1  0  0  0  0
  5  6  2  0  0  0  0
  5 21  1  0  0  0  0
  6  7  1  0  0  0  0
  6 13  1  0  0  0  0
  7 31  1  0  0  0  0
  7 32  1  0  0  0  0
  8 10  1  0  0  0  0
  8 33  1  6  0  0  0
  8  9  1  0  0  0  0
  8  7  1  0  0  0  0
  9 34  1  0  0  0  0
  9 35  1  0  0  0  0
 10 11  1  0  0  0  0
 10 12  2  0  0  0  0
 11 36  1  0  0  0  0
 13 14  1  0  0  0  0
 13 20  2  0  0  0  0
 14 15  1  0  0  0  0
 15 16  1  0  0  0  0
 15 37  1  0  0  0  0
 15 38  1  0  0  0  0
 16 17  1  0  0  0  0
 16 18  1  0  0  0  0
 16 19  2  0  0  0  0
 17 39  1  0  0  0  0
 18 40  1  0  0  0  0
 20 21  1  0  0  0  0
M  END
>  <DRUGBANK_ID>
DB02347

>  <SECONDARY_ACCESSION_NUMBERS>
EXPT00578

>  <COMMON_NAME>
2-Amino-3-(5-Tert-Butyl-3-(Phosphonomethoxy)-4-Isoxazolyl)Propionic Acid

$$$$
