
 OpenBabel10282417193D

 58 62  0  0  1  0  0  0  0  0999 V2000
    1.0441   -0.2345    0.0625 C   0  0  0  0  0  0  0  0  0  0  0  0
    0.4053   -0.9406   -1.0779 N   0  0  0  0  0  0  0  0  0  0  0  0
   -1.0634   -1.1631   -0.8869 C   0  0  0  0  0  0  0  0  0  0  0  0
   -1.8583   -0.5453   -2.0593 C   0  0  1  0  0  0  0  0  0  0  0  0
   -3.0547    0.3449   -1.5198 C   0  0  0  0  0  0  0  0  0  0  0  0
   -2.4828    1.7469   -1.2328 C   0  0  2  0  0  0  0  0  0  0  0  0
   -1.0686    1.4092   -1.5343 C   0  0  0  0  0  0  0  0  0  0  0  0
   -0.8248    0.3946   -2.5839 C   0  0  1  0  0  0  0  0  0  0  0  0
    0.5594   -0.2108   -2.3488 C   0  0  0  0  0  0  0  0  0  0  0  0
   -2.2953    2.6287    0.0785 C   0  0  0  0  0  0  0  0  0  0  0  0
   -1.4403    3.9096   -0.0447 O   0  0  0  0  0  0  0  0  0  0  0  0
   -0.0847    3.9935   -0.3813 C   0  0  0  0  0  0  0  0  0  0  0  0
    0.7862    4.5256    0.5845 C   0  0  0  0  0  0  0  0  0  0  0  0
    2.1802    4.5736    0.3802 C   0  0  0  0  0  0  0  0  0  0  0  0
    2.7452    3.9732   -0.7349 C   0  0  0  0  0  0  0  0  0  0  0  0
    1.8829    3.4932   -1.7318 C   0  0  0  0  0  0  0  0  0  0  0  0
    0.5244    3.8138   -1.6455 C   0  0  0  0  0  0  0  0  0  0  0  0
   -0.0479    3.7703   -2.9183 O   0  0  0  0  0  0  0  0  0  0  0  0
   -1.4598    3.7781   -2.9776 C   0  0  0  0  0  0  0  0  0  0  0  0
    4.1341    3.9952   -0.9032 C   0  0  0  0  0  0  0  0  0  0  0  0
    4.8999    4.6632   -0.0094 N   0  0  0  0  0  0  0  0  0  0  0  0
    4.2699    5.2332    1.0175 C   0  0  0  0  0  0  0  0  0  0  0  0
    2.9586    5.2176    1.2797 N   0  0  0  0  0  0  0  0  0  0  0  0
    4.7697    3.4267   -2.0267 N   0  0  0  0  0  0  0  0  0  0  0  0
    6.1498    3.4313   -2.2657 C   0  0  0  0  0  0  0  0  0  0  0  0
    6.6692    4.1005   -3.3767 C   0  0  0  0  0  0  0  0  0  0  0  0
    8.0336    4.3837   -3.4225 C   0  0  0  0  0  0  0  0  0  0  0  0
    8.9100    3.7567   -2.5298 C   0  0  0  0  0  0  0  0  0  0  0  0
    8.4095    2.9471   -1.5088 C   0  0  0  0  0  0  0  0  0  0  0  0
    7.0334    2.8633   -1.3370 C   0  0  0  0  0  0  0  0  0  0  0  0
    6.5268    2.1959   -0.2859 F   0  0  0  0  0  0  0  0  0  0  0  0
    9.4293    2.0314   -0.4593 Cl  0  0  0  0  0  0  0  0  0  0  0  0
   10.6025    3.9830   -2.7833 Cl  0  0  0  0  0  0  0  0  0  0  0  0
    0.7235   -0.6834    1.0068 H   0  0  0  0  0  0  0  0  0  0  0  0
    0.8637    0.8436    0.1817 H   0  0  0  0  0  0  0  0  0  0  0  0
    2.1332   -0.2886   -0.0043 H   0  0  0  0  0  0  0  0  0  0  0  0
   -1.3052   -2.2191   -0.8227 H   0  0  0  0  0  0  0  0  0  0  0  0
   -1.4006   -0.6882    0.0439 H   0  0  0  0  0  0  0  0  0  0  0  0
   -2.1432   -1.2508   -2.8463 H   0  0  0  0  0  0  0  0  0  0  0  0
   -3.5767   -0.0887   -0.6706 H   0  0  0  0  0  0  0  0  0  0  0  0
   -3.7758    0.4454   -2.3515 H   0  0  0  0  0  0  0  0  0  0  0  0
   -3.1047    2.3583   -1.8965 H   0  0  0  0  0  0  0  0  0  0  0  0
   -0.6783    1.1756   -0.5615 H   0  0  0  0  0  0  0  0  0  0  0  0
   -0.4047    2.1281   -1.8158 H   0  0  0  0  0  0  0  0  0  0  0  0
   -0.9362    0.7868   -3.6045 H   0  0  0  0  0  0  0  0  0  0  0  0
    1.3704    0.5371   -2.3296 H   0  0  0  0  0  0  0  0  0  0  0  0
    0.8151   -0.9083   -3.1532 H   0  0  0  0  0  0  0  0  0  0  0  0
   -3.2867    3.0047    0.3693 H   0  0  0  0  0  0  0  0  0  0  0  0
   -1.9205    2.0453    0.9269 H   0  0  0  0  0  0  0  0  0  0  0  0
    0.3731    4.9905    1.4716 H   0  0  0  0  0  0  0  0  0  0  0  0
    2.2564    2.9603   -2.5943 H   0  0  0  0  0  0  0  0  0  0  0  0
   -1.8239    3.6069   -2.0060 H   0  0  0  0  0  0  0  0  0  0  0  0
   -1.9284    4.7373   -3.1240 H   0  0  0  0  0  0  0  0  0  0  0  0
   -1.8567    2.9501   -3.5895 H   0  0  0  0  0  0  0  0  0  0  0  0
    4.8982    5.7716    1.7278 H   0  0  0  0  0  0  0  0  0  0  0  0
    4.2052    3.0443   -2.7705 H   0  0  0  0  0  0  0  0  0  0  0  0
    6.0177    4.4748   -4.1633 H   0  0  0  0  0  0  0  0  0  0  0  0
    8.4064    5.1045   -4.1475 H   0  0  0  0  0  0  0  0  0  0  0  0
  1  2  1  0  0  0  0
  1 34  1  0  0  0  0
  1 35  1  0  0  0  0
  1 36  1  0  0  0  0
  2  3  1  0  0  0  0
  2  9  1  0  0  0  0
  3 37  1  0  0  0  0
  3 38  1  0  0  0  0
  4  3  1  0  0  0  0
  4  5  1  0  0  0  0
  4  8  1  0  0  0  0
  4 39  1  6  0  0  0
  5  6  1  0  0  0  0
  5 40  1  0  0  0  0
  5 41  1  0  0  0  0
  6  7  1  0  0  0  0
  6 10  1  0  0  0  0
  6 42  1  6  0  0  0
  7 43  1  0  0  0  0
  7 44  1  0  0  0  0
  8  7  1  0  0  0  0
  8  9  1  0  0  0  0
  8 45  1  6  0  0  0
  9 46  1  0  0  0  0
  9 47  1  0  0  0  0
 10 11  1  0  0  0  0
 10 48  1  0  0  0  0
 10 49  1  0  0  0  0
 11 12  1  0  0  0  0
 12 13  1  0  0  0  0
 12 17  2  0  0  0  0
 13 14  2  0  0  0  0
 13 50  1  0  0  0  0
 14 15  1  0  0  0  0
 14 23  1  0  0  0  0
 15 16  2  0  0  0  0
 15 20  1  0  0  0  0
 16 17  1  0  0  0  0
 16 51  1  0  0  0  0
 17 18  1  0  0  0  0
 18 19  1  0  0  0  0
 19 52  1  0  0  0  0
 19 53  1  0  0  0  0
 19 54  1  0  0  0  0
 20 21  2  0  0  0  0
 20 24  1  0  0  0  0
 21 22  1  0  0  0  0
 22 23  2  0  0  0  0
 22 55  1  0  0  0  0
 24 25  1  0  0  0  0
 24 56  1  0  0  0  0
 25 26  2  0  0  0  0
 25 30  1  0  0  0  0
 26 27  1  0  0  0  0
 26 57  1  0  0  0  0
 27 28  2  0  0  0  0
 27 58  1  0  0  0  0
 28 29  1  0  0  0  0
 28 33  1  0  0  0  0
 29 30  2  0  0  0  0
 29 32  1  0  0  0  0
 30 31  1  0  0  0  0
M  END
>  <DRUGBANK_ID>
DB11973

>  <SECONDARY_ACCESSION_NUMBERS>
DB05007

>  <COMMON_NAME>
Tesevatinib

>  <CAS_NUMBER>
781613-23-8

>  <UNII>
F6XM2TN5A1

>  <SYNONYMS>
Tesevatinib

$$$$
