894
 OpenBabel10282417163D

 52 54  0  0  0  0  0  0  0  0999 V2000
    2.3701    0.2029   -0.6584 Cl  0  0  0  0  0  0  0  0  0  0  0  0
    0.1951    0.1451   -0.4750 C   0  0  0  0  0  0  0  0  0  0  0  0
   -0.6546    1.3601   -1.2627 C   0  0  0  0  0  0  0  0  0  0  0  0
   -2.4416    1.4218   -0.7330 C   0  0  0  0  0  0  0  0  0  0  0  0
   -2.9183    0.3406    0.4593 C   0  0  0  0  0  0  0  0  0  0  0  0
   -3.9858   -0.6957    0.2023 C   0  0  0  0  0  0  0  0  0  0  0  0
   -2.7649   -3.0342   -1.2579 S   0  0  0  0  0  0  0  0  0  0  0  0
   -2.8463   -3.7162    0.0202 O   0  0  0  0  0  0  0  0  0  0  0  0
   -3.0684   -3.7669   -2.4692 O   0  0  0  0  0  0  0  0  0  0  0  0
   -1.0454   -2.6346   -1.4769 N   0  0  0  0  0  0  0  0  0  0  0  0
   -0.5145   -2.0795   -0.2564 C   0  0  1  0  0  0  0  0  0  0  0  0
    0.9225   -1.5581    0.3165 C   0  0  0  0  0  0  0  0  0  0  0  0
    0.7287    0.1284    1.4241 C   0  0  0  0  0  0  0  0  0  0  0  0
   -1.4615   -0.4577   -0.6248 C   0  0  0  0  0  0  0  0  0  0  0  0
   -2.0304   -0.4145   -1.7537 O   0  0  0  0  0  0  0  0  0  0  0  0
   -0.8665    0.9369    0.6977 N   0  0  0  0  0  0  0  0  0  0  0  0
   -1.4624    2.4433    1.1236 C   0  0  1  0  0  0  0  0  0  0  0  0
   -1.4544    2.5568    2.5928 C   0  0  0  0  0  0  0  0  0  0  0  0
   -0.8114    3.6345    0.2646 C   0  0  0  0  0  0  0  0  0  0  0  0
   -1.4671    4.2226   -0.6151 O   0  0  0  0  0  0  0  0  0  0  0  0
    0.5973    3.7732    0.2768 N   0  0  0  0  0  0  0  0  0  0  0  0
    1.7375    2.8482    0.2669 C   0  0  0  0  0  0  0  0  0  0  0  0
    2.3641    2.6873    1.6477 C   0  0  0  0  0  0  0  0  0  0  0  0
    2.9232    3.9585    1.9121 O   0  0  0  0  0  0  0  0  0  0  0  0
    1.8757    4.9594    1.7984 C   0  0  0  0  0  0  0  0  0  0  0  0
    1.1581    5.0429    0.4336 C   0  0  0  0  0  0  0  0  0  0  0  0
   -1.2207   -0.8128    1.3674 S   0  0  0  0  0  0  0  0  0  0  0  0
   -3.9660   -1.5563   -1.1268 C   0  0  0  0  0  0  0  0  0  0  0  0
   -0.8749   -2.7902    0.5028 H   0  0  0  0  0  0  0  0  0  0  0  0
   -2.5822    2.5125    1.0286 H   0  0  0  0  0  0  0  0  0  0  0  0
   -0.1322    2.1739   -0.8637 H   0  0  0  0  0  0  0  0  0  0  0  0
   -2.9617    2.3565   -0.8962 H   0  0  0  0  0  0  0  0  0  0  0  0
   -3.9967   -1.3273    1.0950 H   0  0  0  0  0  0  0  0  0  0  0  0
   -4.7650    0.0570    0.1082 H   0  0  0  0  0  0  0  0  0  0  0  0
   -0.5011   -3.4599   -1.6792 H   0  0  0  0  0  0  0  0  0  0  0  0
    1.7352   -2.1251    0.7197 H   0  0  0  0  0  0  0  0  0  0  0  0
    1.2288   -1.4934   -0.8214 H   0  0  0  0  0  0  0  0  0  0  0  0
    0.7022    0.0573    2.5193 H   0  0  0  0  0  0  0  0  0  0  0  0
    1.3229    0.9647    1.2272 H   0  0  0  0  0  0  0  0  0  0  0  0
   -0.4177    2.5158    2.8690 H   0  0  0  0  0  0  0  0  0  0  0  0
   -1.9665    3.4976    2.8094 H   0  0  0  0  0  0  0  0  0  0  0  0
   -2.0223    1.7120    3.0139 H   0  0  0  0  0  0  0  0  0  0  0  0
    2.5112    3.0721   -0.4885 H   0  0  0  0  0  0  0  0  0  0  0  0
    1.4091    2.0054   -0.2251 H   0  0  0  0  0  0  0  0  0  0  0  0
    1.6353    2.4461    2.4383 H   0  0  0  0  0  0  0  0  0  0  0  0
    3.1185    1.8812    1.6992 H   0  0  0  0  0  0  0  0  0  0  0  0
    2.3579    5.9034    1.9690 H   0  0  0  0  0  0  0  0  0  0  0  0
    1.1375    4.7118    2.5735 H   0  0  0  0  0  0  0  0  0  0  0  0
    1.8487    5.1392   -0.4133 H   0  0  0  0  0  0  0  0  0  0  0  0
    0.3531    5.7665    0.3940 H   0  0  0  0  0  0  0  0  0  0  0  0
   -4.9647   -2.0016   -1.1768 H   0  0  0  0  0  0  0  0  0  0  0  0
   -3.9219   -1.0196   -2.0848 H   0  0  0  0  0  0  0  0  0  0  0  0
  1  2  1  0  0  0  0
  2 27  1  0  0  0  0
  2  3  2  0  0  0  0
  3  4  1  0  0  0  0
  3 31  1  0  0  0  0
  4  5  2  0  0  0  0
  4 32  1  0  0  0  0
  5  6  1  0  0  0  0
  5 27  1  0  0  0  0
  6 28  1  0  0  0  0
  6 33  1  0  0  0  0
  6 34  1  0  0  0  0
  7  8  2  0  0  0  0
  7  9  2  0  0  0  0
  7 10  1  0  0  0  0
  7 28  1  0  0  0  0
 10 35  1  0  0  0  0
 11 10  1  0  0  0  0
 11 12  1  0  0  0  0
 11 14  1  0  0  0  0
 11 29  1  1  0  0  0
 12 13  1  0  0  0  0
 12 36  1  0  0  0  0
 12 37  1  0  0  0  0
 13 16  1  0  0  0  0
 13 38  1  0  0  0  0
 13 39  1  0  0  0  0
 14 15  2  0  0  0  0
 14 16  1  0  0  0  0
 16 17  1  0  0  0  0
 17 18  1  0  0  0  0
 17 19  1  0  0  0  0
 17 30  1  6  0  0  0
 18 40  1  0  0  0  0
 18 41  1  0  0  0  0
 18 42  1  0  0  0  0
 19 20  2  0  0  0  0
 19 21  1  0  0  0  0
 21 22  1  0  0  0  0
 21 26  1  0  0  0  0
 22 23  1  0  0  0  0
 22 43  1  0  0  0  0
 22 44  1  0  0  0  0
 23 24  1  0  0  0  0
 23 45  1  0  0  0  0
 23 46  1  0  0  0  0
 24 25  1  0  0  0  0
 25 26  1  0  0  0  0
 25 47  1  0  0  0  0
 25 48  1  0  0  0  0
 26 49  1  0  0  0  0
 26 50  1  0  0  0  0
 28 51  1  0  0  0  0
 28 52  1  0  0  0  0
M  END
>  <DRUGBANK_ID>
DB07277

>  <COMMON_NAME>
2-(5-CHLORO-2-THIENYL)-N-{(3S)-1-[(1S)-1-METHYL-2-MORPHOLIN-4-YL-2-OXOETHYL]-2-OXOPYRROLIDIN-3-YL}ETHANESULFONAMIDE

$$$$
