
 OpenBabel10282417233D

 75 78  0  0  1  0  0  0  0  0999 V2000
    1.3565    2.2496   -1.2248 C   0  0  0  0  0  0  0  0  0  0  0  0
    0.6156    1.1555   -0.0936 C   0  0  2  0  0  0  0  0  0  0  0  0
    1.3137   -0.1723    0.0567 C   0  0  0  0  0  0  0  0  0  0  0  0
    2.6101    0.4625   -0.3386 C   0  0  0  0  0  0  0  0  0  0  0  0
    2.8899    1.9666    0.5211 O   0  0  0  0  0  0  0  0  0  0  0  0
    1.9211    3.1077    1.0312 C   0  0  0  0  0  0  0  0  0  0  0  0
    0.6696    2.9080    1.8320 C   0  0  0  0  0  0  0  0  0  0  0  0
   -0.4155    3.7845    2.0611 C   0  0  0  0  0  0  0  0  0  0  0  0
   -1.9522    3.1529    2.3015 C   0  0  0  0  0  0  0  0  0  0  0  0
   -2.3330    3.4946    3.6178 C   0  0  0  0  0  0  0  0  0  0  0  0
   -3.4347    4.2672    3.6536 O   0  0  0  0  0  0  0  0  0  0  0  0
   -1.5968    3.1489    4.5229 O   0  0  0  0  0  0  0  0  0  0  0  0
   -0.1537    5.0618    1.6524 C   0  0  0  0  0  0  0  0  0  0  0  0
    1.0665    5.3727    0.9482 C   0  0  0  0  0  0  0  0  0  0  0  0
    2.0444    4.4133    0.5222 C   0  0  0  0  0  0  0  0  0  0  0  0
   -0.8020    1.1686    0.1719 N   0  0  0  0  0  0  0  0  0  0  0  0
   -1.6667    2.2920    0.1045 C   0  0  0  0  0  0  0  0  0  0  0  0
   -1.6640    3.1907   -1.0214 C   0  0  0  0  0  0  0  0  0  0  0  0
   -2.7459    2.1937   -2.3645 C   0  0  0  0  0  0  0  0  0  0  0  0
   -2.6006    0.7662   -2.8713 C   0  0  0  0  0  0  0  0  0  0  0  0
   -2.4751    0.3881   -4.1846 C   0  0  0  0  0  0  0  0  0  0  0  0
   -2.7154    1.2915   -5.1890 C   0  0  0  0  0  0  0  0  0  0  0  0
   -3.1943    2.5431   -5.0234 C   0  0  0  0  0  0  0  0  0  0  0  0
   -3.1729    2.9357   -3.7486 C   0  0  0  0  0  0  0  0  0  0  0  0
   -1.5257    5.0707   -0.5773 C   0  0  0  0  0  0  0  0  0  0  0  0
   -2.7070    5.5505    0.0690 C   0  0  0  0  0  0  0  0  0  0  0  0
   -3.1723    6.8381   -0.0727 C   0  0  0  0  0  0  0  0  0  0  0  0
   -2.3272    7.8024   -0.5840 C   0  0  0  0  0  0  0  0  0  0  0  0
   -1.0303    7.4691   -1.0144 C   0  0  0  0  0  0  0  0  0  0  0  0
   -0.6376    6.1021   -1.1212 C   0  0  0  0  0  0  0  0  0  0  0  0
   -1.2217    0.6800   -1.0390 C   0  0  0  0  0  0  0  0  0  0  0  0
   -0.5699    1.7622   -2.4792 C   0  0  0  0  0  0  0  0  0  0  0  0
   -1.1246    3.4234   -2.8155 C   0  0  0  0  0  0  0  0  0  0  0  0
   -3.0694    4.3992   -2.1073 Cl  0  0  0  0  0  0  0  0  0  0  0  0
   -0.5102    4.1152   -3.8405 C   0  0  0  0  0  0  0  0  0  0  0  0
    0.2018    3.2488   -4.6698 C   0  0  0  0  0  0  0  0  0  0  0  0
    0.5678    1.8308   -4.5139 C   0  0  0  0  0  0  0  0  0  0  0  0
    0.1871    1.0385   -3.4313 C   0  0  0  0  0  0  0  0  0  0  0  0
   -0.9787    5.4668   -3.9771 C   0  0  0  0  0  0  0  0  0  0  0  0
    0.0532    6.3292   -3.9158 F   0  0  0  0  0  0  0  0  0  0  0  0
   -1.6637    5.6055   -5.1227 F   0  0  0  0  0  0  0  0  0  0  0  0
   -1.8573    5.9395   -3.0813 F   0  0  0  0  0  0  0  0  0  0  0  0
    1.4490    1.7951   -2.1673 H   0  0  0  0  0  0  0  0  0  0  0  0
    2.4324    2.4224   -1.3169 H   0  0  0  0  0  0  0  0  0  0  0  0
    1.0609    3.2758   -1.2790 H   0  0  0  0  0  0  0  0  0  0  0  0
    1.0188    1.2467    0.8772 H   0  0  0  0  0  0  0  0  0  0  0  0
    1.3646   -0.5194    1.1074 H   0  0  0  0  0  0  0  0  0  0  0  0
    0.8664   -0.9893   -0.5239 H   0  0  0  0  0  0  0  0  0  0  0  0
    3.5204   -0.1116   -0.3615 H   0  0  0  0  0  0  0  0  0  0  0  0
    2.4765    0.5271   -1.4577 H   0  0  0  0  0  0  0  0  0  0  0  0
    0.2382    1.9451    2.0799 H   0  0  0  0  0  0  0  0  0  0  0  0
   -2.7810    3.4977    1.6176 H   0  0  0  0  0  0  0  0  0  0  0  0
   -2.0540    2.0330    2.1917 H   0  0  0  0  0  0  0  0  0  0  0  0
   -3.8717    4.4318    2.7862 H   0  0  0  0  0  0  0  0  0  0  0  0
   -0.9894    5.7615    1.6223 H   0  0  0  0  0  0  0  0  0  0  0  0
    1.1547    6.4133    0.6320 H   0  0  0  0  0  0  0  0  0  0  0  0
    2.7255    4.6948   -0.2935 H   0  0  0  0  0  0  0  0  0  0  0  0
   -2.7337    2.1239    0.1990 H   0  0  0  0  0  0  0  0  0  0  0  0
   -1.3658    3.1562    0.5576 H   0  0  0  0  0  0  0  0  0  0  0  0
   -0.5311    3.4661   -1.0333 H   0  0  0  0  0  0  0  0  0  0  0  0
   -1.8615   -0.0135   -2.5706 H   0  0  0  0  0  0  0  0  0  0  0  0
   -1.8412   -0.5050   -4.3286 H   0  0  0  0  0  0  0  0  0  0  0  0
   -2.4892    0.9549   -6.1613 H   0  0  0  0  0  0  0  0  0  0  0  0
   -3.4545    3.3333   -5.7083 H   0  0  0  0  0  0  0  0  0  0  0  0
   -3.1501    4.0799   -3.9346 H   0  0  0  0  0  0  0  0  0  0  0  0
   -3.4531    4.8276    0.3499 H   0  0  0  0  0  0  0  0  0  0  0  0
   -4.2070    6.9896    0.2152 H   0  0  0  0  0  0  0  0  0  0  0  0
   -2.6934    8.8206   -0.6073 H   0  0  0  0  0  0  0  0  0  0  0  0
   -0.3564    8.2809   -1.2964 H   0  0  0  0  0  0  0  0  0  0  0  0
    0.3107    5.9221   -1.6479 H   0  0  0  0  0  0  0  0  0  0  0  0
   -1.0586   -0.4125   -1.0463 H   0  0  0  0  0  0  0  0  0  0  0  0
   -2.3604    0.6208   -0.8703 H   0  0  0  0  0  0  0  0  0  0  0  0
    0.3104    3.6569   -5.6701 H   0  0  0  0  0  0  0  0  0  0  0  0
    1.1041    1.3431   -5.3256 H   0  0  0  0  0  0  0  0  0  0  0  0
    0.3788   -0.0366   -3.3865 H   0  0  0  0  0  0  0  0  0  0  0  0
  1 43  1  0  0  0  0
  1 44  1  0  0  0  0
  1 45  1  0  0  0  0
  2 16  1  0  0  0  0
  2 46  1  1  0  0  0
  2  3  1  0  0  0  0
  2  1  1  0  0  0  0
  3  4  1  0  0  0  0
  3 47  1  0  0  0  0
  3 48  1  0  0  0  0
  4  5  1  0  0  0  0
  4 49  1  0  0  0  0
  4 50  1  0  0  0  0
  5  6  1  0  0  0  0
  6  7  2  0  0  0  0
  6 15  1  0  0  0  0
  7  8  1  0  0  0  0
  7 51  1  0  0  0  0
  8  9  1  0  0  0  0
  8 13  2  0  0  0  0
  9 10  1  0  0  0  0
  9 52  1  0  0  0  0
  9 53  1  0  0  0  0
 10 11  1  0  0  0  0
 10 12  2  0  0  0  0
 11 54  1  0  0  0  0
 13 14  1  0  0  0  0
 13 55  1  0  0  0  0
 14 15  2  0  0  0  0
 14 56  1  0  0  0  0
 15 57  1  0  0  0  0
 16 17  1  0  0  0  0
 16 31  1  0  0  0  0
 17 18  1  0  0  0  0
 17 58  1  0  0  0  0
 17 59  1  0  0  0  0
 18 19  1  0  0  0  0
 18 25  1  0  0  0  0
 18 60  1  0  0  0  0
 19 20  2  0  0  0  0
 19 24  1  0  0  0  0
 20 21  1  0  0  0  0
 20 61  1  0  0  0  0
 21 22  2  0  0  0  0
 21 62  1  0  0  0  0
 22 23  1  0  0  0  0
 22 63  1  0  0  0  0
 23 24  2  0  0  0  0
 23 64  1  0  0  0  0
 24 65  1  0  0  0  0
 25 26  2  0  0  0  0
 25 30  1  0  0  0  0
 26 27  1  0  0  0  0
 26 66  1  0  0  0  0
 27 28  2  0  0  0  0
 27 67  1  0  0  0  0
 28 29  1  0  0  0  0
 28 68  1  0  0  0  0
 29 30  2  0  0  0  0
 29 69  1  0  0  0  0
 30 70  1  0  0  0  0
 31 32  1  0  0  0  0
 31 71  1  0  0  0  0
 31 72  1  0  0  0  0
 32 33  2  0  0  0  0
 32 38  1  0  0  0  0
 33 34  1  0  0  0  0
 33 35  1  0  0  0  0
 35 36  2  0  0  0  0
 35 39  1  0  0  0  0
 36 37  1  0  0  0  0
 36 73  1  0  0  0  0
 37 38  2  0  0  0  0
 37 74  1  0  0  0  0
 38 75  1  0  0  0  0
 39 40  1  0  0  0  0
 39 41  1  0  0  0  0
 39 42  1  0  0  0  0
M  END
>  <DRUGBANK_ID>
DB17146

>  <COMMON_NAME>
Abequolixron

>  <CAS_NUMBER>
610318-54-2

>  <UNII>
Q26B92650V

>  <SYNONYMS>
(3-((3r)-3-(((2-chloro-3-(trifluoromethyl)phenyl)methyl)(2,2- diphenylethyl)amino)butoxy)phenyl)acetic acid; 2-(3-((3r)-3-(((2-chloro-3-(trifluoromethyl)phenyl)methyl)(2,2-diphenylethyl)amino)butoxy)phenyl)acetic acid; 2-{3-[(3R)-3-({[2-chloro-3-(trifluoromethyl)phenyl]methyl}(2,2-diphenylethyl)amino)butoxy]phenyl}acetic acid; Benzeneacetic acid, 3-((3r)-3-(((2-chloro-3-(trifluoromethyl)phenyl)methyl)(2,2-diphenylethyl)amino)butoxy)-

$$$$
