
 OpenBabel10282417123D

 21 21  0  0  0  0  0  0  0  0999 V2000
    0.9496    0.0187   -0.0861 C   0  0  0  0  0  0  0  0  0  0  0  0
    0.2416    0.6889    0.8358 C   0  0  0  0  0  0  0  0  0  0  0  0
   -1.2534    0.7413    0.8979 C   0  0  0  0  0  0  0  0  0  0  0  0
   -1.5884    0.2844    2.2239 N   0  0  0  0  0  0  0  0  0  0  0  0
   -2.5570    0.8747    3.0147 C   0  0  0  0  0  0  0  0  0  0  0  0
   -3.6131    1.6480    2.5261 C   0  0  0  0  0  0  0  0  0  0  0  0
   -4.5444    2.2238    3.3981 C   0  0  0  0  0  0  0  0  0  0  0  0
   -4.4279    2.0336    4.7730 C   0  0  0  0  0  0  0  0  0  0  0  0
   -3.3777    1.2738    5.2761 C   0  0  0  0  0  0  0  0  0  0  0  0
   -2.4413    0.7208    4.4021 C   0  0  0  0  0  0  0  0  0  0  0  0
    0.4608   -0.5434   -0.8728 H   0  0  0  0  0  0  0  0  0  0  0  0
    2.0336    0.0293   -0.0629 H   0  0  0  0  0  0  0  0  0  0  0  0
    0.7679    1.2407    1.6120 H   0  0  0  0  0  0  0  0  0  0  0  0
   -1.5606    1.7775    0.7229 H   0  0  0  0  0  0  0  0  0  0  0  0
   -1.7182    0.1064    0.1356 H   0  0  0  0  0  0  0  0  0  0  0  0
   -1.4490   -0.7072    2.3940 H   0  0  0  0  0  0  0  0  0  0  0  0
   -3.7472    1.7969    1.4590 H   0  0  0  0  0  0  0  0  0  0  0  0
   -5.3664    2.8129    3.0004 H   0  0  0  0  0  0  0  0  0  0  0  0
   -5.1499    2.4799    5.4507 H   0  0  0  0  0  0  0  0  0  0  0  0
   -3.2795    1.1112    6.3453 H   0  0  0  0  0  0  0  0  0  0  0  0
   -1.5841    0.1900    4.8104 H   0  0  0  0  0  0  0  0  0  0  0  0
  1  2  2  0  0  0  0
  1 11  1  0  0  0  0
  1 12  1  0  0  0  0
  2  3  1  0  0  0  0
  2 13  1  0  0  0  0
  3  4  1  0  0  0  0
  3 14  1  0  0  0  0
  3 15  1  0  0  0  0
  4  5  1  0  0  0  0
  4 16  1  0  0  0  0
  5  6  2  0  0  0  0
  5 10  1  0  0  0  0
  6  7  1  0  0  0  0
  6 17  1  0  0  0  0
  7  8  2  0  0  0  0
  7 18  1  0  0  0  0
  8  9  1  0  0  0  0
  8 19  1  0  0  0  0
  9 10  2  0  0  0  0
  9 20  1  0  0  0  0
 10 21  1  0  0  0  0
M  END
>  <DRUGBANK_ID>
DB02870

>  <SECONDARY_ACCESSION_NUMBERS>
EXPT02400

>  <COMMON_NAME>
N-Allylaniline

>  <CAS_NUMBER>
589-09-3

>  <UNII>
Q7S639GWXG

$$$$
