
 OpenBabel10282417173D

 77 79  0  0  0  0  0  0  0  0999 V2000
    1.0969    0.4227    0.3879 O   0  0  0  0  0  0  0  0  0  0  0  0
   -0.0707    0.9499   -0.5923 C   0  0  0  0  0  0  0  0  0  0  0  0
    0.5474    2.0116   -1.5428 C   0  0  0  0  0  0  0  0  0  0  0  0
    2.1462    1.6763   -1.7313 C   0  0  0  0  0  0  0  0  0  0  0  0
    2.8766    0.3611   -2.9731 O   0  0  0  0  0  0  0  0  0  0  0  0
    0.0218    2.2633   -3.1914 O   0  0  0  0  0  0  0  0  0  0  0  0
    2.6621   -1.5375   -3.1063 C   0  0  0  0  0  0  0  0  0  0  0  0
    1.6488   -2.0018   -1.3496 C   0  0  0  0  0  0  0  0  0  0  0  0
    3.0466   -2.1874   -4.0254 O   0  0  0  0  0  0  0  0  0  0  0  0
    0.1262   -2.4611   -1.3546 C   0  0  0  0  0  0  0  0  0  0  0  0
    0.4086   -3.5971   -2.2323 C   0  0  0  0  0  0  0  0  0  0  0  0
    1.4120   -4.4171   -1.5056 C   0  0  0  0  0  0  0  0  0  0  0  0
    2.4929   -4.0048   -0.6687 C   0  0  0  0  0  0  0  0  0  0  0  0
    3.1261   -4.6572    0.3019 C   0  0  0  0  0  0  0  0  0  0  0  0
    2.8735   -5.9619    0.1989 C   0  0  0  0  0  0  0  0  0  0  0  0
    1.9576   -6.4728   -0.7609 C   0  0  0  0  0  0  0  0  0  0  0  0
    1.2979   -5.7205   -1.6998 C   0  0  0  0  0  0  0  0  0  0  0  0
    2.5350    0.2639    0.5477 C   0  0  0  0  0  0  0  0  0  0  0  0
    2.9713   -0.0860    1.6434 O   0  0  0  0  0  0  0  0  0  0  0  0
    3.6625    0.2959   -0.5835 C   0  0  0  0  0  0  0  0  0  0  0  0
    3.2518   -0.6701   -1.5118 C   0  0  0  0  0  0  0  0  0  0  0  0
    1.2884   -0.3538   -2.3472 C   0  0  0  0  0  0  0  0  0  0  0  0
    0.6899    0.6343   -3.2018 C   0  0  0  0  0  0  0  0  0  0  0  0
   -1.1290    0.8163   -3.5331 C   0  0  0  0  0  0  0  0  0  0  0  0
   -1.5495    2.4334   -4.2584 C   0  0  0  0  0  0  0  0  0  0  0  0
   -0.2461    3.6648   -4.4875 C   0  0  0  0  0  0  0  0  0  0  0  0
    1.3765    3.4386   -4.1623 C   0  0  0  0  0  0  0  0  0  0  0  0
    1.8533    1.9912   -3.8317 C   0  0  0  0  0  0  0  0  0  0  0  0
    0.2476    1.4007   -4.9420 C   0  0  0  0  0  0  0  0  0  0  0  0
    1.0136   -0.2633   -5.0361 C   0  0  0  0  0  0  0  0  0  0  0  0
   -0.4039    1.6105   -5.9816 O   0  0  0  0  0  0  0  0  0  0  0  0
    0.1638   -1.5857   -4.8332 C   0  0  0  0  0  0  0  0  0  0  0  0
   -0.5952   -1.7666   -6.0735 C   0  0  0  0  0  0  0  0  0  0  0  0
    0.5051   -1.6840   -7.1025 C   0  0  0  0  0  0  0  0  0  0  0  0
    1.0267   -0.4325   -7.5299 C   0  0  0  0  0  0  0  0  0  0  0  0
    2.2647   -0.2602   -8.1024 C   0  0  0  0  0  0  0  0  0  0  0  0
    2.9369   -1.4002   -8.4398 C   0  0  0  0  0  0  0  0  0  0  0  0
    2.4892   -2.6519   -7.9923 C   0  0  0  0  0  0  0  0  0  0  0  0
    1.2809   -2.8049   -7.3218 C   0  0  0  0  0  0  0  0  0  0  0  0
   -0.5175    0.2929   -1.3182 H   0  0  0  0  0  0  0  0  0  0  0  0
   -1.0894    0.6405   -0.2418 H   0  0  0  0  0  0  0  0  0  0  0  0
    0.2885    2.9414   -1.0386 H   0  0  0  0  0  0  0  0  0  0  0  0
    2.6166    2.6244   -2.0096 H   0  0  0  0  0  0  0  0  0  0  0  0
    2.5282    1.8456   -0.7237 H   0  0  0  0  0  0  0  0  0  0  0  0
    2.1113   -1.9681   -0.3170 H   0  0  0  0  0  0  0  0  0  0  0  0
    1.5052   -1.0938   -0.7560 H   0  0  0  0  0  0  0  0  0  0  0  0
   -0.2564   -2.4822   -0.3187 H   0  0  0  0  0  0  0  0  0  0  0  0
   -0.6854   -1.8687   -1.8456 H   0  0  0  0  0  0  0  0  0  0  0  0
   -0.5433   -4.0017   -2.5786 H   0  0  0  0  0  0  0  0  0  0  0  0
    0.9377   -3.3333   -3.1373 H   0  0  0  0  0  0  0  0  0  0  0  0
    3.0741   -3.1147   -0.6629 H   0  0  0  0  0  0  0  0  0  0  0  0
    3.7890   -4.0844    0.9462 H   0  0  0  0  0  0  0  0  0  0  0  0
    3.4566   -6.5861    0.8373 H   0  0  0  0  0  0  0  0  0  0  0  0
    1.6938   -7.5037   -0.7232 H   0  0  0  0  0  0  0  0  0  0  0  0
    0.6655   -6.0525   -2.5105 H   0  0  0  0  0  0  0  0  0  0  0  0
    3.9282    1.1295   -1.2492 H   0  0  0  0  0  0  0  0  0  0  0  0
    4.7095    0.1075   -0.3899 H   0  0  0  0  0  0  0  0  0  0  0  0
    4.1925   -0.6126   -2.3839 H   0  0  0  0  0  0  0  0  0  0  0  0
    3.6894   -1.7253   -1.4413 H   0  0  0  0  0  0  0  0  0  0  0  0
    0.9241   -1.2211   -2.9621 H   0  0  0  0  0  0  0  0  0  0  0  0
    0.4837   -0.5988   -1.7929 H   0  0  0  0  0  0  0  0  0  0  0  0
   -1.5718   -0.0498   -4.0574 H   0  0  0  0  0  0  0  0  0  0  0  0
   -2.1181    2.4175   -5.2109 H   0  0  0  0  0  0  0  0  0  0  0  0
   -0.3053    4.6124   -4.9766 H   0  0  0  0  0  0  0  0  0  0  0  0
    1.7238    4.0845   -3.2876 H   0  0  0  0  0  0  0  0  0  0  0  0
    2.9507    2.0254   -3.6855 H   0  0  0  0  0  0  0  0  0  0  0  0
    1.9239   -0.2637   -5.6347 H   0  0  0  0  0  0  0  0  0  0  0  0
    1.8021   -0.3704   -4.3802 H   0  0  0  0  0  0  0  0  0  0  0  0
    0.8226   -2.4522   -4.7139 H   0  0  0  0  0  0  0  0  0  0  0  0
   -0.5417   -1.6916   -3.9799 H   0  0  0  0  0  0  0  0  0  0  0  0
   -1.0916   -2.7357   -5.9649 H   0  0  0  0  0  0  0  0  0  0  0  0
   -1.3134   -0.9508   -6.0899 H   0  0  0  0  0  0  0  0  0  0  0  0
    0.6310    0.5067   -7.1943 H   0  0  0  0  0  0  0  0  0  0  0  0
    2.6379    0.7496   -8.2557 H   0  0  0  0  0  0  0  0  0  0  0  0
    3.7918   -1.3104   -9.0896 H   0  0  0  0  0  0  0  0  0  0  0  0
    3.0981   -3.5229   -8.1807 H   0  0  0  0  0  0  0  0  0  0  0  0
    0.9419   -3.7695   -6.9553 H   0  0  0  0  0  0  0  0  0  0  0  0
  1  2  1  0  0  0  0
  1 18  1  0  0  0  0
  2  3  1  0  0  0  0
  2 40  1  0  0  0  0
  2 41  1  0  0  0  0
  3  4  1  0  0  0  0
  3  6  1  0  0  0  0
  3 42  1  0  0  0  0
  4  5  1  0  0  0  0
  4 43  1  0  0  0  0
  4 44  1  0  0  0  0
  5  7  1  0  0  0  0
  6 29  1  0  0  0  0
  7  8  1  0  0  0  0
  7  9  2  0  0  0  0
  8 10  1  0  0  0  0
  8 45  1  0  0  0  0
  8 46  1  0  0  0  0
 10 11  1  0  0  0  0
 10 47  1  0  0  0  0
 10 48  1  0  0  0  0
 11 12  1  0  0  0  0
 11 49  1  0  0  0  0
 11 50  1  0  0  0  0
 12 13  2  0  0  0  0
 12 17  1  0  0  0  0
 13 14  1  0  0  0  0
 13 51  1  0  0  0  0
 14 15  2  0  0  0  0
 14 52  1  0  0  0  0
 15 16  1  0  0  0  0
 15 53  1  0  0  0  0
 16 17  2  0  0  0  0
 16 54  1  0  0  0  0
 17 55  1  0  0  0  0
 18 19  2  0  0  0  0
 18 20  1  0  0  0  0
 20 21  1  0  0  0  0
 20 56  1  0  0  0  0
 20 57  1  0  0  0  0
 21 22  1  0  0  0  0
 21 58  1  0  0  0  0
 21 59  1  0  0  0  0
 22 23  1  0  0  0  0
 22 60  1  0  0  0  0
 22 61  1  0  0  0  0
 23 24  2  0  0  0  0
 23 28  1  0  0  0  0
 24 25  1  0  0  0  0
 24 62  1  0  0  0  0
 25 26  2  0  0  0  0
 25 63  1  0  0  0  0
 26 27  1  0  0  0  0
 26 64  1  0  0  0  0
 27 28  2  0  0  0  0
 27 65  1  0  0  0  0
 28 66  1  0  0  0  0
 29 30  1  0  0  0  0
 29 31  2  0  0  0  0
 30 32  1  0  0  0  0
 30 67  1  0  0  0  0
 30 68  1  0  0  0  0
 32 33  1  0  0  0  0
 32 69  1  0  0  0  0
 32 70  1  0  0  0  0
 33 34  1  0  0  0  0
 33 71  1  0  0  0  0
 33 72  1  0  0  0  0
 34 35  2  0  0  0  0
 34 39  1  0  0  0  0
 35 36  1  0  0  0  0
 35 73  1  0  0  0  0
 36 37  2  0  0  0  0
 36 74  1  0  0  0  0
 37 38  1  0  0  0  0
 37 75  1  0  0  0  0
 38 39  2  0  0  0  0
 38 76  1  0  0  0  0
 39 77  1  0  0  0  0
M  END
>  <DRUGBANK_ID>
DB08909

>  <SECONDARY_ACCESSION_NUMBERS>
DB06170

>  <COMMON_NAME>
Glycerol phenylbutyrate

>  <CAS_NUMBER>
611168-24-2

>  <UNII>
ZH6F1VCV7B

>  <SYNONYMS>
Glycerol phenylbutyrate; Glyceryl Tri-4-Phenylbutyrate; GPB; GT4P

$$$$
