
 OpenBabel10282417183D

 29 28  0  0  1  0  0  0  0  0999 V2000
    0.1572   -3.7965    0.8888 C   0  0  0  0  0  0  0  0  0  0  0  0
   -0.4797   -5.0420    0.5528 N   0  0  0  0  0  0  0  0  0  0  0  0
   -1.1598   -5.4962   -0.5182 C   0  0  0  0  0  0  0  0  0  0  0  0
   -1.6596   -6.6898   -0.5600 N   0  0  0  0  0  0  0  0  0  0  0  0
   -1.3476   -4.7804   -1.6256 N   0  0  0  0  0  0  0  0  0  0  0  0
   -1.1502   -3.4050   -1.8955 C   0  0  0  0  0  0  0  0  0  0  0  0
   -0.1206   -3.2300   -3.0025 C   0  0  0  0  0  0  0  0  0  0  0  0
   -0.8113   -3.2473   -4.3489 C   0  0  0  0  0  0  0  0  0  0  0  0
   -1.4815   -1.8785   -4.5707 C   0  0  2  0  0  0  0  0  0  0  0  0
   -2.2886   -1.3854   -3.4464 N   0  0  0  0  0  0  0  0  0  0  0  0
   -2.3457   -1.9256   -5.8299 C   0  0  0  0  0  0  0  0  0  0  0  0
   -1.9054   -1.0609   -6.7819 O   0  0  0  0  0  0  0  0  0  0  0  0
   -3.3390   -2.6002   -5.9671 O   0  0  0  0  0  0  0  0  0  0  0  0
    0.1481   -2.9762    0.1932 H   0  0  0  0  0  0  0  0  0  0  0  0
    1.2259   -3.9538    1.0323 H   0  0  0  0  0  0  0  0  0  0  0  0
   -0.3048   -3.3778    1.7859 H   0  0  0  0  0  0  0  0  0  0  0  0
   -0.3838   -5.7239    1.2902 H   0  0  0  0  0  0  0  0  0  0  0  0
   -1.4559   -7.1930    0.2996 H   0  0  0  0  0  0  0  0  0  0  0  0
   -1.9914   -5.2434   -2.2645 H   0  0  0  0  0  0  0  0  0  0  0  0
   -2.1467   -2.9902   -2.0087 H   0  0  0  0  0  0  0  0  0  0  0  0
   -0.7914   -2.7747   -1.1130 H   0  0  0  0  0  0  0  0  0  0  0  0
    0.3833   -2.2603   -2.8827 H   0  0  0  0  0  0  0  0  0  0  0  0
    0.6783   -3.9795   -2.9354 H   0  0  0  0  0  0  0  0  0  0  0  0
   -0.0655   -3.4146   -5.1379 H   0  0  0  0  0  0  0  0  0  0  0  0
   -1.5053   -4.0973   -4.4079 H   0  0  0  0  0  0  0  0  0  0  0  0
   -0.6732   -1.1521   -4.6989 H   0  0  0  0  0  0  0  0  0  0  0  0
   -3.0098   -0.7236   -3.7137 H   0  0  0  0  0  0  0  0  0  0  0  0
   -1.7114   -0.9709   -2.7171 H   0  0  0  0  0  0  0  0  0  0  0  0
   -1.1097   -0.5563   -6.5330 H   0  0  0  0  0  0  0  0  0  0  0  0
  1  2  1  0  0  0  0
  1 14  1  0  0  0  0
  1 15  1  0  0  0  0
  1 16  1  0  0  0  0
  2  3  1  0  0  0  0
  2 17  1  0  0  0  0
  3  4  2  0  0  0  0
  3  5  1  0  0  0  0
  4 18  1  0  0  0  0
  5  6  1  0  0  0  0
  5 19  1  0  0  0  0
  6  7  1  0  0  0  0
  6 20  1  0  0  0  0
  6 21  1  0  0  0  0
  7  8  1  0  0  0  0
  7 22  1  0  0  0  0
  7 23  1  0  0  0  0
  8 24  1  0  0  0  0
  8 25  1  0  0  0  0
  9 11  1  0  0  0  0
  9 26  1  6  0  0  0
  9 10  1  0  0  0  0
  9  8  1  0  0  0  0
 10 27  1  0  0  0  0
 10 28  1  0  0  0  0
 11 12  1  0  0  0  0
 11 13  2  0  0  0  0
 12 29  1  0  0  0  0
M  END
>  <DRUGBANK_ID>
DB11815

>  <COMMON_NAME>
Tilarginine

>  <CAS_NUMBER>
17035-90-4

>  <UNII>
27JT06E6GR

>  <SYNONYMS>
L-Monomethylarginine; L-Ng-monomethyl Arginine; L-NMMA; N-Methylarginine; N-Monomethyl-L-arginine; N(G)-Methylarginine; N(G)-Monomethyl-L-arginine; N5-(Methylamidino)-L-ornithine; NG-Monomethyl-L-arginine; omega-N-Methylarginine; omega-N-Monomethylarginine; Targinine; Tilarginine

$$$$
