
 OpenBabel10282417133D

 49 49  0  0  1  0  0  0  0  0999 V2000
    1.0073   -0.0050    0.0989 C   0  0  0  0  0  0  0  0  0  0  0  0
    0.6110    1.3376    0.7519 C   0  0  0  0  0  0  0  0  0  0  0  0
    1.1440    2.5572   -0.0048 C   0  0  0  0  0  0  0  0  0  0  0  0
   -2.5835    0.1733   -2.8671 C   0  0  0  0  0  0  0  0  0  0  0  0
   -2.6409    1.6494   -2.5603 C   0  0  0  0  0  0  0  0  0  0  0  0
   -2.4767   -0.6492   -1.5675 C   0  0  0  0  0  0  0  0  0  0  0  0
    0.3769    3.5739   -0.4648 C   0  0  0  0  0  0  0  0  0  0  0  0
   -1.3717    2.0021   -1.8588 C   0  0  0  0  0  0  0  0  0  0  0  0
   -3.7011   -0.4360   -0.6749 C   0  0  0  0  0  0  0  0  0  0  0  0
   -0.0872    1.6760   -2.6440 C   0  0  0  0  0  0  0  0  0  0  0  0
    0.6911    4.4348   -1.7141 C   0  0  0  0  0  0  0  0  0  0  0  0
   -4.9946   -0.6929   -1.4440 C   0  0  0  0  0  0  0  0  0  0  0  0
    1.2291    2.5160   -4.5774 C   0  0  0  0  0  0  0  0  0  0  0  0
    1.7958    3.6746   -4.9090 C   0  0  0  0  0  0  0  0  0  0  0  0
    0.0173    2.6952   -3.7300 C   0  0  2  0  0  0  0  0  0  0  0  0
    0.0910    4.1411   -3.1691 C   0  0  2  0  0  0  0  0  0  0  0  0
    1.0219    4.7216   -4.2119 C   0  0  0  0  0  0  0  0  0  0  0  0
   -5.0874   -2.1191   -1.9179 C   0  0  0  0  0  0  0  0  0  0  0  0
    1.1625    5.9102   -4.4526 O   0  0  0  0  0  0  0  0  0  0  0  0
   -5.9128   -2.9428   -1.5330 O   0  0  0  0  0  0  0  0  0  0  0  0
   -4.1547   -2.4671   -2.8219 O   0  0  0  0  0  0  0  0  0  0  0  0
   -0.8477    2.5768   -4.3975 H   0  0  0  0  0  0  0  0  0  0  0  0
   -0.9003    4.6052   -3.2839 H   0  0  0  0  0  0  0  0  0  0  0  0
    0.6162   -0.1439   -0.9139 H   0  0  0  0  0  0  0  0  0  0  0  0
    0.6175   -0.8479    0.6813 H   0  0  0  0  0  0  0  0  0  0  0  0
    2.0936   -0.1060    0.0304 H   0  0  0  0  0  0  0  0  0  0  0  0
   -0.4825    1.3510    0.8362 H   0  0  0  0  0  0  0  0  0  0  0  0
    0.9817    1.3508    1.7761 H   0  0  0  0  0  0  0  0  0  0  0  0
    2.1526    2.4527   -0.3976 H   0  0  0  0  0  0  0  0  0  0  0  0
   -3.4523   -0.0740   -3.4731 H   0  0  0  0  0  0  0  0  0  0  0  0
   -1.7403   -0.0630   -3.5180 H   0  0  0  0  0  0  0  0  0  0  0  0
   -3.4707    1.9238   -1.8972 H   0  0  0  0  0  0  0  0  0  0  0  0
   -2.7668    2.2713   -3.4491 H   0  0  0  0  0  0  0  0  0  0  0  0
   -2.3307   -1.7014   -1.8116 H   0  0  0  0  0  0  0  0  0  0  0  0
   -1.5785   -0.4256   -0.9869 H   0  0  0  0  0  0  0  0  0  0  0  0
   -0.6324    3.6631   -0.0555 H   0  0  0  0  0  0  0  0  0  0  0  0
   -1.3666    1.5340   -0.8818 H   0  0  0  0  0  0  0  0  0  0  0  0
   -1.5168    3.0649   -1.6853 H   0  0  0  0  0  0  0  0  0  0  0  0
   -3.6324   -1.0811    0.2068 H   0  0  0  0  0  0  0  0  0  0  0  0
   -3.7072    0.5899   -0.2786 H   0  0  0  0  0  0  0  0  0  0  0  0
   -0.0358    0.6452   -3.0011 H   0  0  0  0  0  0  0  0  0  0  0  0
    0.8439    1.7312   -2.0872 H   0  0  0  0  0  0  0  0  0  0  0  0
    0.3436    5.4460   -1.4609 H   0  0  0  0  0  0  0  0  0  0  0  0
    1.7777    4.4942   -1.8055 H   0  0  0  0  0  0  0  0  0  0  0  0
   -5.8468   -0.4756   -0.7949 H   0  0  0  0  0  0  0  0  0  0  0  0
   -5.1142   -0.0193   -2.2999 H   0  0  0  0  0  0  0  0  0  0  0  0
    1.5546    1.5447   -4.9306 H   0  0  0  0  0  0  0  0  0  0  0  0
    2.6401    3.8496   -5.5480 H   0  0  0  0  0  0  0  0  0  0  0  0
   -4.2005   -3.4391   -2.9246 H   0  0  0  0  0  0  0  0  0  0  0  0
  1 24  1  0  0  0  0
  1 25  1  0  0  0  0
  1 26  1  0  0  0  0
  2  1  1  0  0  0  0
  2 27  1  0  0  0  0
  2 28  1  0  0  0  0
  3  2  1  0  0  0  0
  3 29  1  0  0  0  0
  4 30  1  0  0  0  0
  4 31  1  0  0  0  0
  5  4  1  0  0  0  0
  5 32  1  0  0  0  0
  5 33  1  0  0  0  0
  6  4  1  0  0  0  0
  6 34  1  0  0  0  0
  6 35  1  0  0  0  0
  7  3  2  3  0  0  0
  7 11  1  0  0  0  0
  7 36  1  0  0  0  0
  8  5  1  0  0  0  0
  8 37  1  0  0  0  0
  8 38  1  0  0  0  0
  9  6  1  0  0  0  0
  9 39  1  0  0  0  0
  9 40  1  0  0  0  0
 10  8  1  0  0  0  0
 10 41  1  0  0  0  0
 10 42  1  0  0  0  0
 11 43  1  0  0  0  0
 11 44  1  0  0  0  0
 12  9  1  0  0  0  0
 12 45  1  0  0  0  0
 12 46  1  0  0  0  0
 13 47  1  0  0  0  0
 14 13  2  0  0  0  0
 14 48  1  0  0  0  0
 15 10  1  0  0  0  0
 15 13  1  0  0  0  0
 15 22  1  6  0  0  0
 16 11  1  0  0  0  0
 16 15  1  0  0  0  0
 16 23  1  6  0  0  0
 17 14  1  0  0  0  0
 17 16  1  0  0  0  0
 18 12  1  0  0  0  0
 19 17  2  0  0  0  0
 20 18  2  0  0  0  0
 21 18  1  0  0  0  0
 21 49  1  0  0  0  0
M  END
>  <DRUGBANK_ID>
DB03007

>  <SECONDARY_ACCESSION_NUMBERS>
EXPT02441

>  <COMMON_NAME>
9r,13r-Opda

$$$$
