
 OpenBabel10282417103D

 62 64  0  0  0  0  0  0  0  0999 V2000
    8.9965    7.7513   -0.7497 C   0  0  0  0  0  0  0  0  0  0  0  0
    9.7549    8.0216   -1.8784 C   0  0  0  0  0  0  0  0  0  0  0  0
   10.3864    9.2589   -2.0013 C   0  0  0  0  0  0  0  0  0  0  0  0
   10.2160   10.2577   -1.0249 C   0  0  0  0  0  0  0  0  0  0  0  0
    9.4339   10.0240    0.1078 C   0  0  0  0  0  0  0  0  0  0  0  0
    8.8829    8.7375    0.2379 C   0  0  0  0  0  0  0  0  0  0  0  0
    8.0633    8.4215    1.4102 C   0  0  0  0  0  0  0  0  0  0  0  0
    7.0376    7.3632    1.4257 C   0  0  2  0  0  0  0  0  0  0  0  0
    7.6216    6.1739    0.7447 C   0  0  2  0  0  0  0  0  0  0  0  0
    8.1778    6.4899   -0.6602 C   0  0  0  0  0  0  0  0  0  0  0  0
    6.3690    5.3453    0.6400 C   0  0  2  0  0  0  0  0  0  0  0  0
    5.7349    7.6700    0.6658 C   0  0  0  0  0  0  0  0  0  0  0  0
    5.1575    6.2876    0.4894 C   0  0  1  0  0  0  0  0  0  0  0  0
    9.2486   11.0987    0.9563 O   0  0  0  0  0  0  0  0  0  0  0  0
    8.3700   11.0801    2.0978 C   0  0  0  0  0  0  0  0  0  0  0  0
    6.8167   11.0847    1.9000 C   0  0  0  0  0  0  0  0  0  0  0  0
    6.2369    4.4747    1.8788 C   0  0  0  0  0  0  0  0  0  0  0  0
    5.0923    3.5378    1.6409 C   0  0  0  0  0  0  0  0  0  0  0  0
    5.3383    2.5621    0.4655 C   0  0  2  0  0  0  0  0  0  0  0  0
    5.4720    1.1216    0.9047 C   0  0  0  0  0  0  0  0  0  0  0  0
    4.6314    0.7374    2.1073 C   0  0  0  0  0  0  0  0  0  0  0  0
    3.1380    0.9323    1.8410 C   0  0  0  0  0  0  0  0  0  0  0  0
    2.6604    0.0396    0.6980 C   0  0  0  0  0  0  0  0  0  0  0  0
    2.9585   -1.4203    1.0004 C   0  0  0  0  0  0  0  0  0  0  0  0
    6.1125   10.2079    2.6793 O   0  0  0  0  0  0  0  0  0  0  0  0
    6.2267   11.7547    1.0474 O   0  0  0  0  0  0  0  0  0  0  0  0
    4.5847    6.1046   -0.7930 O   0  0  0  0  0  0  0  0  0  0  0  0
    6.5492    2.7597   -0.2742 O   0  0  0  0  0  0  0  0  0  0  0  0
    8.4131    5.7287    1.3625 H   0  0  0  0  0  0  0  0  0  0  0  0
    6.7671    7.1677    2.4744 H   0  0  0  0  0  0  0  0  0  0  0  0
    9.8368    7.2748   -2.6644 H   0  0  0  0  0  0  0  0  0  0  0  0
   10.9950    9.4512   -2.8806 H   0  0  0  0  0  0  0  0  0  0  0  0
   10.6881   11.2254   -1.1740 H   0  0  0  0  0  0  0  0  0  0  0  0
    7.4082    9.2358    1.3231 H   0  0  0  0  0  0  0  0  0  0  0  0
    8.6841    8.3693    2.3077 H   0  0  0  0  0  0  0  0  0  0  0  0
    7.3441    6.6045   -1.3664 H   0  0  0  0  0  0  0  0  0  0  0  0
    8.7689    5.6322   -0.9938 H   0  0  0  0  0  0  0  0  0  0  0  0
    6.4574    4.7871   -0.2816 H   0  0  0  0  0  0  0  0  0  0  0  0
    5.8962    8.1709   -0.2949 H   0  0  0  0  0  0  0  0  0  0  0  0
    5.0421    8.2941    1.2404 H   0  0  0  0  0  0  0  0  0  0  0  0
    4.3789    6.1169    1.2403 H   0  0  0  0  0  0  0  0  0  0  0  0
    8.6934   10.3093    2.8087 H   0  0  0  0  0  0  0  0  0  0  0  0
    8.5523   12.0007    2.6618 H   0  0  0  0  0  0  0  0  0  0  0  0
    7.1480    3.8976    2.0805 H   0  0  0  0  0  0  0  0  0  0  0  0
    6.0565    5.0599    2.7907 H   0  0  0  0  0  0  0  0  0  0  0  0
    4.8890    3.0729    2.6009 H   0  0  0  0  0  0  0  0  0  0  0  0
    4.1514    4.0758    1.4613 H   0  0  0  0  0  0  0  0  0  0  0  0
    4.5228    2.7010   -0.2573 H   0  0  0  0  0  0  0  0  0  0  0  0
    5.2503    0.4984    0.0296 H   0  0  0  0  0  0  0  0  0  0  0  0
    6.5229    0.9062    1.1278 H   0  0  0  0  0  0  0  0  0  0  0  0
    4.8704   -0.2918    2.3746 H   0  0  0  0  0  0  0  0  0  0  0  0
    4.9409    1.2793    3.0049 H   0  0  0  0  0  0  0  0  0  0  0  0
    2.5833    0.7058    2.7573 H   0  0  0  0  0  0  0  0  0  0  0  0
    2.9015    1.9761    1.5976 H   0  0  0  0  0  0  0  0  0  0  0  0
    1.5867    0.1832    0.5458 H   0  0  0  0  0  0  0  0  0  0  0  0
    3.1397    0.3294   -0.2448 H   0  0  0  0  0  0  0  0  0  0  0  0
    2.4644   -1.7158    1.9309 H   0  0  0  0  0  0  0  0  0  0  0  0
    2.6210   -2.0619    0.1872 H   0  0  0  0  0  0  0  0  0  0  0  0
    4.0308   -1.6075    1.1164 H   0  0  0  0  0  0  0  0  0  0  0  0
    6.6141    9.4732    3.0901 H   0  0  0  0  0  0  0  0  0  0  0  0
    3.8951    6.7756   -0.9205 H   0  0  0  0  0  0  0  0  0  0  0  0
    7.2869    2.8061    0.3572 H   0  0  0  0  0  0  0  0  0  0  0  0
  1  2  1  0  0  0  0
  1  6  2  0  0  0  0
  1 10  1  0  0  0  0
  2  3  2  0  0  0  0
  2 31  1  0  0  0  0
  3  4  1  0  0  0  0
  3 32  1  0  0  0  0
  4  5  2  0  0  0  0
  4 33  1  0  0  0  0
  5  6  1  0  0  0  0
  5 14  1  0  0  0  0
  6  7  1  0  0  0  0
  7  8  1  0  0  0  0
  7 34  1  0  0  0  0
  7 35  1  0  0  0  0
  8 12  1  0  0  0  0
  8 30  1  1  0  0  0
  9 10  1  0  0  0  0
  9  8  1  0  0  0  0
  9 29  1  1  0  0  0
 10 36  1  0  0  0  0
 10 37  1  0  0  0  0
 11  9  1  0  0  0  0
 11 13  1  0  0  0  0
 11 17  1  0  0  0  0
 11 38  1  6  0  0  0
 12 13  1  0  0  0  0
 12 39  1  0  0  0  0
 12 40  1  0  0  0  0
 13 41  1  1  0  0  0
 13 27  1  0  0  0  0
 14 15  1  0  0  0  0
 15 16  1  0  0  0  0
 15 42  1  0  0  0  0
 15 43  1  0  0  0  0
 16 25  1  0  0  0  0
 16 26  2  0  0  0  0
 17 18  1  0  0  0  0
 17 44  1  0  0  0  0
 17 45  1  0  0  0  0
 18 46  1  0  0  0  0
 18 47  1  0  0  0  0
 19 28  1  0  0  0  0
 19 48  1  6  0  0  0
 19 20  1  0  0  0  0
 19 18  1  0  0  0  0
 20 21  1  0  0  0  0
 20 49  1  0  0  0  0
 20 50  1  0  0  0  0
 21 22  1  0  0  0  0
 21 51  1  0  0  0  0
 21 52  1  0  0  0  0
 22 23  1  0  0  0  0
 22 53  1  0  0  0  0
 22 54  1  0  0  0  0
 23 24  1  0  0  0  0
 23 55  1  0  0  0  0
 23 56  1  0  0  0  0
 24 57  1  0  0  0  0
 24 58  1  0  0  0  0
 24 59  1  0  0  0  0
 25 60  1  0  0  0  0
 27 61  1  0  0  0  0
 28 62  1  0  0  0  0
M  END
>  <DRUGBANK_ID>
DB00374

>  <SECONDARY_ACCESSION_NUMBERS>
APRD01272

>  <COMMON_NAME>
Treprostinil

>  <CAS_NUMBER>
81846-19-7

>  <UNII>
RUM6K67ESG

>  <SYNONYMS>
Tr√©prostinil; Treprostinil; Treprostinilo; Treprostinilum

$$$$
