792
 OpenBabel10282417163D

 52 54  0  0  0  0  0  0  0  0999 V2000
   -6.4146   -3.0112    5.8494 C   0  0  0  0  0  0  0  0  0  0  0  0
   -5.3680   -3.0940    4.9597 C   0  0  0  0  0  0  0  0  0  0  0  0
   -4.7371   -2.0404    4.1921 C   0  0  0  0  0  0  0  0  0  0  0  0
   -5.3014   -0.8243    4.2943 C   0  0  0  0  0  0  0  0  0  0  0  0
   -6.2195   -0.6643    5.3091 C   0  0  0  0  0  0  0  0  0  0  0  0
   -6.7623   -1.7107    6.0778 C   0  0  0  0  0  0  0  0  0  0  0  0
   -3.9050   -5.9272    2.3231 S   0  0  0  0  0  0  0  0  0  0  0  0
   -5.9054   -4.8841    1.9638 C   0  0  0  0  0  0  0  0  0  0  0  0
   -6.2063   -3.3091    1.8127 C   0  0  0  0  0  0  0  0  0  0  0  0
   -7.1953   -2.5032    2.3773 C   0  0  0  0  0  0  0  0  0  0  0  0
   -8.1308   -3.2252    2.9604 C   0  0  0  0  0  0  0  0  0  0  0  0
   -8.0184   -4.6699    3.0611 C   0  0  0  0  0  0  0  0  0  0  0  0
   -6.9312   -5.5036    2.6182 C   0  0  0  0  0  0  0  0  0  0  0  0
   -9.1517   -2.3796    3.2414 O   0  0  0  0  0  0  0  0  0  0  0  0
  -10.3014   -3.0990    3.0758 C   0  0  0  0  0  0  0  0  0  0  0  0
  -10.3737   -4.0058    1.8580 C   0  0  0  0  0  0  0  0  0  0  0  0
  -10.4356   -4.7836    0.8134 C   0  0  0  0  0  0  0  0  0  0  0  0
  -10.5079   -5.6903   -0.4044 C   0  0  0  0  0  0  0  0  0  0  0  0
   -4.2079   -7.3654    2.0884 O   0  0  0  0  0  0  0  0  0  0  0  0
   -3.1685   -5.7089    3.5487 O   0  0  0  0  0  0  0  0  0  0  0  0
   -4.8963   -4.2170    4.4312 N   0  0  0  0  0  0  0  0  0  0  0  0
   -4.1935   -3.7166    3.4198 C   0  0  0  0  0  0  0  0  0  0  0  0
   -3.8941   -2.4617    3.1417 C   0  0  0  0  0  0  0  0  0  0  0  0
   -3.5787   -2.3488    1.5456 C   0  0  0  0  0  0  0  0  0  0  0  0
   -2.4335   -3.3384    1.2437 C   0  0  2  0  0  0  0  0  0  0  0  0
   -1.8170   -2.9108   -0.0932 C   0  0  0  0  0  0  0  0  0  0  0  0
   -2.9133   -5.0381    1.0828 N   0  0  0  0  0  0  0  0  0  0  0  0
   -1.8233   -1.5859   -0.3941 O   0  0  0  0  0  0  0  0  0  0  0  0
   -1.3405   -3.7097   -0.8891 O   0  0  0  0  0  0  0  0  0  0  0  0
   -6.5563    0.7432    5.5354 C   0  0  0  0  0  0  0  0  0  0  0  0
   -1.7050   -3.2158    2.0461 H   0  0  0  0  0  0  0  0  0  0  0  0
   -6.9214   -3.8748    6.2855 H   0  0  0  0  0  0  0  0  0  0  0  0
   -5.0520   -0.1093    3.5319 H   0  0  0  0  0  0  0  0  0  0  0  0
   -7.4840   -1.5123    6.8546 H   0  0  0  0  0  0  0  0  0  0  0  0
   -5.5938   -2.4476    1.6260 H   0  0  0  0  0  0  0  0  0  0  0  0
   -7.1788   -1.4040    2.5514 H   0  0  0  0  0  0  0  0  0  0  0  0
   -8.8602   -5.1907    3.5019 H   0  0  0  0  0  0  0  0  0  0  0  0
   -6.8656   -6.5423    2.9062 H   0  0  0  0  0  0  0  0  0  0  0  0
  -10.4406   -3.7042    3.9840 H   0  0  0  0  0  0  0  0  0  0  0  0
  -11.1743   -2.4351    3.0563 H   0  0  0  0  0  0  0  0  0  0  0  0
  -11.4743   -6.2012   -0.4314 H   0  0  0  0  0  0  0  0  0  0  0  0
  -10.3913   -5.0986   -1.3165 H   0  0  0  0  0  0  0  0  0  0  0  0
   -9.7104   -6.4372   -0.3595 H   0  0  0  0  0  0  0  0  0  0  0  0
   -5.3494   -5.1411    4.5014 H   0  0  0  0  0  0  0  0  0  0  0  0
   -4.2409   -4.0761    2.4570 H   0  0  0  0  0  0  0  0  0  0  0  0
   -4.2739   -2.7823    0.7623 H   0  0  0  0  0  0  0  0  0  0  0  0
   -3.6420   -1.2987    1.2599 H   0  0  0  0  0  0  0  0  0  0  0  0
   -3.4232   -5.1223    0.2149 H   0  0  0  0  0  0  0  0  0  0  0  0
   -2.1836   -0.9192    0.2208 H   0  0  0  0  0  0  0  0  0  0  0  0
   -5.5964    1.2629    5.6257 H   0  0  0  0  0  0  0  0  0  0  0  0
   -7.1159    1.1257    4.6807 H   0  0  0  0  0  0  0  0  0  0  0  0
   -7.1091    0.8148    6.4619 H   0  0  0  0  0  0  0  0  0  0  0  0
  1  2  1  0  0  0  0
  1 32  1  0  0  0  0
  2 21  1  0  0  0  0
  3  2  2  0  0  0  0
  3 23  1  0  0  0  0
  4  3  1  0  0  0  0
  4 33  1  0  0  0  0
  5  4  2  0  0  0  0
  5  6  1  0  0  0  0
  6  1  2  0  0  0  0
  6 34  1  0  0  0  0
  7  8  1  0  0  0  0
  7 19  2  0  0  0  0
  8 13  1  0  0  0  0
  9  8  2  0  0  0  0
  9 10  1  0  0  0  0
  9 35  1  0  0  0  0
 10 11  2  0  0  0  0
 10 36  1  0  0  0  0
 11 14  1  0  0  0  0
 11 12  1  0  0  0  0
 12 37  1  0  0  0  0
 13 12  2  0  0  0  0
 13 38  1  0  0  0  0
 14 15  1  0  0  0  0
 15 16  1  0  0  0  0
 15 39  1  0  0  0  0
 15 40  1  0  0  0  0
 16 17  3  0  0  0  0
 17 18  1  0  0  0  0
 18 41  1  0  0  0  0
 18 42  1  0  0  0  0
 18 43  1  0  0  0  0
 20  7  2  0  0  0  0
 21 44  1  0  0  0  0
 22 21  1  0  0  0  0
 22 45  1  0  0  0  0
 23 22  2  0  0  0  0
 24 23  1  0  0  0  0
 24 46  1  0  0  0  0
 24 47  1  0  0  0  0
 25 27  1  0  0  0  0
 25 31  1  1  0  0  0
 25 26  1  0  0  0  0
 25 24  1  0  0  0  0
 26 28  1  0  0  0  0
 27  7  1  0  0  0  0
 27 48  1  0  0  0  0
 28 49  1  0  0  0  0
 29 26  2  0  0  0  0
 30  5  1  0  0  0  0
 30 50  1  0  0  0  0
 30 51  1  0  0  0  0
 30 52  1  0  0  0  0
M  END
>  <DRUGBANK_ID>
DB07233

>  <COMMON_NAME>
N-{[4-(but-2-yn-1-yloxy)phenyl]sulfonyl}-5-methyl-D-tryptophan

$$$$
