
 OpenBabel10282417213D

 25 25  0  0  1  0  0  0  0  0999 V2000
   -0.7282    1.1956    0.0319 C   0  0  0  0  0  0  0  0  0  0  0  0
   -1.3511   -0.0606    0.0528 C   0  0  0  0  0  0  0  0  0  0  0  0
   -0.5435   -1.1866    0.2476 C   0  0  0  0  0  0  0  0  0  0  0  0
    0.8429   -1.1215    0.1827 C   0  0  0  0  0  0  0  0  0  0  0  0
    1.4450    0.1127   -0.0061 C   0  0  0  0  0  0  0  0  0  0  0  0
    0.6671    1.2722   -0.0295 C   0  0  0  0  0  0  0  0  0  0  0  0
    1.2994    2.4791   -0.1365 O   0  0  0  0  0  0  0  0  0  0  0  0
    2.7995    0.2102   -0.1538 O   0  0  0  0  0  0  0  0  0  0  0  0
   -1.1117   -2.3871    0.4397 F   0  0  0  0  0  0  0  0  0  0  0  0
   -2.8361   -0.2212   -0.2006 C   0  0  0  0  0  0  0  0  0  0  0  0
   -3.2043   -0.8554   -1.5733 C   0  0  1  0  0  0  0  0  0  0  0  0
   -2.7267   -2.3085   -1.7453 C   0  0  0  0  0  0  0  0  0  0  0  0
   -3.4129   -3.3157   -1.5910 O   0  0  0  0  0  0  0  0  0  0  0  0
   -1.4223   -2.4154   -2.0598 O   0  0  0  0  0  0  0  0  0  0  0  0
   -4.6886   -0.8355   -1.7199 N   0  0  0  0  0  0  0  0  0  0  0  0
   -1.3285    2.1011    0.0544 H   0  0  0  0  0  0  0  0  0  0  0  0
    1.4126   -2.0390    0.2607 H   0  0  0  0  0  0  0  0  0  0  0  0
    0.6443    3.1911   -0.1791 H   0  0  0  0  0  0  0  0  0  0  0  0
    3.1874   -0.6773   -0.1950 H   0  0  0  0  0  0  0  0  0  0  0  0
   -3.2771   -0.7940    0.6246 H   0  0  0  0  0  0  0  0  0  0  0  0
   -3.3014    0.7751   -0.1574 H   0  0  0  0  0  0  0  0  0  0  0  0
   -2.7859   -0.2658   -2.3974 H   0  0  0  0  0  0  0  0  0  0  0  0
   -1.1638   -3.3029   -1.7285 H   0  0  0  0  0  0  0  0  0  0  0  0
   -4.9229   -1.3237   -2.5887 H   0  0  0  0  0  0  0  0  0  0  0  0
   -5.0771   -1.4482   -0.9958 H   0  0  0  0  0  0  0  0  0  0  0  0
  1  2  2  0  0  0  0
  1  6  1  0  0  0  0
  1 16  1  0  0  0  0
  2  3  1  0  0  0  0
  2 10  1  0  0  0  0
  3  4  2  0  0  0  0
  3  9  1  0  0  0  0
  4  5  1  0  0  0  0
  4 17  1  0  0  0  0
  5  6  2  0  0  0  0
  5  8  1  0  0  0  0
  6  7  1  0  0  0  0
  7 18  1  0  0  0  0
  8 19  1  0  0  0  0
 10 11  1  0  0  0  0
 10 20  1  0  0  0  0
 10 21  1  0  0  0  0
 11 12  1  0  0  0  0
 11 15  1  0  0  0  0
 11 22  1  6  0  0  0
 12 13  2  0  0  0  0
 12 14  1  0  0  0  0
 14 23  1  0  0  0  0
 15 24  1  0  0  0  0
 15 25  1  0  0  0  0
M  ISO  1   9  18
M  END
>  <DRUGBANK_ID>
DB13848

>  <COMMON_NAME>
Fluorodopa (18F)

>  <CAS_NUMBER>
92812-82-3

>  <UNII>
2C598205QX

>  <SYNONYMS>
6-Fluoro-(18F)-L-3,4-Dihydroxyphenylalanine; Fluorodopa (18F); Fluorodopa F-18; L-3,4-Dihydroxy-6-[18F]Fluorophenylalanine

$$$$
