
 OpenBabel10282417203D

 42 43  0  0  0  0  0  0  0  0999 V2000
    1.3440   -0.2250    0.0360 C   0  0  0  0  0  0  0  0  0  0  0  0
    0.5020   -1.2510   -0.0040 C   0  0  0  0  0  0  0  0  0  0  0  0
   -0.8560   -1.0420    0.0030 C   0  0  0  0  0  0  0  0  0  0  0  0
   -1.3730    0.2230   -0.0410 C   0  0  0  0  0  0  0  0  0  0  0  0
   -0.5090    1.2150    0.0750 C   0  0  0  0  0  0  0  0  0  0  0  0
    0.8920    1.0800   -0.0700 C   0  0  0  0  0  0  0  0  0  0  0  0
    1.7867    2.2212   -0.3113 N   0  0  0  0  0  0  0  0  0  0  0  0
    1.2343    3.5797   -0.4122 C   0  0  0  0  0  0  0  0  0  0  0  0
    1.8438    4.4562    0.6698 C   0  0  0  0  0  0  0  0  0  0  0  0
    3.3026    4.5062    0.4957 N   0  0  0  0  0  0  0  0  0  0  0  0
    3.9713    5.7945    0.2627 C   0  0  0  0  0  0  0  0  0  0  0  0
    3.6278    6.8363    1.0109 C   0  0  0  0  0  0  0  0  0  0  0  0
    4.3288    8.0154    0.9322 C   0  0  0  0  0  0  0  0  0  0  0  0
    5.3351    8.1756    0.0206 C   0  0  0  0  0  0  0  0  0  0  0  0
    5.6961    7.0976   -0.6514 C   0  0  0  0  0  0  0  0  0  0  0  0
    4.9371    5.9057   -0.7240 C   0  0  0  0  0  0  0  0  0  0  0  0
    6.1913    9.9031   -0.2715 As  0  0  0  0  0  0  0  0  0  0  0  0
    7.8087    9.7808    0.0612 O   0  0  0  0  0  0  0  0  0  0  0  0
    5.9614   10.4151   -2.0343 O   0  0  0  0  0  0  0  0  0  0  0  0
    5.4264   11.1667    0.8424 O   0  0  0  0  0  0  0  0  0  0  0  0
   -2.0633   -2.5715    0.0767 As  0  0  0  0  0  0  0  0  0  0  0  0
   -3.0028   -2.4681    1.4363 O   0  0  0  0  0  0  0  0  0  0  0  0
   -3.1468   -2.5748   -1.4228 O   0  0  0  0  0  0  0  0  0  0  0  0
   -1.0756   -4.1349    0.1272 O   0  0  0  0  0  0  0  0  0  0  0  0
    2.3915   -0.4099    0.1523 H   0  0  0  0  0  0  0  0  0  0  0  0
    0.8845   -2.2496   -0.0420 H   0  0  0  0  0  0  0  0  0  0  0  0
   -2.4212    0.3997   -0.1629 H   0  0  0  0  0  0  0  0  0  0  0  0
   -0.8953    2.1885    0.2939 H   0  0  0  0  0  0  0  0  0  0  0  0
    2.7907    2.0704   -0.4086 H   0  0  0  0  0  0  0  0  0  0  0  0
    1.4649    3.9880   -1.3739 H   0  0  0  0  0  0  0  0  0  0  0  0
    0.1724    3.5433   -0.2855 H   0  0  0  0  0  0  0  0  0  0  0  0
    1.4418    5.4450    0.5963 H   0  0  0  0  0  0  0  0  0  0  0  0
    1.6132    4.0479    1.6315 H   0  0  0  0  0  0  0  0  0  0  0  0
    3.8509    3.6471    0.5366 H   0  0  0  0  0  0  0  0  0  0  0  0
    2.7975    6.7568    1.6811 H   0  0  0  0  0  0  0  0  0  0  0  0
    4.0837    8.8197    1.5940 H   0  0  0  0  0  0  0  0  0  0  0  0
    6.6272    7.1277   -1.1777 H   0  0  0  0  0  0  0  0  0  0  0  0
    5.0949    5.1581   -1.4730 H   0  0  0  0  0  0  0  0  0  0  0  0
    6.3748    9.7321   -2.6364 H   0  0  0  0  0  0  0  0  0  0  0  0
    5.8655   12.0526    0.6926 H   0  0  0  0  0  0  0  0  0  0  0  0
   -3.6807   -1.7297   -1.4500 H   0  0  0  0  0  0  0  0  0  0  0  0
   -1.6947   -4.9193    0.1650 H   0  0  0  0  0  0  0  0  0  0  0  0
  1  2  2  0  0  0  0
  1  6  1  0  0  0  0
  1 25  1  0  0  0  0
  2  3  1  0  0  0  0
  2 26  1  0  0  0  0
  3  4  2  0  0  0  0
  3 21  1  0  0  0  0
  4  5  1  0  0  0  0
  4 27  1  0  0  0  0
  5  6  2  0  0  0  0
  5 28  1  0  0  0  0
  6  7  1  0  0  0  0
  7  8  1  0  0  0  0
  7 29  1  0  0  0  0
  8  9  1  0  0  0  0
  8 30  1  0  0  0  0
  8 31  1  0  0  0  0
  9 10  1  0  0  0  0
  9 32  1  0  0  0  0
  9 33  1  0  0  0  0
 10 11  1  0  0  0  0
 10 34  1  0  0  0  0
 11 12  2  0  0  0  0
 11 16  1  0  0  0  0
 12 13  1  0  0  0  0
 12 35  1  0  0  0  0
 13 14  2  0  0  0  0
 13 36  1  0  0  0  0
 14 15  1  0  0  0  0
 14 17  1  0  0  0  0
 15 16  2  0  0  0  0
 15 37  1  0  0  0  0
 16 38  1  0  0  0  0
 17 18  2  0  0  0  0
 17 19  1  0  0  0  0
 17 20  1  0  0  0  0
 19 39  1  0  0  0  0
 20 40  1  0  0  0  0
 21 22  2  0  0  0  0
 21 23  1  0  0  0  0
 21 24  1  0  0  0  0
 23 41  1  0  0  0  0
 24 42  1  0  0  0  0
M  END
>  <DRUGBANK_ID>
DB13599

>  <COMMON_NAME>
Difetarsone

>  <CAS_NUMBER>
3639-19-8

>  <UNII>
G4G9J3Q65W

>  <SYNONYMS>
Difetarsone

$$$$
