MAX
 OpenBabel10282417133D

 48 50  0  0  0  0  0  0  0  0999 V2000
   -1.1190   -1.2017   -0.0350 C   0  0  0  0  0  0  0  0  0  0  0  0
    0.2973   -1.2343   -0.0019 C   0  0  0  0  0  0  0  0  0  0  0  0
    0.9981   -0.0194   -0.0054 C   0  0  0  0  0  0  0  0  0  0  0  0
    0.3091    1.1740   -0.0893 C   0  0  0  0  0  0  0  0  0  0  0  0
   -1.0622    1.1795   -0.2335 C   0  0  0  0  0  0  0  0  0  0  0  0
   -1.8183    0.0103   -0.1234 C   0  0  0  0  0  0  0  0  0  0  0  0
   -3.3314    0.0771   -0.0408 C   0  0  0  0  0  0  0  0  0  0  0  0
   -3.9173    0.8116    1.2054 C   0  0  1  0  0  0  0  0  0  0  0  0
   -3.4243    0.2196    2.5118 C   0  0  0  0  0  0  0  0  0  0  0  0
   -2.2788    0.9715    2.8975 O   0  0  0  0  0  0  0  0  0  0  0  0
   -2.2691    2.1694    2.2436 C   0  0  0  0  0  0  0  0  0  0  0  0
   -3.4540    2.2593    1.2949 C   0  0  2  0  0  0  0  0  0  0  0  0
   -1.4092    3.0139    2.4031 O   0  0  0  0  0  0  0  0  0  0  0  0
   -4.4740    3.2720    1.7823 C   0  0  0  0  0  0  0  0  0  0  0  0
   -3.8843    4.6674    1.7609 C   0  0  0  0  0  0  0  0  0  0  0  0
   -3.3715    5.2207    0.5818 C   0  0  0  0  0  0  0  0  0  0  0  0
   -2.7618    6.4692    0.6009 C   0  0  0  0  0  0  0  0  0  0  0  0
   -2.6711    7.2051    1.7817 C   0  0  0  0  0  0  0  0  0  0  0  0
   -3.1802    6.6800    2.9768 C   0  0  0  0  0  0  0  0  0  0  0  0
   -3.7710    5.4018    2.9480 C   0  0  0  0  0  0  0  0  0  0  0  0
   -3.2112    7.2188    4.2341 O   0  0  0  0  0  0  0  0  0  0  0  0
   -2.7029    8.5216    4.4204 C   0  0  0  0  0  0  0  0  0  0  0  0
   -2.0634    8.4096    1.5702 O   0  0  0  0  0  0  0  0  0  0  0  0
    2.3387    0.2168    0.0478 O   0  0  0  0  0  0  0  0  0  0  0  0
    0.7937   -2.5111    0.0490 O   0  0  0  0  0  0  0  0  0  0  0  0
    2.1995   -2.6701    0.0661 C   0  0  0  0  0  0  0  0  0  0  0  0
   -5.0096    0.7400    1.1408 H   0  0  0  0  0  0  0  0  0  0  0  0
   -3.1685    2.5829    0.2975 H   0  0  0  0  0  0  0  0  0  0  0  0
   -1.6730   -2.1395    0.0134 H   0  0  0  0  0  0  0  0  0  0  0  0
    0.8416    2.1202   -0.0359 H   0  0  0  0  0  0  0  0  0  0  0  0
   -1.4900    2.1638   -0.3541 H   0  0  0  0  0  0  0  0  0  0  0  0
   -3.7007    0.5717   -0.9499 H   0  0  0  0  0  0  0  0  0  0  0  0
   -3.7527   -0.9370   -0.0670 H   0  0  0  0  0  0  0  0  0  0  0  0
   -4.1642    0.3271    3.3103 H   0  0  0  0  0  0  0  0  0  0  0  0
   -3.1594   -0.8385    2.4263 H   0  0  0  0  0  0  0  0  0  0  0  0
   -5.3425    3.2641    1.1118 H   0  0  0  0  0  0  0  0  0  0  0  0
   -4.8305    3.0066    2.7825 H   0  0  0  0  0  0  0  0  0  0  0  0
   -3.4024    4.6843   -0.3623 H   0  0  0  0  0  0  0  0  0  0  0  0
   -2.3425    6.8827   -0.3131 H   0  0  0  0  0  0  0  0  0  0  0  0
   -4.1283    4.9648    3.8799 H   0  0  0  0  0  0  0  0  0  0  0  0
   -1.6266    8.5369    4.2209 H   0  0  0  0  0  0  0  0  0  0  0  0
   -3.2591    9.2397    3.8082 H   0  0  0  0  0  0  0  0  0  0  0  0
   -2.8377    8.8153    5.4635 H   0  0  0  0  0  0  0  0  0  0  0  0
   -1.9544    8.9136    2.3789 H   0  0  0  0  0  0  0  0  0  0  0  0
    2.8624   -0.5793   -0.0362 H   0  0  0  0  0  0  0  0  0  0  0  0
    2.6392   -2.2731   -0.8564 H   0  0  0  0  0  0  0  0  0  0  0  0
    2.6235   -2.2133    0.9676 H   0  0  0  0  0  0  0  0  0  0  0  0
    2.4489   -3.7320    0.1004 H   0  0  0  0  0  0  0  0  0  0  0  0
  1  2  2  0  0  0  0
  1  6  1  0  0  0  0
  1 29  1  0  0  0  0
  2  3  1  0  0  0  0
  2 25  1  0  0  0  0
  3  4  2  0  0  0  0
  3 24  1  0  0  0  0
  4  5  1  0  0  0  0
  4 30  1  0  0  0  0
  5  6  2  0  0  0  0
  5 31  1  0  0  0  0
  6  7  1  0  0  0  0
  7 32  1  0  0  0  0
  7 33  1  0  0  0  0
  8  7  1  0  0  0  0
  8  9  1  0  0  0  0
  8 12  1  0  0  0  0
  8 27  1  6  0  0  0
  9 10  1  0  0  0  0
  9 34  1  0  0  0  0
  9 35  1  0  0  0  0
 10 11  1  0  0  0  0
 11 12  1  0  0  0  0
 11 13  2  0  0  0  0
 12 14  1  0  0  0  0
 12 28  1  6  0  0  0
 14 15  1  0  0  0  0
 14 36  1  0  0  0  0
 14 37  1  0  0  0  0
 15 16  2  0  0  0  0
 15 20  1  0  0  0  0
 16 17  1  0  0  0  0
 16 38  1  0  0  0  0
 17 18  2  0  0  0  0
 17 39  1  0  0  0  0
 18 19  1  0  0  0  0
 18 23  1  0  0  0  0
 19 20  2  0  0  0  0
 19 21  1  0  0  0  0
 20 40  1  0  0  0  0
 21 22  1  0  0  0  0
 22 41  1  0  0  0  0
 22 42  1  0  0  0  0
 22 43  1  0  0  0  0
 23 44  1  0  0  0  0
 24 45  1  0  0  0  0
 25 26  1  0  0  0  0
 26 46  1  0  0  0  0
 26 47  1  0  0  0  0
 26 48  1  0  0  0  0
M  END
>  <DRUGBANK_ID>
DB04200

>  <SECONDARY_ACCESSION_NUMBERS>
EXPT02118

>  <COMMON_NAME>
Matairesinol

>  <CAS_NUMBER>
580-72-3

>  <UNII>
XLW63P8WUA

>  <SYNONYMS>
(âˆ’)-matairesinol; 3R,4R-Bis((4-hydroxy-3-methoxyphenyl)methyl)dihydro-2(3H)-furanone; Artigenin congener; Matairesinol

$$$$
