
 OpenBabel10282417143D

 18 17  0  0  1  0  0  0  0  0999 V2000
    0.9570    0.1215    0.2460 N   0  0  0  0  0  0  0  0  0  0  0  0
    0.4032    1.3464   -0.3388 C   0  0  1  0  0  0  0  0  0  0  0  0
    0.9410    1.6340   -1.7516 C   0  0  0  0  0  0  0  0  0  0  0  0
    0.4425    0.5459   -3.1361 S   0  0  0  0  0  0  0  0  0  0  0  0
    1.0338   -1.4096   -2.7085 S   0  0  0  0  0  0  0  0  0  0  0  0
    2.6373   -1.2771   -2.5852 O   0  0  0  0  0  0  0  0  0  0  0  0
    0.5340   -1.8240   -1.4231 O   0  0  0  0  0  0  0  0  0  0  0  0
    0.7943   -2.2025   -3.8966 O   0  0  0  0  0  0  0  0  0  0  0  0
   -1.1386    1.3083   -0.3345 C   0  0  0  0  0  0  0  0  0  0  0  0
   -1.7320    2.1590    0.5337 O   0  0  0  0  0  0  0  0  0  0  0  0
   -1.8066    0.5817   -1.0578 O   0  0  0  0  0  0  0  0  0  0  0  0
    0.5073   -0.6851   -0.2264 H   0  0  0  0  0  0  0  0  0  0  0  0
    1.9424    0.0079    0.0008 H   0  0  0  0  0  0  0  0  0  0  0  0
    0.7338    2.1559    0.3246 H   0  0  0  0  0  0  0  0  0  0  0  0
    0.5985    2.6420   -2.0270 H   0  0  0  0  0  0  0  0  0  0  0  0
    2.0361    1.6934   -1.7325 H   0  0  0  0  0  0  0  0  0  0  0  0
    2.9996   -1.1657   -3.4883 H   0  0  0  0  0  0  0  0  0  0  0  0
   -1.1338    2.6235    1.1459 H   0  0  0  0  0  0  0  0  0  0  0  0
  1 12  1  0  0  0  0
  1 13  1  0  0  0  0
  2  1  1  0  0  0  0
  2  3  1  0  0  0  0
  2  9  1  0  0  0  0
  2 14  1  1  0  0  0
  3  4  1  0  0  0  0
  3 15  1  0  0  0  0
  3 16  1  0  0  0  0
  4  5  1  0  0  0  0
  5  6  1  0  0  0  0
  5  7  2  0  0  0  0
  5  8  2  0  0  0  0
  6 17  1  0  0  0  0
  9 10  1  0  0  0  0
  9 11  2  0  0  0  0
 10 18  1  0  0  0  0
M  END
>  <DRUGBANK_ID>
DB04370

>  <SECONDARY_ACCESSION_NUMBERS>
EXPT01039

>  <COMMON_NAME>
S-sulphocysteine

>  <CAS_NUMBER>
1637-71-4

>  <UNII>
885F2S42LL

>  <SYNONYMS>
Cysteine-S-sulfate; Cysteine-S-sulfonate; Cysteinyl-S-sulfonate; Cysteinyl-S-sulfonic acid; L-cysteine S-sulfate; S-sulfo-L-cysteine; S-sulfocysteine; S-sulpho-L-cysteine

$$$$
