
 OpenBabel10282417213D

 21 21  0  0  0  0  0  0  0  0999 V2000
    1.0853   -0.0421   -0.0806 O   0  0  0  0  0  0  0  0  0  0  0  0
    0.5927   -0.7873    1.0393 C   0  0  3  0  0  0  0  0  0  0  0  0
    1.0797   -2.2272    0.9515 C   0  0  0  0  0  0  0  0  0  0  0  0
    2.4422   -2.2228    0.9743 F   0  0  0  0  0  0  0  0  0  0  0  0
    1.0587   -0.1513    2.3491 C   0  0  0  0  0  0  0  0  0  0  0  0
    0.6540    1.2388    2.4463 N   0  0  0  0  0  0  0  0  0  0  0  0
   -0.6456    1.6311    2.6885 C   0  0  0  0  0  0  0  0  0  0  0  0
   -0.6252    3.0052    2.6672 C   0  0  0  0  0  0  0  0  0  0  0  0
    0.6402    3.4676    2.4272 N   0  0  0  0  0  0  0  0  0  0  0  0
    1.3876    2.3878    2.2797 C   0  0  0  0  0  0  0  0  0  0  0  0
    2.7975    2.4575    1.9717 N   0  3  0  0  0  0  0  0  0  0  0  0
    3.3083    3.5844    1.9024 O   0  5  0  0  0  0  0  0  0  0  0  0
    3.4117    1.3984    1.7970 O   0  0  0  0  0  0  0  0  0  0  0  0
    2.0611   -0.1109   -0.0784 H   0  0  0  0  0  0  0  0  0  0  0  0
   -0.5016   -0.7725    0.9814 H   0  0  0  0  0  0  0  0  0  0  0  0
    0.7303   -2.8226    1.7997 H   0  0  0  0  0  0  0  0  0  0  0  0
    0.7672   -2.6971    0.0157 H   0  0  0  0  0  0  0  0  0  0  0  0
    0.6358   -0.6744    3.2150 H   0  0  0  0  0  0  0  0  0  0  0  0
    2.1382   -0.2322    2.4573 H   0  0  0  0  0  0  0  0  0  0  0  0
   -1.4554    0.9266    2.8268 H   0  0  0  0  0  0  0  0  0  0  0  0
   -1.4576    3.6842    2.8057 H   0  0  0  0  0  0  0  0  0  0  0  0
  1  2  1  0  0  0  0
  1 14  1  0  0  0  0
  2  3  1  0  0  0  0
  2  5  1  0  0  0  0
  2 15  1  0  0  0  0
  3  4  1  0  0  0  0
  3 16  1  0  0  0  0
  3 17  1  0  0  0  0
  5  6  1  0  0  0  0
  5 18  1  0  0  0  0
  5 19  1  0  0  0  0
  6  7  1  0  0  0  0
  6 10  1  0  0  0  0
  7  8  2  0  0  0  0
  7 20  1  0  0  0  0
  8  9  1  0  0  0  0
  8 21  1  0  0  0  0
  9 10  2  0  0  0  0
 10 11  1  0  0  0  0
 11 12  1  0  0  0  0
 11 13  2  0  0  0  0
M  ISO  1   4  18
M  CHG  2  11   1  12  -1
M  END
>  <DRUGBANK_ID>
DB14830

>  <COMMON_NAME>
Fluoromisonidazole F-18

>  <CAS_NUMBER>
104613-87-8

>  <UNII>
8MSY49469G

>  <SYNONYMS>
1-(2-Nitro-Imidazolyl)-3-[18F]Fluoro-2-Propanol; 18F-MISO; 18F-Misonidazole; 1H-1-(3-[18F]Fluoro-2-Hydroxypropyl-2-Nitroimidazole 18F

$$$$
