53T
 OpenBabel10282417163D

 55 57  0  0  0  0  0  0  0  0999 V2000
   -5.3529   -7.0382   -5.5802 N   0  0  0  0  0  0  0  0  0  0  0  0
   -4.9762   -3.1245   -4.0610 C   0  0  0  0  0  0  0  0  0  0  0  0
   -4.0000   -5.4042   -2.4800 C   0  0  0  0  0  0  0  0  0  0  0  0
   -3.4670   -5.1969   -1.4074 C   0  0  0  0  0  0  0  0  0  0  0  0
   -2.7946   -4.9854   -0.0866 C   0  0  2  0  0  0  0  0  0  0  0  0
   -2.0032   -3.6775   -0.0671 C   0  0  0  0  0  0  0  0  0  0  0  0
   -4.7754   -6.8582   -4.3647 C   0  0  0  0  0  0  0  0  0  0  0  0
   -3.1588  -10.0533   -0.0761 C   0  0  0  0  0  0  0  0  0  0  0  0
   -5.7791   -5.9480   -6.2355 C   0  0  0  0  0  0  0  0  0  0  0  0
   -5.0815   -4.5426   -4.5421 C   0  0  0  0  0  0  0  0  0  0  0  0
   -4.6177   -5.6030   -3.7769 C   0  0  0  0  0  0  0  0  0  0  0  0
    3.8629   -5.0057    3.9484 C   0  0  0  0  0  0  0  0  0  0  0  0
    3.4836   -5.7605    2.7105 C   0  0  0  0  0  0  0  0  0  0  0  0
    2.1410   -5.9782    2.3710 C   0  0  0  0  0  0  0  0  0  0  0  0
    4.4884   -6.2711    1.8830 C   0  0  0  0  0  0  0  0  0  0  0  0
    4.1642   -6.9833    0.7257 C   0  0  0  0  0  0  0  0  0  0  0  0
    5.2481   -7.5179   -0.1559 C   0  0  0  0  0  0  0  0  0  0  0  0
    2.8211   -7.1972    0.4055 C   0  0  0  0  0  0  0  0  0  0  0  0
    1.7933   -6.7151    1.2257 C   0  0  0  0  0  0  0  0  0  0  0  0
    0.3929   -6.9802    0.8750 C   0  0  0  0  0  0  0  0  0  0  0  0
   -0.4854   -5.9233    0.6280 C   0  0  0  0  0  0  0  0  0  0  0  0
   -0.0977   -8.2813    0.7366 C   0  0  0  0  0  0  0  0  0  0  0  0
   -1.4306   -8.5157    0.3880 C   0  0  0  0  0  0  0  0  0  0  0  0
   -1.7984   -9.8298    0.2830 O   0  0  0  0  0  0  0  0  0  0  0  0
   -2.2886   -7.4407    0.1634 C   0  0  0  0  0  0  0  0  0  0  0  0
   -1.8295   -6.1277    0.2461 C   0  0  0  0  0  0  0  0  0  0  0  0
   -5.6620   -4.7035   -5.7623 N   0  0  0  0  0  0  0  0  0  0  0  0
   -6.3765   -6.0887   -7.4616 N   0  0  0  0  0  0  0  0  0  0  0  0
   -4.4251   -8.0069   -3.6634 N   0  0  0  0  0  0  0  0  0  0  0  0
   -3.5577   -4.9542    0.7077 H   0  0  0  0  0  0  0  0  0  0  0  0
   -4.3742   -2.5367   -4.7594 H   0  0  0  0  0  0  0  0  0  0  0  0
   -5.9739   -2.6849   -3.9761 H   0  0  0  0  0  0  0  0  0  0  0  0
   -4.5027   -3.0462   -3.0798 H   0  0  0  0  0  0  0  0  0  0  0  0
   -1.1765   -3.7629   -0.7840 H   0  0  0  0  0  0  0  0  0  0  0  0
   -2.5496   -2.7694   -0.3202 H   0  0  0  0  0  0  0  0  0  0  0  0
   -1.5872   -3.5234    0.9392 H   0  0  0  0  0  0  0  0  0  0  0  0
   -3.8374   -9.6362    0.6774 H   0  0  0  0  0  0  0  0  0  0  0  0
   -3.3752   -9.6394   -1.0682 H   0  0  0  0  0  0  0  0  0  0  0  0
   -3.3281  -11.1303   -0.1197 H   0  0  0  0  0  0  0  0  0  0  0  0
    4.4510   -5.6483    4.6121 H   0  0  0  0  0  0  0  0  0  0  0  0
    4.4563   -4.1250    3.6824 H   0  0  0  0  0  0  0  0  0  0  0  0
    2.9803   -4.6672    4.4996 H   0  0  0  0  0  0  0  0  0  0  0  0
    1.3555   -5.5861    3.0150 H   0  0  0  0  0  0  0  0  0  0  0  0
    5.5339   -6.1147    2.1420 H   0  0  0  0  0  0  0  0  0  0  0  0
    5.8653   -6.6948   -0.5277 H   0  0  0  0  0  0  0  0  0  0  0  0
    5.8703   -8.2216    0.4049 H   0  0  0  0  0  0  0  0  0  0  0  0
    4.8313   -8.0465   -1.0191 H   0  0  0  0  0  0  0  0  0  0  0  0
    2.5664   -7.7456   -0.4997 H   0  0  0  0  0  0  0  0  0  0  0  0
   -0.0594   -4.9255    0.7125 H   0  0  0  0  0  0  0  0  0  0  0  0
    0.5677   -9.1230    0.9106 H   0  0  0  0  0  0  0  0  0  0  0  0
   -3.3281   -7.5959   -0.1033 H   0  0  0  0  0  0  0  0  0  0  0  0
   -6.6865   -5.2567   -7.9367 H   0  0  0  0  0  0  0  0  0  0  0  0
   -6.4913   -7.0028   -7.8618 H   0  0  0  0  0  0  0  0  0  0  0  0
   -3.8337   -7.9196   -2.8499 H   0  0  0  0  0  0  0  0  0  0  0  0
   -4.4647   -8.8855   -4.1600 H   0  0  0  0  0  0  0  0  0  0  0  0
  1  7  2  0  0  0  0
  1  9  1  0  0  0  0
  2 10  1  0  0  0  0
  2 31  1  0  0  0  0
  2 32  1  0  0  0  0
  2 33  1  0  0  0  0
  3  4  3  0  0  0  0
  3 11  1  0  0  0  0
  5 26  1  0  0  0  0
  5 30  1  1  0  0  0
  5  6  1  0  0  0  0
  5  4  1  0  0  0  0
  6 34  1  0  0  0  0
  6 35  1  0  0  0  0
  6 36  1  0  0  0  0
  7 11  1  0  0  0  0
  7 29  1  0  0  0  0
  8 24  1  0  0  0  0
  8 37  1  0  0  0  0
  8 38  1  0  0  0  0
  8 39  1  0  0  0  0
  9 27  2  0  0  0  0
  9 28  1  0  0  0  0
 10 11  2  0  0  0  0
 10 27  1  0  0  0  0
 12 13  1  0  0  0  0
 12 40  1  0  0  0  0
 12 41  1  0  0  0  0
 12 42  1  0  0  0  0
 13 14  2  0  0  0  0
 13 15  1  0  0  0  0
 14 19  1  0  0  0  0
 14 43  1  0  0  0  0
 15 16  2  0  0  0  0
 15 44  1  0  0  0  0
 16 17  1  0  0  0  0
 16 18  1  0  0  0  0
 17 45  1  0  0  0  0
 17 46  1  0  0  0  0
 17 47  1  0  0  0  0
 18 19  2  0  0  0  0
 18 48  1  0  0  0  0
 19 20  1  0  0  0  0
 20 21  2  0  0  0  0
 20 22  1  0  0  0  0
 21 26  1  0  0  0  0
 21 49  1  0  0  0  0
 22 23  2  0  0  0  0
 22 50  1  0  0  0  0
 23 24  1  0  0  0  0
 23 25  1  0  0  0  0
 25 26  2  0  0  0  0
 25 51  1  0  0  0  0
 28 52  1  0  0  0  0
 28 53  1  0  0  0  0
 29 54  1  0  0  0  0
 29 55  1  0  0  0  0
M  END
>  <DRUGBANK_ID>
DB07142

>  <COMMON_NAME>
5-[(3R)-3-(5-methoxy-3',5'-dimethylbiphenyl-3-yl)but-1-yn-1-yl]-6-methylpyrimidine-2,4-diamine

$$$$
