
 OpenBabel10282417213D

 83 87  0  0  0  0  0  0  0  0999 V2000
   -0.7964    0.2368    0.2298 O   0  0  0  0  0  0  0  0  0  0  0  0
   -0.5122   -0.7171   -0.7930 C   0  0  1  0  0  0  0  0  0  0  0  0
    0.6434   -1.5984    0.1523 C   0  0  2  0  0  0  0  0  0  0  0  0
    1.5617   -2.6459   -0.1869 O   0  0  0  0  0  0  0  0  0  0  0  0
   -0.2392   -2.2383    1.3793 C   0  0  0  0  0  0  0  0  0  0  0  0
   -1.5618   -2.9985    0.8112 C   0  0  2  0  0  0  0  0  0  0  0  0
   -0.9928   -3.4728   -0.4307 C   0  0  0  0  0  0  0  0  0  0  0  0
   -1.6673   -4.3600    1.4589 C   0  0  1  0  0  0  0  0  0  0  0  0
   -2.0165   -4.3243    3.0792 C   0  0  0  0  0  0  0  0  0  0  0  0
   -3.8253   -5.3777    3.1853 C   0  0  0  0  0  0  0  0  0  0  0  0
   -4.4196   -5.7574    1.9659 C   0  0  0  0  0  0  0  0  0  0  0  0
   -5.9886   -5.1965    0.9670 C   0  0  2  0  0  0  0  0  0  0  0  0
   -7.4179   -6.5859    0.9461 C   0  0  1  0  0  0  0  0  0  0  0  0
   -6.9145   -7.6100    2.5165 C   0  0  0  0  0  0  0  0  0  0  0  0
   -8.2782   -5.6588    0.0708 C   0  0  2  0  0  0  0  0  0  0  0  0
   -7.5912   -5.5064   -1.3117 C   0  0  0  0  0  0  0  0  0  0  0  0
   -8.5564   -4.1996    0.4958 C   0  0  0  0  0  0  0  0  0  0  0  0
   -7.6106   -3.4277    1.3742 C   0  0  0  0  0  0  0  0  0  0  0  0
   -6.3257   -4.0648    1.6949 C   0  0  1  0  0  0  0  0  0  0  0  0
   -6.3259   -5.4809    2.3013 C   0  0  0  0  0  0  0  0  0  0  0  0
   -5.6290   -6.8793    1.1919 O   0  0  0  0  0  0  0  0  0  0  0  0
   -6.5234   -5.4276    3.5282 O   0  0  0  0  0  0  0  0  0  0  0  0
   -5.2897   -2.9665    2.1668 C   0  0  0  0  0  0  0  0  0  0  0  0
   -4.1814   -3.4320    3.0190 C   0  0  0  0  0  0  0  0  0  0  0  0
   -3.3380   -5.0779    2.3003 C   0  0  2  0  0  0  0  0  0  0  0  0
   -2.2456   -6.2290    3.6661 C   0  0  0  0  0  0  0  0  0  0  0  0
   -2.8729   -4.9621    0.9006 C   0  0  1  0  0  0  0  0  0  0  0  0
   -2.5647   -6.3325    0.2807 C   0  0  0  0  0  0  0  0  0  0  0  0
   -3.8534   -4.1800    0.0408 C   0  0  0  0  0  0  0  0  0  0  0  0
   -3.7494   -3.3013   -1.0518 C   0  0  0  0  0  0  0  0  0  0  0  0
   -2.7361   -2.2661   -0.3905 C   0  0  1  0  0  0  0  0  0  0  0  0
   -1.7541   -1.4596   -1.7823 C   0  0  1  0  0  0  0  0  0  0  0  0
   -2.1008   -2.4788   -3.0434 C   0  0  0  0  0  0  0  0  0  0  0  0
   -0.2697   -1.4406   -2.7684 C   0  0  0  0  0  0  0  0  0  0  0  0
   -0.5648   -1.0759   -4.1352 O   0  0  0  0  0  0  0  0  0  0  0  0
   -3.3008   -1.4959    0.1227 H   0  0  0  0  0  0  0  0  0  0  0  0
   -5.8760   -5.3191   -0.0996 H   0  0  0  0  0  0  0  0  0  0  0  0
   -0.8443   -5.0246    1.1355 H   0  0  0  0  0  0  0  0  0  0  0  0
   -0.1709    0.9640   -0.0165 H   0  0  0  0  0  0  0  0  0  0  0  0
   -0.4969    0.1351   -1.4654 H   0  0  0  0  0  0  0  0  0  0  0  0
    1.2972   -0.8225    0.5122 H   0  0  0  0  0  0  0  0  0  0  0  0
    1.8828   -2.5939   -1.0926 H   0  0  0  0  0  0  0  0  0  0  0  0
    0.2690   -2.9809    2.0320 H   0  0  0  0  0  0  0  0  0  0  0  0
   -0.4590   -1.3881    2.0028 H   0  0  0  0  0  0  0  0  0  0  0  0
   -1.6690   -4.0508   -1.0068 H   0  0  0  0  0  0  0  0  0  0  0  0
   -1.0149   -2.4242   -0.3962 H   0  0  0  0  0  0  0  0  0  0  0  0
   -0.1164   -3.5025   -1.0144 H   0  0  0  0  0  0  0  0  0  0  0  0
   -1.2935   -4.3847    3.9072 H   0  0  0  0  0  0  0  0  0  0  0  0
   -1.9757   -3.2576    3.1022 H   0  0  0  0  0  0  0  0  0  0  0  0
   -4.1850   -6.4258    3.7031 H   0  0  0  0  0  0  0  0  0  0  0  0
   -8.2970   -7.0315    1.4272 H   0  0  0  0  0  0  0  0  0  0  0  0
   -6.6850   -8.6248    2.2295 H   0  0  0  0  0  0  0  0  0  0  0  0
   -5.8016   -7.4902    2.8293 H   0  0  0  0  0  0  0  0  0  0  0  0
   -7.1274   -7.2277    3.5132 H   0  0  0  0  0  0  0  0  0  0  0  0
   -9.1713   -6.2258   -0.1767 H   0  0  0  0  0  0  0  0  0  0  0  0
   -6.9917   -4.5784   -1.3859 H   0  0  0  0  0  0  0  0  0  0  0  0
   -6.9319   -6.3545   -1.5285 H   0  0  0  0  0  0  0  0  0  0  0  0
   -8.3662   -5.4288   -2.0628 H   0  0  0  0  0  0  0  0  0  0  0  0
   -9.5970   -4.1524    0.7995 H   0  0  0  0  0  0  0  0  0  0  0  0
   -8.5096   -3.4917   -0.3400 H   0  0  0  0  0  0  0  0  0  0  0  0
   -8.1800   -2.9736    2.1892 H   0  0  0  0  0  0  0  0  0  0  0  0
   -7.2194   -2.5713    0.8001 H   0  0  0  0  0  0  0  0  0  0  0  0
   -5.0957   -7.6938    1.3114 H   0  0  0  0  0  0  0  0  0  0  0  0
   -5.8170   -2.0780    2.4898 H   0  0  0  0  0  0  0  0  0  0  0  0
   -4.6508   -2.3819    1.4845 H   0  0  0  0  0  0  0  0  0  0  0  0
   -4.5147   -3.6177    4.0689 H   0  0  0  0  0  0  0  0  0  0  0  0
   -3.4477   -2.6460    3.0459 H   0  0  0  0  0  0  0  0  0  0  0  0
   -2.3836   -5.5923    4.6861 H   0  0  0  0  0  0  0  0  0  0  0  0
   -2.6630   -7.1888    4.0310 H   0  0  0  0  0  0  0  0  0  0  0  0
   -1.2731   -6.3668    3.2390 H   0  0  0  0  0  0  0  0  0  0  0  0
   -2.0280   -6.9569    1.0032 H   0  0  0  0  0  0  0  0  0  0  0  0
   -3.4557   -6.8840   -0.0426 H   0  0  0  0  0  0  0  0  0  0  0  0
   -1.9494   -6.1476   -0.5869 H   0  0  0  0  0  0  0  0  0  0  0  0
   -4.4912   -4.8730   -0.3943 H   0  0  0  0  0  0  0  0  0  0  0  0
   -4.5563   -3.5093    0.4205 H   0  0  0  0  0  0  0  0  0  0  0  0
   -3.7428   -4.2077   -1.7683 H   0  0  0  0  0  0  0  0  0  0  0  0
   -3.0971   -3.1499   -1.7665 H   0  0  0  0  0  0  0  0  0  0  0  0
   -2.9591   -3.1465   -3.2801 H   0  0  0  0  0  0  0  0  0  0  0  0
   -2.5672   -1.7360   -3.6720 H   0  0  0  0  0  0  0  0  0  0  0  0
   -1.3290   -3.2482   -3.2669 H   0  0  0  0  0  0  0  0  0  0  0  0
    0.4360   -0.6157   -2.6054 H   0  0  0  0  0  0  0  0  0  0  0  0
    0.3717   -2.3326   -2.7026 H   0  0  0  0  0  0  0  0  0  0  0  0
   -1.0148   -1.8221   -4.5657 H   0  0  0  0  0  0  0  0  0  0  0  0
  1 39  1  0  0  0  0
  2 32  1  0  0  0  0
  2 40  1  6  0  0  0
  2  1  1  0  0  0  0
  3  2  1  0  0  0  0
  3  4  1  0  0  0  0
  3 41  1  1  0  0  0
  4 42  1  0  0  0  0
  5  6  1  0  0  0  0
  5  3  1  0  0  0  0
  5 43  1  0  0  0  0
  5 44  1  0  0  0  0
  6  8  1  0  0  0  0
  6 31  1  0  0  0  0
  6  7  1  1  0  0  0
  7 45  1  0  0  0  0
  7 46  1  0  0  0  0
  7 47  1  0  0  0  0
  8  9  1  0  0  0  0
  8 38  1  6  0  0  0
  9 10  1  0  0  0  0
  9 48  1  0  0  0  0
  9 49  1  0  0  0  0
 10 11  2  0  0  0  0
 10 50  1  0  0  0  0
 11 25  1  0  0  0  0
 12 11  1  0  0  0  0
 12 13  1  0  0  0  0
 12 37  1  1  0  0  0
 13 15  1  0  0  0  0
 13 51  1  6  0  0  0
 13 14  1  0  0  0  0
 14 52  1  0  0  0  0
 14 53  1  0  0  0  0
 14 54  1  0  0  0  0
 15 17  1  0  0  0  0
 15 55  1  6  0  0  0
 15 16  1  0  0  0  0
 16 56  1  0  0  0  0
 16 57  1  0  0  0  0
 16 58  1  0  0  0  0
 17 18  1  0  0  0  0
 17 59  1  0  0  0  0
 17 60  1  0  0  0  0
 18 61  1  0  0  0  0
 18 62  1  0  0  0  0
 19 18  1  0  0  0  0
 19 12  1  0  0  0  0
 19 20  1  1  0  0  0
 20 22  2  0  0  0  0
 20 21  1  0  0  0  0
 21 63  1  0  0  0  0
 23 19  1  0  0  0  0
 23 64  1  0  0  0  0
 23 65  1  0  0  0  0
 24 23  1  0  0  0  0
 24 66  1  0  0  0  0
 24 67  1  0  0  0  0
 25 27  1  0  0  0  0
 25 24  1  0  0  0  0
 25 26  1  6  0  0  0
 26 68  1  0  0  0  0
 26 69  1  0  0  0  0
 26 70  1  0  0  0  0
 27  8  1  0  0  0  0
 27 28  1  1  0  0  0
 28 71  1  0  0  0  0
 28 72  1  0  0  0  0
 28 73  1  0  0  0  0
 29 27  1  0  0  0  0
 29 74  1  0  0  0  0
 29 75  1  0  0  0  0
 30 29  1  0  0  0  0
 30 76  1  0  0  0  0
 30 77  1  0  0  0  0
 31 30  1  0  0  0  0
 31 36  1  6  0  0  0
 32 31  1  0  0  0  0
 32 33  1  6  0  0  0
 32 34  1  0  0  0  0
 33 78  1  0  0  0  0
 33 79  1  0  0  0  0
 33 80  1  0  0  0  0
 34 35  1  0  0  0  0
 34 81  1  0  0  0  0
 34 82  1  0  0  0  0
 35 83  1  0  0  0  0
M  END
>  <DRUGBANK_ID>
DB14054

>  <COMMON_NAME>
Asiatic acid

>  <CAS_NUMBER>
464-92-6

>  <UNII>
9PA5A687X5

>  <SYNONYMS>
Dammarolic acid

$$$$
