
 OpenBabel10282417233D

 53 56  0  0  0  0  0  0  0  0999 V2000
    1.0342   -0.0680    0.0648 H   0  0  0  0  0  0  0  0  0  0  0  0
    2.1042   -0.0680    0.0648 C   0  0  0  0  0  0  0  0  0  0  0  0
    2.4608   -0.8535    0.6978 H   0  0  0  0  0  0  0  0  0  0  0  0
    2.4608   -0.2235   -0.9319 H   0  0  0  0  0  0  0  0  0  0  0  0
    2.5942    1.2247    0.5646 N   0  0  0  0  0  0  0  0  0  0  0  0
    1.6389    2.2668    0.9674 C   0  0  0  0  0  0  0  0  0  0  0  0
    2.0626    3.3844    1.3995 O   0  0  0  0  0  0  0  0  0  0  0  0
    0.1445    2.0077    0.8673 C   0  0  0  0  0  0  0  0  0  0  0  0
   -0.3646    0.7733    1.3286 C   0  0  0  0  0  0  0  0  0  0  0  0
    0.5196   -0.2226    1.9510 N   0  0  0  0  0  0  0  0  0  0  0  0
    1.9545    0.0596    2.1002 C   0  0  0  0  0  0  0  0  0  0  0  0
    2.3410    1.1090    2.8163 C   0  0  0  0  0  0  0  0  0  0  0  0
    3.6700    1.3098    3.1016 C   0  0  0  0  0  0  0  0  0  0  0  0
    4.6326    0.4897    2.5816 C   0  0  0  0  0  0  0  0  0  0  0  0
    4.2063   -0.5822    1.9386 C   0  0  0  0  0  0  0  0  0  0  0  0
    5.2129   -1.6865    1.6597 C   0  0  0  0  0  0  0  0  0  0  0  0
    5.5186   -2.1070    0.4405 N   0  0  0  0  0  0  0  0  0  0  0  0
    6.4292   -3.0944    0.6985 N   0  0  0  0  0  0  0  0  0  0  0  0
    6.9536   -3.8751   -0.4305 C   0  0  0  0  0  0  0  0  0  0  0  0
    6.6252   -3.2235    2.0289 C   0  0  0  0  0  0  0  0  0  0  0  0
    5.8704   -2.3319    2.6713 N   0  0  0  0  0  0  0  0  0  0  0  0
    2.8778   -0.7741    1.4911 C   0  0  0  0  0  0  0  0  0  0  0  0
    2.5232   -1.7343    0.5069 O   0  0  0  0  0  0  0  0  0  0  0  0
    1.1681   -1.8724    0.1054 C   0  0  0  0  0  0  0  0  0  0  0  0
   -1.7136    0.5279    1.1793 C   0  0  0  0  0  0  0  0  0  0  0  0
   -2.4910    1.5697    0.6301 C   0  0  0  0  0  0  0  0  0  0  0  0
   -3.9384    1.3657    0.4747 N   0  0  0  0  0  0  0  0  0  0  0  0
   -4.7742    2.4327   -0.0944 C   0  0  0  0  0  0  0  0  0  0  0  0
   -6.0256    2.2563   -0.2287 O   0  0  0  0  0  0  0  0  0  0  0  0
   -4.1417    3.7471   -0.5221 C   0  0  0  0  0  0  0  0  0  0  0  0
   -4.1080    5.0894    0.2128 C   0  0  0  0  0  0  0  0  0  0  0  0
   -4.5117    5.0337   -1.2628 C   0  0  0  0  0  0  0  0  0  0  0  0
   -1.9595    2.7382    0.2448 N   0  0  0  0  0  0  0  0  0  0  0  0
   -0.6365    2.9534    0.3477 N   0  0  0  0  0  0  0  0  0  0  0  0
    3.5970    1.3985    0.6318 H   0  0  0  0  0  0  0  0  0  0  0  0
    0.1374   -1.1095    2.2793 H   0  0  0  0  0  0  0  0  0  0  0  0
    1.6110    1.8044    3.1743 H   0  0  0  0  0  0  0  0  0  0  0  0
    3.9558    2.1196    3.7399 H   0  0  0  0  0  0  0  0  0  0  0  0
    5.6751    0.7048    2.6898 H   0  0  0  0  0  0  0  0  0  0  0  0
    6.1458   -4.3707   -0.9272 H   0  0  0  0  0  0  0  0  0  0  0  0
    7.4472   -3.2204   -1.1181 H   0  0  0  0  0  0  0  0  0  0  0  0
    7.6497   -4.6025   -0.0684 H   0  0  0  0  0  0  0  0  0  0  0  0
    7.2818   -3.9293    2.4932 H   0  0  0  0  0  0  0  0  0  0  0  0
    0.5704   -2.1375    0.9524 H   0  0  0  0  0  0  0  0  0  0  0  0
    0.8202   -0.9455   -0.3005 H   0  0  0  0  0  0  0  0  0  0  0  0
    1.0927   -2.6381   -0.6381 H   0  0  0  0  0  0  0  0  0  0  0  0
   -2.1492   -0.4065    1.4658 H   0  0  0  0  0  0  0  0  0  0  0  0
   -4.3629    0.4837    0.7617 H   0  0  0  0  0  0  0  0  0  0  0  0
   -3.5229    2.9169   -0.7919 H   0  0  0  0  0  0  0  0  0  0  0  0
   -4.5545    5.4748    1.1055 H   0  0  0  0  0  0  0  0  0  0  0  0
   -3.1708    5.5214    0.4951 H   0  0  0  0  0  0  0  0  0  0  0  0
   -4.1760    5.5148   -2.1577 H   0  0  0  0  0  0  0  0  0  0  0  0
   -5.5274    5.2144   -1.5467 H   0  0  0  0  0  0  0  0  0  0  0  0
  1  2  1  0  0  0  0
  2  3  1  0  0  0  0
  2  4  1  0  0  0  0
  2  5  1  0  0  0  0
  5  6  1  0  0  0  0
  5 35  1  0  0  0  0
  6  7  2  0  0  0  0
  6  8  1  0  0  0  0
  8  9  2  0  0  0  0
  8 34  1  0  0  0  0
  9 10  1  0  0  0  0
  9 25  1  0  0  0  0
 10 11  1  0  0  0  0
 10 36  1  0  0  0  0
 11 12  2  0  0  0  0
 11 22  1  0  0  0  0
 12 13  1  0  0  0  0
 12 37  1  0  0  0  0
 13 14  2  0  0  0  0
 13 38  1  0  0  0  0
 14 15  1  0  0  0  0
 14 39  1  0  0  0  0
 15 16  1  0  0  0  0
 15 22  2  0  0  0  0
 16 17  2  0  0  0  0
 16 21  1  0  0  0  0
 17 18  1  0  0  0  0
 18 19  1  0  0  0  0
 18 20  1  0  0  0  0
 19 40  1  0  0  0  0
 19 41  1  0  0  0  0
 19 42  1  0  0  0  0
 20 21  2  0  0  0  0
 20 43  1  0  0  0  0
 22 23  1  0  0  0  0
 23 24  1  0  0  0  0
 24 44  1  0  0  0  0
 24 45  1  0  0  0  0
 24 46  1  0  0  0  0
 25 26  2  0  0  0  0
 25 47  1  0  0  0  0
 26 27  1  0  0  0  0
 26 33  1  0  0  0  0
 27 28  1  0  0  0  0
 27 48  1  0  0  0  0
 28 29  2  0  0  0  0
 28 30  1  0  0  0  0
 30 31  1  0  0  0  0
 30 32  1  0  0  0  0
 30 49  1  0  0  0  0
 31 32  1  0  0  0  0
 31 50  1  0  0  0  0
 31 51  1  0  0  0  0
 32 52  1  0  0  0  0
 32 53  1  0  0  0  0
 33 34  2  0  0  0  0
M  ISO  3   1   2   3   2   4   2
M  END
>  <DRUGBANK_ID>
DB16650

>  <COMMON_NAME>
Deucravacitinib

>  <CAS_NUMBER>
1609392-27-9

>  <UNII>
N0A21N6RAU

>  <SYNONYMS>
Deucravacitinib

$$$$
