
 OpenBabel10282417243D

 79 82  0  0  1  0  0  0  0  0999 V2000
    2.4777    0.0349    0.0462 C   0  0  0  0  0  0  0  0  0  0  0  0
    1.0794    0.0682   -0.3254 N   0  0  0  0  0  0  0  0  0  0  0  0
    0.4595   -1.1123    0.2189 C   0  0  0  0  0  0  0  0  0  0  0  0
   -0.9639   -1.1382   -0.2298 C   0  0  0  0  0  0  0  0  0  0  0  0
   -1.7635   -0.0066    0.1962 N   0  0  0  0  0  0  0  0  0  0  0  0
   -1.1296    1.2578   -0.1536 C   0  0  0  0  0  0  0  0  0  0  0  0
    0.3660    1.2329    0.2465 C   0  0  0  0  0  0  0  0  0  0  0  0
   -3.0191   -0.0365    0.7185 C   0  0  0  0  0  0  0  0  0  0  0  0
   -3.6612    0.9660    1.0408 O   0  0  0  0  0  0  0  0  0  0  0  0
   -3.6319   -1.2129    0.9208 N   0  0  0  0  0  0  0  0  0  0  0  0
   -3.2430   -2.6244    0.7015 C   0  0  1  0  0  0  0  0  0  0  0  0
   -2.6311   -3.3152    1.9224 C   0  0  0  0  0  0  0  0  0  0  0  0
   -3.7195   -3.7363    2.7850 C   0  0  0  0  0  0  0  0  0  0  0  0
   -4.2549   -5.4460    2.5044 C   0  0  0  0  0  0  0  0  0  0  0  0
   -5.9604   -5.8461    3.0269 C   0  0  0  0  0  0  0  0  0  0  0  0
   -6.9802   -4.5567    3.9930 C   0  0  0  0  0  0  0  0  0  0  0  0
   -6.3469   -2.8423    4.2054 C   0  0  0  0  0  0  0  0  0  0  0  0
   -4.7489   -2.4533    3.5639 C   0  0  0  0  0  0  0  0  0  0  0  0
   -4.1042   -3.4348   -0.2766 C   0  0  0  0  0  0  0  0  0  0  0  0
   -3.6459   -3.7879   -1.3651 O   0  0  0  0  0  0  0  0  0  0  0  0
   -5.3802   -3.7379    0.0833 N   0  0  0  0  0  0  0  0  0  0  0  0
   -5.9247   -3.1693    1.2968 C   0  0  1  0  0  0  0  0  0  0  0  0
   -7.2104   -2.4144    1.2207 C   0  0  0  0  0  0  0  0  0  0  0  0
   -8.2989   -3.1484    0.5273 C   0  0  0  0  0  0  0  0  0  0  0  0
   -8.8315   -4.2991    1.2888 C   0  0  0  0  0  0  0  0  0  0  0  0
   -8.9067   -5.3942    0.4945 C   0  0  0  0  0  0  0  0  0  0  0  0
   -9.4081   -6.3608    1.2467 C   0  0  0  0  0  0  0  0  0  0  0  0
   -9.8445   -6.2759    2.8451 C   0  0  0  0  0  0  0  0  0  0  0  0
   -9.5113   -5.2491    3.6107 C   0  0  0  0  0  0  0  0  0  0  0  0
   -9.1731   -4.2141    2.7556 C   0  0  0  0  0  0  0  0  0  0  0  0
   -5.7770   -4.0738    2.5174 C   0  0  0  0  0  0  0  0  0  0  0  0
   -5.1027   -4.5625    4.1075 C   0  0  0  0  0  0  0  0  0  0  0  0
   -5.6220   -6.5299    5.0943 S   0  0  0  0  0  0  0  0  0  0  0  0
   -4.4041   -7.3203    5.0394 O   0  0  0  0  0  0  0  0  0  0  0  0
   -6.3640   -6.2124    6.2996 O   0  0  0  0  0  0  0  0  0  0  0  0
   -7.0262   -7.8524    3.9990 C   0  0  0  0  0  0  0  0  0  0  0  0
   -6.8678   -9.1820    3.7657 C   0  0  0  0  0  0  0  0  0  0  0  0
   -7.8612  -10.0805    2.9505 C   0  0  0  0  0  0  0  0  0  0  0  0
   -9.0247   -9.7681    2.3169 C   0  0  0  0  0  0  0  0  0  0  0  0
   -8.9760   -8.4814    2.3308 C   0  0  0  0  0  0  0  0  0  0  0  0
   -7.8209   -7.5825    2.9136 C   0  0  0  0  0  0  0  0  0  0  0  0
    2.9770    0.9056   -0.3734 H   0  0  0  0  0  0  0  0  0  0  0  0
    2.6080    0.0131    1.1330 H   0  0  0  0  0  0  0  0  0  0  0  0
    2.9514   -0.8607   -0.3763 H   0  0  0  0  0  0  0  0  0  0  0  0
    0.9220   -2.0522   -0.1076 H   0  0  0  0  0  0  0  0  0  0  0  0
    0.4610   -1.1207    1.3244 H   0  0  0  0  0  0  0  0  0  0  0  0
   -1.1119   -1.3101   -1.3038 H   0  0  0  0  0  0  0  0  0  0  0  0
   -1.1398   -1.9910    0.3779 H   0  0  0  0  0  0  0  0  0  0  0  0
   -1.2126    1.3686   -1.2425 H   0  0  0  0  0  0  0  0  0  0  0  0
   -1.6363    2.1016    0.3224 H   0  0  0  0  0  0  0  0  0  0  0  0
    0.4219    1.1949    1.3435 H   0  0  0  0  0  0  0  0  0  0  0  0
    0.8465    2.1442   -0.1048 H   0  0  0  0  0  0  0  0  0  0  0  0
   -4.5640   -1.0046    1.2525 H   0  0  0  0  0  0  0  0  0  0  0  0
   -2.4633   -2.6383    0.0026 H   0  0  0  0  0  0  0  0  0  0  0  0
   -2.1387   -4.2549    1.6655 H   0  0  0  0  0  0  0  0  0  0  0  0
   -2.0149   -2.7017    2.5819 H   0  0  0  0  0  0  0  0  0  0  0  0
   -3.6359   -6.2292    2.0907 H   0  0  0  0  0  0  0  0  0  0  0  0
   -5.9439   -6.8638    2.6197 H   0  0  0  0  0  0  0  0  0  0  0  0
   -7.7369   -4.5313    4.8220 H   0  0  0  0  0  0  0  0  0  0  0  0
   -6.9218   -1.9989    4.6214 H   0  0  0  0  0  0  0  0  0  0  0  0
   -4.6732   -1.4029    3.2256 H   0  0  0  0  0  0  0  0  0  0  0  0
   -5.8756   -4.3522   -0.5594 H   0  0  0  0  0  0  0  0  0  0  0  0
   -5.2520   -2.4374    1.5258 H   0  0  0  0  0  0  0  0  0  0  0  0
   -7.5284   -2.1503    2.2258 H   0  0  0  0  0  0  0  0  0  0  0  0
   -6.9810   -1.4892    0.7041 H   0  0  0  0  0  0  0  0  0  0  0  0
   -9.1737   -2.5340    0.3754 H   0  0  0  0  0  0  0  0  0  0  0  0
   -7.9092   -3.4889   -0.4420 H   0  0  0  0  0  0  0  0  0  0  0  0
   -8.4884   -5.5922   -0.5005 H   0  0  0  0  0  0  0  0  0  0  0  0
   -8.8936   -7.2542    0.7320 H   0  0  0  0  0  0  0  0  0  0  0  0
   -9.7311   -7.1300    3.6341 H   0  0  0  0  0  0  0  0  0  0  0  0
   -8.9747   -5.6100    4.5560 H   0  0  0  0  0  0  0  0  0  0  0  0
   -8.9199   -3.2968    3.2666 H   0  0  0  0  0  0  0  0  0  0  0  0
   -6.4815   -4.7384    1.8038 H   0  0  0  0  0  0  0  0  0  0  0  0
   -4.4477   -4.0497    4.8687 H   0  0  0  0  0  0  0  0  0  0  0  0
   -5.9126   -9.5883    4.0233 H   0  0  0  0  0  0  0  0  0  0  0  0
   -7.6250  -11.1105    2.8601 H   0  0  0  0  0  0  0  0  0  0  0  0
   -9.8619  -10.1773    1.7482 H   0  0  0  0  0  0  0  0  0  0  0  0
  -10.0022   -8.1324    1.9752 H   0  0  0  0  0  0  0  0  0  0  0  0
   -7.7475   -6.5781    2.4962 H   0  0  0  0  0  0  0  0  0  0  0  0
  1  2  1  0  0  0  0
  1 42  1  0  0  0  0
  1 43  1  0  0  0  0
  1 44  1  0  0  0  0
  2  3  1  0  0  0  0
  2  7  1  0  0  0  0
  3  4  1  0  0  0  0
  3 45  1  0  0  0  0
  3 46  1  0  0  0  0
  4  5  1  0  0  0  0
  4 47  1  0  0  0  0
  4 48  1  0  0  0  0
  5  6  1  0  0  0  0
  5  8  1  0  0  0  0
  6  7  1  0  0  0  0
  6 49  1  0  0  0  0
  6 50  1  0  0  0  0
  7 51  1  0  0  0  0
  7 52  1  0  0  0  0
  8  9  2  0  0  0  0
  8 10  1  0  0  0  0
 10 53  1  0  0  0  0
 11 10  1  0  0  0  0
 11 12  1  0  0  0  0
 11 19  1  0  0  0  0
 11 54  1  6  0  0  0
 12 13  1  0  0  0  0
 12 55  1  0  0  0  0
 12 56  1  0  0  0  0
 13 14  2  0  0  0  0
 13 18  1  0  0  0  0
 14 15  1  0  0  0  0
 14 57  1  0  0  0  0
 15 16  2  0  0  0  0
 15 58  1  0  0  0  0
 16 17  1  0  0  0  0
 16 59  1  0  0  0  0
 17 18  2  0  0  0  0
 17 60  1  0  0  0  0
 18 61  1  0  0  0  0
 19 20  2  0  0  0  0
 19 21  1  0  0  0  0
 21 62  1  0  0  0  0
 22 21  1  0  0  0  0
 22 23  1  0  0  0  0
 22 31  1  0  0  0  0
 22 63  1  1  0  0  0
 23 24  1  0  0  0  0
 23 64  1  0  0  0  0
 23 65  1  0  0  0  0
 24 25  1  0  0  0  0
 24 66  1  0  0  0  0
 24 67  1  0  0  0  0
 25 26  2  0  0  0  0
 25 30  1  0  0  0  0
 26 27  1  0  0  0  0
 26 68  1  0  0  0  0
 27 28  2  0  0  0  0
 27 69  1  0  0  0  0
 28 29  1  0  0  0  0
 28 70  1  0  0  0  0
 29 30  2  0  0  0  0
 29 71  1  0  0  0  0
 30 72  1  0  0  0  0
 31 32  2  0  0  0  0
 31 73  1  0  0  0  0
 32 33  1  0  0  0  0
 32 74  1  0  0  0  0
 33 34  2  0  0  0  0
 33 35  2  0  0  0  0
 33 36  1  0  0  0  0
 36 37  2  0  0  0  0
 36 41  1  0  0  0  0
 37 38  1  0  0  0  0
 37 75  1  0  0  0  0
 38 39  2  0  0  0  0
 38 76  1  0  0  0  0
 39 40  1  0  0  0  0
 39 77  1  0  0  0  0
 40 41  2  0  0  0  0
 40 78  1  0  0  0  0
 41 79  1  0  0  0  0
M  END
>  <DRUGBANK_ID>
DB17760

>  <COMMON_NAME>
K-777

>  <CAS_NUMBER>
502960-90-9

>  <UNII>
320A4L58IZ

>  <SYNONYMS>
1-piperazinecarboxamide, 4-methyl-n-((1s)-2-oxo-2-(((1s)-1-(2-phenylethyl)-3-(phenylsulfonyl)-2-propen-1-yl)amino)-1-(phenylmethyl)ethyl)-; 1-piperazinecarboxamide, 4-methyl-n-((1s)-2-oxo-2-(((1s)-1-(2-phenylethyl)-3-(phenylsulfonyl)-2-propenyl)amino)-1-(phenylmethyl)ethyl)-; 4-methylpiperazine-1-carboxylic acid [1-(3-benzenesufonyl-1-phenethylallyl-carbamoyl)-2-phenylethyl] amide; 4-methylpiperazine-1-carboxylic acid(1-((3-benzenesufonyl-1-phenethylallyl)carbamoyl)-2-phenylethyl)amide; K-1177; K-777; K1177; SLV-213

$$$$
