
 OpenBabel10282417153D

 63 65  0  0  1  0  0  0  0  0999 V2000
    3.3976   -6.9077    3.1776 O   0  0  0  0  0  0  0  0  0  0  0  0
   -4.5965   -3.8854    4.4014 O   0  0  0  0  0  0  0  0  0  0  0  0
   -5.5638   -9.2286    1.6482 O   0  0  0  0  0  0  0  0  0  0  0  0
   -4.3527   -8.8071    3.4148 O   0  0  0  0  0  0  0  0  0  0  0  0
   -3.3727   -5.0114   -0.3648 N   0  0  0  0  0  0  0  0  0  0  0  0
   -5.5174   -5.4882    3.1388 N   0  0  0  0  0  0  0  0  0  0  0  0
   -1.0298   -6.7020    0.8291 C   0  0  1  0  0  0  0  0  0  0  0  0
   -2.6362   -6.9742    1.2954 C   0  0  2  0  0  0  0  0  0  0  0  0
   -1.0562   -5.1979    0.0200 C   0  0  0  0  0  0  0  0  0  0  0  0
   -3.4827   -6.4126    0.0110 C   0  0  0  0  0  0  0  0  0  0  0  0
   -2.0562   -4.8669   -1.0102 C   0  0  0  0  0  0  0  0  0  0  0  0
    0.5337   -6.6075    0.9375 C   0  0  0  0  0  0  0  0  0  0  0  0
   -0.9286   -8.2863    0.8859 C   0  0  0  0  0  0  0  0  0  0  0  0
   -2.9286   -6.8628    2.9102 C   0  0  0  0  0  0  0  0  0  0  0  0
   -3.8249   -4.0046    0.6813 C   0  0  0  0  0  0  0  0  0  0  0  0
   -3.4662   -3.9347    2.2646 C   0  0  2  0  0  0  0  0  0  0  0  0
    1.2888   -6.9739    2.0411 C   0  0  0  0  0  0  0  0  0  0  0  0
    1.2731   -6.0025   -0.1531 C   0  0  0  0  0  0  0  0  0  0  0  0
   -2.0667   -4.4994    2.6279 C   0  0  0  0  0  0  0  0  0  0  0  0
   -4.6179   -4.4063    3.2739 C   0  0  0  0  0  0  0  0  0  0  0  0
    2.6151   -6.5417    2.1247 C   0  0  0  0  0  0  0  0  0  0  0  0
    2.4560   -5.3236    0.0776 C   0  0  0  0  0  0  0  0  0  0  0  0
    3.1665   -5.6532    1.2044 C   0  0  0  0  0  0  0  0  0  0  0  0
   -0.7912   -3.8669    2.8721 C   0  0  0  0  0  0  0  0  0  0  0  0
   -0.6370   -2.6333    2.3284 C   0  0  0  0  0  0  0  0  0  0  0  0
    0.1673   -4.5314    3.6756 C   0  0  0  0  0  0  0  0  0  0  0  0
   -5.5741   -6.7098    2.2317 C   0  0  0  0  0  0  0  0  0  0  0  0
    0.3167   -1.8707    2.9043 C   0  0  0  0  0  0  0  0  0  0  0  0
    1.2018   -3.7951    4.1571 C   0  0  0  0  0  0  0  0  0  0  0  0
    1.2214   -2.4437    3.8151 C   0  0  0  0  0  0  0  0  0  0  0  0
   -5.1375   -8.3338    2.5440 C   0  0  0  0  0  0  0  0  0  0  0  0
    2.8957   -7.5502    3.7026 H   0  0  0  0  0  0  0  0  0  0  0  0
   -6.2816   -8.9107    1.0838 H   0  0  0  0  0  0  0  0  0  0  0  0
   -5.8630   -5.6995    4.0652 H   0  0  0  0  0  0  0  0  0  0  0  0
   -3.0055   -8.0007    1.1552 H   0  0  0  0  0  0  0  0  0  0  0  0
   -1.3369   -4.3147    0.5796 H   0  0  0  0  0  0  0  0  0  0  0  0
   -0.1408   -4.5881    0.0760 H   0  0  0  0  0  0  0  0  0  0  0  0
   -4.5423   -6.6763   -0.0709 H   0  0  0  0  0  0  0  0  0  0  0  0
   -3.1382   -7.0226   -0.8452 H   0  0  0  0  0  0  0  0  0  0  0  0
   -1.8574   -5.5225   -1.8634 H   0  0  0  0  0  0  0  0  0  0  0  0
   -1.8762   -3.8382   -1.3595 H   0  0  0  0  0  0  0  0  0  0  0  0
   -1.3963   -8.6050    1.8638 H   0  0  0  0  0  0  0  0  0  0  0  0
   -1.4755   -8.7974    0.0950 H   0  0  0  0  0  0  0  0  0  0  0  0
    0.0056   -8.8117    1.0959 H   0  0  0  0  0  0  0  0  0  0  0  0
   -3.7676   -7.0265    3.5861 H   0  0  0  0  0  0  0  0  0  0  0  0
   -2.1500   -6.8255    3.6880 H   0  0  0  0  0  0  0  0  0  0  0  0
   -3.3843   -5.9357    2.8154 H   0  0  0  0  0  0  0  0  0  0  0  0
   -3.5845   -3.0108    0.2710 H   0  0  0  0  0  0  0  0  0  0  0  0
   -4.9181   -4.0477    0.6528 H   0  0  0  0  0  0  0  0  0  0  0  0
   -3.3398   -2.8640    2.4738 H   0  0  0  0  0  0  0  0  0  0  0  0
    0.8372   -7.5487    2.8414 H   0  0  0  0  0  0  0  0  0  0  0  0
    0.7902   -5.7224   -1.1006 H   0  0  0  0  0  0  0  0  0  0  0  0
   -1.6752   -5.4332    2.9552 H   0  0  0  0  0  0  0  0  0  0  0  0
   -2.0968   -4.9771    1.7154 H   0  0  0  0  0  0  0  0  0  0  0  0
    2.7610   -4.5155   -0.5861 H   0  0  0  0  0  0  0  0  0  0  0  0
    4.1426   -5.2152    1.3626 H   0  0  0  0  0  0  0  0  0  0  0  0
   -1.3402   -2.2819    1.5835 H   0  0  0  0  0  0  0  0  0  0  0  0
    0.0800   -5.5894    3.9500 H   0  0  0  0  0  0  0  0  0  0  0  0
   -6.4514   -6.7182    1.5776 H   0  0  0  0  0  0  0  0  0  0  0  0
   -4.8519   -6.3410    1.5615 H   0  0  0  0  0  0  0  0  0  0  0  0
    0.2724   -0.8204    2.6700 H   0  0  0  0  0  0  0  0  0  0  0  0
    1.9075   -4.2576    4.8379 H   0  0  0  0  0  0  0  0  0  0  0  0
    1.9541   -1.8050    4.2752 H   0  0  0  0  0  0  0  0  0  0  0  0
  1 21  1  0  0  0  0
  1 32  1  0  0  0  0
  2 20  2  0  0  0  0
  3 31  1  0  0  0  0
  3 33  1  0  0  0  0
  4 31  2  0  0  0  0
  5 10  1  0  0  0  0
  5 11  1  0  0  0  0
  5 15  1  0  0  0  0
  6 20  1  0  0  0  0
  6 27  1  0  0  0  0
  6 34  1  0  0  0  0
  7  8  1  0  0  0  0
  7  9  1  0  0  0  0
  7 13  1  6  0  0  0
  7 12  1  0  0  0  0
  8 10  1  0  0  0  0
  8 14  1  0  0  0  0
  8 35  1  6  0  0  0
  9 11  1  0  0  0  0
  9 36  1  0  0  0  0
  9 37  1  0  0  0  0
 10 38  1  0  0  0  0
 10 39  1  0  0  0  0
 11 40  1  0  0  0  0
 11 41  1  0  0  0  0
 12 17  2  0  0  0  0
 12 18  1  0  0  0  0
 13 42  1  0  0  0  0
 13 43  1  0  0  0  0
 13 44  1  0  0  0  0
 14 45  1  0  0  0  0
 14 46  1  0  0  0  0
 14 47  1  0  0  0  0
 15 48  1  0  0  0  0
 15 49  1  0  0  0  0
 16 20  1  0  0  0  0
 16 50  1  1  0  0  0
 16 19  1  0  0  0  0
 16 15  1  0  0  0  0
 17 21  1  0  0  0  0
 17 51  1  0  0  0  0
 18 22  2  0  0  0  0
 18 52  1  0  0  0  0
 19 24  1  0  0  0  0
 19 53  1  0  0  0  0
 19 54  1  0  0  0  0
 21 23  2  0  0  0  0
 22 23  1  0  0  0  0
 22 55  1  0  0  0  0
 23 56  1  0  0  0  0
 24 25  2  0  0  0  0
 24 26  1  0  0  0  0
 25 28  1  0  0  0  0
 25 57  1  0  0  0  0
 26 29  2  0  0  0  0
 26 58  1  0  0  0  0
 27 31  1  0  0  0  0
 27 59  1  0  0  0  0
 27 60  1  0  0  0  0
 28 30  2  0  0  0  0
 28 61  1  0  0  0  0
 29 30  1  0  0  0  0
 29 62  1  0  0  0  0
 30 63  1  0  0  0  0
M  END
>  <DRUGBANK_ID>
DB06274

>  <COMMON_NAME>
Alvimopan

>  <CAS_NUMBER>
156053-89-3

>  <UNII>
Q153V49P3Z

>  <SYNONYMS>
Alvimopan; Alvimopan anhydrous; Anhydrous alvimopan

$$$$
