W42
 OpenBabel10282417173D

 57 59  0  0  0  0  0  0  0  0999 V2000
    0.4153    0.1336    0.0418 O   0  0  0  0  0  0  0  0  0  0  0  0
    0.2185   -0.4360    1.3378 C   0  0  0  0  0  0  0  0  0  0  0  0
    0.7382   -1.8655    1.4653 C   0  0  0  0  0  0  0  0  0  0  0  0
    2.1435   -1.8632    1.4953 O   0  0  0  0  0  0  0  0  0  0  0  0
    2.6576   -1.4066    0.2761 C   0  0  0  0  0  0  0  0  0  0  0  0
    2.3953   -2.2225   -0.8452 O   0  0  0  0  0  0  0  0  0  0  0  0
    6.4951   -3.9455   -1.2866 O   0  0  0  0  0  0  0  0  0  0  0  0
    5.1901   -4.4715   -1.2799 N   0  0  0  0  0  0  0  0  0  0  0  0
    4.4314   -3.4971   -0.7585 C   0  0  0  0  0  0  0  0  0  0  0  0
    2.9459   -3.5401   -0.7239 C   0  0  0  0  0  0  0  0  0  0  0  0
    5.2225   -2.4383   -0.3321 C   0  0  0  0  0  0  0  0  0  0  0  0
    6.4885   -2.7248   -0.7036 C   0  0  0  0  0  0  0  0  0  0  0  0
    7.6178   -1.8678   -0.3260 C   0  0  0  0  0  0  0  0  0  0  0  0
    8.3735   -2.5408    0.7570 C   0  0  0  0  0  0  0  0  0  0  0  0
    8.8079   -3.8325    0.1438 C   0  0  0  0  0  0  0  0  0  0  0  0
    9.8014   -3.8168   -0.9950 C   0  0  0  0  0  0  0  0  0  0  0  0
   11.1156   -3.2525   -0.4530 C   0  0  0  0  0  0  0  0  0  0  0  0
   11.8360   -4.1892    0.4313 O   0  0  0  0  0  0  0  0  0  0  0  0
   11.3838   -4.4645    1.7146 C   0  0  0  0  0  0  0  0  0  0  0  0
   11.9794   -3.8792    2.8328 C   0  0  0  0  0  0  0  0  0  0  0  0
   11.4184   -4.0428    4.1163 C   0  0  0  0  0  0  0  0  0  0  0  0
   10.1771   -4.6638    4.2658 C   0  0  0  0  0  0  0  0  0  0  0  0
    9.6097   -5.2915    3.1759 C   0  0  0  0  0  0  0  0  0  0  0  0
   10.3758   -5.4169    2.0073 C   0  0  0  0  0  0  0  0  0  0  0  0
    9.8428   -6.6308    0.8813 Cl  0  0  0  0  0  0  0  0  0  0  0  0
   13.4959   -3.0691    2.7078 Cl  0  0  0  0  0  0  0  0  0  0  0  0
    9.5597   -4.8047    5.5868 C   0  0  0  0  0  0  0  0  0  0  0  0
    9.4753   -3.8908    6.4976 N   0  0  0  0  0  0  0  0  0  0  0  0
    8.9646   -4.6334    7.6602 C   0  0  0  0  0  0  0  0  0  0  0  0
    8.5167   -5.9763    7.1255 C   0  0  0  0  0  0  0  0  0  0  0  0
    9.1198   -6.0611    5.8422 O   0  0  0  0  0  0  0  0  0  0  0  0
    1.1677    0.7515    0.0886 H   0  0  0  0  0  0  0  0  0  0  0  0
    0.7165    0.2080    2.0714 H   0  0  0  0  0  0  0  0  0  0  0  0
   -0.8538   -0.4466    1.4969 H   0  0  0  0  0  0  0  0  0  0  0  0
    0.4375   -2.3045    2.4192 H   0  0  0  0  0  0  0  0  0  0  0  0
    0.4034   -2.5250    0.6596 H   0  0  0  0  0  0  0  0  0  0  0  0
    2.5301   -0.3615    0.0169 H   0  0  0  0  0  0  0  0  0  0  0  0
    3.6606   -1.3050    0.5688 H   0  0  0  0  0  0  0  0  0  0  0  0
    2.5623   -4.0189    0.1836 H   0  0  0  0  0  0  0  0  0  0  0  0
    2.5619   -4.1202   -1.5729 H   0  0  0  0  0  0  0  0  0  0  0  0
    5.1604   -1.4879    0.1303 H   0  0  0  0  0  0  0  0  0  0  0  0
    8.2297   -1.6140   -1.1860 H   0  0  0  0  0  0  0  0  0  0  0  0
    7.2682   -0.9218    0.1090 H   0  0  0  0  0  0  0  0  0  0  0  0
    9.2137   -1.9395    1.1251 H   0  0  0  0  0  0  0  0  0  0  0  0
    7.7759   -2.7651    1.6589 H   0  0  0  0  0  0  0  0  0  0  0  0
    9.3056   -4.1350    0.9945 H   0  0  0  0  0  0  0  0  0  0  0  0
    8.0365   -4.5959    0.0398 H   0  0  0  0  0  0  0  0  0  0  0  0
    9.9776   -4.8371   -1.3497 H   0  0  0  0  0  0  0  0  0  0  0  0
    9.4061   -3.2694   -1.8633 H   0  0  0  0  0  0  0  0  0  0  0  0
   11.7567   -3.0714   -1.3275 H   0  0  0  0  0  0  0  0  0  0  0  0
   10.9722   -2.2550   -0.0098 H   0  0  0  0  0  0  0  0  0  0  0  0
   11.9510   -3.7057    5.0018 H   0  0  0  0  0  0  0  0  0  0  0  0
    8.5903   -5.6763    3.2288 H   0  0  0  0  0  0  0  0  0  0  0  0
    8.1471   -4.1053    8.1596 H   0  0  0  0  0  0  0  0  0  0  0  0
    9.7836   -4.7534    8.3779 H   0  0  0  0  0  0  0  0  0  0  0  0
    8.8481   -6.8024    7.7641 H   0  0  0  0  0  0  0  0  0  0  0  0
    7.4293   -6.0384    7.0127 H   0  0  0  0  0  0  0  0  0  0  0  0
  1  2  1  0  0  0  0
  1 32  1  0  0  0  0
  2  3  1  0  0  0  0
  2 33  1  0  0  0  0
  2 34  1  0  0  0  0
  3  4  1  0  0  0  0
  3 35  1  0  0  0  0
  3 36  1  0  0  0  0
  4  5  1  0  0  0  0
  5  6  1  0  0  0  0
  5 37  1  0  0  0  0
  5 38  1  0  0  0  0
  6 10  1  0  0  0  0
  7  8  1  0  0  0  0
  7 12  1  0  0  0  0
  8  9  2  0  0  0  0
  9 10  1  0  0  0  0
  9 11  1  0  0  0  0
 10 39  1  0  0  0  0
 10 40  1  0  0  0  0
 11 12  2  0  0  0  0
 11 41  1  0  0  0  0
 12 13  1  0  0  0  0
 13 14  1  0  0  0  0
 13 42  1  0  0  0  0
 13 43  1  0  0  0  0
 14 15  1  0  0  0  0
 14 44  1  0  0  0  0
 14 45  1  0  0  0  0
 15 16  1  0  0  0  0
 15 46  1  0  0  0  0
 15 47  1  0  0  0  0
 16 17  1  0  0  0  0
 16 48  1  0  0  0  0
 16 49  1  0  0  0  0
 17 18  1  0  0  0  0
 17 50  1  0  0  0  0
 17 51  1  0  0  0  0
 18 19  1  0  0  0  0
 19 20  2  0  0  0  0
 19 24  1  0  0  0  0
 20 21  1  0  0  0  0
 20 26  1  0  0  0  0
 21 22  2  0  0  0  0
 21 52  1  0  0  0  0
 22 23  1  0  0  0  0
 22 27  1  0  0  0  0
 23 24  2  0  0  0  0
 23 53  1  0  0  0  0
 24 25  1  0  0  0  0
 27 28  2  0  0  0  0
 27 31  1  0  0  0  0
 28 29  1  0  0  0  0
 29 30  1  0  0  0  0
 29 54  1  0  0  0  0
 29 55  1  0  0  0  0
 30 31  1  0  0  0  0
 30 56  1  0  0  0  0
 30 57  1  0  0  0  0
M  END
>  <DRUGBANK_ID>
DB08721

>  <COMMON_NAME>
5-(5-(2,6-dichloro-4-(4,5-dihydro-2-oxazolyl)phenoxy)pentyl)-3-(hydroxyethyl oxymethyleneoxymethyl) isoxazole

$$$$
