669
 OpenBabel10282417123D

 51 53  0  0  0  0  0  0  0  0999 V2000
    1.0054    0.1291   -0.2514 O   0  0  0  0  0  0  0  0  0  0  0  0
    0.4511   -0.9196   -0.8877 C   0  0  0  0  0  0  0  0  0  0  0  0
    1.1322   -1.7894   -1.3988 O   0  0  0  0  0  0  0  0  0  0  0  0
   -1.0339   -0.8820   -0.8545 C   0  0  0  0  0  0  0  0  0  0  0  0
   -1.5455   -1.0008    0.5600 C   0  0  0  0  0  0  0  0  0  0  0  0
   -1.1966    0.1203    1.5411 C   0  0  0  0  0  0  0  0  0  0  0  0
   -1.8021    1.4437    1.0744 C   0  0  0  0  0  0  0  0  0  0  0  0
   -3.3400    1.4111    1.0975 C   0  0  0  0  0  0  0  0  0  0  0  0
   -3.8914    1.1797    2.4334 N   0  0  0  0  0  0  0  0  0  0  0  0
   -4.0856   -0.0562    3.0802 C   0  0  0  0  0  0  0  0  0  0  0  0
   -4.4369    0.2660    4.3807 C   0  0  0  0  0  0  0  0  0  0  0  0
   -4.7194    1.6425    4.4511 C   0  0  0  0  0  0  0  0  0  0  0  0
   -5.2571    2.4384    5.4719 C   0  0  0  0  0  0  0  0  0  0  0  0
   -5.4016    3.8112    5.2656 C   0  0  0  0  0  0  0  0  0  0  0  0
   -5.7053    4.5061    6.4113 O   0  0  0  0  0  0  0  0  0  0  0  0
   -5.5145    5.9176    6.3753 C   0  0  0  0  0  0  0  0  0  0  0  0
   -4.0953    6.4442    6.1716 C   0  0  0  0  0  0  0  0  0  0  0  0
   -3.9442    7.8437    6.0192 C   0  0  0  0  0  0  0  0  0  0  0  0
   -5.2747    8.9501    6.1571 Cl  0  0  0  0  0  0  0  0  0  0  0  0
   -2.6850    8.4236    5.8371 C   0  0  0  0  0  0  0  0  0  0  0  0
   -1.5446    7.6421    5.9010 C   0  0  0  0  0  0  0  0  0  0  0  0
   -1.6665    6.2725    5.9054 C   0  0  0  0  0  0  0  0  0  0  0  0
   -2.9071    5.6709    6.0906 C   0  0  0  0  0  0  0  0  0  0  0  0
   -2.6799    3.9713    6.3179 Cl  0  0  0  0  0  0  0  0  0  0  0  0
   -4.9980    4.3803    4.0543 C   0  0  0  0  0  0  0  0  0  0  0  0
   -4.4078    3.6071    3.0475 C   0  0  0  0  0  0  0  0  0  0  0  0
   -4.3263    2.2188    3.2477 C   0  0  0  0  0  0  0  0  0  0  0  0
   -3.9964   -1.3998    2.5351 C   0  0  0  0  0  0  0  0  0  0  0  0
   -3.8120   -2.3796    3.4481 O   0  0  0  0  0  0  0  0  0  0  0  0
   -4.1384   -1.7142    1.3493 O   0  0  0  0  0  0  0  0  0  0  0  0
    1.9562   -0.0767   -0.1670 H   0  0  0  0  0  0  0  0  0  0  0  0
   -1.4142    0.0217   -1.3417 H   0  0  0  0  0  0  0  0  0  0  0  0
   -1.4404   -1.7227   -1.4306 H   0  0  0  0  0  0  0  0  0  0  0  0
   -2.6002   -0.9542    0.3534 H   0  0  0  0  0  0  0  0  0  0  0  0
   -1.3349   -1.9798    1.0041 H   0  0  0  0  0  0  0  0  0  0  0  0
   -1.5610   -0.1184    2.5449 H   0  0  0  0  0  0  0  0  0  0  0  0
   -0.1194    0.2054    1.6936 H   0  0  0  0  0  0  0  0  0  0  0  0
   -1.4228    2.2600    1.6991 H   0  0  0  0  0  0  0  0  0  0  0  0
   -1.4579    1.6696    0.0567 H   0  0  0  0  0  0  0  0  0  0  0  0
   -3.7126    2.3703    0.7170 H   0  0  0  0  0  0  0  0  0  0  0  0
   -3.7704    0.6675    0.4245 H   0  0  0  0  0  0  0  0  0  0  0  0
   -4.6270   -0.4286    5.1825 H   0  0  0  0  0  0  0  0  0  0  0  0
   -5.4372    2.0078    6.4530 H   0  0  0  0  0  0  0  0  0  0  0  0
   -6.2067    6.3201    5.6201 H   0  0  0  0  0  0  0  0  0  0  0  0
   -5.8790    6.3040    7.3381 H   0  0  0  0  0  0  0  0  0  0  0  0
   -2.5787    9.4903    5.6640 H   0  0  0  0  0  0  0  0  0  0  0  0
   -0.5557    8.0763    5.9784 H   0  0  0  0  0  0  0  0  0  0  0  0
   -0.7792    5.6501    5.8137 H   0  0  0  0  0  0  0  0  0  0  0  0
   -4.9985    5.4558    3.9048 H   0  0  0  0  0  0  0  0  0  0  0  0
   -4.0060    4.1010    2.1675 H   0  0  0  0  0  0  0  0  0  0  0  0
   -4.0746   -2.1500    4.3542 H   0  0  0  0  0  0  0  0  0  0  0  0
  1  2  1  0  0  0  0
  1 31  1  0  0  0  0
  2  3  2  0  0  0  0
  2  4  1  0  0  0  0
  4  5  1  0  0  0  0
  4 32  1  0  0  0  0
  4 33  1  0  0  0  0
  5  6  1  0  0  0  0
  5 34  1  0  0  0  0
  5 35  1  0  0  0  0
  6  7  1  0  0  0  0
  6 36  1  0  0  0  0
  6 37  1  0  0  0  0
  7  8  1  0  0  0  0
  7 38  1  0  0  0  0
  7 39  1  0  0  0  0
  8  9  1  0  0  0  0
  8 40  1  0  0  0  0
  8 41  1  0  0  0  0
  9 10  1  0  0  0  0
  9 27  1  0  0  0  0
 10 11  2  0  0  0  0
 10 28  1  0  0  0  0
 11 12  1  0  0  0  0
 11 42  1  0  0  0  0
 12 13  1  0  0  0  0
 12 27  2  0  0  0  0
 13 14  2  0  0  0  0
 13 43  1  0  0  0  0
 14 15  1  0  0  0  0
 14 25  1  0  0  0  0
 15 16  1  0  0  0  0
 16 17  1  0  0  0  0
 16 44  1  0  0  0  0
 16 45  1  0  0  0  0
 17 18  1  0  0  0  0
 17 23  2  0  0  0  0
 18 19  1  0  0  0  0
 18 20  2  0  0  0  0
 20 21  1  0  0  0  0
 20 46  1  0  0  0  0
 21 22  2  0  0  0  0
 21 47  1  0  0  0  0
 22 23  1  0  0  0  0
 22 48  1  0  0  0  0
 23 24  1  0  0  0  0
 25 26  2  0  0  0  0
 25 49  1  0  0  0  0
 26 27  1  0  0  0  0
 26 50  1  0  0  0  0
 28 29  1  0  0  0  0
 28 30  2  0  0  0  0
 29 51  1  0  0  0  0
M  END
>  <DRUGBANK_ID>
DB02316

>  <SECONDARY_ACCESSION_NUMBERS>
EXPT00274

>  <COMMON_NAME>
1-(5-Carboxypentyl)-5-[(2,6-Dichlorobenzyl)Oxy]-1 H-Indole-2-Carboxylic Acid

$$$$
