NP5
 OpenBabel10282417173D

 39 40  0  0  0  0  0  0  0  0999 V2000
    0.4323   -2.8444   -2.6914 C   0  0  0  0  0  0  0  0  0  0  0  0
   -0.6090   -3.9214   -3.7863 O   0  0  0  0  0  0  0  0  0  0  0  0
    0.4273   -2.1057   -0.7631 C   0  0  0  0  0  0  0  0  0  0  0  0
    0.7616   -2.2277    0.8916 C   0  0  0  0  0  0  0  0  0  0  0  0
   -0.0517   -2.9449    1.9001 C   0  0  0  0  0  0  0  0  0  0  0  0
   -1.1588   -3.4598    1.3498 C   0  0  0  0  0  0  0  0  0  0  0  0
   -1.6127   -2.8150    0.2152 C   0  0  0  0  0  0  0  0  0  0  0  0
   -0.8719   -1.8192   -0.5306 C   0  0  0  0  0  0  0  0  0  0  0  0
   -1.4064   -1.1981   -1.7173 C   0  0  0  0  0  0  0  0  0  0  0  0
   -1.6294   -2.6499   -2.4194 C   0  0  0  0  0  0  0  0  0  0  0  0
   -2.3975   -2.5724   -3.6683 C   0  0  0  0  0  0  0  0  0  0  0  0
   -1.7586   -2.1968   -5.0741 C   0  0  0  0  0  0  0  0  0  0  0  0
   -0.2754   -2.8993   -5.7013 C   0  0  0  0  0  0  0  0  0  0  0  0
    0.3882   -4.5247   -5.5873 C   0  0  0  0  0  0  0  0  0  0  0  0
    0.0401   -5.3183   -6.5928 C   0  0  0  0  0  0  0  0  0  0  0  0
   -0.6038   -6.4345   -5.9108 C   0  0  0  0  0  0  0  0  0  0  0  0
   -1.6411   -5.0574   -5.2318 C   0  0  0  0  0  0  0  0  0  0  0  0
    1.1961   -1.8175   -2.9975 O   0  0  0  0  0  0  0  0  0  0  0  0
    1.4771   -1.3465    1.9691 O   0  0  0  0  0  0  0  0  0  0  0  0
   -1.8620   -4.5298    1.7860 O   0  0  0  0  0  0  0  0  0  0  0  0
   -3.0776   -3.5579   -0.4735 Cl  0  0  0  0  0  0  0  0  0  0  0  0
   -1.1425   -3.7694   -1.9666 O   0  0  0  0  0  0  0  0  0  0  0  0
    0.1953   -3.1932    2.9495 H   0  0  0  0  0  0  0  0  0  0  0  0
   -2.3407   -0.6918   -1.5461 H   0  0  0  0  0  0  0  0  0  0  0  0
   -0.6567   -0.3737   -1.9513 H   0  0  0  0  0  0  0  0  0  0  0  0
   -2.7373   -3.6050   -3.6334 H   0  0  0  0  0  0  0  0  0  0  0  0
   -3.1730   -1.8868   -3.3394 H   0  0  0  0  0  0  0  0  0  0  0  0
   -2.5858   -2.4357   -5.7631 H   0  0  0  0  0  0  0  0  0  0  0  0
   -1.6115   -1.0959   -5.1218 H   0  0  0  0  0  0  0  0  0  0  0  0
   -0.2243   -2.5993   -6.7503 H   0  0  0  0  0  0  0  0  0  0  0  0
    0.4763   -2.4132   -5.0932 H   0  0  0  0  0  0  0  0  0  0  0  0
    0.1149   -5.2751   -4.5418 H   0  0  0  0  0  0  0  0  0  0  0  0
   -0.3817   -4.8720   -7.5010 H   0  0  0  0  0  0  0  0  0  0  0  0
   -0.1237   -7.1589   -6.6394 H   0  0  0  0  0  0  0  0  0  0  0  0
   -0.7892   -7.1191   -5.0622 H   0  0  0  0  0  0  0  0  0  0  0  0
   -2.0360   -6.2121   -5.7069 H   0  0  0  0  0  0  0  0  0  0  0  0
   -2.7557   -5.1370   -5.9445 H   0  0  0  0  0  0  0  0  0  0  0  0
    2.0286   -0.5300    1.9884 H   0  0  0  0  0  0  0  0  0  0  0  0
   -1.5473   -4.9180    2.6077 H   0  0  0  0  0  0  0  0  0  0  0  0
  1  2  1  0  0  0  0
  1  3  1  0  0  0  0
  1 18  2  0  0  0  0
  2 17  1  0  0  0  0
  3  4  2  0  0  0  0
  3  8  1  0  0  0  0
  4  5  1  0  0  0  0
  4 19  1  0  0  0  0
  5  6  2  0  0  0  0
  5 23  1  0  0  0  0
  6  7  1  0  0  0  0
  6 20  1  0  0  0  0
  7  8  2  0  0  0  0
  7 21  1  0  0  0  0
  8  9  1  0  0  0  0
  9 10  1  0  0  0  0
  9 24  1  0  0  0  0
  9 25  1  0  0  0  0
 10 11  1  0  0  0  0
 10 22  2  0  0  0  0
 11 12  1  0  0  0  0
 11 26  1  0  0  0  0
 11 27  1  0  0  0  0
 12 13  1  0  0  0  0
 12 28  1  0  0  0  0
 12 29  1  0  0  0  0
 13 14  1  0  0  0  0
 13 30  1  0  0  0  0
 13 31  1  0  0  0  0
 14 15  2  0  0  0  0
 14 32  1  0  0  0  0
 15 16  1  0  0  0  0
 15 33  1  0  0  0  0
 16 17  1  0  0  0  0
 16 34  1  0  0  0  0
 16 35  1  0  0  0  0
 17 36  1  0  0  0  0
 17 37  1  0  0  0  0
 19 38  1  0  0  0  0
 20 39  1  0  0  0  0
M  END
>  <DRUGBANK_ID>
DB08293

>  <COMMON_NAME>
(5E)-12-CHLORO-13,15-DIHYDROXY-4,7,8,9-TETRAHYDRO-2-BENZOXACYCLOTRIDECINE-1,10(3H,11H)-DIONE

$$$$
