
 OpenBabel10282417153D

 68 74  0  0  0  0  0  0  0  0999 V2000
    2.4260    1.4925   -0.0381 C   0  0  0  0  0  0  0  0  0  0  0  0
    1.5337    0.3590   -0.0194 N   0  0  0  0  0  0  0  0  0  0  0  0
    1.9332   -0.9457   -0.0799 C   0  0  0  0  0  0  0  0  0  0  0  0
    0.7801   -1.6807   -0.1879 C   0  0  0  0  0  0  0  0  0  0  0  0
   -0.3379   -0.8588   -0.0753 C   0  0  0  0  0  0  0  0  0  0  0  0
   -1.7160   -1.1264   -0.0342 C   0  0  0  0  0  0  0  0  0  0  0  0
   -2.5883   -0.0528   -0.0105 C   0  0  0  0  0  0  0  0  0  0  0  0
   -2.0913    1.2484    0.0136 C   0  0  0  0  0  0  0  0  0  0  0  0
   -0.7165    1.5214    0.0348 C   0  0  0  0  0  0  0  0  0  0  0  0
    0.1540    0.4363   -0.0077 C   0  0  0  0  0  0  0  0  0  0  0  0
    0.6704   -3.0607   -0.2449 C   0  0  0  0  0  0  0  0  0  0  0  0
    1.0019   -3.8433    0.7859 C   0  0  0  0  0  0  0  0  0  0  0  0
    0.8438   -5.2629   -0.0855 C   0  0  0  0  0  0  0  0  0  0  0  0
    1.1467   -6.4440   -0.0236 O   0  0  0  0  0  0  0  0  0  0  0  0
    0.2640   -5.0682   -1.2497 N   0  0  0  0  0  0  0  0  0  0  0  0
    0.0700   -3.7938   -1.3939 C   0  0  0  0  0  0  0  0  0  0  0  0
   -0.5687   -3.3231   -2.3643 O   0  0  0  0  0  0  0  0  0  0  0  0
    1.7386   -3.3293    2.1390 C   0  0  0  0  0  0  0  0  0  0  0  0
    3.0992   -3.0203    2.4722 C   0  0  0  0  0  0  0  0  0  0  0  0
    3.1473   -3.4764    3.8093 N   0  0  0  0  0  0  0  0  0  0  0  0
    2.1853   -2.7144    4.3664 C   0  0  0  0  0  0  0  0  0  0  0  0
    2.0785   -2.0367    5.5785 C   0  0  0  0  0  0  0  0  0  0  0  0
    0.8315   -1.4771    5.8009 C   0  0  0  0  0  0  0  0  0  0  0  0
   -0.2091   -1.6145    4.8696 C   0  0  0  0  0  0  0  0  0  0  0  0
   -0.0525   -2.2816    3.6567 C   0  0  0  0  0  0  0  0  0  0  0  0
    1.1930   -2.7841    3.3562 C   0  0  0  0  0  0  0  0  0  0  0  0
    4.0434   -4.4586    4.4208 C   0  0  0  0  0  0  0  0  0  0  0  0
    3.6314   -6.3287    4.4457 C   0  0  0  0  0  0  0  0  0  0  0  0
    4.8617   -7.3107    4.8566 C   0  0  0  0  0  0  0  0  0  0  0  0
    5.7577   -6.2309    5.0470 N   0  0  0  0  0  0  0  0  0  0  0  0
    4.8253   -5.5021    6.1803 C   0  0  0  0  0  0  0  0  0  0  0  0
    4.7093   -4.1011    5.8130 C   0  0  0  0  0  0  0  0  0  0  0  0
    6.0269   -5.9003    3.3825 C   0  0  0  0  0  0  0  0  0  0  0  0
    4.9704   -6.2117    2.2256 C   0  0  0  0  0  0  0  0  0  0  0  0
    4.2410   -7.3956    1.9605 C   0  0  0  0  0  0  0  0  0  0  0  0
    2.8553   -7.3157    1.7352 C   0  0  0  0  0  0  0  0  0  0  0  0
    2.3564   -6.0794    1.8800 C   0  0  0  0  0  0  0  0  0  0  0  0
    3.2635   -5.2424    1.2543 C   0  0  0  0  0  0  0  0  0  0  0  0
    4.5516   -5.1678    1.5672 N   0  0  0  0  0  0  0  0  0  0  0  0
    2.2279    2.0487   -0.9572 H   0  0  0  0  0  0  0  0  0  0  0  0
    2.2268    2.1091    0.8404 H   0  0  0  0  0  0  0  0  0  0  0  0
    3.4648    1.1517   -0.0296 H   0  0  0  0  0  0  0  0  0  0  0  0
    2.9781   -1.2359   -0.0340 H   0  0  0  0  0  0  0  0  0  0  0  0
   -2.0899   -2.1475   -0.0631 H   0  0  0  0  0  0  0  0  0  0  0  0
   -3.6562   -0.2423   -0.0345 H   0  0  0  0  0  0  0  0  0  0  0  0
   -2.7908    2.0767    0.0095 H   0  0  0  0  0  0  0  0  0  0  0  0
   -0.3446    2.5364    0.0582 H   0  0  0  0  0  0  0  0  0  0  0  0
    0.0945   -5.8948   -1.8193 H   0  0  0  0  0  0  0  0  0  0  0  0
    4.0492   -2.9284    1.9392 H   0  0  0  0  0  0  0  0  0  0  0  0
    2.9031   -1.8913    6.2752 H   0  0  0  0  0  0  0  0  0  0  0  0
    0.6677   -0.9236    6.7191 H   0  0  0  0  0  0  0  0  0  0  0  0
   -1.1679   -1.1544    5.0569 H   0  0  0  0  0  0  0  0  0  0  0  0
   -0.8052   -2.3307    2.8880 H   0  0  0  0  0  0  0  0  0  0  0  0
    4.9214   -4.1545    3.8562 H   0  0  0  0  0  0  0  0  0  0  0  0
    3.1989   -6.9951    3.7462 H   0  0  0  0  0  0  0  0  0  0  0  0
    2.7209   -6.4330    5.0432 H   0  0  0  0  0  0  0  0  0  0  0  0
    5.3544   -7.9765    4.1223 H   0  0  0  0  0  0  0  0  0  0  0  0
    4.7556   -7.9373    5.7456 H   0  0  0  0  0  0  0  0  0  0  0  0
    4.9271   -5.9478    7.1729 H   0  0  0  0  0  0  0  0  0  0  0  0
    3.7017   -5.6433    6.2497 H   0  0  0  0  0  0  0  0  0  0  0  0
    5.7463   -3.7519    5.8988 H   0  0  0  0  0  0  0  0  0  0  0  0
    4.0868   -3.5223    6.4955 H   0  0  0  0  0  0  0  0  0  0  0  0
    6.4143   -4.8716    3.2660 H   0  0  0  0  0  0  0  0  0  0  0  0
    6.8591   -6.5107    3.0402 H   0  0  0  0  0  0  0  0  0  0  0  0
    4.5499   -8.3656    2.2794 H   0  0  0  0  0  0  0  0  0  0  0  0
    2.1572   -8.1376    1.6286 H   0  0  0  0  0  0  0  0  0  0  0  0
    1.2640   -5.9590    2.0256 H   0  0  0  0  0  0  0  0  0  0  0  0
    3.0468   -4.4263    0.5779 H   0  0  0  0  0  0  0  0  0  0  0  0
  1  2  1  0  0  0  0
  1 40  1  0  0  0  0
  1 41  1  0  0  0  0
  1 42  1  0  0  0  0
  2  3  1  0  0  0  0
  2 10  1  0  0  0  0
  3  4  2  0  0  0  0
  3 43  1  0  0  0  0
  4  5  1  0  0  0  0
  4 11  1  0  0  0  0
  5  6  2  0  0  0  0
  5 10  1  0  0  0  0
  6  7  1  0  0  0  0
  6 44  1  0  0  0  0
  7  8  2  0  0  0  0
  7 45  1  0  0  0  0
  8  9  1  0  0  0  0
  8 46  1  0  0  0  0
  9 10  2  0  0  0  0
  9 47  1  0  0  0  0
 11 12  2  0  0  0  0
 11 16  1  0  0  0  0
 12 13  1  0  0  0  0
 12 18  1  0  0  0  0
 13 14  2  0  0  0  0
 13 15  1  0  0  0  0
 15 16  1  0  0  0  0
 15 48  1  0  0  0  0
 16 17  2  0  0  0  0
 18 19  2  0  0  0  0
 18 26  1  0  0  0  0
 19 20  1  0  0  0  0
 19 49  1  0  0  0  0
 20 21  1  0  0  0  0
 20 27  1  0  0  0  0
 21 22  2  0  0  0  0
 21 26  1  0  0  0  0
 22 23  1  0  0  0  0
 22 50  1  0  0  0  0
 23 24  2  0  0  0  0
 23 51  1  0  0  0  0
 24 25  1  0  0  0  0
 24 52  1  0  0  0  0
 25 26  2  0  0  0  0
 25 53  1  0  0  0  0
 27 28  1  0  0  0  0
 27 32  1  0  0  0  0
 27 54  1  0  0  0  0
 28 29  1  0  0  0  0
 28 55  1  0  0  0  0
 28 56  1  0  0  0  0
 29 30  1  0  0  0  0
 29 57  1  0  0  0  0
 29 58  1  0  0  0  0
 30 31  1  0  0  0  0
 30 33  1  0  0  0  0
 31 32  1  0  0  0  0
 31 59  1  0  0  0  0
 31 60  1  0  0  0  0
 32 61  1  0  0  0  0
 32 62  1  0  0  0  0
 33 34  1  0  0  0  0
 33 63  1  0  0  0  0
 33 64  1  0  0  0  0
 34 35  2  0  0  0  0
 34 39  1  0  0  0  0
 35 36  1  0  0  0  0
 35 65  1  0  0  0  0
 36 37  2  0  0  0  0
 36 66  1  0  0  0  0
 37 38  1  0  0  0  0
 37 67  1  0  0  0  0
 38 39  2  0  0  0  0
 38 68  1  0  0  0  0
M  END
>  <DRUGBANK_ID>
DB06486

>  <COMMON_NAME>
Enzastaurin

>  <CAS_NUMBER>
170364-57-5

>  <UNII>
UC96G28EQF

>  <SYNONYMS>
Enzastaurin

$$$$
