
 OpenBabel10282417203D

121128  0  0  1  0  0  0  0  0999 V2000
    6.0371   11.7828   13.2994 C   0  0  0  0  0  0  0  0  0  0  0  0
    5.5849   10.5305   14.0322 C   0  0  0  0  0  0  0  0  0  0  0  0
    6.3825   10.3298   15.3313 C   0  0  0  0  0  0  0  0  0  0  0  0
    4.1286   10.5043   14.2494 N   0  0  0  0  0  0  0  0  0  0  0  0
    3.2415    9.5433   13.8027 C   0  0  0  0  0  0  0  0  0  0  0  0
    3.2744    8.2296   13.9513 N   0  0  0  0  0  0  0  0  0  0  0  0
    2.2080    7.4762   13.4355 C   0  0  0  0  0  0  0  0  0  0  0  0
    1.3033    8.3579   12.8912 C   0  0  0  0  0  0  0  0  0  0  0  0
    1.7520   10.0147   13.0826 S   0  0  0  0  0  0  0  0  0  0  0  0
    2.0212    5.8738   13.6104 C   0  0  0  0  0  0  0  0  0  0  0  0
    2.0543    5.1035   12.5577 C   0  0  0  0  0  0  0  0  0  0  0  0
    2.0025    3.5921   12.3484 C   0  0  0  0  0  0  0  0  0  0  0  0
    2.1808    2.8734   13.4811 C   0  0  0  0  0  0  0  0  0  0  0  0
    2.3600    1.5010   13.4770 C   0  0  0  0  0  0  0  0  0  0  0  0
    2.4492    0.8491   14.6969 C   0  0  0  0  0  0  0  0  0  0  0  0
    2.5145    1.5653   15.8978 C   0  0  0  0  0  0  0  0  0  0  0  0
    2.4035    2.9571   15.8507 C   0  0  0  0  0  0  0  0  0  0  0  0
    2.2074    3.6539   14.6552 C   0  0  0  0  0  0  0  0  0  0  0  0
    2.0926    5.0481   14.6599 N   0  0  0  0  0  0  0  0  0  0  0  0
    2.4954    3.8514   17.3216 Cl  0  0  0  0  0  0  0  0  0  0  0  0
    2.6748    0.7865   17.0218 O   0  0  0  0  0  0  0  0  0  0  0  0
    2.8707    1.4278   18.2859 C   0  0  0  0  0  0  0  0  0  0  0  0
    1.8833    2.8526   10.9152 O   0  0  0  0  0  0  0  0  0  0  0  0
    1.9244    3.7453    9.3316 C   0  0  2  0  0  0  0  0  0  0  0  0
    3.1061    4.7662    9.1738 C   0  0  0  0  0  0  0  0  0  0  0  0
    3.0559    4.7012   10.5944 C   0  0  1  0  0  0  0  0  0  0  0  0
    4.2978    5.5042   11.4647 C   0  0  0  0  0  0  0  0  0  0  0  0
    4.2867    6.7335   11.4160 O   0  0  0  0  0  0  0  0  0  0  0  0
    5.1369    4.7935   12.3914 N   0  0  0  0  0  0  0  0  0  0  0  0
    5.7235    5.4683   13.6669 C   0  0  2  0  0  0  0  0  0  0  0  0
    5.4508    4.5366   14.9549 C   0  0  0  0  0  0  0  0  0  0  0  0
    4.7313    5.8053   14.8200 C   0  0  1  0  0  0  0  0  0  0  0  0
    4.5333    6.8314   15.9665 C   0  0  0  0  0  0  0  0  0  0  0  0
    3.1702    6.6670   16.7275 C   0  0  0  0  0  0  0  0  0  0  0  0
    1.7967    7.2198   16.3217 C   0  0  0  0  0  0  0  0  0  0  0  0
    0.5053    6.4660   16.6834 C   0  0  0  0  0  0  0  0  0  0  0  0
   -0.5950    6.9463   15.6854 C   0  0  0  0  0  0  0  0  0  0  0  0
   -0.9656    5.8381   14.7042 C   0  0  0  0  0  0  0  0  0  0  0  0
   -1.6539    6.2555   13.3454 C   0  0  0  0  0  0  0  0  0  0  0  0
   -1.5103    4.9854   12.3271 C   0  0  1  0  0  0  0  0  0  0  0  0
   -0.0142    5.4374   11.4007 C   0  0  0  0  0  0  0  0  0  0  0  0
   -0.0026    6.6585   11.1507 O   0  0  0  0  0  0  0  0  0  0  0  0
    1.0837    4.8057   10.6283 N   0  0  0  0  0  0  0  0  0  0  0  0
    0.8015    4.7092    9.2965 C   0  0  0  0  0  0  0  0  0  0  0  0
   -2.2840    4.1681   13.2754 N   0  0  0  0  0  0  0  0  0  0  0  0
   -2.4655    2.8645   13.4952 C   0  0  0  0  0  0  0  0  0  0  0  0
   -3.2444    2.5331   14.3333 O   0  0  0  0  0  0  0  0  0  0  0  0
   -1.6146    2.1565   12.7081 O   0  0  0  0  0  0  0  0  0  0  0  0
   -1.7397    0.7618   12.9029 C   0  0  0  0  0  0  0  0  0  0  0  0
   -1.8377    0.4170   14.3848 C   0  0  0  0  0  0  0  0  0  0  0  0
   -1.1411   -0.8906   14.6102 C   0  0  0  0  0  0  0  0  0  0  0  0
   -0.6034   -1.2972   13.2517 C   0  0  0  0  0  0  0  0  0  0  0  0
   -0.5103   -0.0057   12.4544 C   0  0  0  0  0  0  0  0  0  0  0  0
    6.5406    7.0500   13.2250 P   0  0  3  0  0  0  0  0  0  0  0  0
    5.6299    8.0407   13.7897 O   0  0  0  0  0  0  0  0  0  0  0  0
    8.1389    7.3664   13.8661 C   0  0  0  0  0  0  0  0  0  0  0  0
    9.0689    6.5777   13.0226 C   0  0  0  0  0  0  0  0  0  0  0  0
    9.0533    5.1967   13.1711 C   0  0  0  0  0  0  0  0  0  0  0  0
    9.7411    4.3758   12.3013 C   0  0  0  0  0  0  0  0  0  0  0  0
   10.4610    4.9452   11.2543 C   0  0  0  0  0  0  0  0  0  0  0  0
   10.4324    6.3267   11.0511 C   0  0  0  0  0  0  0  0  0  0  0  0
    9.7146    7.1337   11.9220 C   0  0  0  0  0  0  0  0  0  0  0  0
    9.6175    8.4475   11.6676 F   0  0  0  0  0  0  0  0  0  0  0  0
    8.3098    4.6454   14.1392 F   0  0  0  0  0  0  0  0  0  0  0  0
    6.6572    7.3715   11.6420 O   0  0  0  0  0  0  0  0  0  0  0  0
    5.8758   12.6920   13.8742 H   0  0  0  0  0  0  0  0  0  0  0  0
    5.5080   11.8435   12.3419 H   0  0  0  0  0  0  0  0  0  0  0  0
    7.1080   11.6948   13.0606 H   0  0  0  0  0  0  0  0  0  0  0  0
    5.9240    9.8395   13.2713 H   0  0  0  0  0  0  0  0  0  0  0  0
    6.2558   11.1671   16.0234 H   0  0  0  0  0  0  0  0  0  0  0  0
    6.0976    9.4163   15.8639 H   0  0  0  0  0  0  0  0  0  0  0  0
    7.4572   10.2420   15.1200 H   0  0  0  0  0  0  0  0  0  0  0  0
    3.7578   11.2708   14.7921 H   0  0  0  0  0  0  0  0  0  0  0  0
    0.3472    8.1890   12.4617 H   0  0  0  0  0  0  0  0  0  0  0  0
    2.1103    5.8980   11.7936 H   0  0  0  0  0  0  0  0  0  0  0  0
    2.3549    0.9614   12.5315 H   0  0  0  0  0  0  0  0  0  0  0  0
    2.4365   -0.2342   14.7053 H   0  0  0  0  0  0  0  0  0  0  0  0
    3.8062    2.0126   18.2865 H   0  0  0  0  0  0  0  0  0  0  0  0
    1.9804    2.0064   18.5744 H   0  0  0  0  0  0  0  0  0  0  0  0
    2.9656    0.7056   19.0877 H   0  0  0  0  0  0  0  0  0  0  0  0
    1.9024    2.9603    8.5842 H   0  0  0  0  0  0  0  0  0  0  0  0
    3.0876    5.8686    9.0968 H   0  0  0  0  0  0  0  0  0  0  0  0
    3.4840    4.4612    8.2038 H   0  0  0  0  0  0  0  0  0  0  0  0
    3.5449    3.6795   10.7379 H   0  0  0  0  0  0  0  0  0  0  0  0
    5.5772    3.8946   12.1995 H   0  0  0  0  0  0  0  0  0  0  0  0
    5.5754    4.4464   16.0408 H   0  0  0  0  0  0  0  0  0  0  0  0
    4.8941    3.6091   14.7447 H   0  0  0  0  0  0  0  0  0  0  0  0
    3.9168    5.9875   14.2134 H   0  0  0  0  0  0  0  0  0  0  0  0
    5.3466    6.8774   16.6893 H   0  0  0  0  0  0  0  0  0  0  0  0
    4.5077    7.8170   15.5564 H   0  0  0  0  0  0  0  0  0  0  0  0
    3.2636    6.6793   17.8097 H   0  0  0  0  0  0  0  0  0  0  0  0
    3.0402    5.6677   16.4492 H   0  0  0  0  0  0  0  0  0  0  0  0
    1.7176    8.3012   16.2575 H   0  0  0  0  0  0  0  0  0  0  0  0
    1.7021    6.9881   15.3140 H   0  0  0  0  0  0  0  0  0  0  0  0
    0.2712    6.5969   17.7371 H   0  0  0  0  0  0  0  0  0  0  0  0
    0.5817    5.3776   16.5499 H   0  0  0  0  0  0  0  0  0  0  0  0
   -1.4383    7.3182   16.2682 H   0  0  0  0  0  0  0  0  0  0  0  0
   -0.2657    7.7826   15.0670 H   0  0  0  0  0  0  0  0  0  0  0  0
   -1.5292    5.0995   15.2959 H   0  0  0  0  0  0  0  0  0  0  0  0
   -0.1160    5.2444   14.3970 H   0  0  0  0  0  0  0  0  0  0  0  0
   -2.6708    6.5681   13.6439 H   0  0  0  0  0  0  0  0  0  0  0  0
   -1.2923    7.1400   12.8457 H   0  0  0  0  0  0  0  0  0  0  0  0
   -2.2259    4.9664   11.4948 H   0  0  0  0  0  0  0  0  0  0  0  0
    0.9211    5.7729    9.0175 H   0  0  0  0  0  0  0  0  0  0  0  0
   -0.0763    4.3247    8.7969 H   0  0  0  0  0  0  0  0  0  0  0  0
   -2.9783    4.6194   13.8832 H   0  0  0  0  0  0  0  0  0  0  0  0
   -2.5911    0.4275   12.3043 H   0  0  0  0  0  0  0  0  0  0  0  0
   -1.3552    1.1854   15.0066 H   0  0  0  0  0  0  0  0  0  0  0  0
   -2.8901    0.3424   14.6710 H   0  0  0  0  0  0  0  0  0  0  0  0
   -0.3395   -0.7376   15.3402 H   0  0  0  0  0  0  0  0  0  0  0  0
   -1.8448   -1.6165   15.0226 H   0  0  0  0  0  0  0  0  0  0  0  0
    0.3546   -1.8120   13.3492 H   0  0  0  0  0  0  0  0  0  0  0  0
   -1.3170   -1.9710   12.7683 H   0  0  0  0  0  0  0  0  0  0  0  0
   -0.4569   -0.1727   11.3747 H   0  0  0  0  0  0  0  0  0  0  0  0
    0.3784    0.5436   12.7179 H   0  0  0  0  0  0  0  0  0  0  0  0
    8.3802    8.4380   13.8146 H   0  0  0  0  0  0  0  0  0  0  0  0
    8.1596    7.0914   14.9217 H   0  0  0  0  0  0  0  0  0  0  0  0
    9.7088    3.3044   12.4562 H   0  0  0  0  0  0  0  0  0  0  0  0
   11.0403    4.3100   10.5931 H   0  0  0  0  0  0  0  0  0  0  0  0
   10.9589    6.7790   10.2174 H   0  0  0  0  0  0  0  0  0  0  0  0
    6.0029    8.0838   11.4259 H   0  0  0  0  0  0  0  0  0  0  0  0
  1  2  1  0  0  0  0
  1 66  1  0  0  0  0
  1 67  1  0  0  0  0
  1 68  1  0  0  0  0
  2  3  1  0  0  0  0
  2  4  1  0  0  0  0
  2 69  1  0  0  0  0
  3 70  1  0  0  0  0
  3 71  1  0  0  0  0
  3 72  1  0  0  0  0
  4  5  1  0  0  0  0
  4 73  1  0  0  0  0
  5  6  2  0  0  0  0
  5  9  1  0  0  0  0
  6  7  1  0  0  0  0
  7  8  2  0  0  0  0
  7 10  1  0  0  0  0
  8  9  1  0  0  0  0
  8 74  1  0  0  0  0
 10 11  2  0  0  0  0
 10 19  1  0  0  0  0
 11 12  1  0  0  0  0
 11 75  1  0  0  0  0
 12 13  2  0  0  0  0
 12 23  1  0  0  0  0
 13 14  1  0  0  0  0
 13 18  1  0  0  0  0
 14 15  2  0  0  0  0
 14 76  1  0  0  0  0
 15 16  1  0  0  0  0
 15 77  1  0  0  0  0
 16 17  2  0  0  0  0
 16 21  1  0  0  0  0
 17 18  1  0  0  0  0
 17 20  1  0  0  0  0
 18 19  2  0  0  0  0
 21 22  1  0  0  0  0
 22 78  1  0  0  0  0
 22 79  1  0  0  0  0
 22 80  1  0  0  0  0
 24 25  1  0  0  0  0
 24 44  1  0  0  0  0
 24 23  1  0  0  0  0
 24 81  1  6  0  0  0
 25 26  1  0  0  0  0
 25 82  1  0  0  0  0
 25 83  1  0  0  0  0
 26 27  1  0  0  0  0
 26 43  1  0  0  0  0
 26 84  1  1  0  0  0
 27 29  1  0  0  0  0
 27 28  2  0  0  0  0
 29 30  1  0  0  0  0
 29 85  1  0  0  0  0
 30 31  1  0  0  0  0
 30 32  1  0  0  0  0
 30 54  1  6  0  0  0
 31 86  1  0  0  0  0
 31 87  1  0  0  0  0
 32 31  1  0  0  0  0
 32 33  1  0  0  0  0
 32 88  1  6  0  0  0
 33 34  1  0  0  0  0
 33 89  1  0  0  0  0
 33 90  1  0  0  0  0
 34 35  1  0  0  0  0
 34 91  1  0  0  0  0
 34 92  1  0  0  0  0
 35 36  1  0  0  0  0
 35 93  1  0  0  0  0
 35 94  1  0  0  0  0
 36 37  1  0  0  0  0
 36 95  1  0  0  0  0
 36 96  1  0  0  0  0
 37 38  1  0  0  0  0
 37 97  1  0  0  0  0
 37 98  1  0  0  0  0
 38 39  1  0  0  0  0
 38 99  1  0  0  0  0
 38100  1  0  0  0  0
 39 40  1  0  0  0  0
 39101  1  0  0  0  0
 39102  1  0  0  0  0
 40 41  1  0  0  0  0
 40 45  1  0  0  0  0
 40103  1  6  0  0  0
 41 43  1  0  0  0  0
 41 42  2  0  0  0  0
 43 44  1  0  0  0  0
 44104  1  0  0  0  0
 44105  1  0  0  0  0
 45 46  1  0  0  0  0
 45106  1  0  0  0  0
 46 47  2  0  0  0  0
 46 48  1  0  0  0  0
 48 49  1  0  0  0  0
 49 50  1  0  0  0  0
 49 53  1  0  0  0  0
 49107  1  0  0  0  0
 50 51  1  0  0  0  0
 50108  1  0  0  0  0
 50109  1  0  0  0  0
 51 52  1  0  0  0  0
 51110  1  0  0  0  0
 51111  1  0  0  0  0
 52 53  1  0  0  0  0
 52112  1  0  0  0  0
 52113  1  0  0  0  0
 53114  1  0  0  0  0
 53115  1  0  0  0  0
 54 55  2  0  0  0  0
 54 56  1  0  0  0  0
 54 65  1  0  0  0  0
 56 57  1  0  0  0  0
 56116  1  0  0  0  0
 56117  1  0  0  0  0
 57 58  2  0  0  0  0
 57 62  1  0  0  0  0
 58 59  1  0  0  0  0
 58 64  1  0  0  0  0
 59 60  2  0  0  0  0
 59118  1  0  0  0  0
 60 61  1  0  0  0  0
 60119  1  0  0  0  0
 61 62  2  0  0  0  0
 61120  1  0  0  0  0
 62 63  1  0  0  0  0
 65121  1  0  0  0  0
M  END
>  <DRUGBANK_ID>
DB12876

>  <COMMON_NAME>
GS-9256

>  <CAS_NUMBER>
1001094-46-7

>  <UNII>
8V42Y78HRU

$$$$
