NAB
 OpenBabel10282417173D

 34 36  0  0  0  0  0  0  0  0999 V2000
    1.4865   -0.2948    0.0088 C   0  0  0  0  0  0  0  0  0  0  0  0
    0.5501   -1.3728   -0.0088 C   0  0  0  0  0  0  0  0  0  0  0  0
   -0.8394   -1.0998   -0.0140 C   0  0  0  0  0  0  0  0  0  0  0  0
   -1.3401    0.1982   -0.0040 C   0  0  0  0  0  0  0  0  0  0  0  0
   -0.4527    1.2590    0.0420 C   0  0  0  0  0  0  0  0  0  0  0  0
    0.9326    1.0159   -0.0049 C   0  0  0  0  0  0  0  0  0  0  0  0
    4.7047   -1.7898    0.1943 C   0  0  0  0  0  0  0  0  0  0  0  0
    5.4979   -1.2102    1.1566 C   0  0  0  0  0  0  0  0  0  0  0  0
    6.7568   -1.7239    1.2305 C   0  0  0  0  0  0  0  0  0  0  0  0
    7.2339   -2.6838    0.2050 C   0  0  0  0  0  0  0  0  0  0  0  0
    6.4599   -3.3404   -1.0535 C   0  0  0  0  0  0  0  0  0  0  0  0
    6.2964   -4.3108   -2.5018 C   0  0  0  0  0  0  0  0  0  0  0  0
    5.0920   -4.9502   -2.8708 C   0  0  0  0  0  0  0  0  0  0  0  0
    4.6613   -5.1057   -1.6370 C   0  0  0  0  0  0  0  0  0  0  0  0
    4.2704   -3.8217   -1.2523 C   0  0  0  0  0  0  0  0  0  0  0  0
    5.1796   -2.9301   -0.7175 C   0  0  0  0  0  0  0  0  0  0  0  0
    0.7979   -2.8641   -0.0578 C   0  0  0  0  0  0  0  0  0  0  0  0
    2.9297   -0.3612   -0.0117 N   0  0  0  0  0  0  0  0  0  0  0  0
    3.3405   -1.4727    0.3681 N   0  0  0  0  0  0  0  0  0  0  0  0
   -0.0153   -3.7296   -0.0163 O   0  0  0  0  0  0  0  0  0  0  0  0
    2.0814   -3.1756   -0.1732 O   0  0  0  0  0  0  0  0  0  0  0  0
    8.5440   -3.0604    0.5155 O   0  0  0  0  0  0  0  0  0  0  0  0
   -1.5518   -1.9243   -0.0243 H   0  0  0  0  0  0  0  0  0  0  0  0
   -2.4143    0.3695   -0.0423 H   0  0  0  0  0  0  0  0  0  0  0  0
   -0.8423    2.2737    0.1154 H   0  0  0  0  0  0  0  0  0  0  0  0
    1.5896    1.8831   -0.0745 H   0  0  0  0  0  0  0  0  0  0  0  0
    5.0813   -0.4819    1.8621 H   0  0  0  0  0  0  0  0  0  0  0  0
    7.3481   -1.3500    2.0727 H   0  0  0  0  0  0  0  0  0  0  0  0
    7.0615   -5.0593   -2.8193 H   0  0  0  0  0  0  0  0  0  0  0  0
    4.2470   -4.6442   -3.5301 H   0  0  0  0  0  0  0  0  0  0  0  0
    5.4778   -5.6105   -1.0325 H   0  0  0  0  0  0  0  0  0  0  0  0
    3.4933   -3.3052   -1.8244 H   0  0  0  0  0  0  0  0  0  0  0  0
    2.3298   -4.0983   -0.0110 H   0  0  0  0  0  0  0  0  0  0  0  0
    8.8328   -2.5063    1.2772 H   0  0  0  0  0  0  0  0  0  0  0  0
  1  2  1  0  0  0  0
  1  6  2  0  0  0  0
  1 18  1  0  0  0  0
  2  3  2  0  0  0  0
  2 17  1  0  0  0  0
  3  4  1  0  0  0  0
  3 23  1  0  0  0  0
  4  5  2  0  0  0  0
  4 24  1  0  0  0  0
  5  6  1  0  0  0  0
  5 25  1  0  0  0  0
  6 26  1  0  0  0  0
  7  8  1  0  0  0  0
  7 16  2  0  0  0  0
  7 19  1  0  0  0  0
  8  9  2  0  0  0  0
  8 27  1  0  0  0  0
  9 10  1  0  0  0  0
  9 28  1  0  0  0  0
 10 11  2  0  0  0  0
 10 22  1  0  0  0  0
 11 12  1  0  0  0  0
 11 16  1  0  0  0  0
 12 13  2  0  0  0  0
 12 29  1  0  0  0  0
 13 14  1  0  0  0  0
 13 30  1  0  0  0  0
 14 15  2  0  0  0  0
 14 31  1  0  0  0  0
 15 16  1  0  0  0  0
 15 32  1  0  0  0  0
 17 20  2  0  0  0  0
 17 21  1  0  0  0  0
 18 19  2  0  0  0  0
 21 33  1  0  0  0  0
 22 34  1  0  0  0  0
M  END
>  <DRUGBANK_ID>
DB08252

>  <COMMON_NAME>
2-((4'-HYDROXYNAPHTHYL)-AZO)BENZOIC ACID

$$$$
