
 OpenBabel10282417203D

 35 37  0  0  0  0  0  0  0  0999 V2000
    1.0457   -0.0309   -0.2344 O   0  0  0  0  0  0  0  0  0  0  0  0
    2.2671    0.0729   -0.0849 C   0  0  0  0  0  0  0  0  0  0  0  0
    3.0878   -0.1613   -1.1803 N   0  0  0  0  0  0  0  0  0  0  0  0
    4.4860   -0.3823   -1.2447 C   0  0  0  0  0  0  0  0  0  0  0  0
    5.2150   -1.1107   -0.2766 C   0  0  0  0  0  0  0  0  0  0  0  0
    6.6172   -1.1511   -0.3806 C   0  0  0  0  0  0  0  0  0  0  0  0
    7.2853   -0.5689   -1.4478 C   0  0  0  0  0  0  0  0  0  0  0  0
    6.5569    0.0596   -2.4491 C   0  0  0  0  0  0  0  0  0  0  0  0
    5.1660    0.1742   -2.3414 C   0  0  0  0  0  0  0  0  0  0  0  0
    4.6146   -1.8870    0.8181 C   0  0  0  0  0  0  0  0  0  0  0  0
    3.5537   -2.7739    0.5981 C   0  0  0  0  0  0  0  0  0  0  0  0
    2.9517   -3.4356    1.6697 C   0  0  0  0  0  0  0  0  0  0  0  0
    3.3938   -3.2035    2.9723 C   0  0  0  0  0  0  0  0  0  0  0  0
    2.5208   -3.8512    4.3046 Cl  0  0  0  0  0  0  0  0  0  0  0  0
    4.4584   -2.3442    3.2104 C   0  0  0  0  0  0  0  0  0  0  0  0
    5.0712   -1.7038    2.1357 C   0  0  0  0  0  0  0  0  0  0  0  0
    2.8239    0.5317    1.2181 C   0  0  0  0  0  0  0  0  0  0  0  0
    2.3288    0.0821    2.4394 C   0  0  0  0  0  0  0  0  0  0  0  0
    0.9300   -0.9088    2.6253 Cl  0  0  0  0  0  0  0  0  0  0  0  0
    2.9571    0.2936    3.6332 N   0  0  0  0  0  0  0  0  0  0  0  0
    4.1112    0.9941    3.6129 C   0  0  0  0  0  0  0  0  0  0  0  0
    4.6248    1.5772    2.4689 C   0  0  0  0  0  0  0  0  0  0  0  0
    3.9575    1.3604    1.2627 C   0  0  0  0  0  0  0  0  0  0  0  0
    2.5726   -0.2704   -2.0489 H   0  0  0  0  0  0  0  0  0  0  0  0
    7.1949   -1.6827    0.3738 H   0  0  0  0  0  0  0  0  0  0  0  0
    8.3685   -0.6344   -1.4963 H   0  0  0  0  0  0  0  0  0  0  0  0
    7.0803    0.4687   -3.3094 H   0  0  0  0  0  0  0  0  0  0  0  0
    4.6370    0.7594   -3.0918 H   0  0  0  0  0  0  0  0  0  0  0  0
    3.1385   -2.8962   -0.4010 H   0  0  0  0  0  0  0  0  0  0  0  0
    2.0817   -4.0586    1.4862 H   0  0  0  0  0  0  0  0  0  0  0  0
    4.7306   -2.0644    4.2250 H   0  0  0  0  0  0  0  0  0  0  0  0
    5.8196   -0.9400    2.3433 H   0  0  0  0  0  0  0  0  0  0  0  0
    4.6641    1.0149    4.5498 H   0  0  0  0  0  0  0  0  0  0  0  0
    5.5673    2.1143    2.4942 H   0  0  0  0  0  0  0  0  0  0  0  0
    4.3882    1.7611    0.3499 H   0  0  0  0  0  0  0  0  0  0  0  0
  1  2  2  0  0  0  0
  2  3  1  0  0  0  0
  2 17  1  0  0  0  0
  3  4  1  0  0  0  0
  3 24  1  0  0  0  0
  4  5  2  0  0  0  0
  4  9  1  0  0  0  0
  5  6  1  0  0  0  0
  5 10  1  0  0  0  0
  6  7  2  0  0  0  0
  6 25  1  0  0  0  0
  7  8  1  0  0  0  0
  7 26  1  0  0  0  0
  8  9  2  0  0  0  0
  8 27  1  0  0  0  0
  9 28  1  0  0  0  0
 10 11  2  0  0  0  0
 10 16  1  0  0  0  0
 11 12  1  0  0  0  0
 11 29  1  0  0  0  0
 12 13  2  0  0  0  0
 12 30  1  0  0  0  0
 13 14  1  0  0  0  0
 13 15  1  0  0  0  0
 15 16  2  0  0  0  0
 15 31  1  0  0  0  0
 16 32  1  0  0  0  0
 17 18  2  0  0  0  0
 17 23  1  0  0  0  0
 18 19  1  0  0  0  0
 18 20  1  0  0  0  0
 20 21  2  0  0  0  0
 21 22  1  0  0  0  0
 21 33  1  0  0  0  0
 22 23  2  0  0  0  0
 22 34  1  0  0  0  0
 23 35  1  0  0  0  0
M  END
>  <DRUGBANK_ID>
DB12792

>  <COMMON_NAME>
Boscalid

>  <CAS_NUMBER>
188425-85-6

>  <UNII>
32MS8ZRD1V

>  <SYNONYMS>
Endura

$$$$
