P41
 OpenBabel10282417173D

 41 44  0  0  0  0  0  0  0  0999 V2000
   -0.0461    0.5376    0.0392 C   0  0  0  0  0  0  0  0  0  0  0  0
   -4.3411   -3.2488    1.1509 C   0  0  0  0  0  0  0  0  0  0  0  0
   -4.2807   -3.2242   -1.3463 C   0  0  0  0  0  0  0  0  0  0  0  0
   -2.0337   -0.9015   -0.0240 C   0  0  0  0  0  0  0  0  0  0  0  0
    3.4693    1.8666   -0.0899 C   0  0  0  0  0  0  0  0  0  0  0  0
   -3.5286   -2.8396   -0.0748 C   0  0  0  0  0  0  0  0  0  0  0  0
    0.1804   -0.8384    0.0271 C   0  0  0  0  0  0  0  0  0  0  0  0
    5.6869    0.3180   -2.3983 C   0  0  0  0  0  0  0  0  0  0  0  0
    3.5663    0.1923   -4.2026 C   0  0  0  0  0  0  0  0  0  0  0  0
    4.6893   -0.6131   -4.3886 C   0  0  0  0  0  0  0  0  0  0  0  0
    3.5066    1.0633   -3.1137 C   0  0  0  0  0  0  0  0  0  0  0  0
    2.5632   -0.4064    0.0610 C   0  0  0  0  0  0  0  0  0  0  0  0
    1.5029   -1.3139    0.0410 C   0  0  0  0  0  0  0  0  0  0  0  0
    5.7483   -0.5539   -3.4822 C   0  0  0  0  0  0  0  0  0  0  0  0
    1.0174    1.4664    0.0630 C   0  0  0  0  0  0  0  0  0  0  0  0
    4.8625    3.4081    0.4533 C   0  0  0  0  0  0  0  0  0  0  0  0
    2.3331    0.9745    0.0650 C   0  0  0  0  0  0  0  0  0  0  0  0
    4.5736    1.1339   -2.2034 C   0  0  0  0  0  0  0  0  0  0  0  0
    4.4754    1.9669   -1.0297 C   0  0  0  0  0  0  0  0  0  0  0  0
    5.3607    2.9517   -0.6752 N   0  0  0  0  0  0  0  0  0  0  0  0
   -0.9480   -1.6314   -0.0095 N   0  0  0  0  0  0  0  0  0  0  0  0
   -3.2911   -1.4026   -0.0559 N   0  0  0  0  0  0  0  0  0  0  0  0
    3.7057    2.8110    0.8715 O   0  0  0  0  0  0  0  0  0  0  0  0
    6.6959    0.3112   -1.5141 F   0  0  0  0  0  0  0  0  0  0  0  0
   -1.7523    0.8015   -0.0043 S   0  0  0  0  0  0  0  0  0  0  0  0
   -5.3231   -2.7631    1.1628 H   0  0  0  0  0  0  0  0  0  0  0  0
   -4.5026   -4.3329    1.1572 H   0  0  0  0  0  0  0  0  0  0  0  0
   -3.8218   -2.9801    2.0764 H   0  0  0  0  0  0  0  0  0  0  0  0
   -3.7173   -2.9373   -2.2400 H   0  0  0  0  0  0  0  0  0  0  0  0
   -4.4412   -4.3078   -1.3819 H   0  0  0  0  0  0  0  0  0  0  0  0
   -5.2611   -2.7377   -1.3960 H   0  0  0  0  0  0  0  0  0  0  0  0
   -2.5892   -3.4049   -0.0575 H   0  0  0  0  0  0  0  0  0  0  0  0
    2.7329    0.1381   -4.8994 H   0  0  0  0  0  0  0  0  0  0  0  0
    4.7364   -1.2915   -5.2365 H   0  0  0  0  0  0  0  0  0  0  0  0
    2.6149    1.6711   -2.9716 H   0  0  0  0  0  0  0  0  0  0  0  0
    3.5799   -0.7975    0.0399 H   0  0  0  0  0  0  0  0  0  0  0  0
    1.6883   -2.3830    0.0150 H   0  0  0  0  0  0  0  0  0  0  0  0
    6.6187   -1.1905   -3.6033 H   0  0  0  0  0  0  0  0  0  0  0  0
    0.8218    2.5346    0.0271 H   0  0  0  0  0  0  0  0  0  0  0  0
    5.2606    4.1942    1.0806 H   0  0  0  0  0  0  0  0  0  0  0  0
   -4.0913   -0.7838   -0.0661 H   0  0  0  0  0  0  0  0  0  0  0  0
  1  7  2  0  0  0  0
  1 15  1  0  0  0  0
  1 25  1  0  0  0  0
  2  6  1  0  0  0  0
  2 26  1  0  0  0  0
  2 27  1  0  0  0  0
  2 28  1  0  0  0  0
  3  6  1  0  0  0  0
  3 29  1  0  0  0  0
  3 30  1  0  0  0  0
  3 31  1  0  0  0  0
  4 21  2  0  0  0  0
  4 22  1  0  0  0  0
  4 25  1  0  0  0  0
  5 17  1  0  0  0  0
  5 19  2  0  0  0  0
  5 23  1  0  0  0  0
  6 22  1  0  0  0  0
  6 32  1  0  0  0  0
  7 13  1  0  0  0  0
  7 21  1  0  0  0  0
  8 14  2  0  0  0  0
  8 18  1  0  0  0  0
  8 24  1  0  0  0  0
  9 10  2  0  0  0  0
  9 11  1  0  0  0  0
  9 33  1  0  0  0  0
 10 14  1  0  0  0  0
 10 34  1  0  0  0  0
 11 18  2  0  0  0  0
 11 35  1  0  0  0  0
 12 13  2  0  0  0  0
 12 17  1  0  0  0  0
 12 36  1  0  0  0  0
 13 37  1  0  0  0  0
 14 38  1  0  0  0  0
 15 17  2  0  0  0  0
 15 39  1  0  0  0  0
 16 20  2  0  0  0  0
 16 23  1  0  0  0  0
 16 40  1  0  0  0  0
 18 19  1  0  0  0  0
 19 20  1  0  0  0  0
 22 41  1  0  0  0  0
M  END
>  <DRUGBANK_ID>
DB08352

>  <COMMON_NAME>
6-[4-(2-fluorophenyl)-1,3-oxazol-5-yl]-N-(1-methylethyl)-1,3-benzothiazol-2-amine

$$$$
