FHM
 OpenBabel10282417163D

 42 43  0  0  0  0  0  0  0  0999 V2000
   -1.1420    1.1598   -0.3862 C   0  0  0  0  0  0  0  0  0  0  0  0
    0.2341    1.1519   -0.1903 C   0  0  0  0  0  0  0  0  0  0  0  0
    0.8793   -0.0610   -0.0354 C   0  0  0  0  0  0  0  0  0  0  0  0
    2.2126   -0.0822    0.0704 F   0  0  0  0  0  0  0  0  0  0  0  0
    0.1623   -1.2526   -0.0110 C   0  0  0  0  0  0  0  0  0  0  0  0
   -1.2310   -1.2229   -0.0606 C   0  0  0  0  0  0  0  0  0  0  0  0
   -1.8912   -0.0067   -0.2064 C   0  0  0  0  0  0  0  0  0  0  0  0
   -3.2463   -0.0718   -0.0603 O   0  0  0  0  0  0  0  0  0  0  0  0
   -3.9709    1.1525    0.0073 C   0  0  0  0  0  0  0  0  0  0  0  0
   -3.7611    2.0266    1.2788 C   0  0  1  0  0  0  0  0  0  0  0  0
   -2.3958    2.4080    1.5121 O   0  0  0  0  0  0  0  0  0  0  0  0
   -4.4898    3.3143    0.9264 C   0  0  0  0  0  0  0  0  0  0  0  0
   -4.1879    1.3110    2.6058 C   0  0  0  0  0  0  0  0  0  0  0  0
   -4.7203    0.1972    2.5935 O   0  0  0  0  0  0  0  0  0  0  0  0
   -3.8183    1.8396    3.8443 N   0  0  0  0  0  0  0  0  0  0  0  0
   -3.2773    3.1085    4.1364 C   0  0  0  0  0  0  0  0  0  0  0  0
   -3.8665    4.2449    3.5999 C   0  0  0  0  0  0  0  0  0  0  0  0
   -2.2106    3.2949    5.0030 C   0  0  0  0  0  0  0  0  0  0  0  0
   -1.7041    4.5965    5.2051 C   0  0  0  0  0  0  0  0  0  0  0  0
   -2.1573    5.6870    4.4252 C   0  0  0  0  0  0  0  0  0  0  0  0
   -1.4993    6.9983    4.6003 N   0  3  0  0  0  0  0  0  0  0  0  0
   -0.6233    7.0898    5.4593 O   0  0  0  0  0  0  0  0  0  0  0  0
   -1.8649    7.9435    3.8838 O   0  5  0  0  0  0  0  0  0  0  0  0
   -3.2444    5.5080    3.5735 C   0  0  0  0  0  0  0  0  0  0  0  0
   -3.8134    6.5727    2.6636 C   0  0  0  0  0  0  0  0  0  0  0  0
   -4.4031    7.5746    3.3606 F   0  0  0  0  0  0  0  0  0  0  0  0
   -2.9026    7.1194    1.8141 F   0  0  0  0  0  0  0  0  0  0  0  0
   -4.7968    6.1029    1.8368 F   0  0  0  0  0  0  0  0  0  0  0  0
   -1.6081    2.1272   -0.5528 H   0  0  0  0  0  0  0  0  0  0  0  0
    0.7863    2.0854   -0.1479 H   0  0  0  0  0  0  0  0  0  0  0  0
    0.6903   -2.1949    0.0691 H   0  0  0  0  0  0  0  0  0  0  0  0
   -1.8057   -2.1422    0.0263 H   0  0  0  0  0  0  0  0  0  0  0  0
   -3.7630    1.7232   -0.9100 H   0  0  0  0  0  0  0  0  0  0  0  0
   -5.0383    0.8963   -0.0573 H   0  0  0  0  0  0  0  0  0  0  0  0
   -1.9319    1.5924    1.7884 H   0  0  0  0  0  0  0  0  0  0  0  0
   -5.5437    3.2869    1.2121 H   0  0  0  0  0  0  0  0  0  0  0  0
   -3.9628    4.1530    1.3548 H   0  0  0  0  0  0  0  0  0  0  0  0
   -4.4130    3.5941   -0.1289 H   0  0  0  0  0  0  0  0  0  0  0  0
   -3.8617    1.1552    4.5920 H   0  0  0  0  0  0  0  0  0  0  0  0
   -4.8486    4.1347    3.1493 H   0  0  0  0  0  0  0  0  0  0  0  0
   -1.7370    2.4569    5.5096 H   0  0  0  0  0  0  0  0  0  0  0  0
   -0.9518    4.7499    5.9771 H   0  0  0  0  0  0  0  0  0  0  0  0
  1  2  2  0  0  0  0
  1  7  1  0  0  0  0
  1 29  1  0  0  0  0
  2  3  1  0  0  0  0
  2 30  1  0  0  0  0
  3  4  1  0  0  0  0
  3  5  2  0  0  0  0
  5  6  1  0  0  0  0
  5 31  1  0  0  0  0
  6  7  2  0  0  0  0
  6 32  1  0  0  0  0
  7  8  1  0  0  0  0
  8  9  1  0  0  0  0
  9 10  1  0  0  0  0
  9 33  1  0  0  0  0
  9 34  1  0  0  0  0
 10 11  1  1  0  0  0
 10 12  1  0  0  0  0
 10 13  1  0  0  0  0
 11 35  1  0  0  0  0
 12 36  1  0  0  0  0
 12 37  1  0  0  0  0
 12 38  1  0  0  0  0
 13 14  2  0  0  0  0
 13 15  1  0  0  0  0
 15 16  1  0  0  0  0
 15 39  1  0  0  0  0
 16 17  2  0  0  0  0
 16 18  1  0  0  0  0
 17 24  1  0  0  0  0
 17 40  1  0  0  0  0
 18 19  2  0  0  0  0
 18 41  1  0  0  0  0
 19 20  1  0  0  0  0
 19 42  1  0  0  0  0
 20 21  1  0  0  0  0
 20 24  2  0  0  0  0
 21 22  2  0  0  0  0
 21 23  1  0  0  0  0
 24 25  1  0  0  0  0
 25 26  1  0  0  0  0
 25 27  1  0  0  0  0
 25 28  1  0  0  0  0
M  CHG  2  21   1  23  -1
M  END
>  <DRUGBANK_ID>
DB07769

>  <COMMON_NAME>
S-3-(4-FLUOROPHENOXY)-2-HYDROXY-2-METHYL-N-[4-NITRO-3-(TRIFLUOROMETHYL)PHENYL]PROPANAMIDE

$$$$
