
 OpenBabel10282417203D

 27 28  0  0  0  0  0  0  0  0999 V2000
   -0.0944   -1.1759   -0.0364 N   0  0  0  0  0  0  0  0  0  0  0  0
   -0.7654    0.0071   -0.0351 C   0  0  0  0  0  0  0  0  0  0  0  0
    0.2319    1.1456    0.0189 C   0  0  3  0  0  0  0  0  0  0  0  0
    1.4867    0.4393    0.0641 O   0  0  0  0  0  0  0  0  0  0  0  0
    1.1509   -0.8749    0.0077 C   0  0  0  0  0  0  0  0  0  0  0  0
    0.0597    2.1387    1.1506 C   0  0  0  0  0  0  0  0  0  0  0  0
   -1.0644    2.1369    1.9946 C   0  0  0  0  0  0  0  0  0  0  0  0
   -1.3285    3.2160    2.8382 C   0  0  0  0  0  0  0  0  0  0  0  0
   -0.4188    4.2627    2.9334 C   0  0  0  0  0  0  0  0  0  0  0  0
    0.7336    4.2528    2.1509 C   0  0  0  0  0  0  0  0  0  0  0  0
    0.9685    3.2027    1.2603 C   0  0  0  0  0  0  0  0  0  0  0  0
   -1.9786    0.1142   -0.0928 O   0  0  0  0  0  0  0  0  0  0  0  0
    2.1858   -1.7481   -0.0054 N   0  0  0  0  0  0  0  0  0  0  0  0
    1.9619   -3.1818    0.0189 C   0  0  0  0  0  0  0  0  0  0  0  0
    2.5491   -3.8441   -1.2114 C   0  0  0  0  0  0  0  0  0  0  0  0
    0.1671    1.6876   -0.9336 H   0  0  0  0  0  0  0  0  0  0  0  0
   -1.7849    1.3209    1.9881 H   0  0  0  0  0  0  0  0  0  0  0  0
   -2.2610    3.2473    3.3971 H   0  0  0  0  0  0  0  0  0  0  0  0
   -0.6125    5.0860    3.6151 H   0  0  0  0  0  0  0  0  0  0  0  0
    1.4324    5.0829    2.2072 H   0  0  0  0  0  0  0  0  0  0  0  0
    1.8506    3.2343    0.6237 H   0  0  0  0  0  0  0  0  0  0  0  0
    3.1362   -1.4018    0.0339 H   0  0  0  0  0  0  0  0  0  0  0  0
    2.3977   -3.6100    0.9269 H   0  0  0  0  0  0  0  0  0  0  0  0
    0.8906   -3.4131    0.0491 H   0  0  0  0  0  0  0  0  0  0  0  0
    3.6375   -3.7390   -1.2350 H   0  0  0  0  0  0  0  0  0  0  0  0
    2.3077   -4.9126   -1.2117 H   0  0  0  0  0  0  0  0  0  0  0  0
    2.1423   -3.4057   -2.1289 H   0  0  0  0  0  0  0  0  0  0  0  0
  1  2  1  0  0  0  0
  2  3  1  0  0  0  0
  2 12  2  0  0  0  0
  3  4  1  0  0  0  0
  3  6  1  0  0  0  0
  3 16  1  0  0  0  0
  4  5  1  0  0  0  0
  5  1  2  0  0  0  0
  5 13  1  0  0  0  0
  6  7  2  0  0  0  0
  7  8  1  0  0  0  0
  7 17  1  0  0  0  0
  8  9  2  0  0  0  0
  8 18  1  0  0  0  0
  9 10  1  0  0  0  0
  9 19  1  0  0  0  0
 10 11  2  0  0  0  0
 10 20  1  0  0  0  0
 11  6  1  0  0  0  0
 11 21  1  0  0  0  0
 13 14  1  0  0  0  0
 13 22  1  0  0  0  0
 14 15  1  0  0  0  0
 14 23  1  0  0  0  0
 14 24  1  0  0  0  0
 15 25  1  0  0  0  0
 15 26  1  0  0  0  0
 15 27  1  0  0  0  0
M  END
>  <DRUGBANK_ID>
DB13341

>  <COMMON_NAME>
Fenozolone

>  <CAS_NUMBER>
15302-16-6

>  <UNII>
1NZI4LMU6G

>  <SYNONYMS>
Fenozolona; Fenozolone; Fenozolonum

$$$$
