
 OpenBabel10282417173D

 41 43  0  0  0  0  0  0  0  0999 V2000
    9.4753   -0.0858   -3.4075 C   0  0  0  0  0  0  0  0  0  0  0  0
   10.7470    0.4534   -3.3173 C   0  0  0  0  0  0  0  0  0  0  0  0
   11.2402    0.8355   -2.0711 C   0  0  0  0  0  0  0  0  0  0  0  0
   10.4844    0.6363   -0.9143 C   0  0  0  0  0  0  0  0  0  0  0  0
    8.6913   -0.2278   -2.2556 C   0  0  0  0  0  0  0  0  0  0  0  0
    9.2177    0.0876   -1.0203 C   0  0  0  0  0  0  0  0  0  0  0  0
    6.6161   -0.9482   -1.2212 C   0  0  0  0  0  0  0  0  0  0  0  0
    5.3903   -3.1041   -1.2782 C   0  0  0  0  0  0  0  0  0  0  0  0
    5.2338   -1.5771   -1.1529 C   0  0  2  0  0  0  0  0  0  0  0  0
    4.2356   -0.9894   -2.2124 C   0  0  0  0  0  0  0  0  0  0  0  0
    7.3214   -0.6772   -2.3399 C   0  0  0  0  0  0  0  0  0  0  0  0
    6.9361   -0.8012   -3.6540 O   0  0  0  0  0  0  0  0  0  0  0  0
    8.4949   -0.1279    0.1550 O   0  0  0  0  0  0  0  0  0  0  0  0
    7.2217   -0.6899    0.1308 C   0  0  0  0  0  0  0  0  0  0  0  0
    6.6324   -0.9188    1.1702 O   0  0  0  0  0  0  0  0  0  0  0  0
    4.9131   -4.0319   -0.3413 C   0  0  0  0  0  0  0  0  0  0  0  0
    5.8825   -3.6089   -2.4859 C   0  0  0  0  0  0  0  0  0  0  0  0
    5.7215   -4.9232   -2.8700 C   0  0  0  0  0  0  0  0  0  0  0  0
    5.2379   -5.8312   -1.9559 C   0  0  0  0  0  0  0  0  0  0  0  0
    4.8568   -5.3946   -0.6840 C   0  0  0  0  0  0  0  0  0  0  0  0
    2.9051   -1.7397   -2.3191 C   0  0  2  0  0  0  0  0  0  0  0  0
    2.6664   -2.3994   -1.0898 O   0  0  0  0  0  0  0  0  0  0  0  0
    2.9295   -2.6651   -3.5502 C   0  0  0  0  0  0  0  0  0  0  0  0
    4.7717   -1.3295   -0.1840 H   0  0  0  0  0  0  0  0  0  0  0  0
    2.0933   -1.0227   -2.4546 H   0  0  0  0  0  0  0  0  0  0  0  0
    9.0890   -0.3764   -4.3838 H   0  0  0  0  0  0  0  0  0  0  0  0
   11.3320    0.5871   -4.2216 H   0  0  0  0  0  0  0  0  0  0  0  0
   12.2221    1.2893   -2.0017 H   0  0  0  0  0  0  0  0  0  0  0  0
   10.8671    0.9171    0.0600 H   0  0  0  0  0  0  0  0  0  0  0  0
    4.0765    0.0789   -2.0102 H   0  0  0  0  0  0  0  0  0  0  0  0
    4.6086   -0.9680   -3.2289 H   0  0  0  0  0  0  0  0  0  0  0  0
    6.1241   -1.2937   -3.7746 H   0  0  0  0  0  0  0  0  0  0  0  0
    4.5069   -3.7121    0.6189 H   0  0  0  0  0  0  0  0  0  0  0  0
    6.2898   -2.9715   -3.2416 H   0  0  0  0  0  0  0  0  0  0  0  0
    5.9199   -5.1791   -3.9055 H   0  0  0  0  0  0  0  0  0  0  0  0
    5.1567   -6.8702   -2.2518 H   0  0  0  0  0  0  0  0  0  0  0  0
    4.4593   -6.1212    0.0192 H   0  0  0  0  0  0  0  0  0  0  0  0
    1.8524   -2.9189   -1.1173 H   0  0  0  0  0  0  0  0  0  0  0  0
    2.0653   -3.3267   -3.5949 H   0  0  0  0  0  0  0  0  0  0  0  0
    2.9990   -2.0797   -4.4765 H   0  0  0  0  0  0  0  0  0  0  0  0
    3.7916   -3.3240   -3.5828 H   0  0  0  0  0  0  0  0  0  0  0  0
  1  2  2  0  0  0  0
  1  5  1  0  0  0  0
  1 26  1  0  0  0  0
  2  3  1  0  0  0  0
  2 27  1  0  0  0  0
  3  4  2  0  0  0  0
  3 28  1  0  0  0  0
  4  6  1  0  0  0  0
  4 29  1  0  0  0  0
  6  5  2  0  0  0  0
  6 13  1  0  0  0  0
  8 16  2  0  0  0  0
  8 17  1  0  0  0  0
  9 10  1  0  0  0  0
  9 24  1  1  0  0  0
  9  8  1  0  0  0  0
  9  7  1  0  0  0  0
 10 30  1  0  0  0  0
 10 31  1  0  0  0  0
 11  5  1  0  0  0  0
 11  7  2  0  0  0  0
 11 12  1  0  0  0  0
 12 32  1  0  0  0  0
 13 14  1  0  0  0  0
 14  7  1  0  0  0  0
 14 15  2  0  0  0  0
 16 33  1  0  0  0  0
 17 18  2  0  0  0  0
 17 34  1  0  0  0  0
 18 19  1  0  0  0  0
 18 35  1  0  0  0  0
 19 20  2  0  0  0  0
 19 36  1  0  0  0  0
 20 16  1  0  0  0  0
 20 37  1  0  0  0  0
 21 23  1  0  0  0  0
 21 25  1  6  0  0  0
 21 22  1  0  0  0  0
 21 10  1  0  0  0  0
 22 38  1  0  0  0  0
 23 39  1  0  0  0  0
 23 40  1  0  0  0  0
 23 41  1  0  0  0  0
M  END
>  <DRUGBANK_ID>
DB08736

>  <COMMON_NAME>
S,R-Warfarin alcohol

>  <CAS_NUMBER>
40281-79-6

>  <UNII>
62GD2Z2LXM

$$$$
