
 OpenBabel10282417203D

 43 45  0  0  0  0  0  0  0  0999 V2000
    1.1185    0.5090   -0.3073 C   0  0  0  0  0  0  0  0  0  0  0  0
   -1.0272    1.4097    0.3112 C   0  0  0  0  0  0  0  0  0  0  0  0
    3.0242   -4.3892    1.3382 C   0  0  0  0  0  0  0  0  0  0  0  0
   -1.9324   -4.4474    2.7316 C   0  0  0  0  0  0  0  0  0  0  0  0
   -0.9756   -5.3888    3.1183 C   0  0  0  0  0  0  0  0  0  0  0  0
    4.7245   -1.6830    4.2658 C   0  0  0  0  0  0  0  0  0  0  0  0
    4.1306   -0.4447    4.3829 C   0  0  0  0  0  0  0  0  0  0  0  0
   -1.4922   -3.2531    2.2295 C   0  0  0  0  0  0  0  0  0  0  0  0
    0.4118   -5.1650    2.9531 C   0  0  0  0  0  0  0  0  0  0  0  0
    4.0965   -2.6791    3.5205 C   0  0  0  0  0  0  0  0  0  0  0  0
    2.9031   -0.2203    3.7716 C   0  0  0  0  0  0  0  0  0  0  0  0
    0.8716    1.6237    1.7775 C   0  0  0  0  0  0  0  0  0  0  0  0
    0.3686    0.4680    2.7160 C   0  0  0  0  0  0  0  0  0  0  0  0
   -0.1092   -3.0447    2.1715 C   0  0  0  0  0  0  0  0  0  0  0  0
    0.8796   -3.9615    2.4525 C   0  0  0  0  0  0  0  0  0  0  0  0
    2.8359   -2.4914    2.9065 C   0  0  0  0  0  0  0  0  0  0  0  0
    2.2049   -1.2258    3.0582 C   0  0  0  0  0  0  0  0  0  0  0  0
    0.2712   -1.8019    1.5978 C   0  0  0  0  0  0  0  0  0  0  0  0
    0.4312    1.6090    0.3590 N   0  0  0  0  0  0  0  0  0  0  0  0
    2.2368   -3.6408    2.3334 N   0  0  0  0  0  0  0  0  0  0  0  0
    0.9181   -0.8966    2.4792 N   0  0  0  0  0  0  0  0  0  0  0  0
   -0.1914   -1.7056    0.4830 O   0  0  0  0  0  0  0  0  0  0  0  0
    0.6713    0.1332   -1.2323 H   0  0  0  0  0  0  0  0  0  0  0  0
    1.0337   -0.2746    0.3757 H   0  0  0  0  0  0  0  0  0  0  0  0
    2.2109    0.5315   -0.3450 H   0  0  0  0  0  0  0  0  0  0  0  0
   -1.3929    0.5739    0.9159 H   0  0  0  0  0  0  0  0  0  0  0  0
   -1.5248    2.3140    0.6766 H   0  0  0  0  0  0  0  0  0  0  0  0
   -1.3845    1.2094   -0.7016 H   0  0  0  0  0  0  0  0  0  0  0  0
    3.0824   -5.4481    1.6091 H   0  0  0  0  0  0  0  0  0  0  0  0
    2.5939   -4.3110    0.3302 H   0  0  0  0  0  0  0  0  0  0  0  0
    4.0582   -4.0276    1.2433 H   0  0  0  0  0  0  0  0  0  0  0  0
   -2.9982   -4.6238    2.8233 H   0  0  0  0  0  0  0  0  0  0  0  0
   -1.3152   -6.3128    3.5710 H   0  0  0  0  0  0  0  0  0  0  0  0
    5.6635   -1.8847    4.7695 H   0  0  0  0  0  0  0  0  0  0  0  0
    4.6007    0.3524    4.9520 H   0  0  0  0  0  0  0  0  0  0  0  0
   -2.1754   -2.4851    1.8659 H   0  0  0  0  0  0  0  0  0  0  0  0
    1.1224   -5.9125    3.2860 H   0  0  0  0  0  0  0  0  0  0  0  0
    4.5692   -3.6572    3.4810 H   0  0  0  0  0  0  0  0  0  0  0  0
    2.5275    0.7904    3.8834 H   0  0  0  0  0  0  0  0  0  0  0  0
    1.9694    1.6704    1.7974 H   0  0  0  0  0  0  0  0  0  0  0  0
    0.5436    2.5813    2.2035 H   0  0  0  0  0  0  0  0  0  0  0  0
    0.5746    0.7562    3.7558 H   0  0  0  0  0  0  0  0  0  0  0  0
   -0.7228    0.4043    2.7322 H   0  0  0  0  0  0  0  0  0  0  0  0
  1 23  1  0  0  0  0
  1 24  1  0  0  0  0
  1 25  1  0  0  0  0
  2 26  1  0  0  0  0
  2 27  1  0  0  0  0
  2 28  1  0  0  0  0
  3 29  1  0  0  0  0
  3 30  1  0  0  0  0
  3 31  1  0  0  0  0
  4 32  1  0  0  0  0
  5  4  2  0  0  0  0
  5 33  1  0  0  0  0
  6 34  1  0  0  0  0
  7  6  2  0  0  0  0
  7 35  1  0  0  0  0
  8  4  1  0  0  0  0
  8 36  1  0  0  0  0
  9  5  1  0  0  0  0
  9 37  1  0  0  0  0
 10  6  1  0  0  0  0
 10 38  1  0  0  0  0
 11  7  1  0  0  0  0
 11 39  1  0  0  0  0
 12 40  1  0  0  0  0
 12 41  1  0  0  0  0
 13 12  1  0  0  0  0
 13 42  1  0  0  0  0
 13 43  1  0  0  0  0
 14  8  2  0  0  0  0
 15  9  2  0  0  0  0
 15 14  1  0  0  0  0
 16 10  2  0  0  0  0
 17 11  2  0  0  0  0
 17 16  1  0  0  0  0
 18 14  1  0  0  0  0
 19  1  1  0  0  0  0
 19  2  1  0  0  0  0
 19 12  1  0  0  0  0
 20  3  1  0  0  0  0
 20 15  1  0  0  0  0
 20 16  1  0  0  0  0
 21 13  1  0  0  0  0
 21 17  1  0  0  0  0
 21 18  1  0  0  0  0
 22 18  2  0  0  0  0
M  END
>  <DRUGBANK_ID>
DB13225

>  <COMMON_NAME>
Dibenzepin

>  <CAS_NUMBER>
4498-32-2

>  <UNII>
510SJZ1Y6L

>  <SYNONYMS>
Dibenzepin

$$$$
