
 OpenBabel10282417153D

283284  0  0  1  0  0  0  0  0999 V2000
   26.6917    1.4815    9.0697 C   0  0  1  0  0  0  0  0  0  0  0  0
   26.4136    2.9490    9.5166 C   0  0  0  0  0  0  0  0  0  0  0  0
   25.8742    3.8409    8.3998 C   0  0  0  0  0  0  0  0  0  0  0  0
   25.9001    5.2385    8.5150 C   0  0  0  0  0  0  0  0  0  0  0  0
   25.4546    6.0437    7.4542 C   0  0  0  0  0  0  0  0  0  0  0  0
   25.0143    5.4533    6.2711 C   0  0  0  0  0  0  0  0  0  0  0  0
   25.0003    4.0813    6.1312 C   0  0  0  0  0  0  0  0  0  0  0  0
   25.3960    3.2881    7.1959 C   0  0  0  0  0  0  0  0  0  0  0  0
   24.5732    6.1728    5.2030 O   0  0  0  0  0  0  0  0  0  0  0  0
   27.7203    1.5053    7.8995 C   0  0  0  0  0  0  0  0  0  0  0  0
   28.0487    0.3137    7.2681 N   0  0  0  0  0  0  0  0  0  0  0  0
   29.1901    0.3324    6.3325 C   0  0  2  0  0  0  0  0  0  0  0  0
   29.6575   -1.0177    5.7203 C   0  0  0  0  0  0  0  0  0  0  0  0
   28.8157   -1.9569    5.2038 N   0  0  0  0  0  0  0  0  0  0  0  0
   29.4582   -3.1996    4.7164 C   0  0  1  0  0  0  0  0  0  0  0  0
   29.0322   -4.3623    5.6244 C   0  0  0  0  0  0  0  0  0  0  0  0
   27.5414   -4.7002    5.5588 C   0  0  0  0  0  0  0  0  0  0  0  0
   27.0950   -5.1897    4.1842 C   0  0  0  0  0  0  0  0  0  0  0  0
   27.9516   -6.3381    3.6594 C   0  0  0  0  0  0  0  0  0  0  0  0
   27.6390   -7.5336    4.4150 N   0  0  0  0  0  0  0  0  0  0  0  0
   26.9745   -8.5840    3.8187 C   0  0  0  0  0  0  0  0  0  0  0  0
   26.5991   -9.7333    4.7717 C   0  0  1  0  0  0  0  0  0  0  0  0
   25.1699  -10.0081    4.6692 N   0  0  0  0  0  0  0  0  0  0  0  0
   24.6620  -11.1965    4.2217 C   0  0  0  0  0  0  0  0  0  0  0  0
   23.1658  -11.2954    4.0303 C   0  0  2  0  0  0  0  0  0  0  0  0
   22.3922   -9.9351    3.8832 C   0  0  0  0  0  0  0  0  0  0  0  0
   20.9602  -10.0123    3.3816 C   0  0  0  0  0  0  0  0  0  0  0  0
   20.5675  -11.1917    2.8477 C   0  0  0  0  0  0  0  0  0  0  0  0
   19.3409  -11.5312    2.2941 C   0  0  0  0  0  0  0  0  0  0  0  0
   18.4521  -10.5539    2.0492 C   0  0  0  0  0  0  0  0  0  0  0  0
   18.7363   -9.3282    2.6174 C   0  0  0  0  0  0  0  0  0  0  0  0
   19.9688   -9.0639    3.3070 C   0  0  0  0  0  0  0  0  0  0  0  0
   17.3999  -10.7768    1.2220 O   0  0  0  0  0  0  0  0  0  0  0  0
   22.5803  -12.1981    5.0188 N   0  0  0  0  0  0  0  0  0  0  0  0
   22.0587  -13.4523    4.8531 C   0  0  0  0  0  0  0  0  0  0  0  0
   21.5895  -13.9651    5.8784 O   0  0  0  0  0  0  0  0  0  0  0  0
   22.1072  -14.2791    3.4882 C   0  0  1  0  0  0  0  0  0  0  0  0
   21.3988  -13.7656    2.2631 N   0  0  0  0  0  0  0  0  0  0  0  0
   22.0359  -13.1292    1.1581 C   0  0  0  0  0  0  0  0  0  0  0  0
   21.2922  -12.0963    0.1680 C   0  0  1  0  0  0  0  0  0  0  0  0
   22.0230  -10.7964    0.0345 N   0  0  0  0  0  0  0  0  0  0  0  0
   22.3362  -10.2102   -1.1766 C   0  0  0  0  0  0  0  0  0  0  0  0
   22.9058   -8.7816   -1.1507 C   0  0  1  0  0  0  0  0  0  0  0  0
   24.2758   -8.8482   -1.7197 N   0  0  0  0  0  0  0  0  0  0  0  0
   24.5887   -8.4112   -3.0039 C   0  0  0  0  0  0  0  0  0  0  0  0
   26.0370   -8.6190   -3.4966 C   0  0  1  0  0  0  0  0  0  0  0  0
   26.0223   -9.2252   -4.8649 N   0  0  0  0  0  0  0  0  0  0  0  0
   26.2250   -8.5209   -6.0498 C   0  0  0  0  0  0  0  0  0  0  0  0
   26.2680   -9.3407   -7.3343 C   0  0  0  0  0  0  0  0  0  0  0  0
   25.6060   -8.5644   -8.3795 N   0  0  0  0  0  0  0  0  0  0  0  0
   26.3329   -7.9763   -9.3974 C   0  0  0  0  0  0  0  0  0  0  0  0
   25.5165   -7.0619  -10.3310 C   0  0  2  0  0  0  0  0  0  0  0  0
   25.5165   -7.6754  -11.7446 C   0  0  0  0  0  0  0  0  0  0  0  0
   24.1014   -7.8381  -12.3040 C   0  0  0  0  0  0  0  0  0  0  0  0
   23.3417   -6.5083  -12.4029 C   0  0  0  0  0  0  0  0  0  0  0  0
   24.0461   -5.4722  -13.2815 C   0  0  0  0  0  0  0  0  0  0  0  0
   24.1590   -5.9506  -14.6566 N   0  0  0  0  0  0  0  0  0  0  0  0
   26.1037   -5.7066  -10.3813 N   0  0  0  0  0  0  0  0  0  0  0  0
   27.5265   -8.1966   -9.5942 O   0  0  0  0  0  0  0  0  0  0  0  0
   26.4322   -7.3103   -6.1313 O   0  0  0  0  0  0  0  0  0  0  0  0
   26.7686   -7.2584   -3.4637 C   0  0  0  0  0  0  0  0  0  0  0  0
   26.7615   -6.5676   -2.1069 C   0  0  0  0  0  0  0  0  0  0  0  0
   28.2229   -7.4147   -3.9320 C   0  0  0  0  0  0  0  0  0  0  0  0
   23.7935   -7.8129   -3.7258 O   0  0  0  0  0  0  0  0  0  0  0  0
   21.9107   -7.9180   -1.9521 C   0  0  0  0  0  0  0  0  0  0  0  0
   20.6526   -7.8051   -1.2894 O   0  0  0  0  0  0  0  0  0  0  0  0
   22.1958  -10.7847   -2.2540 O   0  0  0  0  0  0  0  0  0  0  0  0
   20.9786  -12.8391   -1.0959 C   0  0  0  0  0  0  0  0  0  0  0  0
   20.1862  -14.1274   -0.8504 C   0  0  0  0  0  0  0  0  0  0  0  0
   18.7442  -13.9769   -0.3573 C   0  0  0  0  0  0  0  0  0  0  0  0
   20.1537  -14.8055   -2.1993 C   0  0  0  0  0  0  0  0  0  0  0  0
   23.2400  -13.2938    0.9524 O   0  0  0  0  0  0  0  0  0  0  0  0
   23.5368  -14.6674    3.1644 C   0  0  0  0  0  0  0  0  0  0  0  0
   24.1424  -15.4357    4.1834 O   0  0  0  0  0  0  0  0  0  0  0  0
   25.3310  -12.2108    4.0326 O   0  0  0  0  0  0  0  0  0  0  0  0
   27.4860  -10.9327    4.4296 C   0  0  0  0  0  0  0  0  0  0  0  0
   28.9603  -10.7284    4.6680 C   0  0  0  0  0  0  0  0  0  0  0  0
   29.2429  -10.3886    6.1208 C   0  0  0  0  0  0  0  0  0  0  0  0
   28.9018  -11.4885    6.9975 N   0  0  0  0  0  0  0  0  0  0  0  0
   29.7287  -12.1748    7.8096 C   0  0  0  0  0  0  0  0  0  0  0  0
   29.3575  -13.1608    8.5454 N   0  0  0  0  0  0  0  0  0  0  0  0
   30.9997  -11.7669    7.8815 N   0  0  0  0  0  0  0  0  0  0  0  0
   26.7060   -8.6068    2.6203 O   0  0  0  0  0  0  0  0  0  0  0  0
   29.3726   -3.3371    3.1550 C   0  0  0  0  0  0  0  0  0  0  0  0
   30.4847   -3.8330    2.5059 N   0  0  0  0  0  0  0  0  0  0  0  0
   28.4181   -3.0546    2.4955 O   0  0  0  0  0  0  0  0  0  0  0  0
   30.8625   -1.2552    5.5955 O   0  0  0  0  0  0  0  0  0  0  0  0
   30.4488    0.8830    7.0931 C   0  0  0  0  0  0  0  0  0  0  0  0
   31.6823    1.2075    6.2420 C   0  0  0  0  0  0  0  0  0  0  0  0
   31.3882    2.1747    5.1106 C   0  0  0  0  0  0  0  0  0  0  0  0
   31.1693    3.4977    5.6389 N   0  0  0  0  0  0  0  0  0  0  0  0
   31.9293    4.5925    5.4459 C   0  0  0  0  0  0  0  0  0  0  0  0
   31.6903    5.7283    5.9998 N   0  0  0  0  0  0  0  0  0  0  0  0
   32.9900    4.4847    4.6394 N   0  0  0  0  0  0  0  0  0  0  0  0
   28.2384    2.5606    7.5240 O   0  0  0  0  0  0  0  0  0  0  0  0
   27.1719    0.6264   10.1722 N   0  0  0  0  0  0  0  0  0  0  0  0
   26.3960   -0.3995   10.6909 C   0  0  0  0  0  0  0  0  0  0  0  0
   27.0433   -1.2946   11.7811 C   0  0  1  0  0  0  0  0  0  0  0  0
   26.1876   -1.3641   13.0014 N   0  0  0  0  0  0  0  0  0  0  0  0
   25.5509   -2.5213   13.4441 C   0  0  0  0  0  0  0  0  0  0  0  0
   24.7161   -2.4468   14.7415 C   0  0  1  0  0  0  0  0  0  0  0  0
   23.3657   -3.0487   14.5171 N   0  0  0  0  0  0  0  0  0  0  0  0
   22.9078   -4.2326   15.0959 C   0  0  0  0  0  0  0  0  0  0  0  0
   21.4805   -4.6960   14.7575 C   0  0  1  0  0  0  0  0  0  0  0  0
   21.5029   -6.1354   14.3451 N   0  0  0  0  0  0  0  0  0  0  0  0
   20.9775   -7.1764   15.1121 C   0  0  0  0  0  0  0  0  0  0  0  0
   21.0915   -8.6169   14.5528 C   0  0  1  0  0  0  0  0  0  0  0  0
   21.6507   -9.5238   15.5994 N   0  0  0  0  0  0  0  0  0  0  0  0
   20.9008  -10.4066   16.3707 C   0  0  0  0  0  0  0  0  0  0  0  0
   21.6864  -11.3088   17.3078 C   0  0  0  0  0  0  0  0  0  0  0  0
   20.9270  -11.4029   18.5418 N   0  0  0  0  0  0  0  0  0  0  0  0
   20.2910  -12.5793   18.8679 C   0  0  0  0  0  0  0  0  0  0  0  0
   19.4346  -12.5120   20.1252 C   0  0  2  0  0  0  0  0  0  0  0  0
   18.1723  -11.6530   20.0009 C   0  0  0  0  0  0  0  0  0  0  0  0
   17.0950  -12.2808   20.9016 C   0  0  0  0  0  0  0  0  0  0  0  0
   17.4713  -12.2394   22.3938 C   0  0  0  0  0  0  0  0  0  0  0  0
   17.6229  -10.8125   22.9201 C   0  0  0  0  0  0  0  0  0  0  0  0
   16.3409  -10.1224   22.8241 N   0  0  0  0  0  0  0  0  0  0  0  0
   20.2608  -12.1196   21.2867 N   0  0  0  0  0  0  0  0  0  0  0  0
   20.4643  -13.6401   18.2720 O   0  0  0  0  0  0  0  0  0  0  0  0
   19.6797  -10.5469   16.3152 O   0  0  0  0  0  0  0  0  0  0  0  0
   19.6992   -9.0817   14.0634 C   0  0  0  0  0  0  0  0  0  0  0  0
   19.0570   -8.1645   13.0333 C   0  0  0  0  0  0  0  0  0  0  0  0
   19.7688  -10.5038   13.4823 C   0  0  0  0  0  0  0  0  0  0  0  0
   20.3796   -7.0007   16.1720 O   0  0  0  0  0  0  0  0  0  0  0  0
   20.6519   -4.4281   16.0307 C   0  0  0  0  0  0  0  0  0  0  0  0
   20.6059   -3.0454   16.3709 O   0  0  0  0  0  0  0  0  0  0  0  0
   23.5424   -4.8922   15.9189 O   0  0  0  0  0  0  0  0  0  0  0  0
   25.4998   -3.2002   15.8274 C   0  0  0  0  0  0  0  0  0  0  0  0
   26.8854   -2.6822   16.1773 C   0  0  0  0  0  0  0  0  0  0  0  0
   26.7869   -1.2529   16.6825 C   0  0  0  0  0  0  0  0  0  0  0  0
   27.4836   -3.5989   17.2479 C   0  0  0  0  0  0  0  0  0  0  0  0
   25.6650   -3.6116   12.8853 O   0  0  0  0  0  0  0  0  0  0  0  0
   27.3022   -2.6683   11.1294 C   0  0  0  0  0  0  0  0  0  0  0  0
   28.1610   -2.5898    9.9963 O   0  0  0  0  0  0  0  0  0  0  0  0
   25.2628   -0.6243   10.2673 O   0  0  0  0  0  0  0  0  0  0  0  0
   25.7531    1.0541    8.7029 H   0  0  0  0  0  0  0  0  0  0  0  0
   25.6924    2.9617   10.3432 H   0  0  0  0  0  0  0  0  0  0  0  0
   27.3459    3.3854    9.9081 H   0  0  0  0  0  0  0  0  0  0  0  0
   26.2842    5.7144    9.4158 H   0  0  0  0  0  0  0  0  0  0  0  0
   25.4674    7.1234    7.5645 H   0  0  0  0  0  0  0  0  0  0  0  0
   24.6912    3.6176    5.2002 H   0  0  0  0  0  0  0  0  0  0  0  0
   25.3743    2.2203    7.0142 H   0  0  0  0  0  0  0  0  0  0  0  0
   24.6228    7.1164    5.4173 H   0  0  0  0  0  0  0  0  0  0  0  0
   27.5361   -0.5369    7.4516 H   0  0  0  0  0  0  0  0  0  0  0  0
   28.8997    1.0056    5.5143 H   0  0  0  0  0  0  0  0  0  0  0  0
   27.8273   -1.8017    5.0410 H   0  0  0  0  0  0  0  0  0  0  0  0
   30.5402   -3.1582    4.8940 H   0  0  0  0  0  0  0  0  0  0  0  0
   29.6522   -5.2455    5.4358 H   0  0  0  0  0  0  0  0  0  0  0  0
   29.2626   -4.0932    6.6673 H   0  0  0  0  0  0  0  0  0  0  0  0
   27.3080   -5.4608    6.3128 H   0  0  0  0  0  0  0  0  0  0  0  0
   26.9532   -3.8170    5.8338 H   0  0  0  0  0  0  0  0  0  0  0  0
   26.0403   -5.4792    4.2047 H   0  0  0  0  0  0  0  0  0  0  0  0
   27.1024   -4.3498    3.5020 H   0  0  0  0  0  0  0  0  0  0  0  0
   27.7717   -6.4865    2.5914 H   0  0  0  0  0  0  0  0  0  0  0  0
   29.0285   -6.1708    3.7552 H   0  0  0  0  0  0  0  0  0  0  0  0
   27.7523   -7.4954    5.4213 H   0  0  0  0  0  0  0  0  0  0  0  0
   26.7214   -9.4118    5.8099 H   0  0  0  0  0  0  0  0  0  0  0  0
   24.5563   -9.2189    4.8112 H   0  0  0  0  0  0  0  0  0  0  0  0
   23.1699  -11.8207    3.0782 H   0  0  0  0  0  0  0  0  0  0  0  0
   22.3747   -9.4478    4.8589 H   0  0  0  0  0  0  0  0  0  0  0  0
   22.9719   -9.3282    3.1752 H   0  0  0  0  0  0  0  0  0  0  0  0
   21.3934  -11.8238    2.7135 H   0  0  0  0  0  0  0  0  0  0  0  0
   19.2096  -12.4909    1.8423 H   0  0  0  0  0  0  0  0  0  0  0  0
   17.9869   -8.5583    2.5173 H   0  0  0  0  0  0  0  0  0  0  0  0
   20.1307   -8.0944    3.7518 H   0  0  0  0  0  0  0  0  0  0  0  0
   17.4746  -11.6450    0.7778 H   0  0  0  0  0  0  0  0  0  0  0  0
   22.5847  -11.8995    5.9912 H   0  0  0  0  0  0  0  0  0  0  0  0
   21.5457  -15.1903    3.7513 H   0  0  0  0  0  0  0  0  0  0  0  0
   20.4308  -13.6244    2.5067 H   0  0  0  0  0  0  0  0  0  0  0  0
   20.3103  -11.7333    0.4013 H   0  0  0  0  0  0  0  0  0  0  0  0
   21.9236  -10.1569    0.8184 H   0  0  0  0  0  0  0  0  0  0  0  0
   22.9803   -8.4144   -0.1183 H   0  0  0  0  0  0  0  0  0  0  0  0
   24.9045   -9.4970   -1.2557 H   0  0  0  0  0  0  0  0  0  0  0  0
   26.5375   -9.3413   -2.8388 H   0  0  0  0  0  0  0  0  0  0  0  0
   25.5486  -10.1185   -4.9373 H   0  0  0  0  0  0  0  0  0  0  0  0
   27.3214   -9.5067   -7.5877 H   0  0  0  0  0  0  0  0  0  0  0  0
   25.7559  -10.2958   -7.2241 H   0  0  0  0  0  0  0  0  0  0  0  0
   24.7392   -8.1120   -8.1067 H   0  0  0  0  0  0  0  0  0  0  0  0
   24.5003   -6.9705   -9.9329 H   0  0  0  0  0  0  0  0  0  0  0  0
   26.1115   -7.0651  -12.4376 H   0  0  0  0  0  0  0  0  0  0  0  0
   26.0107   -8.6540  -11.7567 H   0  0  0  0  0  0  0  0  0  0  0  0
   24.1620   -8.3112  -13.2915 H   0  0  0  0  0  0  0  0  0  0  0  0
   23.5403   -8.5390  -11.6748 H   0  0  0  0  0  0  0  0  0  0  0  0
   22.3320   -6.6994  -12.7854 H   0  0  0  0  0  0  0  0  0  0  0  0
   23.1994   -6.0822  -11.4029 H   0  0  0  0  0  0  0  0  0  0  0  0
   23.4844   -4.5337  -13.2629 H   0  0  0  0  0  0  0  0  0  0  0  0
   25.0443   -5.2399  -12.8987 H   0  0  0  0  0  0  0  0  0  0  0  0
   24.7076   -5.2821  -15.1937 H   0  0  0  0  0  0  0  0  0  0  0  0
   24.7014   -6.8139  -14.6681 H   0  0  0  0  0  0  0  0  0  0  0  0
   26.1461   -5.3181   -9.4390 H   0  0  0  0  0  0  0  0  0  0  0  0
   27.0795   -5.8020  -10.6747 H   0  0  0  0  0  0  0  0  0  0  0  0
   26.2246   -6.5604   -4.1134 H   0  0  0  0  0  0  0  0  0  0  0  0
   27.3067   -7.1584   -1.3692 H   0  0  0  0  0  0  0  0  0  0  0  0
   27.2408   -5.5863   -2.2007 H   0  0  0  0  0  0  0  0  0  0  0  0
   25.7448   -6.3896   -1.7445 H   0  0  0  0  0  0  0  0  0  0  0  0
   28.3389   -7.9608   -4.8724 H   0  0  0  0  0  0  0  0  0  0  0  0
   28.6758   -6.4321   -4.0873 H   0  0  0  0  0  0  0  0  0  0  0  0
   28.7999   -7.9767   -3.1947 H   0  0  0  0  0  0  0  0  0  0  0  0
   22.3082   -6.9055   -2.0775 H   0  0  0  0  0  0  0  0  0  0  0  0
   21.7223   -8.3464   -2.9455 H   0  0  0  0  0  0  0  0  0  0  0  0
   20.1583   -8.6173   -1.5053 H   0  0  0  0  0  0  0  0  0  0  0  0
   20.3944  -12.1922   -1.7652 H   0  0  0  0  0  0  0  0  0  0  0  0
   21.9335  -13.0664   -1.5833 H   0  0  0  0  0  0  0  0  0  0  0  0
   20.7243  -14.7725   -0.1480 H   0  0  0  0  0  0  0  0  0  0  0  0
   18.1872  -13.2399   -0.9425 H   0  0  0  0  0  0  0  0  0  0  0  0
   18.2298  -14.9407   -0.4084 H   0  0  0  0  0  0  0  0  0  0  0  0
   18.6500  -13.7160    0.6883 H   0  0  0  0  0  0  0  0  0  0  0  0
   21.1733  -14.9360   -2.5730 H   0  0  0  0  0  0  0  0  0  0  0  0
   19.6740  -15.7788   -2.1161 H   0  0  0  0  0  0  0  0  0  0  0  0
   19.6009  -14.1784   -2.9068 H   0  0  0  0  0  0  0  0  0  0  0  0
   23.5388  -15.2558    2.2434 H   0  0  0  0  0  0  0  0  0  0  0  0
   24.1372  -13.7805    2.9882 H   0  0  0  0  0  0  0  0  0  0  0  0
   24.3264  -14.8225    4.9171 H   0  0  0  0  0  0  0  0  0  0  0  0
   27.1862  -11.7933    5.0359 H   0  0  0  0  0  0  0  0  0  0  0  0
   27.3524  -11.2021    3.3729 H   0  0  0  0  0  0  0  0  0  0  0  0
   29.4826  -11.6469    4.3736 H   0  0  0  0  0  0  0  0  0  0  0  0
   29.3273   -9.9310    4.0141 H   0  0  0  0  0  0  0  0  0  0  0  0
   30.2897  -10.0979    6.1743 H   0  0  0  0  0  0  0  0  0  0  0  0
   28.6867   -9.5049    6.4421 H   0  0  0  0  0  0  0  0  0  0  0  0
   27.9401  -11.8096    6.9771 H   0  0  0  0  0  0  0  0  0  0  0  0
   28.3638  -13.3535    8.4215 H   0  0  0  0  0  0  0  0  0  0  0  0
   31.4193  -11.1313    7.2295 H   0  0  0  0  0  0  0  0  0  0  0  0
   31.6226  -12.3587    8.4115 H   0  0  0  0  0  0  0  0  0  0  0  0
   30.3418   -3.8318    1.4985 H   0  0  0  0  0  0  0  0  0  0  0  0
   31.3953   -3.4830    2.7744 H   0  0  0  0  0  0  0  0  0  0  0  0
   30.2367    1.7976    7.6495 H   0  0  0  0  0  0  0  0  0  0  0  0
   30.7113    0.1562    7.8723 H   0  0  0  0  0  0  0  0  0  0  0  0
   32.4684    1.5913    6.9012 H   0  0  0  0  0  0  0  0  0  0  0  0
   32.1388    0.3231    5.8000 H   0  0  0  0  0  0  0  0  0  0  0  0
   32.2296    2.1205    4.4181 H   0  0  0  0  0  0  0  0  0  0  0  0
   30.5230    1.8735    4.5139 H   0  0  0  0  0  0  0  0  0  0  0  0
   30.3707    3.5894    6.2627 H   0  0  0  0  0  0  0  0  0  0  0  0
   30.8585    5.6490    6.5858 H   0  0  0  0  0  0  0  0  0  0  0  0
   33.2363    3.6592    4.1268 H   0  0  0  0  0  0  0  0  0  0  0  0
   33.5135    5.3274    4.4596 H   0  0  0  0  0  0  0  0  0  0  0  0
   28.1060    0.8084   10.5250 H   0  0  0  0  0  0  0  0  0  0  0  0
   28.0006   -0.8439   12.0746 H   0  0  0  0  0  0  0  0  0  0  0  0
   25.9909   -0.4804   13.4583 H   0  0  0  0  0  0  0  0  0  0  0  0
   24.5428   -1.3999   15.0132 H   0  0  0  0  0  0  0  0  0  0  0  0
   22.8212   -2.6252   13.7733 H   0  0  0  0  0  0  0  0  0  0  0  0
   21.1015   -4.1047   13.9160 H   0  0  0  0  0  0  0  0  0  0  0  0
   22.1351   -6.3591   13.5845 H   0  0  0  0  0  0  0  0  0  0  0  0
   21.8094   -8.6217   13.7233 H   0  0  0  0  0  0  0  0  0  0  0  0
   22.5616   -9.2669   15.9613 H   0  0  0  0  0  0  0  0  0  0  0  0
   21.7782  -12.2912   16.8289 H   0  0  0  0  0  0  0  0  0  0  0  0
   22.6725  -10.9111   17.5382 H   0  0  0  0  0  0  0  0  0  0  0  0
   20.5011  -10.5476   18.8819 H   0  0  0  0  0  0  0  0  0  0  0  0
   19.1151  -13.5473   20.2955 H   0  0  0  0  0  0  0  0  0  0  0  0
   18.3565  -10.6030   20.2673 H   0  0  0  0  0  0  0  0  0  0  0  0
   17.8090  -11.6181   18.9661 H   0  0  0  0  0  0  0  0  0  0  0  0
   16.1261  -11.8033   20.7268 H   0  0  0  0  0  0  0  0  0  0  0  0
   16.9552  -13.3271   20.6005 H   0  0  0  0  0  0  0  0  0  0  0  0
   16.7245  -12.7876   22.9770 H   0  0  0  0  0  0  0  0  0  0  0  0
   18.3985  -12.7921   22.5792 H   0  0  0  0  0  0  0  0  0  0  0  0
   17.9631  -10.8315   23.9596 H   0  0  0  0  0  0  0  0  0  0  0  0
   18.3800  -10.2500   22.3621 H   0  0  0  0  0  0  0  0  0  0  0  0
   16.4537   -9.1512   23.0994 H   0  0  0  0  0  0  0  0  0  0  0  0
   16.0453  -10.1008   21.8486 H   0  0  0  0  0  0  0  0  0  0  0  0
   20.9832  -12.8269   21.4164 H   0  0  0  0  0  0  0  0  0  0  0  0
   20.7214  -11.2295   21.1262 H   0  0  0  0  0  0  0  0  0  0  0  0
   19.0049   -9.0458   14.9132 H   0  0  0  0  0  0  0  0  0  0  0  0
   19.6479   -8.1415   12.1163 H   0  0  0  0  0  0  0  0  0  0  0  0
   18.0519   -8.5339   12.7987 H   0  0  0  0  0  0  0  0  0  0  0  0
   18.9408   -7.1453   13.4126 H   0  0  0  0  0  0  0  0  0  0  0  0
   20.2727  -11.2327   14.1234 H   0  0  0  0  0  0  0  0  0  0  0  0
   18.7607  -10.8908   13.3106 H   0  0  0  0  0  0  0  0  0  0  0  0
   20.3291  -10.5037   12.5450 H   0  0  0  0  0  0  0  0  0  0  0  0
   19.6221   -4.7645   15.8753 H   0  0  0  0  0  0  0  0  0  0  0  0
   21.0707   -4.9634   16.8943 H   0  0  0  0  0  0  0  0  0  0  0  0
   21.4424   -2.8578   16.8356 H   0  0  0  0  0  0  0  0  0  0  0  0
   24.8998   -3.2069   16.7472 H   0  0  0  0  0  0  0  0  0  0  0  0
   25.6385   -4.2410   15.5012 H   0  0  0  0  0  0  0  0  0  0  0  0
   27.5311   -2.7258   15.2928 H   0  0  0  0  0  0  0  0  0  0  0  0
   26.1338   -1.2008   17.5608 H   0  0  0  0  0  0  0  0  0  0  0  0
   27.7727   -0.8706   16.9510 H   0  0  0  0  0  0  0  0  0  0  0  0
   26.3704   -0.5905   15.9187 H   0  0  0  0  0  0  0  0  0  0  0  0
   27.5495   -4.6333   16.8887 H   0  0  0  0  0  0  0  0  0  0  0  0
   28.4894   -3.2694   17.5183 H   0  0  0  0  0  0  0  0  0  0  0  0
   26.8655   -3.6044   18.1533 H   0  0  0  0  0  0  0  0  0  0  0  0
   27.7806   -3.3368   11.8542 H   0  0  0  0  0  0  0  0  0  0  0  0
   26.3607   -3.1222   10.7944 H   0  0  0  0  0  0  0  0  0  0  0  0
   27.6061   -2.2627    9.2691 H   0  0  0  0  0  0  0  0  0  0  0  0
  1 96  1  0  0  0  0
  1137  1  6  0  0  0
  1 10  1  0  0  0  0
  1  2  1  0  0  0  0
  2  3  1  0  0  0  0
  2138  1  0  0  0  0
  2139  1  0  0  0  0
  3  4  2  0  0  0  0
  3  8  1  0  0  0  0
  4  5  1  0  0  0  0
  4140  1  0  0  0  0
  5  6  2  0  0  0  0
  5141  1  0  0  0  0
  6  9  1  0  0  0  0
  7  6  1  0  0  0  0
  7142  1  0  0  0  0
  8  7  2  0  0  0  0
  8143  1  0  0  0  0
  9144  1  0  0  0  0
 10 11  1  0  0  0  0
 10 95  2  0  0  0  0
 11145  1  0  0  0  0
 12 88  1  0  0  0  0
 12146  1  6  0  0  0
 12 13  1  0  0  0  0
 12 11  1  0  0  0  0
 13 14  1  0  0  0  0
 13 87  2  0  0  0  0
 14 15  1  0  0  0  0
 14147  1  0  0  0  0
 15 16  1  0  0  0  0
 15 84  1  0  0  0  0
 15148  1  1  0  0  0
 16 17  1  0  0  0  0
 16149  1  0  0  0  0
 16150  1  0  0  0  0
 17 18  1  0  0  0  0
 17151  1  0  0  0  0
 17152  1  0  0  0  0
 18 19  1  0  0  0  0
 18153  1  0  0  0  0
 18154  1  0  0  0  0
 19 20  1  0  0  0  0
 19155  1  0  0  0  0
 19156  1  0  0  0  0
 20 21  1  0  0  0  0
 20157  1  0  0  0  0
 21 22  1  0  0  0  0
 21 83  2  0  0  0  0
 22 23  1  0  0  0  0
 22 76  1  0  0  0  0
 22158  1  1  0  0  0
 23 24  1  0  0  0  0
 23159  1  0  0  0  0
 24 75  2  0  0  0  0
 25 34  1  0  0  0  0
 25160  1  6  0  0  0
 25 26  1  0  0  0  0
 25 24  1  0  0  0  0
 26 27  1  0  0  0  0
 26161  1  0  0  0  0
 26162  1  0  0  0  0
 27 28  2  0  0  0  0
 27 32  1  0  0  0  0
 28 29  1  0  0  0  0
 28163  1  0  0  0  0
 29 30  2  0  0  0  0
 29164  1  0  0  0  0
 30 33  1  0  0  0  0
 31 30  1  0  0  0  0
 31165  1  0  0  0  0
 32 31  2  0  0  0  0
 32166  1  0  0  0  0
 33167  1  0  0  0  0
 34 35  1  0  0  0  0
 34168  1  0  0  0  0
 35 36  2  0  0  0  0
 37 35  1  0  0  0  0
 37 38  1  0  0  0  0
 37 73  1  0  0  0  0
 37169  1  1  0  0  0
 38 39  1  0  0  0  0
 38170  1  0  0  0  0
 39 40  1  0  0  0  0
 39 72  2  0  0  0  0
 40 41  1  0  0  0  0
 40 68  1  0  0  0  0
 40171  1  1  0  0  0
 41 42  1  0  0  0  0
 41172  1  0  0  0  0
 42 43  1  0  0  0  0
 42 67  2  0  0  0  0
 43 44  1  0  0  0  0
 43 65  1  0  0  0  0
 43173  1  1  0  0  0
 44 45  1  0  0  0  0
 44174  1  0  0  0  0
 45 46  1  0  0  0  0
 45 64  2  0  0  0  0
 46 47  1  0  0  0  0
 46 61  1  0  0  0  0
 46175  1  1  0  0  0
 47 48  1  0  0  0  0
 47176  1  0  0  0  0
 48 49  1  0  0  0  0
 48 60  2  0  0  0  0
 49 50  1  0  0  0  0
 49177  1  0  0  0  0
 49178  1  0  0  0  0
 50 51  1  0  0  0  0
 50179  1  0  0  0  0
 51 59  2  0  0  0  0
 52 58  1  0  0  0  0
 52180  1  1  0  0  0
 52 53  1  0  0  0  0
 52 51  1  0  0  0  0
 53 54  1  0  0  0  0
 53181  1  0  0  0  0
 53182  1  0  0  0  0
 54 55  1  0  0  0  0
 54183  1  0  0  0  0
 54184  1  0  0  0  0
 55 56  1  0  0  0  0
 55185  1  0  0  0  0
 55186  1  0  0  0  0
 56 57  1  0  0  0  0
 56187  1  0  0  0  0
 56188  1  0  0  0  0
 57189  1  0  0  0  0
 57190  1  0  0  0  0
 58191  1  0  0  0  0
 58192  1  0  0  0  0
 61 62  1  0  0  0  0
 61 63  1  0  0  0  0
 61193  1  0  0  0  0
 62194  1  0  0  0  0
 62195  1  0  0  0  0
 62196  1  0  0  0  0
 63197  1  0  0  0  0
 63198  1  0  0  0  0
 63199  1  0  0  0  0
 65 66  1  0  0  0  0
 65200  1  0  0  0  0
 65201  1  0  0  0  0
 66202  1  0  0  0  0
 68 69  1  0  0  0  0
 68203  1  0  0  0  0
 68204  1  0  0  0  0
 69 70  1  0  0  0  0
 69 71  1  0  0  0  0
 69205  1  0  0  0  0
 70206  1  0  0  0  0
 70207  1  0  0  0  0
 70208  1  0  0  0  0
 71209  1  0  0  0  0
 71210  1  0  0  0  0
 71211  1  0  0  0  0
 73 74  1  0  0  0  0
 73212  1  0  0  0  0
 73213  1  0  0  0  0
 74214  1  0  0  0  0
 76 77  1  0  0  0  0
 76215  1  0  0  0  0
 76216  1  0  0  0  0
 77 78  1  0  0  0  0
 77217  1  0  0  0  0
 77218  1  0  0  0  0
 78 79  1  0  0  0  0
 78219  1  0  0  0  0
 78220  1  0  0  0  0
 79 80  1  0  0  0  0
 79221  1  0  0  0  0
 80 81  2  0  0  0  0
 80 82  1  0  0  0  0
 81222  1  0  0  0  0
 82223  1  0  0  0  0
 82224  1  0  0  0  0
 84 85  1  0  0  0  0
 84 86  2  0  0  0  0
 85225  1  0  0  0  0
 85226  1  0  0  0  0
 88 89  1  0  0  0  0
 88227  1  0  0  0  0
 88228  1  0  0  0  0
 89 90  1  0  0  0  0
 89229  1  0  0  0  0
 89230  1  0  0  0  0
 90 91  1  0  0  0  0
 90231  1  0  0  0  0
 90232  1  0  0  0  0
 91 92  1  0  0  0  0
 91233  1  0  0  0  0
 92 93  2  0  0  0  0
 92 94  1  0  0  0  0
 93234  1  0  0  0  0
 94235  1  0  0  0  0
 94236  1  0  0  0  0
 96 97  1  0  0  0  0
 96237  1  0  0  0  0
 97 98  1  0  0  0  0
 97136  2  0  0  0  0
 98 99  1  0  0  0  0
 98134  1  0  0  0  0
 98238  1  1  0  0  0
 99100  1  0  0  0  0
 99239  1  0  0  0  0
100101  1  0  0  0  0
100133  2  0  0  0  0
101102  1  0  0  0  0
101129  1  0  0  0  0
101240  1  1  0  0  0
102103  1  0  0  0  0
102241  1  0  0  0  0
103104  1  0  0  0  0
103128  2  0  0  0  0
104105  1  0  0  0  0
104126  1  0  0  0  0
104242  1  6  0  0  0
105106  1  0  0  0  0
105243  1  0  0  0  0
106107  1  0  0  0  0
106125  2  0  0  0  0
107108  1  0  0  0  0
107122  1  0  0  0  0
107244  1  6  0  0  0
108109  1  0  0  0  0
108245  1  0  0  0  0
109110  1  0  0  0  0
109121  2  0  0  0  0
110111  1  0  0  0  0
110246  1  0  0  0  0
110247  1  0  0  0  0
111112  1  0  0  0  0
111248  1  0  0  0  0
112120  2  0  0  0  0
113119  1  0  0  0  0
113249  1  1  0  0  0
113114  1  0  0  0  0
113112  1  0  0  0  0
114115  1  0  0  0  0
114250  1  0  0  0  0
114251  1  0  0  0  0
115116  1  0  0  0  0
115252  1  0  0  0  0
115253  1  0  0  0  0
116117  1  0  0  0  0
116254  1  0  0  0  0
116255  1  0  0  0  0
117118  1  0  0  0  0
117256  1  0  0  0  0
117257  1  0  0  0  0
118258  1  0  0  0  0
118259  1  0  0  0  0
119260  1  0  0  0  0
119261  1  0  0  0  0
122123  1  0  0  0  0
122124  1  0  0  0  0
122262  1  0  0  0  0
123263  1  0  0  0  0
123264  1  0  0  0  0
123265  1  0  0  0  0
124266  1  0  0  0  0
124267  1  0  0  0  0
124268  1  0  0  0  0
126127  1  0  0  0  0
126269  1  0  0  0  0
126270  1  0  0  0  0
127271  1  0  0  0  0
129130  1  0  0  0  0
129272  1  0  0  0  0
129273  1  0  0  0  0
130131  1  0  0  0  0
130132  1  0  0  0  0
130274  1  0  0  0  0
131275  1  0  0  0  0
131276  1  0  0  0  0
131277  1  0  0  0  0
132278  1  0  0  0  0
132279  1  0  0  0  0
132280  1  0  0  0  0
134135  1  0  0  0  0
134281  1  0  0  0  0
134282  1  0  0  0  0
135283  1  0  0  0  0
M  END
>  <DRUGBANK_ID>
DB05625

>  <COMMON_NAME>
CTCE-9908

>  <CAS_NUMBER>
1030384-98-5

>  <UNII>
NF0BX95A31

>  <SYNONYMS>
L-Lysinamide,N2,N6-bis(L-lysylglycyl-L-valyl-L-seryl-L-leucyl-L-seryl-L-tyrosyl-L-arginyl)-; SDF-1 (108) Lysine Dlmer

$$$$
