
 OpenBabel10282417123D

 34 34  0  0  1  0  0  0  0  0999 V2000
    1.0457   -0.2378   -0.9025 O   0  0  0  0  0  0  0  0  0  0  0  0
    0.4649    0.8677   -1.5683 C   0  0  2  0  0  0  0  0  0  0  0  0
    0.9677    2.1911   -1.2669 O   0  0  0  0  0  0  0  0  0  0  0  0
   -1.0112    1.0003   -1.2084 C   0  0  1  0  0  0  0  0  0  0  0  0
   -0.0558    3.1617   -1.6289 C   0  0  1  0  0  0  0  0  0  0  0  0
   -1.3009    2.3065   -1.9311 C   0  0  1  0  0  0  0  0  0  0  0  0
   -1.8145   -0.0789   -1.6594 O   0  0  0  0  0  0  0  0  0  0  0  0
   -0.3852    4.2613   -0.5831 C   0  0  0  0  0  0  0  0  0  0  0  0
   -1.3351    2.0123   -3.3352 O   0  0  0  0  0  0  0  0  0  0  0  0
    0.9446    5.3728    0.0479 S   0  0  0  0  0  0  0  0  0  0  0  0
    2.1933    4.2668    0.8123 C   0  0  0  0  0  0  0  0  0  0  0  0
    1.7580    3.5536    2.1170 C   0  0  0  0  0  0  0  0  0  0  0  0
    0.7235    2.4550    1.8904 C   0  0  1  0  0  0  0  0  0  0  0  0
    1.5201    1.3032    1.2796 C   0  0  0  0  0  0  0  0  0  0  0  0
    0.0165    1.9348    3.0729 N   0  0  0  0  0  0  0  0  0  0  0  0
    1.0514    0.0664    1.5694 O   0  0  0  0  0  0  0  0  0  0  0  0
    2.5230    1.4093    0.6079 O   0  0  0  0  0  0  0  0  0  0  0  0
    1.8676    0.0608   -0.4627 H   0  0  0  0  0  0  0  0  0  0  0  0
    0.6286    0.6429   -2.6221 H   0  0  0  0  0  0  0  0  0  0  0  0
   -1.1737    1.1098   -0.1265 H   0  0  0  0  0  0  0  0  0  0  0  0
    0.2910    3.6811   -2.5295 H   0  0  0  0  0  0  0  0  0  0  0  0
   -2.2538    2.7567   -1.6438 H   0  0  0  0  0  0  0  0  0  0  0  0
   -1.4614   -0.3065   -2.5407 H   0  0  0  0  0  0  0  0  0  0  0  0
   -1.0757    4.9629   -1.0695 H   0  0  0  0  0  0  0  0  0  0  0  0
   -1.0219    3.9050    0.2306 H   0  0  0  0  0  0  0  0  0  0  0  0
   -2.0202    2.5760   -3.7288 H   0  0  0  0  0  0  0  0  0  0  0  0
    2.5865    3.6136    0.0303 H   0  0  0  0  0  0  0  0  0  0  0  0
    3.0534    4.8991    1.0739 H   0  0  0  0  0  0  0  0  0  0  0  0
    2.6507    3.0729    2.5449 H   0  0  0  0  0  0  0  0  0  0  0  0
    1.4270    4.2898    2.8548 H   0  0  0  0  0  0  0  0  0  0  0  0
   -0.0780    2.8143    1.2746 H   0  0  0  0  0  0  0  0  0  0  0  0
   -0.8087    1.4254    2.7484 H   0  0  0  0  0  0  0  0  0  0  0  0
    0.6427    1.2572    3.5132 H   0  0  0  0  0  0  0  0  0  0  0  0
    0.1642   -0.0111    1.9512 H   0  0  0  0  0  0  0  0  0  0  0  0
  1 18  1  0  0  0  0
  2  1  1  0  0  0  0
  2  3  1  0  0  0  0
  2  4  1  0  0  0  0
  2 19  1  6  0  0  0
  3  5  1  0  0  0  0
  4  6  1  0  0  0  0
  4  7  1  0  0  0  0
  4 20  1  1  0  0  0
  5  8  1  0  0  0  0
  5  6  1  0  0  0  0
  5 21  1  6  0  0  0
  6 22  1  1  0  0  0
  6  9  1  0  0  0  0
  7 23  1  0  0  0  0
  8 10  1  0  0  0  0
  8 24  1  0  0  0  0
  8 25  1  0  0  0  0
  9 26  1  0  0  0  0
 10 11  1  0  0  0  0
 11 12  1  0  0  0  0
 11 27  1  0  0  0  0
 11 28  1  0  0  0  0
 12 13  1  0  0  0  0
 12 29  1  0  0  0  0
 12 30  1  0  0  0  0
 13 14  1  0  0  0  0
 13 15  1  0  0  0  0
 13 31  1  6  0  0  0
 14 16  1  0  0  0  0
 14 17  2  0  0  0  0
 15 32  1  0  0  0  0
 15 33  1  0  0  0  0
 16 34  1  0  0  0  0
M  END
>  <DRUGBANK_ID>
DB02321

>  <SECONDARY_ACCESSION_NUMBERS>
EXPT02779

>  <COMMON_NAME>
5-(3-Amino-4,4-Dihyroxy-Butylsulfanylmethyl)-Tetrahydro-Furan-2,3,4-Triol

$$$$
