
 OpenBabel10282417233D

 54 58  0  0  0  0  0  0  0  0999 V2000
    0.8769   -0.0407    0.1192 C   0  0  0  0  0  0  0  0  0  0  0  0
    0.5403   -0.7529   -1.1642 C   0  0  0  0  0  0  0  0  0  0  0  0
    0.1202   -0.3877   -2.4829 N   0  0  0  0  0  0  0  0  0  0  0  0
   -0.0595   -1.5994   -3.1743 C   0  0  0  0  0  0  0  0  0  0  0  0
    0.4152   -2.6696   -2.3965 C   0  0  0  0  0  0  0  0  0  0  0  0
    0.7892   -2.1037   -1.1766 C   0  0  0  0  0  0  0  0  0  0  0  0
    0.4232   -3.9798   -2.9222 C   0  0  0  0  0  0  0  0  0  0  0  0
    0.9438   -5.1987   -2.2076 C   0  0  0  0  0  0  0  0  0  0  0  0
    1.4530   -5.0870   -0.9295 N   0  0  0  0  0  0  0  0  0  0  0  0
    0.9342   -6.2817   -2.7298 O   0  0  0  0  0  0  0  0  0  0  0  0
   -0.0803   -4.1583   -4.2260 C   0  0  0  0  0  0  0  0  0  0  0  0
   -0.5855   -3.0921   -4.9707 C   0  0  0  0  0  0  0  0  0  0  0  0
   -0.5957   -1.8022   -4.4537 C   0  0  0  0  0  0  0  0  0  0  0  0
   -0.4246    0.8679   -3.0510 C   0  0  0  0  0  0  0  0  0  0  0  0
   -1.6386    1.1646   -2.5807 N   0  0  0  0  0  0  0  0  0  0  0  0
   -1.8241    2.4696   -2.5202 C   0  0  0  0  0  0  0  0  0  0  0  0
   -2.9905    2.8632   -3.1899 N   0  0  0  0  0  0  0  0  0  0  0  0
   -3.6387    4.1187   -3.6678 C   0  0  0  0  0  0  0  0  0  0  0  0
   -4.2826    4.1334   -5.1027 C   0  0  0  0  0  0  0  0  0  0  0  0
   -4.6843    2.9954   -5.8205 C   0  0  0  0  0  0  0  0  0  0  0  0
   -5.0789    3.0781   -7.1788 C   0  0  0  0  0  0  0  0  0  0  0  0
   -5.2293    4.3081   -7.8141 C   0  0  0  0  0  0  0  0  0  0  0  0
   -5.0437    5.4632   -7.0690 C   0  0  0  0  0  0  0  0  0  0  0  0
   -4.5518    5.3766   -5.7453 C   0  0  0  0  0  0  0  0  0  0  0  0
   -0.6683    3.2044   -2.2091 C   0  0  0  0  0  0  0  0  0  0  0  0
    0.0996    3.2131   -3.3102 C   0  0  0  0  0  0  0  0  0  0  0  0
    0.3950    1.8782   -3.6440 N   0  0  0  0  0  0  0  0  0  0  0  0
    1.1473    4.4111   -3.0750 C   0  0  0  0  0  0  0  0  0  0  0  0
    1.5172    4.7372   -1.5393 C   0  0  0  0  0  0  0  0  0  0  0  0
    1.6432    3.5905   -0.7265 O   0  0  0  0  0  0  0  0  0  0  0  0
    0.7706    2.6664   -1.3220 C   0  0  0  0  0  0  0  0  0  0  0  0
    0.7113   -0.6860    0.9911 H   0  0  0  0  0  0  0  0  0  0  0  0
    0.2649    0.8118    0.4013 H   0  0  0  0  0  0  0  0  0  0  0  0
    1.9571    0.1788    0.1207 H   0  0  0  0  0  0  0  0  0  0  0  0
    1.1989   -2.5611   -0.2926 H   0  0  0  0  0  0  0  0  0  0  0  0
    1.7968   -5.9304   -0.4922 H   0  0  0  0  0  0  0  0  0  0  0  0
    1.5312   -4.2574   -0.3885 H   0  0  0  0  0  0  0  0  0  0  0  0
   -0.0771   -5.1504   -4.6717 H   0  0  0  0  0  0  0  0  0  0  0  0
   -0.9630   -3.2589   -5.9761 H   0  0  0  0  0  0  0  0  0  0  0  0
   -0.9863   -0.9730   -5.0382 H   0  0  0  0  0  0  0  0  0  0  0  0
   -3.5842    2.0515   -3.3421 H   0  0  0  0  0  0  0  0  0  0  0  0
   -4.4693    4.3661   -2.9902 H   0  0  0  0  0  0  0  0  0  0  0  0
   -2.9145    4.9356   -3.6395 H   0  0  0  0  0  0  0  0  0  0  0  0
   -4.6905    2.0141   -5.3586 H   0  0  0  0  0  0  0  0  0  0  0  0
   -5.2587    2.1697   -7.7526 H   0  0  0  0  0  0  0  0  0  0  0  0
   -5.5012    4.3624   -8.8685 H   0  0  0  0  0  0  0  0  0  0  0  0
   -5.2561    6.4292   -7.5291 H   0  0  0  0  0  0  0  0  0  0  0  0
   -4.3704    6.3186   -5.2309 H   0  0  0  0  0  0  0  0  0  0  0  0
    2.0495    4.2286   -3.6553 H   0  0  0  0  0  0  0  0  0  0  0  0
    0.6519    5.3310   -3.4044 H   0  0  0  0  0  0  0  0  0  0  0  0
    2.4202    5.3522   -1.4488 H   0  0  0  0  0  0  0  0  0  0  0  0
    0.7164    5.2626   -1.0110 H   0  0  0  0  0  0  0  0  0  0  0  0
    1.5425    2.2842   -2.0332 H   0  0  0  0  0  0  0  0  0  0  0  0
    0.7135    1.7312   -0.8748 H   0  0  0  0  0  0  0  0  0  0  0  0
  1  2  1  0  0  0  0
  1 32  1  0  0  0  0
  1 33  1  0  0  0  0
  1 34  1  0  0  0  0
  2  3  1  0  0  0  0
  2  6  2  0  0  0  0
  3  4  1  0  0  0  0
  3 14  1  0  0  0  0
  4  5  1  0  0  0  0
  4 13  2  0  0  0  0
  5  7  2  0  0  0  0
  6  5  1  0  0  0  0
  6 35  1  0  0  0  0
  7  8  1  0  0  0  0
  7 11  1  0  0  0  0
  8  9  1  0  0  0  0
  8 10  2  0  0  0  0
  9 36  1  0  0  0  0
  9 37  1  0  0  0  0
 11 38  1  0  0  0  0
 12 11  2  0  0  0  0
 12 39  1  0  0  0  0
 13 12  1  0  0  0  0
 13 40  1  0  0  0  0
 14 15  2  0  0  0  0
 14 27  1  0  0  0  0
 15 16  1  0  0  0  0
 16 17  1  0  0  0  0
 16 25  2  0  0  0  0
 17 18  1  0  0  0  0
 17 41  1  0  0  0  0
 18 19  1  0  0  0  0
 18 42  1  0  0  0  0
 18 43  1  0  0  0  0
 19 20  2  0  0  0  0
 19 24  1  0  0  0  0
 20 21  1  0  0  0  0
 20 44  1  0  0  0  0
 21 22  2  0  0  0  0
 21 45  1  0  0  0  0
 22 46  1  0  0  0  0
 23 22  1  0  0  0  0
 23 47  1  0  0  0  0
 24 23  2  0  0  0  0
 24 48  1  0  0  0  0
 25 31  1  0  0  0  0
 26 25  1  0  0  0  0
 26 28  1  0  0  0  0
 27 26  2  0  0  0  0
 28 29  1  0  0  0  0
 28 49  1  0  0  0  0
 28 50  1  0  0  0  0
 29 30  1  0  0  0  0
 29 51  1  0  0  0  0
 29 52  1  0  0  0  0
 31 30  1  0  0  0  0
 31 53  1  0  0  0  0
 31 54  1  0  0  0  0
M  END
>  <DRUGBANK_ID>
DB16874

>  <COMMON_NAME>
CB-5083

>  <CAS_NUMBER>
1542705-92-9

>  <UNII>
591IV6UL6J

>  <SYNONYMS>
1-(4-(benzylamino)-7,8-dihydro-5H-pyrano[4,3-d]pyrimidin-2-yl)-2-methyl-1H-indole-4-carboxamide; 1-(7,8-Dihydro-4-((phenylmethyl)amino)-5H-pyrano(4,3-d)pyrimidin-2-yl)-2-methyl-1H-indole-4-carboxamide

$$$$
