C92
 OpenBabel10282417163D

 53 55  0  0  0  0  0  0  0  0999 V2000
    1.2154   -0.0503    0.2878 C   0  0  0  0  0  0  0  0  0  0  0  0
    0.4783    1.1775   -0.2075 C   0  0  0  0  0  0  0  0  0  0  0  0
   -0.9732    0.8725    0.1314 C   0  0  0  0  0  0  0  0  0  0  0  0
   -1.1222   -0.6458    0.0584 C   0  0  0  0  0  0  0  0  0  0  0  0
    0.2877   -1.1971   -0.1307 C   0  0  0  0  0  0  0  0  0  0  0  0
    0.4873   -1.6168   -1.5860 C   0  0  0  0  0  0  0  0  0  0  0  0
    1.8774   -2.1408   -1.8079 C   0  0  0  0  0  0  0  0  0  0  0  0
    2.1849   -3.3217   -0.9988 N   0  0  0  0  0  0  0  0  0  0  0  0
    2.5841   -4.5380   -1.4912 C   0  0  0  0  0  0  0  0  0  0  0  0
    2.1398   -5.5972   -1.0257 O   0  0  0  0  0  0  0  0  0  0  0  0
    3.6375   -4.5484   -2.5205 C   0  0  0  0  0  0  0  0  0  0  0  0
    4.1267   -5.7460   -3.1135 C   0  0  0  0  0  0  0  0  0  0  0  0
    4.2120   -3.3102   -2.8308 C   0  0  0  0  0  0  0  0  0  0  0  0
    4.9694   -3.1833   -3.9210 C   0  0  0  0  0  0  0  0  0  0  0  0
    5.2276   -4.3379   -4.6104 C   0  0  0  0  0  0  0  0  0  0  0  0
    5.9769   -4.0668   -5.7990 C   0  0  0  0  0  0  0  0  0  0  0  0
    5.0799   -5.6470   -4.1323 C   0  0  0  0  0  0  0  0  0  0  0  0
    5.8924   -6.8417   -4.7364 C   0  0  0  0  0  0  0  0  0  0  0  0
    5.4192   -7.9656   -4.5101 O   0  0  0  0  0  0  0  0  0  0  0  0
    7.0766   -6.8178   -5.5903 N   0  0  0  0  0  0  0  0  0  0  0  0
    8.0571   -5.8165   -6.0742 C   0  0  0  0  0  0  0  0  0  0  0  0
    8.6466   -4.8114   -5.2532 C   0  0  0  0  0  0  0  0  0  0  0  0
    8.9379   -3.5298   -5.7992 C   0  0  0  0  0  0  0  0  0  0  0  0
    8.9234   -3.3414   -7.1717 C   0  0  0  0  0  0  0  0  0  0  0  0
    9.1330   -2.0649   -7.6949 N   0  0  0  0  0  0  0  0  0  0  0  0
    8.5190   -4.3235   -8.0011 N   0  0  0  0  0  0  0  0  0  0  0  0
    8.0735   -5.5104   -7.4514 C   0  0  0  0  0  0  0  0  0  0  0  0
    1.3198   -0.0351    1.3781 H   0  0  0  0  0  0  0  0  0  0  0  0
    2.2282   -0.0888   -0.1188 H   0  0  0  0  0  0  0  0  0  0  0  0
    0.8412    2.0954    0.2604 H   0  0  0  0  0  0  0  0  0  0  0  0
    0.6014    1.2853   -1.2923 H   0  0  0  0  0  0  0  0  0  0  0  0
   -1.6620    1.3801   -0.5487 H   0  0  0  0  0  0  0  0  0  0  0  0
   -1.1932    1.2068    1.1505 H   0  0  0  0  0  0  0  0  0  0  0  0
   -1.7958   -0.9488   -0.7513 H   0  0  0  0  0  0  0  0  0  0  0  0
   -1.5487   -1.0314    0.9906 H   0  0  0  0  0  0  0  0  0  0  0  0
    0.4313   -2.0661    0.5189 H   0  0  0  0  0  0  0  0  0  0  0  0
   -0.2309   -2.3917   -1.8745 H   0  0  0  0  0  0  0  0  0  0  0  0
    0.3319   -0.7700   -2.2670 H   0  0  0  0  0  0  0  0  0  0  0  0
    1.9536   -2.3664   -2.8758 H   0  0  0  0  0  0  0  0  0  0  0  0
    2.6121   -1.3663   -1.5669 H   0  0  0  0  0  0  0  0  0  0  0  0
    1.8642   -3.3580   -0.0410 H   0  0  0  0  0  0  0  0  0  0  0  0
    3.7622   -6.7093   -2.7575 H   0  0  0  0  0  0  0  0  0  0  0  0
    4.0511   -2.3745   -2.3305 H   0  0  0  0  0  0  0  0  0  0  0  0
    5.3797   -2.2249   -4.2288 H   0  0  0  0  0  0  0  0  0  0  0  0
    6.7254   -4.5541   -5.2579 H   0  0  0  0  0  0  0  0  0  0  0  0
    5.6805   -4.6056   -6.6864 H   0  0  0  0  0  0  0  0  0  0  0  0
    6.4047   -3.0783   -5.9189 H   0  0  0  0  0  0  0  0  0  0  0  0
    7.1105   -7.6903   -6.1170 H   0  0  0  0  0  0  0  0  0  0  0  0
    8.4911   -4.8274   -4.1724 H   0  0  0  0  0  0  0  0  0  0  0  0
    8.9685   -2.6503   -5.1507 H   0  0  0  0  0  0  0  0  0  0  0  0
    9.4036   -2.1430   -8.6719 H   0  0  0  0  0  0  0  0  0  0  0  0
    9.7413   -1.4671   -7.1493 H   0  0  0  0  0  0  0  0  0  0  0  0
    7.5161   -6.1113   -8.1716 H   0  0  0  0  0  0  0  0  0  0  0  0
  1  5  1  0  0  0  0
  1 28  1  0  0  0  0
  1 29  1  0  0  0  0
  2  1  1  0  0  0  0
  2  3  1  0  0  0  0
  2 30  1  0  0  0  0
  2 31  1  0  0  0  0
  3  4  1  0  0  0  0
  3 32  1  0  0  0  0
  3 33  1  0  0  0  0
  4  5  1  0  0  0  0
  4 34  1  0  0  0  0
  4 35  1  0  0  0  0
  5  6  1  0  0  0  0
  5 36  1  0  0  0  0
  6  7  1  0  0  0  0
  6 37  1  0  0  0  0
  6 38  1  0  0  0  0
  7  8  1  0  0  0  0
  7 39  1  0  0  0  0
  7 40  1  0  0  0  0
  8  9  1  0  0  0  0
  8 41  1  0  0  0  0
  9 11  1  0  0  0  0
 10  9  2  0  0  0  0
 11 13  2  0  0  0  0
 11 12  1  0  0  0  0
 12 17  2  0  0  0  0
 12 42  1  0  0  0  0
 13 14  1  0  0  0  0
 13 43  1  0  0  0  0
 14 15  2  0  0  0  0
 14 44  1  0  0  0  0
 15 16  1  0  0  0  0
 16 45  1  0  0  0  0
 16 46  1  0  0  0  0
 16 47  1  0  0  0  0
 17 15  1  0  0  0  0
 17 18  1  0  0  0  0
 18 19  2  0  0  0  0
 18 20  1  0  0  0  0
 20 21  1  0  0  0  0
 20 48  1  0  0  0  0
 21 27  2  0  0  0  0
 21 22  1  0  0  0  0
 22 23  2  0  0  0  0
 22 49  1  0  0  0  0
 23 24  1  0  0  0  0
 23 50  1  0  0  0  0
 24 25  1  0  0  0  0
 25 51  1  0  0  0  0
 25 52  1  0  0  0  0
 26 24  2  0  0  0  0
 27 26  1  0  0  0  0
 27 53  1  0  0  0  0
M  END
>  <DRUGBANK_ID>
DB07537

>  <COMMON_NAME>
N'-(6-aminopyridin-3-yl)-N-(2-cyclopentylethyl)-4-methyl-benzene-1,3-dicarboxamide

$$$$
