
 OpenBabel10282417153D

 63 66  0  0  0  0  0  0  0  0999 V2000
    6.7600    3.6831   -7.3306 O   0  5  0  0  0  0  0  0  0  0  0  0
    6.4361    2.7816   -6.2824 C   0  0  0  0  0  0  0  0  0  0  0  0
    7.1474    2.8862   -4.9431 C   0  0  0  0  0  0  0  0  0  0  0  0
    6.1613    3.1417   -3.8832 N   0  3  3  0  0  0  0  0  0  0  0  0
    6.4241    1.7999   -1.7086 C   0  0  1  0  0  0  0  0  0  0  0  0
    6.4405    1.0937   -0.3627 C   0  0  1  0  0  0  0  0  0  0  0  0
    7.1921   -0.1067   -0.4644 O   0  0  0  0  0  0  0  0  0  0  0  0
    5.5138    1.0936   -2.6215 N   0  3  3  0  0  0  0  0  0  0  0  0
    3.8449    2.4196   -3.9524 N   0  3  3  0  0  0  0  0  0  0  0  0
    3.2009    2.1615   -5.2485 C   0  0  0  0  0  0  0  0  0  0  0  0
    3.1269    0.6623   -5.4879 C   0  0  0  0  0  0  0  0  0  0  0  0
    1.8662    0.0325   -5.6621 O   0  5  0  0  0  0  0  0  0  0  0  0
    7.2478   -1.0812   -6.5326 O   0  5  0  0  0  0  0  0  0  0  0  0
    7.1229    0.2994   -6.8402 C   0  0  0  0  0  0  0  0  0  0  0  0
    6.8776    1.3066   -5.7286 C   0  0  0  0  0  0  0  0  0  0  0  0
    5.6198    0.9808   -5.0410 N   0  3  3  0  0  0  0  0  0  0  0  0
    5.9585   -0.1279   -2.9638 C   0  0  0  0  0  0  0  0  0  0  0  0
    5.6216   -0.4070   -4.3568 C   0  0  0  0  0  0  0  0  0  0  0  0
    4.4667    0.1381   -0.6337 C   0  0  0  0  0  0  0  0  0  0  0  0
    4.2457    0.9665   -1.8888 C   0  0  0  0  0  0  0  0  0  0  0  0
    4.0172    3.9219   -3.6245 C   0  0  0  0  0  0  0  0  0  0  0  0
    5.3869    4.2313   -4.0232 C   0  0  0  0  0  0  0  0  0  0  0  0
    4.5888    1.0608   -6.0858 C   0  0  0  0  0  0  0  0  0  0  0  0
    2.9822    1.7515   -2.9673 C   0  0  0  0  0  0  0  0  0  0  0  0
    7.2163    0.6930   -8.0450 O   0  0  0  0  0  0  0  0  0  0  0  0
    5.5515    1.8873   -6.4639 O   0  0  0  0  0  0  0  0  0  0  0  0
    4.1934   -0.0275   -5.5321 O   0  0  0  0  0  0  0  0  0  0  0  0
    5.9468    3.2312   -1.5241 C   0  0  0  0  0  0  0  0  0  0  0  0
    6.8262    3.9134   -0.6423 O   0  0  0  0  0  0  0  0  0  0  0  0
    7.0731    2.0009    0.6800 C   0  0  0  0  0  0  0  0  0  0  0  0
    6.3214    3.2013    0.7817 O   0  0  0  0  0  0  0  0  0  0  0  0
    5.2957    1.9127   -3.8632 Gd  0  5  3  0  0  0  0  0  0  0  0  0
    7.6607    1.9697   -4.7393 H   0  0  0  0  0  0  0  0  0  0  0  0
    7.8525    3.6903   -4.9756 H   0  0  0  0  0  0  0  0  0  0  0  0
    7.4113    1.8035   -2.1215 H   0  0  0  0  0  0  0  0  0  0  0  0
    5.4368    0.8626   -0.0727 H   0  0  0  0  0  0  0  0  0  0  0  0
    6.7760   -0.7035   -1.1504 H   0  0  0  0  0  0  0  0  0  0  0  0
    2.2125    2.5711   -5.2434 H   0  0  0  0  0  0  0  0  0  0  0  0
    3.7728    2.6194   -6.0283 H   0  0  0  0  0  0  0  0  0  0  0  0
    6.8116    2.2896   -6.1460 H   0  0  0  0  0  0  0  0  0  0  0  0
    7.6863    1.2697   -5.0290 H   0  0  0  0  0  0  0  0  0  0  0  0
    5.4954   -0.8601   -2.3359 H   0  0  0  0  0  0  0  0  0  0  0  0
    7.0208   -0.1659   -2.8412 H   0  0  0  0  0  0  0  0  0  0  0  0
    6.3117   -1.0850   -4.8141 H   0  0  0  0  0  0  0  0  0  0  0  0
    4.6573   -0.8651   -4.4282 H   0  0  0  0  0  0  0  0  0  0  0  0
    3.5437    0.0456   -0.1003 H   0  0  0  0  0  0  0  0  0  0  0  0
    4.8204   -0.8343   -0.9058 H   0  0  0  0  0  0  0  0  0  0  0  0
    3.8920    1.9390   -1.6167 H   0  0  0  0  0  0  0  0  0  0  0  0
    3.5210    0.4846   -2.5112 H   0  0  0  0  0  0  0  0  0  0  0  0
    3.2994    4.5327   -4.1310 H   0  0  0  0  0  0  0  0  0  0  0  0
    3.8795    4.0983   -2.5781 H   0  0  0  0  0  0  0  0  0  0  0  0
    5.3943    4.5395   -5.0478 H   0  0  0  0  0  0  0  0  0  0  0  0
    5.7669    5.0184   -3.4060 H   0  0  0  0  0  0  0  0  0  0  0  0
    4.5297    2.0643   -6.4525 H   0  0  0  0  0  0  0  0  0  0  0  0
    4.8435    0.4018   -6.8894 H   0  0  0  0  0  0  0  0  0  0  0  0
    2.0165    2.2123   -2.9682 H   0  0  0  0  0  0  0  0  0  0  0  0
    2.8840    0.7170   -3.2226 H   0  0  0  0  0  0  0  0  0  0  0  0
    5.9353    3.7283   -2.4716 H   0  0  0  0  0  0  0  0  0  0  0  0
    4.9597    3.2275   -1.1112 H   0  0  0  0  0  0  0  0  0  0  0  0
    6.8370    3.4488    0.2432 H   0  0  0  0  0  0  0  0  0  0  0  0
    7.0811    1.5038    1.6275 H   0  0  0  0  0  0  0  0  0  0  0  0
    8.0767    2.2320    0.3899 H   0  0  0  0  0  0  0  0  0  0  0  0
    6.3138    3.6659   -0.1038 H   0  0  0  0  0  0  0  0  0  0  0  0
  1  2  1  0  0  0  0
  2  3  1  0  0  0  0
  2 26  2  0  0  0  0
  3  4  1  0  0  0  0
  3 33  1  0  0  0  0
  3 34  1  0  0  0  0
  4 19  1  0  0  0  0
  4 32  1  0  0  0  0
  5 28  1  0  0  0  0
  5 35  1  6  0  0  0
  5  8  1  0  0  0  0
  5  6  1  0  0  0  0
  6  7  1  0  0  0  0
  6 30  1  0  0  0  0
  6 36  1  1  0  0  0
  7 37  1  0  0  0  0
  8 17  1  0  0  0  0
  8 32  1  0  0  0  0
  9 10  1  0  0  0  0
  9 21  1  0  0  0  0
  9 32  1  0  0  0  0
 10 11  1  0  0  0  0
 10 38  1  0  0  0  0
 10 39  1  0  0  0  0
 11 12  1  0  0  0  0
 11 27  2  0  0  0  0
 13 14  1  0  0  0  0
 14 25  2  0  0  0  0
 14 15  1  0  0  0  0
 15 16  1  0  0  0  0
 15 40  1  0  0  0  0
 15 41  1  0  0  0  0
 16 23  1  0  0  0  0
 17 18  1  0  0  0  0
 17 42  1  0  0  0  0
 17 43  1  0  0  0  0
 18 16  1  0  0  0  0
 18 44  1  0  0  0  0
 18 45  1  0  0  0  0
 19 20  1  0  0  0  0
 19 46  1  0  0  0  0
 19 47  1  0  0  0  0
 20  8  1  0  0  0  0
 20 48  1  0  0  0  0
 20 49  1  0  0  0  0
 21 22  1  0  0  0  0
 21 50  1  0  0  0  0
 21 51  1  0  0  0  0
 22  4  1  0  0  0  0
 22 52  1  0  0  0  0
 22 53  1  0  0  0  0
 23 24  1  0  0  0  0
 23 54  1  0  0  0  0
 23 55  1  0  0  0  0
 24  9  1  0  0  0  0
 24 56  1  0  0  0  0
 24 57  1  0  0  0  0
 28 29  1  0  0  0  0
 28 58  1  0  0  0  0
 28 59  1  0  0  0  0
 29 60  1  0  0  0  0
 30 31  1  0  0  0  0
 30 61  1  0  0  0  0
 30 62  1  0  0  0  0
 31 63  1  0  0  0  0
 32 16  1  0  0  0  0
M  CHG  8   1  -1   4   1   8   1   9   1  12  -1  13  -1  16   1  32  -1
M  END
>  <DRUGBANK_ID>
DB06703

>  <COMMON_NAME>
Gadobutrol

>  <CAS_NUMBER>
770691-21-9

>  <UNII>
1BJ477IO2L

>  <SYNONYMS>
Gadobutrol; gadolinium(III) 2,2',2''-(10-((2R,3S )-1,3,4-trihydroxybutan-2-yl)-1,4,7,10-tetraazacyclododecane-1,4,7-triyl)triacetate

$$$$
