
 OpenBabel10282417223D

 31 32  0  0  1  0  0  0  0  0999 V2000
    0.8696    0.1212   -0.1254 C   0  0  0  0  0  0  0  0  0  0  0  0
    0.2903   -1.2826   -0.0870 C   0  0  0  0  0  0  0  0  0  0  0  0
    0.7656   -2.0507    1.1304 C   0  0  0  0  0  0  0  0  0  0  0  0
    0.3613   -1.4932    2.4218 N   0  0  0  0  0  0  0  0  0  0  0  0
    1.0133   -2.1303    3.5954 C   0  0  2  0  0  0  0  0  0  0  0  0
    1.9352   -1.1159    4.3292 C   0  0  0  0  0  0  0  0  0  0  0  0
    3.0866   -0.6511    3.4261 C   0  0  0  0  0  0  0  0  0  0  0  0
    3.7431   -1.8210    2.7756 C   0  0  0  0  0  0  0  0  0  0  0  0
    3.1750   -3.0835    2.7258 C   0  0  0  0  0  0  0  0  0  0  0  0
    1.8317   -3.4423    3.3160 C   0  0  0  0  0  0  0  0  0  0  0  0
    4.1266   -4.0915    1.7295 S   0  0  0  0  0  0  0  0  0  0  0  0
    5.2145   -2.7778    1.4487 C   0  0  0  0  0  0  0  0  0  0  0  0
    6.2937   -2.8796    0.6694 N   0  0  0  0  0  0  0  0  0  0  0  0
    4.8967   -1.6527    2.0491 N   0  0  0  0  0  0  0  0  0  0  0  0
    0.5272    0.7181    0.7240 H   0  0  0  0  0  0  0  0  0  0  0  0
    0.5637    0.6275   -1.0427 H   0  0  0  0  0  0  0  0  0  0  0  0
    1.9654    0.0913   -0.0966 H   0  0  0  0  0  0  0  0  0  0  0  0
   -0.8016   -1.2673   -0.1257 H   0  0  0  0  0  0  0  0  0  0  0  0
    0.6446   -1.8297   -0.9711 H   0  0  0  0  0  0  0  0  0  0  0  0
    0.4032   -3.0789    1.0455 H   0  0  0  0  0  0  0  0  0  0  0  0
    1.8477   -2.0505    1.0268 H   0  0  0  0  0  0  0  0  0  0  0  0
    0.5268   -0.4875    2.4395 H   0  0  0  0  0  0  0  0  0  0  0  0
    0.1937   -2.3798    4.2825 H   0  0  0  0  0  0  0  0  0  0  0  0
    1.3702   -0.2497    4.6927 H   0  0  0  0  0  0  0  0  0  0  0  0
    2.3556   -1.6084    5.2178 H   0  0  0  0  0  0  0  0  0  0  0  0
    2.6954    0.0130    2.6446 H   0  0  0  0  0  0  0  0  0  0  0  0
    3.8172   -0.0746    3.9995 H   0  0  0  0  0  0  0  0  0  0  0  0
    1.9754   -3.9800    4.2596 H   0  0  0  0  0  0  0  0  0  0  0  0
    1.2554   -4.1171    2.6720 H   0  0  0  0  0  0  0  0  0  0  0  0
    6.6053   -3.7555    0.2712 H   0  0  0  0  0  0  0  0  0  0  0  0
    6.9342   -2.0957    0.6261 H   0  0  0  0  0  0  0  0  0  0  0  0
  1  2  1  0  0  0  0
  1 15  1  0  0  0  0
  1 16  1  0  0  0  0
  1 17  1  0  0  0  0
  2  3  1  0  0  0  0
  2 18  1  0  0  0  0
  2 19  1  0  0  0  0
  3  4  1  0  0  0  0
  3 20  1  0  0  0  0
  3 21  1  0  0  0  0
  4 22  1  0  0  0  0
  5  4  1  0  0  0  0
  5  6  1  0  0  0  0
  5 10  1  0  0  0  0
  5 23  1  1  0  0  0
  6  7  1  0  0  0  0
  6 24  1  0  0  0  0
  6 25  1  0  0  0  0
  7  8  1  0  0  0  0
  7 26  1  0  0  0  0
  7 27  1  0  0  0  0
  8  9  2  0  0  0  0
  8 14  1  0  0  0  0
  9 10  1  0  0  0  0
  9 11  1  0  0  0  0
 10 28  1  0  0  0  0
 10 29  1  0  0  0  0
 11 12  1  0  0  0  0
 12 13  1  0  0  0  0
 12 14  2  0  0  0  0
 13 30  1  0  0  0  0
 13 31  1  0  0  0  0
M  END
>  <DRUGBANK_ID>
DB15130

>  <COMMON_NAME>
Dexpramipexole

>  <CAS_NUMBER>
104632-28-2

>  <UNII>
WI638GUS96

>  <SYNONYMS>
Dexpramipexole

$$$$
