
 OpenBabel10282417203D

 30 31  0  0  0  0  0  0  0  0999 V2000
    1.3250   -0.1956    0.0999 C   0  0  0  0  0  0  0  0  0  0  0  0
    2.8221   -0.4020    0.1748 C   0  0  3  0  0  0  0  0  0  0  0  0
    0.4604   -1.2964    0.0167 C   0  0  0  0  0  0  0  0  0  0  0  0
    0.7631    1.0904    0.1485 C   0  0  0  0  0  0  0  0  0  0  0  0
    3.6128    0.1058   -1.0610 C   0  0  0  0  0  0  0  0  0  0  0  0
    3.3156    0.1680    1.3872 O   0  0  0  0  0  0  0  0  0  0  0  0
   -0.9224   -1.1053   -0.0307 C   0  0  0  0  0  0  0  0  0  0  0  0
   -0.6114    1.2821    0.0761 C   0  0  0  0  0  0  0  0  0  0  0  0
    3.4734    1.5386   -1.3578 N   0  0  0  0  0  0  0  0  0  0  0  0
   -1.4551    0.1831   -0.0143 C   0  0  0  0  0  0  0  0  0  0  0  0
    4.5384    2.3929   -1.1106 C   0  0  0  0  0  0  0  0  0  0  0  0
    5.7401    2.1463   -1.7524 C   0  0  0  0  0  0  0  0  0  0  0  0
    4.3368    3.4857   -0.3483 N   0  0  0  0  0  0  0  0  0  0  0  0
    6.7824    3.0569   -1.6441 C   0  0  0  0  0  0  0  0  0  0  0  0
    5.3858    4.3447   -0.2195 C   0  0  0  0  0  0  0  0  0  0  0  0
    6.6075    4.1783   -0.8505 C   0  0  0  0  0  0  0  0  0  0  0  0
    3.0238   -1.4797    0.2583 H   0  0  0  0  0  0  0  0  0  0  0  0
    0.8522   -2.3119    0.0129 H   0  0  0  0  0  0  0  0  0  0  0  0
    1.3840    1.9732    0.2668 H   0  0  0  0  0  0  0  0  0  0  0  0
    4.6654   -0.1649   -0.9089 H   0  0  0  0  0  0  0  0  0  0  0  0
    3.2642   -0.4301   -1.9494 H   0  0  0  0  0  0  0  0  0  0  0  0
    3.2513    1.1339    1.2827 H   0  0  0  0  0  0  0  0  0  0  0  0
   -1.5874   -1.9638   -0.0650 H   0  0  0  0  0  0  0  0  0  0  0  0
   -1.0121    2.2910    0.1168 H   0  0  0  0  0  0  0  0  0  0  0  0
    2.5853    1.9707   -1.1758 H   0  0  0  0  0  0  0  0  0  0  0  0
   -2.5295    0.3334   -0.0510 H   0  0  0  0  0  0  0  0  0  0  0  0
    5.8286    1.2867   -2.4067 H   0  0  0  0  0  0  0  0  0  0  0  0
    7.6987    2.8893   -2.1965 H   0  0  0  0  0  0  0  0  0  0  0  0
    5.2114    5.2094    0.4177 H   0  0  0  0  0  0  0  0  0  0  0  0
    7.4041    4.9070   -0.7408 H   0  0  0  0  0  0  0  0  0  0  0  0
  1  2  1  0  0  0  0
  1  3  2  0  0  0  0
  1  4  1  0  0  0  0
  2  5  1  0  0  0  0
  2  6  1  0  0  0  0
  2 17  1  0  0  0  0
  3  7  1  0  0  0  0
  3 18  1  0  0  0  0
  4  8  2  0  0  0  0
  4 19  1  0  0  0  0
  5  9  1  0  0  0  0
  5 20  1  0  0  0  0
  5 21  1  0  0  0  0
  6 22  1  0  0  0  0
  7 10  2  0  0  0  0
  7 23  1  0  0  0  0
  8 10  1  0  0  0  0
  8 24  1  0  0  0  0
  9 11  1  0  0  0  0
  9 25  1  0  0  0  0
 10 26  1  0  0  0  0
 11 12  1  0  0  0  0
 11 13  2  0  0  0  0
 12 14  2  0  0  0  0
 12 27  1  0  0  0  0
 13 15  1  0  0  0  0
 14 16  1  0  0  0  0
 14 28  1  0  0  0  0
 15 16  2  0  0  0  0
 15 29  1  0  0  0  0
 16 30  1  0  0  0  0
M  END
>  <DRUGBANK_ID>
DB13414

>  <COMMON_NAME>
Fenyramidol

>  <CAS_NUMBER>
553-69-5

>  <UNII>
R3V02WL7O3

>  <SYNONYMS>
Feniramidol; Fenyramidol; Fenyramidolum; Phenyramidol

$$$$
