41A
 OpenBabel10282417163D

 36 38  0  0  0  0  0  0  0  0999 V2000
    1.0885   -0.0167    0.0526 C   0  0  0  0  0  0  0  0  0  0  0  0
    0.5395    0.2059    1.4814 C   0  0  0  0  0  0  0  0  0  0  0  0
    1.3838   -0.6859    2.4265 C   0  0  0  0  0  0  0  0  0  0  0  0
    0.5381    1.7809    1.8244 C   0  0  0  0  0  0  0  0  0  0  0  0
   -0.6600    2.5145    1.1064 C   0  0  0  0  0  0  0  0  0  0  0  0
   -1.6785    1.7636    0.5637 C   0  0  0  0  0  0  0  0  0  0  0  0
   -1.7851    0.3421    0.5764 C   0  0  0  0  0  0  0  0  0  0  0  0
   -0.9051   -0.3354    1.5833 C   0  0  0  0  0  0  0  0  0  0  0  0
   -2.5351   -0.3120   -0.1615 O   0  0  0  0  0  0  0  0  0  0  0  0
   -2.8531    2.6816   -0.2003 S   0  0  0  0  0  0  0  0  0  0  0  0
   -2.0566    4.1495    0.2480 C   0  0  0  0  0  0  0  0  0  0  0  0
   -2.7237    5.3283   -0.0641 N   0  0  0  0  0  0  0  0  0  0  0  0
   -4.1898    5.4688    0.1944 C   0  0  0  0  0  0  0  0  0  0  0  0
   -5.0511    5.6552   -1.0761 C   0  0  0  0  0  0  0  0  0  0  0  0
   -4.5534    6.7263   -1.8833 O   0  0  0  0  0  0  0  0  0  0  0  0
   -3.2145    6.4175   -2.2967 C   0  0  0  0  0  0  0  0  0  0  0  0
   -2.2423    6.2775   -1.0884 C   0  0  0  0  0  0  0  0  0  0  0  0
   -0.8842    3.9238    0.8833 N   0  0  0  0  0  0  0  0  0  0  0  0
    0.7453    0.7580   -0.6385 H   0  0  0  0  0  0  0  0  0  0  0  0
    0.7663   -0.9847   -0.3508 H   0  0  0  0  0  0  0  0  0  0  0  0
    2.1836   -0.0014    0.0382 H   0  0  0  0  0  0  0  0  0  0  0  0
    1.3024   -1.7442    2.1237 H   0  0  0  0  0  0  0  0  0  0  0  0
    2.4483   -0.4372    2.3988 H   0  0  0  0  0  0  0  0  0  0  0  0
    1.0373   -0.6363    3.4637 H   0  0  0  0  0  0  0  0  0  0  0  0
    0.4385    1.8820    2.9158 H   0  0  0  0  0  0  0  0  0  0  0  0
    1.5151    2.2028    1.5519 H   0  0  0  0  0  0  0  0  0  0  0  0
   -0.9513   -1.4147    1.3945 H   0  0  0  0  0  0  0  0  0  0  0  0
   -1.3217   -0.1597    2.5844 H   0  0  0  0  0  0  0  0  0  0  0  0
   -4.3088    6.3750    0.7982 H   0  0  0  0  0  0  0  0  0  0  0  0
   -4.6011    4.6411    0.7814 H   0  0  0  0  0  0  0  0  0  0  0  0
   -5.1132    4.7473   -1.6883 H   0  0  0  0  0  0  0  0  0  0  0  0
   -6.0800    5.9165   -0.7954 H   0  0  0  0  0  0  0  0  0  0  0  0
   -2.8958    7.2417   -2.9458 H   0  0  0  0  0  0  0  0  0  0  0  0
   -3.2443    5.5119   -2.9138 H   0  0  0  0  0  0  0  0  0  0  0  0
   -2.1993    7.2618   -0.6061 H   0  0  0  0  0  0  0  0  0  0  0  0
   -1.2443    6.0300   -1.4590 H   0  0  0  0  0  0  0  0  0  0  0  0
  1  2  1  0  0  0  0
  1 19  1  0  0  0  0
  1 20  1  0  0  0  0
  1 21  1  0  0  0  0
  2  3  1  0  0  0  0
  2  4  1  0  0  0  0
  2  8  1  0  0  0  0
  3 22  1  0  0  0  0
  3 23  1  0  0  0  0
  3 24  1  0  0  0  0
  4  5  1  0  0  0  0
  4 25  1  0  0  0  0
  4 26  1  0  0  0  0
  5  6  2  0  0  0  0
  5 18  1  0  0  0  0
  6  7  1  0  0  0  0
  6 10  1  0  0  0  0
  7  8  1  0  0  0  0
  7  9  2  0  0  0  0
  8 27  1  0  0  0  0
  8 28  1  0  0  0  0
 10 11  1  0  0  0  0
 11 12  1  0  0  0  0
 11 18  2  0  0  0  0
 12 13  1  0  0  0  0
 12 17  1  0  0  0  0
 13 14  1  0  0  0  0
 13 29  1  0  0  0  0
 13 30  1  0  0  0  0
 14 15  1  0  0  0  0
 14 31  1  0  0  0  0
 14 32  1  0  0  0  0
 15 16  1  0  0  0  0
 16 17  1  0  0  0  0
 16 33  1  0  0  0  0
 16 34  1  0  0  0  0
 17 35  1  0  0  0  0
 17 36  1  0  0  0  0
M  END
>  <DRUGBANK_ID>
DB07073

>  <COMMON_NAME>
5,5-dimethyl-2-morpholin-4-yl-5,6-dihydro-1,3-benzothiazol-7(4H)-one

>  <UNII>
QDN0FW2IO9

$$$$
