
 OpenBabel10282417223D

122127  0  0  1  0  0  0  0  0999 V2000
    8.9635    5.1542    1.3844 C   0  0  0  0  0  0  0  0  0  0  0  0
    8.3647    6.8008    3.2515 O   0  0  0  0  0  0  0  0  0  0  0  0
    7.6752    8.5352    5.0403 C   0  0  1  0  0  0  0  0  0  0  0  0
    8.0718   10.6397    7.5579 C   0  0  0  0  0  0  0  0  0  0  0  0
    8.2375   12.2393    9.5405 C   0  0  0  0  0  0  0  0  0  0  0  0
    8.0203   13.8468   11.7574 O   0  0  0  0  0  0  0  0  0  0  0  0
    7.4445   15.2439   13.9270 C   0  0  1  0  0  0  0  0  0  0  0  0
    6.3446   16.2736   16.0049 C   0  0  0  0  0  0  0  0  0  0  0  0
    6.1949   16.2205   13.9331 O   0  0  0  0  0  0  0  0  0  0  0  0
    5.8494   15.0970   13.2901 C   0  0  0  0  0  0  0  0  0  0  0  0
    6.2920   13.9462   13.9438 C   0  0  0  0  0  0  0  0  0  0  0  0
    7.0391   14.3610   15.1385 C   0  0  0  0  0  0  0  0  0  0  0  0
    7.5773   13.7471   16.0491 O   0  0  0  0  0  0  0  0  0  0  0  0
    6.0640   12.7014   13.3897 C   0  0  0  0  0  0  0  0  0  0  0  0
    6.5172   11.5342   14.0289 C   0  0  0  0  0  0  0  0  0  0  0  0
    7.2200   11.6145   15.2256 O   0  0  0  0  0  0  0  0  0  0  0  0
    6.2594   10.3185   13.4777 C   0  0  0  0  0  0  0  0  0  0  0  0
    6.7461    9.0656   14.1700 C   0  0  0  0  0  0  0  0  0  0  0  0
    7.4009    9.1357   15.3027 N   0  0  0  0  0  0  0  0  0  0  0  0
    7.8469    7.9758   15.9237 N   0  0  0  0  0  0  0  0  0  0  0  0
    8.4714    6.8568   15.2333 C   0  0  0  0  0  0  0  0  0  0  0  0
    7.6938    5.5836   15.4442 C   0  0  0  0  0  0  0  0  0  0  0  0
    7.5253    5.2366   16.8592 N   0  0  3  0  0  0  0  0  0  0  0  0
    6.8709    6.3652   17.5294 C   0  0  0  0  0  0  0  0  0  0  0  0
    7.6542    7.6504   17.3446 C   0  0  0  0  0  0  0  0  0  0  0  0
    8.8434    4.9944   17.4614 C   0  0  0  0  0  0  0  0  0  0  0  0
    9.8477    6.1427   17.4684 C   0  0  0  0  0  0  0  0  0  0  0  0
   11.2281    5.5804   17.4823 C   0  0  0  0  0  0  0  0  0  0  0  0
   11.0566    4.0903   17.0654 C   0  0  0  0  0  0  0  0  0  0  0  0
    9.6074    3.9569   16.6188 C   0  0  0  0  0  0  0  0  0  0  0  0
    5.5681   10.3133   12.3111 C   0  0  0  0  0  0  0  0  0  0  0  0
    5.2961    9.1351   12.0154 N   0  0  0  0  0  0  0  0  0  0  0  0
    5.6872    8.6880   10.2168 C   0  0  0  0  0  0  0  0  0  0  0  0
    6.2227    9.9156    9.3017 O   0  0  0  0  0  0  0  0  0  0  0  0
    5.5130    7.3161    9.5861 C   0  0  0  0  0  0  0  0  0  0  0  0
    5.6872    8.6880   10.2168 C   0  0  0  0  0  0  0  0  0  0  0  0
    5.8026    7.1309    8.2698 C   0  0  0  0  0  0  0  0  0  0  0  0
    5.6618    5.7218    7.6531 C   0  0  0  0  0  0  0  0  0  0  0  0
    5.9112    5.5264    6.3793 C   0  0  0  0  0  0  0  0  0  0  0  0
    5.7196    4.1995    5.7258 C   0  0  2  0  0  0  0  0  0  0  0  0
    6.9963    3.5398    5.4679 C   0  0  0  0  0  0  0  0  0  0  0  0
    4.7329    4.3508    4.5966 C   0  0  2  0  0  0  0  0  0  0  0  0
    4.1717    3.2890    4.1001 O   0  0  0  0  0  0  0  0  0  0  0  0
    5.2172    5.2662    3.5417 C   0  0  1  0  0  0  0  0  0  0  0  0
    5.3459    6.6433    4.1212 C   0  0  0  0  0  0  0  0  0  0  0  0
    6.5244    4.6732    3.0623 C   0  0  1  0  0  0  0  0  0  0  0  0
    7.6198    4.8751    3.8593 O   0  0  0  0  0  0  0  0  0  0  0  0
    6.4397    3.4130    2.3513 C   0  0  1  0  0  0  0  0  0  0  0  0
    6.0393    2.3475    3.2743 C   0  0  0  0  0  0  0  0  0  0  0  0
    5.8326    4.5469    1.6649 C   0  0  2  0  0  0  0  0  0  0  0  0
    5.3538    2.5423    0.7389 O   0  0  0  0  0  0  0  0  0  0  0  0
    6.7089    6.7592    2.7911 C   0  0  2  0  0  0  0  0  0  0  0  0
    5.6517    5.4608    0.5264 C   0  0  0  0  0  0  0  0  0  0  0  0
    5.0864   11.3738   11.5879 C   0  0  0  0  0  0  0  0  0  0  0  0
    4.3684   11.2446   10.3925 O   0  0  0  0  0  0  0  0  0  0  0  0
    5.3397   12.6152   12.1487 C   0  0  0  0  0  0  0  0  0  0  0  0
    4.8947   13.7895   11.5162 C   0  0  0  0  0  0  0  0  0  0  0  0
    4.1839   13.7144   10.3086 O   0  0  0  0  0  0  0  0  0  0  0  0
    5.1559   15.0225   12.0882 C   0  0  0  0  0  0  0  0  0  0  0  0
    4.6782   16.2558   11.3974 C   0  0  0  0  0  0  0  0  0  0  0  0
    9.5441    5.0825   -0.2396 H   0  0  0  0  0  0  0  0  0  0  0  0
    9.4546    3.7544   -0.0109 H   0  0  0  0  0  0  0  0  0  0  0  0
   10.1768    4.0562    1.0404 H   0  0  0  0  0  0  0  0  0  0  0  0
    7.7204    7.3232    3.7557 H   0  0  0  0  0  0  0  0  0  0  0  0
    8.5817   11.9384    8.9067 H   0  0  0  0  0  0  0  0  0  0  0  0
    8.8366   13.6773   11.0011 H   0  0  0  0  0  0  0  0  0  0  0  0
    5.1734   16.0092   16.3487 H   0  0  0  0  0  0  0  0  0  0  0  0
    6.6909   16.1645   17.2186 H   0  0  0  0  0  0  0  0  0  0  0  0
    6.0790   17.5091   16.2704 H   0  0  0  0  0  0  0  0  0  0  0  0
    7.5355   10.7829   15.6733 H   0  0  0  0  0  0  0  0  0  0  0  0
    6.5378    8.0923   13.7239 H   0  0  0  0  0  0  0  0  0  0  0  0
    8.5967    7.0668   14.2074 H   0  0  0  0  0  0  0  0  0  0  0  0
    9.4636    6.6880   15.4772 H   0  0  0  0  0  0  0  0  0  0  0  0
    6.7237    5.7339   15.0068 H   0  0  0  0  0  0  0  0  0  0  0  0
    8.1857    4.7716   14.9344 H   0  0  0  0  0  0  0  0  0  0  0  0
    5.8885    6.5092   17.1019 H   0  0  0  0  0  0  0  0  0  0  0  0
    6.7686    6.1444   18.5836 H   0  0  0  0  0  0  0  0  0  0  0  0
    8.5928    7.5290   17.7862 H   0  0  0  0  0  0  0  0  0  0  0  0
    7.1719    8.4486   17.8545 H   0  0  0  0  0  0  0  0  0  0  0  0
    8.6215    4.7195   18.4900 H   0  0  0  0  0  0  0  0  0  0  0  0
    9.7479    6.8018   16.7148 H   0  0  0  0  0  0  0  0  0  0  0  0
    9.6967    6.8160   18.2885 H   0  0  0  0  0  0  0  0  0  0  0  0
   11.9184    6.1185   16.8389 H   0  0  0  0  0  0  0  0  0  0  0  0
   11.6307    5.6679   18.4838 H   0  0  0  0  0  0  0  0  0  0  0  0
   11.7549    3.7912   16.2914 H   0  0  0  0  0  0  0  0  0  0  0  0
   11.2470    3.4299   17.9045 H   0  0  0  0  0  0  0  0  0  0  0  0
    9.2133    2.9573   16.7184 H   0  0  0  0  0  0  0  0  0  0  0  0
    9.5329    4.1850   15.5621 H   0  0  0  0  0  0  0  0  0  0  0  0
    5.0184    8.1365   12.3579 H   0  0  0  0  0  0  0  0  0  0  0  0
    7.0796    8.9731   10.2061 H   0  0  0  0  0  0  0  0  0  0  0  0
    4.7330    9.5349    9.6000 H   0  0  0  0  0  0  0  0  0  0  0  0
    5.2576    7.9619   11.2273 H   0  0  0  0  0  0  0  0  0  0  0  0
    6.1690    7.9896    7.6639 H   0  0  0  0  0  0  0  0  0  0  0  0
    5.5949    6.7217    7.9831 H   0  0  0  0  0  0  0  0  0  0  0  0
    6.3258    6.3589    5.9481 H   0  0  0  0  0  0  0  0  0  0  0  0
    5.3730    3.5070    6.4402 H   0  0  0  0  0  0  0  0  0  0  0  0
    7.0565    3.3878    4.0955 H   0  0  0  0  0  0  0  0  0  0  0  0
    7.8698    4.4376    5.5498 H   0  0  0  0  0  0  0  0  0  0  0  0
    7.3895    2.6948    5.6758 H   0  0  0  0  0  0  0  0  0  0  0  0
    3.7928    4.6552    4.9497 H   0  0  0  0  0  0  0  0  0  0  0  0
    3.6928    2.7325    4.5919 H   0  0  0  0  0  0  0  0  0  0  0  0
    4.5201    5.3412    2.7142 H   0  0  0  0  0  0  0  0  0  0  0  0
    5.6837    7.4034    3.4593 H   0  0  0  0  0  0  0  0  0  0  0  0
    4.4634    6.9882    4.5263 H   0  0  0  0  0  0  0  0  0  0  0  0
    6.1189    6.6468    4.7386 H   0  0  0  0  0  0  0  0  0  0  0  0
    7.0017    5.2333    2.4573 H   0  0  0  0  0  0  0  0  0  0  0  0
    7.2241    4.4822    4.4908 H   0  0  0  0  0  0  0  0  0  0  0  0
    7.3569    3.0731    1.9478 H   0  0  0  0  0  0  0  0  0  0  0  0
    5.7820    1.4409    2.9230 H   0  0  0  0  0  0  0  0  0  0  0  0
    6.5726    2.2388    4.1736 H   0  0  0  0  0  0  0  0  0  0  0  0
    5.2255    2.5386    3.5963 H   0  0  0  0  0  0  0  0  0  0  0  0
    4.4793    3.8932    1.5954 H   0  0  0  0  0  0  0  0  0  0  0  0
    6.0523    1.6886    0.5607 H   0  0  0  0  0  0  0  0  0  0  0  0
    6.2815    5.8617    1.1216 H   0  0  0  0  0  0  0  0  0  0  0  0
    5.4885    5.0022   -1.3801 H   0  0  0  0  0  0  0  0  0  0  0  0
    4.7915    4.0917   -0.6665 H   0  0  0  0  0  0  0  0  0  0  0  0
    4.2503    5.3398   -0.6038 H   0  0  0  0  0  0  0  0  0  0  0  0
    4.0642   12.0625    9.9250 H   0  0  0  0  0  0  0  0  0  0  0  0
    3.8774   14.5450    9.8711 H   0  0  0  0  0  0  0  0  0  0  0  0
    5.1143   16.3231   10.4097 H   0  0  0  0  0  0  0  0  0  0  0  0
    3.6007   16.2332   11.3034 H   0  0  0  0  0  0  0  0  0  0  0  0
    4.9618   17.1261   11.9654 H   0  0  0  0  0  0  0  0  0  0  0  0
  1  2  1  0  0  0  0
  1 61  1  0  0  0  0
  1 62  1  0  0  0  0
  1 63  1  0  0  0  0
  3  4  1  0  0  0  0
  3 64  1  1  0  0  0
  3  2  1  0  0  0  0
  4  5  2  0  0  0  0
  4 65  1  0  0  0  0
  5  6  1  0  0  0  0
  5 66  1  0  0  0  0
  7  6  1  0  0  0  0
  7  8  1  1  0  0  0
  7  9  1  0  0  0  0
  7 12  1  0  0  0  0
  8 67  1  0  0  0  0
  8 68  1  0  0  0  0
  8 69  1  0  0  0  0
  9 10  1  0  0  0  0
 10 11  2  0  0  0  0
 10 59  1  0  0  0  0
 11 12  1  0  0  0  0
 11 14  1  0  0  0  0
 12 13  2  0  0  0  0
 14 15  2  0  0  0  0
 14 56  1  0  0  0  0
 15 16  1  0  0  0  0
 15 17  1  0  0  0  0
 16 70  1  0  0  0  0
 17 18  1  0  0  0  0
 17 31  2  0  0  0  0
 18 19  2  0  0  0  0
 18 71  1  0  0  0  0
 19 20  1  0  0  0  0
 20 21  1  0  0  0  0
 20 25  1  0  0  0  0
 21 22  1  0  0  0  0
 21 72  1  0  0  0  0
 21 73  1  0  0  0  0
 22 23  1  0  0  0  0
 22 74  1  0  0  0  0
 22 75  1  0  0  0  0
 23 24  1  0  0  0  0
 23 26  1  0  0  0  0
 24 25  1  0  0  0  0
 24 76  1  0  0  0  0
 24 77  1  0  0  0  0
 25 78  1  0  0  0  0
 25 79  1  0  0  0  0
 26 27  1  0  0  0  0
 26 30  1  0  0  0  0
 26 80  1  0  0  0  0
 27 28  1  0  0  0  0
 27 81  1  0  0  0  0
 27 82  1  0  0  0  0
 28 29  1  0  0  0  0
 28 83  1  0  0  0  0
 28 84  1  0  0  0  0
 29 30  1  0  0  0  0
 29 85  1  0  0  0  0
 29 86  1  0  0  0  0
 30 87  1  0  0  0  0
 30 88  1  0  0  0  0
 31 32  1  0  0  0  0
 31 54  1  0  0  0  0
 32 33  1  0  0  0  0
 32 89  1  0  0  0  0
 33 34  2  0  0  0  0
 33 35  1  0  0  0  0
 35 36  1  0  0  0  0
 35 37  2  0  0  0  0
 36 90  1  0  0  0  0
 36 91  1  0  0  0  0
 36 92  1  0  0  0  0
 37 38  1  0  0  0  0
 37 93  1  0  0  0  0
 38 39  2  0  0  0  0
 38 94  1  0  0  0  0
 39 95  1  0  0  0  0
 40 39  1  0  0  0  0
 40 96  1  1  0  0  0
 40 41  1  0  0  0  0
 41 97  1  0  0  0  0
 41 98  1  0  0  0  0
 41 99  1  0  0  0  0
 42 40  1  0  0  0  0
 42 44  1  0  0  0  0
 42100  1  1  0  0  0
 42 43  1  0  0  0  0
 43101  1  0  0  0  0
 44 45  1  0  0  0  0
 44 46  1  0  0  0  0
 44102  1  6  0  0  0
 45103  1  0  0  0  0
 45104  1  0  0  0  0
 45105  1  0  0  0  0
 46 47  1  0  0  0  0
 46 48  1  0  0  0  0
 46106  1  6  0  0  0
 47107  1  0  0  0  0
 48 49  1  0  0  0  0
 48 50  1  0  0  0  0
 48108  1  6  0  0  0
 49109  1  0  0  0  0
 49110  1  0  0  0  0
 49111  1  0  0  0  0
 50 52  1  0  0  0  0
 50112  1  1  0  0  0
 50 51  1  0  0  0  0
 51113  1  0  0  0  0
 52  3  1  0  0  0  0
 52114  1  1  0  0  0
 52 53  1  0  0  0  0
 53115  1  0  0  0  0
 53116  1  0  0  0  0
 53117  1  0  0  0  0
 54 55  1  0  0  0  0
 54 56  2  0  0  0  0
 55118  1  0  0  0  0
 56 57  1  0  0  0  0
 57 58  1  0  0  0  0
 57 59  2  0  0  0  0
 58119  1  0  0  0  0
 59 60  1  0  0  0  0
 60120  1  0  0  0  0
 60121  1  0  0  0  0
 60122  1  0  0  0  0
M  END
>  <DRUGBANK_ID>
DB15213

>  <COMMON_NAME>
25-desacetylrifapentine

>  <CAS_NUMBER>
79039-56-8

>  <UNII>
29A0K44SJO

>  <SYNONYMS>
25-DESACETYL RIFAPENTINE

$$$$
