1044
 OpenBabel10282417113D

 49 52  0  0  1  0  0  0  0  0999 V2000
    1.0311    0.0349   -0.0543 F   0  0  0  0  0  0  0  0  0  0  0  0
    5.2557   -2.3470    0.0147 O   0  0  0  0  0  0  0  0  0  0  0  0
    4.5521    3.5633    0.0120 O   0  0  0  0  0  0  0  0  0  0  0  0
    6.7172    4.8983   -0.0207 O   0  0  0  0  0  0  0  0  0  0  0  0
    8.6606    3.7707   -0.0249 O   0  0  0  0  0  0  0  0  0  0  0  0
    6.6480    0.0645    0.0227 N   0  0  0  0  0  0  0  0  0  0  0  0
    2.2577   -2.4443    0.1205 N   0  0  0  0  0  0  0  0  0  0  0  0
    0.5276   -4.6577    0.9100 N   0  0  0  0  0  0  0  0  0  0  0  0
    7.4107   -1.1963   -0.1213 C   0  0  0  0  0  0  0  0  0  0  0  0
    8.2682   -1.6684    1.0562 C   0  0  0  0  0  0  0  0  0  0  0  0
    8.7635   -1.7670   -0.3361 C   0  0  0  0  0  0  0  0  0  0  0  0
    5.1856   -0.0064    0.0121 C   0  0  0  0  0  0  0  0  0  0  0  0
    7.2698    1.3043    0.0115 C   0  0  0  0  0  0  0  0  0  0  0  0
    4.4407   -1.2523   -0.0074 C   0  0  0  0  0  0  0  0  0  0  0  0
    4.4600    1.1974    0.0034 C   0  0  0  0  0  0  0  0  0  0  0  0
    3.0189   -1.2892   -0.0347 C   0  0  0  0  0  0  0  0  0  0  0  0
    1.3113   -2.9688   -0.8773 C   0  0  0  0  0  0  0  0  0  0  0  0
    0.1215   -3.6350   -0.1045 C   0  0  3  0  0  0  0  0  0  0  0  0
    2.5954   -3.3997    1.1739 C   0  0  0  0  0  0  0  0  0  0  0  0
    1.4299   -4.0266    1.8963 C   0  0  0  0  0  0  0  0  0  0  0  0
    6.6498    2.5002    0.0102 C   0  0  0  0  0  0  0  0  0  0  0  0
    5.1704    2.4974    0.0145 C   0  0  0  0  0  0  0  0  0  0  0  0
    3.0640    1.1867   -0.0391 C   0  0  0  0  0  0  0  0  0  0  0  0
    2.3736   -0.0296   -0.0723 C   0  0  0  0  0  0  0  0  0  0  0  0
   -0.6712   -2.5330    0.5986 C   0  0  0  0  0  0  0  0  0  0  0  0
    7.4488    3.7543   -0.0123 C   0  0  0  0  0  0  0  0  0  0  0  0
    4.9149   -3.6888   -0.1611 C   0  0  0  0  0  0  0  0  0  0  0  0
    5.7379    4.7703   -0.0092 H   0  0  0  0  0  0  0  0  0  0  0  0
    1.0627   -5.3793    0.4186 H   0  0  0  0  0  0  0  0  0  0  0  0
    6.8974   -1.7725   -0.8791 H   0  0  0  0  0  0  0  0  0  0  0  0
    8.8263   -0.9746    1.6771 H   0  0  0  0  0  0  0  0  0  0  0  0
    7.9405   -2.5503    1.5962 H   0  0  0  0  0  0  0  0  0  0  0  0
    8.7530   -2.7824   -0.7533 H   0  0  0  0  0  0  0  0  0  0  0  0
    9.5252   -1.1481   -0.7684 H   0  0  0  0  0  0  0  0  0  0  0  0
    8.3563    1.2443    0.0016 H   0  0  0  0  0  0  0  0  0  0  0  0
    0.9441   -2.2053   -1.5746 H   0  0  0  0  0  0  0  0  0  0  0  0
    1.8139   -3.7346   -1.4886 H   0  0  0  0  0  0  0  0  0  0  0  0
   -0.5262   -4.1486   -0.8240 H   0  0  0  0  0  0  0  0  0  0  0  0
    2.9760   -4.2955    0.6818 H   0  0  0  0  0  0  0  0  0  0  0  0
    3.2965   -2.9770    1.8970 H   0  0  0  0  0  0  0  0  0  0  0  0
    0.9378   -3.2911    2.5326 H   0  0  0  0  0  0  0  0  0  0  0  0
    1.8456   -4.7970    2.5583 H   0  0  0  0  0  0  0  0  0  0  0  0
    2.4978    2.1166   -0.0262 H   0  0  0  0  0  0  0  0  0  0  0  0
   -1.0903   -1.8431   -0.1350 H   0  0  0  0  0  0  0  0  0  0  0  0
   -1.4720   -2.9569    1.2083 H   0  0  0  0  0  0  0  0  0  0  0  0
   -0.0373   -1.9312    1.2611 H   0  0  0  0  0  0  0  0  0  0  0  0
    4.7502   -4.0612    0.8490 H   0  0  0  0  0  0  0  0  0  0  0  0
    4.1229   -3.8233   -0.9023 H   0  0  0  0  0  0  0  0  0  0  0  0
    5.7504   -4.3134   -0.4745 H   0  0  0  0  0  0  0  0  0  0  0  0
  1 24  1  0  0  0  0
  2 14  1  0  0  0  0
  2 27  1  0  0  0  0
  3 22  2  0  0  0  0
  4 26  1  0  0  0  0
  4 28  1  0  0  0  0
  5 26  2  0  0  0  0
  6  9  1  0  0  0  0
  6 12  1  0  0  0  0
  6 13  1  0  0  0  0
  7 16  1  0  0  0  0
  7 17  1  0  0  0  0
  7 19  1  0  0  0  0
  8 18  1  0  0  0  0
  8 20  1  0  0  0  0
  8 29  1  0  0  0  0
  9 10  1  0  0  0  0
  9 11  1  0  0  0  0
  9 30  1  0  0  0  0
 10 11  1  0  0  0  0
 10 31  1  0  0  0  0
 10 32  1  0  0  0  0
 11 33  1  0  0  0  0
 11 34  1  0  0  0  0
 12 14  2  0  0  0  0
 12 15  1  0  0  0  0
 13 21  2  0  0  0  0
 13 35  1  0  0  0  0
 14 16  1  0  0  0  0
 15 22  1  0  0  0  0
 15 23  2  0  0  0  0
 16 24  2  0  0  0  0
 17 18  1  0  0  0  0
 17 36  1  0  0  0  0
 17 37  1  0  0  0  0
 18 25  1  0  0  0  0
 18 38  1  0  0  0  0
 19 20  1  0  0  0  0
 19 39  1  0  0  0  0
 19 40  1  0  0  0  0
 20 41  1  0  0  0  0
 20 42  1  0  0  0  0
 21 22  1  0  0  0  0
 21 26  1  0  0  0  0
 23 24  1  0  0  0  0
 23 43  1  0  0  0  0
 25 44  1  0  0  0  0
 25 45  1  0  0  0  0
 25 46  1  0  0  0  0
 27 47  1  0  0  0  0
 27 48  1  0  0  0  0
 27 49  1  0  0  0  0
M  END
>  <DRUGBANK_ID>
DB01044

>  <SECONDARY_ACCESSION_NUMBERS>
APRD00996

>  <COMMON_NAME>
Gatifloxacin

>  <CAS_NUMBER>
112811-59-3

>  <UNII>
81485Y3A9A

>  <SYNONYMS>
1-Cyclopropyl-1,4-dihydro-6-fluoro-8-methoxy-7-(3-methyl-1-piperazinyl)-4-oxo-3-quinolinecarboxylic acid; 1-cyclopropyl-6-fluoro- 8-methoxy-7-(3-methylpiperazin-1-yl)- 4-oxo-quinoline-3-carboxylic acid; Gatifloxacin; Gatifloxacin anhydrous; Gatifloxacine; Gatifloxacino; Gatifloxacinum

$$$$
