53V
 OpenBabel10282417163D

 55 57  0  0  0  0  0  0  0  0999 V2000
   -0.7052    1.1924   -0.0027 C   0  0  0  0  0  0  0  0  0  0  0  0
   -4.8281    1.8937    4.6864 C   0  0  0  0  0  0  0  0  0  0  0  0
    1.2773    0.0194   -0.0014 C   0  0  0  0  0  0  0  0  0  0  0  0
   -1.4616    0.0227   -0.0095 C   0  0  0  0  0  0  0  0  0  0  0  0
   -5.6144    0.0258   -0.0229 C   0  0  2  0  0  0  0  0  0  0  0  0
   -6.2900    1.3232   -0.4695 C   0  0  0  0  0  0  0  0  0  0  0  0
   -6.1423   -0.2883    1.3635 C   0  0  0  0  0  0  0  0  0  0  0  0
   -5.7011    0.4515    2.4690 C   0  0  0  0  0  0  0  0  0  0  0  0
   -6.1366    0.1633    3.7568 C   0  0  0  0  0  0  0  0  0  0  0  0
   -7.0293   -0.8841    3.9448 C   0  0  0  0  0  0  0  0  0  0  0  0
   -7.5536   -1.5917    2.8530 C   0  0  0  0  0  0  0  0  0  0  0  0
  -10.1793   -1.0655    4.0816 C   0  0  0  0  0  0  0  0  0  0  0  0
   -9.7729   -2.4530    3.6549 C   0  0  0  0  0  0  0  0  0  0  0  0
  -10.6632   -3.5202    3.8390 C   0  0  0  0  0  0  0  0  0  0  0  0
  -10.3160   -4.8097    3.4403 C   0  0  0  0  0  0  0  0  0  0  0  0
   -9.0776   -5.0513    2.8529 C   0  0  0  0  0  0  0  0  0  0  0  0
   -8.1691   -4.0058    2.6567 C   0  0  0  0  0  0  0  0  0  0  0  0
   -6.8287   -4.3083    2.0376 C   0  0  0  0  0  0  0  0  0  0  0  0
   -8.5108   -2.6903    3.0574 C   0  0  0  0  0  0  0  0  0  0  0  0
   -7.1195   -1.2616    1.5606 C   0  0  0  0  0  0  0  0  0  0  0  0
   -5.7508    0.8282    4.8865 O   0  0  0  0  0  0  0  0  0  0  0  0
   -4.1234    0.0712   -0.0515 C   0  0  0  0  0  0  0  0  0  0  0  0
   -2.9106    0.0491   -0.0360 C   0  0  0  0  0  0  0  0  0  0  0  0
   -0.7183   -1.1501   -0.0017 C   0  0  0  0  0  0  0  0  0  0  0  0
   -1.3781   -2.5008    0.0037 C   0  0  0  0  0  0  0  0  0  0  0  0
    0.6456   -1.1607    0.0006 N   0  0  0  0  0  0  0  0  0  0  0  0
    2.6480    0.0103   -0.0062 N   0  0  0  0  0  0  0  0  0  0  0  0
    0.6482    1.2012    0.0004 N   0  0  0  0  0  0  0  0  0  0  0  0
   -1.3258    2.4303    0.0247 N   0  0  0  0  0  0  0  0  0  0  0  0
   -5.9316   -0.7677   -0.7142 H   0  0  0  0  0  0  0  0  0  0  0  0
   -3.8939    1.5263    4.2465 H   0  0  0  0  0  0  0  0  0  0  0  0
   -5.2698    2.6830    4.0670 H   0  0  0  0  0  0  0  0  0  0  0  0
   -4.5914    2.3261    5.6609 H   0  0  0  0  0  0  0  0  0  0  0  0
   -7.3418    1.1089   -0.7007 H   0  0  0  0  0  0  0  0  0  0  0  0
   -6.2990    2.0857    0.3200 H   0  0  0  0  0  0  0  0  0  0  0  0
   -5.8314    1.7660   -1.3563 H   0  0  0  0  0  0  0  0  0  0  0  0
   -5.0072    1.2638    2.2861 H   0  0  0  0  0  0  0  0  0  0  0  0
   -7.3346   -1.1457    4.9558 H   0  0  0  0  0  0  0  0  0  0  0  0
   -9.5129   -0.6907    4.8634 H   0  0  0  0  0  0  0  0  0  0  0  0
  -10.1504   -0.3857    3.2233 H   0  0  0  0  0  0  0  0  0  0  0  0
  -11.1887   -1.0428    4.4998 H   0  0  0  0  0  0  0  0  0  0  0  0
  -11.6367   -3.3507    4.2934 H   0  0  0  0  0  0  0  0  0  0  0  0
  -11.0107   -5.6318    3.5882 H   0  0  0  0  0  0  0  0  0  0  0  0
   -8.8164   -6.0626    2.5515 H   0  0  0  0  0  0  0  0  0  0  0  0
   -6.7151   -3.7854    1.0844 H   0  0  0  0  0  0  0  0  0  0  0  0
   -6.0244   -4.0096    2.7182 H   0  0  0  0  0  0  0  0  0  0  0  0
   -6.7128   -5.3711    1.8151 H   0  0  0  0  0  0  0  0  0  0  0  0
   -7.5321   -1.7993    0.7077 H   0  0  0  0  0  0  0  0  0  0  0  0
   -1.0872   -3.0656   -0.8870 H   0  0  0  0  0  0  0  0  0  0  0  0
   -1.0862   -3.0602    0.8977 H   0  0  0  0  0  0  0  0  0  0  0  0
   -2.4689   -2.4352    0.0051 H   0  0  0  0  0  0  0  0  0  0  0  0
    3.1429    0.8854   -0.0101 H   0  0  0  0  0  0  0  0  0  0  0  0
    3.1281   -0.8736   -0.0099 H   0  0  0  0  0  0  0  0  0  0  0  0
   -0.7471    3.2549    0.0024 H   0  0  0  0  0  0  0  0  0  0  0  0
   -2.3306    2.4988   -0.0155 H   0  0  0  0  0  0  0  0  0  0  0  0
  1  4  2  0  0  0  0
  1 28  1  0  0  0  0
  1 29  1  0  0  0  0
  2 21  1  0  0  0  0
  2 31  1  0  0  0  0
  2 32  1  0  0  0  0
  2 33  1  0  0  0  0
  3 26  1  0  0  0  0
  3 27  1  0  0  0  0
  3 28  2  0  0  0  0
  4 23  1  0  0  0  0
  4 24  1  0  0  0  0
  5 22  1  0  0  0  0
  5 30  1  6  0  0  0
  5  7  1  0  0  0  0
  5  6  1  0  0  0  0
  6 34  1  0  0  0  0
  6 35  1  0  0  0  0
  6 36  1  0  0  0  0
  7  8  2  0  0  0  0
  7 20  1  0  0  0  0
  8  9  1  0  0  0  0
  8 37  1  0  0  0  0
  9 10  2  0  0  0  0
  9 21  1  0  0  0  0
 10 11  1  0  0  0  0
 10 38  1  0  0  0  0
 11 19  1  0  0  0  0
 11 20  2  0  0  0  0
 12 13  1  0  0  0  0
 12 39  1  0  0  0  0
 12 40  1  0  0  0  0
 12 41  1  0  0  0  0
 13 14  2  0  0  0  0
 13 19  1  0  0  0  0
 14 15  1  0  0  0  0
 14 42  1  0  0  0  0
 15 16  2  0  0  0  0
 15 43  1  0  0  0  0
 16 17  1  0  0  0  0
 16 44  1  0  0  0  0
 17 18  1  0  0  0  0
 17 19  2  0  0  0  0
 18 45  1  0  0  0  0
 18 46  1  0  0  0  0
 18 47  1  0  0  0  0
 20 48  1  0  0  0  0
 22 23  3  0  0  0  0
 24 25  1  0  0  0  0
 24 26  2  0  0  0  0
 25 49  1  0  0  0  0
 25 50  1  0  0  0  0
 25 51  1  0  0  0  0
 27 52  1  0  0  0  0
 27 53  1  0  0  0  0
 29 54  1  0  0  0  0
 29 55  1  0  0  0  0
M  END
>  <DRUGBANK_ID>
DB07144

>  <COMMON_NAME>
5-[(3R)-3-(5-methoxy-2',6'-dimethylbiphenyl-3-yl)but-1-yn-1-yl]-6-methylpyrimidine-2,4-diamine

$$$$
