593
 OpenBabel10282417103D

 21 21  0  0  1  0  0  0  0  0999 V2000
    1.1708    0.2527   -0.1666 O   0  0  0  0  0  0  0  0  0  0  0  0
    5.2016    1.5773    0.9667 O   0  0  0  0  0  0  0  0  0  0  0  0
    3.2417    1.2001   -0.1714 N   0  0  0  0  0  0  0  0  0  0  0  0
    3.1818   -1.1385    0.0811 C   0  0  3  0  0  0  0  0  0  0  0  0
    4.6280   -0.6071    0.0700 C   0  0  0  0  0  0  0  0  0  0  0  0
    2.8752   -1.8388    1.4224 C   0  0  0  0  0  0  0  0  0  0  0  0
    2.3855    0.1483   -0.1206 C   0  0  0  0  0  0  0  0  0  0  0  0
    2.9524   -2.0832   -1.0963 C   0  0  0  0  0  0  0  0  0  0  0  0
    4.4377    0.8495    0.3540 C   0  0  0  0  0  0  0  0  0  0  0  0
    1.4524   -2.3774    1.5259 C   0  0  0  0  0  0  0  0  0  0  0  0
    2.8957    2.1466   -0.1531 H   0  0  0  0  0  0  0  0  0  0  0  0
    5.2848   -1.0883    0.7983 H   0  0  0  0  0  0  0  0  0  0  0  0
    5.0810   -0.6755   -0.9264 H   0  0  0  0  0  0  0  0  0  0  0  0
    3.5665   -2.6848    1.5457 H   0  0  0  0  0  0  0  0  0  0  0  0
    3.0606   -1.1635    2.2674 H   0  0  0  0  0  0  0  0  0  0  0  0
    3.1388   -1.5834   -2.0514 H   0  0  0  0  0  0  0  0  0  0  0  0
    3.6121   -2.9541   -1.0206 H   0  0  0  0  0  0  0  0  0  0  0  0
    1.9189   -2.4393   -1.1378 H   0  0  0  0  0  0  0  0  0  0  0  0
    1.2343   -3.0997    0.7347 H   0  0  0  0  0  0  0  0  0  0  0  0
    1.3029   -2.8936    2.4776 H   0  0  0  0  0  0  0  0  0  0  0  0
    0.7205   -1.5688    1.4640 H   0  0  0  0  0  0  0  0  0  0  0  0
  1  7  2  0  0  0  0
  2  9  2  0  0  0  0
  3  7  1  0  0  0  0
  3  9  1  0  0  0  0
  3 11  1  0  0  0  0
  4  5  1  0  0  0  0
  4  6  1  0  0  0  0
  4  7  1  0  0  0  0
  4  8  1  0  0  0  0
  5  9  1  0  0  0  0
  5 12  1  0  0  0  0
  5 13  1  0  0  0  0
  6 10  1  0  0  0  0
  6 14  1  0  0  0  0
  6 15  1  0  0  0  0
  8 16  1  0  0  0  0
  8 17  1  0  0  0  0
  8 18  1  0  0  0  0
 10 19  1  0  0  0  0
 10 20  1  0  0  0  0
 10 21  1  0  0  0  0
M  END
>  <DRUGBANK_ID>
DB00593

>  <SECONDARY_ACCESSION_NUMBERS>
APRD00318

>  <COMMON_NAME>
Ethosuximide

>  <CAS_NUMBER>
77-67-8

>  <UNII>
5SEH9X1D1D

>  <SYNONYMS>
(±)-2-ethyl-2-methylsuccinimide; 2-ethyl-2-methylsuccinimide; 2-methyl-2-ethylsuccinimide; 3-ethyl-3-methyl-2,5-pyrrolidinedione; 3-ethyl-3-methylsuccinimide; 3-methyl-3-ethylpyrrolidine-2,5-dione; 3-methyl-3-ethylsuccinimide; Aethosuximide; Atysmal; Ethosuximid; éthosuximide; Ethosuximide; Ethosuximidum; Etosuximida; Thilopemal; α-ethyl-α-methylsuccinimide; α-methyl-α-ethylsuccinimide; γ-ethyl-γ-methyl-succinimide; γ-methyl-γ-ethyl-succinimide

$$$$
