295
 OpenBabel10282417103D

 40 44  0  0  1  0  0  0  0  0999 V2000
   -6.2991    8.0238    3.3368 O   0  0  0  0  0  0  0  0  0  0  0  0
   -3.0051    9.8185    3.6705 O   0  0  0  0  0  0  0  0  0  0  0  0
   -6.9555    5.3739    1.9921 O   0  0  0  0  0  0  0  0  0  0  0  0
   -6.0828    8.9028    8.8284 N   0  0  0  0  0  0  0  0  0  0  0  0
   -6.3481    8.0866    5.9280 C   0  0  1  0  0  0  0  0  0  0  0  0
   -5.8915    9.6271    6.3058 C   0  0  2  0  0  0  0  0  0  0  0  0
   -5.2561    9.2149    7.5549 C   0  0  1  0  0  0  0  0  0  0  0  0
   -5.7944    8.7397    4.4713 C   0  0  2  0  0  0  0  0  0  0  0  0
   -6.1474    7.0589    7.4734 C   0  0  0  0  0  0  0  0  0  0  0  0
   -5.8022    6.8760    5.1758 C   0  0  0  0  0  0  0  0  0  0  0  0
   -4.0430    7.9646    6.5920 C   0  0  0  0  0  0  0  0  0  0  0  0
   -6.8569    7.6916    8.6652 C   0  0  0  0  0  0  0  0  0  0  0  0
   -4.4358    6.7881    5.2719 C   0  0  0  0  0  0  0  0  0  0  0  0
   -4.2032    9.7517    4.4417 C   0  0  2  0  0  0  0  0  0  0  0  0
   -4.8916   10.8767    6.1665 C   0  0  0  0  0  0  0  0  0  0  0  0
   -6.4627    6.6557    3.9293 C   0  0  0  0  0  0  0  0  0  0  0  0
   -4.5063   11.1131    4.9613 C   0  0  0  0  0  0  0  0  0  0  0  0
   -6.8657    9.9712    9.5712 C   0  0  0  0  0  0  0  0  0  0  0  0
   -3.8536    6.3607    3.9311 C   0  0  0  0  0  0  0  0  0  0  0  0
   -6.0485    5.8377    2.8939 C   0  0  0  0  0  0  0  0  0  0  0  0
   -4.6781    5.8054    2.7928 C   0  0  0  0  0  0  0  0  0  0  0  0
   -6.8017   10.2599    6.0495 H   0  0  0  0  0  0  0  0  0  0  0  0
   -6.2353    9.7436    7.5400 H   0  0  0  0  0  0  0  0  0  0  0  0
   -6.6601    9.4155    4.4168 H   0  0  0  0  0  0  0  0  0  0  0  0
   -2.3159   10.2468    4.2666 H   0  0  0  0  0  0  0  0  0  0  0  0
   -6.9215    5.8791    1.1604 H   0  0  0  0  0  0  0  0  0  0  0  0
   -6.3589    5.9868    7.3822 H   0  0  0  0  0  0  0  0  0  0  0  0
   -5.1222    6.9726    7.9177 H   0  0  0  0  0  0  0  0  0  0  0  0
   -3.2798    8.2389    5.8730 H   0  0  0  0  0  0  0  0  0  0  0  0
   -3.1745    7.9262    7.2562 H   0  0  0  0  0  0  0  0  0  0  0  0
   -7.9467    7.6531    8.5214 H   0  0  0  0  0  0  0  0  0  0  0  0
   -6.6895    7.2626    9.6606 H   0  0  0  0  0  0  0  0  0  0  0  0
   -3.6088    9.5752    5.3231 H   0  0  0  0  0  0  0  0  0  0  0  0
   -4.0485   10.7899    6.9300 H   0  0  0  0  0  0  0  0  0  0  0  0
   -5.1467   11.5144    4.1484 H   0  0  0  0  0  0  0  0  0  0  0  0
   -7.4732    9.4958   10.3575 H   0  0  0  0  0  0  0  0  0  0  0  0
   -6.1742   10.6251   10.1105 H   0  0  0  0  0  0  0  0  0  0  0  0
   -7.6000   10.6318    9.0549 H   0  0  0  0  0  0  0  0  0  0  0  0
   -2.8148    6.5051    3.6008 H   0  0  0  0  0  0  0  0  0  0  0  0
   -4.2660    5.4374    1.8425 H   0  0  0  0  0  0  0  0  0  0  0  0
  1  8  1  0  0  0  0
  1 16  1  0  0  0  0
  2 25  1  0  0  0  0
  3 26  1  0  0  0  0
  3 20  1  0  0  0  0
  4  7  1  0  0  0  0
  4 12  1  0  0  0  0
  4 18  1  0  0  0  0
  5  6  1  0  0  0  0
  5  8  1  0  0  0  0
  5  9  1  0  0  0  0
  5 10  1  6  0  0  0
  6  7  1  0  0  0  0
  6 15  1  0  0  0  0
  6 22  1  6  0  0  0
  7 11  1  0  0  0  0
  7 23  1  6  0  0  0
  8 14  1  0  0  0  0
  8 24  1  1  0  0  0
  9 12  1  0  0  0  0
  9 27  1  0  0  0  0
  9 28  1  0  0  0  0
 10 13  2  0  0  0  0
 10 16  1  0  0  0  0
 11 13  1  0  0  0  0
 11 29  1  0  0  0  0
 11 30  1  0  0  0  0
 12 31  1  0  0  0  0
 12 32  1  0  0  0  0
 13 19  1  0  0  0  0
 14 17  1  0  0  0  0
 14  2  1  0  0  0  0
 14 33  1  1  0  0  0
 15 17  2  0  0  0  0
 15 34  1  0  0  0  0
 16 20  2  0  0  0  0
 17 35  1  0  0  0  0
 18 36  1  0  0  0  0
 18 37  1  0  0  0  0
 18 38  1  0  0  0  0
 19 21  2  0  0  0  0
 19 39  1  0  0  0  0
 20 21  1  0  0  0  0
 21 40  1  0  0  0  0
M  END
>  <DRUGBANK_ID>
DB00295

>  <SECONDARY_ACCESSION_NUMBERS>
APRD00215; DB05354

>  <COMMON_NAME>
Morphine

>  <CAS_NUMBER>
57-27-2

>  <UNII>
76I7G6D29C

>  <SYNONYMS>
(−)-morphine; (5alpha,6alpha)-17-methyl-7,8-didehydro-4,5-epoxymorphinan-3,6-diol; (5alpha,6alpha)-didehydro-4,5-epoxy-17-methylmorphinan-3,6-diol; (5R,6S,9R,13S,14R)-4,5-epoxy-N-methyl-7-morphinen-3,6-diol; (5α,6α)-17-methyl-7,8-didehydro-4,5-epoxymorphinan-3,6-diol; (5α,6α)-didehydro-4,5-epoxy-17-methylmorphinan-3,6-diol; (7R,7AS,12bs)-3-methyl-2,3,4,4a,7,7a-hexahydro-1H-4,12-methano[1]benzofuro[3,2-e]isoquinoline-7,9-diol; Anhydrous morphine; Morfina; Morphia; Morphin; Morphine; Morphinum; Morphium

$$$$
