
 OpenBabel10282417203D

 23 20  0  0  0  0  0  0  0  0999 V2000
    2.0718    0.3197   -0.6230 C   0  0  0  0  0  0  0  0  0  0  0  0
    1.5300   -1.5750   -0.5045 C   0  0  3  0  0  0  0  0  0  0  0  0
    1.8138   -3.0686   -0.0327 C   0  0  0  0  0  0  0  0  0  0  0  0
   -0.2339   -1.8695   -0.4685 O   0  0  0  0  0  0  0  0  0  0  0  0
    0.6932   -3.7176    0.2235 O   0  0  0  0  0  0  0  0  0  0  0  0
    2.9473   -3.3433    0.2399 O   0  5  0  0  0  0  0  0  0  0  0  0
    0.3617   -0.2474    0.6253 C   0  0  0  0  0  0  0  0  0  0  0  0
    0.0183   -0.2282   -1.3244 C   0  0  3  0  0  0  0  0  0  0  0  0
    0.3537   -1.6594   -2.6833 C   0  0  0  0  0  0  0  0  0  0  0  0
   -1.4281   -0.0564   -1.4743 O   0  0  0  0  0  0  0  0  0  0  0  0
   -0.5928   -2.3992   -2.8533 O   0  0  0  0  0  0  0  0  0  0  0  0
    1.5411   -1.6421   -3.2467 O   0  5  0  0  0  0  0  0  0  0  0  0
   -1.7766    1.0265    0.2570 Ca  0  2  0  0  0  0  0  0  0  0  0  0
    1.4223    1.1146   -0.1100 H   0  0  0  0  0  0  0  0  0  0  0  0
    1.9049    1.0370   -1.4789 H   0  0  0  0  0  0  0  0  0  0  0  0
    3.0972    0.4634   -0.3368 H   0  0  0  0  0  0  0  0  0  0  0  0
    2.0223   -1.6214   -1.4528 H   0  0  0  0  0  0  0  0  0  0  0  0
   -0.4074   -2.6319    0.1880 H   0  0  0  0  0  0  0  0  0  0  0  0
   -0.0193   -1.0865    1.2913 H   0  0  0  0  0  0  0  0  0  0  0  0
    0.5145    0.6594    1.2818 H   0  0  0  0  0  0  0  0  0  0  0  0
    1.4506   -0.5686    1.0267 H   0  0  0  0  0  0  0  0  0  0  0  0
    0.4249    0.5502   -2.0311 H   0  0  0  0  0  0  0  0  0  0  0  0
   -1.5940   -1.0292   -1.7021 H   0  0  0  0  0  0  0  0  0  0  0  0
  1 14  1  0  0  0  0
  1 15  1  0  0  0  0
  1 16  1  0  0  0  0
  2  1  1  0  0  0  0
  2 17  1  0  0  0  0
  3  2  1  0  0  0  0
  4  2  1  0  0  0  0
  4 18  1  0  0  0  0
  5  3  2  0  0  0  0
  6  3  1  0  0  0  0
  7 19  1  0  0  0  0
  7 20  1  0  0  0  0
  7 21  1  0  0  0  0
  8  7  1  0  0  0  0
  8 22  1  0  0  0  0
  9  8  1  0  0  0  0
 10  8  1  0  0  0  0
 10 23  1  0  0  0  0
 11  9  2  0  0  0  0
 12  9  1  0  0  0  0
M  CHG  3   6  -1  12  -1  13   2
M  END
>  <DRUGBANK_ID>
DB13231

>  <COMMON_NAME>
Calcium lactate

>  <CAS_NUMBER>
814-80-2

>  <UNII>
2URQ2N32W3

>  <SYNONYMS>
2-Hydroxypropanoic acid calcium salt; Calcio lactato; Calcium 2-hydroxypropanoate (1:2); Calcium dilactate; Calcium lactate; Hemicalcium L-lactate

$$$$
