
 OpenBabel10282417133D

 41 41  0  0  0  0  0  0  0  0999 V2000
    1.1004   -0.2663   -0.5612 Br  0  0  0  0  0  0  0  0  0  0  0  0
    0.8274    2.8500    1.0775 Br  0  0  0  0  0  0  0  0  0  0  0  0
    3.0898   -3.0809    6.1120 O   0  0  0  0  0  0  0  0  0  0  0  0
    6.5714    2.6197    3.3119 O   0  5  0  0  0  0  0  0  0  0  0  0
    4.6814    2.7467    2.2567 O   0  0  0  0  0  0  0  0  0  0  0  0
    7.1139   -2.4652    5.8650 O   0  5  0  0  0  0  0  0  0  0  0  0
    7.7345   -0.4615    6.5286 O   0  0  0  0  0  0  0  0  0  0  0  0
    6.4037   -0.8500   10.4371 O   0  0  0  0  0  0  0  0  0  0  0  0
    3.9088    0.3666    8.4077 O   0  0  0  0  0  0  0  0  0  0  0  0
    2.9897    0.3086    2.3660 N   0  0  0  0  0  0  0  0  0  0  0  0
    5.4426    2.1796    3.0399 N   0  3  0  0  0  0  0  0  0  0  0  0
    6.9639   -1.2420    5.9477 N   0  3  0  0  0  0  0  0  0  0  0  0
    4.6042   -2.5238    7.6627 N   0  0  0  0  0  0  0  0  0  0  0  0
    3.9088    0.1119    3.4054 C   0  0  0  0  0  0  0  0  0  0  0  0
    3.4271    0.7490    1.0298 C   0  0  0  0  0  0  0  0  0  0  0  0
    1.5488    0.3863    2.6992 C   0  0  0  0  0  0  0  0  0  0  0  0
    5.0291    0.9258    3.7177 C   0  0  0  0  0  0  0  0  0  0  0  0
    3.7087   -1.0426    4.2549 C   0  0  0  0  0  0  0  0  0  0  0  0
    4.5549   -1.3877    5.3418 C   0  0  0  0  0  0  0  0  0  0  0  0
    5.7408   -0.6743    5.3985 C   0  0  0  0  0  0  0  0  0  0  0  0
    5.9114    0.5340    4.7318 C   0  0  0  0  0  0  0  0  0  0  0  0
    2.9834   -0.0968   -0.1484 C   0  0  0  0  0  0  0  0  0  0  0  0
    0.9000    1.7750    2.6930 C   0  0  0  0  0  0  0  0  0  0  0  0
    4.0733   -2.3886    6.3814 C   0  0  0  0  0  0  0  0  0  0  0  0
    5.6586   -1.7850    8.3404 C   0  0  0  0  0  0  0  0  0  0  0  0
    5.5373   -0.9283    9.5601 C   0  0  0  0  0  0  0  0  0  0  0  0
    4.5281    0.1808    9.4546 C   0  0  0  0  0  0  0  0  0  0  0  0
    4.2039   -3.3050    8.1749 H   0  0  0  0  0  0  0  0  0  0  0  0
    4.5223    0.6944    0.9812 H   0  0  0  0  0  0  0  0  0  0  0  0
    3.1826    1.7947    0.8625 H   0  0  0  0  0  0  0  0  0  0  0  0
    1.0004   -0.3307    2.0882 H   0  0  0  0  0  0  0  0  0  0  0  0
    1.3862    0.0037    3.7163 H   0  0  0  0  0  0  0  0  0  0  0  0
    2.8882   -1.7293    4.0178 H   0  0  0  0  0  0  0  0  0  0  0  0
    6.7760    1.1464    4.9897 H   0  0  0  0  0  0  0  0  0  0  0  0
    3.3543   -1.1125   -0.0288 H   0  0  0  0  0  0  0  0  0  0  0  0
    3.3978    0.3557   -1.0532 H   0  0  0  0  0  0  0  0  0  0  0  0
   -0.1621    1.6553    2.9221 H   0  0  0  0  0  0  0  0  0  0  0  0
    1.3656    2.4230    3.4353 H   0  0  0  0  0  0  0  0  0  0  0  0
    6.5688   -2.3924    8.3765 H   0  0  0  0  0  0  0  0  0  0  0  0
    5.8088   -0.9438    7.6951 H   0  0  0  0  0  0  0  0  0  0  0  0
    4.4710    0.8379   10.3255 H   0  0  0  0  0  0  0  0  0  0  0  0
  1 22  1  0  0  0  0
  2 23  1  0  0  0  0
  3 24  2  0  0  0  0
  4 11  1  0  0  0  0
  5 11  2  0  0  0  0
  6 12  1  0  0  0  0
  7 12  2  0  0  0  0
  8 26  2  0  0  0  0
  9 27  2  0  0  0  0
 10 14  1  0  0  0  0
 10 15  1  0  0  0  0
 10 16  1  0  0  0  0
 11 17  1  0  0  0  0
 12 20  1  0  0  0  0
 13 24  1  0  0  0  0
 13 25  1  0  0  0  0
 13 28  1  0  0  0  0
 14 17  2  0  0  0  0
 14 18  1  0  0  0  0
 15 22  1  0  0  0  0
 15 29  1  0  0  0  0
 15 30  1  0  0  0  0
 16 23  1  0  0  0  0
 16 31  1  0  0  0  0
 16 32  1  0  0  0  0
 17 21  1  0  0  0  0
 18 19  2  0  0  0  0
 18 33  1  0  0  0  0
 19 20  1  0  0  0  0
 19 24  1  0  0  0  0
 20 21  2  0  0  0  0
 21 34  1  0  0  0  0
 22 35  1  0  0  0  0
 22 36  1  0  0  0  0
 23 37  1  0  0  0  0
 23 38  1  0  0  0  0
 25 26  1  0  0  0  0
 25 39  1  0  0  0  0
 25 40  1  0  0  0  0
 26 27  1  0  0  0  0
 27 41  1  0  0  0  0
M  CHG  4   4  -1   6  -1  11   1  12   1
M  END
>  <DRUGBANK_ID>
DB04138

>  <SECONDARY_ACCESSION_NUMBERS>
EXPT00668

>  <COMMON_NAME>
5-[Bis(2-bromoethyl)amino]-N-(2,3-dioxopropyl)-2,4-dinitrobenzamide

>  <SYNONYMS>
2,4-Dinitro,5-[bis(2-bromoethyl)amino]-N-(2',3'-dioxopropyl)benzamide

$$$$
