
 OpenBabel10282417193D

 54 55  0  0  1  0  0  0  0  0999 V2000
    0.3990    0.5209   -0.2748 C   0  0  0  0  0  0  0  0  0  0  0  0
   -0.1654    0.3126    1.1511 C   0  0  0  0  0  0  0  0  0  0  0  0
   -0.0158    1.5680    1.9431 C   0  0  0  0  0  0  0  0  0  0  0  0
   -1.6236   -0.0477    1.1037 C   0  0  0  0  0  0  0  0  0  0  0  0
    0.4022   -0.7742    1.8720 O   0  0  0  0  0  0  0  0  0  0  0  0
    0.3258   -0.8092    3.2635 C   0  0  0  0  0  0  0  0  0  0  0  0
    1.3147   -0.4764    4.3046 C   0  0  2  0  0  0  0  0  0  0  0  0
    0.3192   -0.5495    5.5579 C   0  0  0  0  0  0  0  0  0  0  0  0
   -0.0374   -1.5457    6.0948 O   0  0  0  0  0  0  0  0  0  0  0  0
   -0.3230    0.6361    5.8059 N   0  0  0  0  0  0  0  0  0  0  0  0
    0.0472    1.7964    5.0497 C   0  0  0  0  0  0  0  0  0  0  0  0
    1.6114    1.7650    4.3934 C   0  0  0  0  0  0  0  0  0  0  0  0
    2.0146    0.5216    3.6015 N   0  0  0  0  0  0  0  0  0  0  0  0
    2.5675    0.3201    2.1255 C   0  0  0  0  0  0  0  0  0  0  0  0
    3.0378    1.3252    1.5533 O   0  0  0  0  0  0  0  0  0  0  0  0
    2.4197   -1.1232    1.0088 C   0  0  0  0  0  0  0  0  0  0  0  0
    2.9603   -2.4156    1.5211 C   0  0  1  0  0  0  0  0  0  0  0  0
    2.2902   -2.9495    2.8410 C   0  0  0  0  0  0  0  0  0  0  0  0
    0.7259   -3.6166    2.9832 C   0  0  0  0  0  0  0  0  0  0  0  0
   -0.6104   -3.0712    3.4242 C   0  0  0  0  0  0  0  0  0  0  0  0
   -1.8851   -3.4999    3.2046 C   0  0  0  0  0  0  0  0  0  0  0  0
   -1.9058   -4.8300    3.0813 C   0  0  0  0  0  0  0  0  0  0  0  0
   -0.6727   -5.5455    2.9879 C   0  0  0  0  0  0  0  0  0  0  0  0
    0.6099   -4.9506    2.8489 C   0  0  0  0  0  0  0  0  0  0  0  0
    1.7327   -5.6724    2.8089 F   0  0  0  0  0  0  0  0  0  0  0  0
   -3.0749   -5.4502    3.2514 F   0  0  0  0  0  0  0  0  0  0  0  0
   -2.9373   -2.6945    3.4559 F   0  0  0  0  0  0  0  0  0  0  0  0
    2.8468   -3.4613    0.5117 N   0  0  0  0  0  0  0  0  0  0  0  0
    0.0154    1.4527   -0.6880 H   0  0  0  0  0  0  0  0  0  0  0  0
    0.1467   -0.3167   -0.9355 H   0  0  0  0  0  0  0  0  0  0  0  0
    1.4869    0.6303   -0.3595 H   0  0  0  0  0  0  0  0  0  0  0  0
   -0.5587    2.4446    1.6484 H   0  0  0  0  0  0  0  0  0  0  0  0
   -0.3953    1.2489    2.8857 H   0  0  0  0  0  0  0  0  0  0  0  0
    0.9943    1.9119    2.0810 H   0  0  0  0  0  0  0  0  0  0  0  0
   -1.7669   -0.9624    0.5246 H   0  0  0  0  0  0  0  0  0  0  0  0
   -2.0151   -0.2584    2.1046 H   0  0  0  0  0  0  0  0  0  0  0  0
   -2.1615    0.8029    0.7060 H   0  0  0  0  0  0  0  0  0  0  0  0
   -0.7170   -0.7111    3.4928 H   0  0  0  0  0  0  0  0  0  0  0  0
    0.7130   -1.7376    3.5075 H   0  0  0  0  0  0  0  0  0  0  0  0
    2.0904   -1.1031    4.7729 H   0  0  0  0  0  0  0  0  0  0  0  0
   -1.1375    0.5568    6.4162 H   0  0  0  0  0  0  0  0  0  0  0  0
   -0.0584    2.6262    5.7418 H   0  0  0  0  0  0  0  0  0  0  0  0
   -0.7916    1.9407    4.3614 H   0  0  0  0  0  0  0  0  0  0  0  0
    2.2327    1.7010    5.2943 H   0  0  0  0  0  0  0  0  0  0  0  0
    1.7884    2.6801    3.8462 H   0  0  0  0  0  0  0  0  0  0  0  0
    1.4677   -1.4573    0.5246 H   0  0  0  0  0  0  0  0  0  0  0  0
    2.8736   -0.8585    0.0207 H   0  0  0  0  0  0  0  0  0  0  0  0
    4.0110   -2.1149    1.6438 H   0  0  0  0  0  0  0  0  0  0  0  0
    2.9944   -3.6510    3.2942 H   0  0  0  0  0  0  0  0  0  0  0  0
    2.5250   -2.1033    3.4605 H   0  0  0  0  0  0  0  0  0  0  0  0
   -0.7983   -2.3217    4.2003 H   0  0  0  0  0  0  0  0  0  0  0  0
   -0.7109   -6.6096    3.1160 H   0  0  0  0  0  0  0  0  0  0  0  0
    3.3137   -4.2831    0.8881 H   0  0  0  0  0  0  0  0  0  0  0  0
    1.8549   -3.7086    0.4581 H   0  0  0  0  0  0  0  0  0  0  0  0
  1  2  1  0  0  0  0
  1 29  1  0  0  0  0
  1 30  1  0  0  0  0
  1 31  1  0  0  0  0
  2  3  1  0  0  0  0
  2  4  1  0  0  0  0
  2  5  1  0  0  0  0
  3 32  1  0  0  0  0
  3 33  1  0  0  0  0
  3 34  1  0  0  0  0
  4 35  1  0  0  0  0
  4 36  1  0  0  0  0
  4 37  1  0  0  0  0
  5  6  1  0  0  0  0
  6 38  1  0  0  0  0
  6 39  1  0  0  0  0
  7  6  1  0  0  0  0
  7  8  1  0  0  0  0
  7 13  1  0  0  0  0
  7 40  1  1  0  0  0
  8  9  2  0  0  0  0
  8 10  1  0  0  0  0
 10 11  1  0  0  0  0
 10 41  1  0  0  0  0
 11 12  1  0  0  0  0
 11 42  1  0  0  0  0
 11 43  1  0  0  0  0
 12 13  1  0  0  0  0
 12 44  1  0  0  0  0
 12 45  1  0  0  0  0
 13 14  1  0  0  0  0
 14 15  2  0  0  0  0
 14 16  1  0  0  0  0
 16 17  1  0  0  0  0
 16 46  1  0  0  0  0
 16 47  1  0  0  0  0
 17 18  1  0  0  0  0
 17 28  1  0  0  0  0
 17 48  1  1  0  0  0
 18 19  1  0  0  0  0
 18 49  1  0  0  0  0
 18 50  1  0  0  0  0
 19 20  2  0  0  0  0
 19 24  1  0  0  0  0
 20 21  1  0  0  0  0
 20 51  1  0  0  0  0
 21 22  2  0  0  0  0
 21 27  1  0  0  0  0
 22 23  1  0  0  0  0
 22 26  1  0  0  0  0
 23 24  2  0  0  0  0
 23 52  1  0  0  0  0
 24 25  1  0  0  0  0
 28 53  1  0  0  0  0
 28 54  1  0  0  0  0
M  END
>  <DRUGBANK_ID>
DB12625

>  <COMMON_NAME>
Evogliptin

>  <CAS_NUMBER>
1222102-29-5

>  <UNII>
09118300L7

>  <SYNONYMS>
Evogliptin

$$$$
