
 OpenBabel10282417123D

 23 23  0  0  1  0  0  0  0  0999 V2000
    1.7754    0.0036   -0.7375 C   0  0  0  0  0  0  0  0  0  0  0  0
   -0.0249   -1.1895    0.5802 C   0  0  0  0  0  0  0  0  0  0  0  0
    0.8991    0.0232    0.5244 C   0  0  2  0  0  0  0  0  0  0  0  0
   -1.1042   -0.8027   -0.4214 C   0  0  2  0  0  0  0  0  0  0  0  0
   -0.1134    1.1702    0.4634 C   0  0  2  0  0  0  0  0  0  0  0  0
   -0.5060    1.6930    1.8525 C   0  0  0  0  0  0  0  0  0  0  0  0
   -1.3012    0.6325   -0.2554 N   0  0  0  0  0  0  0  0  0  0  0  0
   -2.3842   -1.4573   -0.2755 N   0  0  0  0  0  0  0  0  0  0  0  0
   -0.3387    2.8420    2.2470 O   0  0  0  0  0  0  0  0  0  0  0  0
   -1.0591    0.7783    2.6745 O   0  0  0  0  0  0  0  0  0  0  0  0
   -2.1133   -2.8885   -0.2931 O   0  0  0  0  0  0  0  0  0  0  0  0
    1.5431    0.0633    1.4093 H   0  0  0  0  0  0  0  0  0  0  0  0
   -0.7440   -1.0039   -1.4377 H   0  0  0  0  0  0  0  0  0  0  0  0
    0.2963    2.0300   -0.0809 H   0  0  0  0  0  0  0  0  0  0  0  0
    2.3807   -0.9068   -0.7808 H   0  0  0  0  0  0  0  0  0  0  0  0
    1.1852    0.0534   -1.6599 H   0  0  0  0  0  0  0  0  0  0  0  0
    2.4485    0.8665   -0.7478 H   0  0  0  0  0  0  0  0  0  0  0  0
    0.4762   -2.1289    0.3293 H   0  0  0  0  0  0  0  0  0  0  0  0
   -0.4435   -1.3058    1.5877 H   0  0  0  0  0  0  0  0  0  0  0  0
   -1.3373    1.0447   -1.1866 H   0  0  0  0  0  0  0  0  0  0  0  0
   -2.7165   -1.3004    0.6790 H   0  0  0  0  0  0  0  0  0  0  0  0
   -1.2756    1.2707    3.4925 H   0  0  0  0  0  0  0  0  0  0  0  0
   -1.9950   -3.0672   -1.2470 H   0  0  0  0  0  0  0  0  0  0  0  0
  1 15  1  0  0  0  0
  1 16  1  0  0  0  0
  1 17  1  0  0  0  0
  2 18  1  0  0  0  0
  2 19  1  0  0  0  0
  3  1  1  0  0  0  0
  3  2  1  0  0  0  0
  3 12  1  1  0  0  0
  4  2  1  0  0  0  0
  4  8  1  0  0  0  0
  4 13  1  6  0  0  0
  5  3  1  0  0  0  0
  5  6  1  0  0  0  0
  5 14  1  6  0  0  0
  7  4  1  0  0  0  0
  7  5  1  0  0  0  0
  7 20  1  0  0  0  0
  8 21  1  0  0  0  0
  9  6  2  0  0  0  0
 10  6  1  0  0  0  0
 10 22  1  0  0  0  0
 11  8  1  0  0  0  0
 11 23  1  0  0  0  0
M  END
>  <DRUGBANK_ID>
DB02298

>  <SECONDARY_ACCESSION_NUMBERS>
EXPT00683

>  <COMMON_NAME>
5-Hydroxyamino-3-Methyl-Pyrrolidine-2-Carboxylic Acid

$$$$
