
 OpenBabel10282417163D

 53 58  0  0  1  0  0  0  0  0999 V2000
   -1.0911    1.0731    1.0895 C   0  0  0  0  0  0  0  0  0  0  0  0
   -1.3951    1.2743    2.4814 O   0  0  0  0  0  0  0  0  0  0  0  0
   -0.6990    0.1898    3.4018 C   0  0  2  0  0  0  0  0  0  0  0  0
   -0.1850   -0.5424    2.2374 C   0  0  2  0  0  0  0  0  0  0  0  0
    0.2577    0.5683    1.2350 C   0  0  2  0  0  0  0  0  0  0  0  0
    1.8047   -1.7192    3.9186 C   0  0  2  0  0  0  0  0  0  0  0  0
    0.9984   -1.4422    2.6601 C   0  0  1  0  0  0  0  0  0  0  0  0
    3.5036   -2.3490    3.2036 C   0  0  2  0  0  0  0  0  0  0  0  0
    3.3921   -0.9814    2.4947 C   0  0  2  0  0  0  0  0  0  0  0  0
    2.0822   -0.8726    1.9152 O   0  0  0  0  0  0  0  0  0  0  0  0
    4.4642   -0.6504    1.6243 O   0  0  0  0  0  0  0  0  0  0  0  0
    5.4100   -1.5789    1.9397 C   0  0  0  0  0  0  0  0  0  0  0  0
    4.6595   -2.8255    1.8509 C   0  0  2  0  0  0  0  0  0  0  0  0
   -1.7014    1.2115    0.0415 O   0  0  0  0  0  0  0  0  0  0  0  0
    0.8323   -0.1314    4.3569 C   0  0  0  0  0  0  0  0  0  0  0  0
    1.3652   -3.0720    4.7424 C   0  0  1  0  0  0  0  0  0  0  0  0
    3.1385   -4.0843    3.1063 C   0  0  1  0  0  0  0  0  0  0  0  0
    2.6224   -4.1062    4.5513 C   0  0  0  0  0  0  0  0  0  0  0  0
    6.4994   -1.3962    2.4249 O   0  0  0  0  0  0  0  0  0  0  0  0
   -1.3820   -1.1822    1.6674 O   0  0  0  0  0  0  0  0  0  0  0  0
    0.9794    1.8231    1.7830 C   0  0  0  0  0  0  0  0  0  0  0  0
    0.0262   -2.6234    3.0502 C   0  0  0  0  0  0  0  0  0  0  0  0
    0.0026   -2.8821    4.3714 O   0  0  0  0  0  0  0  0  0  0  0  0
   -0.7110   -3.2517    2.2577 O   0  0  0  0  0  0  0  0  0  0  0  0
    4.5970   -2.8281    0.3629 O   0  0  0  0  0  0  0  0  0  0  0  0
    2.3462   -4.6036    1.7315 C   0  0  0  0  0  0  0  0  0  0  0  0
    3.0549   -5.2251    0.5239 C   0  0  0  0  0  0  0  0  0  0  0  0
    1.0077   -5.3049    1.8915 C   0  0  0  0  0  0  0  0  0  0  0  0
    1.9844   -3.3018    1.1711 C   0  0  0  0  0  0  0  0  0  0  0  0
   -1.5833   -0.1286    3.9717 H   0  0  0  0  0  0  0  0  0  0  0  0
    0.6735    0.2296    0.2802 H   0  0  0  0  0  0  0  0  0  0  0  0
    3.5160   -0.2090    3.2634 H   0  0  0  0  0  0  0  0  0  0  0  0
    5.2956   -3.7070    2.0525 H   0  0  0  0  0  0  0  0  0  0  0  0
    0.4486   -0.2306    5.3894 H   0  0  0  0  0  0  0  0  0  0  0  0
    1.4124    0.7924    4.3285 H   0  0  0  0  0  0  0  0  0  0  0  0
    0.9953   -4.0821    4.4738 H   0  0  0  0  0  0  0  0  0  0  0  0
    4.0024   -4.7912    3.1485 H   0  0  0  0  0  0  0  0  0  0  0  0
    2.5559   -5.1518    4.9450 H   0  0  0  0  0  0  0  0  0  0  0  0
    3.4294   -3.7302    5.2054 H   0  0  0  0  0  0  0  0  0  0  0  0
   -1.8076   -1.8292    2.2779 H   0  0  0  0  0  0  0  0  0  0  0  0
    0.7094    2.0600    2.8211 H   0  0  0  0  0  0  0  0  0  0  0  0
    2.0558    1.7136    1.7522 H   0  0  0  0  0  0  0  0  0  0  0  0
    0.6645    2.7225    1.2362 H   0  0  0  0  0  0  0  0  0  0  0  0
    3.7483   -2.7637   -0.1124 H   0  0  0  0  0  0  0  0  0  0  0  0
    2.9360   -6.3043    0.4812 H   0  0  0  0  0  0  0  0  0  0  0  0
    2.5791   -4.8239   -0.3927 H   0  0  0  0  0  0  0  0  0  0  0  0
    4.1165   -5.0131    0.4355 H   0  0  0  0  0  0  0  0  0  0  0  0
    0.4897   -5.0255    2.7997 H   0  0  0  0  0  0  0  0  0  0  0  0
    0.3733   -4.9970    1.0417 H   0  0  0  0  0  0  0  0  0  0  0  0
    1.0750   -6.3835    1.8947 H   0  0  0  0  0  0  0  0  0  0  0  0
    1.6494   -3.0526    2.1067 H   0  0  0  0  0  0  0  0  0  0  0  0
    2.7609   -2.6152    1.0871 H   0  0  0  0  0  0  0  0  0  0  0  0
    1.2833   -2.9675    0.4282 H   0  0  0  0  0  0  0  0  0  0  0  0
  1  2  1  0  0  0  0
  1 14  2  0  0  0  0
  3  2  1  0  0  0  0
  3  4  1  0  0  0  0
  3 15  1  0  0  0  0
  3 30  1  6  0  0  0
  4  5  1  0  0  0  0
  4 20  1  1  0  0  0
  5  1  1  0  0  0  0
  5 21  1  0  0  0  0
  5 31  1  6  0  0  0
  6  7  1  0  0  0  0
  6  8  1  0  0  0  0
  6 15  1  6  0  0  0
  6 16  1  0  0  0  0
  7  4  1  0  0  0  0
  7 10  1  1  0  0  0
  7 22  1  0  0  0  0
  8  9  1  0  0  0  0
  8 17  1  0  0  0  0
  9 10  1  0  0  0  0
  9 11  1  0  0  0  0
  9 32  1  0  0  0  0
 11 12  1  0  0  0  0
 12 13  1  0  0  0  0
 12 19  2  0  0  0  0
 13  8  1  0  0  0  0
 13 33  1  0  0  0  0
 13 25  1  0  0  0  0
 15 34  1  0  0  0  0
 15 35  1  0  0  0  0
 16 18  1  0  0  0  0
 16 36  1  0  0  0  0
 17 18  1  0  0  0  0
 17 37  1  0  0  0  0
 17 26  1  0  0  0  0
 18 38  1  0  0  0  0
 18 39  1  0  0  0  0
 20 40  1  0  0  0  0
 21 41  1  0  0  0  0
 21 42  1  0  0  0  0
 21 43  1  0  0  0  0
 22 23  1  0  0  0  0
 22 24  2  0  0  0  0
 23 16  1  0  0  0  0
 25 44  1  0  0  0  0
 26 27  1  0  0  0  0
 26 28  1  0  0  0  0
 26 29  1  0  0  0  0
 27 45  1  0  0  0  0
 27 46  1  0  0  0  0
 27 47  1  0  0  0  0
 28 48  1  0  0  0  0
 28 49  1  0  0  0  0
 28 50  1  0  0  0  0
 29 51  1  0  0  0  0
 29 52  1  0  0  0  0
 29 53  1  0  0  0  0
M  END
>  <DRUGBANK_ID>
DB06743

>  <COMMON_NAME>
Ginkgolide A

>  <CAS_NUMBER>
15291-75-5

>  <UNII>
TAZ2DPR77B

>  <SYNONYMS>
Ginkgolide-A

$$$$
