1050
 OpenBabel10282417113D

 33 33  0  0  1  0  0  0  0  0999 V2000
    0.8750    0.0329    0.0335 O   0  0  0  0  0  0  0  0  0  0  0  0
    0.9701   -1.9227   -1.0432 O   0  0  0  0  0  0  0  0  0  0  0  0
   -4.8593   -1.7380    4.9165 C   0  0  0  0  0  0  0  0  0  0  0  0
   -3.4663   -1.0876    4.8329 C   0  0  0  0  0  0  0  0  0  0  0  0
   -2.8727   -1.0603    3.4505 C   0  0  0  0  0  0  0  0  0  0  0  0
   -1.7594   -0.9911    0.8770 C   0  0  0  0  0  0  0  0  0  0  0  0
   -1.2221   -0.9823   -0.5361 C   0  0  3  0  0  0  0  0  0  0  0  0
   -4.8672   -3.2012    4.4749 C   0  0  0  0  0  0  0  0  0  0  0  0
   -5.3582   -1.6712    6.3581 C   0  0  0  0  0  0  0  0  0  0  0  0
   -2.6493    0.1623    2.8237 C   0  0  0  0  0  0  0  0  0  0  0  0
   -2.4840   -2.2394    2.7966 C   0  0  0  0  0  0  0  0  0  0  0  0
   -2.0713    0.1941    1.5624 C   0  0  0  0  0  0  0  0  0  0  0  0
   -1.9428   -2.2129    1.5203 C   0  0  0  0  0  0  0  0  0  0  0  0
   -1.7561    0.1993   -1.3418 C   0  0  0  0  0  0  0  0  0  0  0  0
    0.2888   -1.0271   -0.5575 C   0  0  0  0  0  0  0  0  0  0  0  0
    1.8351   -0.1528   -0.0068 H   0  0  0  0  0  0  0  0  0  0  0  0
   -5.5546   -1.1799    4.2756 H   0  0  0  0  0  0  0  0  0  0  0  0
   -2.7529   -1.5879    5.4987 H   0  0  0  0  0  0  0  0  0  0  0  0
   -3.5426   -0.0558    5.2074 H   0  0  0  0  0  0  0  0  0  0  0  0
   -1.5798   -1.8939   -1.0373 H   0  0  0  0  0  0  0  0  0  0  0  0
   -4.0872   -3.7650    5.0003 H   0  0  0  0  0  0  0  0  0  0  0  0
   -5.8294   -3.6798    4.6676 H   0  0  0  0  0  0  0  0  0  0  0  0
   -4.7118   -3.2891    3.3970 H   0  0  0  0  0  0  0  0  0  0  0  0
   -5.4394   -0.6356    6.7012 H   0  0  0  0  0  0  0  0  0  0  0  0
   -6.3447   -2.1373    6.4424 H   0  0  0  0  0  0  0  0  0  0  0  0
   -4.6736   -2.2023    7.0291 H   0  0  0  0  0  0  0  0  0  0  0  0
   -2.9088    1.0995    3.3097 H   0  0  0  0  0  0  0  0  0  0  0  0
   -2.6116   -3.2124    3.2598 H   0  0  0  0  0  0  0  0  0  0  0  0
   -1.8680    1.1677    1.1273 H   0  0  0  0  0  0  0  0  0  0  0  0
   -1.6676   -3.1518    1.0439 H   0  0  0  0  0  0  0  0  0  0  0  0
   -1.4189    0.1549   -2.3792 H   0  0  0  0  0  0  0  0  0  0  0  0
   -2.8531    0.2056   -1.3284 H   0  0  0  0  0  0  0  0  0  0  0  0
   -1.4124    1.1572   -0.9374 H   0  0  0  0  0  0  0  0  0  0  0  0
  1 15  1  0  0  0  0
  1 16  1  0  0  0  0
  2 15  2  0  0  0  0
  3  4  1  0  0  0  0
  3  8  1  0  0  0  0
  3  9  1  0  0  0  0
  3 17  1  0  0  0  0
  4  5  1  0  0  0  0
  4 18  1  0  0  0  0
  4 19  1  0  0  0  0
  5 10  2  0  0  0  0
  5 11  1  0  0  0  0
  6  7  1  0  0  0  0
  6 12  2  0  0  0  0
  6 13  1  0  0  0  0
  7 14  1  0  0  0  0
  7 15  1  0  0  0  0
  7 20  1  0  0  0  0
  8 21  1  0  0  0  0
  8 22  1  0  0  0  0
  8 23  1  0  0  0  0
  9 24  1  0  0  0  0
  9 25  1  0  0  0  0
  9 26  1  0  0  0  0
 10 12  1  0  0  0  0
 10 27  1  0  0  0  0
 11 13  2  0  0  0  0
 11 28  1  0  0  0  0
 12 29  1  0  0  0  0
 13 30  1  0  0  0  0
 14 31  1  0  0  0  0
 14 32  1  0  0  0  0
 14 33  1  0  0  0  0
M  END
>  <DRUGBANK_ID>
DB01050

>  <SECONDARY_ACCESSION_NUMBERS>
APRD00372

>  <COMMON_NAME>
Ibuprofen

>  <CAS_NUMBER>
15687-27-1

>  <UNII>
WK2XYI10QM

>  <SYNONYMS>
(±)-2-(p-isobutylphenyl)propionic acid; (±)-ibuprofen; (±)-p-isobutylhydratropic acid; (±)-α-methyl-4-(2-methylpropyl)benzeneacetic acid; (4-isobutylphenyl)-α-methylacetic acid; (RS)-ibuprofen; 2-(4-isobutylphenyl)propanoic acid; 4-isobutylhydratropic acid; Ibuprofen; Ibuprofene; Ibuprofeno; Ibuprofenum; Ibuprophen; α-(4-isobutylphenyl)propionic acid; α-(p-isobutylphenyl)propionic acid

$$$$
