
 OpenBabel10282417183D

 65 69  0  0  0  0  0  0  0  0999 V2000
   -0.0821    0.7068   -0.0352 C   0  0  0  0  0  0  0  0  0  0  0  0
    1.1747    1.4040   -0.0338 N   0  0  0  0  0  0  0  0  0  0  0  0
   -5.8995    1.5600    0.5678 C   0  0  1  0  0  0  0  0  0  0  0  0
   -5.6556    2.2079   -0.7545 C   0  0  2  0  0  0  0  0  0  0  0  0
   -6.2382    0.8240   -0.6914 C   0  0  2  0  0  0  0  0  0  0  0  0
   -0.0660   -0.6871   -0.0162 C   0  0  0  0  0  0  0  0  0  0  0  0
    2.4789   -0.6795   -0.0183 C   0  0  0  0  0  0  0  0  0  0  0  0
   -1.2653    1.4023   -0.0576 N   0  0  0  0  0  0  0  0  0  0  0  0
   -3.5960    1.4910    0.1247 N   0  0  0  0  0  0  0  0  0  0  0  0
    1.2044   -1.4382   -0.0082 C   0  0  0  0  0  0  0  0  0  0  0  0
    2.3642    0.6609   -0.0317 C   0  0  0  0  0  0  0  0  0  0  0  0
   -2.4502    0.7381   -0.0112 C   0  0  0  0  0  0  0  0  0  0  0  0
   -7.5400    0.3804   -1.1187 N   0  0  0  0  0  0  0  0  0  0  0  0
   -4.5667    1.2279    1.1897 C   0  0  0  0  0  0  0  0  0  0  0  0
   -4.1496    2.3064   -0.9654 C   0  0  0  0  0  0  0  0  0  0  0  0
    1.2190    2.8302    0.0359 C   0  0  0  0  0  0  0  0  0  0  0  0
   -1.2692   -1.3827   -0.0052 C   0  0  0  0  0  0  0  0  0  0  0  0
   -7.5755   -0.8484   -1.7778 C   0  0  0  0  0  0  0  0  0  0  0  0
    3.7761   -1.4098   -0.0039 C   0  0  0  0  0  0  0  0  0  0  0  0
   -2.4569   -0.6650    0.0052 C   0  0  0  0  0  0  0  0  0  0  0  0
   -9.0526   -3.2127   -4.0540 C   0  0  0  0  0  0  0  0  0  0  0  0
   -8.9281   -1.9951   -3.4483 N   0  0  0  0  0  0  0  0  0  0  0  0
    1.7913    3.6044   -0.9857 C   0  0  0  0  0  0  0  0  0  0  0  0
   -8.9246   -1.5305   -2.0389 C   0  0  1  0  0  0  0  0  0  0  0  0
    1.7848    4.9954   -0.9310 C   0  0  0  0  0  0  0  0  0  0  0  0
    0.6857    3.5021    1.1495 C   0  0  0  0  0  0  0  0  0  0  0  0
    1.1644   -2.6624    0.0123 O   0  0  0  0  0  0  0  0  0  0  0  0
   -6.5390   -1.4684   -2.0463 O   0  0  0  0  0  0  0  0  0  0  0  0
   -8.9053   -3.2589   -5.2808 O   0  0  0  0  0  0  0  0  0  0  0  0
    3.9411   -2.6016    0.0054 O   0  0  0  0  0  0  0  0  0  0  0  0
   -9.4257   -4.4872   -3.2793 C   0  0  1  0  0  0  0  0  0  0  0  0
    1.3629    5.6167    0.2350 C   0  0  0  0  0  0  0  0  0  0  0  0
   -3.6055   -1.3567    0.0311 F   0  0  0  0  0  0  0  0  0  0  0  0
    2.3372    3.0073   -2.0560 F   0  0  0  0  0  0  0  0  0  0  0  0
    4.8553   -0.5953    0.0029 O   0  0  0  0  0  0  0  0  0  0  0  0
    0.8769    4.8752    1.3034 C   0  0  0  0  0  0  0  0  0  0  0  0
   -8.2817   -5.0289   -2.5288 N   0  0  0  0  0  0  0  0  0  0  0  0
    1.4052    6.9518    0.3284 F   0  0  0  0  0  0  0  0  0  0  0  0
   -8.9212   -2.5905   -0.9372 C   0  0  0  0  0  0  0  0  0  0  0  0
  -10.8142   -4.3191   -2.6257 C   0  0  0  0  0  0  0  0  0  0  0  0
   -6.6543    1.9173    1.2476 H   0  0  0  0  0  0  0  0  0  0  0  0
   -6.2331    3.0623   -1.0688 H   0  0  0  0  0  0  0  0  0  0  0  0
   -5.5059    0.0498   -0.9158 H   0  0  0  0  0  0  0  0  0  0  0  0
    3.2576    1.2858   -0.0219 H   0  0  0  0  0  0  0  0  0  0  0  0
   -8.3851    0.9027   -0.9115 H   0  0  0  0  0  0  0  0  0  0  0  0
   -4.5691    0.1958    1.5520 H   0  0  0  0  0  0  0  0  0  0  0  0
   -4.3425    1.8997    2.0230 H   0  0  0  0  0  0  0  0  0  0  0  0
   -3.8103    3.3409   -0.8532 H   0  0  0  0  0  0  0  0  0  0  0  0
   -3.8962    1.9427   -1.9680 H   0  0  0  0  0  0  0  0  0  0  0  0
   -1.2883   -2.4690    0.0041 H   0  0  0  0  0  0  0  0  0  0  0  0
   -8.6908   -1.2929   -4.1456 H   0  0  0  0  0  0  0  0  0  0  0  0
   -9.7593   -0.8285   -1.9433 H   0  0  0  0  0  0  0  0  0  0  0  0
    2.1202    5.5840   -1.7762 H   0  0  0  0  0  0  0  0  0  0  0  0
    0.1259    2.9568    1.9056 H   0  0  0  0  0  0  0  0  0  0  0  0
   -9.5744   -5.2735   -4.0233 H   0  0  0  0  0  0  0  0  0  0  0  0
    5.5997   -1.2393    0.0027 H   0  0  0  0  0  0  0  0  0  0  0  0
    0.6359    5.3661    2.2409 H   0  0  0  0  0  0  0  0  0  0  0  0
   -8.3973   -5.2125   -1.5405 H   0  0  0  0  0  0  0  0  0  0  0  0
   -7.3829   -4.5947   -2.7494 H   0  0  0  0  0  0  0  0  0  0  0  0
   -9.0984   -2.1565    0.0457 H   0  0  0  0  0  0  0  0  0  0  0  0
   -9.6594   -3.3678   -0.9999 H   0  0  0  0  0  0  0  0  0  0  0  0
   -7.9576   -3.1091   -0.9117 H   0  0  0  0  0  0  0  0  0  0  0  0
  -11.5977   -4.4513   -3.3767 H   0  0  0  0  0  0  0  0  0  0  0  0
  -10.9726   -5.0401   -1.8179 H   0  0  0  0  0  0  0  0  0  0  0  0
  -11.0381   -3.3142   -2.2407 H   0  0  0  0  0  0  0  0  0  0  0  0
  2  1  1  0  0  0  0
  3 14  1  0  0  0  0
  3 41  1  1  0  0  0
  3  4  1  0  0  0  0
  4 15  1  0  0  0  0
  4 42  1  6  0  0  0
  4  5  1  0  0  0  0
  5  3  1  0  0  0  0
  5 13  1  0  0  0  0
  5 43  1  6  0  0  0
  6  1  2  0  0  0  0
  7 10  1  0  0  0  0
  8  1  1  0  0  0  0
  9 12  1  0  0  0  0
 10  6  1  0  0  0  0
 11  2  1  0  0  0  0
 11  7  2  0  0  0  0
 11 44  1  0  0  0  0
 12  8  2  0  0  0  0
 12 20  1  0  0  0  0
 13 45  1  0  0  0  0
 14  9  1  0  0  0  0
 14 46  1  0  0  0  0
 14 47  1  0  0  0  0
 15  9  1  0  0  0  0
 15 48  1  0  0  0  0
 15 49  1  0  0  0  0
 16  2  1  0  0  0  0
 17  6  1  0  0  0  0
 17 50  1  0  0  0  0
 18 13  1  0  0  0  0
 19  7  1  0  0  0  0
 20 17  2  0  0  0  0
 21 22  1  0  0  0  0
 22 24  1  0  0  0  0
 22 51  1  0  0  0  0
 23 16  1  0  0  0  0
 24 18  1  0  0  0  0
 24 39  1  0  0  0  0
 24 52  1  1  0  0  0
 25 23  2  0  0  0  0
 25 32  1  0  0  0  0
 25 53  1  0  0  0  0
 26 16  2  0  0  0  0
 26 54  1  0  0  0  0
 27 10  2  0  0  0  0
 28 18  2  0  0  0  0
 29 21  2  0  0  0  0
 30 19  2  0  0  0  0
 31 21  1  0  0  0  0
 31 40  1  0  0  0  0
 31 55  1  6  0  0  0
 32 36  2  0  0  0  0
 33 20  1  0  0  0  0
 34 23  1  0  0  0  0
 35 19  1  0  0  0  0
 35 56  1  0  0  0  0
 36 26  1  0  0  0  0
 36 57  1  0  0  0  0
 37 31  1  0  0  0  0
 37 58  1  0  0  0  0
 37 59  1  0  0  0  0
 38 32  1  0  0  0  0
 39 60  1  0  0  0  0
 39 61  1  0  0  0  0
 39 62  1  0  0  0  0
 40 63  1  0  0  0  0
 40 64  1  0  0  0  0
 40 65  1  0  0  0  0
M  END
>  <DRUGBANK_ID>
DB09335

>  <COMMON_NAME>
Alatrofloxacin

>  <CAS_NUMBER>
146961-76-4

>  <UNII>
7QVV6I50DT

>  <SYNONYMS>
Alatrofloxacin

$$$$
