B18
 OpenBabel10282417163D

 55 58  0  0  0  0  0  0  0  0999 V2000
    3.0365   -1.1198   -0.1485 C   0  0  0  0  0  0  0  0  0  0  0  0
    1.6901   -1.4764   -0.0156 C   0  0  0  0  0  0  0  0  0  0  0  0
    0.6952   -0.4611    0.0367 C   0  0  0  0  0  0  0  0  0  0  0  0
    1.0673    0.8819    0.0483 C   0  0  0  0  0  0  0  0  0  0  0  0
    2.3805    1.2692   -0.0890 C   0  0  0  0  0  0  0  0  0  0  0  0
    3.2892    0.2382   -0.3278 C   0  0  0  0  0  0  0  0  0  0  0  0
   -0.7173   -0.4549    0.0911 C   0  0  0  0  0  0  0  0  0  0  0  0
   -1.1613    0.8510    0.1229 C   0  0  0  0  0  0  0  0  0  0  0  0
   -0.0653    1.6596    0.1421 N   0  0  0  0  0  0  0  0  0  0  0  0
   -1.6579   -1.6083    0.1293 C   0  0  2  0  0  0  0  0  0  0  0  0
   -3.1249   -1.1125    0.1416 C   0  0  0  0  0  0  0  0  0  0  0  0
   -3.3061    0.2074   -0.4429 N   0  0  0  0  0  0  0  0  0  0  0  0
   -2.5403    1.2592    0.0357 C   0  0  0  0  0  0  0  0  0  0  0  0
   -2.9636    2.3736    0.2410 O   0  0  0  0  0  0  0  0  0  0  0  0
    4.1215   -2.1900   -0.1541 C   0  0  0  0  0  0  0  0  0  0  0  0
    3.7726   -3.3735   -0.1343 O   0  0  0  0  0  0  0  0  0  0  0  0
    5.4876   -1.9259   -0.2207 N   0  0  0  0  0  0  0  0  0  0  0  0
    6.0930   -0.7223   -0.0591 C   0  0  0  0  0  0  0  0  0  0  0  0
    5.8575    0.0486    1.4421 S   0  0  0  0  0  0  0  0  0  0  0  0
    6.1049    1.5020    0.5725 C   0  0  0  0  0  0  0  0  0  0  0  0
    6.9214    1.2755   -0.5221 C   0  0  0  0  0  0  0  0  0  0  0  0
    6.8760   -0.0861   -0.8987 N   0  0  0  0  0  0  0  0  0  0  0  0
    7.6844    2.2582   -1.3059 C   0  0  0  0  0  0  0  0  0  0  0  0
    7.6076    3.5976   -1.0354 N   0  0  0  0  0  0  0  0  0  0  0  0
    8.4379    1.9356   -2.2279 O   0  0  0  0  0  0  0  0  0  0  0  0
    6.9401    4.3949   -0.0121 C   0  0  0  0  0  0  0  0  0  0  0  0
    7.8130    4.8904    1.1481 C   0  0  0  0  0  0  0  0  0  0  0  0
    8.6310    6.0435    0.7570 N   0  0  0  0  0  0  0  0  0  0  0  0
    9.5949    5.6866   -0.2793 C   0  0  0  0  0  0  0  0  0  0  0  0
    9.3482    6.5656    1.9146 C   0  0  0  0  0  0  0  0  0  0  0  0
   -1.3851   -2.3916    1.4104 C   0  0  0  0  0  0  0  0  0  0  0  0
   -1.4958   -2.2248   -0.7638 H   0  0  0  0  0  0  0  0  0  0  0  0
    1.3980   -2.5250   -0.0028 H   0  0  0  0  0  0  0  0  0  0  0  0
    2.6887    2.3069   -0.1109 H   0  0  0  0  0  0  0  0  0  0  0  0
    4.2357    0.5668   -0.7067 H   0  0  0  0  0  0  0  0  0  0  0  0
   -0.0855    2.6709    0.1177 H   0  0  0  0  0  0  0  0  0  0  0  0
   -3.4788   -1.0303    1.1790 H   0  0  0  0  0  0  0  0  0  0  0  0
   -3.7816   -1.8251   -0.3660 H   0  0  0  0  0  0  0  0  0  0  0  0
   -4.1410    0.4414   -0.9593 H   0  0  0  0  0  0  0  0  0  0  0  0
    6.0969   -2.6957   -0.4500 H   0  0  0  0  0  0  0  0  0  0  0  0
    5.6280    2.3511    1.0074 H   0  0  0  0  0  0  0  0  0  0  0  0
    8.1443    4.0942   -1.7337 H   0  0  0  0  0  0  0  0  0  0  0  0
    6.3992    5.2053   -0.5053 H   0  0  0  0  0  0  0  0  0  0  0  0
    6.1636    3.8386    0.4545 H   0  0  0  0  0  0  0  0  0  0  0  0
    7.1233    5.2006    1.9495 H   0  0  0  0  0  0  0  0  0  0  0  0
    8.4154    4.0734    1.5717 H   0  0  0  0  0  0  0  0  0  0  0  0
   10.1660    4.7893   -0.0129 H   0  0  0  0  0  0  0  0  0  0  0  0
    9.0885    5.5388   -1.2301 H   0  0  0  0  0  0  0  0  0  0  0  0
   10.2801    6.5081   -0.4921 H   0  0  0  0  0  0  0  0  0  0  0  0
   10.0226    5.8165    2.3429 H   0  0  0  0  0  0  0  0  0  0  0  0
    9.9353    7.4381    1.6118 H   0  0  0  0  0  0  0  0  0  0  0  0
    8.6510    6.9007    2.6893 H   0  0  0  0  0  0  0  0  0  0  0  0
   -2.0593   -3.2424    1.5036 H   0  0  0  0  0  0  0  0  0  0  0  0
   -0.3553   -2.7569    1.4490 H   0  0  0  0  0  0  0  0  0  0  0  0
   -1.5152   -1.7375    2.2835 H   0  0  0  0  0  0  0  0  0  0  0  0
  1 15  1  0  0  0  0
  1  6  2  0  0  0  0
  1  2  1  0  0  0  0
  2  3  2  0  0  0  0
  2 33  1  0  0  0  0
  3  4  1  0  0  0  0
  3  7  1  0  0  0  0
  4  5  2  0  0  0  0
  4  9  1  0  0  0  0
  5  6  1  0  0  0  0
  5 34  1  0  0  0  0
  6 35  1  0  0  0  0
  7 10  1  0  0  0  0
  7  8  2  0  0  0  0
  8  9  1  0  0  0  0
  8 13  1  0  0  0  0
  9 36  1  0  0  0  0
 10 31  1  0  0  0  0
 10 11  1  0  0  0  0
 10 32  1  6  0  0  0
 11 12  1  0  0  0  0
 11 37  1  0  0  0  0
 11 38  1  0  0  0  0
 12 13  1  0  0  0  0
 12 39  1  0  0  0  0
 13 14  2  0  0  0  0
 15 16  2  0  0  0  0
 15 17  1  0  0  0  0
 17 18  1  0  0  0  0
 17 40  1  0  0  0  0
 18 19  1  0  0  0  0
 18 22  2  0  0  0  0
 19 20  1  0  0  0  0
 20 21  2  0  0  0  0
 20 41  1  0  0  0  0
 21 23  1  0  0  0  0
 21 22  1  0  0  0  0
 23 25  2  0  0  0  0
 23 24  1  0  0  0  0
 24 26  1  0  0  0  0
 24 42  1  0  0  0  0
 26 27  1  0  0  0  0
 26 43  1  0  0  0  0
 26 44  1  0  0  0  0
 27 28  1  0  0  0  0
 27 45  1  0  0  0  0
 27 46  1  0  0  0  0
 28 30  1  0  0  0  0
 28 29  1  0  0  0  0
 29 47  1  0  0  0  0
 29 48  1  0  0  0  0
 29 49  1  0  0  0  0
 30 50  1  0  0  0  0
 30 51  1  0  0  0  0
 30 52  1  0  0  0  0
 31 53  1  0  0  0  0
 31 54  1  0  0  0  0
 31 55  1  0  0  0  0
M  END
>  <DRUGBANK_ID>
DB07406

>  <COMMON_NAME>
(4R)-N-[4-({[2-(DIMETHYLAMINO)ETHYL]AMINO}CARBONYL)-1,3-THIAZOL-2-YL]-4-METHYL-1-OXO-2,3,4,9-TETRAHYDRO-1H-BETA-CARBOLINE-6-CARBOXAMIDE

$$$$
