
 OpenBabel10282417243D

 61 64  0  0  1  0  0  0  0  0999 V2000
    1.0068   -0.0792   -0.0928 C   0  0  0  0  0  0  0  0  0  0  0  0
    0.7179    1.2990    0.1007 O   0  0  0  0  0  0  0  0  0  0  0  0
    1.0260    1.7735    1.3476 C   0  0  0  0  0  0  0  0  0  0  0  0
   -0.0124    2.4233    1.9907 C   0  0  0  0  0  0  0  0  0  0  0  0
    0.2257    3.1905    3.1429 C   0  0  0  0  0  0  0  0  0  0  0  0
   -1.0272    4.3591    3.3752 Cl  0  0  0  0  0  0  0  0  0  0  0  0
    1.4718    3.1643    3.8097 C   0  0  0  0  0  0  0  0  0  0  0  0
    2.5037    2.4716    3.1473 C   0  0  0  0  0  0  0  0  0  0  0  0
    2.3119    1.8442    1.8901 C   0  0  0  0  0  0  0  0  0  0  0  0
    3.5055    1.3387    1.1383 C   0  0  0  0  0  0  0  0  0  0  0  0
    1.7912    3.7952    5.1165 C   0  0  0  0  0  0  0  0  0  0  0  0
    1.3873    3.2258    6.3134 N   0  0  0  0  0  0  0  0  0  0  0  0
    1.7068    3.8793    7.4194 C   0  0  0  0  0  0  0  0  0  0  0  0
    2.7625    5.1978    7.0273 S   0  0  0  0  0  0  0  0  0  0  0  0
    2.6472    4.8516    5.3320 C   0  0  0  0  0  0  0  0  0  0  0  0
    3.4235    5.6630    4.3668 C   0  0  0  0  0  0  0  0  0  0  0  0
    1.3177    3.4866    8.7008 N   0  0  0  0  0  0  0  0  0  0  0  0
    1.8084    4.1156    9.9372 C   0  0  0  0  0  0  0  0  0  0  0  0
    0.6687    4.7517   10.7163 C   0  0  0  0  0  0  0  0  0  0  0  0
   -0.3089    5.2973   11.3845 C   0  0  0  0  0  0  0  0  0  0  0  0
    0.4042    2.3209    8.9265 C   0  0  1  0  0  0  0  0  0  0  0  0
   -1.0463    2.5776    8.4059 C   0  0  0  0  0  0  0  0  0  0  0  0
   -1.0920    2.6579    6.9275 C   0  0  0  0  0  0  0  0  0  0  0  0
   -1.4565    4.0001    6.3531 C   0  0  0  0  0  0  0  0  0  0  0  0
   -2.2651    2.7718    6.0219 C   0  0  0  0  0  0  0  0  0  0  0  0
    0.9664    0.9620    8.4913 C   0  0  0  0  0  0  0  0  0  0  0  0
    2.0861    0.8268    7.6619 C   0  0  0  0  0  0  0  0  0  0  0  0
    2.4583   -0.3797    7.0930 C   0  0  0  0  0  0  0  0  0  0  0  0
    1.7744   -1.5421    7.4421 C   0  0  0  0  0  0  0  0  0  0  0  0
    2.2223   -2.8512    6.8893 C   0  0  0  0  0  0  0  0  0  0  0  0
    0.7098   -1.4430    8.3315 C   0  0  0  0  0  0  0  0  0  0  0  0
    0.0485   -2.5584    8.6985 F   0  0  0  0  0  0  0  0  0  0  0  0
    0.2900   -0.2212    8.8483 C   0  0  0  0  0  0  0  0  0  0  0  0
    0.4704   -0.4137   -0.9856 H   0  0  0  0  0  0  0  0  0  0  0  0
    0.6869   -0.6907    0.7567 H   0  0  0  0  0  0  0  0  0  0  0  0
    2.0642   -0.2256   -0.3100 H   0  0  0  0  0  0  0  0  0  0  0  0
   -0.9985    2.4228    1.5272 H   0  0  0  0  0  0  0  0  0  0  0  0
    3.5015    2.4734    3.5834 H   0  0  0  0  0  0  0  0  0  0  0  0
    3.4728    0.2504    1.0681 H   0  0  0  0  0  0  0  0  0  0  0  0
    3.5301    1.7856    0.1372 H   0  0  0  0  0  0  0  0  0  0  0  0
    4.4426    1.5953    1.6379 H   0  0  0  0  0  0  0  0  0  0  0  0
    3.1662    6.7204    4.4672 H   0  0  0  0  0  0  0  0  0  0  0  0
    4.4971    5.5363    4.5409 H   0  0  0  0  0  0  0  0  0  0  0  0
    3.2149    5.3618    3.3367 H   0  0  0  0  0  0  0  0  0  0  0  0
    2.3109    3.3696   10.5644 H   0  0  0  0  0  0  0  0  0  0  0  0
    2.5460    4.8999    9.7420 H   0  0  0  0  0  0  0  0  0  0  0  0
   -1.1102    5.7457   11.9253 H   0  0  0  0  0  0  0  0  0  0  0  0
    0.2795    2.2114   10.0152 H   0  0  0  0  0  0  0  0  0  0  0  0
   -1.7163    1.7669    8.7088 H   0  0  0  0  0  0  0  0  0  0  0  0
   -1.4431    3.4972    8.8542 H   0  0  0  0  0  0  0  0  0  0  0  0
   -0.3596    1.9967    6.4772 H   0  0  0  0  0  0  0  0  0  0  0  0
   -1.9444    4.7747    6.9291 H   0  0  0  0  0  0  0  0  0  0  0  0
   -0.6646    4.4420    5.7703 H   0  0  0  0  0  0  0  0  0  0  0  0
   -2.1148    2.2548    5.0764 H   0  0  0  0  0  0  0  0  0  0  0  0
   -3.2431    2.6467    6.4513 H   0  0  0  0  0  0  0  0  0  0  0  0
    2.6891    1.6803    7.3715 H   0  0  0  0  0  0  0  0  0  0  0  0
    3.2733   -0.3914    6.3781 H   0  0  0  0  0  0  0  0  0  0  0  0
    2.5695   -3.4901    7.7059 H   0  0  0  0  0  0  0  0  0  0  0  0
    1.4053   -3.3372    6.3499 H   0  0  0  0  0  0  0  0  0  0  0  0
    3.0559   -2.7194    6.1904 H   0  0  0  0  0  0  0  0  0  0  0  0
   -0.5726   -0.1988    9.5061 H   0  0  0  0  0  0  0  0  0  0  0  0
  1  2  1  0  0  0  0
  1 34  1  0  0  0  0
  1 35  1  0  0  0  0
  1 36  1  0  0  0  0
  2  3  1  0  0  0  0
  3  4  2  0  0  0  0
  3  9  1  0  0  0  0
  4  5  1  0  0  0  0
  4 37  1  0  0  0  0
  5  6  1  0  0  0  0
  5  7  2  0  0  0  0
  7  8  1  0  0  0  0
  7 11  1  0  0  0  0
  8  9  2  0  0  0  0
  8 38  1  0  0  0  0
  9 10  1  0  0  0  0
 10 39  1  0  0  0  0
 10 40  1  0  0  0  0
 10 41  1  0  0  0  0
 11 12  1  0  0  0  0
 11 15  2  0  0  0  0
 12 13  2  0  0  0  0
 13 14  1  0  0  0  0
 13 17  1  0  0  0  0
 14 15  1  0  0  0  0
 15 16  1  0  0  0  0
 16 42  1  0  0  0  0
 16 43  1  0  0  0  0
 16 44  1  0  0  0  0
 17 18  1  0  0  0  0
 18 19  1  0  0  0  0
 18 45  1  0  0  0  0
 18 46  1  0  0  0  0
 19 20  3  0  0  0  0
 20 47  1  0  0  0  0
 21 17  1  0  0  0  0
 21 22  1  0  0  0  0
 21 26  1  0  0  0  0
 21 48  1  1  0  0  0
 22 23  1  0  0  0  0
 22 49  1  0  0  0  0
 22 50  1  0  0  0  0
 23 24  1  0  0  0  0
 23 25  1  0  0  0  0
 23 51  1  0  0  0  0
 24 25  1  0  0  0  0
 24 52  1  0  0  0  0
 24 53  1  0  0  0  0
 25 54  1  0  0  0  0
 25 55  1  0  0  0  0
 26 27  2  0  0  0  0
 26 33  1  0  0  0  0
 27 28  1  0  0  0  0
 27 56  1  0  0  0  0
 28 29  2  0  0  0  0
 28 57  1  0  0  0  0
 29 30  1  0  0  0  0
 29 31  1  0  0  0  0
 30 58  1  0  0  0  0
 30 59  1  0  0  0  0
 30 60  1  0  0  0  0
 31 32  1  0  0  0  0
 31 33  2  0  0  0  0
 33 61  1  0  0  0  0
M  END
>  <DRUGBANK_ID>
DB18518

>  <COMMON_NAME>
Crinecerfont

>  <CAS_NUMBER>
752253-39-7

>  <UNII>
MFT24BX55I

$$$$
