AND
 OpenBabel10282417123D

 49 52  0  0  0  0  0  0  0  0999 V2000
   -1.3293    0.0390   -0.0843 C   0  0  0  0  0  0  0  0  0  0  0  0
   -2.6524   -0.3314   -0.8453 C   0  0  0  0  0  0  0  0  0  0  0  0
   -3.3470    1.0195   -1.1173 C   0  0  2  0  0  0  0  0  0  0  0  0
   -4.6771    0.9281   -1.6021 O   0  0  0  0  0  0  0  0  0  0  0  0
   -2.5195    1.9302   -2.0270 C   0  0  0  0  0  0  0  0  0  0  0  0
   -1.1861    2.1996   -1.3369 C   0  0  0  0  0  0  0  0  0  0  0  0
   -0.7649    3.4176   -0.9246 C   0  0  0  0  0  0  0  0  0  0  0  0
    0.5323    3.7253   -0.1221 C   0  0  0  0  0  0  0  0  0  0  0  0
    1.0814    2.5019    0.7232 C   0  0  2  0  0  0  0  0  0  0  0  0
    1.0596    1.3533   -0.5072 C   0  0  1  0  0  0  0  0  0  0  0  0
   -0.3948    0.9247   -1.0628 C   0  0  1  0  0  0  0  0  0  0  0  0
    1.8649    0.0992   -0.2676 C   0  0  0  0  0  0  0  0  0  0  0  0
    3.2040    0.4065    0.3081 C   0  0  0  0  0  0  0  0  0  0  0  0
    3.0807    1.2357    1.5470 C   0  0  1  0  0  0  0  0  0  0  0  0
    2.6302    2.6925    1.6011 C   0  0  1  0  0  0  0  0  0  0  0  0
    3.5041    2.8121    3.2333 C   0  0  0  0  0  0  0  0  0  0  0  0
    4.4992    1.5538    3.4084 C   0  0  0  0  0  0  0  0  0  0  0  0
    4.4950    1.4921    1.9791 C   0  0  0  0  0  0  0  0  0  0  0  0
    5.3755    2.0758    1.2597 O   0  0  0  0  0  0  0  0  0  0  0  0
    2.0486    0.5694    2.5969 C   0  0  0  0  0  0  0  0  0  0  0  0
   -0.2164    0.1353   -2.4410 C   0  0  0  0  0  0  0  0  0  0  0  0
   -3.4501    1.5020   -0.1374 H   0  0  0  0  0  0  0  0  0  0  0  0
    0.2992    2.2303    1.4391 H   0  0  0  0  0  0  0  0  0  0  0  0
    1.5617    1.8437   -1.3664 H   0  0  0  0  0  0  0  0  0  0  0  0
    3.1417    3.5133    1.0762 H   0  0  0  0  0  0  0  0  0  0  0  0
   -1.5845    0.5928    0.8339 H   0  0  0  0  0  0  0  0  0  0  0  0
   -0.7927   -0.8543    0.2482 H   0  0  0  0  0  0  0  0  0  0  0  0
   -3.4292   -1.0536   -0.5466 H   0  0  0  0  0  0  0  0  0  0  0  0
   -2.2948   -0.9577   -1.6574 H   0  0  0  0  0  0  0  0  0  0  0  0
   -5.0149    1.8465   -1.5846 H   0  0  0  0  0  0  0  0  0  0  0  0
   -3.0793    2.8381   -2.2766 H   0  0  0  0  0  0  0  0  0  0  0  0
   -2.3948    1.4364   -2.9999 H   0  0  0  0  0  0  0  0  0  0  0  0
   -1.3958    4.2743   -1.1669 H   0  0  0  0  0  0  0  0  0  0  0  0
    0.3503    4.6164    0.4860 H   0  0  0  0  0  0  0  0  0  0  0  0
    1.2907    4.0093   -0.8659 H   0  0  0  0  0  0  0  0  0  0  0  0
    2.0199   -0.5190   -1.1553 H   0  0  0  0  0  0  0  0  0  0  0  0
    1.2940   -0.5439    0.3919 H   0  0  0  0  0  0  0  0  0  0  0  0
    3.9018    0.8420   -0.4202 H   0  0  0  0  0  0  0  0  0  0  0  0
    3.6464   -0.5546    0.5962 H   0  0  0  0  0  0  0  0  0  0  0  0
    4.2839    3.5975    3.1054 H   0  0  0  0  0  0  0  0  0  0  0  0
    3.0194    3.1136    4.1684 H   0  0  0  0  0  0  0  0  0  0  0  0
    5.4842    1.6449    3.8758 H   0  0  0  0  0  0  0  0  0  0  0  0
    4.1541    0.5534    3.7003 H   0  0  0  0  0  0  0  0  0  0  0  0
    2.4129    0.2832    3.5783 H   0  0  0  0  0  0  0  0  0  0  0  0
    1.2357    1.2611    2.8682 H   0  0  0  0  0  0  0  0  0  0  0  0
    1.5596   -0.3212    2.2202 H   0  0  0  0  0  0  0  0  0  0  0  0
    0.8058   -0.1567   -2.6636 H   0  0  0  0  0  0  0  0  0  0  0  0
   -0.7458   -0.8186   -2.4878 H   0  0  0  0  0  0  0  0  0  0  0  0
   -0.5574    0.6938   -3.3193 H   0  0  0  0  0  0  0  0  0  0  0  0
  1  2  1  0  0  0  0
  1 11  1  0  0  0  0
  1 26  1  0  0  0  0
  1 27  1  0  0  0  0
  2  3  1  0  0  0  0
  2 28  1  0  0  0  0
  2 29  1  0  0  0  0
  3  5  1  0  0  0  0
  3  4  1  0  0  0  0
  3 22  1  1  0  0  0
  4 30  1  0  0  0  0
  5  6  1  0  0  0  0
  5 31  1  0  0  0  0
  5 32  1  0  0  0  0
  6  7  2  0  0  0  0
  6 11  1  0  0  0  0
  7  8  1  0  0  0  0
  7 33  1  0  0  0  0
  8  9  1  0  0  0  0
  8 34  1  0  0  0  0
  8 35  1  0  0  0  0
  9 10  1  0  0  0  0
  9 15  1  0  0  0  0
  9 23  1  6  0  0  0
 10 11  1  0  0  0  0
 10 12  1  0  0  0  0
 10 24  1  1  0  0  0
 11 21  1  6  0  0  0
 12 13  1  0  0  0  0
 12 36  1  0  0  0  0
 12 37  1  0  0  0  0
 13 14  1  0  0  0  0
 13 38  1  0  0  0  0
 13 39  1  0  0  0  0
 14 15  1  0  0  0  0
 14 18  1  0  0  0  0
 14 20  1  6  0  0  0
 15 16  1  0  0  0  0
 15 25  1  1  0  0  0
 16 17  1  0  0  0  0
 16 40  1  0  0  0  0
 16 41  1  0  0  0  0
 17 18  1  0  0  0  0
 17 42  1  0  0  0  0
 17 43  1  0  0  0  0
 18 19  2  0  0  0  0
 20 44  1  0  0  0  0
 20 45  1  0  0  0  0
 20 46  1  0  0  0  0
 21 47  1  0  0  0  0
 21 48  1  0  0  0  0
 21 49  1  0  0  0  0
M  END
>  <DRUGBANK_ID>
DB01708

>  <SECONDARY_ACCESSION_NUMBERS>
EXPT00519; DB06593

>  <COMMON_NAME>
Prasterone

>  <CAS_NUMBER>
53-43-0

>  <UNII>
459AG36T1B

>  <SYNONYMS>
3-beta-hydroxy-5-androsten-17-one; 3beta-hydroxyandrost-5-en-17-one; 3Î²-hydroxyandrost-5-en-17-one; Dehydroandrosterone; Dehydroepiandrosterone; Dehydroisoandrosterone; DHEA; Prasterone

$$$$
