
 OpenBabel10282417163D

103103  0  0  0  0  0  0  0  0999 V2000
    1.1227   -0.3654   -1.0903 C   0  0  0  0  0  0  0  0  0  0  0  0
    0.3639   -1.3856   -0.5181 C   0  0  0  0  0  0  0  0  0  0  0  0
   -0.9330   -1.1011   -0.2069 C   0  0  0  0  0  0  0  0  0  0  0  0
   -1.3715    0.2434   -0.2780 C   0  0  0  0  0  0  0  0  0  0  0  0
   -0.5251    1.3216   -0.4509 C   0  0  0  0  0  0  0  0  0  0  0  0
   -1.8226   -2.2705    0.0716 C   0  0  0  0  0  0  0  0  0  0  0  0
    0.7163    1.0316   -0.9959 C   0  0  0  0  0  0  0  0  0  0  0  0
    1.6719    2.0431   -0.8407 O   0  0  0  0  0  0  0  0  0  0  0  0
    3.0844    1.6841   -0.8978 C   0  0  0  0  0  0  0  0  0  0  0  0
    3.7551    0.6954    0.1585 C   0  0  0  0  0  0  0  0  0  0  0  0
    3.1385   -0.3764    0.9116 O   0  0  0  0  0  0  0  0  0  0  0  0
    1.8557    0.1240    1.4010 C   0  0  0  0  0  0  0  0  0  0  0  0
    1.3400    1.6333    1.7422 C   0  0  0  0  0  0  0  0  0  0  0  0
    2.0374    2.9155    1.6889 O   0  0  0  0  0  0  0  0  0  0  0  0
    3.5089    2.8695    1.8554 C   0  0  0  0  0  0  0  0  0  0  0  0
    4.0831    1.4223    2.5741 C   0  0  0  0  0  0  0  0  0  0  0  0
    1.5518    2.0824    7.3530 C   0  0  0  0  0  0  0  0  0  0  0  0
    2.2121    0.7850    6.7356 C   0  0  0  0  0  0  0  0  0  0  0  0
    3.5778    0.6013    6.2069 O   0  0  0  0  0  0  0  0  0  0  0  0
    4.2513    1.6771    5.5259 C   0  0  0  0  0  0  0  0  0  0  0  0
    3.6193    2.8157    4.7707 C   0  0  0  0  0  0  0  0  0  0  0  0
    2.2331    2.9352    4.4922 O   0  0  0  0  0  0  0  0  0  0  0  0
    1.4946    1.7098    4.3333 C   0  0  0  0  0  0  0  0  0  0  0  0
    1.9153    0.2764    3.8834 C   0  0  0  0  0  0  0  0  0  0  0  0
    3.3436    0.2195    3.3292 O   0  0  0  0  0  0  0  0  0  0  0  0
    2.4736    3.2649    7.4247 O   0  0  0  0  0  0  0  0  0  0  0  0
    4.0025    3.2063    7.6572 C   0  0  0  0  0  0  0  0  0  0  0  0
    5.1157    2.0471    8.2234 C   0  0  0  0  0  0  0  0  0  0  0  0
    4.4765    0.8518    8.9034 O   0  0  0  0  0  0  0  0  0  0  0  0
    3.0261    0.9372    9.2293 C   0  0  0  0  0  0  0  0  0  0  0  0
    2.1527    2.1328   10.0801 C   0  0  0  0  0  0  0  0  0  0  0  0
    2.6041    3.5085   10.1496 O   0  0  0  0  0  0  0  0  0  0  0  0
    4.0037    3.5267   10.1789 C   0  0  0  0  0  0  0  0  0  0  0  0
    4.8794    2.6789   11.0979 C   0  0  0  0  0  0  0  0  0  0  0  0
    4.5517    1.2997   11.2826 O   0  0  0  0  0  0  0  0  0  0  0  0
   -3.5213   -0.8910    1.3406 C   0  0  0  0  0  0  0  0  0  0  0  0
   -7.9283   -0.6539    0.0827 C   0  0  0  0  0  0  0  0  0  0  0  0
   -4.3870   -0.8713    0.0634 C   0  0  0  0  0  0  0  0  0  0  0  0
   -7.0326   -0.6872    1.3196 C   0  0  0  0  0  0  0  0  0  0  0  0
   -5.3295   -2.0666    0.0953 C   0  0  0  0  0  0  0  0  0  0  0  0
   -6.2020   -1.9749    1.3466 C   0  0  0  0  0  0  0  0  0  0  0  0
   -2.6377   -2.1365    1.3515 C   0  0  0  0  0  0  0  0  0  0  0  0
   -8.8665   -1.8484    0.0939 C   0  0  0  0  0  0  0  0  0  0  0  0
    2.1823   -0.6262   -1.0361 H   0  0  0  0  0  0  0  0  0  0  0  0
    0.8323   -2.3222   -0.1847 H   0  0  0  0  0  0  0  0  0  0  0  0
   -2.4056    0.5236   -0.2171 H   0  0  0  0  0  0  0  0  0  0  0  0
   -0.8345    2.2793   -0.0046 H   0  0  0  0  0  0  0  0  0  0  0  0
   -2.4360   -2.3790   -0.8275 H   0  0  0  0  0  0  0  0  0  0  0  0
   -1.2456   -3.2034    0.1236 H   0  0  0  0  0  0  0  0  0  0  0  0
    3.2974    1.2999   -1.8630 H   0  0  0  0  0  0  0  0  0  0  0  0
    3.5898    2.6706   -0.8292 H   0  0  0  0  0  0  0  0  0  0  0  0
    4.8456    0.8238    0.3656 H   0  0  0  0  0  0  0  0  0  0  0  0
    3.4158    1.2958    0.8566 H   0  0  0  0  0  0  0  0  0  0  0  0
    1.6059    0.4708    0.5755 H   0  0  0  0  0  0  0  0  0  0  0  0
    1.1634   -0.7117    1.7095 H   0  0  0  0  0  0  0  0  0  0  0  0
    0.3319    1.6538    2.1675 H   0  0  0  0  0  0  0  0  0  0  0  0
    2.0036    1.4689    2.5503 H   0  0  0  0  0  0  0  0  0  0  0  0
    3.9486    2.9449    0.8901 H   0  0  0  0  0  0  0  0  0  0  0  0
    3.9194    3.8011    2.2537 H   0  0  0  0  0  0  0  0  0  0  0  0
    5.1416    1.4566    2.9072 H   0  0  0  0  0  0  0  0  0  0  0  0
    3.4203    2.0286    3.0715 H   0  0  0  0  0  0  0  0  0  0  0  0
    0.5631    2.3702    6.9160 H   0  0  0  0  0  0  0  0  0  0  0  0
    1.1021    1.7274    8.2499 H   0  0  0  0  0  0  0  0  0  0  0  0
    1.9146    1.5178    6.1451 H   0  0  0  0  0  0  0  0  0  0  0  0
    1.6033   -0.1208    6.5281 H   0  0  0  0  0  0  0  0  0  0  0  0
    5.3681    1.5829    5.5096 H   0  0  0  0  0  0  0  0  0  0  0  0
    4.1770    2.6011    5.9600 H   0  0  0  0  0  0  0  0  0  0  0  0
    4.1624    2.1157    4.2459 H   0  0  0  0  0  0  0  0  0  0  0  0
    4.2019    3.7049    4.4479 H   0  0  0  0  0  0  0  0  0  0  0  0
    0.5104    1.7809    4.7893 H   0  0  0  0  0  0  0  0  0  0  0  0
    2.2453    1.2039    4.8350 H   0  0  0  0  0  0  0  0  0  0  0  0
    0.9843    0.2325    3.3265 H   0  0  0  0  0  0  0  0  0  0  0  0
    1.6302   -0.7250    4.2346 H   0  0  0  0  0  0  0  0  0  0  0  0
    3.9506    2.2516    7.2984 H   0  0  0  0  0  0  0  0  0  0  0  0
    4.4992    3.9792    7.0260 H   0  0  0  0  0  0  0  0  0  0  0  0
    5.9877    1.7175    7.6381 H   0  0  0  0  0  0  0  0  0  0  0  0
    5.6900    2.6820    8.8670 H   0  0  0  0  0  0  0  0  0  0  0  0
    2.9663    1.4033    8.3186 H   0  0  0  0  0  0  0  0  0  0  0  0
    2.4060    0.0408    9.0047 H   0  0  0  0  0  0  0  0  0  0  0  0
    1.0816    2.2219    9.8342 H   0  0  0  0  0  0  0  0  0  0  0  0
    2.0961    1.8029   11.0887 H   0  0  0  0  0  0  0  0  0  0  0  0
    3.9905    2.8116    9.4805 H   0  0  0  0  0  0  0  0  0  0  0  0
    4.5073    4.3631    9.6391 H   0  0  0  0  0  0  0  0  0  0  0  0
    5.8982    2.6194   10.6928 H   0  0  0  0  0  0  0  0  0  0  0  0
    4.8319    3.1603   12.0405 H   0  0  0  0  0  0  0  0  0  0  0  0
    3.6329    1.1863   11.4895 H   0  0  0  0  0  0  0  0  0  0  0  0
   -4.1155   -0.8261    2.2507 H   0  0  0  0  0  0  0  0  0  0  0  0
   -2.9277    0.0128    1.4669 H   0  0  0  0  0  0  0  0  0  0  0  0
   -8.4935    0.2805    0.0592 H   0  0  0  0  0  0  0  0  0  0  0  0
   -7.3353   -0.6598   -0.8398 H   0  0  0  0  0  0  0  0  0  0  0  0
   -4.9119    0.0848   -0.0206 H   0  0  0  0  0  0  0  0  0  0  0  0
   -3.8174   -0.9139   -0.8715 H   0  0  0  0  0  0  0  0  0  0  0  0
   -7.6299   -0.6169    2.2321 H   0  0  0  0  0  0  0  0  0  0  0  0
   -6.3918    0.2036    1.3304 H   0  0  0  0  0  0  0  0  0  0  0  0
   -5.9159   -2.1024   -0.8264 H   0  0  0  0  0  0  0  0  0  0  0  0
   -4.7794   -3.0121    0.0868 H   0  0  0  0  0  0  0  0  0  0  0  0
   -6.8252   -2.8653    1.4256 H   0  0  0  0  0  0  0  0  0  0  0  0
   -5.6075   -2.0103    2.2636 H   0  0  0  0  0  0  0  0  0  0  0  0
   -3.2556   -3.0360    1.4537 H   0  0  0  0  0  0  0  0  0  0  0  0
   -1.9893   -2.1206    2.2317 H   0  0  0  0  0  0  0  0  0  0  0  0
   -9.4795   -1.8247    0.9994 H   0  0  0  0  0  0  0  0  0  0  0  0
   -9.5076   -1.8447   -0.7862 H   0  0  0  0  0  0  0  0  0  0  0  0
   -8.3246   -2.7997    0.0805 H   0  0  0  0  0  0  0  0  0  0  0  0
  1  2  1  0  0  0  0
  1  7  2  0  0  0  0
  1 44  1  0  0  0  0
  2  3  2  0  0  0  0
  2 45  1  0  0  0  0
  3  4  1  0  0  0  0
  3  6  1  0  0  0  0
  4  5  2  0  0  0  0
  4 46  1  0  0  0  0
  5  7  1  0  0  0  0
  5 47  1  0  0  0  0
  6 42  1  0  0  0  0
  6 48  1  0  0  0  0
  6 49  1  0  0  0  0
  7  8  1  0  0  0  0
  8  9  1  0  0  0  0
  9 10  1  0  0  0  0
  9 50  1  0  0  0  0
  9 51  1  0  0  0  0
 10 11  1  0  0  0  0
 10 52  1  0  0  0  0
 10 53  1  0  0  0  0
 11 12  1  0  0  0  0
 12 13  1  0  0  0  0
 12 54  1  0  0  0  0
 12 55  1  0  0  0  0
 13 14  1  0  0  0  0
 13 56  1  0  0  0  0
 13 57  1  0  0  0  0
 14 15  1  0  0  0  0
 15 16  1  0  0  0  0
 15 58  1  0  0  0  0
 15 59  1  0  0  0  0
 16 25  1  0  0  0  0
 16 60  1  0  0  0  0
 16 61  1  0  0  0  0
 17 18  1  0  0  0  0
 17 26  1  0  0  0  0
 17 62  1  0  0  0  0
 17 63  1  0  0  0  0
 18 19  1  0  0  0  0
 18 64  1  0  0  0  0
 18 65  1  0  0  0  0
 19 20  1  0  0  0  0
 20 21  1  0  0  0  0
 20 66  1  0  0  0  0
 20 67  1  0  0  0  0
 21 22  1  0  0  0  0
 21 68  1  0  0  0  0
 21 69  1  0  0  0  0
 22 23  1  0  0  0  0
 23 24  1  0  0  0  0
 23 70  1  0  0  0  0
 23 71  1  0  0  0  0
 24 25  1  0  0  0  0
 24 72  1  0  0  0  0
 24 73  1  0  0  0  0
 26 27  1  0  0  0  0
 27 28  1  0  0  0  0
 27 74  1  0  0  0  0
 27 75  1  0  0  0  0
 28 29  1  0  0  0  0
 28 76  1  0  0  0  0
 28 77  1  0  0  0  0
 29 30  1  0  0  0  0
 30 31  1  0  0  0  0
 30 78  1  0  0  0  0
 30 79  1  0  0  0  0
 31 32  1  0  0  0  0
 31 80  1  0  0  0  0
 31 81  1  0  0  0  0
 32 33  1  0  0  0  0
 33 34  1  0  0  0  0
 33 82  1  0  0  0  0
 33 83  1  0  0  0  0
 34 35  1  0  0  0  0
 34 84  1  0  0  0  0
 34 85  1  0  0  0  0
 35 86  1  0  0  0  0
 36 87  1  0  0  0  0
 36 88  1  0  0  0  0
 37 89  1  0  0  0  0
 37 90  1  0  0  0  0
 38 36  1  0  0  0  0
 38 91  1  0  0  0  0
 38 92  1  0  0  0  0
 39 37  1  0  0  0  0
 39 93  1  0  0  0  0
 39 94  1  0  0  0  0
 40 38  1  0  0  0  0
 40 95  1  0  0  0  0
 40 96  1  0  0  0  0
 41 39  1  0  0  0  0
 41 40  1  0  0  0  0
 41 97  1  0  0  0  0
 41 98  1  0  0  0  0
 42 36  1  0  0  0  0
 42 99  1  0  0  0  0
 42100  1  0  0  0  0
 43 37  1  0  0  0  0
 43101  1  0  0  0  0
 43102  1  0  0  0  0
 43103  1  0  0  0  0
M  END
>  <DRUGBANK_ID>
DB06804

>  <COMMON_NAME>
Nonoxynol-9

>  <CAS_NUMBER>
26027-38-3

>  <UNII>
48Q180SH9T

>  <SYNONYMS>
26-(Nonylphenoxy)-3,6,9,12,15,18,21,24-octaoxahexacosan-1-ol; Nonaethylene glycol mono(nonylphenyl) ether; Nonaethylene glycol nonylphenyl ether; Nonoxynol 9; Nonylphenol octa(oxyethylene) ethanol; P-Nonylphenyl polyethylene glycol ether; PEG-9 nonyl phenyl ether; Polyoxyethylene (9) nonyl phenyl ether; Tergitol NP-9; Tergitol NP9

$$$$
