
 OpenBabel10282417203D

 45 48  0  0  0  0  0  0  0  0999 V2000
    1.8703    1.2954    0.0187 C   0  0  0  0  0  0  0  0  0  0  0  0
    0.4775    1.2104   -0.0034 C   0  0  0  0  0  0  0  0  0  0  0  0
   -0.1567   -0.0514   -0.0800 C   0  0  0  0  0  0  0  0  0  0  0  0
    0.6051   -1.2318   -0.2053 C   0  0  0  0  0  0  0  0  0  0  0  0
    1.9803   -1.0955   -0.2017 C   0  0  0  0  0  0  0  0  0  0  0  0
    2.6065    0.1289   -0.0413 C   0  0  0  0  0  0  0  0  0  0  0  0
    3.9437    0.1641   -0.0155 F   0  0  0  0  0  0  0  0  0  0  0  0
    0.0588   -2.4530   -0.5131 O   0  0  0  0  0  0  0  0  0  0  0  0
    0.5909   -3.7246   -0.0234 C   0  0  0  0  0  0  0  0  0  0  0  0
    1.3930   -3.7417    1.2886 C   0  0  0  0  0  0  0  0  0  0  0  0
    2.9128   -4.0055    1.1338 C   0  0  0  0  0  0  0  0  0  0  0  0
    3.1965   -5.1828    0.3108 N   0  0  0  0  0  0  0  0  0  0  0  0
    2.6023   -5.1146   -1.0316 C   0  0  0  0  0  0  0  0  0  0  0  0
    1.0760   -4.8785   -0.9480 C   0  0  0  0  0  0  0  0  0  0  0  0
    3.9924   -6.2135    0.7930 C   0  0  0  0  0  0  0  0  0  0  0  0
    5.1874   -6.7502    0.1902 C   0  0  0  0  0  0  0  0  0  0  0  0
    5.6306   -7.8013    0.9997 C   0  0  0  0  0  0  0  0  0  0  0  0
    4.7486   -7.8595    2.0509 O   0  0  0  0  0  0  0  0  0  0  0  0
    3.8058   -6.8368    1.9658 N   0  0  0  0  0  0  0  0  0  0  0  0
    6.9132   -8.6670    0.8570 C   0  0  0  0  0  0  0  0  0  0  0  0
    8.1278   -8.0583    0.6203 N   0  0  0  0  0  0  0  0  0  0  0  0
    9.0639   -8.9977    0.6089 N   0  0  0  0  0  0  0  0  0  0  0  0
    8.4198  -10.1649    0.8120 N   0  0  0  0  0  0  0  0  0  0  0  0
    7.0555  -10.0208    0.9751 N   0  0  0  0  0  0  0  0  0  0  0  0
    9.1677  -11.4101    0.6409 C   0  0  0  0  0  0  0  0  0  0  0  0
    9.1088  -12.3578    1.7913 C   0  0  0  0  0  0  0  0  0  0  0  0
    8.8204  -13.5562    1.7180 O   0  0  0  0  0  0  0  0  0  0  0  0
    9.5542  -11.8549    2.9561 O   0  0  0  0  0  0  0  0  0  0  0  0
   -2.0541   -0.0646   -0.0312 Br  0  0  0  0  0  0  0  0  0  0  0  0
    2.3881    2.2485    0.0490 H   0  0  0  0  0  0  0  0  0  0  0  0
   -0.1004    2.1340    0.0115 H   0  0  0  0  0  0  0  0  0  0  0  0
    2.5970   -1.9419   -0.4134 H   0  0  0  0  0  0  0  0  0  0  0  0
   -0.3967   -4.1435    0.2028 H   0  0  0  0  0  0  0  0  0  0  0  0
    1.2245   -2.8279    1.8650 H   0  0  0  0  0  0  0  0  0  0  0  0
    0.9794   -4.5652    1.8836 H   0  0  0  0  0  0  0  0  0  0  0  0
    3.4304   -3.1807    0.6431 H   0  0  0  0  0  0  0  0  0  0  0  0
    3.3841   -4.0398    2.1204 H   0  0  0  0  0  0  0  0  0  0  0  0
    2.7887   -6.0421   -1.5871 H   0  0  0  0  0  0  0  0  0  0  0  0
    3.0352   -4.2880   -1.6055 H   0  0  0  0  0  0  0  0  0  0  0  0
    0.6905   -5.7909   -0.4590 H   0  0  0  0  0  0  0  0  0  0  0  0
    0.6154   -4.8575   -1.9413 H   0  0  0  0  0  0  0  0  0  0  0  0
    5.6523   -6.4108   -0.7209 H   0  0  0  0  0  0  0  0  0  0  0  0
    8.8534  -11.9136   -0.2810 H   0  0  0  0  0  0  0  0  0  0  0  0
   10.2328  -11.1611    0.5018 H   0  0  0  0  0  0  0  0  0  0  0  0
    9.4851  -12.5868    3.6089 H   0  0  0  0  0  0  0  0  0  0  0  0
  1  2  2  0  0  0  0
  1  6  1  0  0  0  0
  1 30  1  0  0  0  0
  2  3  1  0  0  0  0
  2 31  1  0  0  0  0
  3  4  2  0  0  0  0
  3 29  1  0  0  0  0
  4  5  1  0  0  0  0
  4  8  1  0  0  0  0
  5  6  2  0  0  0  0
  5 32  1  0  0  0  0
  6  7  1  0  0  0  0
  8  9  1  0  0  0  0
  9 10  1  0  0  0  0
  9 14  1  0  0  0  0
  9 33  1  0  0  0  0
 10 11  1  0  0  0  0
 10 34  1  0  0  0  0
 10 35  1  0  0  0  0
 11 12  1  0  0  0  0
 11 36  1  0  0  0  0
 11 37  1  0  0  0  0
 12 13  1  0  0  0  0
 12 15  1  0  0  0  0
 13 14  1  0  0  0  0
 13 38  1  0  0  0  0
 13 39  1  0  0  0  0
 14 40  1  0  0  0  0
 14 41  1  0  0  0  0
 15 16  1  0  0  0  0
 15 19  2  0  0  0  0
 16 17  2  0  0  0  0
 16 42  1  0  0  0  0
 17 18  1  0  0  0  0
 17 20  1  0  0  0  0
 18 19  1  0  0  0  0
 20 21  1  0  0  0  0
 20 24  2  0  0  0  0
 21 22  2  0  0  0  0
 22 23  1  0  0  0  0
 23 24  1  0  0  0  0
 23 25  1  0  0  0  0
 25 26  1  0  0  0  0
 25 43  1  0  0  0  0
 25 44  1  0  0  0  0
 26 27  2  0  0  0  0
 26 28  1  0  0  0  0
 28 45  1  0  0  0  0
M  END
>  <DRUGBANK_ID>
DB13024

>  <COMMON_NAME>
MK-8245

>  <CAS_NUMBER>
1030612-90-8

>  <UNII>
537E7QE8LX

$$$$
