
 OpenBabel10282417153D

 48 51  0  0  1  0  0  0  0  0999 V2000
   -1.2645   -0.0483    0.0127 I   0  0  0  0  0  0  0  0  0  0  0  0
   10.8772    2.2340    3.1372 O   0  0  0  0  0  0  0  0  0  0  0  0
   10.9413   -0.6886    1.0639 O   0  0  0  0  0  0  0  0  0  0  0  0
   13.1642    0.4045    2.0431 O   0  0  0  0  0  0  0  0  0  0  0  0
   13.3008    4.4820    1.2671 O   0  0  0  0  0  0  0  0  0  0  0  0
    8.6637    1.2539    2.3810 N   0  0  0  0  0  0  0  0  0  0  0  0
    6.4937    1.0399    2.9726 N   0  0  0  0  0  0  0  0  0  0  0  0
   11.1062    4.6536    1.1360 N   0  0  0  0  0  0  0  0  0  0  0  0
    8.2127    2.4401    0.2411 N   0  0  0  0  0  0  0  0  0  0  0  0
    4.2677    2.7700    1.3533 N   0  0  0  0  0  0  0  0  0  0  0  0
    6.1304    3.5989    0.2755 N   0  0  0  0  0  0  0  0  0  0  0  0
   10.8994    0.7264    1.2535 C   0  0  1  0  0  0  0  0  0  0  0  0
   10.1528    1.0784    2.5363 C   0  0  1  0  0  0  0  0  0  0  0  0
   12.2865    1.3646    1.4240 C   0  0  1  0  0  0  0  0  0  0  0  0
   12.0696    2.5784    2.3421 C   0  0  1  0  0  0  0  0  0  0  0  0
   12.2280    3.9858    1.5481 C   0  0  0  0  0  0  0  0  0  0  0  0
    7.8691    1.8828    1.4149 C   0  0  0  0  0  0  0  0  0  0  0  0
    7.7353    0.6429    3.2045 C   0  0  0  0  0  0  0  0  0  0  0  0
    6.5756    1.9177    1.9139 C   0  0  0  0  0  0  0  0  0  0  0  0
    5.6507    2.7341    1.1968 C   0  0  0  0  0  0  0  0  0  0  0  0
    9.9089    3.9825    1.0560 C   0  0  0  0  0  0  0  0  0  0  0  0
    7.3637    3.4149   -0.1482 C   0  0  0  0  0  0  0  0  0  0  0  0
    3.5830    2.5712    0.0716 C   0  0  0  0  0  0  0  0  0  0  0  0
    2.8809    1.2353    0.0353 C   0  0  0  0  0  0  0  0  0  0  0  0
    1.4808    1.1964    0.0343 C   0  0  0  0  0  0  0  0  0  0  0  0
    3.5981    0.0287   -0.0071 C   0  0  0  0  0  0  0  0  0  0  0  0
    0.8124   -0.0259    0.0215 C   0  0  0  0  0  0  0  0  0  0  0  0
    2.9229   -1.1937   -0.0048 C   0  0  0  0  0  0  0  0  0  0  0  0
    1.5277   -1.2220    0.0151 C   0  0  0  0  0  0  0  0  0  0  0  0
   11.5929   -1.0622    1.6869 H   0  0  0  0  0  0  0  0  0  0  0  0
   12.8783    0.2507    2.9594 H   0  0  0  0  0  0  0  0  0  0  0  0
   11.2035    5.4128    0.4745 H   0  0  0  0  0  0  0  0  0  0  0  0
    3.9459    2.1894    2.1164 H   0  0  0  0  0  0  0  0  0  0  0  0
   10.4114    1.1562    0.3790 H   0  0  0  0  0  0  0  0  0  0  0  0
   10.2661    0.2784    3.2819 H   0  0  0  0  0  0  0  0  0  0  0  0
   12.7328    1.6289    0.4588 H   0  0  0  0  0  0  0  0  0  0  0  0
   12.8960    2.6601    3.0637 H   0  0  0  0  0  0  0  0  0  0  0  0
    8.0281   -0.0838    3.9517 H   0  0  0  0  0  0  0  0  0  0  0  0
    9.0741    4.5366    1.4753 H   0  0  0  0  0  0  0  0  0  0  0  0
    9.8843    3.6383    0.0229 H   0  0  0  0  0  0  0  0  0  0  0  0
    9.9610    3.1081    1.6385 H   0  0  0  0  0  0  0  0  0  0  0  0
    7.7643    4.2114   -0.7785 H   0  0  0  0  0  0  0  0  0  0  0  0
    4.2146    2.6367   -0.8303 H   0  0  0  0  0  0  0  0  0  0  0  0
    2.8536    3.3816   -0.0368 H   0  0  0  0  0  0  0  0  0  0  0  0
    0.9215    2.1291    0.0451 H   0  0  0  0  0  0  0  0  0  0  0  0
    4.6867    0.0330   -0.0339 H   0  0  0  0  0  0  0  0  0  0  0  0
    3.4847   -2.1250   -0.0133 H   0  0  0  0  0  0  0  0  0  0  0  0
    1.0143   -2.1794    0.0241 H   0  0  0  0  0  0  0  0  0  0  0  0
  1 27  1  0  0  0  0
  2 13  1  0  0  0  0
  2 15  1  0  0  0  0
  3 30  1  0  0  0  0
  4 31  1  0  0  0  0
  5 16  2  0  0  0  0
  6 17  1  0  0  0  0
  6 18  1  0  0  0  0
  7 18  2  0  0  0  0
  7 19  1  0  0  0  0
  8 16  1  0  0  0  0
  8 21  1  0  0  0  0
  8 32  1  0  0  0  0
  9 17  2  0  0  0  0
  9 22  1  0  0  0  0
 10 20  1  0  0  0  0
 10 23  1  0  0  0  0
 10 33  1  0  0  0  0
 11 20  1  0  0  0  0
 11 22  2  0  0  0  0
 12  3  1  0  0  0  0
 12 13  1  0  0  0  0
 12 14  1  0  0  0  0
 12 34  1  6  0  0  0
 13  6  1  0  0  0  0
 13 35  1  1  0  0  0
 14  4  1  0  0  0  0
 14 15  1  0  0  0  0
 14 36  1  6  0  0  0
 15 37  1  1  0  0  0
 15 16  1  0  0  0  0
 17 19  1  0  0  0  0
 18 38  1  0  0  0  0
 19 20  2  0  0  0  0
 21 39  1  0  0  0  0
 21 40  1  0  0  0  0
 21 41  1  0  0  0  0
 22 42  1  0  0  0  0
 23 24  1  0  0  0  0
 23 43  1  0  0  0  0
 23 44  1  0  0  0  0
 24 25  2  0  0  0  0
 24 26  1  0  0  0  0
 25 27  1  0  0  0  0
 25 45  1  0  0  0  0
 26 28  2  0  0  0  0
 26 46  1  0  0  0  0
 27 29  2  0  0  0  0
 28 29  1  0  0  0  0
 28 47  1  0  0  0  0
 29 48  1  0  0  0  0
M  END
>  <DRUGBANK_ID>
DB05511

>  <COMMON_NAME>
Piclidenoson

>  <CAS_NUMBER>
152918-18-8

>  <UNII>
30679UMI0N

>  <SYNONYMS>
Piclidenoson

$$$$
