
 OpenBabel10282417113D

219225  0  0  0  0  0  0  0  0999 V2000
    3.1777    3.1887    1.4934 C   0  0  2  0  0  0  0  0  0  0  0  0
    5.1456    1.6550    1.5103 C   0  0  1  0  0  0  0  0  0  0  0  0
    3.8907    2.0824    2.2779 C   0  0  1  0  0  0  0  0  0  0  0  0
    4.5425   -1.3184    0.9716 C   0  0  1  0  0  0  0  0  0  0  0  0
    4.7414   -0.3900    2.1742 C   0  0  1  0  0  0  0  0  0  0  0  0
    4.7882   -0.5300   -0.3169 C   0  0  2  0  0  0  0  0  0  0  0  0
    5.7771    0.5813    2.1920 O   0  0  0  0  0  0  0  0  0  0  0  0
    1.9769    3.5494    2.1600 O   0  0  0  0  0  0  0  0  0  0  0  0
    1.3378    2.3820    1.6649 C   0  0  1  0  0  0  0  0  0  0  0  0
    3.9025    0.5906   -0.3653 C   0  0  2  0  0  0  0  0  0  0  0  0
    2.8530    2.6776    0.0878 C   0  0  2  0  0  0  0  0  0  0  0  0
    4.7443    1.2035    0.1040 C   0  0  1  0  0  0  0  0  0  0  0  0
    2.0850    1.1378    2.1561 O   0  0  0  0  0  0  0  0  0  0  0  0
    3.8003    0.8111    2.0390 O   0  0  0  0  0  0  0  0  0  0  0  0
    4.0592    2.2672   -0.5597 C   0  0  0  0  0  0  0  0  0  0  0  0
    4.0749    1.5167    0.7090 C   0  0  0  0  0  0  0  0  0  0  0  0
   -0.1064    2.3317    2.1691 C   0  0  1  0  0  0  0  0  0  0  0  0
    4.5435   -1.3987   -1.4772 N   0  0  0  0  0  0  0  0  0  0  0  0
    5.4553   -2.4034    1.0494 O   0  0  0  0  0  0  0  0  0  0  0  0
    4.2557    2.5648    3.5626 O   0  0  0  0  0  0  0  0  0  0  0  0
   -0.7287    1.1294    1.7111 C   0  0  0  0  0  0  0  0  0  0  0  0
    2.2200    3.7522   -0.6904 N   0  0  0  0  0  0  0  0  0  0  0  0
    5.9491    0.8453   -0.6584 N   0  0  0  0  0  0  0  0  0  0  0  0
    1.3438   -0.1130    1.6734 C   0  0  1  0  0  0  0  0  0  0  0  0
    2.5839    0.0756   -0.2547 O   0  0  0  0  0  0  0  0  0  0  0  0
   -0.1138    2.3585    3.6388 N   0  0  0  0  0  0  0  0  0  0  0  0
   -0.1006   -0.0663    2.1773 C   0  0  0  0  0  0  0  0  0  0  0  0
    2.1866   -1.3667    0.4136 N   0  0  0  0  0  0  0  0  0  0  0  0
    4.1367    1.3281   -1.6736 C   0  0  0  0  0  0  0  0  0  0  0  0
    1.3541   -0.1592    0.1541 C   0  0  0  0  0  0  0  0  0  0  0  0
    5.8255   -1.7823   -2.0856 C   0  0  0  0  0  0  0  0  0  0  0  0
    4.7545   -1.1473    2.9301 H   0  0  0  0  0  0  0  0  0  0  0  0
    1.8286   -0.9866    2.0563 H   0  0  0  0  0  0  0  0  0  0  0  0
    3.8141    4.0461    1.4246 H   0  0  0  0  0  0  0  0  0  0  0  0
    1.2171    5.7248   -0.0110 C   0  0  2  0  0  0  0  0  0  0  0  0
    1.0287    6.1328   -2.3431 C   0  0  1  0  0  0  0  0  0  0  0  0
    2.0633    5.5904   -1.7018 C   0  0  1  0  0  0  0  0  0  0  0  0
   -0.9262    6.2113   -4.7301 C   0  0  1  0  0  0  0  0  0  0  0  0
    0.5112    6.7476   -4.4385 C   0  0  1  0  0  0  0  0  0  0  0  0
   -0.8532    4.7302   -4.9689 C   0  0  2  0  0  0  0  0  0  0  0  0
    1.2817    3.6168    0.4248 C   0  0  1  0  0  0  0  0  0  0  0  0
    1.3999    6.0726   -3.6260 O   0  0  0  0  0  0  0  0  0  0  0  0
    2.4570    5.1482    0.8126 O   0  0  0  0  0  0  0  0  0  0  0  0
    1.8739    2.6972   -1.6915 O   0  0  0  0  0  0  0  0  0  0  0  0
    0.0542    4.5243   -6.1102 C   0  0  2  0  0  0  0  0  0  0  0  0
    0.0554    4.7581    0.0913 C   0  0  2  0  0  0  0  0  0  0  0  0
   -0.1458    5.3412   -2.0094 C   0  0  1  0  0  0  0  0  0  0  0  0
    1.3253    6.5039   -5.6074 O   0  0  0  0  0  0  0  0  0  0  0  0
   -0.7237    5.3567   -0.7211 C   0  0  0  0  0  0  0  0  0  0  0  0
    2.3392    1.2835   -2.6882 C   0  0  1  0  0  0  0  0  0  0  0  0
    1.4142    5.0383   -5.8417 C   0  0  0  0  0  0  0  0  0  0  0  0
    2.7129    1.7644    1.1809 C   0  0  1  0  0  0  0  0  0  0  0  0
   -2.2047    4.2135   -5.2400 N   0  0  0  0  0  0  0  0  0  0  0  0
    3.3292   -0.2194   -1.4367 C   0  0  0  0  0  0  0  0  0  0  0  0
    3.4167   -0.2946    1.1619 C   0  0  0  0  0  0  0  0  0  0  0  0
   -2.0147    6.3241   -3.8495 O   0  0  0  0  0  0  0  0  0  0  0  0
    3.4325    5.8576   -1.6450 O   0  0  0  0  0  0  0  0  0  0  0  0
   -1.1058    6.3138   -2.2478 N   0  0  0  0  0  0  0  0  0  0  0  0
   -0.1172    4.8673    1.4335 N   0  0  0  0  0  0  0  0  0  0  0  0
    1.1268    0.9671   -2.2307 C   0  0  3  0  0  0  0  0  0  0  0  0
   -0.4755    5.2882   -7.1894 O   0  0  0  0  0  0  0  0  0  0  0  0
    0.5021    1.9153   -1.6526 N   0  0  0  0  0  0  0  0  0  0  0  0
    4.7192    3.2551    0.8562 N   0  0  0  0  0  0  0  0  0  0  0  0
    0.2363    3.0600   -6.3652 C   0  0  0  0  0  0  0  0  0  0  0  0
   -2.1668    3.0108   -6.0042 C   0  0  0  0  0  0  0  0  0  0  0  0
   -0.6529    1.8830   -1.2179 C   0  0  0  0  0  0  0  0  0  0  0  0
    0.7673   -0.3646   -2.1964 C   0  0  0  0  0  0  0  0  0  0  0  0
    1.7474    6.3661    0.5265 H   0  0  0  0  0  0  0  0  0  0  0  0
    0.2478    7.7548   -4.0201 H   0  0  0  0  0  0  0  0  0  0  0  0
    3.0882    1.7372   -3.3756 H   0  0  0  0  0  0  0  0  0  0  0  0
    3.1777    3.1887    1.4934 C   0  0  2  0  0  0  0  0  0  0  0  0
    5.1456    1.6550    1.5103 C   0  0  1  0  0  0  0  0  0  0  0  0
    3.8907    2.0824    2.2779 C   0  0  1  0  0  0  0  0  0  0  0  0
    4.5425   -1.3184    0.9716 C   0  0  1  0  0  0  0  0  0  0  0  0
    4.7414   -0.3900    2.1742 C   0  0  1  0  0  0  0  0  0  0  0  0
    4.7882   -0.5300   -0.3169 C   0  0  2  0  0  0  0  0  0  0  0  0
    1.3378    2.3820    1.6649 C   0  0  1  0  0  0  0  0  0  0  0  0
    5.7771    0.5813    2.1920 O   0  0  0  0  0  0  0  0  0  0  0  0
    1.9769    3.5494    2.1600 O   0  0  0  0  0  0  0  0  0  0  0  0
    2.0850    1.1378    2.1561 O   0  0  0  0  0  0  0  0  0  0  0  0
    3.9025    0.5906   -0.3653 C   0  0  2  0  0  0  0  0  0  0  0  0
    2.8530    2.6776    0.0878 C   0  0  2  0  0  0  0  0  0  0  0  0
    4.7443    1.2035    0.1040 C   0  0  1  0  0  0  0  0  0  0  0  0
    3.8003    0.8111    2.0390 O   0  0  0  0  0  0  0  0  0  0  0  0
    4.0592    2.2672   -0.5597 C   0  0  0  0  0  0  0  0  0  0  0  0
    1.3438   -0.1130    1.6734 C   0  0  1  0  0  0  0  0  0  0  0  0
    4.0749    1.5167    0.7090 C   0  0  0  0  0  0  0  0  0  0  0  0
   -0.1064    2.3317    2.1691 C   0  0  1  0  0  0  0  0  0  0  0  0
    4.5435   -1.3987   -1.4772 N   0  0  0  0  0  0  0  0  0  0  0  0
   -0.1006   -0.0663    2.1773 C   0  0  0  0  0  0  0  0  0  0  0  0
   -0.7287    1.1294    1.7111 C   0  0  0  0  0  0  0  0  0  0  0  0
    5.4553   -2.4034    1.0494 O   0  0  0  0  0  0  0  0  0  0  0  0
    4.2557    2.5648    3.5626 O   0  0  0  0  0  0  0  0  0  0  0  0
    5.9491    0.8453   -0.6584 N   0  0  0  0  0  0  0  0  0  0  0  0
    2.2200    3.7522   -0.6904 N   0  0  0  0  0  0  0  0  0  0  0  0
    1.3541   -0.1592    0.1541 C   0  0  3  0  0  0  0  0  0  0  0  0
    2.5839    0.0756   -0.2547 O   0  0  0  0  0  0  0  0  0  0  0  0
   -0.1138    2.3585    3.6388 N   0  0  0  0  0  0  0  0  0  0  0  0
    0.3479   -1.9943   -0.4746 N   0  0  0  0  0  0  0  0  0  0  0  0
    4.1367    1.3281   -1.6736 C   0  0  0  0  0  0  0  0  0  0  0  0
    5.8255   -1.7823   -2.0856 C   0  0  0  0  0  0  0  0  0  0  0  0
    2.4605   -1.4385   -1.3153 C   0  0  0  0  0  0  0  0  0  0  0  0
    4.7545   -1.1473    2.9301 H   0  0  0  0  0  0  0  0  0  0  0  0
    3.8141    4.0461    1.4246 H   0  0  0  0  0  0  0  0  0  0  0  0
    1.8286   -0.9866    2.0563 H   0  0  0  0  0  0  0  0  0  0  0  0
    5.8249    2.4790    1.4437 H   0  0  0  0  0  0  0  0  0  0  0  0
    3.2360    1.2436    2.3904 H   0  0  0  0  0  0  0  0  0  0  0  0
    3.5422   -1.6982    0.9739 H   0  0  0  0  0  0  0  0  0  0  0  0
    5.8011   -0.1855   -0.3369 H   0  0  0  0  0  0  0  0  0  0  0  0
    1.3427    2.4039    0.5951 H   0  0  0  0  0  0  0  0  0  0  0  0
    2.1838    1.8455    0.1564 H   0  0  0  0  0  0  0  0  0  0  0  0
    4.0999    0.3522    0.1729 H   0  0  0  0  0  0  0  0  0  0  0  0
    4.7169    3.1111   -0.5507 H   0  0  0  0  0  0  0  0  0  0  0  0
    3.8156    1.9438   -1.5501 H   0  0  0  0  0  0  0  0  0  0  0  0
    3.3924    2.3322    0.5901 H   0  0  0  0  0  0  0  0  0  0  0  0
    5.0784    1.8879    0.7025 H   0  0  0  0  0  0  0  0  0  0  0  0
   -0.6447    3.1771    1.7945 H   0  0  0  0  0  0  0  0  0  0  0  0
    3.9741   -0.9068   -2.1659 H   0  0  0  0  0  0  0  0  0  0  0  0
    6.3916   -2.0522    1.0475 H   0  0  0  0  0  0  0  0  0  0  0  0
    4.8679    3.3492    3.4626 H   0  0  0  0  0  0  0  0  0  0  0  0
   -0.6457    1.1259    0.6443 H   0  0  0  0  0  0  0  0  0  0  0  0
   -1.7447    1.1280    2.0464 H   0  0  0  0  0  0  0  0  0  0  0  0
    2.6991    3.8222   -1.5881 H   0  0  0  0  0  0  0  0  0  0  0  0
    2.3179    4.6317   -0.1832 H   0  0  0  0  0  0  0  0  0  0  0  0
    5.6814    0.5445   -1.5956 H   0  0  0  0  0  0  0  0  0  0  0  0
    6.5636    1.6567   -0.7242 H   0  0  0  0  0  0  0  0  0  0  0  0
    2.4833   -0.3980    0.6203 H   0  0  0  0  0  0  0  0  0  0  0  0
   -1.0763    2.3249    3.9747 H   0  0  0  0  0  0  0  0  0  0  0  0
    0.3994    1.5527    3.9962 H   0  0  0  0  0  0  0  0  0  0  0  0
   -0.6348   -0.9170    1.8089 H   0  0  0  0  0  0  0  0  0  0  0  0
   -0.1058   -0.0781    3.2472 H   0  0  0  0  0  0  0  0  0  0  0  0
    1.9844   -0.4202   -0.8824 H   0  0  0  0  0  0  0  0  0  0  0  0
    2.8321    0.4346    0.5123 H   0  0  0  0  0  0  0  0  0  0  0  0
    5.1525    1.6612   -1.7184 H   0  0  0  0  0  0  0  0  0  0  0  0
    3.9406    0.6698   -2.4941 H   0  0  0  0  0  0  0  0  0  0  0  0
    3.4817    2.1724   -1.7293 H   0  0  0  0  0  0  0  0  0  0  0  0
    0.2253   -0.9299    0.3849 H   0  0  0  0  0  0  0  0  0  0  0  0
    0.8700    0.7132   -0.2325 H   0  0  0  0  0  0  0  0  0  0  0  0
    5.6453   -2.4237   -2.9229 H   0  0  0  0  0  0  0  0  0  0  0  0
    6.3417   -0.9043   -2.4134 H   0  0  0  0  0  0  0  0  0  0  0  0
    6.4228   -2.2984   -1.3631 H   0  0  0  0  0  0  0  0  0  0  0  0
    1.0846    7.0600   -1.8814 H   0  0  0  0  0  0  0  0  0  0  0  0
    1.8408    4.6239   -2.3979 H   0  0  0  0  0  0  0  0  0  0  0  0
   -1.3484    6.7623   -5.5297 H   0  0  0  0  0  0  0  0  0  0  0  0
   -0.4465    4.2006   -4.1206 H   0  0  0  0  0  0  0  0  0  0  0  0
    0.8168    3.0453   -0.4511 H   0  0  0  0  0  0  0  0  0  0  0  0
   -0.0882    3.7985   -0.3414 H   0  0  0  0  0  0  0  0  0  0  0  0
   -0.2497    4.3600   -2.4844 H   0  0  0  0  0  0  0  0  0  0  0  0
   -0.5832    6.3016   -0.2717 H   0  0  0  0  0  0  0  0  0  0  0  0
   -1.6112    4.8258   -0.5845 H   0  0  0  0  0  0  0  0  0  0  0  0
    2.0032    4.7958   -6.7252 H   0  0  0  0  0  0  0  0  0  0  0  0
    1.8262    4.4735   -4.9972 H   0  0  0  0  0  0  0  0  0  0  0  0
    2.5895    2.2199    2.0087 H   0  0  0  0  0  0  0  0  0  0  0  0
   -2.6783    4.9055   -5.8210 H   0  0  0  0  0  0  0  0  0  0  0  0
    2.8735   -0.1441   -2.0327 H   0  0  0  0  0  0  0  0  0  0  0  0
    4.7766   -0.0400   -1.9482 H   0  0  0  0  0  0  0  0  0  0  0  0
    2.1433    0.9386    0.9017 H   0  0  0  0  0  0  0  0  0  0  0  0
    4.9372    0.1058    1.0049 H   0  0  0  0  0  0  0  0  0  0  0  0
   -1.4222    5.6095   -3.1906 H   0  0  0  0  0  0  0  0  0  0  0  0
    3.4026    6.7209   -1.2215 H   0  0  0  0  0  0  0  0  0  0  0  0
   -2.3346    5.9122   -2.4564 H   0  0  0  0  0  0  0  0  0  0  0  0
   -1.3167    7.2896   -2.2640 H   0  0  0  0  0  0  0  0  0  0  0  0
    0.4814    4.1275    1.9194 H   0  0  0  0  0  0  0  0  0  0  0  0
   -1.0843    4.7069    1.5677 H   0  0  0  0  0  0  0  0  0  0  0  0
    1.1444    0.9771   -3.1335 H   0  0  0  0  0  0  0  0  0  0  0  0
   -0.4605    6.2349   -6.9264 H   0  0  0  0  0  0  0  0  0  0  0  0
    1.0587    1.8913   -0.8286 H   0  0  0  0  0  0  0  0  0  0  0  0
    6.1066    2.5842    0.2954 H   0  0  0  0  0  0  0  0  0  0  0  0
    5.8631    2.9272   -0.0669 H   0  0  0  0  0  0  0  0  0  0  0  0
    0.4979    2.4998   -5.4880 H   0  0  0  0  0  0  0  0  0  0  0  0
   -0.5766    2.4821   -6.6633 H   0  0  0  0  0  0  0  0  0  0  0  0
    0.7892    2.8563   -7.2338 H   0  0  0  0  0  0  0  0  0  0  0  0
   -3.0764    2.5672   -6.2788 H   0  0  0  0  0  0  0  0  0  0  0  0
   -1.7683    3.2917   -7.0400 H   0  0  0  0  0  0  0  0  0  0  0  0
   -1.5776    2.2286   -5.4296 H   0  0  0  0  0  0  0  0  0  0  0  0
   -0.7806    0.9247   -0.8468 H   0  0  0  0  0  0  0  0  0  0  0  0
   -0.9708    2.6360   -0.5663 H   0  0  0  0  0  0  0  0  0  0  0  0
   -0.9000    1.8815   -2.1753 H   0  0  0  0  0  0  0  0  0  0  0  0
    1.1334   -0.8817   -1.4825 H   0  0  0  0  0  0  0  0  0  0  0  0
    0.0563   -0.3510   -1.4127 H   0  0  0  0  0  0  0  0  0  0  0  0
    1.4034   -1.2657   -2.2355 H   0  0  0  0  0  0  0  0  0  0  0  0
    5.8249    2.4790    1.4437 H   0  0  0  0  0  0  0  0  0  0  0  0
    3.2360    1.2436    2.3904 H   0  0  0  0  0  0  0  0  0  0  0  0
    3.5422   -1.6982    0.9739 H   0  0  0  0  0  0  0  0  0  0  0  0
    5.8011   -0.1855   -0.3369 H   0  0  0  0  0  0  0  0  0  0  0  0
    1.3427    2.4039    0.5951 H   0  0  0  0  0  0  0  0  0  0  0  0
    2.1838    1.8455    0.1564 H   0  0  0  0  0  0  0  0  0  0  0  0
    4.0999    0.3522    0.1729 H   0  0  0  0  0  0  0  0  0  0  0  0
    4.7169    3.1111   -0.5507 H   0  0  0  0  0  0  0  0  0  0  0  0
    3.8156    1.9438   -1.5501 H   0  0  0  0  0  0  0  0  0  0  0  0
    3.3924    2.3322    0.5901 H   0  0  0  0  0  0  0  0  0  0  0  0
    5.0784    1.8879    0.7025 H   0  0  0  0  0  0  0  0  0  0  0  0
   -0.6447    3.1771    1.7945 H   0  0  0  0  0  0  0  0  0  0  0  0
    3.9741   -0.9068   -2.1659 H   0  0  0  0  0  0  0  0  0  0  0  0
   -0.6348   -0.9170    1.8089 H   0  0  0  0  0  0  0  0  0  0  0  0
   -0.1058   -0.0781    3.2472 H   0  0  0  0  0  0  0  0  0  0  0  0
   -0.6457    1.1259    0.6443 H   0  0  0  0  0  0  0  0  0  0  0  0
   -1.7447    1.1280    2.0464 H   0  0  0  0  0  0  0  0  0  0  0  0
    6.3916   -2.0522    1.0475 H   0  0  0  0  0  0  0  0  0  0  0  0
    4.8679    3.3492    3.4626 H   0  0  0  0  0  0  0  0  0  0  0  0
    5.6814    0.5445   -1.5956 H   0  0  0  0  0  0  0  0  0  0  0  0
    6.5636    1.6567   -0.7242 H   0  0  0  0  0  0  0  0  0  0  0  0
    2.6991    3.8222   -1.5881 H   0  0  0  0  0  0  0  0  0  0  0  0
    2.3179    4.6317   -0.1832 H   0  0  0  0  0  0  0  0  0  0  0  0
    0.8700    0.7132   -0.2325 H   0  0  0  0  0  0  0  0  0  0  0  0
    2.4833   -0.3980    0.6203 H   0  0  0  0  0  0  0  0  0  0  0  0
   -1.0763    2.3249    3.9747 H   0  0  0  0  0  0  0  0  0  0  0  0
    0.3994    1.5527    3.9962 H   0  0  0  0  0  0  0  0  0  0  0  0
    0.4338   -1.8982   -1.4140 H   0  0  0  0  0  0  0  0  0  0  0  0
    1.1173   -2.3861    0.0390 H   0  0  0  0  0  0  0  0  0  0  0  0
    5.1525    1.6612   -1.7184 H   0  0  0  0  0  0  0  0  0  0  0  0
    3.9406    0.6698   -2.4941 H   0  0  0  0  0  0  0  0  0  0  0  0
    3.4817    2.1724   -1.7293 H   0  0  0  0  0  0  0  0  0  0  0  0
    5.6453   -2.4237   -2.9229 H   0  0  0  0  0  0  0  0  0  0  0  0
    6.3417   -0.9043   -2.4134 H   0  0  0  0  0  0  0  0  0  0  0  0
    6.4228   -2.2984   -1.3631 H   0  0  0  0  0  0  0  0  0  0  0  0
    3.3236   -1.6032   -0.4799 H   0  0  0  0  0  0  0  0  0  0  0  0
    2.4883   -0.8203   -2.7555 H   0  0  0  0  0  0  0  0  0  0  0  0
    2.2630    0.5351   -1.4529 H   0  0  0  0  0  0  0  0  0  0  0  0
  1 34  1  6  0  0  0
  2  3  1  0  0  0  0
  2106  1  6  0  0  0
  2  7  1  0  0  0  0
  3  1  1  0  0  0  0
  3 20  1  0  0  0  0
  3107  1  1  0  0  0
  4  5  1  0  0  0  0
  4 19  1  0  0  0  0
  4108  1  1  0  0  0
  5  7  1  0  0  0  0
  5 32  1  1  0  0  0
  6  4  1  0  0  0  0
  6 10  1  0  0  0  0
  6109  1  6  0  0  0
  6 18  1  0  0  0  0
  8  1  1  0  0  0  0
  9110  1  6  0  0  0
  9  8  1  0  0  0  0
 10 16  1  0  0  0  0
 10 25  1  1  0  0  0
 11  1  1  0  0  0  0
 11111  1  1  0  0  0
 11 22  1  0  0  0  0
 12 15  1  0  0  0  0
 12 23  1  0  0  0  0
 12  2  1  0  0  0  0
 12112  1  1  0  0  0
 13  9  1  0  0  0  0
 14  5  1  0  0  0  0
 15 11  1  0  0  0  0
 15113  1  0  0  0  0
 15114  1  0  0  0  0
 16 14  1  0  0  0  0
 16115  1  0  0  0  0
 16116  1  0  0  0  0
 17  9  1  0  0  0  0
 17 26  1  0  0  0  0
 17117  1  6  0  0  0
 18118  1  0  0  0  0
 19119  1  0  0  0  0
 20120  1  0  0  0  0
 21 17  1  0  0  0  0
 21121  1  0  0  0  0
 21122  1  0  0  0  0
 22123  1  0  0  0  0
 22124  1  0  0  0  0
 23125  1  0  0  0  0
 23126  1  0  0  0  0
 24 13  1  0  0  0  0
 24 33  1  1  0  0  0
 25127  1  0  0  0  0
 26128  1  0  0  0  0
 26129  1  0  0  0  0
 27 21  1  0  0  0  0
 27 24  1  0  0  0  0
 27130  1  0  0  0  0
 27131  1  0  0  0  0
 28 30  1  0  0  0  0
 28132  1  0  0  0  0
 28133  1  0  0  0  0
 29 10  1  0  0  0  0
 29134  1  0  0  0  0
 29135  1  0  0  0  0
 29136  1  0  0  0  0
 30 24  1  0  0  0  0
 30137  1  0  0  0  0
 30138  1  0  0  0  0
 31 18  1  0  0  0  0
 31139  1  0  0  0  0
 31140  1  0  0  0  0
 31141  1  0  0  0  0
 35 43  1  0  0  0  0
 35 68  1  1  0  0  0
 36 47  1  0  0  0  0
 36 37  1  0  0  0  0
 36142  1  1  0  0  0
 36 42  1  0  0  0  0
 37 35  1  0  0  0  0
 37 57  1  0  0  0  0
 37143  1  6  0  0  0
 38 39  1  0  0  0  0
 38 56  1  0  0  0  0
 38144  1  6  0  0  0
 39 69  1  1  0  0  0
 39 42  1  0  0  0  0
 40 45  1  0  0  0  0
 40 38  1  0  0  0  0
 40145  1  1  0  0  0
 40 53  1  0  0  0  0
 41146  1  1  0  0  0
 41 43  1  0  0  0  0
 44 41  1  0  0  0  0
 45 61  1  6  0  0  0
 45 51  1  0  0  0  0
 46 35  1  0  0  0  0
 46147  1  6  0  0  0
 46 59  1  0  0  0  0
 47 49  1  0  0  0  0
 47 58  1  0  0  0  0
 47148  1  6  0  0  0
 48 39  1  0  0  0  0
 49 46  1  0  0  0  0
 49149  1  0  0  0  0
 49150  1  0  0  0  0
 50 44  1  0  0  0  0
 50 60  1  0  0  0  0
 50 70  1  6  0  0  0
 51 48  1  0  0  0  0
 51151  1  0  0  0  0
 51152  1  0  0  0  0
 52 63  1  0  0  0  0
 52 41  1  0  0  0  0
 52153  1  1  0  0  0
 53154  1  0  0  0  0
 54 50  1  0  0  0  0
 54155  1  0  0  0  0
 54156  1  0  0  0  0
 55 54  1  0  0  0  0
 55 52  1  0  0  0  0
 55157  1  0  0  0  0
 55158  1  0  0  0  0
 56159  1  0  0  0  0
 57160  1  0  0  0  0
 58161  1  0  0  0  0
 58162  1  0  0  0  0
 59163  1  0  0  0  0
 59164  1  0  0  0  0
 60 62  1  0  0  0  0
 60165  1  0  0  0  0
 61166  1  0  0  0  0
 62167  1  0  0  0  0
 63168  1  0  0  0  0
 63169  1  0  0  0  0
 64 45  1  0  0  0  0
 64170  1  0  0  0  0
 64171  1  0  0  0  0
 64172  1  0  0  0  0
 65 53  1  0  0  0  0
 65173  1  0  0  0  0
 65174  1  0  0  0  0
 65175  1  0  0  0  0
 66 62  1  0  0  0  0
 66176  1  0  0  0  0
 66177  1  0  0  0  0
 66178  1  0  0  0  0
 67 60  1  0  0  0  0
 67179  1  0  0  0  0
 67180  1  0  0  0  0
 67181  1  0  0  0  0
 71104  1  6  0  0  0
 72 73  1  0  0  0  0
 72182  1  6  0  0  0
 72 78  1  0  0  0  0
 73 71  1  0  0  0  0
 73 93  1  0  0  0  0
 73183  1  1  0  0  0
 74 75  1  0  0  0  0
 74 92  1  0  0  0  0
 74184  1  1  0  0  0
 75 78  1  0  0  0  0
 75103  1  1  0  0  0
 76 74  1  0  0  0  0
 76 81  1  0  0  0  0
 76185  1  6  0  0  0
 76 89  1  0  0  0  0
 77186  1  6  0  0  0
 77 79  1  0  0  0  0
 79 71  1  0  0  0  0
 80 77  1  0  0  0  0
 81 87  1  0  0  0  0
 81 97  1  1  0  0  0
 82 71  1  0  0  0  0
 82187  1  1  0  0  0
 82 95  1  0  0  0  0
 83 85  1  0  0  0  0
 83 94  1  0  0  0  0
 83 72  1  0  0  0  0
 83188  1  1  0  0  0
 84 75  1  0  0  0  0
 85 82  1  0  0  0  0
 85189  1  0  0  0  0
 85190  1  0  0  0  0
 86 80  1  0  0  0  0
 86105  1  1  0  0  0
 87 84  1  0  0  0  0
 87191  1  0  0  0  0
 87192  1  0  0  0  0
 88 77  1  0  0  0  0
 88 98  1  0  0  0  0
 88193  1  6  0  0  0
 89194  1  0  0  0  0
 90 91  1  0  0  0  0
 90 86  1  0  0  0  0
 90195  1  0  0  0  0
 90196  1  0  0  0  0
 91 88  1  0  0  0  0
 91197  1  0  0  0  0
 91198  1  0  0  0  0
 92199  1  0  0  0  0
 93200  1  0  0  0  0
 94201  1  0  0  0  0
 94202  1  0  0  0  0
 95203  1  0  0  0  0
 95204  1  0  0  0  0
 96 86  1  0  0  0  0
 96 99  1  0  0  0  0
 96205  1  0  0  0  0
 97206  1  0  0  0  0
 98207  1  0  0  0  0
 98208  1  0  0  0  0
 99209  1  0  0  0  0
 99210  1  0  0  0  0
100 81  1  0  0  0  0
100211  1  0  0  0  0
100212  1  0  0  0  0
100213  1  0  0  0  0
101 89  1  0  0  0  0
101214  1  0  0  0  0
101215  1  0  0  0  0
101216  1  0  0  0  0
102 96  1  0  0  0  0
102217  1  0  0  0  0
102218  1  0  0  0  0
102219  1  0  0  0  0
M  END
>  <DRUGBANK_ID>
DB00798

>  <SECONDARY_ACCESSION_NUMBERS>
APRD00214

>  <COMMON_NAME>
Gentamicin

>  <CAS_NUMBER>
1403-66-3

>  <UNII>
T6Z9V48IKG

>  <SYNONYMS>
Gentamicin; Gentamicina

$$$$
