Carotene-beta
 OpenBabel10282417163D

 96 97  0  0  0  0  0  0  0  0999 V2000
    0.1499   -1.0967    0.1394 C   0  0  0  0  0  0  0  0  0  0  0  0
    0.0703   -2.5522    0.3945 C   0  0  0  0  0  0  0  0  0  0  0  0
    1.5041    1.0389   -0.1346 C   0  0  0  0  0  0  0  0  0  0  0  0
   -0.9265    1.1501   -0.5449 C   0  0  0  0  0  0  0  0  0  0  0  0
   -1.0131   -3.3219    0.6186 C   0  0  0  0  0  0  0  0  0  0  0  0
    0.2387    1.8319    0.1374 C   0  0  0  0  0  0  0  0  0  0  0  0
   -1.0484   -4.7726    0.8076 C   0  0  0  0  0  0  0  0  0  0  0  0
   -2.2436   -5.4084    0.8852 C   0  0  0  0  0  0  0  0  0  0  0  0
    0.2933   -5.4534    0.9107 C   0  0  0  0  0  0  0  0  0  0  0  0
   -2.3949   -6.8315    1.1080 C   0  0  0  0  0  0  0  0  0  0  0  0
   -3.5326   -7.5421    1.2169 C   0  0  0  0  0  0  0  0  0  0  0  0
   -3.5454   -8.9977    1.4691 C   0  0  0  0  0  0  0  0  0  0  0  0
   -4.7116   -9.6743    1.5746 C   0  0  0  0  0  0  0  0  0  0  0  0
   -2.1994   -9.6814    1.6051 C   0  0  0  0  0  0  0  0  0  0  0  0
   -4.8214  -11.1044    1.8219 C   0  0  0  0  0  0  0  0  0  0  0  0
   -5.9821  -11.7696    1.9240 C   0  0  0  0  0  0  0  0  0  0  0  0
   -6.0657  -13.2064    2.1728 C   0  0  0  0  0  0  0  0  0  0  0  0
   -7.2322  -13.8863    2.2789 C   0  0  0  0  0  0  0  0  0  0  0  0
   -7.2482  -15.3391    2.5303 C   0  0  0  0  0  0  0  0  0  0  0  0
   -8.5301  -13.1233    2.1296 C   0  0  0  0  0  0  0  0  0  0  0  0
   -8.3648  -16.0795    2.6438 C   0  0  0  0  0  0  0  0  0  0  0  0
   -8.4811  -17.5122    2.8688 C   0  0  0  0  0  0  0  0  0  0  0  0
   -9.6756  -18.1554    2.9409 C   0  0  0  0  0  0  0  0  0  0  0  0
   -9.7313  -19.6052    3.1431 C   0  0  0  0  0  0  0  0  0  0  0  0
  -10.9752  -17.3886    2.8242 C   0  0  0  0  0  0  0  0  0  0  0  0
  -10.8371  -20.3538    3.3282 C   0  0  0  0  0  0  0  0  0  0  0  0
  -10.8555  -21.7907    3.6122 C   0  0  0  0  0  0  0  0  0  0  0  0
  -10.0115  -23.8161    4.8483 C   0  0  0  0  0  0  0  0  0  0  0  0
  -11.9838  -24.0873    3.3618 C   0  0  0  0  0  0  0  0  0  0  0  0
  -10.6397  -24.6719    3.7582 C   0  0  0  0  0  0  0  0  0  0  0  0
    1.3575   -0.4694    0.0247 C   0  0  0  0  0  0  0  0  0  0  0  0
    2.7231   -1.1269    0.0192 C   0  0  0  0  0  0  0  0  0  0  0  0
   -9.2529  -21.5394    5.5752 C   0  0  0  0  0  0  0  0  0  0  0  0
  -10.0929  -22.3271    4.5969 C   0  0  0  0  0  0  0  0  0  0  0  0
   -2.1314   -0.9011   -1.0755 C   0  0  0  0  0  0  0  0  0  0  0  0
   -1.1734   -0.2944   -0.0138 C   0  0  0  0  0  0  0  0  0  0  0  0
   -1.8618   -0.1799    1.3667 C   0  0  0  0  0  0  0  0  0  0  0  0
  -13.2796  -22.0687    2.7520 C   0  0  0  0  0  0  0  0  0  0  0  0
  -11.8445  -22.6514    2.7784 C   0  0  0  0  0  0  0  0  0  0  0  0
  -11.3372  -22.7467    1.3249 C   0  0  0  0  0  0  0  0  0  0  0  0
    1.0232   -3.0641    0.4116 H   0  0  0  0  0  0  0  0  0  0  0  0
    2.2842    1.4141    0.5405 H   0  0  0  0  0  0  0  0  0  0  0  0
    1.8470    1.2475   -1.1568 H   0  0  0  0  0  0  0  0  0  0  0  0
   -0.7192    1.1226   -1.6246 H   0  0  0  0  0  0  0  0  0  0  0  0
   -1.8315    1.7588   -0.4251 H   0  0  0  0  0  0  0  0  0  0  0  0
   -1.9955   -2.8770    0.6785 H   0  0  0  0  0  0  0  0  0  0  0  0
    0.3502    2.8538   -0.2439 H   0  0  0  0  0  0  0  0  0  0  0  0
    0.0667    1.9197    1.2155 H   0  0  0  0  0  0  0  0  0  0  0  0
   -3.1696   -4.8422    0.7815 H   0  0  0  0  0  0  0  0  0  0  0  0
    0.8571   -5.3257   -0.0195 H   0  0  0  0  0  0  0  0  0  0  0  0
    0.8627   -5.0321    1.7455 H   0  0  0  0  0  0  0  0  0  0  0  0
    0.2469   -6.5262    1.0889 H   0  0  0  0  0  0  0  0  0  0  0  0
   -1.4671   -7.3721    1.2093 H   0  0  0  0  0  0  0  0  0  0  0  0
   -4.4901   -7.0336    1.1229 H   0  0  0  0  0  0  0  0  0  0  0  0
   -5.6508   -9.1311    1.4703 H   0  0  0  0  0  0  0  0  0  0  0  0
   -1.6190   -9.5702    0.6831 H   0  0  0  0  0  0  0  0  0  0  0  0
   -1.6409   -9.2635    2.4494 H   0  0  0  0  0  0  0  0  0  0  0  0
   -2.2476  -10.7531    1.7907 H   0  0  0  0  0  0  0  0  0  0  0  0
   -3.9174  -11.6868    1.9334 H   0  0  0  0  0  0  0  0  0  0  0  0
   -6.9030  -11.2072    1.8157 H   0  0  0  0  0  0  0  0  0  0  0  0
   -5.1188  -13.7359    2.2746 H   0  0  0  0  0  0  0  0  0  0  0  0
   -6.2817  -15.8329    2.6220 H   0  0  0  0  0  0  0  0  0  0  0  0
   -8.5954  -12.3477    2.9014 H   0  0  0  0  0  0  0  0  0  0  0  0
   -8.5735  -12.6535    1.1402 H   0  0  0  0  0  0  0  0  0  0  0  0
   -9.4403  -13.7104    2.2198 H   0  0  0  0  0  0  0  0  0  0  0  0
   -9.3184  -15.5824    2.5497 H   0  0  0  0  0  0  0  0  0  0  0  0
   -7.5480  -18.0630    2.9729 H   0  0  0  0  0  0  0  0  0  0  0  0
   -8.7641  -20.1064    3.1918 H   0  0  0  0  0  0  0  0  0  0  0  0
  -11.0343  -16.6232    3.6068 H   0  0  0  0  0  0  0  0  0  0  0  0
  -11.0378  -16.9117    1.8404 H   0  0  0  0  0  0  0  0  0  0  0  0
  -11.8800  -17.9853    2.9263 H   0  0  0  0  0  0  0  0  0  0  0  0
  -11.8214  -19.9059    3.2928 H   0  0  0  0  0  0  0  0  0  0  0  0
   -8.9601  -24.1112    4.9486 H   0  0  0  0  0  0  0  0  0  0  0  0
  -10.5014  -24.0317    5.8058 H   0  0  0  0  0  0  0  0  0  0  0  0
  -12.6290  -24.0721    4.2522 H   0  0  0  0  0  0  0  0  0  0  0  0
  -12.4760  -24.7524    2.6410 H   0  0  0  0  0  0  0  0  0  0  0  0
  -10.7647  -25.6975    4.1233 H   0  0  0  0  0  0  0  0  0  0  0  0
   -9.9733  -24.7289    2.8899 H   0  0  0  0  0  0  0  0  0  0  0  0
    3.2204   -0.9230   -0.9364 H   0  0  0  0  0  0  0  0  0  0  0  0
    3.3453   -0.7203    0.8236 H   0  0  0  0  0  0  0  0  0  0  0  0
    2.7223   -2.2087    0.1387 H   0  0  0  0  0  0  0  0  0  0  0  0
   -9.5741  -21.7600    6.5977 H   0  0  0  0  0  0  0  0  0  0  0  0
   -8.1988  -21.8114    5.4649 H   0  0  0  0  0  0  0  0  0  0  0  0
   -9.3279  -20.4562    5.4711 H   0  0  0  0  0  0  0  0  0  0  0  0
   -2.4919   -1.9061   -0.8719 H   0  0  0  0  0  0  0  0  0  0  0  0
   -3.0347   -0.2897   -1.1743 H   0  0  0  0  0  0  0  0  0  0  0  0
   -1.6417   -0.9518   -2.0555 H   0  0  0  0  0  0  0  0  0  0  0  0
   -2.7957    0.3864    1.2959 H   0  0  0  0  0  0  0  0  0  0  0  0
   -2.1131   -1.1467    1.8074 H   0  0  0  0  0  0  0  0  0  0  0  0
   -1.2180    0.3246    2.0964 H   0  0  0  0  0  0  0  0  0  0  0  0
  -13.3230  -21.0823    2.2800 H   0  0  0  0  0  0  0  0  0  0  0  0
  -13.9549  -22.7162    2.1788 H   0  0  0  0  0  0  0  0  0  0  0  0
  -13.6904  -21.9778    3.7645 H   0  0  0  0  0  0  0  0  0  0  0  0
  -11.9944  -23.3828    0.7199 H   0  0  0  0  0  0  0  0  0  0  0  0
  -11.3063  -21.7624    0.8450 H   0  0  0  0  0  0  0  0  0  0  0  0
  -10.3287  -23.1699    1.2737 H   0  0  0  0  0  0  0  0  0  0  0  0
  1 31  2  0  0  0  0
  1 36  1  0  0  0  0
  1  2  1  0  0  0  0
  2  5  2  0  0  0  0
  2 41  1  0  0  0  0
  3  6  1  0  0  0  0
  3 42  1  0  0  0  0
  3 43  1  0  0  0  0
  4  6  1  0  0  0  0
  4 44  1  0  0  0  0
  4 45  1  0  0  0  0
  5  7  1  0  0  0  0
  5 46  1  0  0  0  0
  6 47  1  0  0  0  0
  6 48  1  0  0  0  0
  7  8  2  0  0  0  0
  7  9  1  0  0  0  0
  8 10  1  0  0  0  0
  8 49  1  0  0  0  0
  9 50  1  0  0  0  0
  9 51  1  0  0  0  0
  9 52  1  0  0  0  0
 10 11  2  0  0  0  0
 10 53  1  0  0  0  0
 11 12  1  0  0  0  0
 11 54  1  0  0  0  0
 12 13  2  0  0  0  0
 12 14  1  0  0  0  0
 13 15  1  0  0  0  0
 13 55  1  0  0  0  0
 14 56  1  0  0  0  0
 14 57  1  0  0  0  0
 14 58  1  0  0  0  0
 15 16  2  0  0  0  0
 15 59  1  0  0  0  0
 16 17  1  0  0  0  0
 16 60  1  0  0  0  0
 17 18  2  0  0  0  0
 17 61  1  0  0  0  0
 18 19  1  0  0  0  0
 18 20  1  0  0  0  0
 19 21  2  0  0  0  0
 19 62  1  0  0  0  0
 20 63  1  0  0  0  0
 20 64  1  0  0  0  0
 20 65  1  0  0  0  0
 21 22  1  0  0  0  0
 21 66  1  0  0  0  0
 22 23  2  0  0  0  0
 22 67  1  0  0  0  0
 23 24  1  0  0  0  0
 23 25  1  0  0  0  0
 24 26  2  0  0  0  0
 24 68  1  0  0  0  0
 25 69  1  0  0  0  0
 25 70  1  0  0  0  0
 25 71  1  0  0  0  0
 26 27  1  0  0  0  0
 26 72  1  0  0  0  0
 27 34  2  0  0  0  0
 27 39  1  0  0  0  0
 28 30  1  0  0  0  0
 28 73  1  0  0  0  0
 28 74  1  0  0  0  0
 29 30  1  0  0  0  0
 29 75  1  0  0  0  0
 29 76  1  0  0  0  0
 30 77  1  0  0  0  0
 30 78  1  0  0  0  0
 31  3  1  0  0  0  0
 31 32  1  0  0  0  0
 32 79  1  0  0  0  0
 32 80  1  0  0  0  0
 32 81  1  0  0  0  0
 33 82  1  0  0  0  0
 33 83  1  0  0  0  0
 33 84  1  0  0  0  0
 34 28  1  0  0  0  0
 34 33  1  0  0  0  0
 35 85  1  0  0  0  0
 35 86  1  0  0  0  0
 35 87  1  0  0  0  0
 36  4  1  0  0  0  0
 36 35  1  0  0  0  0
 36 37  1  0  0  0  0
 37 88  1  0  0  0  0
 37 89  1  0  0  0  0
 37 90  1  0  0  0  0
 38 91  1  0  0  0  0
 38 92  1  0  0  0  0
 38 93  1  0  0  0  0
 39 29  1  0  0  0  0
 39 38  1  0  0  0  0
 39 40  1  0  0  0  0
 40 94  1  0  0  0  0
 40 95  1  0  0  0  0
 40 96  1  0  0  0  0
M  END
>  <DRUGBANK_ID>
DB06755

>  <COMMON_NAME>
Beta carotene

>  <CAS_NUMBER>
7235-40-7

>  <UNII>
01YAE03M7J

>  <SYNONYMS>
all-trans-β-carotene; Beta carotene; beta-carotene; Betacarotene; β-Karotin

$$$$
