
 OpenBabel10282417213D

 31 31  0  0  0  0  0  0  0  0999 V2000
    1.0238   -0.0530    0.0104 C   0  0  0  0  0  0  0  0  0  0  0  0
    0.5903   -0.9714   -0.9850 O   0  0  0  0  0  0  0  0  0  0  0  0
    1.0291   -0.6932   -2.2398 C   0  0  0  0  0  0  0  0  0  0  0  0
    1.7249    0.2615   -2.5692 O   0  0  0  0  0  0  0  0  0  0  0  0
    0.5987   -1.6772   -3.2237 C   0  0  0  0  0  0  0  0  0  0  0  0
   -0.1167   -2.6879   -2.7696 C   0  0  0  0  0  0  0  0  0  0  0  0
   -0.6697   -3.7192   -3.5777 C   0  0  0  0  0  0  0  0  0  0  0  0
   -1.3615   -4.3963   -2.8263 O   0  0  0  0  0  0  0  0  0  0  0  0
   -0.3889   -3.8217   -4.8921 O   0  0  0  0  0  0  0  0  0  0  0  0
   -0.9334   -4.7951   -5.8897 C   0  0  0  0  0  0  0  0  0  0  0  0
   -0.5753   -6.2722   -5.6291 C   0  0  0  0  0  0  0  0  0  0  0  0
   -1.0988   -6.7537   -4.3579 N   0  0  0  0  0  0  0  0  0  0  0  0
   -2.1954   -6.2296   -3.7431 C   0  0  0  0  0  0  0  0  0  0  0  0
   -3.0340   -5.4846   -4.2323 O   0  0  0  0  0  0  0  0  0  0  0  0
   -2.1394   -6.6601   -2.2966 C   0  0  0  0  0  0  0  0  0  0  0  0
   -1.6323   -8.0541   -2.4933 C   0  0  0  0  0  0  0  0  0  0  0  0
   -0.9228   -7.9908   -3.8321 C   0  0  0  0  0  0  0  0  0  0  0  0
   -0.3958   -8.9458   -4.3791 O   0  0  0  0  0  0  0  0  0  0  0  0
    0.6246   -0.3634    0.9817 H   0  0  0  0  0  0  0  0  0  0  0  0
    0.6427    0.9441   -0.2204 H   0  0  0  0  0  0  0  0  0  0  0  0
    2.1149   -0.0634    0.0650 H   0  0  0  0  0  0  0  0  0  0  0  0
    0.8387   -1.5921   -4.2692 H   0  0  0  0  0  0  0  0  0  0  0  0
   -0.4007   -2.7914   -1.7172 H   0  0  0  0  0  0  0  0  0  0  0  0
   -2.0104   -4.6573   -6.0472 H   0  0  0  0  0  0  0  0  0  0  0  0
   -0.4998   -4.5075   -6.8608 H   0  0  0  0  0  0  0  0  0  0  0  0
   -0.9252   -6.9416   -6.4300 H   0  0  0  0  0  0  0  0  0  0  0  0
    0.5200   -6.3708   -5.6149 H   0  0  0  0  0  0  0  0  0  0  0  0
   -1.4128   -6.1309   -1.6552 H   0  0  0  0  0  0  0  0  0  0  0  0
   -3.1212   -6.5264   -1.8471 H   0  0  0  0  0  0  0  0  0  0  0  0
   -0.9311   -8.3373   -1.7059 H   0  0  0  0  0  0  0  0  0  0  0  0
   -2.4971   -8.7112   -2.5324 H   0  0  0  0  0  0  0  0  0  0  0  0
  1  2  1  0  0  0  0
  1 19  1  0  0  0  0
  1 20  1  0  0  0  0
  1 21  1  0  0  0  0
  2  3  1  0  0  0  0
  3  4  2  0  0  0  0
  3  5  1  0  0  0  0
  5  6  2  0  0  0  0
  5 22  1  0  0  0  0
  6  7  1  0  0  0  0
  6 23  1  0  0  0  0
  7  8  2  0  0  0  0
  7  9  1  0  0  0  0
  9 10  1  0  0  0  0
 10 11  1  0  0  0  0
 10 24  1  0  0  0  0
 10 25  1  0  0  0  0
 11 12  1  0  0  0  0
 11 26  1  0  0  0  0
 11 27  1  0  0  0  0
 12 13  1  0  0  0  0
 12 17  1  0  0  0  0
 13 14  2  0  0  0  0
 13 15  1  0  0  0  0
 15 16  1  0  0  0  0
 15 28  1  0  0  0  0
 15 29  1  0  0  0  0
 16 17  1  0  0  0  0
 16 30  1  0  0  0  0
 16 31  1  0  0  0  0
 17 18  2  0  0  0  0
M  END
>  <DRUGBANK_ID>
DB14783

>  <COMMON_NAME>
Diroximel fumarate

>  <CAS_NUMBER>
1577222-14-0

>  <UNII>
K0N0Z40J3W

>  <SYNONYMS>
Diroximel fumarate

$$$$
