
 OpenBabel10282417113D

 65 69  0  0  1  0  0  0  0  0999 V2000
    0.2735    2.4719    1.4092 C   0  0  1  0  0  0  0  0  0  0  0  0
    1.8304    1.3084    1.2992 C   0  0  2  0  0  0  0  0  0  0  0  0
    0.5458    2.4700    2.9168 C   0  0  1  0  0  0  0  0  0  0  0  0
    0.1238    4.1505    1.9518 O   0  0  0  0  0  0  0  0  0  0  0  0
   -0.4667    3.3810    0.1146 C   0  0  0  0  0  0  0  0  0  0  0  0
    2.7765    2.4185    1.6726 C   0  0  1  0  0  0  0  0  0  0  0  0
    2.8004    0.4649    0.2241 C   0  0  0  0  0  0  0  0  0  0  0  0
    1.8500   -0.0155    2.2578 C   0  0  0  0  0  0  0  0  0  0  0  0
    2.0828    2.8474    2.9884 C   0  0  0  0  0  0  0  0  0  0  0  0
   -0.2775    3.2199    3.8100 O   0  0  0  0  0  0  0  0  0  0  0  0
   -0.9669    4.0691    2.9343 C   0  0  3  0  0  0  0  0  0  0  0  0
   -0.5606    2.7257   -1.2528 C   0  0  0  0  0  0  0  0  0  0  0  0
    2.6954    3.1594    0.2887 C   0  0  1  0  0  0  0  0  0  0  0  0
    3.0140    1.1235   -1.0796 C   0  0  1  0  0  0  0  0  0  0  0  0
   -1.8604    5.1466    3.7606 C   0  0  0  0  0  0  0  0  0  0  0  0
   -1.8834    2.4748   -1.6771 O   0  0  0  0  0  0  0  0  0  0  0  0
    3.6542    2.6201   -0.7702 C   0  0  2  0  0  0  0  0  0  0  0  0
    2.5384    4.6278    0.2671 C   0  0  0  0  0  0  0  0  0  0  0  0
    3.7510    0.2750   -1.9604 O   0  0  0  0  0  0  0  0  0  0  0  0
   -3.2814    4.5074    4.0902 C   0  0  0  0  0  0  0  0  0  0  0  0
    3.9145    3.7449   -1.9160 C   0  0  2  0  0  0  0  0  0  0  0  0
    2.0514    5.1064   -1.3617 C   0  0  0  0  0  0  0  0  0  0  0  0
   -3.1604    3.2191    4.8984 C   0  0  0  0  0  0  0  0  0  0  0  0
    3.0117    4.6935   -2.5785 C   0  0  0  0  0  0  0  0  0  0  0  0
    4.4966    5.4260   -1.2456 C   0  0  0  0  0  0  0  0  0  0  0  0
    3.1026    2.7759   -3.1490 C   0  0  0  0  0  0  0  0  0  0  0  0
    3.8130    5.1968   -3.6242 C   0  0  0  0  0  0  0  0  0  0  0  0
    4.6367    6.6240   -1.9196 C   0  0  0  0  0  0  0  0  0  0  0  0
    4.4165    6.5245   -3.3600 C   0  0  0  0  0  0  0  0  0  0  0  0
    4.7086    7.3488   -4.1580 O   0  0  0  0  0  0  0  0  0  0  0  0
    3.8256    2.1574    1.8773 H   0  0  0  0  0  0  0  0  0  0  0  0
    1.7673    2.8870   -0.1940 H   0  0  0  0  0  0  0  0  0  0  0  0
    4.6649    2.3970   -0.4060 H   0  0  0  0  0  0  0  0  0  0  0  0
   -1.0443    4.4889    0.1509 O   0  0  0  0  0  0  0  0  0  0  0  0
    0.3073    1.4572    3.1906 H   0  0  0  0  0  0  0  0  0  0  0  0
    3.8317    0.3192    0.6448 H   0  0  0  0  0  0  0  0  0  0  0  0
    2.5076   -0.5917    0.0710 H   0  0  0  0  0  0  0  0  0  0  0  0
    1.6593    0.0715    3.3235 H   0  0  0  0  0  0  0  0  0  0  0  0
    1.2160   -0.8043    1.8198 H   0  0  0  0  0  0  0  0  0  0  0  0
    2.8567   -0.4924    2.2616 H   0  0  0  0  0  0  0  0  0  0  0  0
    2.3367    3.8800    3.2472 H   0  0  0  0  0  0  0  0  0  0  0  0
    2.4704    2.2313    3.8077 H   0  0  0  0  0  0  0  0  0  0  0  0
   -1.7564    3.5082    2.4308 H   0  0  0  0  0  0  0  0  0  0  0  0
   -0.1389    3.3689   -2.0338 H   0  0  0  0  0  0  0  0  0  0  0  0
    0.0038    1.8118   -1.2052 H   0  0  0  0  0  0  0  0  0  0  0  0
    1.9647    1.0590   -1.3971 H   0  0  0  0  0  0  0  0  0  0  0  0
   -1.4473    5.4217    4.7478 H   0  0  0  0  0  0  0  0  0  0  0  0
   -2.0689    6.0892    3.2332 H   0  0  0  0  0  0  0  0  0  0  0  0
   -2.3926    2.1817   -0.9070 H   0  0  0  0  0  0  0  0  0  0  0  0
    3.4910    4.9337    0.7319 H   0  0  0  0  0  0  0  0  0  0  0  0
    1.8368    4.9670    1.0109 H   0  0  0  0  0  0  0  0  0  0  0  0
    3.1455   -0.0240   -2.6750 H   0  0  0  0  0  0  0  0  0  0  0  0
   -3.9548    5.1931    4.6334 H   0  0  0  0  0  0  0  0  0  0  0  0
   -3.7993    4.2909    3.1464 H   0  0  0  0  0  0  0  0  0  0  0  0
    1.8372    6.1705   -1.4298 H   0  0  0  0  0  0  0  0  0  0  0  0
    1.1135    4.6001   -1.5203 H   0  0  0  0  0  0  0  0  0  0  0  0
   -2.7656    3.4279    5.8970 H   0  0  0  0  0  0  0  0  0  0  0  0
   -4.1240    2.7103    5.0044 H   0  0  0  0  0  0  0  0  0  0  0  0
   -2.4936    2.5109    4.4056 H   0  0  0  0  0  0  0  0  0  0  0  0
    3.9321    5.9705   -0.4349 H   0  0  0  0  0  0  0  0  0  0  0  0
    2.3677    2.0875   -2.7356 H   0  0  0  0  0  0  0  0  0  0  0  0
    2.3059    3.1664   -3.8257 H   0  0  0  0  0  0  0  0  0  0  0  0
    3.8166    2.1710   -3.7043 H   0  0  0  0  0  0  0  0  0  0  0  0
    4.6932    4.5998   -4.0196 H   0  0  0  0  0  0  0  0  0  0  0  0
    4.4209    7.6391   -1.5310 H   0  0  0  0  0  0  0  0  0  0  0  0
  1  2  1  0  0  0  0
  1  3  1  0  0  0  0
  1  4  1  0  0  0  0
  1  5  1  6  0  0  0
  2  6  1  0  0  0  0
  2  7  1  0  0  0  0
  2  8  1  1  0  0  0
  3  9  1  0  0  0  0
  3 10  1  0  0  0  0
  3 35  1  1  0  0  0
  4 11  1  0  0  0  0
  5 12  1  0  0  0  0
  5 34  2  0  0  0  0
  6 13  1  0  0  0  0
  6  9  1  0  0  0  0
  6 31  1  6  0  0  0
  7 14  1  0  0  0  0
  7 36  1  0  0  0  0
  7 37  1  0  0  0  0
  8 38  1  0  0  0  0
  8 39  1  0  0  0  0
  8 40  1  0  0  0  0
  9 41  1  0  0  0  0
  9 42  1  0  0  0  0
 10 11  1  0  0  0  0
 11 15  1  0  0  0  0
 11 43  1  0  0  0  0
 12 16  1  0  0  0  0
 12 44  1  0  0  0  0
 12 45  1  0  0  0  0
 13 17  1  0  0  0  0
 13 18  1  0  0  0  0
 13 32  1  1  0  0  0
 14 17  1  0  0  0  0
 14 19  1  0  0  0  0
 14 46  1  6  0  0  0
 15 20  1  0  0  0  0
 15 47  1  0  0  0  0
 15 48  1  0  0  0  0
 16 49  1  0  0  0  0
 17 21  1  0  0  0  0
 17 33  1  6  0  0  0
 18 22  1  0  0  0  0
 18 50  1  0  0  0  0
 18 51  1  0  0  0  0
 19 52  1  0  0  0  0
 20 23  1  0  0  0  0
 20 53  1  0  0  0  0
 20 54  1  0  0  0  0
 21 24  1  0  0  0  0
 21 25  1  0  0  0  0
 21 26  1  1  0  0  0
 22 24  1  0  0  0  0
 22 55  1  0  0  0  0
 22 56  1  0  0  0  0
 23 57  1  0  0  0  0
 23 58  1  0  0  0  0
 23 59  1  0  0  0  0
 24 27  2  0  0  0  0
 25 28  2  0  0  0  0
 25 60  1  0  0  0  0
 26 61  1  0  0  0  0
 26 62  1  0  0  0  0
 26 63  1  0  0  0  0
 27 29  1  0  0  0  0
 27 64  1  0  0  0  0
 28 29  1  0  0  0  0
 28 65  1  0  0  0  0
 29 30  2  0  0  0  0
M  END
>  <DRUGBANK_ID>
DB01222

>  <SECONDARY_ACCESSION_NUMBERS>
APRD00442

>  <COMMON_NAME>
Budesonide

>  <CAS_NUMBER>
51333-22-3

>  <UNII>
Q3OKS62Q6X

>  <SYNONYMS>
(11β,16α)-16,17-(Butylidenebis(oxy))-11,21-dihydroxypregna-1,4-diene-3,20-dione; Budesónida; Budesonide

$$$$
