
 OpenBabel10282417173D

 48 51  0  0  0  0  0  0  0  0999 V2000
    1.2081    0.3218    0.0031 C   0  0  0  0  0  0  0  0  0  0  0  0
    1.1176   -1.0539    0.0790 C   0  0  0  0  0  0  0  0  0  0  0  0
   -0.2014   -1.4831    0.0471 C   0  0  0  0  0  0  0  0  0  0  0  0
   -1.3005   -0.7295   -0.0364 N   0  0  0  0  0  0  0  0  0  0  0  0
   -1.0912    0.5644   -0.0551 C   0  0  0  0  0  0  0  0  0  0  0  0
    0.1202    1.1314   -0.0409 N   0  0  0  0  0  0  0  0  0  0  0  0
    2.4172    0.9810    0.1032 N   0  0  0  0  0  0  0  0  0  0  0  0
   -2.2377    1.3017   -0.0977 N   0  0  0  0  0  0  0  0  0  0  0  0
    2.3177   -1.9934    0.1484 C   0  0  0  0  0  0  0  0  0  0  0  0
    2.3668   -2.9194    1.3571 C   0  0  0  0  0  0  0  0  0  0  0  0
    1.4346   -3.9533    1.5056 C   0  0  0  0  0  0  0  0  0  0  0  0
    1.2887   -4.5990    2.7399 C   0  0  0  0  0  0  0  0  0  0  0  0
    2.2271   -4.4209    3.7666 C   0  0  0  0  0  0  0  0  0  0  0  0
    3.2865   -3.5131    3.5589 C   0  0  0  0  0  0  0  0  0  0  0  0
    3.3224   -2.7425    2.3763 C   0  0  0  0  0  0  0  0  0  0  0  0
    0.5464   -4.3528    0.4159 C   0  0  0  0  0  0  0  0  0  0  0  0
   -0.4423   -5.1876    0.6494 C   0  0  0  0  0  0  0  0  0  0  0  0
   -0.4722   -5.9937    1.9034 C   0  0  1  0  0  0  0  0  0  0  0  0
    0.1517   -5.3209    2.9971 O   0  0  0  0  0  0  0  0  0  0  0  0
    4.3372   -3.2526    4.4135 O   0  0  0  0  0  0  0  0  0  0  0  0
    4.3890   -3.9887    5.6338 C   0  0  0  0  0  0  0  0  0  0  0  0
    2.2003   -5.1009    4.9551 O   0  0  0  0  0  0  0  0  0  0  0  0
    1.1913   -6.0620    5.2084 C   0  0  0  0  0  0  0  0  0  0  0  0
   -1.8256   -6.4425    2.3798 C   0  0  0  0  0  0  0  0  0  0  0  0
   -2.7555   -7.2396    1.4966 C   0  0  0  0  0  0  0  0  0  0  0  0
   -3.0913   -5.8125    1.8454 C   0  0  0  0  0  0  0  0  0  0  0  0
    0.1247   -6.8910    1.6993 H   0  0  0  0  0  0  0  0  0  0  0  0
   -0.5348   -2.4956    0.1136 H   0  0  0  0  0  0  0  0  0  0  0  0
    2.3407    1.9791   -0.0483 H   0  0  0  0  0  0  0  0  0  0  0  0
    3.2900    0.5378   -0.1292 H   0  0  0  0  0  0  0  0  0  0  0  0
   -2.1816    2.2816    0.0961 H   0  0  0  0  0  0  0  0  0  0  0  0
   -3.0744    0.7532    0.0434 H   0  0  0  0  0  0  0  0  0  0  0  0
    2.3685   -2.6021   -0.7659 H   0  0  0  0  0  0  0  0  0  0  0  0
    3.2598   -1.4351    0.1201 H   0  0  0  0  0  0  0  0  0  0  0  0
    4.1197   -2.0081    2.2572 H   0  0  0  0  0  0  0  0  0  0  0  0
    0.6277   -3.8955   -0.5655 H   0  0  0  0  0  0  0  0  0  0  0  0
   -1.2058   -5.3367   -0.1103 H   0  0  0  0  0  0  0  0  0  0  0  0
    3.5259   -3.7522    6.2665 H   0  0  0  0  0  0  0  0  0  0  0  0
    4.4839   -5.0646    5.4424 H   0  0  0  0  0  0  0  0  0  0  0  0
    5.2775   -3.6910    6.1960 H   0  0  0  0  0  0  0  0  0  0  0  0
    0.2161   -5.5739    5.2968 H   0  0  0  0  0  0  0  0  0  0  0  0
    1.2016   -6.8601    4.4579 H   0  0  0  0  0  0  0  0  0  0  0  0
    1.4027   -6.5276    6.1735 H   0  0  0  0  0  0  0  0  0  0  0  0
   -1.7856   -6.7630    3.4162 H   0  0  0  0  0  0  0  0  0  0  0  0
   -2.4192   -7.4879    0.4963 H   0  0  0  0  0  0  0  0  0  0  0  0
   -3.3562   -8.0161    1.9573 H   0  0  0  0  0  0  0  0  0  0  0  0
   -3.8891   -5.6049    2.5461 H   0  0  0  0  0  0  0  0  0  0  0  0
   -3.0246   -5.0563    1.0709 H   0  0  0  0  0  0  0  0  0  0  0  0
  1  2  1  0  0  0  0
  1  7  1  0  0  0  0
  2  3  2  0  0  0  0
  2  9  1  0  0  0  0
  3  4  1  0  0  0  0
  3 28  1  0  0  0  0
  4  5  2  0  0  0  0
  5  6  1  0  0  0  0
  5  8  1  0  0  0  0
  6  1  2  0  0  0  0
  7 29  1  0  0  0  0
  7 30  1  0  0  0  0
  8 31  1  0  0  0  0
  8 32  1  0  0  0  0
  9 10  1  0  0  0  0
  9 33  1  0  0  0  0
  9 34  1  0  0  0  0
 10 11  1  0  0  0  0
 11 16  1  0  0  0  0
 11 12  2  0  0  0  0
 12 13  1  0  0  0  0
 12 19  1  0  0  0  0
 13 14  2  0  0  0  0
 13 22  1  0  0  0  0
 14 15  1  0  0  0  0
 14 20  1  0  0  0  0
 15 10  2  0  0  0  0
 15 35  1  0  0  0  0
 16 17  2  0  0  0  0
 16 36  1  0  0  0  0
 17 18  1  0  0  0  0
 17 37  1  0  0  0  0
 18 19  1  0  0  0  0
 18 24  1  0  0  0  0
 18 27  1  6  0  0  0
 20 21  1  0  0  0  0
 21 38  1  0  0  0  0
 21 39  1  0  0  0  0
 21 40  1  0  0  0  0
 22 23  1  0  0  0  0
 23 41  1  0  0  0  0
 23 42  1  0  0  0  0
 23 43  1  0  0  0  0
 24 25  1  0  0  0  0
 24 26  1  0  0  0  0
 24 44  1  0  0  0  0
 25 26  1  0  0  0  0
 25 45  1  0  0  0  0
 25 46  1  0  0  0  0
 26 47  1  0  0  0  0
 26 48  1  0  0  0  0
M  END
>  <DRUGBANK_ID>
DB07938

>  <COMMON_NAME>
(S)-iclaprim

>  <UNII>
7P9VLC9Y9D

$$$$
