849
 OpenBabel10282417113D

 32 33  0  0  1  0  0  0  0  0999 V2000
   -1.3530    2.1998    0.0173 O   0  0  0  0  0  0  0  0  0  0  0  0
    2.8602    0.0792   -0.3215 O   0  0  0  0  0  0  0  0  0  0  0  0
   -0.7910   -2.3545    0.0252 O   0  0  0  0  0  0  0  0  0  0  0  0
   -1.0982   -0.0742    0.0197 N   0  0  0  0  0  0  0  0  0  0  0  0
    1.0118   -1.0527    0.2253 N   0  0  0  0  0  0  0  0  0  0  0  0
    0.9104    1.3992    0.3462 C   0  0  3  0  0  0  0  0  0  0  0  0
    1.0912    1.6334    1.8731 C   0  0  0  0  0  0  0  0  0  0  0  0
    1.3983    2.5610   -0.5355 C   0  0  0  0  0  0  0  0  0  0  0  0
   -0.6037    1.2211    0.1011 C   0  0  0  0  0  0  0  0  0  0  0  0
    1.6801    0.1172    0.0226 C   0  0  0  0  0  0  0  0  0  0  0  0
    2.5534    1.7519    2.3215 C   0  0  0  0  0  0  0  0  0  0  0  0
   -0.3328   -1.2206    0.1015 C   0  0  0  0  0  0  0  0  0  0  0  0
    1.3168    2.4031   -1.9289 C   0  0  0  0  0  0  0  0  0  0  0  0
    1.8760    3.7872   -0.0385 C   0  0  0  0  0  0  0  0  0  0  0  0
   -2.5236   -0.2596   -0.2120 C   0  0  0  0  0  0  0  0  0  0  0  0
    1.7445    3.4095   -2.7874 C   0  0  0  0  0  0  0  0  0  0  0  0
    2.3166    4.7897   -0.8987 C   0  0  0  0  0  0  0  0  0  0  0  0
    2.2668    4.5918   -2.2724 C   0  0  0  0  0  0  0  0  0  0  0  0
    1.5569   -1.8947    0.0947 H   0  0  0  0  0  0  0  0  0  0  0  0
    0.5341    2.5286    2.1818 H   0  0  0  0  0  0  0  0  0  0  0  0
    0.6392    0.8030    2.4329 H   0  0  0  0  0  0  0  0  0  0  0  0
    3.1066    2.5404    1.8084 H   0  0  0  0  0  0  0  0  0  0  0  0
    2.6048    1.9725    3.3896 H   0  0  0  0  0  0  0  0  0  0  0  0
    3.1032    0.8267    2.1356 H   0  0  0  0  0  0  0  0  0  0  0  0
    0.9114    1.4894   -2.3582 H   0  0  0  0  0  0  0  0  0  0  0  0
    1.9298    4.0080    1.0236 H   0  0  0  0  0  0  0  0  0  0  0  0
   -2.6648   -0.7728   -1.1698 H   0  0  0  0  0  0  0  0  0  0  0  0
   -2.9376   -0.8893    0.5816 H   0  0  0  0  0  0  0  0  0  0  0  0
   -3.0748    0.6838   -0.2377 H   0  0  0  0  0  0  0  0  0  0  0  0
    1.6639    3.2648   -3.8596 H   0  0  0  0  0  0  0  0  0  0  0  0
    2.6884    5.7251   -0.4883 H   0  0  0  0  0  0  0  0  0  0  0  0
    2.6257    5.3655   -2.9424 H   0  0  0  0  0  0  0  0  0  0  0  0
  1  9  2  0  0  0  0
  2 10  2  0  0  0  0
  3 12  2  0  0  0  0
  4  9  1  0  0  0  0
  4 12  1  0  0  0  0
  4 15  1  0  0  0  0
  5 10  1  0  0  0  0
  5 12  1  0  0  0  0
  5 19  1  0  0  0  0
  6  7  1  0  0  0  0
  6  8  1  0  0  0  0
  6  9  1  0  0  0  0
  6 10  1  0  0  0  0
  7 11  1  0  0  0  0
  7 20  1  0  0  0  0
  7 21  1  0  0  0  0
  8 13  2  0  0  0  0
  8 14  1  0  0  0  0
 11 22  1  0  0  0  0
 11 23  1  0  0  0  0
 11 24  1  0  0  0  0
 13 16  1  0  0  0  0
 13 25  1  0  0  0  0
 14 17  2  0  0  0  0
 14 26  1  0  0  0  0
 15 27  1  0  0  0  0
 15 28  1  0  0  0  0
 15 29  1  0  0  0  0
 16 18  2  0  0  0  0
 16 30  1  0  0  0  0
 17 18  1  0  0  0  0
 17 31  1  0  0  0  0
 18 32  1  0  0  0  0
M  END
>  <DRUGBANK_ID>
DB00849

>  <SECONDARY_ACCESSION_NUMBERS>
APRD00047

>  <COMMON_NAME>
Methylphenobarbital

>  <CAS_NUMBER>
115-38-8

>  <UNII>
5NC67NU76B

>  <SYNONYMS>
1-Methylphenobarbital; 5-ethyl-1-methyl-5-phenyl-2,4,6(1H,3H,5H)-pyrimidinetrione; 5-Ethyl-1-methyl-5-phenyl-pyrimidine-2,4,6-trione; 5-ethyl-1-methyl-5-phenylbarbituric acid; Enphenemal; Mephobarbital; Mephobarbitone; Méthylphénobarbital; Methylphenobarbital; Methylphenobarbitalum; Methylphenobarbitone; Metilfenobarbital; Metilfenobarbitale; N-Methylphenobarbital

$$$$
