
 OpenBabel10282417193D

 50 53  0  0  1  0  0  0  0  0999 V2000
   -1.5594   -8.7778   -1.8650 C   0  0  0  0  0  0  0  0  0  0  0  0
   -2.2118   -7.4839   -2.4335 C   0  0  0  0  0  0  0  0  0  0  0  0
   -3.1160   -6.8061   -1.3313 N   0  3  3  0  0  0  0  0  0  0  0  0
   -2.2613   -5.7803   -0.5019 C   0  0  2  0  0  0  0  0  0  0  0  0
   -1.9572   -4.5363   -1.3950 C   0  0  0  0  0  0  0  0  0  0  0  0
   -3.2692   -3.7619   -1.8934 C   0  0  2  0  0  0  0  0  0  0  0  0
   -4.3895   -4.7386   -2.3898 C   0  0  0  0  0  0  0  0  0  0  0  0
   -4.4587   -5.9180   -1.4492 C   0  0  1  0  0  0  0  0  0  0  0  0
   -4.6395   -5.4630    0.0110 C   0  0  1  0  0  0  0  0  0  0  0  0
   -3.1646   -5.4329    0.6330 C   0  0  2  0  0  0  0  0  0  0  0  0
   -4.0275   -4.3123    0.5131 O   0  0  0  0  0  0  0  0  0  0  0  0
   -2.9700   -2.5855   -2.7577 O   0  0  0  0  0  0  0  0  0  0  0  0
   -2.5979   -2.1150   -3.9790 C   0  0  0  0  0  0  0  0  0  0  0  0
   -2.5468   -0.9212   -4.1297 O   0  0  0  0  0  0  0  0  0  0  0  0
   -2.1446   -3.0944   -5.1406 C   0  0  2  0  0  0  0  0  0  0  0  0
   -2.2840   -4.6183   -5.1271 C   0  0  0  0  0  0  0  0  0  0  0  0
   -2.5614   -4.9328   -3.8375 O   0  0  0  0  0  0  0  0  0  0  0  0
   -0.6661   -2.8756   -5.3707 C   0  0  0  0  0  0  0  0  0  0  0  0
   -0.3031   -1.8810   -6.2669 C   0  0  0  0  0  0  0  0  0  0  0  0
    1.0368   -1.6928   -6.5580 C   0  0  0  0  0  0  0  0  0  0  0  0
    2.0159   -2.4832   -5.9495 C   0  0  0  0  0  0  0  0  0  0  0  0
    1.6703   -3.4460   -5.0134 C   0  0  0  0  0  0  0  0  0  0  0  0
    0.3341   -3.6421   -4.7246 C   0  0  0  0  0  0  0  0  0  0  0  0
   -3.7536   -8.0110   -0.5571 C   0  0  0  0  0  0  0  0  0  0  0  0
   -1.0908   -8.5887   -0.8871 H   0  0  0  0  0  0  0  0  0  0  0  0
   -0.7830   -9.1987   -2.5068 H   0  0  0  0  0  0  0  0  0  0  0  0
   -2.3021   -9.5761   -1.7415 H   0  0  0  0  0  0  0  0  0  0  0  0
   -1.3635   -6.8396   -2.6801 H   0  0  0  0  0  0  0  0  0  0  0  0
   -2.8028   -7.6785   -3.3293 H   0  0  0  0  0  0  0  0  0  0  0  0
   -1.3237   -6.2905   -0.2385 H   0  0  0  0  0  0  0  0  0  0  0  0
   -1.1970   -3.8092   -1.0796 H   0  0  0  0  0  0  0  0  0  0  0  0
   -1.3656   -4.9797   -2.1965 H   0  0  0  0  0  0  0  0  0  0  0  0
   -3.6886   -3.1882   -1.0653 H   0  0  0  0  0  0  0  0  0  0  0  0
   -5.2885   -4.1571   -2.6401 H   0  0  0  0  0  0  0  0  0  0  0  0
   -4.3412   -5.2870   -3.3358 H   0  0  0  0  0  0  0  0  0  0  0  0
   -5.2304   -6.6090   -1.8143 H   0  0  0  0  0  0  0  0  0  0  0  0
   -5.6234   -5.6496    0.3929 H   0  0  0  0  0  0  0  0  0  0  0  0
   -2.5814   -5.2438    1.5155 H   0  0  0  0  0  0  0  0  0  0  0  0
   -2.7500   -2.7731   -5.9959 H   0  0  0  0  0  0  0  0  0  0  0  0
   -3.0415   -5.0518   -5.7673 H   0  0  0  0  0  0  0  0  0  0  0  0
   -1.3887   -5.2366   -5.1776 H   0  0  0  0  0  0  0  0  0  0  0  0
   -2.1587   -4.1496   -3.4233 H   0  0  0  0  0  0  0  0  0  0  0  0
   -1.0664   -1.2575   -6.7297 H   0  0  0  0  0  0  0  0  0  0  0  0
    1.3155   -0.9160   -7.2608 H   0  0  0  0  0  0  0  0  0  0  0  0
    3.0600   -2.3394   -6.2021 H   0  0  0  0  0  0  0  0  0  0  0  0
    2.4261   -4.0426   -4.5103 H   0  0  0  0  0  0  0  0  0  0  0  0
    0.1118   -4.4418   -4.0213 H   0  0  0  0  0  0  0  0  0  0  0  0
   -4.4460   -7.6785    0.2131 H   0  0  0  0  0  0  0  0  0  0  0  0
   -4.3247   -8.5712   -1.3102 H   0  0  0  0  0  0  0  0  0  0  0  0
   -2.9993   -8.5991   -0.0474 H   0  0  0  0  0  0  0  0  0  0  0  0
  1  2  1  0  0  0  0
  1 25  1  0  0  0  0
  1 26  1  0  0  0  0
  1 27  1  0  0  0  0
  2 28  1  0  0  0  0
  2 29  1  0  0  0  0
  2  3  1  0  0  0  0
  3  4  1  0  0  0  0
  3  8  1  0  0  0  0
  3 24  1  0  0  0  0
  4  5  1  0  0  0  0
  4 10  1  0  0  0  0
  4 30  1  6  0  0  0
  5  6  1  0  0  0  0
  5 31  1  0  0  0  0
  5 32  1  0  0  0  0
  6  7  1  0  0  0  0
  6 12  1  0  0  0  0
  6 33  1  1  0  0  0
  7 34  1  0  0  0  0
  7 35  1  0  0  0  0
  8  7  1  0  0  0  0
  8  9  1  0  0  0  0
  8 36  1  1  0  0  0
  9 10  1  0  0  0  0
  9 11  1  0  0  0  0
  9 37  1  1  0  0  0
 10 11  1  0  0  0  0
 10 38  1  1  0  0  0
 12 13  1  0  0  0  0
 13 14  2  0  0  0  0
 15 18  1  0  0  0  0
 15 39  1  6  0  0  0
 15 16  1  0  0  0  0
 15 13  1  0  0  0  0
 16 17  1  0  0  0  0
 16 40  1  0  0  0  0
 16 41  1  0  0  0  0
 17 42  1  0  0  0  0
 18 19  2  0  0  0  0
 18 23  1  0  0  0  0
 19 20  1  0  0  0  0
 19 43  1  0  0  0  0
 20 21  2  0  0  0  0
 20 44  1  0  0  0  0
 21 22  1  0  0  0  0
 21 45  1  0  0  0  0
 22 23  2  0  0  0  0
 22 46  1  0  0  0  0
 23 47  1  0  0  0  0
 24 48  1  0  0  0  0
 24 49  1  0  0  0  0
 24 50  1  0  0  0  0
M  CHG  1   3   1
M  END
>  <DRUGBANK_ID>
DB12086

>  <COMMON_NAME>
Oxitropium

>  <CAS_NUMBER>
99571-64-9

>  <UNII>
8G15T83E6I

$$$$
