
 OpenBabel10282417113D

 44 48  0  0  0  0  0  0  0  0999 V2000
    0.3936   -1.1262   -0.5018 C   0  0  1  0  0  0  0  0  0  0  0  0
    1.4597   -0.1283   -0.8511 N   0  0  3  0  0  0  0  0  0  0  0  0
    0.4119    1.2131   -0.4766 C   0  0  2  0  0  0  0  0  0  0  0  0
   -1.0431    1.3304    0.2774 C   0  0  0  0  0  0  0  0  0  0  0  0
   -1.3635    0.0257    0.9774 C   0  0  2  0  0  0  0  0  0  0  0  0
   -1.1234   -0.8807   -0.2129 C   0  0  0  0  0  0  0  0  0  0  0  0
    1.2310    1.8244    0.5388 C   0  0  0  0  0  0  0  0  0  0  0  0
    1.6572    0.5887    1.3289 C   0  0  2  0  0  0  0  0  0  0  0  0
    3.0439    0.8316    0.7303 C   0  0  0  0  0  0  0  0  0  0  0  0
    3.0419   -0.4404    0.1427 C   0  0  0  0  0  0  0  0  0  0  0  0
    3.6940    1.7097    0.1915 O   0  0  0  0  0  0  0  0  0  0  0  0
    1.4865    0.5581    2.3966 H   0  0  0  0  0  0  0  0  0  0  0  0
    0.3328    1.7381   -1.4372 H   0  0  0  0  0  0  0  0  0  0  0  0
   -0.6521   -0.1091    1.7903 H   0  0  0  0  0  0  0  0  0  0  0  0
   -2.6531   -0.0225    1.6749 O   0  0  0  0  0  0  0  0  0  0  0  0
   -3.2175   -1.1212    2.3373 C   0  0  0  0  0  0  0  0  0  0  0  0
   -3.2669   -2.4008    1.6196 C   0  0  0  0  0  0  0  0  0  0  0  0
   -3.8616   -0.9690    3.3725 O   0  0  0  0  0  0  0  0  0  0  0  0
   -4.4133   -2.9226    1.0409 C   0  0  0  0  0  0  0  0  0  0  0  0
   -4.0432   -3.9365    0.1917 N   0  0  0  0  0  0  0  0  0  0  0  0
   -2.6840   -4.1383    0.2547 C   0  0  0  0  0  0  0  0  0  0  0  0
   -2.2154   -3.3276    1.2922 C   0  0  0  0  0  0  0  0  0  0  0  0
   -1.8300   -4.9138   -0.5498 C   0  0  0  0  0  0  0  0  0  0  0  0
   -0.4559   -4.8319   -0.3206 C   0  0  0  0  0  0  0  0  0  0  0  0
    0.0359   -4.0665    0.7228 C   0  0  0  0  0  0  0  0  0  0  0  0
   -0.8280   -3.3338    1.5567 C   0  0  0  0  0  0  0  0  0  0  0  0
    0.4319   -1.9139   -1.2766 H   0  0  0  0  0  0  0  0  0  0  0  0
    1.1208   -1.2003    0.7811 C   0  0  0  0  0  0  0  0  0  0  0  0
   -1.8765    1.5967   -0.3950 H   0  0  0  0  0  0  0  0  0  0  0  0
   -1.0438    2.1735    0.9925 H   0  0  0  0  0  0  0  0  0  0  0  0
   -1.5523   -1.7918    0.0628 H   0  0  0  0  0  0  0  0  0  0  0  0
   -1.7534   -0.6877   -1.0947 H   0  0  0  0  0  0  0  0  0  0  0  0
    1.2680    2.7146    1.1759 H   0  0  0  0  0  0  0  0  0  0  0  0
    1.8449    2.2973   -0.2423 H   0  0  0  0  0  0  0  0  0  0  0  0
    4.0788   -0.6639   -0.1287 H   0  0  0  0  0  0  0  0  0  0  0  0
    3.0510   -0.8607    1.2873 H   0  0  0  0  0  0  0  0  0  0  0  0
   -5.4450   -2.5975    1.0947 H   0  0  0  0  0  0  0  0  0  0  0  0
   -4.6611   -4.4126   -0.4511 H   0  0  0  0  0  0  0  0  0  0  0  0
   -2.2018   -5.5195   -1.3692 H   0  0  0  0  0  0  0  0  0  0  0  0
    0.2512   -5.3420   -0.9725 H   0  0  0  0  0  0  0  0  0  0  0  0
    1.1152   -3.9479    0.7947 H   0  0  0  0  0  0  0  0  0  0  0  0
   -0.4345   -2.5562    2.2076 H   0  0  0  0  0  0  0  0  0  0  0  0
    1.4271   -1.9495    1.5310 H   0  0  0  0  0  0  0  0  0  0  0  0
    1.8353   -1.8970    0.1706 H   0  0  0  0  0  0  0  0  0  0  0  0
  1  2  1  0  0  0  0
  1 28  1  0  0  0  0
  1 27  1  1  0  0  0
  2  3  1  0  0  0  0
  3  4  1  0  0  0  0
  3  7  1  0  0  0  0
  3 13  1  1  0  0  0
  4  5  1  0  0  0  0
  4 29  1  0  0  0  0
  4 30  1  0  0  0  0
  5  6  1  0  0  0  0
  5 15  1  0  0  0  0
  5 14  1  1  0  0  0
  6  1  1  0  0  0  0
  6 31  1  0  0  0  0
  6 32  1  0  0  0  0
  7  8  1  0  0  0  0
  7 33  1  0  0  0  0
  7 34  1  0  0  0  0
  8  9  1  0  0  0  0
  8 28  1  0  0  0  0
  8 12  1  1  0  0  0
  9 10  1  0  0  0  0
  9 11  2  0  0  0  0
 10  2  1  0  0  0  0
 10 35  1  0  0  0  0
 10 36  1  0  0  0  0
 15 16  1  0  0  0  0
 16 17  1  0  0  0  0
 16 18  2  0  0  0  0
 17 19  2  0  0  0  0
 17 22  1  0  0  0  0
 19 20  1  0  0  0  0
 19 37  1  0  0  0  0
 20 21  1  0  0  0  0
 20 38  1  0  0  0  0
 21 23  1  0  0  0  0
 22 21  2  0  0  0  0
 23 24  2  0  0  0  0
 23 39  1  0  0  0  0
 24 25  1  0  0  0  0
 24 40  1  0  0  0  0
 25 26  2  0  0  0  0
 25 41  1  0  0  0  0
 26 22  1  0  0  0  0
 26 42  1  0  0  0  0
 28 43  1  0  0  0  0
 28 44  1  0  0  0  0
M  END
>  <DRUGBANK_ID>
DB00757

>  <SECONDARY_ACCESSION_NUMBERS>
APRD00518

>  <COMMON_NAME>
Dolasetron

>  <CAS_NUMBER>
115956-12-2

>  <UNII>
82WI2L7Q6E

>  <SYNONYMS>
Dolasetron; Dolas√©tron; Dolasetronum

$$$$
