DI5
 OpenBabel10282417163D

 61 62  0  0  0  0  0  0  0  0999 V2000
   -0.7492   -1.8852    0.3492 B   0  0  0  0  0  0  0  0  0  0  0  0
    0.1706   -1.1832   -0.7558 C   0  0  2  0  0  0  0  0  0  0  0  0
    0.9306   -0.0287   -0.1233 C   0  0  0  0  0  0  0  0  0  0  0  0
    2.3116   -0.6301    0.0811 C   0  0  0  0  0  0  0  0  0  0  0  0
    2.8570   -1.1119   -1.2534 C   0  0  0  0  0  0  0  0  0  0  0  0
   -0.4784   -1.1650   -3.2177 C   0  0  0  0  0  0  0  0  0  0  0  0
   -1.3522   -0.6394   -4.3449 C   0  0  2  0  0  0  0  0  0  0  0  0
   -1.6913    0.8118   -4.1446 C   0  0  0  0  0  0  0  0  0  0  0  0
   -2.8742    1.0347   -5.1345 C   0  0  0  0  0  0  0  0  0  0  0  0
   -3.6127   -0.3061   -5.1085 C   0  0  0  0  0  0  0  0  0  0  0  0
   -3.0550   -2.5721   -3.8327 C   0  0  0  0  0  0  0  0  0  0  0  0
   -4.4905   -4.3854   -4.7341 C   0  0  0  0  0  0  0  0  0  0  0  0
   -4.4827   -3.0784   -3.9581 C   0  0  1  0  0  0  0  0  0  0  0  0
   -6.2416   -2.5648   -2.1903 C   0  0  0  0  0  0  0  0  0  0  0  0
   -6.8211   -2.7951   -0.8041 C   0  0  0  0  0  0  0  0  0  0  0  0
   -2.4995   -6.0297   -2.0470 C   0  0  0  0  0  0  0  0  0  0  0  0
   -2.7156   -7.3017   -2.3609 C   0  0  0  0  0  0  0  0  0  0  0  0
   -3.4108   -7.6328   -3.4988 C   0  0  0  0  0  0  0  0  0  0  0  0
   -3.8166   -6.6696   -4.3803 C   0  0  0  0  0  0  0  0  0  0  0  0
   -3.6501   -5.4164   -3.9985 C   0  0  0  0  0  0  0  0  0  0  0  0
   -2.8265   -5.0078   -2.9230 C   0  0  0  0  0  0  0  0  0  0  0  0
   -0.6745   -0.6748   -1.8459 N   0  0  0  0  0  0  0  0  0  0  0  0
    2.9495    0.0228   -2.1834 N   0  0  0  0  0  0  0  0  0  0  0  0
   -2.6884   -1.2615   -4.3884 N   0  0  0  0  0  0  0  0  0  0  0  0
   -5.0432   -3.3011   -2.6175 N   0  0  0  0  0  0  0  0  0  0  0  0
   -0.2218   -3.1266    1.0054 O   0  0  0  0  0  0  0  0  0  0  0  0
   -2.0771   -1.3239    0.7638 O   0  0  0  0  0  0  0  0  0  0  0  0
    0.4219   -2.0284   -3.4614 O   0  0  0  0  0  0  0  0  0  0  0  0
   -2.1782   -3.2820   -3.2474 O   0  0  0  0  0  0  0  0  0  0  0  0
   -6.7931   -1.7356   -2.9799 O   0  0  0  0  0  0  0  0  0  0  0  0
    0.8660   -1.8964   -1.1466 H   0  0  0  0  0  0  0  0  0  0  0  0
   -0.7745   -0.8441   -5.2219 H   0  0  0  0  0  0  0  0  0  0  0  0
   -5.0743   -2.3526   -4.4760 H   0  0  0  0  0  0  0  0  0  0  0  0
    0.9979    0.7972   -0.8003 H   0  0  0  0  0  0  0  0  0  0  0  0
    0.5467    0.3105    0.8160 H   0  0  0  0  0  0  0  0  0  0  0  0
    2.9670    0.1117    0.4874 H   0  0  0  0  0  0  0  0  0  0  0  0
    2.2443   -1.4560    0.7580 H   0  0  0  0  0  0  0  0  0  0  0  0
    3.8291   -1.5352   -1.1095 H   0  0  0  0  0  0  0  0  0  0  0  0
    2.2015   -1.8536   -1.6597 H   0  0  0  0  0  0  0  0  0  0  0  0
   -1.9382    1.0514   -3.1314 H   0  0  0  0  0  0  0  0  0  0  0  0
   -0.8600    1.4386   -4.3913 H   0  0  0  0  0  0  0  0  0  0  0  0
   -3.4973    1.8612   -4.8630 H   0  0  0  0  0  0  0  0  0  0  0  0
   -2.5148    1.2553   -6.1179 H   0  0  0  0  0  0  0  0  0  0  0  0
   -4.5617   -0.2276   -4.6205 H   0  0  0  0  0  0  0  0  0  0  0  0
   -3.8022   -0.6482   -6.1045 H   0  0  0  0  0  0  0  0  0  0  0  0
   -5.4956   -4.7417   -4.8224 H   0  0  0  0  0  0  0  0  0  0  0  0
   -4.0826   -4.2232   -5.7099 H   0  0  0  0  0  0  0  0  0  0  0  0
   -6.8156   -1.8751   -0.2578 H   0  0  0  0  0  0  0  0  0  0  0  0
   -7.8261   -3.1515   -0.8924 H   0  0  0  0  0  0  0  0  0  0  0  0
   -6.2295   -3.5209   -0.2863 H   0  0  0  0  0  0  0  0  0  0  0  0
   -2.0645   -5.7895   -1.0993 H   0  0  0  0  0  0  0  0  0  0  0  0
   -2.3449   -8.0758   -1.7219 H   0  0  0  0  0  0  0  0  0  0  0  0
   -3.6379   -8.6593   -3.6981 H   0  0  0  0  0  0  0  0  0  0  0  0
   -4.2460   -6.9179   -5.3284 H   0  0  0  0  0  0  0  0  0  0  0  0
   -2.4871   -4.0008   -2.7977 H   0  0  0  0  0  0  0  0  0  0  0  0
   -1.3970    0.0181   -1.6503 H   0  0  0  0  0  0  0  0  0  0  0  0
    3.3155   -0.3005   -3.0789 H   0  0  0  0  0  0  0  0  0  0  0  0
    2.0228    0.4263   -2.3206 H   0  0  0  0  0  0  0  0  0  0  0  0
   -4.6005   -3.9666   -1.9838 H   0  0  0  0  0  0  0  0  0  0  0  0
    0.6677   -3.3593    0.6122 H   0  0  0  0  0  0  0  0  0  0  0  0
   -2.2731   -0.5019    0.2292 H   0  0  0  0  0  0  0  0  0  0  0  0
  1 26  1  0  0  0  0
  1 27  1  0  0  0  0
  2 22  1  0  0  0  0
  2 31  1  6  0  0  0
  2  3  1  0  0  0  0
  2  1  1  0  0  0  0
  3  4  1  0  0  0  0
  3 34  1  0  0  0  0
  3 35  1  0  0  0  0
  4  5  1  0  0  0  0
  4 36  1  0  0  0  0
  4 37  1  0  0  0  0
  5 23  1  0  0  0  0
  5 38  1  0  0  0  0
  5 39  1  0  0  0  0
  6 22  1  0  0  0  0
  6 28  2  0  0  0  0
  7  6  1  0  0  0  0
  7  8  1  0  0  0  0
  7 24  1  0  0  0  0
  7 32  1  6  0  0  0
  8  9  1  0  0  0  0
  8 40  1  0  0  0  0
  8 41  1  0  0  0  0
  9 10  1  0  0  0  0
  9 42  1  0  0  0  0
  9 43  1  0  0  0  0
 10 24  1  0  0  0  0
 10 44  1  0  0  0  0
 10 45  1  0  0  0  0
 11 13  1  0  0  0  0
 11 24  1  0  0  0  0
 11 29  2  0  0  0  0
 12 13  1  0  0  0  0
 12 20  1  0  0  0  0
 12 46  1  0  0  0  0
 12 47  1  0  0  0  0
 13 25  1  0  0  0  0
 13 33  1  6  0  0  0
 14 15  1  0  0  0  0
 14 25  1  0  0  0  0
 14 30  2  0  0  0  0
 15 48  1  0  0  0  0
 15 49  1  0  0  0  0
 15 50  1  0  0  0  0
 16 17  2  0  0  0  0
 16 21  1  0  0  0  0
 16 51  1  0  0  0  0
 17 18  1  0  0  0  0
 17 52  1  0  0  0  0
 18 19  2  0  0  0  0
 18 53  1  0  0  0  0
 19 20  1  0  0  0  0
 19 54  1  0  0  0  0
 20 21  2  0  0  0  0
 21 55  1  0  0  0  0
 22 56  1  0  0  0  0
 23 57  1  0  0  0  0
 23 58  1  0  0  0  0
 25 59  1  0  0  0  0
 26 60  1  0  0  0  0
 27 61  1  0  0  0  0
M  END
>  <DRUGBANK_ID>
DB07660

>  <COMMON_NAME>
AC-(D)PHE-PRO-BOROHOMOORNITHINE-OH

$$$$
