
 OpenBabel10282417133D

 53 55  0  0  0  0  0  0  0  0999 V2000
    1.0336    0.0843   -0.0419 P   0  0  3  0  0  0  0  0  0  0  0  0
    2.6647   -1.2656    1.8285 P   0  0  3  0  0  0  0  0  0  0  0  0
    3.6051    0.1710   -0.4149 P   0  0  0  0  0  0  0  0  0  0  0  0
   -0.0629    2.4774   -1.8466 O   0  0  0  0  0  0  0  0  0  0  0  0
   -1.6733    3.6871   -4.8626 O   0  0  0  0  0  0  0  0  0  0  0  0
   -2.2574    1.2596   -3.9950 O   0  0  0  0  0  0  0  0  0  0  0  0
    0.8688   -0.6989   -1.4647 O   0  0  0  0  0  0  0  0  0  0  0  0
    1.0942    8.8868   -0.5205 O   0  0  0  0  0  0  0  0  0  0  0  0
    1.0336   -0.9281    1.3609 O   0  0  0  0  0  0  0  0  0  0  0  0
   -0.6964    0.0843   -0.0419 O   0  0  0  0  0  0  0  0  0  0  0  0
    2.5820    0.0843   -0.0419 O   0  0  0  0  0  0  0  0  0  0  0  0
    3.1523    0.2904    1.2505 O   0  0  0  0  0  0  0  0  0  0  0  0
    2.1205   -0.8459    3.3251 O   0  0  0  0  0  0  0  0  0  0  0  0
    4.1245   -1.5676    2.2470 O   0  0  0  0  0  0  0  0  0  0  0  0
    3.4775   -1.5846   -0.5206 O   0  0  0  0  0  0  0  0  0  0  0  0
    2.8357    1.7672   -0.9202 O   0  0  0  0  0  0  0  0  0  0  0  0
    4.0103    0.0642   -1.9055 O   0  0  0  0  0  0  0  0  0  0  0  0
   -0.0660    4.8404   -2.3738 N   0  0  0  0  0  0  0  0  0  0  0  0
    1.6473    6.1706   -1.6966 N   0  0  0  0  0  0  0  0  0  0  0  0
   -1.8752    6.5190   -1.7513 N   0  0  0  0  0  0  0  0  0  0  0  0
   -1.1574    8.6008   -0.8845 N   0  0  0  0  0  0  0  0  0  0  0  0
   -3.3757    8.1971   -1.2741 N   0  0  0  0  0  0  0  0  0  0  0  0
   -0.7052    3.5555   -2.5866 C   0  0  1  0  0  0  0  0  0  0  0  0
   -0.6651    3.0916   -4.0477 C   0  0  1  0  0  0  0  0  0  0  0  0
   -0.8547    1.5863   -3.9320 C   0  0  1  0  0  0  0  0  0  0  0  0
   -0.3174    1.2261   -2.5573 C   0  0  1  0  0  0  0  0  0  0  0  0
    1.3993    4.9786   -2.5026 C   0  0  0  0  0  0  0  0  0  0  0  0
   -0.6014    6.0412   -1.8708 C   0  0  0  0  0  0  0  0  0  0  0  0
    0.8867    0.2497   -2.5952 C   0  0  0  0  0  0  0  0  0  0  0  0
    0.4307    6.8133   -1.4661 C   0  0  0  0  0  0  0  0  0  0  0  0
    2.9132    6.4378   -1.0616 C   0  0  0  0  0  0  0  0  0  0  0  0
    0.1573    8.1736   -0.9113 C   0  0  0  0  0  0  0  0  0  0  0  0
   -2.0865    7.7908   -1.3006 C   0  0  0  0  0  0  0  0  0  0  0  0
   -2.6160    5.9940   -2.1820 H   0  0  0  0  0  0  0  0  0  0  0  0
   -4.1576    7.6656   -1.6189 H   0  0  0  0  0  0  0  0  0  0  0  0
   -3.5559    9.1408   -0.9474 H   0  0  0  0  0  0  0  0  0  0  0  0
   -2.5142    3.2377   -4.6540 H   0  0  0  0  0  0  0  0  0  0  0  0
   -2.6982    1.5689   -3.1834 H   0  0  0  0  0  0  0  0  0  0  0  0
   -0.9919   -0.7945    0.2644 H   0  0  0  0  0  0  0  0  0  0  0  0
    1.3096   -1.3479    3.5288 H   0  0  0  0  0  0  0  0  0  0  0  0
    4.4101   -1.8494   -0.3435 H   0  0  0  0  0  0  0  0  0  0  0  0
    2.3541    2.0909   -0.1401 H   0  0  0  0  0  0  0  0  0  0  0  0
   -1.7506    3.6232   -2.2536 H   0  0  0  0  0  0  0  0  0  0  0  0
    0.3159    3.2995   -4.4864 H   0  0  0  0  0  0  0  0  0  0  0  0
   -0.3606    1.0381   -4.7380 H   0  0  0  0  0  0  0  0  0  0  0  0
   -1.1217    0.7259   -2.0228 H   0  0  0  0  0  0  0  0  0  0  0  0
    1.9589    4.0970   -2.1850 H   0  0  0  0  0  0  0  0  0  0  0  0
    1.6456    5.2174   -3.5461 H   0  0  0  0  0  0  0  0  0  0  0  0
    1.8177    0.8191   -2.6395 H   0  0  0  0  0  0  0  0  0  0  0  0
    0.8799   -0.3593   -3.5014 H   0  0  0  0  0  0  0  0  0  0  0  0
    3.2778    7.4374   -1.3171 H   0  0  0  0  0  0  0  0  0  0  0  0
    2.8297    6.3744    0.0304 H   0  0  0  0  0  0  0  0  0  0  0  0
    3.6803    5.7179   -1.3692 H   0  0  0  0  0  0  0  0  0  0  0  0
  1  7  1  0  0  0  0
  1  9  1  0  0  0  0
  1 10  1  0  0  0  0
  1 11  2  0  0  0  0
  2  9  1  0  0  0  0
  2 12  1  0  0  0  0
  2 13  1  0  0  0  0
  2 14  2  0  0  0  0
  3 12  1  0  0  0  0
  3 15  1  0  0  0  0
  3 16  1  0  0  0  0
  3 17  2  0  0  0  0
  4 23  1  0  0  0  0
  4 26  1  0  0  0  0
  5 37  1  0  0  0  0
  6 38  1  0  0  0  0
  7 29  1  0  0  0  0
  8 32  2  0  0  0  0
 10 39  1  0  0  0  0
 13 40  1  0  0  0  0
 15 41  1  0  0  0  0
 16 42  1  0  0  0  0
 18 27  1  0  0  0  0
 18 28  1  0  0  0  0
 19 27  1  0  0  0  0
 19 30  1  0  0  0  0
 19 31  1  0  0  0  0
 20 28  1  0  0  0  0
 20 33  1  0  0  0  0
 20 34  1  0  0  0  0
 21 32  1  0  0  0  0
 21 33  2  0  0  0  0
 22 33  1  0  0  0  0
 22 35  1  0  0  0  0
 22 36  1  0  0  0  0
 23 24  1  0  0  0  0
 23 43  1  1  0  0  0
 23 18  1  0  0  0  0
 24  5  1  0  0  0  0
 24 25  1  0  0  0  0
 24 44  1  6  0  0  0
 25  6  1  0  0  0  0
 25 26  1  0  0  0  0
 25 45  1  6  0  0  0
 26 29  1  0  0  0  0
 26 46  1  1  0  0  0
 27 47  1  0  0  0  0
 27 48  1  0  0  0  0
 28 30  2  0  0  0  0
 29 49  1  0  0  0  0
 29 50  1  0  0  0  0
 30 32  1  0  0  0  0
 31 51  1  0  0  0  0
 31 52  1  0  0  0  0
 31 53  1  0  0  0  0
M  END
>  <DRUGBANK_ID>
DB03358

>  <SECONDARY_ACCESSION_NUMBERS>
EXPT02169

>  <COMMON_NAME>
7-Methyl-7,8-dihydroguanosine 5'-(tetrahydrogen triphosphate)

$$$$
