
 OpenBabel10282417143D

 52 52  0  0  0  0  0  0  0  0999 V2000
    1.5926   -2.5136  -10.2314 O   0  0  0  0  0  0  0  0  0  0  0  0
    3.9048   -0.3755   -8.4560 O   0  0  0  0  0  0  0  0  0  0  0  0
    3.1141   -5.7331  -10.2692 O   0  0  0  0  0  0  0  0  0  0  0  0
   -0.7861   -5.4504   -6.7357 O   0  0  0  0  0  0  0  0  0  0  0  0
    2.0838   -3.1934   -5.7004 O   0  0  0  0  0  0  0  0  0  0  0  0
    3.9837   -0.7376  -10.6984 O   0  0  0  0  0  0  0  0  0  0  0  0
   -1.0994   -7.5067   -5.1928 O   0  0  0  0  0  0  0  0  0  0  0  0
    0.0174   -7.0453   -3.3475 O   0  0  0  0  0  0  0  0  0  0  0  0
    2.3969   -4.8810   -8.3354 N   0  0  0  0  0  0  0  0  0  0  0  0
    1.8502   -5.3652   -5.2558 N   0  0  0  0  0  0  0  0  0  0  0  0
    2.7052   -3.4217  -10.3332 C   0  0  1  0  0  0  0  0  0  0  0  0
    2.7400   -2.2576   -9.4004 C   0  0  1  0  0  0  0  0  0  0  0  0
    1.1906   -4.4238   -7.6151 C   0  0  1  0  0  0  0  0  0  0  0  0
    2.4179   -7.8502   -5.4005 C   0  0  2  0  0  0  0  0  0  0  0  0
    2.6800   -4.7457   -9.6727 C   0  0  0  0  0  0  0  0  0  0  0  0
    1.3503   -6.7309   -5.4360 C   0  0  1  0  0  0  0  0  0  0  0  0
   -0.0472   -5.2852   -7.9260 C   0  0  1  0  0  0  0  0  0  0  0  0
    1.6667   -4.2856   -6.1050 C   0  0  0  0  0  0  0  0  0  0  0  0
    2.2336   -8.9369   -6.5156 C   0  0  0  0  0  0  0  0  0  0  0  0
    3.5724   -1.0611   -9.6083 C   0  0  0  0  0  0  0  0  0  0  0  0
    2.3664   -8.5050   -4.0372 C   0  0  0  0  0  0  0  0  0  0  0  0
    0.0369   -7.1012   -4.5724 C   0  0  0  0  0  0  0  0  0  0  0  0
    0.2995   -6.5679   -8.7139 C   0  0  0  0  0  0  0  0  0  0  0  0
    0.8193   -9.1010   -7.0553 C   0  0  0  0  0  0  0  0  0  0  0  0
    3.4077   -0.7371   -7.1385 C   0  0  0  0  0  0  0  0  0  0  0  0
    1.9073   -0.4774   -7.0327 C   0  0  0  0  0  0  0  0  0  0  0  0
   -0.6045   -6.3326   -6.4367 H   0  0  0  0  0  0  0  0  0  0  0  0
   -1.4599   -7.6145   -6.0987 H   0  0  0  0  0  0  0  0  0  0  0  0
    2.7159   -5.7889   -8.0241 H   0  0  0  0  0  0  0  0  0  0  0  0
    2.1528   -5.0915   -4.3235 H   0  0  0  0  0  0  0  0  0  0  0  0
    3.2444   -3.3953  -11.2701 H   0  0  0  0  0  0  0  0  0  0  0  0
    2.6091   -2.5079   -8.3749 H   0  0  0  0  0  0  0  0  0  0  0  0
    0.8848   -3.4291   -7.9522 H   0  0  0  0  0  0  0  0  0  0  0  0
    3.4151   -7.4067   -5.5483 H   0  0  0  0  0  0  0  0  0  0  0  0
    1.1713   -6.6741   -6.4769 H   0  0  0  0  0  0  0  0  0  0  0  0
   -0.7997   -4.7816   -8.5261 H   0  0  0  0  0  0  0  0  0  0  0  0
    2.8917   -8.6619   -7.3536 H   0  0  0  0  0  0  0  0  0  0  0  0
    2.5761   -9.9218   -6.1805 H   0  0  0  0  0  0  0  0  0  0  0  0
    3.1851   -9.2037   -3.8853 H   0  0  0  0  0  0  0  0  0  0  0  0
    2.4083   -7.7304   -3.2646 H   0  0  0  0  0  0  0  0  0  0  0  0
    1.4292   -9.0650   -3.9401 H   0  0  0  0  0  0  0  0  0  0  0  0
   -0.4766   -7.3305   -8.6363 H   0  0  0  0  0  0  0  0  0  0  0  0
    0.4647   -6.3494   -9.7669 H   0  0  0  0  0  0  0  0  0  0  0  0
    1.2518   -7.0306   -8.4153 H   0  0  0  0  0  0  0  0  0  0  0  0
    0.3321   -8.1517   -7.0764 H   0  0  0  0  0  0  0  0  0  0  0  0
    0.8043   -9.4505   -8.0925 H   0  0  0  0  0  0  0  0  0  0  0  0
    0.1365   -9.6668   -6.4259 H   0  0  0  0  0  0  0  0  0  0  0  0
    3.7056   -1.7674   -6.9043 H   0  0  0  0  0  0  0  0  0  0  0  0
    3.9292   -0.1178   -6.4020 H   0  0  0  0  0  0  0  0  0  0  0  0
    1.3186   -1.0072   -7.7865 H   0  0  0  0  0  0  0  0  0  0  0  0
    1.5173   -0.7716   -6.0557 H   0  0  0  0  0  0  0  0  0  0  0  0
    1.7005    0.5806   -7.2022 H   0  0  0  0  0  0  0  0  0  0  0  0
  1 11  1  0  0  0  0
  1 12  1  0  0  0  0
  2 20  1  0  0  0  0
  2 25  1  0  0  0  0
  3 15  2  0  0  0  0
  4 27  1  0  0  0  0
  5 18  2  0  0  0  0
  6 20  2  0  0  0  0
  7 22  1  0  0  0  0
  7 28  1  0  0  0  0
  8 22  2  0  0  0  0
  9 15  1  0  0  0  0
  9 29  1  0  0  0  0
 10 18  1  0  0  0  0
 10 30  1  0  0  0  0
 11 12  1  0  0  0  0
 11 15  1  0  0  0  0
 11 31  1  6  0  0  0
 12 20  1  0  0  0  0
 12 32  1  1  0  0  0
 13  9  1  0  0  0  0
 13 18  1  0  0  0  0
 13 33  1  6  0  0  0
 14 21  1  0  0  0  0
 14 34  1  6  0  0  0
 14 19  1  0  0  0  0
 14 16  1  0  0  0  0
 16 10  1  0  0  0  0
 16 22  1  0  0  0  0
 16 35  1  6  0  0  0
 17 23  1  0  0  0  0
 17 36  1  6  0  0  0
 17 13  1  0  0  0  0
 17  4  1  0  0  0  0
 19 24  1  0  0  0  0
 19 37  1  0  0  0  0
 19 38  1  0  0  0  0
 21 39  1  0  0  0  0
 21 40  1  0  0  0  0
 21 41  1  0  0  0  0
 23 42  1  0  0  0  0
 23 43  1  0  0  0  0
 23 44  1  0  0  0  0
 24 45  1  0  0  0  0
 24 46  1  0  0  0  0
 24 47  1  0  0  0  0
 25 26  1  0  0  0  0
 25 48  1  0  0  0  0
 25 49  1  0  0  0  0
 26 50  1  0  0  0  0
 26 51  1  0  0  0  0
 26 52  1  0  0  0  0
M  END
>  <DRUGBANK_ID>
DB04579

>  <COMMON_NAME>
N-{[(2S,3S)-3-(Ethoxycarbonyl)-2-oxiranyl]carbonyl}-L-threonyl-L-isoleucine

$$$$
