
 OpenBabel10282417233D

 64 65  0  0  0  0  0  0  0  0999 V2000
    0.8493   -0.1526    0.0531 C   0  0  0  0  0  0  0  0  0  0  0  0
    0.3917   -0.5548   -1.3334 C   0  0  0  0  0  0  0  0  0  0  0  0
   -0.3746   -1.7671   -1.4849 C   0  0  0  0  0  0  0  0  0  0  0  0
   -0.9246   -2.2094   -2.6309 C   0  0  0  0  0  0  0  0  0  0  0  0
   -1.8020   -3.3659   -2.7198 C   0  0  0  0  0  0  0  0  0  0  0  0
   -2.8515   -3.5016   -1.8744 C   0  0  0  0  0  0  0  0  0  0  0  0
   -3.3068   -2.4632   -0.8747 C   0  0  0  0  0  0  0  0  0  0  0  0
   -3.7142   -4.7375   -1.8489 C   0  0  0  0  0  0  0  0  0  0  0  0
   -3.1596   -5.9025   -2.6550 C   0  0  0  0  0  0  0  0  0  0  0  0
   -2.6630   -5.4034   -4.0011 C   0  0  0  0  0  0  0  0  0  0  0  0
   -1.5033   -4.3810   -3.8481 C   0  0  0  0  0  0  0  0  0  0  0  0
   -1.3400   -3.7099   -5.2336 C   0  0  0  0  0  0  0  0  0  0  0  0
   -0.2001   -5.1387   -3.5239 C   0  0  0  0  0  0  0  0  0  0  0  0
    0.7030    0.2092   -2.3867 C   0  0  0  0  0  0  0  0  0  0  0  0
    1.5462    1.3318   -2.1991 C   0  0  0  0  0  0  0  0  0  0  0  0
    2.0139    2.0139   -3.2160 C   0  0  0  0  0  0  0  0  0  0  0  0
    3.0322    2.9966   -3.0331 C   0  0  0  0  0  0  0  0  0  0  0  0
    3.5517    3.2676   -4.3400 C   0  0  0  0  0  0  0  0  0  0  0  0
    3.3236    3.8426   -2.0229 C   0  0  0  0  0  0  0  0  0  0  0  0
    4.1235    5.1542   -2.1541 C   0  0  0  0  0  0  0  0  0  0  0  0
    4.6579    5.5357   -1.1008 O   0  0  0  0  0  0  0  0  0  0  0  0
    4.3452    5.9395   -3.3135 N   0  0  0  0  0  0  0  0  0  0  0  0
    3.8271    5.9994   -4.6928 C   0  0  0  0  0  0  0  0  0  0  0  0
    2.4415    5.8474   -5.0090 C   0  0  0  0  0  0  0  0  0  0  0  0
    2.0307    5.1894   -6.2120 C   0  0  0  0  0  0  0  0  0  0  0  0
    2.9480    4.8750   -7.2260 C   0  0  0  0  0  0  0  0  0  0  0  0
    4.2936    5.2148   -7.0068 C   0  0  0  0  0  0  0  0  0  0  0  0
    4.7376    5.7279   -5.7469 C   0  0  0  0  0  0  0  0  0  0  0  0
    2.4348    4.0440   -8.3837 C   0  0  0  0  0  0  0  0  0  0  0  0
    3.3089    3.8539   -9.4037 O   0  0  0  0  0  0  0  0  0  0  0  0
    1.3295    3.5710   -8.4081 O   0  0  0  0  0  0  0  0  0  0  0  0
    0.4917   -0.8123    0.8406 H   0  0  0  0  0  0  0  0  0  0  0  0
    0.4931    0.8612    0.2917 H   0  0  0  0  0  0  0  0  0  0  0  0
    1.9475   -0.1408    0.1008 H   0  0  0  0  0  0  0  0  0  0  0  0
   -0.5650   -2.3020   -0.5584 H   0  0  0  0  0  0  0  0  0  0  0  0
   -0.7596   -1.6909   -3.5687 H   0  0  0  0  0  0  0  0  0  0  0  0
   -4.3417   -2.1804   -1.0841 H   0  0  0  0  0  0  0  0  0  0  0  0
   -3.2375   -2.8683    0.1393 H   0  0  0  0  0  0  0  0  0  0  0  0
   -2.7444   -1.5285   -0.8934 H   0  0  0  0  0  0  0  0  0  0  0  0
   -3.8396   -5.0689   -0.8116 H   0  0  0  0  0  0  0  0  0  0  0  0
   -4.7059   -4.4688   -2.2310 H   0  0  0  0  0  0  0  0  0  0  0  0
   -3.9433   -6.6545   -2.7949 H   0  0  0  0  0  0  0  0  0  0  0  0
   -2.3492   -6.3927   -2.1031 H   0  0  0  0  0  0  0  0  0  0  0  0
   -3.5076   -4.9373   -4.5285 H   0  0  0  0  0  0  0  0  0  0  0  0
   -2.3488   -6.2551   -4.6167 H   0  0  0  0  0  0  0  0  0  0  0  0
   -0.4941   -3.0158   -5.2652 H   0  0  0  0  0  0  0  0  0  0  0  0
   -1.1555   -4.4604   -6.0120 H   0  0  0  0  0  0  0  0  0  0  0  0
   -2.2429   -3.1555   -5.5155 H   0  0  0  0  0  0  0  0  0  0  0  0
    0.0125   -5.8966   -4.2872 H   0  0  0  0  0  0  0  0  0  0  0  0
    0.6608   -4.4620   -3.4887 H   0  0  0  0  0  0  0  0  0  0  0  0
   -0.2574   -5.6489   -2.5570 H   0  0  0  0  0  0  0  0  0  0  0  0
    0.4108   -0.0293   -3.4069 H   0  0  0  0  0  0  0  0  0  0  0  0
    1.9138    1.5979   -1.2232 H   0  0  0  0  0  0  0  0  0  0  0  0
    1.6509    1.8054   -4.2304 H   0  0  0  0  0  0  0  0  0  0  0  0
    3.0983    4.1966   -4.2036 H   0  0  0  0  0  0  0  0  0  0  0  0
    4.6247    3.3783   -4.4261 H   0  0  0  0  0  0  0  0  0  0  0  0
    3.0198    2.9716   -5.2388 H   0  0  0  0  0  0  0  0  0  0  0  0
    3.0166    3.6009   -1.0033 H   0  0  0  0  0  0  0  0  0  0  0  0
    5.1300    6.5636   -3.1421 H   0  0  0  0  0  0  0  0  0  0  0  0
    1.7078    5.8232   -4.1983 H   0  0  0  0  0  0  0  0  0  0  0  0
    1.0403    4.7149   -6.2366 H   0  0  0  0  0  0  0  0  0  0  0  0
    5.0565    4.9715   -7.7409 H   0  0  0  0  0  0  0  0  0  0  0  0
    5.8118    5.6596   -5.5546 H   0  0  0  0  0  0  0  0  0  0  0  0
    4.1869    4.2511   -9.3327 H   0  0  0  0  0  0  0  0  0  0  0  0
  1  2  1  0  0  0  0
  1 32  1  0  0  0  0
  1 33  1  0  0  0  0
  1 34  1  0  0  0  0
  2  3  1  0  0  0  0
  2 14  2  0  0  0  0
  3  4  2  0  0  0  0
  3 35  1  0  0  0  0
  4  5  1  0  0  0  0
  4 36  1  0  0  0  0
  5  6  2  0  0  0  0
  5 11  1  0  0  0  0
  6  7  1  0  0  0  0
  6  8  1  0  0  0  0
  7 37  1  0  0  0  0
  7 38  1  0  0  0  0
  7 39  1  0  0  0  0
  8  9  1  0  0  0  0
  8 40  1  0  0  0  0
  8 41  1  0  0  0  0
  9 10  1  0  0  0  0
  9 42  1  0  0  0  0
  9 43  1  0  0  0  0
 10 11  1  0  0  0  0
 10 44  1  0  0  0  0
 10 45  1  0  0  0  0
 11 12  1  0  0  0  0
 11 13  1  0  0  0  0
 12 46  1  0  0  0  0
 12 47  1  0  0  0  0
 12 48  1  0  0  0  0
 13 49  1  0  0  0  0
 13 50  1  0  0  0  0
 13 51  1  0  0  0  0
 14 15  1  0  0  0  0
 14 52  1  0  0  0  0
 15 16  2  0  0  0  0
 15 53  1  0  0  0  0
 16 17  1  0  0  0  0
 16 54  1  0  0  0  0
 17 18  1  0  0  0  0
 17 19  2  0  0  0  0
 18 55  1  0  0  0  0
 18 56  1  0  0  0  0
 18 57  1  0  0  0  0
 19 20  1  0  0  0  0
 19 58  1  0  0  0  0
 20 21  2  0  0  0  0
 20 22  1  0  0  0  0
 22 23  1  0  0  0  0
 22 59  1  0  0  0  0
 23 24  2  0  0  0  0
 23 28  1  0  0  0  0
 24 25  1  0  0  0  0
 24 60  1  0  0  0  0
 25 26  2  0  0  0  0
 25 61  1  0  0  0  0
 26 27  1  0  0  0  0
 26 29  1  0  0  0  0
 27 28  2  0  0  0  0
 27 62  1  0  0  0  0
 28 63  1  0  0  0  0
 29 30  1  0  0  0  0
 29 31  2  0  0  0  0
 30 64  1  0  0  0  0
M  END
>  <DRUGBANK_ID>
DB17418

>  <COMMON_NAME>
Retinamidic acid

>  <CAS_NUMBER>
74193-17-2

>  <UNII>
QGJ09HO5S0

>  <SYNONYMS>
Benzoic acid, 4-((15-oxoretin-15-yl)amino)-; N-4-carboxyphenylretinamide; Retinamide (rii); Retinamide, n-(4-carboxyphenyl)-; Rii-retinamide

$$$$
