
 OpenBabel10282417193D

 56 60  0  0  0  0  0  0  0  0999 V2000
    0.8911   -0.0798    0.0173 C   0  0  0  0  0  0  0  0  0  0  0  0
    0.2705   -0.5293   -1.2893 C   0  0  0  0  0  0  0  0  0  0  0  0
    0.6488   -1.8879   -1.6052 N   0  0  0  0  0  0  0  0  0  0  0  0
    0.1181   -3.1212   -1.2397 C   0  0  0  0  0  0  0  0  0  0  0  0
    0.9388   -4.0874   -1.8138 C   0  0  0  0  0  0  0  0  0  0  0  0
    1.8953   -3.2793   -2.4898 C   0  0  0  0  0  0  0  0  0  0  0  0
    1.7408   -1.9678   -2.3607 N   0  0  0  0  0  0  0  0  0  0  0  0
    0.6556   -5.5078   -1.6290 C   0  0  0  0  0  0  0  0  0  0  0  0
   -0.4645   -5.8518   -0.8150 C   0  0  0  0  0  0  0  0  0  0  0  0
   -1.2026   -4.7454   -0.3363 C   0  0  0  0  0  0  0  0  0  0  0  0
   -0.9682   -3.3860   -0.4882 N   0  0  0  0  0  0  0  0  0  0  0  0
   -1.0249   -7.2505   -0.6370 C   0  0  0  0  0  0  0  0  0  0  0  0
   -2.2421   -7.6478   -0.9624 N   0  0  0  0  0  0  0  0  0  0  0  0
   -2.3554   -8.9975   -0.6868 N   0  0  0  0  0  0  0  0  0  0  0  0
   -1.2102   -9.4107   -0.1817 C   0  0  0  0  0  0  0  0  0  0  0  0
   -0.2919   -8.3334   -0.0953 O   0  0  0  0  0  0  0  0  0  0  0  0
   -0.9509  -10.8371    0.3555 C   0  0  0  0  0  0  0  0  0  0  0  0
    0.2282  -11.6059   -0.2152 C   0  0  0  0  0  0  0  0  0  0  0  0
    1.5643  -11.3103   -0.0352 C   0  0  0  0  0  0  0  0  0  0  0  0
    2.4673  -12.1658   -0.6405 N   0  0  0  0  0  0  0  0  0  0  0  0
    1.8426  -13.1572   -1.2387 C   0  0  0  0  0  0  0  0  0  0  0  0
    0.1193  -13.1115   -1.0673 S   0  0  0  0  0  0  0  0  0  0  0  0
    2.5606  -14.2293   -2.0084 C   0  0  0  0  0  0  0  0  0  0  0  0
    2.0740  -10.1515    0.7280 C   0  0  0  0  0  0  0  0  0  0  0  0
    1.4277   -6.5263   -2.1962 N   0  0  0  0  0  0  0  0  0  0  0  0
    2.5805   -6.3136   -3.0682 C   0  0  0  0  0  0  0  0  0  0  0  0
    3.7310   -5.6952   -2.2630 C   0  0  0  0  0  0  0  0  0  0  0  0
    4.8269   -5.1578   -3.1631 C   0  0  0  0  0  0  0  0  0  0  0  0
    4.3272   -4.4092   -4.2678 O   0  0  0  0  0  0  0  0  0  0  0  0
    3.4430   -5.1295   -5.1223 C   0  0  0  0  0  0  0  0  0  0  0  0
    2.2044   -5.6365   -4.3975 C   0  0  0  0  0  0  0  0  0  0  0  0
    0.5925   -0.7467    0.8293 H   0  0  0  0  0  0  0  0  0  0  0  0
    0.5793    0.9405    0.2536 H   0  0  0  0  0  0  0  0  0  0  0  0
    1.9884   -0.0908   -0.0339 H   0  0  0  0  0  0  0  0  0  0  0  0
   -0.8147   -0.4536   -1.3158 H   0  0  0  0  0  0  0  0  0  0  0  0
    0.6646    0.1143   -2.0955 H   0  0  0  0  0  0  0  0  0  0  0  0
    2.7318   -3.5303   -3.0928 H   0  0  0  0  0  0  0  0  0  0  0  0
   -2.1187   -4.9231    0.2286 H   0  0  0  0  0  0  0  0  0  0  0  0
   -0.8445  -10.8116    1.4524 H   0  0  0  0  0  0  0  0  0  0  0  0
   -1.8655  -11.4315    0.1955 H   0  0  0  0  0  0  0  0  0  0  0  0
    2.4354  -15.2215   -1.5622 H   0  0  0  0  0  0  0  0  0  0  0  0
    2.2380  -14.2694   -3.0541 H   0  0  0  0  0  0  0  0  0  0  0  0
    3.6396  -14.0206   -2.0195 H   0  0  0  0  0  0  0  0  0  0  0  0
    2.8099  -10.4677    1.4676 H   0  0  0  0  0  0  0  0  0  0  0  0
    2.5079   -9.4280    0.0355 H   0  0  0  0  0  0  0  0  0  0  0  0
    1.2683   -9.6598    1.2796 H   0  0  0  0  0  0  0  0  0  0  0  0
    1.0557   -7.4717   -2.1780 H   0  0  0  0  0  0  0  0  0  0  0  0
    2.9403   -7.3082   -3.3585 H   0  0  0  0  0  0  0  0  0  0  0  0
    3.4017   -4.8948   -1.5941 H   0  0  0  0  0  0  0  0  0  0  0  0
    4.1308   -6.4260   -1.5513 H   0  0  0  0  0  0  0  0  0  0  0  0
    5.4626   -4.4820   -2.5783 H   0  0  0  0  0  0  0  0  0  0  0  0
    5.4507   -5.9724   -3.5337 H   0  0  0  0  0  0  0  0  0  0  0  0
    3.9864   -5.9570   -5.5824 H   0  0  0  0  0  0  0  0  0  0  0  0
    3.1373   -4.4424   -5.9209 H   0  0  0  0  0  0  0  0  0  0  0  0
    1.6407   -6.3245   -5.0381 H   0  0  0  0  0  0  0  0  0  0  0  0
    1.4998   -4.8081   -4.2811 H   0  0  0  0  0  0  0  0  0  0  0  0
  1  2  1  0  0  0  0
  1 32  1  0  0  0  0
  1 33  1  0  0  0  0
  1 34  1  0  0  0  0
  2  3  1  0  0  0  0
  2 35  1  0  0  0  0
  2 36  1  0  0  0  0
  3  4  1  0  0  0  0
  3  7  1  0  0  0  0
  4  5  1  0  0  0  0
  4 11  2  0  0  0  0
  5  6  1  0  0  0  0
  5  8  2  0  0  0  0
  6  7  2  0  0  0  0
  6 37  1  0  0  0  0
  8  9  1  0  0  0  0
  8 25  1  0  0  0  0
  9 10  2  0  0  0  0
  9 12  1  0  0  0  0
 10 11  1  0  0  0  0
 10 38  1  0  0  0  0
 12 13  2  0  0  0  0
 12 16  1  0  0  0  0
 13 14  1  0  0  0  0
 14 15  2  0  0  0  0
 15 16  1  0  0  0  0
 15 17  1  0  0  0  0
 17 18  1  0  0  0  0
 17 39  1  0  0  0  0
 17 40  1  0  0  0  0
 18 19  2  0  0  0  0
 18 22  1  0  0  0  0
 19 20  1  0  0  0  0
 19 24  1  0  0  0  0
 20 21  2  0  0  0  0
 21 22  1  0  0  0  0
 21 23  1  0  0  0  0
 23 41  1  0  0  0  0
 23 42  1  0  0  0  0
 23 43  1  0  0  0  0
 24 44  1  0  0  0  0
 24 45  1  0  0  0  0
 24 46  1  0  0  0  0
 25 26  1  0  0  0  0
 25 47  1  0  0  0  0
 26 27  1  0  0  0  0
 26 31  1  0  0  0  0
 26 48  1  0  0  0  0
 27 28  1  0  0  0  0
 27 49  1  0  0  0  0
 27 50  1  0  0  0  0
 28 29  1  0  0  0  0
 28 51  1  0  0  0  0
 28 52  1  0  0  0  0
 29 30  1  0  0  0  0
 30 31  1  0  0  0  0
 30 53  1  0  0  0  0
 30 54  1  0  0  0  0
 31 55  1  0  0  0  0
 31 56  1  0  0  0  0
M  END
>  <DRUGBANK_ID>
DB12542

>  <COMMON_NAME>
GSK-356278

>  <CAS_NUMBER>
720704-34-7

>  <UNII>
1QTA9P992C

$$$$
