454
 OpenBabel10282417103D

 39 40  0  0  0  0  0  0  0  0999 V2000
    0.9123    0.0896   -0.0210 O   0  0  0  0  0  0  0  0  0  0  0  0
    0.9870    2.2953   -0.6167 O   0  0  0  0  0  0  0  0  0  0  0  0
   -1.7683    2.0129    2.4932 N   0  0  0  0  0  0  0  0  0  0  0  0
   -1.2210    1.2480   -0.2933 C   0  0  0  0  0  0  0  0  0  0  0  0
   -1.7402    2.6526    0.1090 C   0  0  0  0  0  0  0  0  0  0  0  0
   -1.7159    0.2562    0.7823 C   0  0  0  0  0  0  0  0  0  0  0  0
   -1.3068    3.0151    1.5262 C   0  0  0  0  0  0  0  0  0  0  0  0
   -1.2750    0.6703    2.1747 C   0  0  0  0  0  0  0  0  0  0  0  0
   -1.7599    0.9027   -1.6862 C   0  0  0  0  0  0  0  0  0  0  0  0
    0.3355    1.2883   -0.3323 C   0  0  0  0  0  0  0  0  0  0  0  0
   -1.3190    2.3824    3.8334 C   0  0  0  0  0  0  0  0  0  0  0  0
   -1.4042    1.7083   -2.7808 C   0  0  0  0  0  0  0  0  0  0  0  0
   -2.5895   -0.2066   -1.9228 C   0  0  0  0  0  0  0  0  0  0  0  0
   -1.8321    1.3940   -4.0669 C   0  0  0  0  0  0  0  0  0  0  0  0
   -2.9700   -0.5519   -3.2158 C   0  0  0  0  0  0  0  0  0  0  0  0
   -2.6076    0.2594   -4.2843 C   0  0  0  0  0  0  0  0  0  0  0  0
    2.3500    0.1113    0.0063 C   0  0  0  0  0  0  0  0  0  0  0  0
    2.8670   -1.2642    0.3903 C   0  0  0  0  0  0  0  0  0  0  0  0
   -2.8374    2.6856    0.0393 H   0  0  0  0  0  0  0  0  0  0  0  0
   -1.3728    3.4319   -0.5710 H   0  0  0  0  0  0  0  0  0  0  0  0
   -2.8152    0.2082    0.7787 H   0  0  0  0  0  0  0  0  0  0  0  0
   -1.3591   -0.7613    0.5766 H   0  0  0  0  0  0  0  0  0  0  0  0
   -1.7291    3.9971    1.7711 H   0  0  0  0  0  0  0  0  0  0  0  0
   -0.2159    3.1206    1.5695 H   0  0  0  0  0  0  0  0  0  0  0  0
   -0.1835    0.6230    2.2561 H   0  0  0  0  0  0  0  0  0  0  0  0
   -1.6831   -0.0584    2.8851 H   0  0  0  0  0  0  0  0  0  0  0  0
   -1.7053    1.6729    4.5720 H   0  0  0  0  0  0  0  0  0  0  0  0
   -0.2249    2.3927    3.8989 H   0  0  0  0  0  0  0  0  0  0  0  0
   -1.6948    3.3731    4.1060 H   0  0  0  0  0  0  0  0  0  0  0  0
   -0.7826    2.5917   -2.6401 H   0  0  0  0  0  0  0  0  0  0  0  0
   -2.9593   -0.8339   -1.1161 H   0  0  0  0  0  0  0  0  0  0  0  0
   -1.5410    2.0294   -4.8978 H   0  0  0  0  0  0  0  0  0  0  0  0
   -3.5431   -1.4600   -3.3807 H   0  0  0  0  0  0  0  0  0  0  0  0
   -2.9351    0.0081   -5.2874 H   0  0  0  0  0  0  0  0  0  0  0  0
    2.7318    0.3799   -0.9847 H   0  0  0  0  0  0  0  0  0  0  0  0
    2.6969    0.8449    0.7442 H   0  0  0  0  0  0  0  0  0  0  0  0
    2.5128   -2.0226   -0.3149 H   0  0  0  0  0  0  0  0  0  0  0  0
    3.9618   -1.2797    0.4001 H   0  0  0  0  0  0  0  0  0  0  0  0
    2.5066   -1.5541    1.3828 H   0  0  0  0  0  0  0  0  0  0  0  0
  1 10  1  0  0  0  0
  1 17  1  0  0  0  0
  2 10  2  0  0  0  0
  3  7  1  0  0  0  0
  3  8  1  0  0  0  0
  3 11  1  0  0  0  0
  4  5  1  0  0  0  0
  4  6  1  0  0  0  0
  4  9  1  0  0  0  0
  4 10  1  0  0  0  0
  5  7  1  0  0  0  0
  5 19  1  0  0  0  0
  5 20  1  0  0  0  0
  6  8  1  0  0  0  0
  6 21  1  0  0  0  0
  6 22  1  0  0  0  0
  7 23  1  0  0  0  0
  7 24  1  0  0  0  0
  8 25  1  0  0  0  0
  8 26  1  0  0  0  0
  9 12  2  0  0  0  0
  9 13  1  0  0  0  0
 11 27  1  0  0  0  0
 11 28  1  0  0  0  0
 11 29  1  0  0  0  0
 12 14  1  0  0  0  0
 12 30  1  0  0  0  0
 13 15  2  0  0  0  0
 13 31  1  0  0  0  0
 14 16  2  0  0  0  0
 14 32  1  0  0  0  0
 15 16  1  0  0  0  0
 15 33  1  0  0  0  0
 16 34  1  0  0  0  0
 17 18  1  0  0  0  0
 17 35  1  0  0  0  0
 17 36  1  0  0  0  0
 18 37  1  0  0  0  0
 18 38  1  0  0  0  0
 18 39  1  0  0  0  0
M  END
>  <DRUGBANK_ID>
DB00454

>  <SECONDARY_ACCESSION_NUMBERS>
APRD00074

>  <COMMON_NAME>
Meperidine

>  <CAS_NUMBER>
57-42-1

>  <UNII>
9E338QE28F

>  <SYNONYMS>
Isonipecaïne; Meperidina; Pethidin; Pethidine; Péthidine; Pethidinum; Petidina; Petydyna

$$$$
