
 OpenBabel10282417193D

 78 81  0  0  1  0  0  0  0  0999 V2000
   -6.2596   -8.5984    0.0785 C   0  0  0  0  0  0  0  0  0  0  0  0
   -5.4250   -7.3670    0.1037 C   0  0  0  0  0  0  0  0  0  0  0  0
   -5.9145   -6.1516    0.0029 N   0  0  0  0  0  0  0  0  0  0  0  0
   -4.8918   -5.2190    0.0728 C   0  0  0  0  0  0  0  0  0  0  0  0
   -5.0509   -3.8118    0.0390 C   0  0  0  0  0  0  0  0  0  0  0  0
   -3.9422   -2.9594    0.1962 C   0  0  0  0  0  0  0  0  0  0  0  0
   -2.6669   -3.5433    0.2644 C   0  0  0  0  0  0  0  0  0  0  0  0
   -2.4771   -4.9334    0.2861 C   0  0  0  0  0  0  0  0  0  0  0  0
   -3.6104   -5.7544    0.2115 C   0  0  0  0  0  0  0  0  0  0  0  0
   -3.7208   -7.4745    0.2680 S   0  0  0  0  0  0  0  0  0  0  0  0
   -4.0722   -1.4362    0.2408 C   0  0  2  0  0  0  0  0  0  0  0  0
   -4.8131   -0.7832    1.4837 C   0  0  0  0  0  0  0  0  0  0  0  0
   -3.9777   -0.5216    2.7715 C   0  0  1  0  0  3  0  0  0  0  0  0
   -3.6439    0.5897    3.7597 C   0  0  2  0  0  0  0  0  0  0  0  0
   -4.7968   -0.2336    3.8443 O   0  0  0  0  0  0  0  0  0  0  0  0
   -3.9626    2.0852    3.6169 C   0  0  0  0  0  0  0  0  0  0  0  0
   -2.6427    2.8947    3.7907 C   0  0  0  0  0  0  0  0  0  0  0  0
   -2.5043    4.2404    3.0924 C   0  0  0  0  0  0  0  0  0  0  0  0
   -2.5420    4.0030    1.6012 C   0  0  1  0  0  0  0  0  0  0  0  0
   -2.5229    5.2934    0.7619 C   0  0  1  0  0  0  0  0  0  0  0  0
   -2.3115    5.0530   -0.7849 C   0  0  2  0  0  0  0  0  0  0  0  0
   -2.6925    3.5117   -1.2261 C   0  0  0  0  0  0  0  0  0  0  0  0
   -3.4534    2.8571   -0.5072 O   0  0  0  0  0  0  0  0  0  0  0  0
   -2.3721    2.8523   -2.6739 C   0  0  0  0  0  0  0  0  0  0  0  0
   -2.7201    1.3618   -2.6103 C   0  0  2  0  0  0  0  0  0  0  0  0
   -4.0786    0.8210   -2.2793 C   0  0  0  0  0  0  0  0  0  0  0  0
   -3.8731   -0.6256   -1.9238 C   0  0  0  0  0  0  0  0  0  0  0  0
   -2.9163   -1.3524   -2.3034 O   0  0  0  0  0  0  0  0  0  0  0  0
   -4.7473   -0.9977   -0.9645 O   0  0  0  0  0  0  0  0  0  0  0  0
   -1.7401    0.7813   -1.6996 O   0  0  0  0  0  0  0  0  0  0  0  0
   -3.3884    3.7582   -3.4800 C   0  0  0  0  0  0  0  0  0  0  0  0
   -0.7227    2.4132   -3.1757 C   0  0  0  0  0  0  0  0  0  0  0  0
   -0.9081    5.5610   -1.2711 C   0  0  0  0  0  0  0  0  0  0  0  0
   -0.7876    5.0345   -2.6254 C   0  0  0  0  0  0  0  0  0  0  0  0
   -0.8846    5.2517   -3.9404 C   0  0  0  0  0  0  0  0  0  0  0  0
   -3.7457    6.0262    0.9638 O   0  0  0  0  0  0  0  0  0  0  0  0
   -1.3153    3.1186    1.2577 C   0  0  0  0  0  0  0  0  0  0  0  0
   -2.7104    0.3995    4.9800 C   0  0  0  0  0  0  0  0  0  0  0  0
   -5.9837   -9.2419   -0.7625 H   0  0  0  0  0  0  0  0  0  0  0  0
   -6.1567   -9.1646    1.0097 H   0  0  0  0  0  0  0  0  0  0  0  0
   -7.3154   -8.3310   -0.0359 H   0  0  0  0  0  0  0  0  0  0  0  0
   -6.0526   -3.4167   -0.0985 H   0  0  0  0  0  0  0  0  0  0  0  0
   -1.7836   -2.9063    0.2962 H   0  0  0  0  0  0  0  0  0  0  0  0
   -1.4809   -5.3571    0.3759 H   0  0  0  0  0  0  0  0  0  0  0  0
   -3.0656   -1.0028    0.2419 H   0  0  0  0  0  0  0  0  0  0  0  0
   -5.6665   -1.4479    1.7109 H   0  0  0  0  0  0  0  0  0  0  0  0
   -5.2900    0.1401    1.1235 H   0  0  0  0  0  0  0  0  0  0  0  0
   -4.6260    2.4052    4.4327 H   0  0  0  0  0  0  0  0  0  0  0  0
   -4.4879    2.2805    2.6826 H   0  0  0  0  0  0  0  0  0  0  0  0
   -2.3571    3.0428    4.8380 H   0  0  0  0  0  0  0  0  0  0  0  0
   -1.8716    2.2266    3.4133 H   0  0  0  0  0  0  0  0  0  0  0  0
   -3.2510    4.9527    3.4490 H   0  0  0  0  0  0  0  0  0  0  0  0
   -1.5144    4.6619    3.3063 H   0  0  0  0  0  0  0  0  0  0  0  0
   -3.5166    3.5223    1.4473 H   0  0  0  0  0  0  0  0  0  0  0  0
   -1.7358    5.9393    1.1623 H   0  0  0  0  0  0  0  0  0  0  0  0
   -3.0398    5.7092   -1.2806 H   0  0  0  0  0  0  0  0  0  0  0  0
   -2.5100    0.9618   -3.6163 H   0  0  0  0  0  0  0  0  0  0  0  0
   -4.7757    0.9782   -3.1039 H   0  0  0  0  0  0  0  0  0  0  0  0
   -4.4988    1.2959   -1.3983 H   0  0  0  0  0  0  0  0  0  0  0  0
   -1.5520    1.3989   -0.9795 H   0  0  0  0  0  0  0  0  0  0  0  0
   -3.3333    3.7011   -4.5624 H   0  0  0  0  0  0  0  0  0  0  0  0
   -4.4374    3.6211   -3.1581 H   0  0  0  0  0  0  0  0  0  0  0  0
   -3.2755    4.8305   -3.2291 H   0  0  0  0  0  0  0  0  0  0  0  0
   -0.1425    3.0312   -3.8622 H   0  0  0  0  0  0  0  0  0  0  0  0
   -0.0717    2.3276   -2.2769 H   0  0  0  0  0  0  0  0  0  0  0  0
   -0.6336    1.4439   -3.6820 H   0  0  0  0  0  0  0  0  0  0  0  0
   -0.7277    6.6259   -1.3027 H   0  0  0  0  0  0  0  0  0  0  0  0
   -0.1128    5.0729   -0.6794 H   0  0  0  0  0  0  0  0  0  0  0  0
   -0.6420    4.0607   -2.2475 H   0  0  0  0  0  0  0  0  0  0  0  0
   -1.0660    4.4000   -4.6231 H   0  0  0  0  0  0  0  0  0  0  0  0
   -0.9801    6.1840   -4.4487 H   0  0  0  0  0  0  0  0  0  0  0  0
   -3.7170    6.4500    1.8420 H   0  0  0  0  0  0  0  0  0  0  0  0
   -0.5515    3.7067    0.7630 H   0  0  0  0  0  0  0  0  0  0  0  0
   -0.7679    2.7096    2.1026 H   0  0  0  0  0  0  0  0  0  0  0  0
   -1.5754    2.2425    0.6709 H   0  0  0  0  0  0  0  0  0  0  0  0
   -1.7085    0.8127    4.7907 H   0  0  0  0  0  0  0  0  0  0  0  0
   -3.0964    1.0077    5.8180 H   0  0  0  0  0  0  0  0  0  0  0  0
   -2.5439   -0.6098    5.3500 H   0  0  0  0  0  0  0  0  0  0  0  0
  1  2  1  0  0  0  0
  1 39  1  0  0  0  0
  1 40  1  0  0  0  0
  1 41  1  0  0  0  0
  2  3  2  0  0  0  0
  2 10  1  0  0  0  0
  3  4  1  0  0  0  0
  4  5  2  0  0  0  0
  4  9  1  0  0  0  0
  5  6  1  0  0  0  0
  5 42  1  0  0  0  0
  6  7  2  0  0  0  0
  7  8  1  0  0  0  0
  7 43  1  0  0  0  0
  8  9  2  0  0  0  0
  8 44  1  0  0  0  0
  9 10  1  0  0  0  0
 11 12  1  0  0  0  0
 11 29  1  0  0  0  0
 11  6  1  0  0  0  0
 11 45  1  6  0  0  0
 12 13  1  0  0  0  0
 12 46  1  0  0  0  0
 12 47  1  0  0  0  0
 13 14  1  0  0  0  0
 13 15  1  1  0  0  0
 14 15  1  0  0  0  0
 14 16  1  0  0  0  0
 14 38  1  1  0  0  0
 16 17  1  0  0  0  0
 16 48  1  0  0  0  0
 16 49  1  0  0  0  0
 17 18  1  0  0  0  0
 17 50  1  0  0  0  0
 17 51  1  0  0  0  0
 18 19  1  0  0  0  0
 18 52  1  0  0  0  0
 18 53  1  0  0  0  0
 19 20  1  0  0  0  0
 19 54  1  6  0  0  0
 19 37  1  0  0  0  0
 20 21  1  0  0  0  0
 20 36  1  0  0  0  0
 20 55  1  1  0  0  0
 21 22  1  0  0  0  0
 21 56  1  6  0  0  0
 21 33  1  0  0  0  0
 22 24  1  0  0  0  0
 22 23  2  0  0  0  0
 24 25  1  0  0  0  0
 24 31  1  0  0  0  0
 24 32  1  0  0  0  0
 25 26  1  0  0  0  0
 25 57  1  6  0  0  0
 25 30  1  0  0  0  0
 26 27  1  0  0  0  0
 26 58  1  0  0  0  0
 26 59  1  0  0  0  0
 27 29  1  0  0  0  0
 27 28  2  0  0  0  0
 30 60  1  0  0  0  0
 31 61  1  0  0  0  0
 31 62  1  0  0  0  0
 31 63  1  0  0  0  0
 32 64  1  0  0  0  0
 32 65  1  0  0  0  0
 32 66  1  0  0  0  0
 33 34  1  0  0  0  0
 33 67  1  0  0  0  0
 33 68  1  0  0  0  0
 34 35  2  0  0  0  0
 34 69  1  0  0  0  0
 35 70  1  0  0  0  0
 35 71  1  0  0  0  0
 36 72  1  0  0  0  0
 37 73  1  0  0  0  0
 37 74  1  0  0  0  0
 37 75  1  0  0  0  0
 38 76  1  0  0  0  0
 38 77  1  0  0  0  0
 38 78  1  0  0  0  0
M  END
>  <DRUGBANK_ID>
DB12391

>  <SECONDARY_ACCESSION_NUMBERS>
DB05654

>  <COMMON_NAME>
Sagopilone

>  <CAS_NUMBER>
305841-29-6

>  <UNII>
KY72JU32FO

>  <SYNONYMS>
Sagopilone

$$$$
