
 OpenBabel10282417153D

 36 38  0  0  0  0  0  0  0  0999 V2000
    1.0370   -0.0546   -0.0033 S   0  0  0  0  0  0  0  0  0  0  0  0
   -0.4207    2.2027   -0.5605 C   0  0  0  0  0  0  0  0  0  0  0  0
    0.3279    1.4460    0.3986 N   0  0  0  0  0  0  0  0  0  0  0  0
   -0.1820    3.4956   -1.0106 N   0  0  0  0  0  0  0  0  0  0  0  0
   -1.5821    1.7919   -1.1775 C   0  0  0  0  0  0  0  0  0  0  0  0
   -1.0613    3.8580   -1.9843 N   0  0  0  0  0  0  0  0  0  0  0  0
    0.6077   -0.6362   -1.6364 C   0  0  0  0  0  0  0  0  0  0  0  0
   -1.8628    2.7999   -2.1173 C   0  0  0  0  0  0  0  0  0  0  0  0
    0.9145    4.3310   -0.7113 C   0  0  0  0  0  0  0  0  0  0  0  0
    0.2854    0.2182   -2.6842 C   0  0  0  0  0  0  0  0  0  0  0  0
    0.6144   -2.0103   -1.8878 C   0  0  0  0  0  0  0  0  0  0  0  0
   -0.2032   -1.6202   -4.1562 C   0  0  0  0  0  0  0  0  0  0  0  0
   -0.6632   -2.0833   -5.3727 N   0  0  0  0  0  0  0  0  0  0  0  0
   -0.2360   -0.2631   -3.8821 C   0  0  0  0  0  0  0  0  0  0  0  0
    0.2474   -2.4887   -3.1575 C   0  0  0  0  0  0  0  0  0  0  0  0
    2.2282    3.8628   -0.8389 C   0  0  0  0  0  0  0  0  0  0  0  0
    0.6605    5.6513   -0.3275 C   0  0  0  0  0  0  0  0  0  0  0  0
    1.7286    6.5135   -0.0834 C   0  0  0  0  0  0  0  0  0  0  0  0
    3.2906    4.7329   -0.5834 C   0  0  0  0  0  0  0  0  0  0  0  0
    3.0406    6.0510   -0.1958 C   0  0  0  0  0  0  0  0  0  0  0  0
    0.4742   -1.0015    0.9472 O   0  0  0  0  0  0  0  0  0  0  0  0
    2.4606    0.1854   -0.0415 O   0  0  0  0  0  0  0  0  0  0  0  0
    1.0154    1.9965    0.9231 H   0  0  0  0  0  0  0  0  0  0  0  0
   -2.0660    0.8307   -1.0763 H   0  0  0  0  0  0  0  0  0  0  0  0
   -2.6018    2.7869   -2.9107 H   0  0  0  0  0  0  0  0  0  0  0  0
    0.4012    1.2866   -2.6102 H   0  0  0  0  0  0  0  0  0  0  0  0
    0.9426   -2.7140   -1.1241 H   0  0  0  0  0  0  0  0  0  0  0  0
   -0.9160   -1.4228   -6.0976 H   0  0  0  0  0  0  0  0  0  0  0  0
   -0.5035   -3.0431   -5.6443 H   0  0  0  0  0  0  0  0  0  0  0  0
   -0.6215    0.4473   -4.6094 H   0  0  0  0  0  0  0  0  0  0  0  0
    0.3256   -3.5523   -3.3651 H   0  0  0  0  0  0  0  0  0  0  0  0
    2.4479    2.8567   -1.1880 H   0  0  0  0  0  0  0  0  0  0  0  0
   -0.3598    5.9983   -0.1774 H   0  0  0  0  0  0  0  0  0  0  0  0
    1.5385    7.5488    0.1879 H   0  0  0  0  0  0  0  0  0  0  0  0
    4.3167    4.3917   -0.7056 H   0  0  0  0  0  0  0  0  0  0  0  0
    3.8701    6.7220    0.0156 H   0  0  0  0  0  0  0  0  0  0  0  0
  3  1  1  0  0  0  0
  3  2  1  0  0  0  0
  3 23  1  0  0  0  0
  4  2  1  0  0  0  0
  5  2  2  0  0  0  0
  5 24  1  0  0  0  0
  6  4  1  0  0  0  0
  7  1  1  0  0  0  0
  8  5  1  0  0  0  0
  8  6  2  0  0  0  0
  8 25  1  0  0  0  0
  9  4  1  0  0  0  0
 10  7  2  0  0  0  0
 10 26  1  0  0  0  0
 11  7  1  0  0  0  0
 11 27  1  0  0  0  0
 13 12  1  0  0  0  0
 13 28  1  0  0  0  0
 13 29  1  0  0  0  0
 14 10  1  0  0  0  0
 14 12  2  0  0  0  0
 14 30  1  0  0  0  0
 15 11  2  0  0  0  0
 15 12  1  0  0  0  0
 15 31  1  0  0  0  0
 16  9  1  0  0  0  0
 16 32  1  0  0  0  0
 17  9  2  0  0  0  0
 17 33  1  0  0  0  0
 18 17  1  0  0  0  0
 18 34  1  0  0  0  0
 19 16  2  0  0  0  0
 19 35  1  0  0  0  0
 20 18  2  0  0  0  0
 20 19  1  0  0  0  0
 20 36  1  0  0  0  0
 21  1  2  0  0  0  0
 22  1  2  0  0  0  0
M  END
>  <DRUGBANK_ID>
DB06729

>  <COMMON_NAME>
Sulfaphenazole

>  <CAS_NUMBER>
526-08-9

>  <UNII>
0J8L4V3F81

>  <SYNONYMS>
1-phenyl-5-sulfanilamidopyrazole; 3-(p-aminobenzenesulfonamido)-2-phenylpyrazole; 5-sulfanilamido-1-phenylpyrazole; N'-(1-phenylpyrazol-5-yl)sulfanilamide; N(1)-(1-phenylpyrazol-5-yl)sulfanilamide; Sulfafenazol; Sulfafenazolo; Sulfaph√©nazol; Sulfaphenazole; Sulfaphenazolum; Sulphaphenazole

$$$$
