
 OpenBabel10282417123D

 55 57  0  0  0  0  0  0  0  0999 V2000
    1.1501    0.2010    0.2015 C   0  0  0  0  0  0  0  0  0  0  0  0
    0.6683   -1.1673    0.1150 N   0  0  0  0  0  0  0  0  0  0  0  0
   -0.8210   -1.1850    0.2628 C   0  0  0  0  0  0  0  0  0  0  0  0
   -1.6571   -0.5052   -0.8394 C   0  0  0  0  0  0  0  0  0  0  0  0
   -1.5389   -1.3553   -2.0426 C   0  0  0  0  0  0  0  0  0  0  0  0
   -1.9214   -2.7794   -1.9301 C   0  0  0  0  0  0  0  0  0  0  0  0
   -3.3229   -2.9934   -2.3285 C   0  0  0  0  0  0  0  0  0  0  0  0
   -3.5520   -2.4152   -3.7345 C   0  0  0  0  0  0  0  0  0  0  0  0
   -3.0548   -3.2223   -4.8473 O   0  0  0  0  0  0  0  0  0  0  0  0
   -1.7035   -3.3488   -5.0865 C   0  0  0  0  0  0  0  0  0  0  0  0
   -0.8827   -4.1492   -4.3021 C   0  0  0  0  0  0  0  0  0  0  0  0
    0.5030   -3.9467   -4.2808 C   0  0  0  0  0  0  0  0  0  0  0  0
    1.1059   -3.4859   -5.4541 C   0  0  0  0  0  0  0  0  0  0  0  0
    0.2542   -2.9988   -6.4507 C   0  0  0  0  0  0  0  0  0  0  0  0
    1.2259   -2.6887   -7.8275 S   0  0  0  0  0  0  0  0  0  0  0  0
    2.6822   -3.0494   -7.1336 N   0  0  0  0  0  0  0  0  0  0  0  0
    2.4955   -3.4370   -5.8697 C   0  0  0  0  0  0  0  0  0  0  0  0
    3.6600   -3.7927   -5.0408 C   0  0  0  0  0  0  0  0  0  0  0  0
    3.7098   -4.9878   -4.3066 C   0  0  0  0  0  0  0  0  0  0  0  0
    4.7601   -5.2275   -3.4117 C   0  0  0  0  0  0  0  0  0  0  0  0
    5.8145   -4.3206   -3.3256 C   0  0  0  0  0  0  0  0  0  0  0  0
    7.2075   -4.6087   -2.0808 Br  0  0  0  0  0  0  0  0  0  0  0  0
    5.8362   -3.1875   -4.1341 C   0  0  0  0  0  0  0  0  0  0  0  0
    4.7398   -2.9022   -4.9519 C   0  0  0  0  0  0  0  0  0  0  0  0
   -1.1418   -2.8356   -6.2497 C   0  0  0  0  0  0  0  0  0  0  0  0
    1.3533   -1.8231   -1.0469 C   0  0  0  0  0  0  0  0  0  0  0  0
    1.3442   -0.9941   -2.3420 C   0  0  0  0  0  0  0  0  0  0  0  0
    2.1573   -0.8195   -3.4058 C   0  0  0  0  0  0  0  0  0  0  0  0
    0.7698    0.6910    1.0970 H   0  0  0  0  0  0  0  0  0  0  0  0
    0.8332    0.7927   -0.6622 H   0  0  0  0  0  0  0  0  0  0  0  0
    2.2412    0.1979    0.2320 H   0  0  0  0  0  0  0  0  0  0  0  0
   -1.1583   -2.2184    0.4089 H   0  0  0  0  0  0  0  0  0  0  0  0
   -1.1102   -0.7085    1.2060 H   0  0  0  0  0  0  0  0  0  0  0  0
   -2.7188   -0.3893   -0.6045 H   0  0  0  0  0  0  0  0  0  0  0  0
   -1.2696    0.4930   -1.0715 H   0  0  0  0  0  0  0  0  0  0  0  0
   -1.6331   -0.8403   -3.0037 H   0  0  0  0  0  0  0  0  0  0  0  0
   -0.5323   -1.6216   -2.0751 H   0  0  0  0  0  0  0  0  0  0  0  0
   -1.2585   -3.1384   -2.6604 H   0  0  0  0  0  0  0  0  0  0  0  0
   -1.5504   -3.3791   -1.0945 H   0  0  0  0  0  0  0  0  0  0  0  0
   -3.5324   -4.0629   -2.3023 H   0  0  0  0  0  0  0  0  0  0  0  0
   -3.9125   -2.4862   -1.5553 H   0  0  0  0  0  0  0  0  0  0  0  0
   -4.6403   -2.3587   -3.8355 H   0  0  0  0  0  0  0  0  0  0  0  0
   -3.2511   -1.3630   -3.8395 H   0  0  0  0  0  0  0  0  0  0  0  0
   -1.3076   -4.7558   -3.5033 H   0  0  0  0  0  0  0  0  0  0  0  0
    1.0916   -4.1962   -3.3995 H   0  0  0  0  0  0  0  0  0  0  0  0
    2.9334   -5.7413   -4.4191 H   0  0  0  0  0  0  0  0  0  0  0  0
    4.7488   -6.1203   -2.7908 H   0  0  0  0  0  0  0  0  0  0  0  0
    6.6883   -2.5135   -4.1275 H   0  0  0  0  0  0  0  0  0  0  0  0
    4.7171   -1.9655   -5.5059 H   0  0  0  0  0  0  0  0  0  0  0  0
   -1.7688   -2.3996   -7.0185 H   0  0  0  0  0  0  0  0  0  0  0  0
    2.3923   -2.0467   -0.7816 H   0  0  0  0  0  0  0  0  0  0  0  0
    0.9034   -2.8230   -1.1880 H   0  0  0  0  0  0  0  0  0  0  0  0
    0.4905   -0.3514   -2.5196 H   0  0  0  0  0  0  0  0  0  0  0  0
    1.7141   -0.2678   -4.2366 H   0  0  0  0  0  0  0  0  0  0  0  0
    3.1384   -1.2177   -3.4702 H   0  0  0  0  0  0  0  0  0  0  0  0
  1  2  1  0  0  0  0
  1 29  1  0  0  0  0
  1 30  1  0  0  0  0
  1 31  1  0  0  0  0
  2  3  1  0  0  0  0
  2 26  1  0  0  0  0
  3  4  1  0  0  0  0
  3 32  1  0  0  0  0
  3 33  1  0  0  0  0
  4  5  1  0  0  0  0
  4 34  1  0  0  0  0
  4 35  1  0  0  0  0
  5  6  1  0  0  0  0
  5 36  1  0  0  0  0
  5 37  1  0  0  0  0
  6  7  1  0  0  0  0
  6 38  1  0  0  0  0
  6 39  1  0  0  0  0
  7  8  1  0  0  0  0
  7 40  1  0  0  0  0
  7 41  1  0  0  0  0
  8  9  1  0  0  0  0
  8 42  1  0  0  0  0
  8 43  1  0  0  0  0
  9 10  1  0  0  0  0
 10 11  2  0  0  0  0
 10 25  1  0  0  0  0
 11 12  1  0  0  0  0
 11 44  1  0  0  0  0
 12 13  2  0  0  0  0
 12 45  1  0  0  0  0
 13 14  1  0  0  0  0
 13 17  1  0  0  0  0
 14 15  1  0  0  0  0
 14 25  2  0  0  0  0
 15 16  1  0  0  0  0
 16 17  2  0  0  0  0
 17 18  1  0  0  0  0
 18 19  2  0  0  0  0
 18 24  1  0  0  0  0
 19 20  1  0  0  0  0
 19 46  1  0  0  0  0
 20 21  2  0  0  0  0
 20 47  1  0  0  0  0
 21 22  1  0  0  0  0
 21 23  1  0  0  0  0
 23 24  2  0  0  0  0
 23 48  1  0  0  0  0
 24 49  1  0  0  0  0
 25 50  1  0  0  0  0
 26 27  1  0  0  0  0
 26 51  1  0  0  0  0
 26 52  1  0  0  0  0
 27 28  2  0  0  0  0
 27 53  1  0  0  0  0
 28 54  1  0  0  0  0
 28 55  1  0  0  0  0
M  END
>  <DRUGBANK_ID>
DB02544

>  <SECONDARY_ACCESSION_NUMBERS>
EXPT02750

>  <COMMON_NAME>
N-(6-{[3-(4-Bromophenyl)-1,2-Benzisothiazol-6-Yl]Oxy}Hexyl)-N-Methylprop-2-En-1-Amine

$$$$
