
 OpenBabel10282417133D

 15 14  0  0  0  0  0  0  0  0999 V2000
    0.8706   -0.0111   -0.0527 O   0  0  0  0  0  0  0  0  0  0  0  0
    0.5614   -1.0743    0.8044 N   0  0  0  0  0  0  0  0  0  0  0  0
    1.4611   -1.9595    1.3109 C   0  0  0  0  0  0  0  0  0  0  0  0
    1.0732   -2.9430    1.9493 O   0  0  0  0  0  0  0  0  0  0  0  0
    2.9047   -1.7390    0.9987 C   0  0  0  0  0  0  0  0  0  0  0  0
    3.2192   -2.0764   -0.7159 P   0  0  0  0  0  0  0  0  0  0  0  0
    3.9842   -3.4800   -0.6433 O   0  0  0  0  0  0  0  0  0  0  0  0
    1.8031   -2.4378   -1.3718 O   0  0  0  0  0  0  0  0  0  0  0  0
    3.9722   -1.0464   -1.4887 O   0  0  0  0  0  0  0  0  0  0  0  0
    1.8247    0.1784    0.0028 H   0  0  0  0  0  0  0  0  0  0  0  0
   -0.4312   -1.2812    0.9209 H   0  0  0  0  0  0  0  0  0  0  0  0
    3.2199   -0.7450    1.3352 H   0  0  0  0  0  0  0  0  0  0  0  0
    3.4846   -2.4540    1.5922 H   0  0  0  0  0  0  0  0  0  0  0  0
    4.9461   -3.3529   -0.5296 H   0  0  0  0  0  0  0  0  0  0  0  0
    1.0626   -1.8693   -1.0617 H   0  0  0  0  0  0  0  0  0  0  0  0
  1  2  1  0  0  0  0
  1 10  1  0  0  0  0
  2  3  1  0  0  0  0
  2 11  1  0  0  0  0
  3  4  2  0  0  0  0
  3  5  1  0  0  0  0
  5  6  1  0  0  0  0
  5 12  1  0  0  0  0
  5 13  1  0  0  0  0
  6  7  1  0  0  0  0
  6  8  1  0  0  0  0
  6  9  2  0  0  0  0
  7 14  1  0  0  0  0
  8 15  1  0  0  0  0
M  END
>  <DRUGBANK_ID>
DB03645

>  <SECONDARY_ACCESSION_NUMBERS>
EXPT02491

>  <COMMON_NAME>
Phosphonoacetohydroxamic Acid

>  <UNII>
QMJ2VH9SGQ

$$$$
