879
 OpenBabel10282417113D

 13 13  0  0  1  0  0  0  0  0999 V2000
   -2.4602    0.7091   -0.0370 F   0  0  0  0  0  0  0  0  0  0  0  0
    2.8025   -0.1897   -0.0194 O   0  0  0  0  0  0  0  0  0  0  0  0
    1.0844    1.2516    0.0530 N   0  0  0  0  0  0  0  0  0  0  0  0
    0.6945   -1.0845    0.0088 N   0  0  0  0  0  0  0  0  0  0  0  0
   -1.4459   -1.8935    0.0090 N   0  0  0  0  0  0  0  0  0  0  0  0
   -0.2494    1.5425    0.0314 C   0  0  0  0  0  0  0  0  0  0  0  0
    1.5838   -0.0339    0.0115 C   0  0  0  0  0  0  0  0  0  0  0  0
   -1.1267    0.5469   -0.0050 C   0  0  0  0  0  0  0  0  0  0  0  0
   -0.5841   -0.8354    0.0037 C   0  0  0  0  0  0  0  0  0  0  0  0
    1.7834    1.9829    0.0771 H   0  0  0  0  0  0  0  0  0  0  0  0
   -2.4481   -1.7584    0.0228 H   0  0  0  0  0  0  0  0  0  0  0  0
   -1.0713   -2.8325    0.0396 H   0  0  0  0  0  0  0  0  0  0  0  0
   -0.5458    2.5835    0.0378 H   0  0  0  0  0  0  0  0  0  0  0  0
  1  8  1  0  0  0  0
  2  7  2  0  0  0  0
  3  6  1  0  0  0  0
  3  7  1  0  0  0  0
  3 10  1  0  0  0  0
  4  7  1  0  0  0  0
  4  9  2  0  0  0  0
  5  9  1  0  0  0  0
  5 11  1  0  0  0  0
  5 12  1  0  0  0  0
  6  8  2  0  0  0  0
  6 13  1  0  0  0  0
  8  9  1  0  0  0  0
M  END
>  <DRUGBANK_ID>
DB01099

>  <SECONDARY_ACCESSION_NUMBERS>
APRD00299

>  <COMMON_NAME>
Flucytosine

>  <CAS_NUMBER>
2022-85-7

>  <UNII>
D83282DT06

>  <SYNONYMS>
5-FC; 5-Fluorocystosine; 5-Fluorocytosine; flucytosina; Flucytosine; Flucytosinum

$$$$
