CDU
 OpenBabel10282417133D

 54 54  0  0  0  0  0  0  0  0999 V2000
   -1.4465    0.3228   -0.1265 C   0  0  0  0  0  0  0  0  0  0  0  0
   -1.0106   -1.0835    0.2891 C   0  0  0  0  0  0  0  0  0  0  0  0
    0.4207   -1.4070   -0.1424 C   0  0  0  0  0  0  0  0  0  0  0  0
    1.4101   -0.3854    0.4266 C   0  0  0  0  0  0  0  0  0  0  0  0
    0.9282    1.0194    0.0985 C   0  0  0  0  0  0  0  0  0  0  0  0
   -0.5011    1.3894    0.4432 C   0  0  0  0  0  0  0  0  0  0  0  0
    1.9045    2.0553    0.3256 N   0  0  0  0  0  0  0  0  0  0  0  0
    2.6226    2.7958   -0.5278 C   0  0  0  0  0  0  0  0  0  0  0  0
    3.4033    3.6491   -0.0699 O   0  0  0  0  0  0  0  0  0  0  0  0
    2.5505    2.6631   -1.8514 N   0  0  0  0  0  0  0  0  0  0  0  0
    1.7847    1.8205   -2.7388 C   0  0  0  0  0  0  0  0  0  0  0  0
    0.7280    2.6239   -3.4676 C   0  0  0  0  0  0  0  0  0  0  0  0
    1.4118    3.3356   -4.6180 C   0  0  0  0  0  0  0  0  0  0  0  0
    2.1531    2.3078   -5.4916 C   0  0  0  0  0  0  0  0  0  0  0  0
    1.1821    1.2482   -6.0324 C   0  0  0  0  0  0  0  0  0  0  0  0
    0.1255    1.9312   -6.8999 C   0  0  0  0  0  0  0  0  0  0  0  0
    0.8067    2.6916   -8.0440 C   0  0  0  0  0  0  0  0  0  0  0  0
    1.5988    1.7329   -8.9411 C   0  0  0  0  0  0  0  0  0  0  0  0
    0.6898    0.6649   -9.5494 C   0  0  0  0  0  0  0  0  0  0  0  0
   -0.3963    1.3129  -10.3923 C   0  0  0  0  0  0  0  0  0  0  0  0
   -1.4628    0.3825   -1.2265 H   0  0  0  0  0  0  0  0  0  0  0  0
   -2.4682    0.5247    0.2072 H   0  0  0  0  0  0  0  0  0  0  0  0
   -1.0743   -1.1608    1.3791 H   0  0  0  0  0  0  0  0  0  0  0  0
   -1.6965   -1.8216   -0.1389 H   0  0  0  0  0  0  0  0  0  0  0  0
    0.7014   -2.4147    0.1803 H   0  0  0  0  0  0  0  0  0  0  0  0
    0.4771   -1.4066   -1.2416 H   0  0  0  0  0  0  0  0  0  0  0  0
    1.5292   -0.5085    1.5060 H   0  0  0  0  0  0  0  0  0  0  0  0
    2.3937   -0.5613   -0.0336 H   0  0  0  0  0  0  0  0  0  0  0  0
    0.7799    0.9455   -0.9334 H   0  0  0  0  0  0  0  0  0  0  0  0
   -0.7453    2.3527   -0.0299 H   0  0  0  0  0  0  0  0  0  0  0  0
   -0.6231    1.5052    1.5200 H   0  0  0  0  0  0  0  0  0  0  0  0
    2.1202    2.2880    1.2839 H   0  0  0  0  0  0  0  0  0  0  0  0
    3.1698    3.3234   -2.3110 H   0  0  0  0  0  0  0  0  0  0  0  0
    2.5273    1.2848   -3.3202 H   0  0  0  0  0  0  0  0  0  0  0  0
    1.2834    0.9454   -2.3895 H   0  0  0  0  0  0  0  0  0  0  0  0
   -0.0572    1.9462   -3.8285 H   0  0  0  0  0  0  0  0  0  0  0  0
    0.1995    3.3230   -2.8083 H   0  0  0  0  0  0  0  0  0  0  0  0
    0.6688    3.9009   -5.1896 H   0  0  0  0  0  0  0  0  0  0  0  0
    2.1151    4.0789   -4.2329 H   0  0  0  0  0  0  0  0  0  0  0  0
    2.6983    2.8273   -6.2790 H   0  0  0  0  0  0  0  0  0  0  0  0
    2.9702    1.8075   -4.9703 H   0  0  0  0  0  0  0  0  0  0  0  0
    1.7397    0.4871   -6.5869 H   0  0  0  0  0  0  0  0  0  0  0  0
    0.6943    0.6707   -5.2384 H   0  0  0  0  0  0  0  0  0  0  0  0
   -0.5924    1.1919   -7.2653 H   0  0  0  0  0  0  0  0  0  0  0  0
   -0.4895    2.6204   -6.3121 H   0  0  0  0  0  0  0  0  0  0  0  0
    0.0610    3.2540   -8.6091 H   0  0  0  0  0  0  0  0  0  0  0  0
    1.4750    3.4733   -7.6687 H   0  0  0  0  0  0  0  0  0  0  0  0
    2.1019    2.3014   -9.7290 H   0  0  0  0  0  0  0  0  0  0  0  0
    2.4074    1.2458   -8.3814 H   0  0  0  0  0  0  0  0  0  0  0  0
    1.2851   -0.0215  -10.1576 H   0  0  0  0  0  0  0  0  0  0  0  0
    0.2317    0.0438   -8.7703 H   0  0  0  0  0  0  0  0  0  0  0  0
    0.0593    1.9056  -11.1908 H   0  0  0  0  0  0  0  0  0  0  0  0
   -1.0503    0.5579  -10.8289 H   0  0  0  0  0  0  0  0  0  0  0  0
   -1.0341    1.9789   -9.8018 H   0  0  0  0  0  0  0  0  0  0  0  0
  1  2  1  0  0  0  0
  1  6  1  0  0  0  0
  1 21  1  0  0  0  0
  1 22  1  0  0  0  0
  2  3  1  0  0  0  0
  2 23  1  0  0  0  0
  2 24  1  0  0  0  0
  3  4  1  0  0  0  0
  3 25  1  0  0  0  0
  3 26  1  0  0  0  0
  4  5  1  0  0  0  0
  4 27  1  0  0  0  0
  4 28  1  0  0  0  0
  5  6  1  0  0  0  0
  5  7  1  0  0  0  0
  5 29  1  0  0  0  0
  6 30  1  0  0  0  0
  6 31  1  0  0  0  0
  7  8  1  0  0  0  0
  7 32  1  0  0  0  0
  8  9  2  0  0  0  0
  8 10  1  0  0  0  0
 10 11  1  0  0  0  0
 10 33  1  0  0  0  0
 11 12  1  0  0  0  0
 11 34  1  0  0  0  0
 11 35  1  0  0  0  0
 12 13  1  0  0  0  0
 12 36  1  0  0  0  0
 12 37  1  0  0  0  0
 13 14  1  0  0  0  0
 13 38  1  0  0  0  0
 13 39  1  0  0  0  0
 14 15  1  0  0  0  0
 14 40  1  0  0  0  0
 14 41  1  0  0  0  0
 15 16  1  0  0  0  0
 15 42  1  0  0  0  0
 15 43  1  0  0  0  0
 16 17  1  0  0  0  0
 16 44  1  0  0  0  0
 16 45  1  0  0  0  0
 17 18  1  0  0  0  0
 17 46  1  0  0  0  0
 17 47  1  0  0  0  0
 18 19  1  0  0  0  0
 18 48  1  0  0  0  0
 18 49  1  0  0  0  0
 19 20  1  0  0  0  0
 19 50  1  0  0  0  0
 19 51  1  0  0  0  0
 20 52  1  0  0  0  0
 20 53  1  0  0  0  0
 20 54  1  0  0  0  0
M  END
>  <DRUGBANK_ID>
DB03677

>  <SECONDARY_ACCESSION_NUMBERS>
EXPT00878

>  <COMMON_NAME>
N-Cyclohexyl-N'-Decylurea

$$$$
