Structure #1
 OpenBabel10282417173D

 30 31  0  0  0  0  0  0  0  0999 V2000
    0.9428   -0.0317   -0.0756 C   0  0  0  0  0  0  0  0  0  0  0  0
   -7.0222    2.9393   -2.9779 C   0  0  0  0  0  0  0  0  0  0  0  0
    0.4361    1.3554   -0.4356 C   0  0  0  0  0  0  0  0  0  0  0  0
    0.9428    1.7373   -1.8168 C   0  0  0  0  0  0  0  0  0  0  0  0
   -4.4417    2.7440   -2.9998 C   0  0  0  0  0  0  0  0  0  0  0  0
   -3.4932   -0.6848   -3.0288 C   0  0  0  0  0  0  0  0  0  0  0  0
   -5.7143    2.1649   -2.9933 C   0  0  0  0  0  0  0  0  0  0  0  0
   -3.4937    1.7413   -3.0142 C   0  0  0  0  0  0  0  0  0  0  0  0
   -4.1964    0.5235   -3.0159 C   0  0  0  0  0  0  0  0  0  0  0  0
   -2.1035    1.7356   -3.0253 B   0  0  0  0  0  0  0  0  0  0  0  0
   -2.1126   -0.6711   -3.0408 N   0  0  0  0  0  0  0  0  0  0  0  0
   -1.4206    0.5402   -3.0330 N   0  0  0  0  0  0  0  0  0  0  0  0
   -1.3480    3.0315   -3.0290 O   0  0  0  0  0  0  0  0  0  0  0  0
    0.8496    0.9247   -4.4238 O   0  0  0  0  0  0  0  0  0  0  0  0
    0.8496   -0.8565   -2.6706 O   0  0  0  0  0  0  0  0  0  0  0  0
   -5.6173    0.8677   -3.0024 S   0  0  0  0  0  0  0  0  0  0  0  0
    0.3394    0.5402   -3.0330 S   0  0  0  0  0  0  0  0  0  0  0  0
    0.5861   -0.7394   -0.7946 H   0  0  0  0  0  0  0  0  0  0  0  0
    0.5861   -0.3005    0.8967 H   0  0  0  0  0  0  0  0  0  0  0  0
    2.0128   -0.0317   -0.0756 H   0  0  0  0  0  0  0  0  0  0  0  0
   -7.0651    3.5494   -2.0999 H   0  0  0  0  0  0  0  0  0  0  0  0
   -7.0791    3.5606   -3.8472 H   0  0  0  0  0  0  0  0  0  0  0  0
   -7.8430    2.2529   -2.9757 H   0  0  0  0  0  0  0  0  0  0  0  0
   -0.6339    1.3554   -0.4356 H   0  0  0  0  0  0  0  0  0  0  0  0
    0.7928    2.0631    0.2834 H   0  0  0  0  0  0  0  0  0  0  0  0
    0.5861    2.7137   -2.0702 H   0  0  0  0  0  0  0  0  0  0  0  0
    2.0128    1.7373   -1.8168 H   0  0  0  0  0  0  0  0  0  0  0  0
   -4.2363    3.7941   -2.9946 H   0  0  0  0  0  0  0  0  0  0  0  0
   -4.0220   -1.6151   -3.0294 H   0  0  0  0  0  0  0  0  0  0  0  0
   -0.3656    2.8445   -3.0372 H   0  0  0  0  0  0  0  0  0  0  0  0
  1  3  1  0  0  0  0
  1 18  1  0  0  0  0
  1 19  1  0  0  0  0
  1 20  1  0  0  0  0
  2  7  1  0  0  0  0
  2 21  1  0  0  0  0
  2 22  1  0  0  0  0
  2 23  1  0  0  0  0
  3  4  1  0  0  0  0
  3 24  1  0  0  0  0
  3 25  1  0  0  0  0
  4 17  1  0  0  0  0
  4 26  1  0  0  0  0
  4 27  1  0  0  0  0
  5  7  2  0  0  0  0
  5  8  1  0  0  0  0
  5 28  1  0  0  0  0
  6  9  1  0  0  0  0
  6 11  2  0  0  0  0
  6 29  1  0  0  0  0
  7 16  1  0  0  0  0
  8  9  2  0  0  0  0
  8 10  1  0  0  0  0
  9 16  1  0  0  0  0
 10 12  1  0  0  0  0
 10 13  1  0  0  0  0
 11 12  1  0  0  0  0
 12 17  1  0  0  0  0
 13 30  1  0  0  0  0
 14 17  2  0  0  0  0
 15 17  2  0  0  0  0
M  END
>  <DRUGBANK_ID>
DB08605

>  <COMMON_NAME>
6-METHYL-2(PROPANE-1-SULFONYL)-2H-THIENO[3,2-D][1,2,3]DIAZABORININ-1-OL

$$$$
