
 OpenBabel10282417213D

 58 63  0  0  0  0  0  0  0  0999 V2000
   -2.3088   -0.2329   -0.2057 N   0  0  0  0  0  0  0  0  0  0  0  0
   -0.9325   -0.1178   -0.0230 C   0  0  0  0  0  0  0  0  0  0  0  0
   -0.1148   -1.2503   -0.0119 C   0  0  0  0  0  0  0  0  0  0  0  0
    1.2386   -1.2177    0.0271 N   0  0  0  0  0  0  0  0  0  0  0  0
    1.7516    0.0223    0.0233 C   0  0  0  0  0  0  0  0  0  0  0  0
    0.9728    1.1679   -0.0210 C   0  0  0  0  0  0  0  0  0  0  0  0
   -0.3930    1.1177   -0.0247 N   0  0  0  0  0  0  0  0  0  0  0  0
    1.6474    2.4731   -0.0048 C   0  0  0  0  0  0  0  0  0  0  0  0
    2.7503    2.6535   -0.8210 C   0  0  0  0  0  0  0  0  0  0  0  0
    3.3167    3.9173   -0.8269 N   0  0  0  0  0  0  0  0  0  0  0  0
    4.1273    4.5142   -1.8164 C   0  0  0  0  0  0  0  0  0  0  0  0
    2.9961    4.9324   -2.5186 C   0  0  0  0  0  0  0  0  0  0  0  0
    2.1381    5.5281   -1.5644 N   0  0  0  0  0  0  0  0  0  0  0  0
    2.5104    4.9618   -0.3961 C   0  0  0  0  0  0  0  0  0  0  0  0
    1.6556    4.6731    0.7800 C   0  0  0  0  0  0  0  0  0  0  0  0
    1.3247    5.5292    1.8055 N   0  0  0  0  0  0  0  0  0  0  0  0
    0.6816    5.1248    3.0082 C   0  0  0  0  0  0  0  0  0  0  0  0
    1.0851    4.0006    3.7509 C   0  0  0  0  0  0  0  0  0  0  0  0
    0.3806    3.5841    4.8956 C   0  0  0  0  0  0  0  0  0  0  0  0
   -0.7522    4.2710    5.3318 C   0  0  0  0  0  0  0  0  0  0  0  0
   -1.1451    5.3969    4.5997 C   0  0  0  0  0  0  0  0  0  0  0  0
   -0.4373    5.8224    3.4630 C   0  0  0  0  0  0  0  0  0  0  0  0
   -1.4944    3.8635    6.4271 N   0  0  0  0  0  0  0  0  0  0  0  0
   -0.8150    3.5248    7.6885 C   0  0  0  0  0  0  0  0  0  0  0  0
   -1.1802    2.1188    8.1804 C   0  0  0  0  0  0  0  0  0  0  0  0
   -2.6193    1.8160    8.1696 N   0  0  0  0  0  0  0  0  0  0  0  0
   -3.1156    1.9748    6.7872 C   0  0  0  0  0  0  0  0  0  0  0  0
   -2.8632    3.3692    6.1676 C   0  0  0  0  0  0  0  0  0  0  0  0
   -3.5013    2.4864    9.1521 C   0  0  0  0  0  0  0  0  0  0  0  0
   -3.7118    4.0094    9.0694 C   0  0  0  0  0  0  0  0  0  0  0  0
   -3.4977    4.1297   10.5045 O   0  0  0  0  0  0  0  0  0  0  0  0
   -2.8498    2.8224   10.5045 C   0  0  0  0  0  0  0  0  0  0  0  0
    1.2386    3.4029    0.8757 N   0  0  0  0  0  0  0  0  0  0  0  0
   -2.7688    0.6531   -0.0193 H   0  0  0  0  0  0  0  0  0  0  0  0
   -2.7512   -1.0434    0.2056 H   0  0  0  0  0  0  0  0  0  0  0  0
   -0.5389   -2.2458   -0.0330 H   0  0  0  0  0  0  0  0  0  0  0  0
    2.8354    0.0864    0.0605 H   0  0  0  0  0  0  0  0  0  0  0  0
    3.0611    1.9611   -1.5695 H   0  0  0  0  0  0  0  0  0  0  0  0
    4.8744    5.2010   -1.4191 H   0  0  0  0  0  0  0  0  0  0  0  0
    2.5831    4.3591   -3.3567 H   0  0  0  0  0  0  0  0  0  0  0  0
    1.7047    6.4710    1.8197 H   0  0  0  0  0  0  0  0  0  0  0  0
    1.9400    3.4072    3.4380 H   0  0  0  0  0  0  0  0  0  0  0  0
    0.7032    2.6846    5.4151 H   0  0  0  0  0  0  0  0  0  0  0  0
   -2.0147    5.9622    4.9256 H   0  0  0  0  0  0  0  0  0  0  0  0
   -0.8147    6.6738    2.9041 H   0  0  0  0  0  0  0  0  0  0  0  0
    0.2743    3.6142    7.6127 H   0  0  0  0  0  0  0  0  0  0  0  0
   -1.0851    4.2578    8.4543 H   0  0  0  0  0  0  0  0  0  0  0  0
   -0.6851    1.3964    7.5139 H   0  0  0  0  0  0  0  0  0  0  0  0
   -0.7317    1.9090    9.1564 H   0  0  0  0  0  0  0  0  0  0  0  0
   -2.6055    1.2289    6.1592 H   0  0  0  0  0  0  0  0  0  0  0  0
   -4.1794    1.7124    6.7281 H   0  0  0  0  0  0  0  0  0  0  0  0
   -3.5885    4.0840    6.5673 H   0  0  0  0  0  0  0  0  0  0  0  0
   -3.0832    3.3151    5.0941 H   0  0  0  0  0  0  0  0  0  0  0  0
   -4.4583    1.9622    9.2708 H   0  0  0  0  0  0  0  0  0  0  0  0
   -3.0156    4.6649    8.5500 H   0  0  0  0  0  0  0  0  0  0  0  0
   -4.7232    4.3150    8.7828 H   0  0  0  0  0  0  0  0  0  0  0  0
   -3.1832    2.2110   11.3456 H   0  0  0  0  0  0  0  0  0  0  0  0
   -1.7686    2.9620   10.5723 H   0  0  0  0  0  0  0  0  0  0  0  0
  1  2  1  0  0  0  0
  1 34  1  0  0  0  0
  1 35  1  0  0  0  0
  2  3  2  0  0  0  0
  2  7  1  0  0  0  0
  3  4  1  0  0  0  0
  3 36  1  0  0  0  0
  4  5  2  0  0  0  0
  5  6  1  0  0  0  0
  5 37  1  0  0  0  0
  6  7  2  0  0  0  0
  6  8  1  0  0  0  0
  8  9  2  0  0  0  0
  8 33  1  0  0  0  0
  9 10  1  0  0  0  0
  9 38  1  0  0  0  0
 10 11  1  0  0  0  0
 10 14  1  0  0  0  0
 11 12  2  0  0  0  0
 11 39  1  0  0  0  0
 12 13  1  0  0  0  0
 12 40  1  0  0  0  0
 13 14  2  0  0  0  0
 14 15  1  0  0  0  0
 15 16  1  0  0  0  0
 15 33  2  0  0  0  0
 16 17  1  0  0  0  0
 16 41  1  0  0  0  0
 17 18  2  0  0  0  0
 17 22  1  0  0  0  0
 18 19  1  0  0  0  0
 18 42  1  0  0  0  0
 19 20  2  0  0  0  0
 19 43  1  0  0  0  0
 20 21  1  0  0  0  0
 20 23  1  0  0  0  0
 21 22  2  0  0  0  0
 21 44  1  0  0  0  0
 22 45  1  0  0  0  0
 23 24  1  0  0  0  0
 23 28  1  0  0  0  0
 24 25  1  0  0  0  0
 24 46  1  0  0  0  0
 24 47  1  0  0  0  0
 25 26  1  0  0  0  0
 25 48  1  0  0  0  0
 25 49  1  0  0  0  0
 26 27  1  0  0  0  0
 26 29  1  0  0  0  0
 27 28  1  0  0  0  0
 27 50  1  0  0  0  0
 27 51  1  0  0  0  0
 28 52  1  0  0  0  0
 28 53  1  0  0  0  0
 29 30  1  0  0  0  0
 29 32  1  0  0  0  0
 29 54  1  0  0  0  0
 30 31  1  0  0  0  0
 30 55  1  0  0  0  0
 30 56  1  0  0  0  0
 31 32  1  0  0  0  0
 32 57  1  0  0  0  0
 32 58  1  0  0  0  0
M  END
>  <DRUGBANK_ID>
DB14770

>  <COMMON_NAME>
Lanraplenib

>  <CAS_NUMBER>
1800046-95-0

>  <UNII>
A6U64OU57E

>  <SYNONYMS>
Lanraplenib

$$$$
