3A3
 OpenBabel10282417163D

 38 40  0  0  0  0  0  0  0  0999 V2000
    0.8182    0.1841   -0.0704 O   0  0  0  0  0  0  0  0  0  0  0  0
    0.2553   -0.4558   -1.1179 C   0  0  0  0  0  0  0  0  0  0  0  0
    0.9543   -0.9306   -2.0021 O   0  0  0  0  0  0  0  0  0  0  0  0
   -1.2515   -0.6361   -0.9742 C   0  0  0  0  0  0  0  0  0  0  0  0
   -1.7730   -1.2557    0.2018 O   0  0  0  0  0  0  0  0  0  0  0  0
   -1.3962   -2.5584    0.4091 C   0  0  0  0  0  0  0  0  0  0  0  0
   -2.3780   -3.4530    0.8403 C   0  0  0  0  0  0  0  0  0  0  0  0
   -0.0650   -2.9940    0.3001 C   0  0  0  0  0  0  0  0  0  0  0  0
    0.3124   -4.3106    0.5227 C   0  0  0  0  0  0  0  0  0  0  0  0
   -0.6591   -5.1942    0.9152 C   0  0  0  0  0  0  0  0  0  0  0  0
   -1.9934   -4.7666    1.0800 C   0  0  0  0  0  0  0  0  0  0  0  0
   -2.7608   -5.9656    1.5075 C   0  0  0  0  0  0  0  0  0  0  0  0
   -4.0166   -6.1259    1.7919 N   0  0  0  0  0  0  0  0  0  0  0  0
   -4.7376   -4.9348    1.6672 O   0  0  0  0  0  0  0  0  0  0  0  0
   -1.7799   -7.0815    1.5627 C   0  0  0  0  0  0  0  0  0  0  0  0
   -1.9802   -8.4063    1.8691 C   0  0  0  0  0  0  0  0  0  0  0  0
   -0.5270   -6.5926    1.2155 C   0  0  0  0  0  0  0  0  0  0  0  0
    0.5740   -7.4375    1.1925 C   0  0  0  0  0  0  0  0  0  0  0  0
    0.3917   -8.7837    1.5373 C   0  0  0  0  0  0  0  0  0  0  0  0
   -0.8823   -9.2710    1.8820 C   0  0  0  0  0  0  0  0  0  0  0  0
   -0.9393  -10.6001    2.2142 O   0  0  0  0  0  0  0  0  0  0  0  0
   -2.2010  -11.0919    2.6548 C   0  0  0  0  0  0  0  0  0  0  0  0
   -2.7162  -10.4965    3.9687 C   0  0  0  0  0  0  0  0  0  0  0  0
   -3.9500   -9.9388    3.8995 O   0  0  0  0  0  0  0  0  0  0  0  0
   -2.0744  -10.4922    5.0141 O   0  0  0  0  0  0  0  0  0  0  0  0
    1.7850    0.0631   -0.1792 H   0  0  0  0  0  0  0  0  0  0  0  0
   -1.6757    0.3746   -1.0244 H   0  0  0  0  0  0  0  0  0  0  0  0
   -1.6277   -1.1613   -1.8613 H   0  0  0  0  0  0  0  0  0  0  0  0
   -3.4010   -3.1234    0.9780 H   0  0  0  0  0  0  0  0  0  0  0  0
    0.7506   -2.3278    0.0769 H   0  0  0  0  0  0  0  0  0  0  0  0
    1.3476   -4.6048    0.4004 H   0  0  0  0  0  0  0  0  0  0  0  0
   -5.6391   -5.1902    1.9356 H   0  0  0  0  0  0  0  0  0  0  0  0
   -2.9880   -8.7028    2.0828 H   0  0  0  0  0  0  0  0  0  0  0  0
    1.5597   -7.0748    0.9180 H   0  0  0  0  0  0  0  0  0  0  0  0
    1.2498   -9.4553    1.5364 H   0  0  0  0  0  0  0  0  0  0  0  0
   -2.9377  -11.0143    1.8459 H   0  0  0  0  0  0  0  0  0  0  0  0
   -2.0875  -12.1678    2.8382 H   0  0  0  0  0  0  0  0  0  0  0  0
   -4.3701   -9.8912    3.0190 H   0  0  0  0  0  0  0  0  0  0  0  0
  1  2  1  0  0  0  0
  1 26  1  0  0  0  0
  2  3  2  0  0  0  0
  2  4  1  0  0  0  0
  4  5  1  0  0  0  0
  4 27  1  0  0  0  0
  4 28  1  0  0  0  0
  5  6  1  0  0  0  0
  6  7  2  0  0  0  0
  6  8  1  0  0  0  0
  7 11  1  0  0  0  0
  7 29  1  0  0  0  0
  8  9  2  0  0  0  0
  8 30  1  0  0  0  0
  9 10  1  0  0  0  0
  9 31  1  0  0  0  0
 10 11  2  0  0  0  0
 10 17  1  0  0  0  0
 11 12  1  0  0  0  0
 12 13  2  0  0  0  0
 12 15  1  0  0  0  0
 13 14  1  0  0  0  0
 14 32  1  0  0  0  0
 15 16  2  0  0  0  0
 15 17  1  0  0  0  0
 16 20  1  0  0  0  0
 16 33  1  0  0  0  0
 17 18  2  0  0  0  0
 18 19  1  0  0  0  0
 18 34  1  0  0  0  0
 19 20  2  0  0  0  0
 19 35  1  0  0  0  0
 20 21  1  0  0  0  0
 21 22  1  0  0  0  0
 22 23  1  0  0  0  0
 22 36  1  0  0  0  0
 22 37  1  0  0  0  0
 23 24  1  0  0  0  0
 23 25  2  0  0  0  0
 24 38  1  0  0  0  0
M  END
>  <DRUGBANK_ID>
DB07034

>  <COMMON_NAME>
2,2'-{[9-(HYDROXYIMINO)-9H-FLUORENE-2,7-DIYL]BIS(OXY)}DIACETIC ACID

$$$$
