1236
 OpenBabel10282417113D

 15 14  0  0  0  0  0  0  0  0999 V2000
    0.9496    0.0268    0.0280 F   0  0  0  0  0  0  0  0  0  0  0  0
    2.6921    1.0220    0.8885 F   0  0  0  0  0  0  0  0  0  0  0  0
    2.7830   -1.0776    0.3909 F   0  0  0  0  0  0  0  0  0  0  0  0
    2.7478    2.7414   -0.8223 F   0  0  0  0  0  0  0  0  0  0  0  0
    2.7271    2.2567   -2.9329 F   0  0  0  0  0  0  0  0  0  0  0  0
    0.9438    1.9194   -1.7305 F   0  0  0  0  0  0  0  0  0  0  0  0
    4.1326   -1.7573   -2.1681 F   0  0  0  0  0  0  0  0  0  0  0  0
    2.3196   -0.4775   -2.4504 O   0  0  0  0  0  0  0  0  0  0  0  0
    2.7891    0.4394   -1.4239 C   0  0  0  0  0  0  0  0  0  0  0  0
    2.2940    0.1162   -0.0294 C   0  0  0  0  0  0  0  0  0  0  0  0
    2.2899    1.8386   -1.7187 C   0  0  0  0  0  0  0  0  0  0  0  0
    2.7847   -1.8065   -2.2769 C   0  0  0  0  0  0  0  0  0  0  0  0
    3.8842    0.4528   -1.4435 H   0  0  0  0  0  0  0  0  0  0  0  0
    2.3544   -2.2779   -1.3908 H   0  0  0  0  0  0  0  0  0  0  0  0
    2.5169   -2.4019   -3.1535 H   0  0  0  0  0  0  0  0  0  0  0  0
  1 10  1  0  0  0  0
  2 10  1  0  0  0  0
  3 10  1  0  0  0  0
  4 11  1  0  0  0  0
  5 11  1  0  0  0  0
  6 11  1  0  0  0  0
  7 12  1  0  0  0  0
  8  9  1  0  0  0  0
  8 12  1  0  0  0  0
  9 10  1  0  0  0  0
  9 11  1  0  0  0  0
  9 13  1  0  0  0  0
 12 14  1  0  0  0  0
 12 15  1  0  0  0  0
M  END
>  <DRUGBANK_ID>
DB01236

>  <SECONDARY_ACCESSION_NUMBERS>
APRD00219

>  <COMMON_NAME>
Sevoflurane

>  <CAS_NUMBER>
28523-86-6

>  <UNII>
38LVP0K73A

>  <SYNONYMS>
1,1,1,3,3,3-Hexafluoro-2-(fluoromethoxy)propane; Sevofluran; Sevoflurane; Sevoflurano; Sevofluranum

$$$$
