KPV
 OpenBabel10282417173D

 26 26  0  0  0  0  0  0  0  0999 V2000
    1.3115   -0.2469    0.0782 C   0  0  0  0  0  0  0  0  0  0  0  0
    0.7502    1.0410    0.1331 C   0  0  0  0  0  0  0  0  0  0  0  0
   -0.6204    1.2542    0.0799 C   0  0  0  0  0  0  0  0  0  0  0  0
   -1.4685    0.1658   -0.0152 C   0  0  0  0  0  0  0  0  0  0  0  0
   -0.9402   -1.1254   -0.0318 C   0  0  0  0  0  0  0  0  0  0  0  0
    0.4401   -1.3327    0.0057 C   0  0  0  0  0  0  0  0  0  0  0  0
    2.8003   -0.4937    0.1655 C   0  0  0  0  0  0  0  0  0  0  0  0
    3.6116    0.0948   -0.9971 C   0  0  0  0  0  0  0  0  0  0  0  0
    3.5274    1.6129   -1.1482 C   0  0  0  0  0  0  0  0  0  0  0  0
    3.9311    2.3329    0.1339 C   0  0  0  0  0  0  0  0  0  0  0  0
    5.0193    3.3911    0.0602 C   0  0  0  0  0  0  0  0  0  0  0  0
    5.4702    3.9730    1.0309 O   0  0  0  0  0  0  0  0  0  0  0  0
    5.4460    3.6397   -1.1762 O   0  0  0  0  0  0  0  0  0  0  0  0
    3.4250    2.1329    1.2352 O   0  0  0  0  0  0  0  0  0  0  0  0
    1.3507    1.9343    0.2345 H   0  0  0  0  0  0  0  0  0  0  0  0
   -1.0038    2.2691    0.1413 H   0  0  0  0  0  0  0  0  0  0  0  0
   -2.5399    0.3270   -0.0555 H   0  0  0  0  0  0  0  0  0  0  0  0
   -1.6081   -1.9797   -0.0556 H   0  0  0  0  0  0  0  0  0  0  0  0
    0.8302   -2.3475   -0.0016 H   0  0  0  0  0  0  0  0  0  0  0  0
    3.1675   -0.1430    1.1350 H   0  0  0  0  0  0  0  0  0  0  0  0
    2.9976   -1.5745    0.1908 H   0  0  0  0  0  0  0  0  0  0  0  0
    4.6662   -0.1806   -0.8648 H   0  0  0  0  0  0  0  0  0  0  0  0
    3.2827   -0.3741   -1.9341 H   0  0  0  0  0  0  0  0  0  0  0  0
    4.1460    1.9201   -1.9935 H   0  0  0  0  0  0  0  0  0  0  0  0
    2.5226    1.9244   -1.4480 H   0  0  0  0  0  0  0  0  0  0  0  0
    6.1314    4.3276   -1.0505 H   0  0  0  0  0  0  0  0  0  0  0  0
  1  6  2  0  0  0  0
  1  2  1  0  0  0  0
  1  7  1  0  0  0  0
  2  3  2  0  0  0  0
  2 15  1  0  0  0  0
  3  4  1  0  0  0  0
  3 16  1  0  0  0  0
  4  5  2  0  0  0  0
  4 17  1  0  0  0  0
  5  6  1  0  0  0  0
  5 18  1  0  0  0  0
  6 19  1  0  0  0  0
  7  8  1  0  0  0  0
  7 20  1  0  0  0  0
  7 21  1  0  0  0  0
  8  9  1  0  0  0  0
  8 22  1  0  0  0  0
  8 23  1  0  0  0  0
  9 10  1  0  0  0  0
  9 24  1  0  0  0  0
  9 25  1  0  0  0  0
 10 11  1  0  0  0  0
 10 14  2  0  0  0  0
 11 12  2  0  0  0  0
 11 13  1  0  0  0  0
 13 26  1  0  0  0  0
M  END
>  <DRUGBANK_ID>
DB08050

>  <COMMON_NAME>
5-phenyl-2-keto-valeric acid

$$$$
