
 OpenBabel10282417133D

 61 65  0  0  0  0  0  0  0  0999 V2000
    1.0617   -0.0580    0.0860 C   0  0  0  0  0  0  0  0  0  0  0  0
    0.5943   -1.4440    0.0529 N   0  0  0  0  0  0  0  0  0  0  0  0
   -0.2579   -1.8889    1.1482 C   0  0  0  0  0  0  0  0  0  0  0  0
    0.9244   -2.2654   -1.0184 C   0  0  0  0  0  0  0  0  0  0  0  0
    2.1748   -2.3422   -1.4947 C   0  0  0  0  0  0  0  0  0  0  0  0
    2.5651   -3.1226   -2.7006 C   0  0  0  0  0  0  0  0  0  0  0  0
    1.4621   -3.9038   -3.3819 C   0  0  0  0  0  0  0  0  0  0  0  0
    1.6979   -4.6600   -4.4843 C   0  0  0  0  0  0  0  0  0  0  0  0
    0.5370   -5.3479   -5.0722 C   0  0  0  0  0  0  0  0  0  0  0  0
    0.6627   -6.1292   -6.2226 C   0  0  0  0  0  0  0  0  0  0  0  0
   -0.4569   -6.6690   -6.8438 C   0  0  0  0  0  0  0  0  0  0  0  0
   -1.7438   -6.5099   -6.3146 C   0  0  0  0  0  0  0  0  0  0  0  0
   -1.8410   -5.7295   -5.1491 C   0  0  0  0  0  0  0  0  0  0  0  0
   -0.7255   -5.1501   -4.5420 C   0  0  0  0  0  0  0  0  0  0  0  0
   -0.9536   -4.3872   -3.4245 O   0  0  0  0  0  0  0  0  0  0  0  0
    0.1224   -3.7603   -2.8043 C   0  0  0  0  0  0  0  0  0  0  0  0
   -0.1098   -3.0129   -1.7108 C   0  0  0  0  0  0  0  0  0  0  0  0
   -2.8397   -7.1008   -6.9212 N   0  0  0  0  0  0  0  0  0  0  0  0
   -4.1865   -6.9996   -6.3856 C   0  0  0  0  0  0  0  0  0  0  0  0
   -2.6715   -7.9009   -8.1302 C   0  0  0  0  0  0  0  0  0  0  0  0
    3.0537   -4.6870   -5.1079 C   0  0  0  0  0  0  0  0  0  0  0  0
    4.0959   -5.2753   -4.3576 C   0  0  0  0  0  0  0  0  0  0  0  0
    5.4164   -5.2184   -4.7945 C   0  0  0  0  0  0  0  0  0  0  0  0
    5.6966   -4.7045   -6.0559 C   0  0  0  0  0  0  0  0  0  0  0  0
    4.6458   -4.2775   -6.8828 C   0  0  0  0  0  0  0  0  0  0  0  0
    3.3263   -4.1810   -6.4071 C   0  0  0  0  0  0  0  0  0  0  0  0
    2.2441   -3.5304   -7.2506 C   0  0  0  0  0  0  0  0  0  0  0  0
    2.5479   -3.2636   -8.5378 O   0  0  0  0  0  0  0  0  0  0  0  0
    1.1305   -3.2401   -6.8440 O   0  0  0  0  0  0  0  0  0  0  0  0
    7.0265   -4.5556   -6.4852 N   0  0  0  0  0  0  0  0  0  0  0  0
    7.5617   -3.3726   -6.9153 C   0  0  0  0  0  0  0  0  0  0  0  0
    7.0497   -2.2781   -7.0229 O   0  0  0  0  0  0  0  0  0  0  0  0
    8.9812   -3.6277   -7.2014 C   0  0  0  0  0  0  0  0  0  0  0  0
    9.2261   -4.9120   -6.9438 C   0  0  0  0  0  0  0  0  0  0  0  0
    7.9828   -5.5258   -6.4521 C   0  0  0  0  0  0  0  0  0  0  0  0
    7.8948   -6.6998   -6.1546 O   0  0  0  0  0  0  0  0  0  0  0  0
    0.6998    0.4877    0.9616 H   0  0  0  0  0  0  0  0  0  0  0  0
    0.7081    0.4718   -0.8063 H   0  0  0  0  0  0  0  0  0  0  0  0
    2.1559   -0.0105    0.1005 H   0  0  0  0  0  0  0  0  0  0  0  0
   -1.2424   -2.2013    0.7886 H   0  0  0  0  0  0  0  0  0  0  0  0
    0.2113   -2.7356    1.6614 H   0  0  0  0  0  0  0  0  0  0  0  0
   -0.4178   -1.1026    1.8928 H   0  0  0  0  0  0  0  0  0  0  0  0
    2.9850   -1.8259   -0.9923 H   0  0  0  0  0  0  0  0  0  0  0  0
    3.0014   -2.4173   -3.4173 H   0  0  0  0  0  0  0  0  0  0  0  0
    3.3420   -3.8141   -2.3636 H   0  0  0  0  0  0  0  0  0  0  0  0
    1.6211   -6.2814   -6.7051 H   0  0  0  0  0  0  0  0  0  0  0  0
   -0.2800   -7.2086   -7.7686 H   0  0  0  0  0  0  0  0  0  0  0  0
   -2.7886   -5.5255   -4.6695 H   0  0  0  0  0  0  0  0  0  0  0  0
   -1.1269   -2.9170   -1.3465 H   0  0  0  0  0  0  0  0  0  0  0  0
   -4.8453   -6.5443   -7.1303 H   0  0  0  0  0  0  0  0  0  0  0  0
   -4.5603   -7.9966   -6.1344 H   0  0  0  0  0  0  0  0  0  0  0  0
   -4.2848   -6.3995   -5.4810 H   0  0  0  0  0  0  0  0  0  0  0  0
   -2.2756   -7.2911   -8.9511 H   0  0  0  0  0  0  0  0  0  0  0  0
   -1.9950   -8.7463   -7.9537 H   0  0  0  0  0  0  0  0  0  0  0  0
   -3.6243   -8.3192   -8.4695 H   0  0  0  0  0  0  0  0  0  0  0  0
    3.8857   -5.7325   -3.3897 H   0  0  0  0  0  0  0  0  0  0  0  0
    6.2130   -5.5244   -4.1193 H   0  0  0  0  0  0  0  0  0  0  0  0
    4.9008   -4.0475   -7.9090 H   0  0  0  0  0  0  0  0  0  0  0  0
    3.4646   -3.3290   -8.8357 H   0  0  0  0  0  0  0  0  0  0  0  0
    9.6626   -2.8750   -7.5582 H   0  0  0  0  0  0  0  0  0  0  0  0
   10.1498   -5.4509   -7.0601 H   0  0  0  0  0  0  0  0  0  0  0  0
  1  2  1  0  0  0  0
  1 37  1  0  0  0  0
  1 38  1  0  0  0  0
  1 39  1  0  0  0  0
  2  3  1  0  0  0  0
  2  4  1  0  0  0  0
  3 40  1  0  0  0  0
  3 41  1  0  0  0  0
  3 42  1  0  0  0  0
  4  5  2  0  0  0  0
  4 17  1  0  0  0  0
  5  6  1  0  0  0  0
  5 43  1  0  0  0  0
  6  7  1  0  0  0  0
  6 44  1  0  0  0  0
  6 45  1  0  0  0  0
  7  8  2  0  0  0  0
  7 16  1  0  0  0  0
  8  9  1  0  0  0  0
  8 21  1  0  0  0  0
  9 10  2  0  0  0  0
  9 14  1  0  0  0  0
 10 11  1  0  0  0  0
 10 46  1  0  0  0  0
 11 12  2  0  0  0  0
 11 47  1  0  0  0  0
 12 13  1  0  0  0  0
 12 18  1  0  0  0  0
 13 14  2  0  0  0  0
 13 48  1  0  0  0  0
 14 15  1  0  0  0  0
 15 16  1  0  0  0  0
 16 17  2  0  0  0  0
 17 49  1  0  0  0  0
 18 19  1  0  0  0  0
 18 20  1  0  0  0  0
 19 50  1  0  0  0  0
 19 51  1  0  0  0  0
 19 52  1  0  0  0  0
 20 53  1  0  0  0  0
 20 54  1  0  0  0  0
 20 55  1  0  0  0  0
 21 22  2  0  0  0  0
 21 26  1  0  0  0  0
 22 23  1  0  0  0  0
 22 56  1  0  0  0  0
 23 24  2  0  0  0  0
 23 57  1  0  0  0  0
 24 25  1  0  0  0  0
 24 30  1  0  0  0  0
 25 26  2  0  0  0  0
 25 58  1  0  0  0  0
 26 27  1  0  0  0  0
 27 28  1  0  0  0  0
 27 29  2  0  0  0  0
 28 59  1  0  0  0  0
 30 31  1  0  0  0  0
 30 35  1  0  0  0  0
 31 32  2  0  0  0  0
 31 33  1  0  0  0  0
 33 34  2  0  0  0  0
 33 60  1  0  0  0  0
 34 35  1  0  0  0  0
 34 61  1  0  0  0  0
 35 36  2  0  0  0  0
M  END
>  <DRUGBANK_ID>
DB03903

>  <SECONDARY_ACCESSION_NUMBERS>
EXPT02780

>  <COMMON_NAME>
Tmr

$$$$
