
 OpenBabel10282417223D

 24 23  0  0  1  0  0  0  0  0999 V2000
    1.0423   -0.1259    0.0375 O   0  0  0  0  0  0  0  0  0  0  0  0
    0.5661    0.8926    0.9125 C   0  0  0  0  0  0  0  0  0  0  0  0
    1.0521    0.6170    2.3379 C   0  0  1  0  0  0  0  0  0  0  0  0
    2.4893    0.5902    2.3439 O   0  0  0  0  0  0  0  0  0  0  0  0
    0.5466    1.6890    3.3251 C   0  0  1  0  0  0  0  0  0  0  0  0
   -0.8845    1.7162    3.3497 O   0  0  0  0  0  0  0  0  0  0  0  0
    1.0578    1.4077    4.7566 C   0  0  1  0  0  0  0  0  0  0  0  0
    2.4772    1.3328    4.8606 O   0  0  0  0  0  0  0  0  0  0  0  0
    0.5379    2.4677    5.7255 C   0  0  0  0  0  0  0  0  0  0  0  0
   -0.1784    2.1625    6.6896 O   0  0  0  0  0  0  0  0  0  0  0  0
    0.9283    3.9233    5.4830 C   0  0  0  0  0  0  0  0  0  0  0  0
    2.3180    4.1761    5.5060 O   0  0  0  0  0  0  0  0  0  0  0  0
    1.9972    0.0125   -0.0778 H   0  0  0  0  0  0  0  0  0  0  0  0
    0.9295    1.8603    0.5492 H   0  0  0  0  0  0  0  0  0  0  0  0
   -0.5258    0.8873    0.8565 H   0  0  0  0  0  0  0  0  0  0  0  0
    0.7077   -0.3755    2.6515 H   0  0  0  0  0  0  0  0  0  0  0  0
    2.7635   -0.1638    1.7901 H   0  0  0  0  0  0  0  0  0  0  0  0
    0.9081    2.6685    2.9897 H   0  0  0  0  0  0  0  0  0  0  0  0
   -1.2279    1.9840    2.4803 H   0  0  0  0  0  0  0  0  0  0  0  0
    0.6607    0.4429    5.0936 H   0  0  0  0  0  0  0  0  0  0  0  0
    2.8023    0.8626    4.0642 H   0  0  0  0  0  0  0  0  0  0  0  0
    0.5297    4.2518    4.5192 H   0  0  0  0  0  0  0  0  0  0  0  0
    0.4578    4.5444    6.2514 H   0  0  0  0  0  0  0  0  0  0  0  0
    2.6626    3.7756    6.3262 H   0  0  0  0  0  0  0  0  0  0  0  0
  1  2  1  0  0  0  0
  1 13  1  0  0  0  0
  2 14  1  0  0  0  0
  2 15  1  0  0  0  0
  3  2  1  0  0  0  0
  3  4  1  0  0  0  0
  3 16  1  1  0  0  0
  4 17  1  0  0  0  0
  5  3  1  0  0  0  0
  5  6  1  0  0  0  0
  5  7  1  0  0  0  0
  5 18  1  6  0  0  0
  6 19  1  0  0  0  0
  7  8  1  0  0  0  0
  7  9  1  0  0  0  0
  7 20  1  1  0  0  0
  8 21  1  0  0  0  0
  9 10  2  0  0  0  0
  9 11  1  0  0  0  0
 11 12  1  0  0  0  0
 11 22  1  0  0  0  0
 11 23  1  0  0  0  0
 12 24  1  0  0  0  0
M  END
>  <DRUGBANK_ID>
DB15087

>  <COMMON_NAME>
Psicose

>  <CAS_NUMBER>
23140-52-5

>  <UNII>
KRF88IOA7T

>  <SYNONYMS>
Allulose; DL-Psicose; Erythrohexulose; Pseudofructose

$$$$
