856
 OpenBabel10282417113D

 24 24  0  0  1  0  0  0  0  0999 V2000
   -2.1460   -0.1032   -0.0894 Cl  0  0  0  0  0  0  0  0  0  0  0  0
    3.7094   -0.0108    0.0416 O   0  0  0  0  0  0  0  0  0  0  0  0
    2.9603    2.3827   -1.6702 O   0  0  0  0  0  0  0  0  0  0  0  0
    6.4646    3.1599   -1.1439 O   0  0  0  0  0  0  0  0  0  0  0  0
    4.2970    2.0319   -1.3065 C   0  0  3  0  0  0  0  0  0  0  0  0
    4.4154    1.2368    0.0220 C   0  0  0  0  0  0  0  0  0  0  0  0
    5.0606    3.3551   -1.2026 C   0  0  0  0  0  0  0  0  0  0  0  0
    2.3509    0.0225    0.1897 C   0  0  0  0  0  0  0  0  0  0  0  0
    1.5929    1.1839    0.3627 C   0  0  0  0  0  0  0  0  0  0  0  0
    1.6982   -1.2005    0.0514 C   0  0  0  0  0  0  0  0  0  0  0  0
    0.2105    1.1511    0.2019 C   0  0  0  0  0  0  0  0  0  0  0  0
    0.3018   -1.2512    0.0017 C   0  0  0  0  0  0  0  0  0  0  0  0
   -0.4336   -0.0656    0.0422 C   0  0  0  0  0  0  0  0  0  0  0  0
    2.4926    1.5536   -1.8802 H   0  0  0  0  0  0  0  0  0  0  0  0
    6.6801    2.7199   -0.3058 H   0  0  0  0  0  0  0  0  0  0  0  0
    4.6952    1.4192   -2.1213 H   0  0  0  0  0  0  0  0  0  0  0  0
    4.1599    1.8331    0.9065 H   0  0  0  0  0  0  0  0  0  0  0  0
    5.4706    0.9648    0.1523 H   0  0  0  0  0  0  0  0  0  0  0  0
    4.8365    3.9816   -2.0735 H   0  0  0  0  0  0  0  0  0  0  0  0
    4.7341    3.9284   -0.3251 H   0  0  0  0  0  0  0  0  0  0  0  0
    2.0521    2.1539    0.5165 H   0  0  0  0  0  0  0  0  0  0  0  0
    2.2751   -2.1198   -0.0407 H   0  0  0  0  0  0  0  0  0  0  0  0
   -0.3401    2.0892    0.1804 H   0  0  0  0  0  0  0  0  0  0  0  0
   -0.2023   -2.2064   -0.0967 H   0  0  0  0  0  0  0  0  0  0  0  0
  1 13  1  0  0  0  0
  2  6  1  0  0  0  0
  2  8  1  0  0  0  0
  3  5  1  0  0  0  0
  3 14  1  0  0  0  0
  4  7  1  0  0  0  0
  4 15  1  0  0  0  0
  5  6  1  0  0  0  0
  5  7  1  0  0  0  0
  5 16  1  0  0  0  0
  6 17  1  0  0  0  0
  6 18  1  0  0  0  0
  7 19  1  0  0  0  0
  7 20  1  0  0  0  0
  8  9  2  0  0  0  0
  8 10  1  0  0  0  0
  9 11  1  0  0  0  0
  9 21  1  0  0  0  0
 10 12  2  0  0  0  0
 10 22  1  0  0  0  0
 11 13  2  0  0  0  0
 11 23  1  0  0  0  0
 12 13  1  0  0  0  0
 12 24  1  0  0  0  0
M  END
>  <DRUGBANK_ID>
DB00856

>  <SECONDARY_ACCESSION_NUMBERS>
APRD00867

>  <COMMON_NAME>
Chlorphenesin

>  <CAS_NUMBER>
104-29-0

>  <UNII>
I670DAL4SZ

>  <SYNONYMS>
3-(4-chlorophenoxy)-1,2-propanediol; 3-(p-chlorophenoxy)-1,2-propanediol; 3-(p-chlorophenoxy)propane-1,2-diol; Chlorphenesin; Chlorphénésine; Chlorphenesinum; Clorfenesina; glycerol α-p-chlorophenyl ether; p-chlorophenyl-α-glyceryl ether

$$$$
