
 OpenBabel10282417103D

 31 32  0  0  1  0  0  0  0  0999 V2000
   -1.1227    0.0461    0.1476 N   0  0  0  0  0  0  0  0  0  0  0  0
   -0.3487   -1.0995    0.0506 C   0  0  0  0  0  0  0  0  0  0  0  0
   -1.7667   -2.7113   -1.2372 C   0  0  0  0  0  0  0  0  0  0  0  0
   -0.9680   -2.4759    0.0569 C   0  0  2  0  0  0  0  0  0  0  0  0
   -1.9613   -1.6881   -2.1941 C   0  0  0  0  0  0  0  0  0  0  0  0
   -1.8102   -2.6392    1.3281 C   0  0  0  0  0  0  0  0  0  0  0  0
   -2.7151   -1.8731   -3.3486 C   0  0  0  0  0  0  0  0  0  0  0  0
    0.9849   -0.7489    0.0107 C   0  0  0  0  0  0  0  0  0  0  0  0
   -3.2935   -3.1041   -3.5977 C   0  0  0  0  0  0  0  0  0  0  0  0
    1.0048    0.6199    0.0090 N   0  0  0  0  0  0  0  0  0  0  0  0
   -0.2887    1.0512    0.0667 C   0  0  0  0  0  0  0  0  0  0  0  0
   -2.3440   -3.9824   -1.5177 C   0  0  0  0  0  0  0  0  0  0  0  0
   -2.1972   -5.1754   -0.5982 C   0  0  0  0  0  0  0  0  0  0  0  0
   -3.1208   -4.1603   -2.6950 C   0  0  0  0  0  0  0  0  0  0  0  0
   -3.7902   -5.4754   -2.9913 C   0  0  0  0  0  0  0  0  0  0  0  0
   -0.1422   -3.2019    0.0615 H   0  0  0  0  0  0  0  0  0  0  0  0
   -1.5402   -0.6954   -2.0616 H   0  0  0  0  0  0  0  0  0  0  0  0
   -2.2554   -3.6287    1.4398 H   0  0  0  0  0  0  0  0  0  0  0  0
   -1.1914   -2.4730    2.2166 H   0  0  0  0  0  0  0  0  0  0  0  0
   -2.6401   -1.9259    1.3455 H   0  0  0  0  0  0  0  0  0  0  0  0
   -2.8541   -1.0444   -4.0373 H   0  0  0  0  0  0  0  0  0  0  0  0
    1.8898   -1.3391   -0.0235 H   0  0  0  0  0  0  0  0  0  0  0  0
   -3.8835   -3.2338   -4.5008 H   0  0  0  0  0  0  0  0  0  0  0  0
    1.8212    1.2097   -0.0301 H   0  0  0  0  0  0  0  0  0  0  0  0
   -0.5606    2.0993    0.0474 H   0  0  0  0  0  0  0  0  0  0  0  0
   -3.1699   -5.4223   -0.1566 H   0  0  0  0  0  0  0  0  0  0  0  0
   -1.8186   -6.0408   -1.1495 H   0  0  0  0  0  0  0  0  0  0  0  0
   -1.4832   -5.0313    0.2121 H   0  0  0  0  0  0  0  0  0  0  0  0
   -3.0425   -6.2698   -3.0729 H   0  0  0  0  0  0  0  0  0  0  0  0
   -4.5041   -5.7191   -2.1978 H   0  0  0  0  0  0  0  0  0  0  0  0
   -4.3418   -5.4435   -3.9355 H   0  0  0  0  0  0  0  0  0  0  0  0
  1 11  2  0  0  0  0
  2  1  1  0  0  0  0
  2  8  2  0  0  0  0
  3 12  2  0  0  0  0
  3  5  1  0  0  0  0
  4  3  1  0  0  0  0
  4  2  1  0  0  0  0
  4  6  1  0  0  0  0
  4 16  1  1  0  0  0
  5  7  2  0  0  0  0
  5 17  1  0  0  0  0
  6 18  1  0  0  0  0
  6 19  1  0  0  0  0
  6 20  1  0  0  0  0
  7  9  1  0  0  0  0
  7 21  1  0  0  0  0
  8 10  1  0  0  0  0
  8 22  1  0  0  0  0
  9 23  1  0  0  0  0
 10 11  1  0  0  0  0
 10 24  1  0  0  0  0
 11 25  1  0  0  0  0
 12 14  1  0  0  0  0
 12 13  1  0  0  0  0
 13 26  1  0  0  0  0
 13 27  1  0  0  0  0
 13 28  1  0  0  0  0
 14  9  2  0  0  0  0
 14 15  1  0  0  0  0
 15 29  1  0  0  0  0
 15 30  1  0  0  0  0
 15 31  1  0  0  0  0
M  END
>  <DRUGBANK_ID>
DB00633

>  <SECONDARY_ACCESSION_NUMBERS>
APRD00578

>  <COMMON_NAME>
Dexmedetomidine

>  <CAS_NUMBER>
113775-47-6

>  <UNII>
67VB76HONO

>  <SYNONYMS>
(+)-4-((S)-alpha,2,3-Trimethylbenzyl)imidazole; (+)-4-((S)-α,2,3-trimethylbenzyl)imidazole; Dexmedetomidin; Dexmedetomidina; Dexmédétomidine; Dexmedetomidine; Dexmedetomidinum

$$$$
