288
 OpenBabel10282417133D

 49 51  0  0  0  0  0  0  0  0999 V2000
    7.0974    6.2734    2.5499 C   0  0  0  0  0  0  0  0  0  0  0  0
    7.0998    5.0284    3.1656 C   0  0  0  0  0  0  0  0  0  0  0  0
    7.1940    6.0368    1.1513 C   0  0  0  0  0  0  0  0  0  0  0  0
    7.0209    7.4337    3.3489 C   0  0  0  0  0  0  0  0  0  0  0  0
    7.2610    4.0894    2.1551 N   0  0  0  0  0  0  0  0  0  0  0  0
    6.9787    4.8826    4.5622 C   0  0  0  0  0  0  0  0  0  0  0  0
    7.3711    4.6785    0.8960 C   0  0  0  0  0  0  0  0  0  0  0  0
    6.9641    7.3042    4.7406 C   0  0  0  0  0  0  0  0  0  0  0  0
    6.9279    6.0495    5.3415 C   0  0  0  0  0  0  0  0  0  0  0  0
    7.5541    4.1105   -0.4736 C   0  0  0  0  0  0  0  0  0  0  0  0
    6.9620    8.7200    5.7249 Cl  0  0  0  0  0  0  0  0  0  0  0  0
    7.9715    2.7882   -0.5902 N   0  0  0  0  0  0  0  0  0  0  0  0
    7.3179    4.7541   -1.4784 O   0  0  0  0  0  0  0  0  0  0  0  0
    7.5767    1.9104   -1.7429 C   0  0  0  0  0  0  0  0  0  0  0  0
    7.7562    0.3603   -1.5036 C   0  0  2  0  0  0  0  0  0  0  0  0
    7.1743   -0.1841   -0.2276 N   0  0  0  0  0  0  0  0  0  0  0  0
    9.1149   -0.0332   -1.6924 O   0  0  0  0  0  0  0  0  0  0  0  0
    5.7642    0.2920    0.0093 C   0  0  0  0  0  0  0  0  0  0  0  0
    8.1562   -0.0863    0.8804 C   0  0  0  0  0  0  0  0  0  0  0  0
    5.6663    1.7384    0.4644 C   0  0  0  0  0  0  0  0  0  0  0  0
    4.8928   -0.3916    1.0770 C   0  0  0  0  0  0  0  0  0  0  0  0
    7.7271   -0.5728    2.2520 C   0  0  0  0  0  0  0  0  0  0  0  0
    4.4319    2.0218    1.2446 C   0  0  0  0  0  0  0  0  0  0  0  0
    3.9134    0.6607    1.6122 C   0  0  0  0  0  0  0  0  0  0  0  0
    7.3418   -1.9358    2.1762 O   0  0  0  0  0  0  0  0  0  0  0  0
    7.2405   -0.1509   -2.3300 H   0  0  0  0  0  0  0  0  0  0  0  0
    7.1880    6.7934    0.3784 H   0  0  0  0  0  0  0  0  0  0  0  0
    7.0427    8.4165    2.8883 H   0  0  0  0  0  0  0  0  0  0  0  0
    7.2743    3.1054    2.3704 H   0  0  0  0  0  0  0  0  0  0  0  0
    6.9548    3.9099    5.0455 H   0  0  0  0  0  0  0  0  0  0  0  0
    6.8746    5.9727    6.4270 H   0  0  0  0  0  0  0  0  0  0  0  0
    8.0417    2.3425    0.2914 H   0  0  0  0  0  0  0  0  0  0  0  0
    6.5081    2.0299   -1.9499 H   0  0  0  0  0  0  0  0  0  0  0  0
    8.0586    2.2832   -2.6495 H   0  0  0  0  0  0  0  0  0  0  0  0
    9.6623    0.4273   -1.0408 H   0  0  0  0  0  0  0  0  0  0  0  0
    5.2162    0.1716   -0.9386 H   0  0  0  0  0  0  0  0  0  0  0  0
    9.0506   -0.6639    0.6193 H   0  0  0  0  0  0  0  0  0  0  0  0
    8.5124    0.9227    1.0463 H   0  0  0  0  0  0  0  0  0  0  0  0
    6.4778    1.9062    1.1551 H   0  0  0  0  0  0  0  0  0  0  0  0
    5.6403    2.4544   -0.3485 H   0  0  0  0  0  0  0  0  0  0  0  0
    4.4045   -1.2927    0.7007 H   0  0  0  0  0  0  0  0  0  0  0  0
    5.4160   -0.7329    1.9548 H   0  0  0  0  0  0  0  0  0  0  0  0
    8.5402   -0.4710    2.9716 H   0  0  0  0  0  0  0  0  0  0  0  0
    6.9343    0.0680    2.6498 H   0  0  0  0  0  0  0  0  0  0  0  0
    4.7053    2.6432    2.1075 H   0  0  0  0  0  0  0  0  0  0  0  0
    3.7275    2.6083    0.6464 H   0  0  0  0  0  0  0  0  0  0  0  0
    3.8473    0.6003    2.7036 H   0  0  0  0  0  0  0  0  0  0  0  0
    2.9247    0.5213    1.1801 H   0  0  0  0  0  0  0  0  0  0  0  0
    6.9418   -2.0634    1.2905 H   0  0  0  0  0  0  0  0  0  0  0  0
  1  2  1  0  0  0  0
  1  3  1  0  0  0  0
  1  4  2  0  0  0  0
  2  5  1  0  0  0  0
  2  6  2  0  0  0  0
  3  7  2  0  0  0  0
  3 27  1  0  0  0  0
  4  8  1  0  0  0  0
  4 28  1  0  0  0  0
  5  7  1  0  0  0  0
  5 29  1  0  0  0  0
  6  9  1  0  0  0  0
  6 30  1  0  0  0  0
  7 10  1  0  0  0  0
  8  9  2  0  0  0  0
  8 11  1  0  0  0  0
  9 31  1  0  0  0  0
 10 12  1  0  0  0  0
 10 13  2  0  0  0  0
 12 14  1  0  0  0  0
 12 32  1  0  0  0  0
 14 33  1  0  0  0  0
 14 34  1  0  0  0  0
 15 17  1  0  0  0  0
 15 26  1  6  0  0  0
 15 16  1  0  0  0  0
 15 14  1  0  0  0  0
 16 18  1  0  0  0  0
 16 19  1  0  0  0  0
 17 35  1  0  0  0  0
 18 20  1  0  0  0  0
 18 21  1  0  0  0  0
 18 36  1  0  0  0  0
 19 22  1  0  0  0  0
 19 37  1  0  0  0  0
 19 38  1  0  0  0  0
 20 23  1  0  0  0  0
 20 39  1  0  0  0  0
 20 40  1  0  0  0  0
 21 24  1  0  0  0  0
 21 41  1  0  0  0  0
 21 42  1  0  0  0  0
 22 25  1  0  0  0  0
 22 43  1  0  0  0  0
 22 44  1  0  0  0  0
 23 24  1  0  0  0  0
 23 45  1  0  0  0  0
 23 46  1  0  0  0  0
 24 47  1  0  0  0  0
 24 48  1  0  0  0  0
 25 49  1  0  0  0  0
M  END
>  <DRUGBANK_ID>
DB03288

>  <SECONDARY_ACCESSION_NUMBERS>
EXPT00098

>  <COMMON_NAME>
5-Chloro-1h-Indole-2-Carboxylic Acid{[Cyclopentyl-(2-Hydroxy-Ethyl)-Carbamoyl]-Methyl}-Amide

$$$$
