
 OpenBabel10282417113D

 51 53  0  0  0  0  0  0  0  0999 V2000
    1.0119   -0.0711    0.1629 C   0  0  0  0  0  0  0  0  0  0  0  0
    0.3313    0.9395   -0.8463 C   0  0  3  0  0  0  0  0  0  0  0  0
   -3.3632   -0.5025    2.1607 N   0  3  0  0  0  0  0  0  0  0  0  0
    0.1870   -0.8283    0.9815 O   0  0  0  0  0  0  0  0  0  0  0  0
    2.2226   -0.1776    0.2695 O   0  0  0  0  0  0  0  0  0  0  0  0
   -1.2671   -0.9059    1.0033 C   0  0  3  0  0  0  0  0  0  0  0  0
   -0.5260    0.1500   -1.8495 C   0  0  0  0  0  0  0  0  0  0  0  0
   -1.9929    0.0476    1.9506 C   0  0  0  0  0  0  0  0  0  0  0  0
   -3.0737   -2.0082    2.2289 C   0  0  0  0  0  0  0  0  0  0  0  0
   -0.4150    1.9945    0.0355 C   0  0  0  0  0  0  0  0  0  0  0  0
   -1.7006   -2.2437    1.5675 C   0  0  0  0  0  0  0  0  0  0  0  0
    1.2800    1.6368   -1.6476 O   0  0  0  0  0  0  0  0  0  0  0  0
   -3.9524    0.1253    3.4223 C   0  0  0  0  0  0  0  0  0  0  0  0
   -4.2900   -0.0970    1.0105 C   0  0  0  0  0  0  0  0  0  0  0  0
   -0.2856   -1.2358   -2.0184 C   0  0  0  0  0  0  0  0  0  0  0  0
   -1.5840    0.7217   -2.5711 C   0  0  0  0  0  0  0  0  0  0  0  0
   -0.2985    3.4889   -0.3042 C   0  0  0  0  0  0  0  0  0  0  0  0
    0.0810    2.0382    1.5042 C   0  0  0  0  0  0  0  0  0  0  0  0
   -1.1329   -2.0404   -2.7670 C   0  0  0  0  0  0  0  0  0  0  0  0
   -2.4305   -0.0904   -3.3358 C   0  0  0  0  0  0  0  0  0  0  0  0
   -0.6593    3.2024    2.1032 C   0  0  0  0  0  0  0  0  0  0  0  0
   -0.4348    4.2458    1.0332 C   0  0  0  0  0  0  0  0  0  0  0  0
   -2.2001   -1.4638   -3.4370 C   0  0  0  0  0  0  0  0  0  0  0  0
   -1.6799   -0.8151    0.0075 H   0  0  0  0  0  0  0  0  0  0  0  0
   -1.5045    0.1118    2.9296 H   0  0  0  0  0  0  0  0  0  0  0  0
   -2.1664    1.0334    1.5494 H   0  0  0  0  0  0  0  0  0  0  0  0
   -3.8787   -2.5435    1.7232 H   0  0  0  0  0  0  0  0  0  0  0  0
   -3.0241   -2.2878    3.2859 H   0  0  0  0  0  0  0  0  0  0  0  0
   -1.4880    1.7780   -0.0349 H   0  0  0  0  0  0  0  0  0  0  0  0
   -1.7576   -2.9902    0.7671 H   0  0  0  0  0  0  0  0  0  0  0  0
   -0.9677   -2.6279    2.2891 H   0  0  0  0  0  0  0  0  0  0  0  0
    0.7994    2.2059   -2.2750 H   0  0  0  0  0  0  0  0  0  0  0  0
   -4.0169    1.2106    3.2543 H   0  0  0  0  0  0  0  0  0  0  0  0
   -4.9510   -0.2849    3.5770 H   0  0  0  0  0  0  0  0  0  0  0  0
   -3.2945   -0.0660    4.2730 H   0  0  0  0  0  0  0  0  0  0  0  0
   -3.8497   -0.3896    0.0562 H   0  0  0  0  0  0  0  0  0  0  0  0
   -5.2581   -0.5732    1.1731 H   0  0  0  0  0  0  0  0  0  0  0  0
   -4.4050    0.9955    1.0380 H   0  0  0  0  0  0  0  0  0  0  0  0
    0.5384   -1.7372   -1.5091 H   0  0  0  0  0  0  0  0  0  0  0  0
   -1.7681    1.7939   -2.5563 H   0  0  0  0  0  0  0  0  0  0  0  0
    0.6766    3.7335   -0.7305 H   0  0  0  0  0  0  0  0  0  0  0  0
   -1.0705    3.7946   -1.0169 H   0  0  0  0  0  0  0  0  0  0  0  0
   -0.0703    1.1612    2.1138 H   0  0  0  0  0  0  0  0  0  0  0  0
    1.1633    2.1864    1.5422 H   0  0  0  0  0  0  0  0  0  0  0  0
   -0.9477   -3.1109   -2.8167 H   0  0  0  0  0  0  0  0  0  0  0  0
   -3.2758    0.3449   -3.8650 H   0  0  0  0  0  0  0  0  0  0  0  0
   -0.2519    3.4586    3.0839 H   0  0  0  0  0  0  0  0  0  0  0  0
   -1.7310    3.0010    2.2326 H   0  0  0  0  0  0  0  0  0  0  0  0
    0.5124    4.7514    1.2487 H   0  0  0  0  0  0  0  0  0  0  0  0
   -1.2331    4.9885    1.0185 H   0  0  0  0  0  0  0  0  0  0  0  0
   -2.8318   -2.0848   -4.0668 H   0  0  0  0  0  0  0  0  0  0  0  0
  2  1  1  0  0  0  0
  3  8  1  0  0  0  0
  3  9  1  0  0  0  0
  4  1  1  0  0  0  0
  5  1  2  0  0  0  0
  6  4  1  0  0  0  0
  6 24  1  0  0  0  0
  7  2  1  0  0  0  0
  8  6  1  0  0  0  0
  8 25  1  0  0  0  0
  8 26  1  0  0  0  0
  9 11  1  0  0  0  0
  9 27  1  0  0  0  0
  9 28  1  0  0  0  0
 10  2  1  0  0  0  0
 10 29  1  0  0  0  0
 11  6  1  0  0  0  0
 11 30  1  0  0  0  0
 11 31  1  0  0  0  0
 12  2  1  0  0  0  0
 12 32  1  0  0  0  0
 13  3  1  0  0  0  0
 13 33  1  0  0  0  0
 13 34  1  0  0  0  0
 13 35  1  0  0  0  0
 14  3  1  0  0  0  0
 14 36  1  0  0  0  0
 14 37  1  0  0  0  0
 14 38  1  0  0  0  0
 15  7  1  0  0  0  0
 15 39  1  0  0  0  0
 16  7  2  0  0  0  0
 16 40  1  0  0  0  0
 17 10  1  0  0  0  0
 17 41  1  0  0  0  0
 17 42  1  0  0  0  0
 18 10  1  0  0  0  0
 18 43  1  0  0  0  0
 18 44  1  0  0  0  0
 19 15  2  0  0  0  0
 19 45  1  0  0  0  0
 20 16  1  0  0  0  0
 20 23  2  0  0  0  0
 20 46  1  0  0  0  0
 21 18  1  0  0  0  0
 21 47  1  0  0  0  0
 21 48  1  0  0  0  0
 22 17  1  0  0  0  0
 22 21  1  0  0  0  0
 22 49  1  0  0  0  0
 22 50  1  0  0  0  0
 23 19  1  0  0  0  0
 23 51  1  0  0  0  0
M  CHG  1   3   1
M  END
>  <DRUGBANK_ID>
DB00986

>  <SECONDARY_ACCESSION_NUMBERS>
APRD01000; DB06583

>  <COMMON_NAME>
Glycopyrronium

>  <CAS_NUMBER>
740028-90-4

>  <UNII>
A14FB57V1D

>  <SYNONYMS>
Glicopirronio; Glycopyrrolate; Glycopyrrolate cation; Glycopyrrolate ion; Glycopyrronium; Glycopyrronium cation; Glycopyrronium ion

$$$$
