
 OpenBabel10282417153D

 52 55  0  0  0  0  0  0  0  0999 V2000
   -0.7586    1.2575    1.4038 C   0  0  0  0  0  0  0  0  0  0  0  0
   -1.4645    0.5240    0.2594 C   0  0  3  0  0  0  0  0  0  0  0  0
    0.7790    1.0561    1.3726 C   0  0  3  0  0  0  0  0  0  0  0  0
   -0.9137    1.0837   -1.0812 C   0  0  0  0  0  0  0  0  0  0  0  0
    1.3279    1.6659   -0.0303 C   0  0  0  0  0  0  0  0  0  0  0  0
    0.6465    0.8930   -1.1652 C   0  0  3  0  0  0  0  0  0  0  0  0
    1.0442   -0.4867    1.5852 C   0  0  0  0  0  0  0  0  0  0  0  0
    0.3756   -1.1665    0.4315 C   0  0  3  0  0  0  0  0  0  0  0  0
   -1.1681   -0.9538    0.4998 C   0  0  0  0  0  0  0  0  0  0  0  0
    1.1651   -0.3866   -0.6092 C   0  0  0  0  0  0  0  0  0  0  0  0
    1.1798    0.9019   -2.6470 N   0  0  0  0  0  0  0  0  0  0  0  0
    1.6735   -0.0552   -3.5672 C   0  0  0  0  0  0  0  0  0  0  0  0
    2.1005    0.3540   -4.6396 O   0  0  0  0  0  0  0  0  0  0  0  0
    1.6954   -1.4526   -3.3753 N   0  0  0  0  0  0  0  0  0  0  0  0
    1.0984   -2.3739   -2.3488 C   0  0  0  0  0  0  0  0  0  0  0  0
    0.9417   -3.8682   -2.3502 C   0  0  0  0  0  0  0  0  0  0  0  0
   -0.1993   -4.2029   -3.3356 C   0  0  0  0  0  0  0  0  0  0  0  0
   -1.4888   -3.4141   -3.2250 N   0  0  0  0  0  0  0  0  0  0  0  0
   -1.2603   -2.0185   -3.2478 C   0  0  0  0  0  0  0  0  0  0  0  0
   -0.3672   -1.9393   -2.0907 C   0  0  0  0  0  0  0  0  0  0  0  0
   -2.6343   -3.9040   -2.5819 C   0  0  0  0  0  0  0  0  0  0  0  0
   -3.7836   -2.9319   -2.1904 C   0  0  0  0  0  0  0  0  0  0  0  0
   -2.7601   -5.0893   -2.3501 O   0  0  0  0  0  0  0  0  0  0  0  0
   -0.9895    2.3166    1.3215 H   0  0  0  0  0  0  0  0  0  0  0  0
   -1.1552    0.8717    2.3490 H   0  0  0  0  0  0  0  0  0  0  0  0
   -2.5541    0.6624    0.2925 H   0  0  0  0  0  0  0  0  0  0  0  0
    1.2762    1.5671    2.1899 H   0  0  0  0  0  0  0  0  0  0  0  0
   -1.4753    0.6651   -1.9330 H   0  0  0  0  0  0  0  0  0  0  0  0
   -1.1612    2.1500   -1.1575 H   0  0  0  0  0  0  0  0  0  0  0  0
    2.4182    1.5167   -0.0872 H   0  0  0  0  0  0  0  0  0  0  0  0
    1.1437    2.7337   -0.1116 H   0  0  0  0  0  0  0  0  0  0  0  0
    2.1167   -0.7391    1.5442 H   0  0  0  0  0  0  0  0  0  0  0  0
    0.6573   -0.9034    2.5159 H   0  0  0  0  0  0  0  0  0  0  0  0
    0.6030   -2.2428    0.4219 H   0  0  0  0  0  0  0  0  0  0  0  0
   -1.5247   -1.2982    1.4821 H   0  0  0  0  0  0  0  0  0  0  0  0
   -1.8135   -1.5456   -0.1643 H   0  0  0  0  0  0  0  0  0  0  0  0
    1.1259   -0.7726   -1.5242 H   0  0  0  0  0  0  0  0  0  0  0  0
    2.2621   -0.4787   -0.5285 H   0  0  0  0  0  0  0  0  0  0  0  0
    1.1295    1.8105   -3.1042 H   0  0  0  0  0  0  0  0  0  0  0  0
    2.2709   -1.9087   -4.0759 H   0  0  0  0  0  0  0  0  0  0  0  0
    1.8367   -2.3220   -1.5165 H   0  0  0  0  0  0  0  0  0  0  0  0
    1.9036   -4.3640   -2.5182 H   0  0  0  0  0  0  0  0  0  0  0  0
    0.6701   -4.1533   -1.3063 H   0  0  0  0  0  0  0  0  0  0  0  0
    0.2206   -3.8930   -4.2935 H   0  0  0  0  0  0  0  0  0  0  0  0
   -0.3982   -5.2625   -3.2682 H   0  0  0  0  0  0  0  0  0  0  0  0
   -0.7955   -1.6283   -4.1516 H   0  0  0  0  0  0  0  0  0  0  0  0
   -2.1233   -1.3771   -3.0527 H   0  0  0  0  0  0  0  0  0  0  0  0
   -0.7403   -2.5412   -1.2565 H   0  0  0  0  0  0  0  0  0  0  0  0
   -0.5552   -0.9259   -1.8728 H   0  0  0  0  0  0  0  0  0  0  0  0
   -4.5826   -3.0155   -2.9307 H   0  0  0  0  0  0  0  0  0  0  0  0
   -4.1725   -3.2194   -1.2063 H   0  0  0  0  0  0  0  0  0  0  0  0
   -3.5644   -1.8687   -2.0741 H   0  0  0  0  0  0  0  0  0  0  0  0
  1  2  1  0  0  0  0
  1  3  1  0  0  0  0
  1 24  1  0  0  0  0
  1 25  1  0  0  0  0
  2  4  1  0  0  0  0
  2  9  1  0  0  0  0
  2 26  1  0  0  0  0
  3  5  1  0  0  0  0
  3  7  1  0  0  0  0
  3 27  1  0  0  0  0
  4  6  1  0  0  0  0
  4 28  1  0  0  0  0
  4 29  1  0  0  0  0
  5  6  1  0  0  0  0
  5 30  1  0  0  0  0
  5 31  1  0  0  0  0
  6 11  1  0  0  0  0
  6 10  1  0  0  0  0
  7  8  1  0  0  0  0
  7 32  1  0  0  0  0
  7 33  1  0  0  0  0
  8  9  1  0  0  0  0
  8 34  1  0  0  0  0
  9 35  1  0  0  0  0
  9 36  1  0  0  0  0
 10  8  1  0  0  0  0
 10 37  1  0  0  0  0
 10 38  1  0  0  0  0
 11 12  1  0  0  0  0
 11 39  1  0  0  0  0
 12 13  2  0  0  0  0
 12 14  1  0  0  0  0
 14 15  1  0  0  0  0
 14 40  1  0  0  0  0
 15 16  1  0  0  0  0
 15 20  1  0  0  0  0
 15 41  1  0  0  0  0
 16 17  1  0  0  0  0
 16 42  1  0  0  0  0
 16 43  1  0  0  0  0
 17 18  1  0  0  0  0
 17 44  1  0  0  0  0
 17 45  1  0  0  0  0
 18 19  1  0  0  0  0
 18 21  1  0  0  0  0
 19 20  1  0  0  0  0
 19 46  1  0  0  0  0
 19 47  1  0  0  0  0
 20 48  1  0  0  0  0
 20 49  1  0  0  0  0
 21 22  1  0  0  0  0
 21 23  2  0  0  0  0
 22 50  1  0  0  0  0
 22 51  1  0  0  0  0
 22 52  1  0  0  0  0
M  END
>  <DRUGBANK_ID>
DB06345

>  <COMMON_NAME>
AR-9281

>  <CAS_NUMBER>
913548-29-5

>  <UNII>
4HA03Q8EZ9

>  <SYNONYMS>
APAU

$$$$
