
 OpenBabel10282417103D

 91 96  0  0  0  0  0  0  0  0999 V2000
    1.0006   -0.1763    0.0286 C   0  0  2  0  0  0  0  0  0  0  0  0
    0.6598   -1.6122    0.3955 C   0  0  2  0  0  0  0  0  0  0  0  0
    0.9600   -2.7521   -0.5699 C   0  0  0  0  0  0  0  0  0  0  0  0
    0.4198   -2.4506   -1.8838 C   0  0  1  0  0  0  0  0  0  0  0  0
    0.9680   -1.0996   -2.4280 C   0  0  2  0  0  0  0  0  0  0  0  0
    0.5307    0.0596   -1.4485 C   0  0  0  0  0  0  0  0  0  0  0  0
    0.8076   -3.6616   -2.7334 C   0  0  0  0  0  0  0  0  0  0  0  0
    0.2113   -3.6331   -4.1488 C   0  0  0  0  0  0  0  0  0  0  0  0
    0.6954   -2.3335   -4.8746 C   0  0  2  0  0  0  0  0  0  0  0  0
    0.1882   -1.1517   -3.7168 C   0  0  2  0  0  0  0  0  0  0  0  0
    0.7297   -2.1031   -6.7719 C   0  0  1  0  0  0  0  0  0  0  0  0
    0.1105   -0.8730   -6.4194 C   0  0  2  0  0  0  0  0  0  0  0  0
   -0.5410   -0.2348   -5.3612 C   0  0  0  0  0  0  0  0  0  0  0  0
    0.2512    0.1956   -4.2330 C   0  0  0  0  0  0  0  0  0  0  0  0
    0.8294   -0.5697   -8.1435 C   0  0  0  0  0  0  0  0  0  0  0  0
   -0.5415    0.1789   -8.3902 C   0  0  1  0  0  0  0  0  0  0  0  0
   -0.9499   -1.0309   -7.6500 C   0  0  2  0  0  0  0  0  0  0  0  0
    0.1089   -1.9751    1.6494 O   0  0  0  0  0  0  0  0  0  0  0  0
   -0.6663   -2.4094   -1.6888 H   0  0  0  0  0  0  0  0  0  0  0  0
   -0.8854   -1.3374   -3.4681 H   0  0  0  0  0  0  0  0  0  0  0  0
    0.1184   -2.9023   -7.0632 H   0  0  0  0  0  0  0  0  0  0  0  0
    2.6073   -0.0012    0.2817 N   0  0  0  0  0  0  0  0  0  0  0  0
    2.4661   -0.8353   -2.8750 C   0  0  0  0  0  0  0  0  0  0  0  0
    1.7597   -2.4552   -4.7140 H   0  0  0  0  0  0  0  0  0  0  0  0
    2.0030   -0.6384   -6.3056 C   0  0  0  0  0  0  0  0  0  0  0  0
   -0.9630    1.6519   -7.6990 N   0  3  0  0  0  0  0  0  0  0  0  0
   -2.2555   -1.3256   -7.2026 O   0  0  0  0  0  0  0  0  0  0  0  0
   -0.6216    2.8998   -8.5246 C   0  0  0  0  0  0  0  0  0  0  0  0
   -2.8388   -2.5409   -7.3592 C   0  0  0  0  0  0  0  0  0  0  0  0
   -2.0530   -3.7470   -7.7887 C   0  0  0  0  0  0  0  0  0  0  0  0
   -4.0434   -2.6394   -7.1389 O   0  0  0  0  0  0  0  0  0  0  0  0
   -0.3304    2.1929   -6.4028 C   0  0  0  0  0  0  0  0  0  0  0  0
   -0.5559    3.6057   -6.1508 C   0  0  0  0  0  0  0  0  0  0  0  0
   -0.3767    4.0840   -7.5369 C   0  0  0  0  0  0  0  0  0  0  0  0
   -2.5215    1.4843   -7.5849 C   0  0  0  0  0  0  0  0  0  0  0  0
   -3.1336    1.1717   -8.9390 C   0  0  0  0  0  0  0  0  0  0  0  0
   -3.6921    0.0282   -9.3665 C   0  0  0  0  0  0  0  0  0  0  0  0
    3.3764   -1.2992   -0.0551 C   0  0  0  0  0  0  0  0  0  0  0  0
    3.2800   -2.6172    0.8767 C   0  0  0  0  0  0  0  0  0  0  0  0
    3.5801   -2.3091    2.2124 O   0  0  0  0  0  0  0  0  0  0  0  0
    2.9666   -1.0833    2.6759 C   0  0  0  0  0  0  0  0  0  0  0  0
    3.0763    0.1426    1.7070 C   0  0  0  0  0  0  0  0  0  0  0  0
    0.3487    0.4488    0.6660 H   0  0  0  0  0  0  0  0  0  0  0  0
    1.5619   -1.5796    0.8784 H   0  0  0  0  0  0  0  0  0  0  0  0
    0.7230   -3.7322   -0.1657 H   0  0  0  0  0  0  0  0  0  0  0  0
    1.9893   -2.9256   -0.8888 H   0  0  0  0  0  0  0  0  0  0  0  0
   -0.5787    0.1257   -1.4660 H   0  0  0  0  0  0  0  0  0  0  0  0
    0.8461    1.0573   -1.7964 H   0  0  0  0  0  0  0  0  0  0  0  0
    1.9039   -3.7130   -2.8031 H   0  0  0  0  0  0  0  0  0  0  0  0
    0.5135   -4.5675   -2.1854 H   0  0  0  0  0  0  0  0  0  0  0  0
    0.5708   -4.5386   -4.6269 H   0  0  0  0  0  0  0  0  0  0  0  0
   -0.8738   -3.6745   -3.9855 H   0  0  0  0  0  0  0  0  0  0  0  0
   -0.1721    0.5174   -5.9040 H   0  0  0  0  0  0  0  0  0  0  0  0
   -1.6283   -0.1093   -5.2547 H   0  0  0  0  0  0  0  0  0  0  0  0
    1.2322    0.5425   -4.5442 H   0  0  0  0  0  0  0  0  0  0  0  0
   -0.1667    1.0312   -3.6752 H   0  0  0  0  0  0  0  0  0  0  0  0
    1.3340   -0.7390   -9.0989 H   0  0  0  0  0  0  0  0  0  0  0  0
    1.3749    0.3504   -7.8824 H   0  0  0  0  0  0  0  0  0  0  0  0
   -0.8365    0.2375   -9.4430 H   0  0  0  0  0  0  0  0  0  0  0  0
   -0.7731   -1.7961   -8.4333 H   0  0  0  0  0  0  0  0  0  0  0  0
    0.8607   -2.3813    2.1484 H   0  0  0  0  0  0  0  0  0  0  0  0
    2.5770    0.0279   -3.5296 H   0  0  0  0  0  0  0  0  0  0  0  0
    3.2088   -0.4462   -2.1881 H   0  0  0  0  0  0  0  0  0  0  0  0
    2.9113   -1.7201   -3.3227 H   0  0  0  0  0  0  0  0  0  0  0  0
    2.4475   -0.9438   -5.3752 H   0  0  0  0  0  0  0  0  0  0  0  0
    2.5650   -1.3037   -7.0382 H   0  0  0  0  0  0  0  0  0  0  0  0
    2.3714    0.3709   -6.4719 H   0  0  0  0  0  0  0  0  0  0  0  0
    0.2802    2.6730   -9.0968 H   0  0  0  0  0  0  0  0  0  0  0  0
   -1.4519    3.1437   -9.1789 H   0  0  0  0  0  0  0  0  0  0  0  0
   -2.0049   -4.4282   -6.9376 H   0  0  0  0  0  0  0  0  0  0  0  0
   -2.5254   -4.1959   -8.6621 H   0  0  0  0  0  0  0  0  0  0  0  0
   -1.0450   -3.5992   -8.1457 H   0  0  0  0  0  0  0  0  0  0  0  0
   -0.9264    1.8693   -5.5496 H   0  0  0  0  0  0  0  0  0  0  0  0
    0.7566    1.9814   -6.4313 H   0  0  0  0  0  0  0  0  0  0  0  0
    0.1693    3.9239   -5.3864 H   0  0  0  0  0  0  0  0  0  0  0  0
   -1.5587    3.7119   -5.7193 H   0  0  0  0  0  0  0  0  0  0  0  0
    0.6496    4.4470   -7.6336 H   0  0  0  0  0  0  0  0  0  0  0  0
   -1.0831    4.8983   -7.6744 H   0  0  0  0  0  0  0  0  0  0  0  0
   -2.7031    0.6952   -6.8593 H   0  0  0  0  0  0  0  0  0  0  0  0
   -2.9283    2.3769   -7.1144 H   0  0  0  0  0  0  0  0  0  0  0  0
   -3.0338    1.9413   -9.6944 H   0  0  0  0  0  0  0  0  0  0  0  0
   -4.0011   -0.1205  -10.3979 H   0  0  0  0  0  0  0  0  0  0  0  0
   -3.8713   -0.8277   -8.7368 H   0  0  0  0  0  0  0  0  0  0  0  0
    2.9201   -1.5517   -0.9631 H   0  0  0  0  0  0  0  0  0  0  0  0
    4.4086   -1.1346   -0.3840 H   0  0  0  0  0  0  0  0  0  0  0  0
    2.3224   -3.1352    1.0278 H   0  0  0  0  0  0  0  0  0  0  0  0
    3.7396   -3.4849    0.3746 H   0  0  0  0  0  0  0  0  0  0  0  0
    1.9201   -1.1633    2.9828 H   0  0  0  0  0  0  0  0  0  0  0  0
    3.4675   -0.9309    3.6291 H   0  0  0  0  0  0  0  0  0  0  0  0
    4.1583    0.3317    1.6263 H   0  0  0  0  0  0  0  0  0  0  0  0
    2.6217    1.0221    2.1620 H   0  0  0  0  0  0  0  0  0  0  0  0
  1  2  1  0  0  0  0
  1  6  1  0  0  0  0
  1 43  1  1  0  0  0
  1 22  1  0  0  0  0
  2  3  1  0  0  0  0
  2 18  1  0  0  0  0
  2 44  1  1  0  0  0
  3  4  1  0  0  0  0
  3 45  1  0  0  0  0
  3 46  1  0  0  0  0
  4  5  1  0  0  0  0
  4  7  1  0  0  0  0
  4 19  1  1  0  0  0
  5  6  1  0  0  0  0
  5 10  1  0  0  0  0
  5 23  1  6  0  0  0
  6 47  1  0  0  0  0
  6 48  1  0  0  0  0
  7  8  1  0  0  0  0
  7 49  1  0  0  0  0
  7 50  1  0  0  0  0
  8  9  1  0  0  0  0
  8 51  1  0  0  0  0
  8 52  1  0  0  0  0
  9 10  1  0  0  0  0
  9 11  1  0  0  0  0
  9 24  1  1  0  0  0
 10 14  1  0  0  0  0
 10 20  1  1  0  0  0
 11 12  1  0  0  0  0
 11 15  1  0  0  0  0
 11 21  1  6  0  0  0
 12 13  1  0  0  0  0
 12 17  1  0  0  0  0
 12 25  1  6  0  0  0
 13 14  1  0  0  0  0
 13 53  1  0  0  0  0
 13 54  1  0  0  0  0
 14 55  1  0  0  0  0
 14 56  1  0  0  0  0
 15 16  1  0  0  0  0
 15 57  1  0  0  0  0
 15 58  1  0  0  0  0
 16 17  1  0  0  0  0
 16 59  1  6  0  0  0
 16 26  1  0  0  0  0
 17 60  1  6  0  0  0
 17 27  1  0  0  0  0
 18 61  1  0  0  0  0
 22 38  1  0  0  0  0
 22 42  1  0  0  0  0
 23 62  1  0  0  0  0
 23 63  1  0  0  0  0
 23 64  1  0  0  0  0
 25 65  1  0  0  0  0
 25 66  1  0  0  0  0
 25 67  1  0  0  0  0
 26 28  1  0  0  0  0
 26 32  1  0  0  0  0
 26 35  1  0  0  0  0
 27 29  1  0  0  0  0
 28 34  1  0  0  0  0
 28 68  1  0  0  0  0
 28 69  1  0  0  0  0
 29 30  1  0  0  0  0
 29 31  2  0  0  0  0
 30 70  1  0  0  0  0
 30 71  1  0  0  0  0
 30 72  1  0  0  0  0
 32 33  1  0  0  0  0
 32 73  1  0  0  0  0
 32 74  1  0  0  0  0
 33 34  1  0  0  0  0
 33 75  1  0  0  0  0
 33 76  1  0  0  0  0
 34 77  1  0  0  0  0
 34 78  1  0  0  0  0
 35 36  1  0  0  0  0
 35 79  1  0  0  0  0
 35 80  1  0  0  0  0
 36 37  2  0  0  0  0
 36 81  1  0  0  0  0
 37 82  1  0  0  0  0
 37 83  1  0  0  0  0
 38 39  1  0  0  0  0
 38 84  1  0  0  0  0
 38 85  1  0  0  0  0
 39 40  1  0  0  0  0
 39 86  1  0  0  0  0
 39 87  1  0  0  0  0
 40 41  1  0  0  0  0
 41 42  1  0  0  0  0
 41 88  1  0  0  0  0
 41 89  1  0  0  0  0
 42 90  1  0  0  0  0
 42 91  1  0  0  0  0
M  CHG  1  26   1
M  END
>  <DRUGBANK_ID>
DB00728

>  <SECONDARY_ACCESSION_NUMBERS>
APRD01221

>  <COMMON_NAME>
Rocuronium

>  <CAS_NUMBER>
143558-00-3

>  <UNII>
WRE554RFEZ

>  <SYNONYMS>
Rocuronio; Rocuronium

$$$$
