
 OpenBabel10282417183D

 48 46  0  0  0  0  0  0  0  0999 V2000
    0.9719    0.0946    0.0160 C   0  0  0  0  0  0  0  0  0  0  0  0
   -0.9881    1.3727   -0.5202 C   0  0  0  0  0  0  0  0  0  0  0  0
    0.4653   -0.0860    1.4376 C   0  0  0  0  0  0  0  0  0  0  0  0
   -1.4947    1.1920    0.9015 C   0  0  0  0  0  0  0  0  0  0  0  0
    0.9719    2.4760    0.3185 C   0  0  0  0  0  0  0  0  0  0  0  0
    0.4653    0.8427    3.6512 C   0  0  0  0  0  0  0  0  0  0  0  0
    2.4253    1.0174    2.2763 C   0  0  0  0  0  0  0  0  0  0  0  0
   -1.4947    2.1207    3.1151 C   0  0  0  0  0  0  0  0  0  0  0  0
    0.4653    2.2954    1.7402 C   0  0  0  0  0  0  0  0  0  0  0  0
    0.4653    2.2954    1.7402 C   0  0  0  0  0  0  0  0  0  0  0  0
    0.9719   -0.4788    4.2056 C   0  0  0  0  0  0  0  0  0  0  0  0
    2.9319   -0.3041    2.8307 C   0  0  0  0  0  0  0  0  0  0  0  0
   -0.9881    0.7992    3.6694 C   0  0  0  0  0  0  0  0  0  0  0  0
    0.9719    0.9739    2.2946 C   0  0  0  0  0  0  0  0  0  0  0  0
    0.4819    1.3727   -0.5202 N   0  0  0  0  0  0  0  0  0  0  0  0
    0.9553    1.0174    2.2763 N   0  0  0  0  0  0  0  0  0  0  0  0
   -1.0047    2.2954    1.7402 N   0  0  0  0  0  0  0  0  0  0  0  0
    1.2911    2.1736    2.6985 O   0  0  0  0  0  0  0  0  0  0  0  0
   -0.9308    2.2627    1.9976 O   0  5  0  0  0  0  0  0  0  0  0  0
    1.7026   -0.4934    5.2454 O   0  0  0  0  0  0  0  0  0  0  0  0
    0.6289   -1.6971    3.5618 O   0  5  0  0  0  0  0  0  0  0  0  0
    3.6626   -1.0562    2.1126 O   0  0  0  0  0  0  0  0  0  0  0  0
    2.5889   -0.6984    4.1511 O   0  5  0  0  0  0  0  0  0  0  0  0
   -0.2574    0.7846    4.7092 O   0  0  0  0  0  0  0  0  0  0  0  0
   -1.3311   -0.4191    3.0256 O   0  0  0  0  0  0  0  0  0  0  0  0
    1.7026    0.2218    1.5764 O   0  0  0  0  0  0  0  0  0  0  0  0
    0.6289    0.5796    3.6149 O   0  0  0  0  0  0  0  0  0  0  0  0
    0.9131    0.0250   -0.0427 In  0  1  0  0  0  0  0  0  0  0  0  0
    0.6153   -0.7085   -0.5945 H   0  0  0  0  0  0  0  0  0  0  0  0
    2.0419    0.0946    0.0160 H   0  0  0  0  0  0  0  0  0  0  0  0
   -1.3447    2.3029   -0.9104 H   0  0  0  0  0  0  0  0  0  0  0  0
   -1.3447    0.5696   -1.1307 H   0  0  0  0  0  0  0  0  0  0  0  0
   -0.6047   -0.0860    1.4376 H   0  0  0  0  0  0  0  0  0  0  0  0
    0.8219   -1.0162    1.8279 H   0  0  0  0  0  0  0  0  0  0  0  0
   -2.5647    1.1920    0.9014 H   0  0  0  0  0  0  0  0  0  0  0  0
   -1.1381    0.2618    1.2917 H   0  0  0  0  0  0  0  0  0  0  0  0
    2.0419    2.4760    0.3185 H   0  0  0  0  0  0  0  0  0  0  0  0
    0.6153    3.4063   -0.0717 H   0  0  0  0  0  0  0  0  0  0  0  0
    0.8219    1.6458    4.2617 H   0  0  0  0  0  0  0  0  0  0  0  0
   -0.6047    0.8427    3.6512 H   0  0  0  0  0  0  0  0  0  0  0  0
    2.7819    1.1445    1.2756 H   0  0  0  0  0  0  0  0  0  0  0  0
    2.7819    1.8205    2.8868 H   0  0  0  0  0  0  0  0  0  0  0  0
   -1.1381    2.9238    3.7256 H   0  0  0  0  0  0  0  0  0  0  0  0
   -2.5647    2.1207    3.1150 H   0  0  0  0  0  0  0  0  0  0  0  0
    0.8219    2.4225    0.7394 H   0  0  0  0  0  0  0  0  0  0  0  0
    0.8219    3.0985    2.3507 H   0  0  0  0  0  0  0  0  0  0  0  0
   -0.9978   -1.2885    3.3903 H   0  0  0  0  0  0  0  0  0  0  0  0
    0.9622   -0.2898    3.9796 H   0  0  0  0  0  0  0  0  0  0  0  0
  1 29  1  0  0  0  0
  1 30  1  0  0  0  0
  2 31  1  0  0  0  0
  2 32  1  0  0  0  0
  3  1  1  0  0  0  0
  3 33  1  0  0  0  0
  3 34  1  0  0  0  0
  4  2  1  0  0  0  0
  4 35  1  0  0  0  0
  4 36  1  0  0  0  0
  5 37  1  0  0  0  0
  5 38  1  0  0  0  0
  6 39  1  0  0  0  0
  6 40  1  0  0  0  0
  7 41  1  0  0  0  0
  7 42  1  0  0  0  0
  8 43  1  0  0  0  0
  8 44  1  0  0  0  0
  9 45  1  0  0  0  0
  9 46  1  0  0  0  0
 10  5  1  0  0  0  0
 11  6  1  0  0  0  0
 12  7  1  0  0  0  0
 13  8  1  0  0  0  0
 14  9  1  0  0  0  0
 15  1  1  0  0  0  0
 15  2  1  0  0  0  0
 15  5  1  0  0  0  0
 16  3  1  0  0  0  0
 16  6  1  0  0  0  0
 16  7  1  0  0  0  0
 17  4  1  0  0  0  0
 17  8  1  0  0  0  0
 17  9  1  0  0  0  0
 18 10  2  0  0  0  0
 19 10  1  0  0  0  0
 20 11  2  0  0  0  0
 21 11  1  0  0  0  0
 22 12  2  0  0  0  0
 23 12  1  0  0  0  0
 24 13  2  0  0  0  0
 25 13  1  0  0  0  0
 25 47  1  0  0  0  0
 26 14  2  0  0  0  0
 27 14  1  0  0  0  0
 27 48  1  0  0  0  0
M  ISO  1  28 111
M  CHG  4  19  -1  21  -1  23  -1  28   3
M  END
>  <DRUGBANK_ID>
DB09425

>  <COMMON_NAME>
Indium In-111 pentetate

>  <CAS_NUMBER>
135998-32-2

>  <UNII>
5K3UP561AX

>  <SYNONYMS>
Indium (111In) pentetic acid; Indium In 111 pentetate; Indium In-111 pentetate

$$$$
