
 OpenBabel10282417133D

 45 45  0  0  1  0  0  0  0  0999 V2000
   -0.1644    7.1009   -0.0736 N   0  0  0  0  0  0  0  0  0  0  0  0
   -0.6943    1.6895    2.2022 C   0  0  0  0  0  0  0  0  0  0  0  0
   -1.2596    3.9284    1.8894 C   0  0  0  0  0  0  0  0  0  0  0  0
    1.3481    3.0937    1.2797 C   0  0  1  0  0  0  0  0  0  0  0  0
    1.9317    3.8889    0.0616 C   0  0  0  0  0  0  0  0  0  0  0  0
    2.0433    3.6138    2.6292 C   0  0  0  0  0  0  0  0  0  0  0  0
   -0.3793    2.8564    1.2939 N   0  3  0  0  0  0  0  0  0  0  0  0
   -1.0184    2.6366   -0.0908 C   0  0  0  0  0  0  0  0  0  0  0  0
   -0.4989    6.6912    2.1458 C   0  0  0  0  0  0  0  0  0  0  0  0
    0.4129    5.9483    0.2070 C   0  0  0  0  0  0  0  0  0  0  0  0
    0.3788    5.8709    1.5705 N   0  0  0  0  0  0  0  0  0  0  0  0
    1.0198    4.8669   -0.6782 C   0  0  0  0  0  0  0  0  0  0  0  0
    2.1192    4.9636    2.8888 N   0  0  0  0  0  0  0  0  0  0  0  0
    2.4612    2.8351    3.5069 O   0  0  0  0  0  0  0  0  0  0  0  0
   -0.6407    7.5872    1.1471 C   0  0  0  0  0  0  0  0  0  0  0  0
   -1.1137    8.9236    1.4510 C   0  0  0  0  0  0  0  0  0  0  0  0
   -2.5984    8.9377    1.8229 C   0  0  2  0  0  0  0  0  0  0  0  0
   -2.9305   10.3526    2.0336 N   0  0  0  0  0  0  0  0  0  0  0  0
   -3.3863    8.7985    4.1630 O   0  0  0  0  0  0  0  0  0  0  0  0
   -3.0484    8.0862    3.0622 C   0  0  0  0  0  0  0  0  0  0  0  0
   -3.1335    6.8594    3.0826 O   0  0  0  0  0  0  0  0  0  0  0  0
   -0.2687    1.9184    3.1826 H   0  0  0  0  0  0  0  0  0  0  0  0
   -1.7882    1.6367    2.2823 H   0  0  0  0  0  0  0  0  0  0  0  0
   -0.2915    0.7823    1.7628 H   0  0  0  0  0  0  0  0  0  0  0  0
   -1.2047    4.6776    1.1396 H   0  0  0  0  0  0  0  0  0  0  0  0
   -2.3409    3.7809    1.8213 H   0  0  0  0  0  0  0  0  0  0  0  0
   -0.9325    4.1395    2.9119 H   0  0  0  0  0  0  0  0  0  0  0  0
    1.7053    2.0565    1.1885 H   0  0  0  0  0  0  0  0  0  0  0  0
    2.3242    3.1441   -0.6507 H   0  0  0  0  0  0  0  0  0  0  0  0
    2.8290    4.4529    0.3563 H   0  0  0  0  0  0  0  0  0  0  0  0
   -1.1134    3.5947   -0.6021 H   0  0  0  0  0  0  0  0  0  0  0  0
   -0.4420    1.9131   -0.6606 H   0  0  0  0  0  0  0  0  0  0  0  0
   -2.0723    2.3736    0.0362 H   0  0  0  0  0  0  0  0  0  0  0  0
   -0.8096    6.6103    3.1861 H   0  0  0  0  0  0  0  0  0  0  0  0
    0.6890    5.1221    2.1447 H   0  0  0  0  0  0  0  0  0  0  0  0
    0.3571    4.2056   -1.2270 H   0  0  0  0  0  0  0  0  0  0  0  0
    1.4892    5.3427   -1.5424 H   0  0  0  0  0  0  0  0  0  0  0  0
    2.3801    5.6732    2.1915 H   0  0  0  0  0  0  0  0  0  0  0  0
    2.3675    5.2992    3.8182 H   0  0  0  0  0  0  0  0  0  0  0  0
   -0.4999    9.2786    2.2981 H   0  0  0  0  0  0  0  0  0  0  0  0
   -0.8679    9.5503    0.5916 H   0  0  0  0  0  0  0  0  0  0  0  0
   -3.1713    8.5413    0.9776 H   0  0  0  0  0  0  0  0  0  0  0  0
   -3.9243   10.4839    2.1773 H   0  0  0  0  0  0  0  0  0  0  0  0
   -2.3471   10.7761    2.7511 H   0  0  0  0  0  0  0  0  0  0  0  0
   -3.4483    9.7578    4.0045 H   0  0  0  0  0  0  0  0  0  0  0  0
  2 22  1  0  0  0  0
  2 23  1  0  0  0  0
  2 24  1  0  0  0  0
  3 25  1  0  0  0  0
  3 26  1  0  0  0  0
  3 27  1  0  0  0  0
  4  6  1  0  0  0  0
  4 28  1  6  0  0  0
  4  5  1  0  0  0  0
  4  7  1  0  0  0  0
  5 12  1  0  0  0  0
  5 29  1  0  0  0  0
  5 30  1  0  0  0  0
  6 14  2  0  0  0  0
  6 13  1  0  0  0  0
  7  2  1  0  0  0  0
  7  3  1  0  0  0  0
  7  8  1  0  0  0  0
  8 31  1  0  0  0  0
  8 32  1  0  0  0  0
  8 33  1  0  0  0  0
  9 15  2  0  0  0  0
  9 34  1  0  0  0  0
 10  1  2  0  0  0  0
 10 11  1  0  0  0  0
 11  9  1  0  0  0  0
 11 35  1  0  0  0  0
 12 10  1  0  0  0  0
 12 36  1  0  0  0  0
 12 37  1  0  0  0  0
 13 38  1  0  0  0  0
 13 39  1  0  0  0  0
 15  1  1  0  0  0  0
 15 16  1  0  0  0  0
 16 17  1  0  0  0  0
 16 40  1  0  0  0  0
 16 41  1  0  0  0  0
 17 20  1  0  0  0  0
 17 18  1  0  0  0  0
 17 42  1  6  0  0  0
 18 43  1  0  0  0  0
 18 44  1  0  0  0  0
 19 45  1  0  0  0  0
 20 19  1  0  0  0  0
 20 21  2  0  0  0  0
M  CHG  1   7   1
M  END
>  <DRUGBANK_ID>
DB03223

>  <SECONDARY_ACCESSION_NUMBERS>
EXPT01142

>  <COMMON_NAME>
Diphthamide

>  <CAS_NUMBER>
75645-22-6

>  <UNII>
86L3ZZ4408

>  <SYNONYMS>
2-(3-Carboxyamido-3-(Trimethylammonio)Propyl)Histidine

$$$$
