
 OpenBabel10282417123D

 16 16  0  0  0  0  0  0  0  0999 V2000
    1.0845    0.0434    0.0314 O   0  5  0  0  0  0  0  0  0  0  0  0
    3.2745    0.0434    0.0314 V   0  0  3  0  0  0  0  0  0  0  0  0
    3.9277    0.0434    1.8794 O   0  0  0  0  0  0  0  0  0  0  0  0
    3.7848    1.2923   -0.6895 O   0  0  0  0  0  0  0  0  0  0  0  0
    5.2619    1.5060   -0.3557 V   0  0  3  0  0  0  0  0  0  0  0  0
    6.4788    0.0772   -1.4844 O   0  5  0  0  0  0  0  0  0  0  0  0
    5.7829    3.3329   -0.8380 O   0  0  0  0  0  0  0  0  0  0  0  0
    5.4831    1.2914    1.1434 O   0  0  0  0  0  0  0  0  0  0  0  0
    6.3396    0.0428    1.3589 V   0  0  3  0  0  0  0  0  0  0  0  0
    8.0027    0.0430   -0.0659 O   0  5  0  0  0  0  0  0  0  0  0  0
    7.0463    0.0425    3.1871 O   0  0  0  0  0  0  0  0  0  0  0  0
    5.4824   -1.2066    1.1429 O   0  0  0  0  0  0  0  0  0  0  0  0
    5.2614   -1.4200   -0.3562 V   0  0  3  0  0  0  0  0  0  0  0  0
    6.4789    0.0090   -1.4838 O   0  5  0  0  0  0  0  0  0  0  0  0
    5.7818   -3.2469   -0.8395 O   0  0  0  0  0  0  0  0  0  0  0  0
    3.7841   -1.2057   -0.6900 O   0  0  0  0  0  0  0  0  0  0  0  0
  1  2  1  0  0  0  0
  2  3  2  0  0  0  0
  2  4  1  0  0  0  0
  2 16  1  0  0  0  0
  4  5  1  0  0  0  0
  5  6  1  0  0  0  0
  5  7  2  0  0  0  0
  5  8  1  0  0  0  0
  8  9  1  0  0  0  0
  9 10  1  0  0  0  0
  9 11  2  0  0  0  0
  9 12  1  0  0  0  0
 12 13  1  0  0  0  0
 13 14  1  0  0  0  0
 13 15  2  0  0  0  0
 13 16  1  0  0  0  0
M  CHG  4   1  -1   6  -1  10  -1  14  -1
M  END
>  <DRUGBANK_ID>
DB02147

>  <SECONDARY_ACCESSION_NUMBERS>
EXPT03213

>  <COMMON_NAME>
Cyclo-Tetrametavanadate

$$$$
