
 OpenBabel10282417183D

 35 35  0  0  0  0  0  0  0  0999 V2000
    1.1191   -0.2158   -0.1687 C   0  0  0  0  0  0  0  0  0  0  0  0
   -0.9690    0.5492   -1.3302 C   0  0  0  0  0  0  0  0  0  0  0  0
    0.1205    6.8734    6.1144 C   0  0  0  0  0  0  0  0  0  0  0  0
   -0.4242    6.6372    1.1384 C   0  0  0  0  0  0  0  0  0  0  0  0
    1.3599    4.6044    1.6799 C   0  0  0  0  0  0  0  0  0  0  0  0
   -0.1723    3.0432    2.5654 C   0  0  0  0  0  0  0  0  0  0  0  0
    1.1430    4.1623    0.3446 C   0  0  0  0  0  0  0  0  0  0  0  0
   -0.0516    2.3647    1.3132 C   0  0  0  0  0  0  0  0  0  0  0  0
    0.3937    4.3000    2.7261 C   0  0  0  0  0  0  0  0  0  0  0  0
    0.5576    2.9496    0.1797 C   0  0  0  0  0  0  0  0  0  0  0  0
    0.4973    0.6104   -1.2205 N   0  0  0  0  0  0  0  0  0  0  0  0
    2.5593    2.1117   -1.2627 O   0  0  0  0  0  0  0  0  0  0  0  0
    0.4563    2.8434   -2.4453 O   0  0  0  0  0  0  0  0  0  0  0  0
    0.7397    6.8618    4.8034 O   0  0  0  0  0  0  0  0  0  0  0  0
    0.1233    7.3449    2.1724 O   0  0  0  0  0  0  0  0  0  0  0  0
   -0.4986    5.2713    3.6134 O   0  0  0  0  0  0  0  0  0  0  0  0
   -0.4219    6.9993    3.6426 P   0  0  0  0  0  0  0  0  0  0  0  0
   -0.3378    8.8946    3.6746 S   0  0  0  0  0  0  0  0  0  0  0  0
    1.0906    2.1776   -1.3527 S   0  0  0  0  0  0  0  0  0  0  0  0
    0.7553   -1.2394   -0.2262 H   0  0  0  0  0  0  0  0  0  0  0  0
    0.9019    0.1330    0.8368 H   0  0  0  0  0  0  0  0  0  0  0  0
    2.2100   -0.2145   -0.2549 H   0  0  0  0  0  0  0  0  0  0  0  0
   -1.4566    1.0558   -0.4972 H   0  0  0  0  0  0  0  0  0  0  0  0
   -1.3084    1.0399   -2.2485 H   0  0  0  0  0  0  0  0  0  0  0  0
   -1.3071   -0.4850   -1.3477 H   0  0  0  0  0  0  0  0  0  0  0  0
   -0.4760    7.7850    6.2678 H   0  0  0  0  0  0  0  0  0  0  0  0
   -0.5679    6.0258    6.2118 H   0  0  0  0  0  0  0  0  0  0  0  0
    0.8720    6.8345    6.9023 H   0  0  0  0  0  0  0  0  0  0  0  0
    0.3807    6.0923    1.4306 H   0  0  0  0  0  0  0  0  0  0  0  0
   -1.2359    5.9265    1.3394 H   0  0  0  0  0  0  0  0  0  0  0  0
   -0.0348    6.7339    0.1294 H   0  0  0  0  0  0  0  0  0  0  0  0
    2.0275    5.4754    1.6532 H   0  0  0  0  0  0  0  0  0  0  0  0
   -0.6307    2.5351    3.4068 H   0  0  0  0  0  0  0  0  0  0  0  0
    1.4476    4.7271   -0.5527 H   0  0  0  0  0  0  0  0  0  0  0  0
   -0.4700    1.3685    1.2879 H   0  0  0  0  0  0  0  0  0  0  0  0
  1 20  1  0  0  0  0
  1 21  1  0  0  0  0
  1 22  1  0  0  0  0
  2 23  1  0  0  0  0
  2 24  1  0  0  0  0
  2 25  1  0  0  0  0
  3 26  1  0  0  0  0
  3 27  1  0  0  0  0
  3 28  1  0  0  0  0
  4 29  1  0  0  0  0
  4 30  1  0  0  0  0
  4 31  1  0  0  0  0
  5 32  1  0  0  0  0
  6 33  1  0  0  0  0
  7  5  1  0  0  0  0
  7 34  1  0  0  0  0
  8  6  2  0  0  0  0
  8 35  1  0  0  0  0
  9  5  2  0  0  0  0
  9  6  1  0  0  0  0
 10  7  2  0  0  0  0
 10  8  1  0  0  0  0
 11  1  1  0  0  0  0
 11  2  1  0  0  0  0
 14  3  1  0  0  0  0
 15  4  1  0  0  0  0
 16  9  1  0  0  0  0
 17 14  1  0  0  0  0
 17 15  1  0  0  0  0
 17 16  1  0  0  0  0
 18 17  2  0  0  0  0
 19 10  1  0  0  0  0
 19 11  1  0  0  0  0
 19 12  2  0  0  0  0
 19 13  2  0  0  0  0
M  END
>  <DRUGBANK_ID>
DB11408

>  <COMMON_NAME>
Famphur

>  <CAS_NUMBER>
52-85-7

>  <UNII>
02UOP4Z0O0

>  <SYNONYMS>
Famophos; O-[4-(dimethylsulfamoyl)phenyl] O,O-dimethyl thiophosphate; Phosphorothioic acid, O-(4-((dimethylamino)sulfonyl)phenyl) O,O-dimethyl ester

$$$$
