
 OpenBabel10282417143D

 88 90  0  0  0  0  0  0  0  0999 V2000
    3.2040   -0.9709   -1.6130 P   0  0  0  0  0  0  0  0  0  0  0  0
   -2.2504   -4.9756   -0.5123 P   0  0  3  0  0  0  0  0  0  0  0  0
   -2.8249   -7.4814   -1.6837 P   0  0  3  0  0  0  0  0  0  0  0  0
   -1.2669   -2.9982   -1.5515 O   0  0  0  0  0  0  0  0  0  0  0  0
    2.2490   -2.2425   -1.4204 O   0  0  0  0  0  0  0  0  0  0  0  0
    0.5667   -1.5164   -3.5586 O   0  0  0  0  0  0  0  0  0  0  0  0
   -0.6020   -5.4544   -0.2967 O   0  0  0  0  0  0  0  0  0  0  0  0
    3.7768   -0.6402   -0.1627 O   0  0  0  0  0  0  0  0  0  0  0  0
    2.2617    0.2777   -1.8850 O   0  0  0  0  0  0  0  0  0  0  0  0
   -2.7627   -6.5978   -0.1977 O   0  0  0  0  0  0  0  0  0  0  0  0
   -3.1963   -8.7638   -0.7370 O   0  0  0  0  0  0  0  0  0  0  0  0
    4.2819   -1.1281   -2.6222 O   0  0  0  0  0  0  0  0  0  0  0  0
    0.2456   -7.8302   -1.4000 O   0  0  0  0  0  0  0  0  0  0  0  0
   -2.2316   -4.5923    1.0893 O   0  0  0  0  0  0  0  0  0  0  0  0
   -3.7258   -4.5472   -0.7053 O   0  0  0  0  0  0  0  0  0  0  0  0
   -4.3351   -6.8606   -1.8450 O   0  0  0  0  0  0  0  0  0  0  0  0
   -0.3079   -8.7269   -4.6969 O   0  0  0  0  0  0  0  0  0  0  0  0
   -2.8806   -8.2722   -3.0137 O   0  0  0  0  0  0  0  0  0  0  0  0
    4.1985  -12.4212   -3.4404 O   0  0  0  0  0  0  0  0  0  0  0  0
    1.1080  -10.4780   -9.4572 O   0  5  0  0  0  0  0  0  0  0  0  0
    1.3762  -12.1726   -8.0823 O   0  0  0  0  0  0  0  0  0  0  0  0
   -1.9160   -0.7586   -0.9358 N   0  0  0  0  0  0  0  0  0  0  0  0
   -2.5435   -0.0814    1.0951 N   0  0  0  0  0  0  0  0  0  0  0  0
   -1.7476    1.4200   -2.0448 N   0  0  0  0  0  0  0  0  0  0  0  0
   -2.3173    3.2394   -0.5240 N   0  0  0  0  0  0  0  0  0  0  0  0
   -2.9454    2.8980    1.7181 N   0  0  0  0  0  0  0  0  0  0  0  0
    1.5505   -9.1931   -3.4583 N   0  0  0  0  0  0  0  0  0  0  0  0
    2.6476  -11.6631   -4.9034 N   0  0  0  0  0  0  0  0  0  0  0  0
    1.5538  -11.0032   -8.4306 N   0  3  0  0  0  0  0  0  0  0  0  0
    0.8685   -2.0800   -1.2074 C   0  0  1  0  0  0  0  0  0  0  0  0
    0.1057   -1.2385   -2.2323 C   0  0  2  0  0  0  0  0  0  0  0  0
    0.1260   -3.3908   -1.3948 C   0  0  1  0  0  0  0  0  0  0  0  0
   -1.3417   -1.6112   -1.9803 C   0  0  1  0  0  0  0  0  0  0  0  0
    0.3078   -4.3438   -0.2175 C   0  0  0  0  0  0  0  0  0  0  0  0
   -2.0190    0.6160   -1.0016 C   0  0  0  0  0  0  0  0  0  0  0  0
   -2.2723   -1.1174    0.3341 C   0  0  0  0  0  0  0  0  0  0  0  0
   -2.4062    1.0108    0.2692 C   0  0  0  0  0  0  0  0  0  0  0  0
   -1.2443   -9.8692   -1.6473 C   0  0  0  0  0  0  0  0  0  0  0  0
   -0.4921   -8.6184   -2.3334 C   0  0  2  0  0  0  0  0  0  0  0  0
   -2.0555   -9.5042   -0.4040 C   0  0  0  0  0  0  0  0  0  0  0  0
   -0.1821  -10.7477   -1.0676 C   0  0  0  0  0  0  0  0  0  0  0  0
   -2.0445  -10.8210   -2.5994 C   0  0  0  0  0  0  0  0  0  0  0  0
   -2.5657    2.3886    0.4965 C   0  0  0  0  0  0  0  0  0  0  0  0
    0.2426   -8.8862   -3.5938 C   0  0  0  0  0  0  0  0  0  0  0  0
   -1.9259    2.7205   -1.7093 C   0  0  0  0  0  0  0  0  0  0  0  0
    2.2559   -9.8237   -2.3866 C   0  0  0  0  0  0  0  0  0  0  0  0
    2.3178  -11.3639   -2.4780 C   0  0  0  0  0  0  0  0  0  0  0  0
    3.1170  -11.8364   -3.6332 C   0  0  0  0  0  0  0  0  0  0  0  0
    1.3556  -11.1633   -5.4029 C   0  0  0  0  0  0  0  0  0  0  0  0
    1.5606   -9.8949   -6.2999 C   0  0  0  0  0  0  0  0  0  0  0  0
    2.3598  -10.1386   -7.5401 C   0  0  0  0  0  0  0  0  0  0  0  0
    2.0604   -9.3165   -4.2902 H   0  0  0  0  0  0  0  0  0  0  0  0
   -3.1864    2.2518    2.4570 H   0  0  0  0  0  0  0  0  0  0  0  0
   -3.1147    3.8873    1.8030 H   0  0  0  0  0  0  0  0  0  0  0  0
    3.2457  -12.1150   -5.5821 H   0  0  0  0  0  0  0  0  0  0  0  0
    0.3515   -2.4340   -3.8120 H   0  0  0  0  0  0  0  0  0  0  0  0
    4.6750   -0.2665   -0.2656 H   0  0  0  0  0  0  0  0  0  0  0  0
    1.9317    0.2408   -2.8077 H   0  0  0  0  0  0  0  0  0  0  0  0
   -0.3468   -7.4211   -0.7477 H   0  0  0  0  0  0  0  0  0  0  0  0
   -1.5398   -4.0102    1.4295 H   0  0  0  0  0  0  0  0  0  0  0  0
   -4.4423   -5.9526   -1.4744 H   0  0  0  0  0  0  0  0  0  0  0  0
    0.7012   -1.6979   -0.1930 H   0  0  0  0  0  0  0  0  0  0  0  0
    0.1985   -0.1720   -2.0875 H   0  0  0  0  0  0  0  0  0  0  0  0
    0.4181   -3.9374   -2.3022 H   0  0  0  0  0  0  0  0  0  0  0  0
   -1.9846   -1.5440   -2.8641 H   0  0  0  0  0  0  0  0  0  0  0  0
    1.3280   -4.7347   -0.1614 H   0  0  0  0  0  0  0  0  0  0  0  0
    0.1429   -3.8006    0.7160 H   0  0  0  0  0  0  0  0  0  0  0  0
   -2.3061   -2.1374    0.6733 H   0  0  0  0  0  0  0  0  0  0  0  0
   -1.0409   -7.8120   -2.8017 H   0  0  0  0  0  0  0  0  0  0  0  0
   -1.4426   -8.9166    0.2891 H   0  0  0  0  0  0  0  0  0  0  0  0
   -2.3640  -10.4048    0.1365 H   0  0  0  0  0  0  0  0  0  0  0  0
   -0.4622  -11.6922   -0.6073 H   0  0  0  0  0  0  0  0  0  0  0  0
    0.2540  -11.0206   -1.9901 H   0  0  0  0  0  0  0  0  0  0  0  0
    0.4840  -10.2122   -0.3925 H   0  0  0  0  0  0  0  0  0  0  0  0
   -2.2322  -11.7807   -2.0969 H   0  0  0  0  0  0  0  0  0  0  0  0
   -3.0319  -10.4646   -2.8939 H   0  0  0  0  0  0  0  0  0  0  0  0
   -1.4886  -11.0594   -3.5134 H   0  0  0  0  0  0  0  0  0  0  0  0
   -1.7265    3.4486   -2.4924 H   0  0  0  0  0  0  0  0  0  0  0  0
    3.2559   -9.4043   -2.4488 H   0  0  0  0  0  0  0  0  0  0  0  0
    1.8453   -9.4446   -1.4613 H   0  0  0  0  0  0  0  0  0  0  0  0
    2.7195  -11.7225   -1.5236 H   0  0  0  0  0  0  0  0  0  0  0  0
    1.4185  -11.9774   -2.6245 H   0  0  0  0  0  0  0  0  0  0  0  0
    0.8346  -11.9632   -5.9279 H   0  0  0  0  0  0  0  0  0  0  0  0
    0.6741  -11.0234   -4.5636 H   0  0  0  0  0  0  0  0  0  0  0  0
    0.6013   -9.4374   -6.5599 H   0  0  0  0  0  0  0  0  0  0  0  0
    2.1518   -9.0865   -5.8530 H   0  0  0  0  0  0  0  0  0  0  0  0
    2.5434   -9.1809   -8.0399 H   0  0  0  0  0  0  0  0  0  0  0  0
    3.3168  -10.6119   -7.3134 H   0  0  0  0  0  0  0  0  0  0  0  0
  1  5  1  0  0  0  0
  1  8  1  0  0  0  0
  1  9  1  0  0  0  0
  1 12  2  0  0  0  0
  2  7  1  0  0  0  0
  2 10  1  0  0  0  0
  2 14  1  0  0  0  0
  2 15  2  0  0  0  0
  3 10  1  0  0  0  0
  3 11  1  0  0  0  0
  3 16  1  0  0  0  0
  3 18  2  0  0  0  0
  4 32  1  0  0  0  0
  4 33  1  0  0  0  0
  6 56  1  0  0  0  0
  7 34  1  0  0  0  0
  8 57  1  0  0  0  0
  9 58  1  0  0  0  0
 11 40  1  0  0  0  0
 13 59  1  0  0  0  0
 14 60  1  0  0  0  0
 16 61  1  0  0  0  0
 17 44  2  0  0  0  0
 19 48  2  0  0  0  0
 20 29  1  0  0  0  0
 21 29  2  0  0  0  0
 22 35  1  0  0  0  0
 22 36  1  0  0  0  0
 23 36  2  0  0  0  0
 23 37  1  0  0  0  0
 24 35  2  0  0  0  0
 24 45  1  0  0  0  0
 25 43  1  0  0  0  0
 25 45  2  0  0  0  0
 26 43  1  0  0  0  0
 26 53  1  0  0  0  0
 26 54  1  0  0  0  0
 27 44  1  0  0  0  0
 27 46  1  0  0  0  0
 27 52  1  0  0  0  0
 28 48  1  0  0  0  0
 28 49  1  0  0  0  0
 28 55  1  0  0  0  0
 29 51  1  0  0  0  0
 30 31  1  0  0  0  0
 30 32  1  0  0  0  0
 30 62  1  1  0  0  0
 30  5  1  0  0  0  0
 31  6  1  0  0  0  0
 31 33  1  0  0  0  0
 31 63  1  1  0  0  0
 32 34  1  0  0  0  0
 32 64  1  6  0  0  0
 33 22  1  0  0  0  0
 33 65  1  6  0  0  0
 34 66  1  0  0  0  0
 34 67  1  0  0  0  0
 35 37  1  0  0  0  0
 36 68  1  0  0  0  0
 37 43  2  0  0  0  0
 38 39  1  0  0  0  0
 38 40  1  0  0  0  0
 38 41  1  0  0  0  0
 38 42  1  0  0  0  0
 39 13  1  0  0  0  0
 39 44  1  0  0  0  0
 39 69  1  6  0  0  0
 40 70  1  0  0  0  0
 40 71  1  0  0  0  0
 41 72  1  0  0  0  0
 41 73  1  0  0  0  0
 41 74  1  0  0  0  0
 42 75  1  0  0  0  0
 42 76  1  0  0  0  0
 42 77  1  0  0  0  0
 45 78  1  0  0  0  0
 46 47  1  0  0  0  0
 46 79  1  0  0  0  0
 46 80  1  0  0  0  0
 47 48  1  0  0  0  0
 47 81  1  0  0  0  0
 47 82  1  0  0  0  0
 49 50  1  0  0  0  0
 49 83  1  0  0  0  0
 49 84  1  0  0  0  0
 50 51  1  0  0  0  0
 50 85  1  0  0  0  0
 50 86  1  0  0  0  0
 51 87  1  0  0  0  0
 51 88  1  0  0  0  0
M  CHG  2  20  -1  29   1
M  END
>  <DRUGBANK_ID>
DB04230

>  <SECONDARY_ACCESSION_NUMBERS>
EXPT02369

>  <COMMON_NAME>
Nitromethyldethia coenzyme A

$$$$
