
 OpenBabel10282417213D

 53 57  0  0  0  0  0  0  0  0999 V2000
    0.2648   -0.7424   -0.2554 C   0  0  0  0  0  0  0  0  0  0  0  0
    1.6033   -1.0739   -0.0500 N   0  0  0  0  0  0  0  0  0  0  0  0
    0.2891    0.6512   -0.0611 C   0  0  0  0  0  0  0  0  0  0  0  0
   -0.9836   -1.4299   -0.4411 C   0  0  0  0  0  0  0  0  0  0  0  0
    2.3402    0.0839    0.0148 C   0  0  0  0  0  0  0  0  0  0  0  0
    2.2226   -2.3734    0.1650 C   0  0  0  0  0  0  0  0  0  0  0  0
    1.5685    1.1372    0.0721 N   0  0  0  0  0  0  0  0  0  0  0  0
   -0.9119    1.3788   -0.0190 C   0  0  0  0  0  0  0  0  0  0  0  0
   -2.1511   -0.6799   -0.1967 C   0  0  0  0  0  0  0  0  0  0  0  0
   -1.2333   -2.8943   -0.6319 C   0  0  0  0  0  0  0  0  0  0  0  0
    3.6737    0.0593    0.0039 O   0  0  0  0  0  0  0  0  0  0  0  0
    1.7181   -3.0745    1.4209 C   0  0  0  0  0  0  0  0  0  0  0  0
   -2.1259    0.6965   -0.0334 C   0  0  0  0  0  0  0  0  0  0  0  0
   -0.2010   -3.5798   -1.1262 O   0  0  0  0  0  0  0  0  0  0  0  0
   -2.2925   -3.4421   -0.3055 O   0  0  0  0  0  0  0  0  0  0  0  0
    4.3516    1.3138    0.0003 C   0  0  0  0  0  0  0  0  0  0  0  0
    0.3813   -2.9977    1.8277 C   0  0  0  0  0  0  0  0  0  0  0  0
    2.5231   -3.9070    2.1886 C   0  0  0  0  0  0  0  0  0  0  0  0
    4.0931    2.1169   -1.2643 C   0  0  0  0  0  0  0  0  0  0  0  0
   -0.2095   -3.7486    2.8064 C   0  0  0  0  0  0  0  0  0  0  0  0
    1.9628   -4.6234    3.2653 C   0  0  0  0  0  0  0  0  0  0  0  0
    0.5948   -4.5283    3.5889 C   0  0  0  0  0  0  0  0  0  0  0  0
    0.0022   -5.0587    4.8059 C   0  0  0  0  0  0  0  0  0  0  0  0
   -1.1479   -5.8829    4.8168 C   0  0  0  0  0  0  0  0  0  0  0  0
    0.5294   -4.5807    6.0150 C   0  0  0  0  0  0  0  0  0  0  0  0
   -1.7769   -6.3439    3.5799 C   0  0  0  0  0  0  0  0  0  0  0  0
   -1.6839   -6.2643    6.0493 C   0  0  0  0  0  0  0  0  0  0  0  0
    0.0769   -5.0810    7.2217 C   0  0  0  0  0  0  0  0  0  0  0  0
   -1.1248   -7.0718    2.6219 N   0  0  0  0  0  0  0  0  0  0  0  0
   -2.9950   -6.1114    3.1301 N   0  0  0  0  0  0  0  0  0  0  0  0
   -1.0204   -5.9356    7.2363 C   0  0  0  0  0  0  0  0  0  0  0  0
   -1.9205   -7.2853    1.5686 N   0  0  0  0  0  0  0  0  0  0  0  0
   -3.0601   -6.6825    1.8765 N   0  0  0  0  0  0  0  0  0  0  0  0
    2.0505   -2.9357   -0.7569 H   0  0  0  0  0  0  0  0  0  0  0  0
    3.3132   -2.2624    0.2072 H   0  0  0  0  0  0  0  0  0  0  0  0
   -0.8913    2.4598    0.0712 H   0  0  0  0  0  0  0  0  0  0  0  0
   -3.1110   -1.1955   -0.1207 H   0  0  0  0  0  0  0  0  0  0  0  0
   -3.0625    1.2369    0.0709 H   0  0  0  0  0  0  0  0  0  0  0  0
    0.3721   -3.8434   -0.3825 H   0  0  0  0  0  0  0  0  0  0  0  0
    4.1202    1.8783    0.9099 H   0  0  0  0  0  0  0  0  0  0  0  0
    5.4249    1.0826    0.0391 H   0  0  0  0  0  0  0  0  0  0  0  0
   -0.3369   -2.3234    1.4293 H   0  0  0  0  0  0  0  0  0  0  0  0
    3.5921   -3.9768    1.9981 H   0  0  0  0  0  0  0  0  0  0  0  0
    3.0385    2.3836   -1.3641 H   0  0  0  0  0  0  0  0  0  0  0  0
    4.6699    3.0449   -1.2593 H   0  0  0  0  0  0  0  0  0  0  0  0
    4.3548    1.5315   -2.1513 H   0  0  0  0  0  0  0  0  0  0  0  0
   -1.2836   -3.6417    2.9685 H   0  0  0  0  0  0  0  0  0  0  0  0
    2.6071   -5.2520    3.8742 H   0  0  0  0  0  0  0  0  0  0  0  0
    1.2891   -3.7985    6.0036 H   0  0  0  0  0  0  0  0  0  0  0  0
   -2.6066   -6.8394    6.0923 H   0  0  0  0  0  0  0  0  0  0  0  0
    0.5746   -4.7877    8.1407 H   0  0  0  0  0  0  0  0  0  0  0  0
   -0.1751   -7.4167    2.6162 H   0  0  0  0  0  0  0  0  0  0  0  0
   -1.3710   -6.3346    8.1830 H   0  0  0  0  0  0  0  0  0  0  0  0
  1  2  1  0  0  0  0
  1  3  2  0  0  0  0
  1  4  1  0  0  0  0
  2  5  1  0  0  0  0
  2  6  1  0  0  0  0
  3  7  1  0  0  0  0
  3  8  1  0  0  0  0
  4  9  2  0  0  0  0
  4 10  1  0  0  0  0
  5 11  1  0  0  0  0
  5  7  2  0  0  0  0
  6 12  1  0  0  0  0
  6 34  1  0  0  0  0
  6 35  1  0  0  0  0
  8 13  2  0  0  0  0
  8 36  1  0  0  0  0
  9 13  1  0  0  0  0
  9 37  1  0  0  0  0
 10 14  1  0  0  0  0
 10 15  2  0  0  0  0
 11 16  1  0  0  0  0
 12 17  1  0  0  0  0
 12 18  2  0  0  0  0
 13 38  1  0  0  0  0
 14 39  1  0  0  0  0
 16 19  1  0  0  0  0
 16 40  1  0  0  0  0
 16 41  1  0  0  0  0
 17 20  2  0  0  0  0
 17 42  1  0  0  0  0
 18 21  1  0  0  0  0
 18 43  1  0  0  0  0
 19 44  1  0  0  0  0
 19 45  1  0  0  0  0
 19 46  1  0  0  0  0
 20 22  1  0  0  0  0
 20 47  1  0  0  0  0
 21 22  2  0  0  0  0
 21 48  1  0  0  0  0
 22 23  1  0  0  0  0
 23 24  1  0  0  0  0
 23 25  2  0  0  0  0
 24 26  1  0  0  0  0
 24 27  2  0  0  0  0
 25 28  1  0  0  0  0
 25 49  1  0  0  0  0
 26 29  1  0  0  0  0
 26 30  2  0  0  0  0
 27 31  1  0  0  0  0
 27 50  1  0  0  0  0
 28 31  2  0  0  0  0
 28 51  1  0  0  0  0
 29 32  1  0  0  0  0
 29 52  1  0  0  0  0
 30 33  1  0  0  0  0
 31 53  1  0  0  0  0
 32 33  2  0  0  0  0
M  END
>  <DRUGBANK_ID>
DB13919

>  <COMMON_NAME>
Candesartan

>  <CAS_NUMBER>
139481-59-7

>  <UNII>
S8Q36MD2XX

>  <SYNONYMS>
2-ethoxy-1-(p-(o-1H-tetrazol-5-ylphenyl)benzyl)-7-benzimidazolecarboxylic acid; Candesartan

$$$$
