
 OpenBabel10282417243D

214214  0  0  1  0  0  0  0  0999 V2000
    4.0155   -9.9048   -8.7146 H   0  0  0  0  0  0  0  0  0  0  0  0
    3.7547  -12.0435  -10.4066 C   0  0  2  0  0  0  0  0  0  0  0  0
    3.9020   -7.9107   -6.8609 C   0  0  2  0  0  0  0  0  0  0  0  0
    3.6094   -5.1346   -3.8346 O   0  0  0  0  0  0  0  0  0  0  0  0
    3.9295   -3.8992   -4.1711 C   0  0  2  0  0  0  0  0  0  0  0  0
    2.9424   -1.0001   -2.1189 C   0  0  0  0  0  0  0  0  0  0  0  0
    4.4365   -0.6129   -3.0421 C   0  0  0  0  0  0  0  0  0  0  0  0
    4.0000    1.2299   -3.6151 C   0  0  0  0  0  0  0  0  0  0  0  0
    4.5088    2.4752   -2.8993 C   0  0  0  0  0  0  0  0  0  0  0  0
    6.0270    2.4773   -2.9006 C   0  0  0  0  0  0  0  0  0  0  0  0
    6.5343    2.4769   -4.3319 C   0  0  0  0  0  0  0  0  0  0  0  0
    6.0300    3.7160   -5.0496 C   0  0  0  0  0  0  0  0  0  0  0  0
    6.5204    4.9207   -4.3616 N   0  0  0  0  0  0  0  0  0  0  0  0
    7.3619    5.8792   -5.0790 C   0  0  0  0  0  0  0  0  0  0  0  0
    7.8681    7.1227   -4.3605 C   0  0  0  0  0  0  0  0  0  0  0  0
    7.6690    5.6812   -6.2874 O   0  0  0  0  0  0  0  0  0  0  0  0
    3.6083  -16.5751  -14.5280 N   0  0  0  0  0  0  0  0  0  0  0  0
    3.4864  -20.3427  -17.8061 C   0  0  0  0  0  0  0  0  0  0  0  0
    3.3336  -19.7178  -17.5972 C   0  0  0  0  0  0  0  0  0  0  0  0
    3.7924  -21.5777  -19.6970 O   0  0  0  0  0  0  0  0  0  0  0  0
    2.5063  -23.0210  -20.5685 C   0  0  2  0  0  0  0  0  0  0  0  0
    1.9847  -24.9216  -23.0773 C   0  0  0  0  0  0  0  0  0  0  0  0
    2.0008  -24.1515  -22.1202 C   0  0  0  0  0  0  0  0  0  0  0  0
    2.3501  -24.2630  -24.4361 C   0  0  0  0  0  0  0  0  0  0  0  0
    3.6052  -25.8382  -21.5124 N   0  0  0  0  0  0  0  0  0  0  0  0
    4.5504  -27.2688  -21.4648 C   0  0  0  0  0  0  0  0  0  0  0  0
    3.5258  -25.2020  -20.6315 C   0  0  0  0  0  0  0  0  0  0  0  0
    2.7792  -24.1085  -19.9861 O   0  0  0  0  0  0  0  0  0  0  0  0
    4.2623  -24.9617  -19.6268 C   0  0  2  0  0  0  0  0  0  0  0  0
    3.3010  -24.9000  -18.4531 C   0  0  0  0  0  0  0  0  0  0  0  0
    3.9263  -25.5995  -17.2649 C   0  0  0  0  0  0  0  0  0  0  0  0
    5.2346  -24.9200  -16.9016 C   0  0  0  0  0  0  0  0  0  0  0  0
    2.9776  -25.5384  -16.0825 C   0  0  0  0  0  0  0  0  0  0  0  0
    5.0997  -23.7482  -19.6531 N   0  0  0  0  0  0  0  0  0  0  0  0
    6.0963  -23.5708  -20.7138 C   0  0  0  0  0  0  0  0  0  0  0  0
    4.9283  -22.7287  -18.6171 C   0  0  0  0  0  0  0  0  0  0  0  0
    4.0598  -22.8606  -17.7074 O   0  0  0  0  0  0  0  0  0  0  0  0
    5.7898  -21.4701  -18.6432 C   0  0  2  0  0  0  0  0  0  0  0  0
    6.5873  -21.3947  -17.3580 C   0  0  0  0  0  0  0  0  0  0  0  0
    6.5504  -20.1939  -16.7127 C   0  0  0  0  0  0  0  0  0  0  0  0
    4.7448  -19.9483  -16.3017 C   0  0  0  0  0  0  0  0  0  0  0  0
    7.1939  -19.9390  -15.4310 C   0  0  0  0  0  0  0  0  0  0  0  0
    4.9801  -20.2621  -18.7845 N   0  0  0  0  0  0  0  0  0  0  0  0
    4.0679  -20.0966  -19.9673 C   0  0  0  0  0  0  0  0  0  0  0  0
    5.0416  -19.1346  -17.8286 C   0  0  0  0  0  0  0  0  0  0  0  0
    5.7163  -19.0763  -16.7925 O   0  0  0  0  0  0  0  0  0  0  0  0
    4.0603  -18.0095  -17.8551 C   0  0  1  0  0  0  0  0  0  0  0  0
    3.2611  -18.0948  -19.1313 C   0  0  0  0  0  0  0  0  0  0  0  0
    3.1098  -17.9473  -16.7214 N   0  0  0  0  0  0  0  0  0  0  0  0
    3.0566  -16.7154  -15.9323 C   0  0  0  0  0  0  0  0  0  0  0  0
    3.9895  -15.8420  -16.0178 O   0  0  0  0  0  0  0  0  0  0  0  0
    2.1734  -16.7366  -14.6091 C   0  0  2  0  0  0  0  0  0  0  0  0
    1.3319  -15.5141  -14.7408 C   0  0  0  0  0  0  0  0  0  0  0  0
    2.9660  -16.6573  -13.3115 N   0  0  0  0  0  0  0  0  0  0  0  0
    2.8281  -15.5048  -12.4733 C   0  0  0  0  0  0  0  0  0  0  0  0
    2.0380  -14.5672  -12.7446 O   0  0  0  0  0  0  0  0  0  0  0  0
    3.6303  -15.4218  -11.1827 C   0  0  2  0  0  0  0  0  0  0  0  0
    2.6791  -15.3642   -9.9990 C   0  0  0  0  0  0  0  0  0  0  0  0
    3.3057  -16.0660   -8.8062 C   0  0  0  0  0  0  0  0  0  0  0  0
    4.6111  -15.3916   -8.4433 C   0  0  0  0  0  0  0  0  0  0  0  0
    2.3570  -16.0047   -7.6237 C   0  0  0  0  0  0  0  0  0  0  0  0
    4.4698  -14.2123  -11.2002 N   0  0  0  0  0  0  0  0  0  0  0  0
    5.4740  -14.0372  -12.2556 C   0  0  0  0  0  0  0  0  0  0  0  0
    4.3441  -13.3139  -10.1477 C   0  0  0  0  0  0  0  0  0  0  0  0
    3.4325  -13.3334   -9.2483 O   0  0  0  0  0  0  0  0  0  0  0  0
    5.2914  -11.9510  -10.1948 C   0  0  1  0  0  0  0  0  0  0  0  0
    4.3609  -10.5615  -10.4679 N   0  0  0  0  0  0  0  0  0  0  0  0
    4.3878   -9.4452   -9.5471 C   0  0  0  0  0  0  0  0  0  0  0  0
    5.0404   -9.8021   -8.5134 O   0  0  0  0  0  0  0  0  0  0  0  0
    3.4266   -8.4696   -9.3960 C   0  0  2  0  0  0  0  0  0  0  0  0
    4.3114   -7.2445   -9.4080 C   0  0  0  0  0  0  0  0  0  0  0  0
    4.9867   -7.3975   -8.0639 C   0  0  0  0  0  0  0  0  0  0  0  0
    5.3060   -8.7321   -7.6380 C   0  0  0  0  0  0  0  0  0  0  0  0
    6.3325   -6.7477   -8.0574 C   0  0  0  0  0  0  0  0  0  0  0  0
    2.5101   -8.4228   -8.2463 N   0  0  0  0  0  0  0  0  0  0  0  0
    1.5775   -9.5271   -8.0090 C   0  0  0  0  0  0  0  0  0  0  0  0
    2.5246   -7.2566   -7.3524 C   0  0  0  0  0  0  0  0  0  0  0  0
    3.3166   -6.2886   -7.5556 O   0  0  0  0  0  0  0  0  0  0  0  0
    1.5946   -7.2082   -6.1519 C   0  0  1  0  0  0  0  0  0  0  0  0
    0.7301   -8.4502   -6.1267 C   0  0  0  0  0  0  0  0  0  0  0  0
    2.2992   -7.1435   -4.9046 N   0  0  0  0  0  0  0  0  0  0  0  0
    3.2863   -8.2525   -4.5140 C   0  0  0  0  0  0  0  0  0  0  0  0
    2.1660   -5.9718   -4.0158 C   0  0  0  0  0  0  0  0  0  0  0  0
    1.3986   -5.0426   -4.3179 O   0  0  0  0  0  0  0  0  0  0  0  0
    2.8984   -6.1240   -2.6739 C   0  0  2  0  0  0  0  0  0  0  0  0
    2.0555   -5.8293   -1.5372 C   0  0  0  0  0  0  0  0  0  0  0  0
    2.6844   -6.5323   -0.3491 C   0  0  0  0  0  0  0  0  0  0  0  0
    3.8236   -6.6612   -4.7457 N   0  0  0  0  0  0  0  0  0  0  0  0
    3.7164   -9.0332   -7.1838 C   0  0  0  0  0  0  0  0  0  0  0  0
    3.6658   -7.1468   -5.1879 O   0  0  0  0  0  0  0  0  0  0  0  0
    5.9704  -11.8638   -8.8967 C   0  0  0  0  0  0  0  0  0  0  0  0
    5.9543  -10.6942   -8.2412 C   0  0  0  0  0  0  0  0  0  0  0  0
    5.4919  -12.9225   -7.9314 C   0  0  0  0  0  0  0  0  0  0  0  0
    4.5648   -5.5022   -4.7158 H   0  0  0  0  0  0  0  0  0  0  0  0
    3.1819   -3.2256   -1.6911 H   0  0  0  0  0  0  0  0  0  0  0  0
    4.1950   -1.2235   -2.2805 H   0  0  0  0  0  0  0  0  0  0  0  0
    2.1285    0.6483   -2.2278 H   0  0  0  0  0  0  0  0  0  0  0  0
    2.1086   -1.0065   -1.6528 H   0  0  0  0  0  0  0  0  0  0  0  0
    2.1394    0.3030   -0.5303 H   0  0  0  0  0  0  0  0  0  0  0  0
    5.5785   -0.0105   -2.8972 H   0  0  0  0  0  0  0  0  0  0  0  0
    4.1357   -0.8851   -3.4279 H   0  0  0  0  0  0  0  0  0  0  0  0
    4.3570    1.2332   -4.6245 H   0  0  0  0  0  0  0  0  0  0  0  0
    2.9305    1.2359   -3.6159 H   0  0  0  0  0  0  0  0  0  0  0  0
    4.1498    3.3512   -3.4046 H   0  0  0  0  0  0  0  0  0  0  0  0
    4.1506    2.4791   -1.8893 H   0  0  0  0  0  0  0  0  0  0  0  0
    6.3851    3.3522   -2.3949 H   0  0  0  0  0  0  0  0  0  0  0  0
    6.3858    1.6040   -2.3926 H   0  0  0  0  0  0  0  0  0  0  0  0
    7.6061    2.4749   -4.3325 H   0  0  0  0  0  0  0  0  0  0  0  0
    6.1788    1.5997   -4.8368 H   0  0  0  0  0  0  0  0  0  0  0  0
    6.3847    3.7137   -6.0610 H   0  0  0  0  0  0  0  0  0  0  0  0
    4.9568    3.7162   -5.0519 H   0  0  0  0  0  0  0  0  0  0  0  0
    6.2716    5.0797   -3.3842 H   0  0  0  0  0  0  0  0  0  0  0  0
    8.9410    7.1250   -4.3605 H   0  0  0  0  0  0  0  0  0  0  0  0
    7.5124    7.9991   -4.8669 H   0  0  0  0  0  0  0  0  0  0  0  0
    7.5125    7.1267   -3.3504 H   0  0  0  0  0  0  0  0  0  0  0  0
    3.4565  -23.0364  -20.1465 H   0  0  0  0  0  0  0  0  0  0  0  0
    3.4023  -22.9833  -20.2001 H   0  0  0  0  0  0  0  0  0  0  0  0
    3.5158  -22.9850  -20.1742 H   0  0  0  0  0  0  0  0  0  0  0  0
    2.2652  -25.7495  -22.2674 H   0  0  0  0  0  0  0  0  0  0  0  0
    0.9276  -25.3440  -23.2769 H   0  0  0  0  0  0  0  0  0  0  0  0
    3.2180  -23.7959  -22.0610 H   0  0  0  0  0  0  0  0  0  0  0  0
    1.4882  -23.2807  -22.0737 H   0  0  0  0  0  0  0  0  0  0  0  0
    1.7444  -24.8004  -20.9708 H   0  0  0  0  0  0  0  0  0  0  0  0
    2.2260  -24.8817  -25.3042 H   0  0  0  0  0  0  0  0  0  0  0  0
    1.7306  -23.3945  -24.5273 H   0  0  0  0  0  0  0  0  0  0  0  0
    3.3759  -23.9633  -24.3594 H   0  0  0  0  0  0  0  0  0  0  0  0
    5.5400  -26.8691  -21.3832 H   0  0  0  0  0  0  0  0  0  0  0  0
    4.2589  -27.7055  -20.5344 H   0  0  0  0  0  0  0  0  0  0  0  0
    4.5347  -28.0215  -22.2330 H   0  0  0  0  0  0  0  0  0  0  0  0
    4.8765  -25.8215  -19.5505 H   0  0  0  0  0  0  0  0  0  0  0  0
    3.0983  -23.8807  -18.2076 H   0  0  0  0  0  0  0  0  0  0  0  0
    2.3766  -25.3756  -18.7113 H   0  0  0  0  0  0  0  0  0  0  0  0
    4.1166  -26.6246  -17.5179 H   0  0  0  0  0  0  0  0  0  0  0  0
    5.0480  -23.8962  -16.6472 H   0  0  0  0  0  0  0  0  0  0  0  0
    5.6776  -25.4156  -16.0634 H   0  0  0  0  0  0  0  0  0  0  0  0
    5.9058  -24.9617  -17.7366 H   0  0  0  0  0  0  0  0  0  0  0  0
    2.0542  -26.0196  -16.3370 H   0  0  0  0  0  0  0  0  0  0  0  0
    3.4185  -26.0364  -15.2419 H   0  0  0  0  0  0  0  0  0  0  0  0
    2.7865  -24.5142  -15.8287 H   0  0  0  0  0  0  0  0  0  0  0  0
    5.8804  -22.6781  -21.2689 H   0  0  0  0  0  0  0  0  0  0  0  0
    7.0677  -23.4862  -20.2708 H   0  0  0  0  0  0  0  0  0  0  0  0
    6.0765  -24.4134  -21.3746 H   0  0  0  0  0  0  0  0  0  0  0  0
    6.4555  -21.5130  -19.4785 H   0  0  0  0  0  0  0  0  0  0  0  0
    6.2487  -22.1452  -16.6760 H   0  0  0  0  0  0  0  0  0  0  0  0
    7.6244  -21.5378  -17.5690 H   0  0  0  0  0  0  0  0  0  0  0  0
    6.7756  -19.2674  -17.4264 H   0  0  0  0  0  0  0  0  0  0  0  0
    4.5728  -20.5763  -15.7298 H   0  0  0  0  0  0  0  0  0  0  0  0
    4.7710  -18.8489  -15.9325 H   0  0  0  0  0  0  0  0  0  0  0  0
    4.3306  -19.9607  -17.2173 H   0  0  0  0  0  0  0  0  0  0  0  0
    8.2290  -20.0849  -15.6468 H   0  0  0  0  0  0  0  0  0  0  0  0
    7.0515  -18.9708  -14.9888 H   0  0  0  0  0  0  0  0  0  0  0  0
    6.8524  -20.6932  -14.7546 H   0  0  0  0  0  0  0  0  0  0  0  0
    3.0283  -20.0682  -19.6318 H   0  0  0  0  0  0  0  0  0  0  0  0
    4.3191  -19.2394  -20.4684 H   0  0  0  0  0  0  0  0  0  0  0  0
    4.1823  -20.9297  -20.6132 H   0  0  0  0  0  0  0  0  0  0  0  0
    4.6734  -17.1402  -17.8596 H   0  0  0  0  0  0  0  0  0  0  0  0
    2.6378  -17.2375  -19.2236 H   0  0  0  0  0  0  0  0  0  0  0  0
    3.9283  -18.1322  -19.9638 H   0  0  0  0  0  0  0  0  0  0  0  0
    2.6437  -18.9677  -19.1155 H   0  0  0  0  0  0  0  0  0  0  0  0
    2.4850  -18.7211  -16.5320 H   0  0  0  0  0  0  0  0  0  0  0  0
    1.6076  -17.6216  -14.5967 H   0  0  0  0  0  0  0  0  0  0  0  0
    1.4413  -14.9006  -13.9013 H   0  0  0  0  0  0  0  0  0  0  0  0
    1.6123  -14.9601  -15.6128 H   0  0  0  0  0  0  0  0  0  0  0  0
    0.3073  -15.8113  -14.8173 H   0  0  0  0  0  0  0  0  0  0  0  0
    3.6427  -17.4063  -13.1204 H   0  0  0  0  0  0  0  0  0  0  0  0
    4.2552  -16.2883  -11.0932 H   0  0  0  0  0  0  0  0  0  0  0  0
    2.4774  -14.3469   -9.7504 H   0  0  0  0  0  0  0  0  0  0  0  0
    1.7564  -15.8414  -10.2534 H   0  0  0  0  0  0  0  0  0  0  0  0
    3.4960  -17.0910   -9.0591 H   0  0  0  0  0  0  0  0  0  0  0  0
    4.4145  -14.3722   -8.1881 H   0  0  0  0  0  0  0  0  0  0  0  0
    5.0570  -15.8822   -7.6046 H   0  0  0  0  0  0  0  0  0  0  0  0
    5.2850  -15.4291   -9.2784 H   0  0  0  0  0  0  0  0  0  0  0  0
    1.4336  -16.4860   -7.8782 H   0  0  0  0  0  0  0  0  0  0  0  0
    2.7979  -16.5028   -6.7831 H   0  0  0  0  0  0  0  0  0  0  0  0
    2.1660  -14.9806   -7.3699 H   0  0  0  0  0  0  0  0  0  0  0  0
    5.2584  -13.1445  -12.8100 H   0  0  0  0  0  0  0  0  0  0  0  0
    6.4471  -13.9526  -11.8121 H   0  0  0  0  0  0  0  0  0  0  0  0
    5.4556  -14.8797  -12.9159 H   0  0  0  0  0  0  0  0  0  0  0  0
    5.8391  -11.9798  -11.0234 H   0  0  0  0  0  0  0  0  0  0  0  0
    3.6922  -10.6332  -11.1291 H   0  0  0  0  0  0  0  0  0  0  0  0
    2.8768   -8.5453  -10.2953 H   0  0  0  0  0  0  0  0  0  0  0  0
    4.9229   -7.6901  -10.1602 H   0  0  0  0  0  0  0  0  0  0  0  0
    4.1960   -6.1955   -9.6218 H   0  0  0  0  0  0  0  0  0  0  0  0
    4.4166   -6.9340   -7.3404 H   0  0  0  0  0  0  0  0  0  0  0  0
    5.8586   -9.0781   -8.4279 H   0  0  0  0  0  0  0  0  0  0  0  0
    5.5912   -9.0110   -6.7722 H   0  0  0  0  0  0  0  0  0  0  0  0
    4.0536   -9.6420   -7.6071 H   0  0  0  0  0  0  0  0  0  0  0  0
    6.2236   -5.7043   -8.2713 H   0  0  0  0  0  0  0  0  0  0  0  0
    6.7964   -6.8691   -7.0983 H   0  0  0  0  0  0  0  0  0  0  0  0
    6.9454   -7.2045   -8.8090 H   0  0  0  0  0  0  0  0  0  0  0  0
    1.7669   -9.9633   -7.0501 H   0  0  0  0  0  0  0  0  0  0  0  0
    0.5773   -9.1540   -8.0492 H   0  0  0  0  0  0  0  0  0  0  0  0
    1.6982  -10.2754   -8.7566 H   0  0  0  0  0  0  0  0  0  0  0  0
    0.9738   -6.3407   -6.2420 H   0  0  0  0  0  0  0  0  0  0  0  0
    0.0612   -8.4121   -5.2978 H   0  0  0  0  0  0  0  0  0  0  0  0
    0.1609   -8.5055   -7.0286 H   0  0  0  0  0  0  0  0  0  0  0  0
    1.3507   -9.3151   -6.0293 H   0  0  0  0  0  0  0  0  0  0  0  0
    4.3177   -7.8318   -4.4446 H   0  0  0  0  0  0  0  0  0  0  0  0
    3.0164   -8.6391   -3.6146 H   0  0  0  0  0  0  0  0  0  0  0  0
    3.2878   -8.9669   -5.3012 H   0  0  0  0  0  0  0  0  0  0  0  0
    3.6379   -6.7641   -2.6248 H   0  0  0  0  0  0  0  0  0  0  0  0
    1.8654   -4.8040   -1.2868 H   0  0  0  0  0  0  0  0  0  0  0  0
    1.1354   -6.3076   -1.7938 H   0  0  0  0  0  0  0  0  0  0  0  0
    3.6080   -6.0519   -0.0920 H   0  0  0  0  0  0  0  0  0  0  0  0
    2.0160   -6.4893    0.4869 H   0  0  0  0  0  0  0  0  0  0  0  0
    2.8755   -7.5574   -0.6000 H   0  0  0  0  0  0  0  0  0  0  0  0
    4.3692   -4.9327   -3.4021 H   0  0  0  0  0  0  0  0  0  0  0  0
    7.0042  -12.0039   -9.1098 H   0  0  0  0  0  0  0  0  0  0  0  0
    4.5894  -10.6343   -7.9075 H   0  0  0  0  0  0  0  0  0  0  0  0
    6.3404  -10.4323   -7.3497 H   0  0  0  0  0  0  0  0  0  0  0  0
    6.2114   -9.8332   -9.0562 H   0  0  0  0  0  0  0  0  0  0  0  0
    5.6378  -13.8848   -8.3778 H   0  0  0  0  0  0  0  0  0  0  0  0
    6.0499  -12.8705   -7.0236 H   0  0  0  0  0  0  0  0  0  0  0  0
    4.4481  -12.7767   -7.7159 H   0  0  0  0  0  0  0  0  0  0  0  0
  2  1  1  1  0  0  0
  2 17  1  0  0  0  0
  2 89  1  0  0  0  0
  3 94  1  1  0  0  0
  3  4  1  0  0  0  0
  3  2  1  0  0  0  0
  4 95  1  0  0  0  0
  5  7  1  0  0  0  0
  5 96  1  1  0  0  0
  5  6  1  0  0  0  0
  5  3  1  0  0  0  0
  6 97  1  0  0  0  0
  6 98  1  0  0  0  0
  6 99  1  0  0  0  0
  7  8  1  0  0  0  0
  7100  1  0  0  0  0
  7101  1  0  0  0  0
  8  9  1  0  0  0  0
  8102  1  0  0  0  0
  8103  1  0  0  0  0
  9 10  1  0  0  0  0
  9104  1  0  0  0  0
  9105  1  0  0  0  0
 10 11  1  0  0  0  0
 10106  1  0  0  0  0
 10107  1  0  0  0  0
 11 12  1  0  0  0  0
 11108  1  0  0  0  0
 11109  1  0  0  0  0
 12 13  1  0  0  0  0
 12110  1  0  0  0  0
 12111  1  0  0  0  0
 13 14  1  0  0  0  0
 13112  1  0  0  0  0
 14 15  1  0  0  0  0
 14 16  2  0  0  0  0
 15113  1  0  0  0  0
 15114  1  0  0  0  0
 15115  1  0  0  0  0
 17 18  1  0  0  0  0
 17 19  1  0  0  0  0
 18116  1  0  0  0  0
 18117  1  0  0  0  0
 18118  1  0  0  0  0
 19 20  2  0  0  0  0
 21 19  1  0  0  0  0
 21 25  1  0  0  0  0
 21119  1  6  0  0  0
 21 22  1  0  0  0  0
 22 23  1  0  0  0  0
 22 24  1  0  0  0  0
 22120  1  0  0  0  0
 23121  1  0  0  0  0
 23122  1  0  0  0  0
 23123  1  0  0  0  0
 24124  1  0  0  0  0
 24125  1  0  0  0  0
 24126  1  0  0  0  0
 25 26  1  0  0  0  0
 25 27  1  0  0  0  0
 26127  1  0  0  0  0
 26128  1  0  0  0  0
 26129  1  0  0  0  0
 27 28  2  0  0  0  0
 29 27  1  0  0  0  0
 29 34  1  0  0  0  0
 29130  1  1  0  0  0
 29 30  1  0  0  0  0
 30 31  1  0  0  0  0
 30131  1  0  0  0  0
 30132  1  0  0  0  0
 31 32  1  0  0  0  0
 31 33  1  0  0  0  0
 31133  1  0  0  0  0
 32134  1  0  0  0  0
 32135  1  0  0  0  0
 32136  1  0  0  0  0
 33137  1  0  0  0  0
 33138  1  0  0  0  0
 33139  1  0  0  0  0
 34 35  1  0  0  0  0
 34 36  1  0  0  0  0
 35140  1  0  0  0  0
 35141  1  0  0  0  0
 35142  1  0  0  0  0
 36 37  2  0  0  0  0
 38 36  1  0  0  0  0
 38 43  1  0  0  0  0
 38143  1  6  0  0  0
 38 39  1  0  0  0  0
 39 40  1  0  0  0  0
 39144  1  0  0  0  0
 39145  1  0  0  0  0
 40 41  1  0  0  0  0
 40 42  1  0  0  0  0
 40146  1  0  0  0  0
 41147  1  0  0  0  0
 41148  1  0  0  0  0
 41149  1  0  0  0  0
 42150  1  0  0  0  0
 42151  1  0  0  0  0
 42152  1  0  0  0  0
 43 44  1  0  0  0  0
 43 45  1  0  0  0  0
 44153  1  0  0  0  0
 44154  1  0  0  0  0
 44155  1  0  0  0  0
 45 46  2  0  0  0  0
 47 45  1  0  0  0  0
 47 48  1  0  0  0  0
 47 49  1  0  0  0  0
 47156  1  6  0  0  0
 48157  1  0  0  0  0
 48158  1  0  0  0  0
 48159  1  0  0  0  0
 49 50  1  0  0  0  0
 49160  1  0  0  0  0
 50 51  2  0  0  0  0
 52 50  1  0  0  0  0
 52 54  1  0  0  0  0
 52161  1  1  0  0  0
 52 53  1  0  0  0  0
 53162  1  0  0  0  0
 53163  1  0  0  0  0
 53164  1  0  0  0  0
 54 55  1  0  0  0  0
 54165  1  0  0  0  0
 55 56  2  0  0  0  0
 57 55  1  0  0  0  0
 57 62  1  0  0  0  0
 57166  1  1  0  0  0
 57 58  1  0  0  0  0
 58 59  1  0  0  0  0
 58167  1  0  0  0  0
 58168  1  0  0  0  0
 59 60  1  0  0  0  0
 59 61  1  0  0  0  0
 59169  1  0  0  0  0
 60170  1  0  0  0  0
 60171  1  0  0  0  0
 60172  1  0  0  0  0
 61173  1  0  0  0  0
 61174  1  0  0  0  0
 61175  1  0  0  0  0
 62 63  1  0  0  0  0
 62 64  1  0  0  0  0
 63176  1  0  0  0  0
 63177  1  0  0  0  0
 63178  1  0  0  0  0
 64 65  2  0  0  0  0
 66 64  1  0  0  0  0
 66 67  1  0  0  0  0
 66179  1  6  0  0  0
 66 91  1  0  0  0  0
 67 68  1  0  0  0  0
 67180  1  0  0  0  0
 68 69  2  0  0  0  0
 70 68  1  0  0  0  0
 70 75  1  0  0  0  0
 70181  1  6  0  0  0
 70 71  1  0  0  0  0
 71 72  1  0  0  0  0
 71182  1  0  0  0  0
 71183  1  0  0  0  0
 72 73  1  0  0  0  0
 72 74  1  0  0  0  0
 72184  1  0  0  0  0
 73185  1  0  0  0  0
 73186  1  0  0  0  0
 73187  1  0  0  0  0
 74188  1  0  0  0  0
 74189  1  0  0  0  0
 74190  1  0  0  0  0
 75 76  1  0  0  0  0
 75 77  1  0  0  0  0
 76191  1  0  0  0  0
 76192  1  0  0  0  0
 76193  1  0  0  0  0
 77 78  2  0  0  0  0
 79 77  1  0  0  0  0
 79 80  1  0  0  0  0
 79 81  1  0  0  0  0
 79194  1  6  0  0  0
 80195  1  0  0  0  0
 80196  1  0  0  0  0
 80197  1  0  0  0  0
 81 82  1  0  0  0  0
 81 83  1  0  0  0  0
 82198  1  0  0  0  0
 82199  1  0  0  0  0
 82200  1  0  0  0  0
 83 84  2  0  0  0  0
 85 83  1  0  0  0  0
 85 88  1  0  0  0  0
 85201  1  1  0  0  0
 85 86  1  0  0  0  0
 86 87  1  0  0  0  0
 86202  1  0  0  0  0
 86203  1  0  0  0  0
 87204  1  0  0  0  0
 87205  1  0  0  0  0
 87206  1  0  0  0  0
 88 89  1  0  0  0  0
 88207  1  0  0  0  0
 89 90  2  0  0  0  0
 91 92  1  0  0  0  0
 91 93  1  0  0  0  0
 91208  1  0  0  0  0
 92209  1  0  0  0  0
 92210  1  0  0  0  0
 92211  1  0  0  0  0
 93212  1  0  0  0  0
 93213  1  0  0  0  0
 93214  1  0  0  0  0
M  END
>  <DRUGBANK_ID>
DB18246

>  <COMMON_NAME>
Rencofilstat

>  <CAS_NUMBER>
1383420-08-3

>  <UNII>
M3H4D91AY5

$$$$
