
 OpenBabel10282417133D

 20 20  0  0  1  0  0  0  0  0999 V2000
    1.0155   -0.0126    0.0478 C   0  0  0  0  0  0  0  0  0  0  0  0
    0.7880   -3.3141   -2.7665 C   0  0  0  0  0  0  0  0  0  0  0  0
   -0.3057   -2.5283   -3.4179 C   0  0  0  0  0  0  0  0  0  0  0  0
    1.0083   -0.5830   -2.4376 C   0  0  0  0  0  0  0  0  0  0  0  0
   -1.0001    0.4694   -1.3431 C   0  0  0  0  0  0  0  0  0  0  0  0
    0.5174    0.3926   -1.3410 C   0  0  1  0  0  0  0  0  0  0  0  0
    0.4175   -1.9557   -2.2262 C   0  0  0  0  0  0  0  0  0  0  0  0
   -1.6282    1.5150   -1.5156 O   0  0  0  0  0  0  0  0  0  0  0  0
    0.8917    1.4005   -1.5605 H   0  0  0  0  0  0  0  0  0  0  0  0
    0.6530   -0.9964    0.3625 H   0  0  0  0  0  0  0  0  0  0  0  0
    0.6705    0.6914    0.8106 H   0  0  0  0  0  0  0  0  0  0  0  0
    2.1093   -0.0431    0.0659 H   0  0  0  0  0  0  0  0  0  0  0  0
    0.4661   -4.1676   -2.1686 H   0  0  0  0  0  0  0  0  0  0  0  0
    1.7371   -3.4658   -3.2569 H   0  0  0  0  0  0  0  0  0  0  0  0
   -0.0872   -2.1663   -4.4184 H   0  0  0  0  0  0  0  0  0  0  0  0
   -1.3517   -2.7555   -3.2562 H   0  0  0  0  0  0  0  0  0  0  0  0
    0.6962   -0.1777   -3.4123 H   0  0  0  0  0  0  0  0  0  0  0  0
    2.1043   -0.6095   -2.4507 H   0  0  0  0  0  0  0  0  0  0  0  0
   -1.5427   -0.4738   -1.1638 H   0  0  0  0  0  0  0  0  0  0  0  0
    0.0407   -2.0837   -1.2213 H   0  0  0  0  0  0  0  0  0  0  0  0
  1 10  1  0  0  0  0
  1 11  1  0  0  0  0
  1 12  1  0  0  0  0
  2 13  1  0  0  0  0
  2 14  1  0  0  0  0
  3  2  1  0  0  0  0
  3 15  1  0  0  0  0
  3 16  1  0  0  0  0
  4 17  1  0  0  0  0
  4 18  1  0  0  0  0
  5 19  1  0  0  0  0
  6  1  1  0  0  0  0
  6  4  1  0  0  0  0
  6  5  1  0  0  0  0
  6  9  1  6  0  0  0
  7  2  1  0  0  0  0
  7  3  1  0  0  0  0
  7  4  1  0  0  0  0
  7 20  1  0  0  0  0
  8  5  2  0  0  0  0
M  END
>  <DRUGBANK_ID>
DB03736

>  <SECONDARY_ACCESSION_NUMBERS>
EXPT01002

>  <COMMON_NAME>
2-Cyclopropylmethylenepropanal

$$$$
