
 OpenBabel10282417153D

 63 65  0  0  1  0  0  0  0  0999 V2000
    0.8948   -0.0458   -0.0728 C   0  0  0  0  0  0  0  0  0  0  0  0
    0.2381   -0.4107    1.1779 N   0  0  0  0  0  0  0  0  0  0  0  0
   -0.6742    0.6611    1.6831 C   0  0  0  0  0  0  0  0  0  0  0  0
    0.6629   -1.6586    1.7507 C   0  0  0  0  0  0  0  0  0  0  0  0
    1.3769   -2.4100    1.0177 O   0  0  0  0  0  0  0  0  0  0  0  0
    0.4044   -2.2327    3.2988 C   0  0  0  0  0  0  0  0  0  0  0  0
    1.1860   -2.1892    4.5493 O   0  0  0  0  0  0  0  0  0  0  0  0
    2.4971   -1.7681    4.6538 C   0  0  0  0  0  0  0  0  0  0  0  0
    2.9938   -1.3145    5.8987 C   0  0  0  0  0  0  0  0  0  0  0  0
    4.2752   -0.6922    6.0167 C   0  0  0  0  0  0  0  0  0  0  0  0
    5.1240   -0.6009    4.9088 C   0  0  0  0  0  0  0  0  0  0  0  0
    4.6156   -1.0105    3.6785 C   0  0  0  0  0  0  0  0  0  0  0  0
    3.3275   -1.5802    3.5691 C   0  0  0  0  0  0  0  0  0  0  0  0
    5.3530   -0.7845    2.3868 C   0  0  0  0  0  0  0  0  0  0  0  0
    6.6717    0.0013    2.4393 C   0  0  2  0  0  0  0  0  0  0  0  0
    7.3496   -0.4776    3.7366 C   0  0  0  0  0  0  0  0  0  0  0  0
    6.5447   -0.0949    4.9970 C   0  0  0  0  0  0  0  0  0  0  0  0
    6.6153    1.4782    2.3589 N   0  0  0  0  0  0  0  0  0  0  0  0
    6.0615    2.0497    1.1077 C   0  0  0  0  0  0  0  0  0  0  0  0
    4.5177    1.9569    0.8857 C   0  0  1  0  0  0  0  0  0  0  0  0
    3.7687    2.5295    2.0940 C   0  0  0  0  0  0  0  0  0  0  0  0
    3.8887    3.8560    2.4919 C   0  0  0  0  0  0  0  0  0  0  0  0
    3.2778    4.3401    3.6675 C   0  0  0  0  0  0  0  0  0  0  0  0
    2.5257    3.5152    4.4773 C   0  0  0  0  0  0  0  0  0  0  0  0
    2.3738    2.1999    4.1399 C   0  0  0  0  0  0  0  0  0  0  0  0
    3.0263    1.7233    2.9563 C   0  0  0  0  0  0  0  0  0  0  0  0
    1.6043    1.3741    5.1511 C   0  0  0  0  0  0  0  0  0  0  0  0
    0.4091    0.6636    4.6315 C   0  0  0  0  0  0  0  0  0  0  0  0
    0.8768   -0.0122    3.5260 O   0  0  0  0  0  0  0  0  0  0  0  0
    1.9273    3.9146    5.6319 O   0  0  0  0  0  0  0  0  0  0  0  0
    4.1251    2.5834   -0.3366 O   0  0  0  0  0  0  0  0  0  0  0  0
    0.6008    0.9563   -0.4033 H   0  0  0  0  0  0  0  0  0  0  0  0
    0.6128   -0.7669   -0.8427 H   0  0  0  0  0  0  0  0  0  0  0  0
    1.9805   -0.0488    0.0649 H   0  0  0  0  0  0  0  0  0  0  0  0
   -1.4977    0.2508    2.2609 H   0  0  0  0  0  0  0  0  0  0  0  0
   -0.1410    1.4219    2.2669 H   0  0  0  0  0  0  0  0  0  0  0  0
   -1.0279    1.3021    0.8689 H   0  0  0  0  0  0  0  0  0  0  0  0
   -0.6096   -1.8860    3.5631 H   0  0  0  0  0  0  0  0  0  0  0  0
    0.2755   -3.3114    3.1591 H   0  0  0  0  0  0  0  0  0  0  0  0
    2.3110   -1.2148    6.7460 H   0  0  0  0  0  0  0  0  0  0  0  0
    4.5565   -0.2032    6.9523 H   0  0  0  0  0  0  0  0  0  0  0  0
    2.9557   -1.7257    2.5682 H   0  0  0  0  0  0  0  0  0  0  0  0
    4.6499   -0.2963    1.7502 H   0  0  0  0  0  0  0  0  0  0  0  0
    5.5134   -1.7503    1.9017 H   0  0  0  0  0  0  0  0  0  0  0  0
    7.2809   -0.3229    1.5856 H   0  0  0  0  0  0  0  0  0  0  0  0
    7.3938   -1.5775    3.6882 H   0  0  0  0  0  0  0  0  0  0  0  0
    8.3860   -0.1356    3.8032 H   0  0  0  0  0  0  0  0  0  0  0  0
    7.0128   -0.5850    5.8574 H   0  0  0  0  0  0  0  0  0  0  0  0
    6.5824    0.9884    5.1663 H   0  0  0  0  0  0  0  0  0  0  0  0
    6.0972    1.8551    3.1532 H   0  0  0  0  0  0  0  0  0  0  0  0
    6.3045    3.1228    1.1169 H   0  0  0  0  0  0  0  0  0  0  0  0
    6.6084    1.6747    0.2325 H   0  0  0  0  0  0  0  0  0  0  0  0
    4.2479    0.9324    0.6498 H   0  0  0  0  0  0  0  0  0  0  0  0
    4.5005    4.5308    1.9060 H   0  0  0  0  0  0  0  0  0  0  0  0
    3.4128    5.3714    3.9527 H   0  0  0  0  0  0  0  0  0  0  0  0
    2.9937    0.6799    2.6746 H   0  0  0  0  0  0  0  0  0  0  0  0
    2.3607    0.7173    5.5101 H   0  0  0  0  0  0  0  0  0  0  0  0
    1.2684    1.8648    6.0647 H   0  0  0  0  0  0  0  0  0  0  0  0
    0.0284   -0.0911    5.3251 H   0  0  0  0  0  0  0  0  0  0  0  0
   -0.4312    1.2920    4.3442 H   0  0  0  0  0  0  0  0  0  0  0  0
    1.2422    0.5437    2.8299 H   0  0  0  0  0  0  0  0  0  0  0  0
    2.0176    4.8629    5.7641 H   0  0  0  0  0  0  0  0  0  0  0  0
    3.9861    3.5221   -0.1626 H   0  0  0  0  0  0  0  0  0  0  0  0
  1  2  1  0  0  0  0
  1 32  1  0  0  0  0
  1 33  1  0  0  0  0
  1 34  1  0  0  0  0
  2  3  1  0  0  0  0
  2  4  1  0  0  0  0
  3 35  1  0  0  0  0
  3 36  1  0  0  0  0
  3 37  1  0  0  0  0
  4  5  2  0  0  0  0
  4  6  1  0  0  0  0
  6  7  1  0  0  0  0
  6 38  1  0  0  0  0
  6 39  1  0  0  0  0
  7  8  1  0  0  0  0
  8  9  2  0  0  0  0
  8 13  1  0  0  0  0
  9 10  1  0  0  0  0
  9 40  1  0  0  0  0
 10 11  2  0  0  0  0
 10 41  1  0  0  0  0
 11 12  1  0  0  0  0
 11 17  1  0  0  0  0
 12 13  2  0  0  0  0
 12 14  1  0  0  0  0
 13 42  1  0  0  0  0
 14 15  1  0  0  0  0
 14 43  1  0  0  0  0
 14 44  1  0  0  0  0
 15 16  1  0  0  0  0
 15 18  1  0  0  0  0
 15 45  1  6  0  0  0
 16 17  1  0  0  0  0
 16 46  1  0  0  0  0
 16 47  1  0  0  0  0
 17 48  1  0  0  0  0
 17 49  1  0  0  0  0
 18 19  1  0  0  0  0
 18 50  1  0  0  0  0
 19 20  1  0  0  0  0
 19 51  1  0  0  0  0
 19 52  1  0  0  0  0
 20 21  1  0  0  0  0
 20 31  1  0  0  0  0
 20 53  1  6  0  0  0
 21 22  2  0  0  0  0
 21 26  1  0  0  0  0
 22 23  1  0  0  0  0
 22 54  1  0  0  0  0
 23 24  2  0  0  0  0
 23 55  1  0  0  0  0
 24 25  1  0  0  0  0
 24 30  1  0  0  0  0
 25 26  2  0  0  0  0
 25 27  1  0  0  0  0
 26 56  1  0  0  0  0
 27 28  1  0  0  0  0
 27 57  1  0  0  0  0
 27 58  1  0  0  0  0
 28 29  1  0  0  0  0
 28 59  1  0  0  0  0
 28 60  1  0  0  0  0
 29 61  1  0  0  0  0
 30 62  1  0  0  0  0
 31 63  1  0  0  0  0
M  END
>  <DRUGBANK_ID>
DB05590

>  <COMMON_NAME>
Bedoradrine

>  <CAS_NUMBER>
194785-19-8

>  <UNII>
4EAR229231

>  <SYNONYMS>
Bedoradrine

$$$$
