
 OpenBabel10282417183D

 49 46  0  0  1  0  0  0  0  0999 V2000
    4.6859   -3.9382    2.4513 C   0  0  0  0  0  0  0  0  0  0  0  0
    4.4265   -4.0570    0.9224 C   0  0  2  0  0  0  0  0  0  0  0  0
    2.9613   -3.8824    0.5183 C   0  0  2  0  0  0  0  0  0  0  0  0
    2.2938   -2.6106    1.0816 C   0  0  1  0  0  0  0  0  0  0  0  0
    3.3231   -1.4308    1.5663 C   0  0  2  0  0  0  0  0  0  0  0  0
    2.8221   -0.5631    0.5305 C   0  0  0  0  0  0  0  0  0  0  0  0
    3.6426   -3.4062    3.2783 O   0  0  0  0  0  0  0  0  0  0  0  0
    4.9315   -5.3187    0.4591 O   0  0  0  0  0  0  0  0  0  0  0  0
    2.1881   -5.0164    0.9788 O   0  0  0  0  0  0  0  0  0  0  0  0
    1.1558   -2.2758    0.1463 O   0  0  0  0  0  0  0  0  0  0  0  0
    4.7222   -1.4682    1.3048 O   0  0  0  0  0  0  0  0  0  0  0  0
    3.1076   -1.1102   -0.6003 O   0  0  0  0  0  0  0  0  0  0  0  0
    1.9060    0.2381    0.9559 O   0  5  0  0  0  0  0  0  0  0  0  0
    1.4377    6.1430   -1.2911 C   0  0  0  0  0  0  0  0  0  0  0  0
    2.4095    4.9654   -1.2293 C   0  0  2  0  0  0  0  0  0  0  0  0
    1.8685    3.7062   -0.5303 C   0  0  2  0  0  0  0  0  0  0  0  0
    1.0375    2.8713   -1.5507 C   0  0  1  0  0  0  0  0  0  0  0  0
    1.8643    2.0449   -2.5843 C   0  0  2  0  0  0  0  0  0  0  0  0
    2.2312    0.9662   -1.6604 C   0  0  0  0  0  0  0  0  0  0  0  0
    0.6767    6.2684   -0.0862 O   0  0  0  0  0  0  0  0  0  0  0  0
    3.6244    5.4109   -0.6201 O   0  0  0  0  0  0  0  0  0  0  0  0
    1.0010    3.9174    0.6321 O   0  0  0  0  0  0  0  0  0  0  0  0
    0.0329    2.1563   -0.7276 O   0  0  0  0  0  0  0  0  0  0  0  0
    3.0953    2.6375   -3.0099 O   0  0  0  0  0  0  0  0  0  0  0  0
    1.2440    0.1220   -1.4992 O   0  0  0  0  0  0  0  0  0  0  0  0
    3.3205    1.2283   -1.0858 O   0  5  0  0  0  0  0  0  0  0  0  0
    0.0569   -0.1130    0.1585 Ca  0  2  0  0  0  0  0  0  0  0  0  0
    5.0379   -3.3477    0.3562 H   0  0  0  0  0  0  0  0  0  0  0  0
    2.8744   -3.9305   -0.5775 H   0  0  0  0  0  0  0  0  0  0  0  0
    1.6923   -2.8325    1.9620 H   0  0  0  0  0  0  0  0  0  0  0  0
    3.0704   -0.9829    2.5283 H   0  0  0  0  0  0  0  0  0  0  0  0
    2.6843    4.7244   -2.2571 H   0  0  0  0  0  0  0  0  0  0  0  0
    2.6913    3.1576   -0.0690 H   0  0  0  0  0  0  0  0  0  0  0  0
    0.4469    3.5420   -2.1742 H   0  0  0  0  0  0  0  0  0  0  0  0
    1.3344    1.5166   -3.3797 H   0  0  0  0  0  0  0  0  0  0  0  0
    5.5513   -3.2866    2.6075 H   0  0  0  0  0  0  0  0  0  0  0  0
    4.9313   -4.9125    2.8643 H   0  0  0  0  0  0  0  0  0  0  0  0
    2.8263   -3.9133    3.1982 H   0  0  0  0  0  0  0  0  0  0  0  0
    4.2851   -5.9939    0.7160 H   0  0  0  0  0  0  0  0  0  0  0  0
    2.4104   -5.1682    1.9084 H   0  0  0  0  0  0  0  0  0  0  0  0
    1.6719   -2.0982   -0.7078 H   0  0  0  0  0  0  0  0  0  0  0  0
    4.7981   -1.2813    0.3283 H   0  0  0  0  0  0  0  0  0  0  0  0
    0.7369    6.0198   -2.1222 H   0  0  0  0  0  0  0  0  0  0  0  0
    1.9894    7.0764   -1.4247 H   0  0  0  0  0  0  0  0  0  0  0  0
    1.3084    6.5448    0.6056 H   0  0  0  0  0  0  0  0  0  0  0  0
    3.4920    5.4894    0.3352 H   0  0  0  0  0  0  0  0  0  0  0  0
    0.5397    4.7747    0.5071 H   0  0  0  0  0  0  0  0  0  0  0  0
    0.2969    2.5095    0.1646 H   0  0  0  0  0  0  0  0  0  0  0  0
    3.7411    2.3225   -2.3061 H   0  0  0  0  0  0  0  0  0  0  0  0
  1 36  1  0  0  0  0
  1 37  1  0  0  0  0
  2  8  1  0  0  0  0
  2 28  1  6  0  0  0
  2  3  1  0  0  0  0
  2  1  1  0  0  0  0
  3 29  1  6  0  0  0
  3  9  1  0  0  0  0
  3  4  1  0  0  0  0
  4 10  1  0  0  0  0
  4 30  1  1  0  0  0
  5 11  1  0  0  0  0
  5 31  1  1  0  0  0
  5  6  1  0  0  0  0
  5  4  1  0  0  0  0
  7  1  1  0  0  0  0
  7 38  1  0  0  0  0
  8 39  1  0  0  0  0
  9 40  1  0  0  0  0
 10 41  1  0  0  0  0
 11 42  1  0  0  0  0
 12  6  2  0  0  0  0
 13  6  1  0  0  0  0
 14 43  1  0  0  0  0
 14 44  1  0  0  0  0
 15 21  1  0  0  0  0
 15 32  1  6  0  0  0
 15 16  1  0  0  0  0
 15 14  1  0  0  0  0
 16 33  1  1  0  0  0
 16 22  1  0  0  0  0
 16 17  1  0  0  0  0
 17 23  1  0  0  0  0
 17 34  1  6  0  0  0
 18 24  1  0  0  0  0
 18 35  1  6  0  0  0
 18 19  1  0  0  0  0
 18 17  1  0  0  0  0
 20 14  1  0  0  0  0
 20 45  1  0  0  0  0
 21 46  1  0  0  0  0
 22 47  1  0  0  0  0
 23 48  1  0  0  0  0
 24 49  1  0  0  0  0
 25 19  2  0  0  0  0
 26 19  1  0  0  0  0
M  CHG  3  13  -1  26  -1  27   2
M  END
>  <DRUGBANK_ID>
DB11126

>  <COMMON_NAME>
Calcium gluconate

>  <CAS_NUMBER>
299-28-5

>  <UNII>
SQE6VB453K

>  <SYNONYMS>
Calcarea gluconica; Calcii gluconas; Calcio gluconato; Calcium di-gluconate; Calcium gluconate; Calcium gluconate anhydrous; Calcium gluconate, anhydrous; D-gluconic acid, calcium salt (2:1)

$$$$
