
 OpenBabel10282417193D

 41 43  0  0  0  0  0  0  0  0999 V2000
    1.0439   -0.0289   -0.0414 C   0  0  0  0  0  0  0  0  0  0  0  0
    0.5461    0.4290    1.3300 C   0  0  0  0  0  0  0  0  0  0  0  0
   -0.9305    0.1494    1.4617 C   0  0  0  0  0  0  0  0  0  0  0  0
   -1.4432   -0.9036    1.8128 O   0  0  0  0  0  0  0  0  0  0  0  0
   -1.6810    1.3421    1.0616 C   0  0  0  0  0  0  0  0  0  0  0  0
   -0.7461    2.2997    1.0879 C   0  0  0  0  0  0  0  0  0  0  0  0
    0.5709    1.8884    1.3927 O   0  0  0  0  0  0  0  0  0  0  0  0
   -1.0030    3.7398    0.7975 C   0  0  0  0  0  0  0  0  0  0  0  0
   -1.9789    4.4836    1.4988 C   0  0  0  0  0  0  0  0  0  0  0  0
   -2.2695    5.8286    1.1805 C   0  0  0  0  0  0  0  0  0  0  0  0
   -1.5736    6.4585    0.1509 C   0  0  0  0  0  0  0  0  0  0  0  0
   -0.5894    5.7465   -0.5449 C   0  0  0  0  0  0  0  0  0  0  0  0
   -0.3430    4.3893   -0.2536 C   0  0  0  0  0  0  0  0  0  0  0  0
   -1.9166    8.1305   -0.3581 S   0  0  0  0  0  0  0  0  0  0  0  0
   -0.7853    8.9509   -0.0186 O   0  0  0  0  0  0  0  0  0  0  0  0
   -2.4604    8.0835   -1.7021 O   0  0  0  0  0  0  0  0  0  0  0  0
   -3.1731    8.6727    0.6313 N   0  0  0  0  0  0  0  0  0  0  0  0
   -3.0874    1.4492    0.7344 C   0  0  0  0  0  0  0  0  0  0  0  0
   -4.0550    1.1335    1.6916 C   0  0  0  0  0  0  0  0  0  0  0  0
   -5.4021    1.3789    1.4282 C   0  0  0  0  0  0  0  0  0  0  0  0
   -5.7807    1.9551    0.2158 C   0  0  0  0  0  0  0  0  0  0  0  0
   -4.8119    2.2786   -0.7254 C   0  0  0  0  0  0  0  0  0  0  0  0
   -3.4760    1.9865   -0.4998 C   0  0  0  0  0  0  0  0  0  0  0  0
   -5.1630    2.9263   -1.8436 F   0  0  0  0  0  0  0  0  0  0  0  0
    1.3827   -0.2699    2.4019 C   0  0  0  0  0  0  0  0  0  0  0  0
    0.6856    0.6252   -0.8413 H   0  0  0  0  0  0  0  0  0  0  0  0
    0.7206   -1.0537   -0.2555 H   0  0  0  0  0  0  0  0  0  0  0  0
    2.1389   -0.0053   -0.0802 H   0  0  0  0  0  0  0  0  0  0  0  0
   -2.5620    4.0126    2.2892 H   0  0  0  0  0  0  0  0  0  0  0  0
   -3.0438    6.3502    1.7371 H   0  0  0  0  0  0  0  0  0  0  0  0
   -0.0152    6.2396   -1.3277 H   0  0  0  0  0  0  0  0  0  0  0  0
    0.3453    3.8358   -0.8887 H   0  0  0  0  0  0  0  0  0  0  0  0
   -2.8583    8.7964    1.5925 H   0  0  0  0  0  0  0  0  0  0  0  0
   -3.5106    9.5644    0.2536 H   0  0  0  0  0  0  0  0  0  0  0  0
   -3.7601    0.7201    2.6547 H   0  0  0  0  0  0  0  0  0  0  0  0
   -6.1500    1.1453    2.1806 H   0  0  0  0  0  0  0  0  0  0  0  0
   -6.8234    2.1599   -0.0004 H   0  0  0  0  0  0  0  0  0  0  0  0
   -2.7487    2.2229   -1.2721 H   0  0  0  0  0  0  0  0  0  0  0  0
    1.3054   -1.3622    2.2971 H   0  0  0  0  0  0  0  0  0  0  0  0
    2.4441   -0.0131    2.3000 H   0  0  0  0  0  0  0  0  0  0  0  0
    1.0809   -0.0140    3.4207 H   0  0  0  0  0  0  0  0  0  0  0  0
  1  2  1  0  0  0  0
  1 26  1  0  0  0  0
  1 27  1  0  0  0  0
  1 28  1  0  0  0  0
  2  3  1  0  0  0  0
  2  7  1  0  0  0  0
  2 25  1  0  0  0  0
  3  4  2  0  0  0  0
  3  5  1  0  0  0  0
  5  6  2  0  0  0  0
  5 18  1  0  0  0  0
  6  7  1  0  0  0  0
  6  8  1  0  0  0  0
  8  9  2  0  0  0  0
  8 13  1  0  0  0  0
  9 10  1  0  0  0  0
  9 29  1  0  0  0  0
 10 11  2  0  0  0  0
 10 30  1  0  0  0  0
 11 12  1  0  0  0  0
 11 14  1  0  0  0  0
 12 13  2  0  0  0  0
 12 31  1  0  0  0  0
 13 32  1  0  0  0  0
 14 15  2  0  0  0  0
 14 16  2  0  0  0  0
 14 17  1  0  0  0  0
 17 33  1  0  0  0  0
 17 34  1  0  0  0  0
 18 19  2  0  0  0  0
 18 23  1  0  0  0  0
 19 20  1  0  0  0  0
 19 35  1  0  0  0  0
 20 21  2  0  0  0  0
 20 36  1  0  0  0  0
 21 22  1  0  0  0  0
 21 37  1  0  0  0  0
 22 23  2  0  0  0  0
 22 24  1  0  0  0  0
 23 38  1  0  0  0  0
 25 39  1  0  0  0  0
 25 40  1  0  0  0  0
 25 41  1  0  0  0  0
M  END
>  <DRUGBANK_ID>
DB12399

>  <COMMON_NAME>
Polmacoxib

>  <CAS_NUMBER>
301692-76-2

>  <UNII>
IJ34D6YPAO

>  <SYNONYMS>
Polmacoxib

$$$$
