693
 OpenBabel10282417123D

 51 54  0  0  0  0  0  0  0  0999 V2000
   -8.7142   -7.4858   -0.9551 C   0  0  0  0  0  0  0  0  0  0  0  0
   -8.4291   -7.8562   -2.2911 C   0  0  0  0  0  0  0  0  0  0  0  0
   -8.2561   -6.9225   -3.3263 C   0  0  0  0  0  0  0  0  0  0  0  0
   -8.3839   -5.5847   -2.9773 C   0  0  0  0  0  0  0  0  0  0  0  0
   -8.6672   -5.1662   -1.6889 C   0  0  0  0  0  0  0  0  0  0  0  0
   -8.8390   -6.1139   -0.6707 C   0  0  0  0  0  0  0  0  0  0  0  0
   -8.8692   -8.4952    0.1209 C   0  0  0  0  0  0  0  0  0  0  0  0
   -9.1327   -8.1418    1.3644 N   0  0  0  0  0  0  0  0  0  0  0  0
   -8.7402   -9.7819   -0.1422 N   0  3  0  0  0  0  0  0  0  0  0  0
   -8.3061   -4.4169   -3.6884 N   0  0  0  0  0  0  0  0  0  0  0  0
   -8.7458   -3.8132   -1.6012 N   0  0  0  0  0  0  0  0  0  0  0  0
   -8.5661   -3.3704   -2.8373 C   0  0  0  0  0  0  0  0  0  0  0  0
   -8.5555   -1.9822   -3.3186 C   0  0  0  0  0  0  0  0  0  0  0  0
   -7.6946   -1.1084   -2.6202 C   0  0  0  0  0  0  0  0  0  0  0  0
   -7.5162    0.2392   -2.9286 C   0  0  0  0  0  0  0  0  0  0  0  0
   -6.5814    1.1721   -2.0927 C   0  0  2  0  0  0  0  0  0  0  0  0
   -5.6341    0.4302   -1.0616 C   0  0  0  0  0  0  0  0  0  0  0  0
   -5.2480   -0.7430   -1.3396 O   0  0  0  0  0  0  0  0  0  0  0  0
   -5.2202    1.0759   -0.0529 O   0  5  0  0  0  0  0  0  0  0  0  0
   -7.3991    2.3664   -1.5195 C   0  0  0  0  0  0  0  0  0  0  0  0
   -6.7294    3.5857   -0.8425 C   0  0  0  0  0  0  0  0  0  0  0  0
   -6.7024    4.6346   -1.5653 O   0  0  0  0  0  0  0  0  0  0  0  0
   -6.4602    3.5228    0.3911 O   0  5  0  0  0  0  0  0  0  0  0  0
   -8.2874    0.6927   -4.0111 C   0  0  0  0  0  0  0  0  0  0  0  0
   -9.2113   -0.1580   -4.7184 C   0  0  0  0  0  0  0  0  0  0  0  0
   -9.3398   -1.5657   -4.4280 C   0  0  0  0  0  0  0  0  0  0  0  0
  -10.0872   -2.3811   -5.0962 O   0  5  0  0  0  0  0  0  0  0  0  0
  -10.0934    0.4758   -5.7311 C   0  0  0  0  0  0  0  0  0  0  0  0
  -11.4891    0.4619   -5.5757 C   0  0  0  0  0  0  0  0  0  0  0  0
  -12.3367    1.0181   -6.5312 C   0  0  0  0  0  0  0  0  0  0  0  0
  -11.8046    1.6299   -7.6613 C   0  0  0  0  0  0  0  0  0  0  0  0
  -10.4211    1.6826   -7.8300 C   0  0  0  0  0  0  0  0  0  0  0  0
   -9.5722    1.1090   -6.8741 C   0  0  0  0  0  0  0  0  0  0  0  0
  -12.0675   -0.0573   -4.4797 F   0  0  0  0  0  0  0  0  0  0  0  0
   -8.3284   -8.8932   -2.5921 H   0  0  0  0  0  0  0  0  0  0  0  0
   -8.0405   -7.2217   -4.3459 H   0  0  0  0  0  0  0  0  0  0  0  0
   -9.0662   -5.7032    0.3034 H   0  0  0  0  0  0  0  0  0  0  0  0
   -9.2312   -8.8056    2.1165 H   0  0  0  0  0  0  0  0  0  0  0  0
   -9.2291   -7.1643    1.6189 H   0  0  0  0  0  0  0  0  0  0  0  0
   -8.5317  -10.0977   -1.0784 H   0  0  0  0  0  0  0  0  0  0  0  0
   -8.8313  -10.4908    0.5679 H   0  0  0  0  0  0  0  0  0  0  0  0
   -8.1530   -4.2718   -4.6765 H   0  0  0  0  0  0  0  0  0  0  0  0
   -7.1396   -1.5645   -1.8098 H   0  0  0  0  0  0  0  0  0  0  0  0
   -5.8685    1.6027   -2.8138 H   0  0  0  0  0  0  0  0  0  0  0  0
   -7.9693    2.8189   -2.3477 H   0  0  0  0  0  0  0  0  0  0  0  0
   -8.1742    1.9826   -0.8435 H   0  0  0  0  0  0  0  0  0  0  0  0
   -8.2205    1.7407   -4.3022 H   0  0  0  0  0  0  0  0  0  0  0  0
  -13.4052    0.9609   -6.3630 H   0  0  0  0  0  0  0  0  0  0  0  0
  -12.4670    2.0669   -8.3996 H   0  0  0  0  0  0  0  0  0  0  0  0
   -9.9963    2.1647   -8.7049 H   0  0  0  0  0  0  0  0  0  0  0  0
   -8.4945    1.1430   -7.0184 H   0  0  0  0  0  0  0  0  0  0  0  0
  1  2  2  0  0  0  0
  1  6  1  0  0  0  0
  1  7  1  0  0  0  0
  2  3  1  0  0  0  0
  2 35  1  0  0  0  0
  3  4  2  0  0  0  0
  3 36  1  0  0  0  0
  4  5  1  0  0  0  0
  4 10  1  0  0  0  0
  5  6  2  0  0  0  0
  5 11  1  0  0  0  0
  6 37  1  0  0  0  0
  7  8  1  0  0  0  0
  7  9  2  0  0  0  0
  8 38  1  0  0  0  0
  8 39  1  0  0  0  0
  9 40  1  0  0  0  0
  9 41  1  0  0  0  0
 10 12  1  0  0  0  0
 10 42  1  0  0  0  0
 11 12  2  0  0  0  0
 12 13  1  0  0  0  0
 13 14  2  0  0  0  0
 13 26  1  0  0  0  0
 14 15  1  0  0  0  0
 14 43  1  0  0  0  0
 15 24  2  0  0  0  0
 16 20  1  0  0  0  0
 16 44  1  6  0  0  0
 16 17  1  0  0  0  0
 16 15  1  0  0  0  0
 17 18  2  0  0  0  0
 17 19  1  0  0  0  0
 20 21  1  0  0  0  0
 20 45  1  0  0  0  0
 20 46  1  0  0  0  0
 21 22  2  0  0  0  0
 21 23  1  0  0  0  0
 24 25  1  0  0  0  0
 24 47  1  0  0  0  0
 25 26  2  0  0  0  0
 25 28  1  0  0  0  0
 26 27  1  0  0  0  0
 28 29  2  0  0  0  0
 28 33  1  0  0  0  0
 29 30  1  0  0  0  0
 29 34  1  0  0  0  0
 30 31  2  0  0  0  0
 30 48  1  0  0  0  0
 31 32  1  0  0  0  0
 31 49  1  0  0  0  0
 32 33  2  0  0  0  0
 32 50  1  0  0  0  0
 33 51  1  0  0  0  0
M  CHG  4   9   1  19  -1  23  -1  27  -1
M  END
>  <DRUGBANK_ID>
DB01741

>  <SECONDARY_ACCESSION_NUMBERS>
EXPT00281

>  <COMMON_NAME>
CRA_17693

$$$$
