
 OpenBabel10282417233D

 42 43  0  0  0  0  0  0  0  0999 V2000
    1.6079    0.7283    0.2594 O   0  0  0  0  0  0  0  0  0  0  0  0
    1.0424    1.3360    1.4110 C   0  0  3  0  0  0  0  0  0  0  0  0
    1.3196    0.4180    2.5901 C   0  0  0  0  0  0  0  0  0  0  0  0
    2.5808   -0.2086    2.4773 O   0  0  0  0  0  0  0  0  0  0  0  0
    2.6792   -1.1201    1.3813 N   0  0  0  0  0  0  0  0  0  0  0  0
    1.6838   -1.5814    0.4447 C   0  0  0  0  0  0  0  0  0  0  0  0
    2.1787   -2.1551   -0.6225 N   0  0  0  0  0  0  0  0  0  0  0  0
    0.0972   -1.4506    0.4616 C   0  0  0  0  0  0  0  0  0  0  0  0
   -0.7155   -0.3222    0.2383 C   0  0  0  0  0  0  0  0  0  0  0  0
   -1.9879   -0.1460    0.7561 C   0  0  0  0  0  0  0  0  0  0  0  0
   -2.6434   -1.3115    1.0249 C   0  0  0  0  0  0  0  0  0  0  0  0
   -2.0419   -2.5160    0.8892 N   0  0  0  0  0  0  0  0  0  0  0  0
   -0.6874   -2.5601    0.6412 C   0  0  0  0  0  0  0  0  0  0  0  0
    1.3747    2.7411    1.0490 C   0  0  0  0  0  0  0  0  0  0  0  0
    0.7131    3.0803   -0.3095 N   0  0  0  0  0  0  0  0  0  0  0  0
    1.0325    4.4794   -0.5226 C   0  0  0  0  0  0  0  0  0  0  0  0
    0.5269    5.0064   -1.8515 C   0  0  0  0  0  0  0  0  0  0  0  0
    1.0659    4.2062   -3.0283 C   0  0  0  0  0  0  0  0  0  0  0  0
    0.6790    2.7611   -2.8715 C   0  0  0  0  0  0  0  0  0  0  0  0
    1.1501    2.2713   -1.5091 C   0  0  0  0  0  0  0  0  0  0  0  0
    2.5674    0.6557    0.3355 H   0  0  0  0  0  0  0  0  0  0  0  0
   -0.0466    1.4160    1.4700 H   0  0  0  0  0  0  0  0  0  0  0  0
    1.1908    0.9385    3.5437 H   0  0  0  0  0  0  0  0  0  0  0  0
    0.6057   -0.4136    2.6624 H   0  0  0  0  0  0  0  0  0  0  0  0
    3.6311   -1.0572    1.0141 H   0  0  0  0  0  0  0  0  0  0  0  0
    3.2034   -2.1392   -0.5842 H   0  0  0  0  0  0  0  0  0  0  0  0
   -0.3965    0.5726   -0.2757 H   0  0  0  0  0  0  0  0  0  0  0  0
   -2.4213    0.8416    0.8829 H   0  0  0  0  0  0  0  0  0  0  0  0
   -3.6896   -1.2755    1.2900 H   0  0  0  0  0  0  0  0  0  0  0  0
   -0.2502   -3.5403    0.5463 H   0  0  0  0  0  0  0  0  0  0  0  0
    0.9623    3.3903    1.8261 H   0  0  0  0  0  0  0  0  0  0  0  0
    2.4585    2.8646    0.9754 H   0  0  0  0  0  0  0  0  0  0  0  0
    2.1195    4.5996   -0.4628 H   0  0  0  0  0  0  0  0  0  0  0  0
    0.5753    5.0545    0.2890 H   0  0  0  0  0  0  0  0  0  0  0  0
    0.8502    6.0441   -1.9395 H   0  0  0  0  0  0  0  0  0  0  0  0
   -0.5695    4.9828   -1.8603 H   0  0  0  0  0  0  0  0  0  0  0  0
    0.6773    4.5933   -3.9722 H   0  0  0  0  0  0  0  0  0  0  0  0
    2.1603    4.2726   -3.0589 H   0  0  0  0  0  0  0  0  0  0  0  0
   -0.4046    2.6181   -2.9789 H   0  0  0  0  0  0  0  0  0  0  0  0
    1.1478    2.1493   -3.6565 H   0  0  0  0  0  0  0  0  0  0  0  0
    0.7504    1.2547   -1.5469 H   0  0  0  0  0  0  0  0  0  0  0  0
    2.2436    2.1885   -1.5244 H   0  0  0  0  0  0  0  0  0  0  0  0
  1  2  1  0  0  0  0
  1 21  1  0  0  0  0
  2  3  1  0  0  0  0
  2 14  1  0  0  0  0
  2 22  1  0  0  0  0
  3  4  1  0  0  0  0
  3 23  1  0  0  0  0
  3 24  1  0  0  0  0
  4  5  1  0  0  0  0
  5  6  1  0  0  0  0
  5 25  1  0  0  0  0
  6  7  2  0  0  0  0
  6  8  1  0  0  0  0
  7 26  1  0  0  0  0
  8  9  2  0  0  0  0
  8 13  1  0  0  0  0
  9 10  1  0  0  0  0
  9 27  1  0  0  0  0
 10 11  2  0  0  0  0
 10 28  1  0  0  0  0
 11 12  1  0  0  0  0
 11 29  1  0  0  0  0
 12 13  2  0  0  0  0
 13 30  1  0  0  0  0
 14 15  1  0  0  0  0
 14 31  1  0  0  0  0
 14 32  1  0  0  0  0
 15 16  1  0  0  0  0
 15 20  1  0  0  0  0
 16 17  1  0  0  0  0
 16 33  1  0  0  0  0
 16 34  1  0  0  0  0
 17 18  1  0  0  0  0
 17 35  1  0  0  0  0
 17 36  1  0  0  0  0
 18 19  1  0  0  0  0
 18 37  1  0  0  0  0
 18 38  1  0  0  0  0
 19 20  1  0  0  0  0
 19 39  1  0  0  0  0
 19 40  1  0  0  0  0
 20 41  1  0  0  0  0
 20 42  1  0  0  0  0
M  END
>  <DRUGBANK_ID>
DB16995

>  <COMMON_NAME>
NP-51

>  <CAS_NUMBER>
66611-38-9

>  <UNII>
28ENT76V8K

>  <SYNONYMS>
(+/-)-o-(3-piperidino-2-hydroxy-1-propyl)nicotinic acid amidoxime; 3-pyridinecarboximidamide, n-(2-hydroxy-3-(1-piperidinyl)propoxy)-; Bgp-15 free base

$$$$
