
 OpenBabel10282417153D

 72 75  0  0  0  0  0  0  0  0999 V2000
   -0.4170    1.4413    2.0344 C   0  0  0  0  0  0  0  0  0  0  0  0
   -0.9540    2.8342    1.6348 C   0  0  0  0  0  0  0  0  0  0  0  0
    0.8796    0.9609    1.4433 N   0  0  0  0  0  0  0  0  0  0  0  0
    0.8345   -0.2039    0.6436 C   0  0  0  0  0  0  0  0  0  0  0  0
   -0.0219   -0.1649   -0.4430 C   0  0  0  0  0  0  0  0  0  0  0  0
   -0.5646   -1.3837   -0.9424 C   0  0  0  0  0  0  0  0  0  0  0  0
    0.1775   -2.5770   -0.8356 C   0  0  0  0  0  0  0  0  0  0  0  0
    1.4300   -2.4901   -0.2397 C   0  0  0  0  0  0  0  0  0  0  0  0
    1.6616   -1.3542    0.6256 C   0  0  0  0  0  0  0  0  0  0  0  0
    2.5203   -3.3141   -0.4688 O   0  0  0  0  0  0  0  0  0  0  0  0
    2.7507   -4.2422   -1.5613 C   0  0  0  0  0  0  0  0  0  0  0  0
    0.0220    1.2108   -1.1726 C   0  0  1  0  0  0  0  0  0  0  0  0
    1.5677    1.9177   -1.7091 C   0  0  0  0  0  0  0  0  0  0  0  0
    2.1439    1.1979   -2.8852 C   0  0  0  0  0  0  0  0  0  0  0  0
    3.3096    0.3716   -2.5930 C   0  0  0  0  0  0  0  0  0  0  0  0
    3.1489   -0.9721   -2.7461 C   0  0  0  0  0  0  0  0  0  0  0  0
    1.9152   -1.3327   -3.2829 C   0  0  0  0  0  0  0  0  0  0  0  0
    0.8518   -0.4459   -3.5878 C   0  0  0  0  0  0  0  0  0  0  0  0
    0.9839    0.9192   -3.5713 C   0  0  0  0  0  0  0  0  0  0  0  0
   -0.2170    1.9310   -3.3857 C   0  0  0  0  0  0  0  0  0  0  0  0
   -1.0572    1.3439   -2.2895 C   0  0  0  0  0  0  0  0  0  0  0  0
    1.5728   -2.6245   -3.5102 O   0  0  0  0  0  0  0  0  0  0  0  0
    2.1395    1.6248    1.8286 C   0  0  0  0  0  0  0  0  0  0  0  0
    2.1356    3.1651    1.5828 C   0  0  0  0  0  0  0  0  0  0  0  0
    1.7752    4.2464    2.2941 C   0  0  0  0  0  0  0  0  0  0  0  0
    1.6139    5.5580    1.6813 C   0  0  0  0  0  0  0  0  0  0  0  0
    1.8546    5.7654    0.2894 C   0  0  0  0  0  0  0  0  0  0  0  0
    2.2560    4.7044   -0.3990 C   0  0  0  0  0  0  0  0  0  0  0  0
    2.5029    3.4887    0.2811 C   0  0  0  0  0  0  0  0  0  0  0  0
    1.7204    7.1161   -0.4075 C   0  0  0  0  0  0  0  0  0  0  0  0
    3.0717    7.6743   -0.9213 C   0  0  0  0  0  0  0  0  0  0  0  0
    3.6686    6.9082   -2.0315 N   0  0  0  0  0  0  0  0  0  0  0  0
    4.9773    7.4111   -2.4472 C   0  0  0  0  0  0  0  0  0  0  0  0
    5.9963    7.3124   -1.3200 C   0  0  0  0  0  0  0  0  0  0  0  0
   -1.2281    0.7276    1.8392 H   0  0  0  0  0  0  0  0  0  0  0  0
   -0.2810    1.4508    3.1205 H   0  0  0  0  0  0  0  0  0  0  0  0
   -0.2985    3.6312    1.9246 H   0  0  0  0  0  0  0  0  0  0  0  0
   -1.1704    3.0329    0.5848 H   0  0  0  0  0  0  0  0  0  0  0  0
   -1.8815    3.0585    2.1644 H   0  0  0  0  0  0  0  0  0  0  0  0
   -1.4339   -1.4080   -1.6023 H   0  0  0  0  0  0  0  0  0  0  0  0
   -0.1532   -3.4373   -1.4222 H   0  0  0  0  0  0  0  0  0  0  0  0
    2.5670   -1.3661    1.2188 H   0  0  0  0  0  0  0  0  0  0  0  0
    1.9472   -4.9720   -1.6847 H   0  0  0  0  0  0  0  0  0  0  0  0
    2.9972   -3.8000   -2.5351 H   0  0  0  0  0  0  0  0  0  0  0  0
    3.6992   -4.7625   -1.3805 H   0  0  0  0  0  0  0  0  0  0  0  0
   -0.2982    1.9225   -0.4447 H   0  0  0  0  0  0  0  0  0  0  0  0
    1.4828    2.9649   -2.0354 H   0  0  0  0  0  0  0  0  0  0  0  0
    2.4904    1.8163   -1.2145 H   0  0  0  0  0  0  0  0  0  0  0  0
    4.1787    0.7463   -2.0334 H   0  0  0  0  0  0  0  0  0  0  0  0
    3.8937   -1.6709   -2.3587 H   0  0  0  0  0  0  0  0  0  0  0  0
   -0.1378   -0.8828   -3.4868 H   0  0  0  0  0  0  0  0  0  0  0  0
   -0.6106    2.2883   -4.3245 H   0  0  0  0  0  0  0  0  0  0  0  0
   -0.0218    2.9189   -2.9134 H   0  0  0  0  0  0  0  0  0  0  0  0
   -1.5426    0.4276   -2.6293 H   0  0  0  0  0  0  0  0  0  0  0  0
   -1.8820    1.9976   -1.9665 H   0  0  0  0  0  0  0  0  0  0  0  0
    1.3462   -2.9278   -2.6232 H   0  0  0  0  0  0  0  0  0  0  0  0
    2.4344    1.3896    2.8513 H   0  0  0  0  0  0  0  0  0  0  0  0
    2.9178    1.1664    1.1971 H   0  0  0  0  0  0  0  0  0  0  0  0
    1.4579    4.1142    3.3360 H   0  0  0  0  0  0  0  0  0  0  0  0
    1.2369    6.3657    2.2696 H   0  0  0  0  0  0  0  0  0  0  0  0
    2.4140    4.7209   -1.4912 H   0  0  0  0  0  0  0  0  0  0  0  0
    3.0175    2.7086   -0.1112 H   0  0  0  0  0  0  0  0  0  0  0  0
    1.0086    7.0520   -1.2439 H   0  0  0  0  0  0  0  0  0  0  0  0
    1.3055    7.8397    0.2978 H   0  0  0  0  0  0  0  0  0  0  0  0
    2.9290    8.7097   -1.2540 H   0  0  0  0  0  0  0  0  0  0  0  0
    3.7422    7.6866   -0.0585 H   0  0  0  0  0  0  0  0  0  0  0  0
    3.8425    5.9619   -1.6999 H   0  0  0  0  0  0  0  0  0  0  0  0
    5.3228    6.7860   -3.2814 H   0  0  0  0  0  0  0  0  0  0  0  0
    4.8957    8.4320   -2.8312 H   0  0  0  0  0  0  0  0  0  0  0  0
    6.0716    6.2822   -0.9523 H   0  0  0  0  0  0  0  0  0  0  0  0
    6.9821    7.6316   -1.6627 H   0  0  0  0  0  0  0  0  0  0  0  0
    5.7276    7.9527   -0.4752 H   0  0  0  0  0  0  0  0  0  0  0  0
  1  2  1  0  0  0  0
  1  3  1  0  0  0  0
  1 35  1  0  0  0  0
  1 36  1  0  0  0  0
  2 37  1  0  0  0  0
  2 38  1  0  0  0  0
  2 39  1  0  0  0  0
  3  4  1  0  0  0  0
  3 23  1  0  0  0  0
  4  5  2  0  0  0  0
  4  9  1  0  0  0  0
  5  6  1  0  0  0  0
  6  7  2  0  0  0  0
  6 40  1  0  0  0  0
  7  8  1  0  0  0  0
  7 41  1  0  0  0  0
  8  9  2  0  0  0  0
  8 10  1  0  0  0  0
  9 42  1  0  0  0  0
 10 11  1  0  0  0  0
 11 43  1  0  0  0  0
 11 44  1  0  0  0  0
 11 45  1  0  0  0  0
 12 13  1  0  0  0  0
 12 21  1  0  0  0  0
 12 46  1  1  0  0  0
 12  5  1  0  0  0  0
 13 14  1  0  0  0  0
 13 47  1  0  0  0  0
 13 48  1  0  0  0  0
 14 15  2  0  0  0  0
 14 19  1  0  0  0  0
 15 16  1  0  0  0  0
 15 49  1  0  0  0  0
 16 17  2  0  0  0  0
 16 50  1  0  0  0  0
 17 18  1  0  0  0  0
 17 22  1  0  0  0  0
 18 19  2  0  0  0  0
 18 51  1  0  0  0  0
 19 20  1  0  0  0  0
 20 21  1  0  0  0  0
 20 52  1  0  0  0  0
 20 53  1  0  0  0  0
 21 54  1  0  0  0  0
 21 55  1  0  0  0  0
 22 56  1  0  0  0  0
 23 24  1  0  0  0  0
 23 57  1  0  0  0  0
 23 58  1  0  0  0  0
 24 25  2  0  0  0  0
 24 29  1  0  0  0  0
 25 26  1  0  0  0  0
 25 59  1  0  0  0  0
 26 27  2  0  0  0  0
 26 60  1  0  0  0  0
 27 28  1  0  0  0  0
 27 30  1  0  0  0  0
 28 29  2  0  0  0  0
 28 61  1  0  0  0  0
 29 62  1  0  0  0  0
 30 31  1  0  0  0  0
 30 63  1  0  0  0  0
 30 64  1  0  0  0  0
 31 32  1  0  0  0  0
 31 65  1  0  0  0  0
 31 66  1  0  0  0  0
 32 33  1  0  0  0  0
 32 67  1  0  0  0  0
 33 34  1  0  0  0  0
 33 68  1  0  0  0  0
 33 69  1  0  0  0  0
 34 70  1  0  0  0  0
 34 71  1  0  0  0  0
 34 72  1  0  0  0  0
M  END
>  <DRUGBANK_ID>
DB06374

>  <COMMON_NAME>
Elacestrant

>  <CAS_NUMBER>
722533-56-4

>  <UNII>
FM6A2627A8

>  <SYNONYMS>
(2R)-2-(2-(ethyl-((4-(2-(ethylamino)ethyl)phenyl)methyl)amino)-4-methoxy-phenyl)tetralin-6-ol; (6R)-6-(2-(ethyl((4-(2- (ethylamino)ethyl)phenyl)methyl)amino)-4-methoxyphenyl)- 5,6,7,8-tetrahydronaphthalen-2-ol; 2-naphthalenol, 6-(2-(ethyl((4-(2-(ethylamino)ethyl)phenyl)methyl)amino)-4-methoxyphenyl)-5,6,7,8-tetrahydro-, (6R)-; Elacestrant

$$$$
