
 OpenBabel10282417203D

 24 23  0  0  1  0  0  0  0  0999 V2000
   -1.2676    3.3585   -0.6786 C   0  0  0  0  0  0  0  0  0  0  0  0
   -1.5300    1.8568   -1.0869 C   0  0  1  0  0  0  0  0  0  0  0  0
   -0.8967    1.3783   -2.4113 C   0  0  1  0  0  0  0  0  0  0  0  0
    0.6554    1.2130   -2.4932 C   0  0  2  0  0  0  0  0  0  0  0  0
    1.4574    1.7381   -1.2906 C   0  0  1  0  0  0  0  0  0  0  0  0
    2.0866    0.8101   -0.2666 C   0  0  0  0  0  0  0  0  0  0  0  0
    3.1183    1.1023    0.3555 O   0  0  0  0  0  0  0  0  0  0  0  0
    2.1737    2.9080   -1.6544 O   0  0  0  0  0  0  0  0  0  0  0  0
    1.0701    1.9035   -3.6982 O   0  0  0  0  0  0  0  0  0  0  0  0
   -1.4753    0.1027   -2.7714 O   0  0  0  0  0  0  0  0  0  0  0  0
   -1.3311    0.8643   -0.0652 O   0  0  0  0  0  0  0  0  0  0  0  0
    0.0299    3.9327   -0.5820 O   0  0  0  0  0  0  0  0  0  0  0  0
   -1.6688    3.4982    0.3263 H   0  0  0  0  0  0  0  0  0  0  0  0
   -1.7929    3.9969   -1.3882 H   0  0  0  0  0  0  0  0  0  0  0  0
   -2.6189    1.8106   -1.2157 H   0  0  0  0  0  0  0  0  0  0  0  0
   -1.2490    2.0622   -3.1944 H   0  0  0  0  0  0  0  0  0  0  0  0
    0.9090    0.1632   -2.6668 H   0  0  0  0  0  0  0  0  0  0  0  0
    0.7260    2.0657   -0.5847 H   0  0  0  0  0  0  0  0  0  0  0  0
    1.4550   -0.0210    0.0854 H   0  0  0  0  0  0  0  0  0  0  0  0
    3.0854    2.6208   -1.8480 H   0  0  0  0  0  0  0  0  0  0  0  0
    0.8522    2.8501   -3.5872 H   0  0  0  0  0  0  0  0  0  0  0  0
   -1.2456   -0.5393   -2.0752 H   0  0  0  0  0  0  0  0  0  0  0  0
   -0.4270    0.8443    0.2646 H   0  0  0  0  0  0  0  0  0  0  0  0
    0.5563    3.8838   -1.4069 H   0  0  0  0  0  0  0  0  0  0  0  0
  1  2  1  0  0  0  0
  1 12  1  0  0  0  0
  1 13  1  0  0  0  0
  1 14  1  0  0  0  0
  2  3  1  0  0  0  0
  2 11  1  0  0  0  0
  2 15  1  6  0  0  0
  3 10  1  0  0  0  0
  3 16  1  6  0  0  0
  4  9  1  0  0  0  0
  4 17  1  6  0  0  0
  4  5  1  0  0  0  0
  4  3  1  0  0  0  0
  5  6  1  0  0  0  0
  5  8  1  0  0  0  0
  5 18  1  1  0  0  0
  6  7  2  0  0  0  0
  6 19  1  0  0  0  0
  8 20  1  0  0  0  0
  9 21  1  0  0  0  0
 10 22  1  0  0  0  0
 11 23  1  0  0  0  0
 12 24  1  0  0  0  0
M  END
>  <DRUGBANK_ID>
DB12970

>  <COMMON_NAME>
Levoglucose

>  <CAS_NUMBER>
921-60-8

>  <UNII>
02833ISA66

>  <SYNONYMS>
L-glucose; L(-)-Glucose; Levoglucose

$$$$
