
 OpenBabel10282417203D

 27 28  0  0  0  0  0  0  0  0999 V2000
    1.0765   -0.1421    0.0565 C   0  0  0  0  0  0  0  0  0  0  0  0
   -0.7408    0.9226    4.4911 C   0  0  0  0  0  0  0  0  0  0  0  0
    0.1951   -4.4991    4.2253 C   0  0  0  0  0  0  0  0  0  0  0  0
    0.9849   -4.0052    1.8838 C   0  0  0  0  0  0  0  0  0  0  0  0
   -0.8112   -5.5696    3.9163 C   0  0  0  0  0  0  0  0  0  0  0  0
    0.2876   -2.2727    3.0326 C   0  0  0  0  0  0  0  0  0  0  0  0
    0.6810   -1.8983    1.7787 C   0  0  0  0  0  0  0  0  0  0  0  0
   -0.1933   -1.3559    3.9981 C   0  0  0  0  0  0  0  0  0  0  0  0
    0.1403    0.3906    2.2602 C   0  0  0  0  0  0  0  0  0  0  0  0
    1.1206   -2.9759    1.0642 N   0  0  0  0  0  0  0  0  0  0  0  0
    0.6149   -0.5786    1.3662 N   0  0  0  0  0  0  0  0  0  0  0  0
   -0.2505   -0.0461    3.5351 N   0  0  0  0  0  0  0  0  0  0  0  0
    0.4625   -3.6264    3.0962 N   0  0  0  0  0  0  0  0  0  0  0  0
   -0.6230   -6.7713    4.0242 O   0  0  0  0  0  0  0  0  0  0  0  0
   -2.0097   -5.0933    3.5243 O   0  0  0  0  0  0  0  0  0  0  0  0
   -0.5185   -1.6847    5.1386 O   0  0  0  0  0  0  0  0  0  0  0  0
    0.0724    1.5829    1.9478 O   0  0  0  0  0  0  0  0  0  0  0  0
    0.7260    0.8717   -0.1722 H   0  0  0  0  0  0  0  0  0  0  0  0
    0.7074   -0.8064   -0.7293 H   0  0  0  0  0  0  0  0  0  0  0  0
    2.1708   -0.1192    0.0511 H   0  0  0  0  0  0  0  0  0  0  0  0
   -1.7488    0.6256    4.8001 H   0  0  0  0  0  0  0  0  0  0  0  0
   -0.0932    0.9001    5.3744 H   0  0  0  0  0  0  0  0  0  0  0  0
   -0.7710    1.9378    4.0937 H   0  0  0  0  0  0  0  0  0  0  0  0
    1.1443   -4.9563    4.5222 H   0  0  0  0  0  0  0  0  0  0  0  0
   -0.1704   -3.9319    5.0823 H   0  0  0  0  0  0  0  0  0  0  0  0
    1.2401   -5.0349    1.6586 H   0  0  0  0  0  0  0  0  0  0  0  0
   -2.5726   -5.8808    3.3633 H   0  0  0  0  0  0  0  0  0  0  0  0
  1 18  1  0  0  0  0
  1 19  1  0  0  0  0
  1 20  1  0  0  0  0
  2 21  1  0  0  0  0
  2 22  1  0  0  0  0
  2 23  1  0  0  0  0
  3 24  1  0  0  0  0
  3 25  1  0  0  0  0
  4 26  1  0  0  0  0
  5  3  1  0  0  0  0
  7  6  2  0  0  0  0
  8  6  1  0  0  0  0
 10  4  2  0  0  0  0
 10  7  1  0  0  0  0
 11  1  1  0  0  0  0
 11  7  1  0  0  0  0
 11  9  1  0  0  0  0
 12  2  1  0  0  0  0
 12  8  1  0  0  0  0
 12  9  1  0  0  0  0
 13  3  1  0  0  0  0
 13  4  1  0  0  0  0
 13  6  1  0  0  0  0
 14  5  2  0  0  0  0
 15  5  1  0  0  0  0
 15 27  1  0  0  0  0
 16  8  2  0  0  0  0
 17  9  2  0  0  0  0
M  END
>  <DRUGBANK_ID>
DB13573

>  <COMMON_NAME>
Acefylline

>  <CAS_NUMBER>
652-37-9

>  <UNII>
M494UE2YEP

$$$$
