
 OpenBabel10282417233D

 53 56  0  0  1  0  0  0  0  0999 V2000
    3.0522    0.9205    2.9055 H   0  0  0  0  0  0  0  0  0  0  0  0
    2.1784    0.4632    2.4305 C   0  0  1  0  0  0  0  0  0  0  0  0
    1.3982    1.5704    1.8444 O   0  0  0  0  0  0  0  0  0  0  0  0
    0.0603    1.5325    2.3680 C   0  0  1  0  0  0  0  0  0  0  0  0
   -1.0452    1.7426    1.4568 O   0  0  0  0  0  0  0  0  0  0  0  0
   -1.1679    0.9964    0.2906 C   0  0  0  0  0  0  0  0  0  0  0  0
   -1.6642   -0.2680    0.2010 C   0  0  0  0  0  0  0  0  0  0  0  0
   -1.7551   -0.9776   -0.9849 O   0  0  0  0  0  0  0  0  0  0  0  0
   -1.6039   -0.3107   -2.1737 C   0  0  0  0  0  0  0  0  0  0  0  0
   -1.2519    1.0334   -2.2683 C   0  0  0  0  0  0  0  0  0  0  0  0
   -0.9857    1.7705   -1.0005 C   0  0  0  0  0  0  0  0  0  0  0  0
   -0.6985    2.9470   -0.9862 O   0  0  0  0  0  0  0  0  0  0  0  0
   -1.1888    1.6301   -3.5438 C   0  0  0  0  0  0  0  0  0  0  0  0
   -0.8590    2.9488   -3.6905 O   0  0  0  0  0  0  0  0  0  0  0  0
   -1.4739    0.8872   -4.6976 C   0  0  0  0  0  0  0  0  0  0  0  0
   -1.8073   -0.4564   -4.5729 C   0  0  0  0  0  0  0  0  0  0  0  0
   -2.0991   -1.2228   -5.6620 O   0  0  0  0  0  0  0  0  0  0  0  0
   -1.8647   -1.0615   -3.3237 C   0  0  0  0  0  0  0  0  0  0  0  0
   -2.1273   -1.0926    1.3718 C   0  0  0  0  0  0  0  0  0  0  0  0
   -1.4446   -2.2867    1.7287 C   0  0  0  0  0  0  0  0  0  0  0  0
   -1.4914   -2.7839    3.0530 C   0  0  0  0  0  0  0  0  0  0  0  0
   -2.3299   -2.1738    3.9826 C   0  0  0  0  0  0  0  0  0  0  0  0
   -2.2416   -2.4467    5.3268 O   0  0  0  0  0  0  0  0  0  0  0  0
   -3.1259   -1.0887    3.5881 C   0  0  0  0  0  0  0  0  0  0  0  0
   -3.7753   -0.3380    4.5401 O   0  0  0  0  0  0  0  0  0  0  0  0
   -3.0234   -0.5427    2.3017 C   0  0  0  0  0  0  0  0  0  0  0  0
   -0.0043    0.2084    3.0782 C   0  0  2  0  0  0  0  0  0  0  0  0
   -0.8743    0.0778    4.1677 O   0  0  0  0  0  0  0  0  0  0  0  0
    1.3564   -0.1066    3.5808 C   0  0  1  0  0  0  0  0  0  0  0  0
    1.5093   -1.4843    3.9200 O   0  0  0  0  0  0  0  0  0  0  0  0
    2.6879   -0.4987    1.3101 C   0  0  2  0  0  0  0  0  0  0  0  0
    2.1809   -0.0965    0.0250 O   0  0  0  0  0  0  0  0  0  0  0  0
    2.3363   -1.9800    1.4471 C   0  0  0  0  0  0  0  0  0  0  0  0
    2.8080   -2.7570    0.3500 O   0  0  0  0  0  0  0  0  0  0  0  0
   -0.0366    2.3298    3.1141 H   0  0  0  0  0  0  0  0  0  0  0  0
   -0.8544    3.2137   -4.6234 H   0  0  0  0  0  0  0  0  0  0  0  0
   -1.4392    1.3526   -5.6775 H   0  0  0  0  0  0  0  0  0  0  0  0
   -2.0525   -0.6761   -6.4642 H   0  0  0  0  0  0  0  0  0  0  0  0
   -2.1332   -2.1113   -3.2410 H   0  0  0  0  0  0  0  0  0  0  0  0
   -0.6941   -2.6920    1.0516 H   0  0  0  0  0  0  0  0  0  0  0  0
   -0.7510   -3.5143    3.3786 H   0  0  0  0  0  0  0  0  0  0  0  0
   -1.4816   -3.0344    5.4878 H   0  0  0  0  0  0  0  0  0  0  0  0
   -3.4717   -0.7076    5.3932 H   0  0  0  0  0  0  0  0  0  0  0  0
   -3.4717    0.4304    2.1169 H   0  0  0  0  0  0  0  0  0  0  0  0
   -0.1601   -0.5270    2.3130 H   0  0  0  0  0  0  0  0  0  0  0  0
   -1.0986    0.9271    4.5695 H   0  0  0  0  0  0  0  0  0  0  0  0
    1.4933    0.4326    4.5195 H   0  0  0  0  0  0  0  0  0  0  0  0
    0.8637   -2.0113    3.4141 H   0  0  0  0  0  0  0  0  0  0  0  0
    3.7799   -0.4105    1.2687 H   0  0  0  0  0  0  0  0  0  0  0  0
    2.7216   -0.5581   -0.6392 H   0  0  0  0  0  0  0  0  0  0  0  0
    2.7582   -2.4236    2.3488 H   0  0  0  0  0  0  0  0  0  0  0  0
    1.2546   -2.0826    1.4340 H   0  0  0  0  0  0  0  0  0  0  0  0
    2.1976   -2.5951   -0.3903 H   0  0  0  0  0  0  0  0  0  0  0  0
  2  1  1  1  0  0  0
  2  3  1  0  0  0  0
  2 29  1  0  0  0  0
  4  3  1  0  0  0  0
  4  5  1  0  0  0  0
  4 35  1  1  0  0  0
  5  6  1  0  0  0  0
  6  7  2  0  0  0  0
  6 11  1  0  0  0  0
  7  8  1  0  0  0  0
  7 19  1  0  0  0  0
  8  9  1  0  0  0  0
  9 10  2  0  0  0  0
  9 18  1  0  0  0  0
 10 11  1  0  0  0  0
 10 13  1  0  0  0  0
 11 12  2  0  0  0  0
 13 14  1  0  0  0  0
 13 15  2  0  0  0  0
 14 36  1  0  0  0  0
 15 16  1  0  0  0  0
 15 37  1  0  0  0  0
 16 17  1  0  0  0  0
 16 18  2  0  0  0  0
 17 38  1  0  0  0  0
 18 39  1  0  0  0  0
 19 20  2  0  0  0  0
 19 26  1  0  0  0  0
 20 21  1  0  0  0  0
 20 40  1  0  0  0  0
 21 22  2  0  0  0  0
 21 41  1  0  0  0  0
 22 23  1  0  0  0  0
 22 24  1  0  0  0  0
 23 42  1  0  0  0  0
 24 25  1  0  0  0  0
 24 26  2  0  0  0  0
 25 43  1  0  0  0  0
 26 44  1  0  0  0  0
 27  4  1  0  0  0  0
 27 28  1  0  0  0  0
 27 45  1  6  0  0  0
 28 46  1  0  0  0  0
 29 27  1  0  0  0  0
 29 30  1  0  0  0  0
 29 47  1  1  0  0  0
 30 48  1  0  0  0  0
 31 33  1  0  0  0  0
 31 49  1  6  0  0  0
 31 32  1  0  0  0  0
 31  2  1  0  0  0  0
 32 50  1  0  0  0  0
 33 34  1  0  0  0  0
 33 51  1  0  0  0  0
 33 52  1  0  0  0  0
 34 53  1  0  0  0  0
M  END
>  <DRUGBANK_ID>
DB16403

>  <COMMON_NAME>
Isoquercitrin

>  <CAS_NUMBER>
21637-25-2

>  <UNII>
0YX10VRV6J

>  <SYNONYMS>
Isoquercetin enzymatically modified; Isoquercitroside; Isotrifoliin; Isotrifolin; Quercetin 3-(beta-D-glucofuranoside)

$$$$
