
 OpenBabel10282417183D

 29 29  0  0  0  0  0  0  0  0999 V2000
    0.7879   -0.1149    0.1127 C   0  0  0  0  0  0  0  0  0  0  0  0
   -0.2896   -1.1610   -0.3233 C   0  0  0  0  0  0  0  0  0  0  0  0
    0.3152    0.9429    0.5861 O   0  0  0  0  0  0  0  0  0  0  0  0
   -1.0636   -0.9311   -1.4655 C   0  0  0  0  0  0  0  0  0  0  0  0
   -0.4607   -2.4398    0.2688 C   0  0  0  0  0  0  0  0  0  0  0  0
   -1.4990   -3.3450   -1.7666 C   0  0  0  0  0  0  0  0  0  0  0  0
    2.1739   -0.1776    0.0182 O   0  0  0  0  0  0  0  0  0  0  0  0
   -1.5181   -4.3636   -2.7360 N   0  0  0  0  0  0  0  0  0  0  0  0
   -1.7093   -2.0092   -2.1441 C   0  0  0  0  0  0  0  0  0  0  0  0
   -0.8498   -3.5417   -0.5510 C   0  0  0  0  0  0  0  0  0  0  0  0
    3.3247   -0.9745   -0.5928 C   0  0  0  0  0  0  0  0  0  0  0  0
    3.3966   -2.4277   -0.1230 C   0  0  0  0  0  0  0  0  0  0  0  0
    2.0979   -2.9992   -0.5299 C   0  0  0  0  0  0  0  0  0  0  0  0
    1.7228   -2.8245   -2.0079 C   0  0  0  0  0  0  0  0  0  0  0  0
   -1.0903    0.0616   -1.9065 H   0  0  0  0  0  0  0  0  0  0  0  0
    0.0649   -2.6834    1.1962 H   0  0  0  0  0  0  0  0  0  0  0  0
   -2.2719   -4.2990   -3.4114 H   0  0  0  0  0  0  0  0  0  0  0  0
   -1.3596   -5.3161   -2.4214 H   0  0  0  0  0  0  0  0  0  0  0  0
   -2.1973   -1.8055   -3.0929 H   0  0  0  0  0  0  0  0  0  0  0  0
   -0.3461   -4.5071   -0.3963 H   0  0  0  0  0  0  0  0  0  0  0  0
    3.2615   -0.8677   -1.6761 H   0  0  0  0  0  0  0  0  0  0  0  0
    4.2755   -0.4937   -0.3371 H   0  0  0  0  0  0  0  0  0  0  0  0
    4.1732   -3.0702   -0.5352 H   0  0  0  0  0  0  0  0  0  0  0  0
    3.4573   -2.4540    0.9775 H   0  0  0  0  0  0  0  0  0  0  0  0
    1.8666   -3.9759   -0.1044 H   0  0  0  0  0  0  0  0  0  0  0  0
    1.5658   -2.3332    0.1060 H   0  0  0  0  0  0  0  0  0  0  0  0
    2.1013   -3.6449   -2.6017 H   0  0  0  0  0  0  0  0  0  0  0  0
    0.6709   -2.8353   -2.2009 H   0  0  0  0  0  0  0  0  0  0  0  0
    1.9407   -1.8555   -2.4602 H   0  0  0  0  0  0  0  0  0  0  0  0
  2  1  1  0  0  0  0
  3  1  2  0  0  0  0
  4  2  1  0  0  0  0
  4 15  1  0  0  0  0
  5  2  2  0  0  0  0
  5 16  1  0  0  0  0
  6 10  2  0  0  0  0
  7  1  1  0  0  0  0
  8  6  1  0  0  0  0
  8 17  1  0  0  0  0
  8 18  1  0  0  0  0
  9  4  2  0  0  0  0
  9  6  1  0  0  0  0
  9 19  1  0  0  0  0
 10  5  1  0  0  0  0
 10 20  1  0  0  0  0
 11  7  1  0  0  0  0
 11 21  1  0  0  0  0
 11 22  1  0  0  0  0
 12 11  1  0  0  0  0
 12 23  1  0  0  0  0
 12 24  1  0  0  0  0
 13 12  1  0  0  0  0
 13 25  1  0  0  0  0
 13 26  1  0  0  0  0
 14 13  1  0  0  0  0
 14 27  1  0  0  0  0
 14 28  1  0  0  0  0
 14 29  1  0  0  0  0
M  END
>  <DRUGBANK_ID>
DB11148

>  <COMMON_NAME>
Butamben

>  <CAS_NUMBER>
94-25-7

>  <UNII>
EFW857872Q

>  <SYNONYMS>
Butamben; Butyl aminobenzoate

$$$$
