910
 OpenBabel10282417163D

 44 46  0  0  0  0  0  0  0  0999 V2000
    2.6358    0.4145    0.0744 S   0  0  0  0  0  0  0  0  0  0  0  0
    2.1162   -1.2408    0.0177 C   0  0  0  0  0  0  0  0  0  0  0  0
    0.7254   -1.3162   -0.0820 C   0  0  0  0  0  0  0  0  0  0  0  0
    0.1529   -0.0065   -0.2550 C   0  0  0  0  0  0  0  0  0  0  0  0
    1.0478    1.0166   -0.0493 C   0  0  0  0  0  0  0  0  0  0  0  0
    3.1513   -2.2768    0.0536 C   0  0  0  0  0  0  0  0  0  0  0  0
    2.6749   -3.5492    0.0297 O   0  0  0  0  0  0  0  0  0  0  0  0
    4.3689   -2.0824    0.0697 O   0  0  0  0  0  0  0  0  0  0  0  0
    0.7302    2.4510   -0.0089 C   0  0  0  0  0  0  0  0  0  0  0  0
   -0.0934    2.9549    1.0232 C   0  0  0  0  0  0  0  0  0  0  0  0
   -0.4883    4.2996    1.0638 C   0  0  0  0  0  0  0  0  0  0  0  0
   -0.0697    5.1189    0.0163 C   0  0  0  0  0  0  0  0  0  0  0  0
    0.7294    4.6385   -1.0167 C   0  0  0  0  0  0  0  0  0  0  0  0
    1.0875    3.2969   -1.0588 C   0  0  0  0  0  0  0  0  0  0  0  0
   -1.6064    0.4777   -0.8344 Br  0  0  0  0  0  0  0  0  0  0  0  0
    0.1441   -2.5515   -0.0773 O   0  0  0  0  0  0  0  0  0  0  0  0
   -1.2749   -2.5819    0.0077 C   0  0  0  0  0  0  0  0  0  0  0  0
   -1.8911   -2.0831    1.3235 C   0  0  0  0  0  0  0  0  0  0  0  0
   -2.9349   -1.2312    1.2009 O   0  0  0  0  0  0  0  0  0  0  0  0
   -1.4855   -2.4257    2.4252 O   0  0  0  0  0  0  0  0  0  0  0  0
   -1.2256    4.7693    2.1281 N   0  0  0  0  0  0  0  0  0  0  0  0
   -1.6604    6.1463    2.2965 C   0  0  0  0  0  0  0  0  0  0  0  0
   -3.1644    6.2668    2.3351 C   0  0  0  0  0  0  0  0  0  0  0  0
   -3.9987    5.1427    2.4089 C   0  0  0  0  0  0  0  0  0  0  0  0
   -5.3723    5.2816    2.5683 C   0  0  0  0  0  0  0  0  0  0  0  0
   -5.9327    6.5507    2.6599 C   0  0  0  0  0  0  0  0  0  0  0  0
   -5.1212    7.6811    2.5793 C   0  0  0  0  0  0  0  0  0  0  0  0
   -3.7487    7.5429    2.3725 C   0  0  0  0  0  0  0  0  0  0  0  0
    1.6993   -3.6068    0.0355 H   0  0  0  0  0  0  0  0  0  0  0  0
   -0.4599    2.2736    1.7911 H   0  0  0  0  0  0  0  0  0  0  0  0
   -0.3484    6.1641   -0.0342 H   0  0  0  0  0  0  0  0  0  0  0  0
    1.0711    5.3322   -1.7781 H   0  0  0  0  0  0  0  0  0  0  0  0
    1.6102    2.9200   -1.9325 H   0  0  0  0  0  0  0  0  0  0  0  0
   -1.7126   -2.1462   -0.8929 H   0  0  0  0  0  0  0  0  0  0  0  0
   -1.5708   -3.6355   -0.0590 H   0  0  0  0  0  0  0  0  0  0  0  0
   -3.0192   -0.7956    0.3281 H   0  0  0  0  0  0  0  0  0  0  0  0
   -1.4970    4.1221    2.8592 H   0  0  0  0  0  0  0  0  0  0  0  0
   -1.2530    6.5183    3.2437 H   0  0  0  0  0  0  0  0  0  0  0  0
   -1.2893    6.8207    1.5228 H   0  0  0  0  0  0  0  0  0  0  0  0
   -3.5884    4.1395    2.3434 H   0  0  0  0  0  0  0  0  0  0  0  0
   -5.9917    4.3930    2.6413 H   0  0  0  0  0  0  0  0  0  0  0  0
   -7.0051    6.6567    2.7904 H   0  0  0  0  0  0  0  0  0  0  0  0
   -5.5572    8.6696    2.6956 H   0  0  0  0  0  0  0  0  0  0  0  0
   -3.1375    8.4364    2.2542 H   0  0  0  0  0  0  0  0  0  0  0  0
  1  2  1  0  0  0  0
  1  5  1  0  0  0  0
  2  3  2  0  0  0  0
  2  6  1  0  0  0  0
  3  4  1  0  0  0  0
  3 16  1  0  0  0  0
  4  5  2  0  0  0  0
  4 15  1  0  0  0  0
  5  9  1  0  0  0  0
  6  7  1  0  0  0  0
  6  8  2  0  0  0  0
  7 29  1  0  0  0  0
  9 10  1  0  0  0  0
  9 14  2  0  0  0  0
 10 11  2  0  0  0  0
 10 30  1  0  0  0  0
 11 12  1  0  0  0  0
 11 21  1  0  0  0  0
 12 13  2  0  0  0  0
 12 31  1  0  0  0  0
 13 14  1  0  0  0  0
 13 32  1  0  0  0  0
 14 33  1  0  0  0  0
 16 17  1  0  0  0  0
 17 18  1  0  0  0  0
 17 34  1  0  0  0  0
 17 35  1  0  0  0  0
 18 19  1  0  0  0  0
 18 20  2  0  0  0  0
 19 36  1  0  0  0  0
 21 22  1  0  0  0  0
 21 37  1  0  0  0  0
 22 23  1  0  0  0  0
 22 38  1  0  0  0  0
 22 39  1  0  0  0  0
 23 24  2  0  0  0  0
 23 28  1  0  0  0  0
 24 25  1  0  0  0  0
 24 40  1  0  0  0  0
 25 26  2  0  0  0  0
 25 41  1  0  0  0  0
 26 27  1  0  0  0  0
 26 42  1  0  0  0  0
 27 28  2  0  0  0  0
 27 43  1  0  0  0  0
 28 44  1  0  0  0  0
M  END
>  <DRUGBANK_ID>
DB07289

>  <COMMON_NAME>
5-[3-(BENZYLAMINO)PHENYL]-4-BROMO-3-(CARBOXYMETHOXY)THIOPHENE-2-CARBOXYLIC ACID

$$$$
