
 OpenBabel10282417123D

124123  0  0  0  0  0  0  0  0999 V2000
    8.7943   -7.9415   -0.4002 S   0  0  0  0  0  0  0  0  0  0  0  0
    8.0365   -6.1814   -1.7610 S   0  0  0  0  0  0  0  0  0  0  0  0
    8.2666  -11.8859    0.4558 O   0  0  0  0  0  0  0  0  0  0  0  0
    4.0787   -8.8682   -2.1154 O   0  0  0  0  0  0  0  0  0  0  0  0
    7.9700  -11.9603   -5.4277 O   0  0  0  0  0  0  0  0  0  0  0  0
    2.0198   -5.9207    1.2450 O   0  0  0  0  0  0  0  0  0  0  0  0
    3.6491  -12.6005   -3.0988 O   0  0  0  0  0  0  0  0  0  0  0  0
    6.5140   -9.1128    2.7165 O   0  0  0  0  0  0  0  0  0  0  0  0
    6.3644   -9.7197   -0.8679 O   0  0  0  0  0  0  0  0  0  0  0  0
    7.1788   -4.4187    0.0948 O   0  0  0  0  0  0  0  0  0  0  0  0
    6.2583   -7.9217   -2.1235 O   0  0  0  0  0  0  0  0  0  0  0  0
    7.0079   -2.8114   -1.5021 O   0  0  0  0  0  0  0  0  0  0  0  0
    7.9403  -16.1435   -4.1187 N   0  0  0  0  0  0  0  0  0  0  0  0
    1.1369  -10.7527    1.5453 N   0  0  0  0  0  0  0  0  0  0  0  0
    8.8980  -11.5041   -3.4019 N   0  0  0  0  0  0  0  0  0  0  0  0
    3.2471   -6.4651   -0.4859 N   0  0  0  0  0  0  0  0  0  0  0  0
    5.6415  -13.6959   -3.2683 N   0  0  0  0  0  0  0  0  0  0  0  0
    4.4564   -9.4976    1.9108 N   0  0  0  0  0  0  0  0  0  0  0  0
    6.5527  -11.9705   -1.0016 N   0  0  0  0  0  0  0  0  0  0  0  0
    5.2067   -8.0403   -0.1117 N   0  0  0  0  0  0  0  0  0  0  0  0
    5.8032  -17.3936   -7.9869 N   0  0  0  0  0  0  0  0  0  0  0  0
    0.3277  -10.7701    6.0203 N   0  0  0  0  0  0  0  0  0  0  0  0
    8.6095   -8.1398   -3.2203 N   0  0  0  0  0  0  0  0  0  0  0  0
    4.2747   -4.2268   -2.5496 N   0  0  0  0  0  0  0  0  0  0  0  0
    5.9356  -17.2686   -5.0478 C   0  0  0  0  0  0  0  0  0  0  0  0
    1.6642  -11.8787    3.6618 C   0  0  0  0  0  0  0  0  0  0  0  0
    7.4494  -17.3314   -4.7938 C   0  0  0  0  0  0  0  0  0  0  0  0
    0.6145  -11.6072    2.5753 C   0  0  0  0  0  0  0  0  0  0  0  0
    7.2863  -16.0309   -2.8126 C   0  0  0  0  0  0  0  0  0  0  0  0
    2.2757  -11.4270    0.9376 C   0  0  0  0  0  0  0  0  0  0  0  0
    7.6354  -14.7272   -2.1865 C   0  0  0  0  0  0  0  0  0  0  0  0
    2.9248  -10.4512    0.0753 C   0  0  0  0  0  0  0  0  0  0  0  0
    9.0054  -11.1647   -1.7307 C   0  0  1  0  0  0  0  0  0  0  0  0
    4.2088   -6.6228   -1.6823 C   0  0  1  0  0  0  0  0  0  0  0  0
    5.5332  -16.0903   -5.9483 C   0  0  0  0  0  0  0  0  0  0  0  0
    2.1229  -10.6034    4.3880 C   0  0  0  0  0  0  0  0  0  0  0  0
    7.0756  -13.7020   -3.1245 C   0  0  0  0  0  0  0  0  0  0  0  0
    3.3204   -9.3477    1.0230 C   0  0  0  0  0  0  0  0  0  0  0  0
    9.5010   -9.7034   -1.4002 C   0  0  0  0  0  0  0  0  0  0  0  0
    5.9400   -6.0669   -1.7875 C   0  0  0  0  0  0  0  0  0  0  0  0
    7.8818   -9.6449   -5.0724 C   0  0  0  0  0  0  0  0  0  0  0  0
    2.5187   -4.1667   -0.3257 C   0  0  0  0  0  0  0  0  0  0  0  0
    6.7750   -9.0290   -4.2751 C   0  0  0  0  0  0  0  0  0  0  0  0
    3.8600   -3.4235   -0.2226 C   0  0  0  0  0  0  0  0  0  0  0  0
    6.1972  -16.1629   -7.3176 C   0  0  0  0  0  0  0  0  0  0  0  0
    0.9581   -9.8825    5.0539 C   0  0  0  0  0  0  0  0  0  0  0  0
    7.9353  -11.7647   -0.7289 C   0  0  0  0  0  0  0  0  0  0  0  0
    4.3994   -7.9786   -1.3171 C   0  0  0  0  0  0  0  0  0  0  0  0
    8.2708  -11.0817   -4.6120 C   0  0  0  0  0  0  0  0  0  0  0  0
    2.5601   -5.5527    0.2032 C   0  0  0  0  0  0  0  0  0  0  0  0
    7.5230   -9.1689   -3.0314 C   0  0  2  0  0  0  0  0  0  0  0  0
    4.8760   -4.1088   -1.0319 C   0  0  2  0  0  0  0  0  0  0  0  0
    5.6180  -11.6139   -2.2175 C   0  0  0  0  0  0  0  0  0  0  0  0
    5.6931   -7.4488    1.1311 C   0  0  0  0  0  0  0  0  0  0  0  0
    4.8415  -12.6914   -2.8494 C   0  0  0  0  0  0  0  0  0  0  0  0
    5.5806   -8.7073    2.0227 C   0  0  0  0  0  0  0  0  0  0  0  0
    6.7023   -9.0621   -1.9238 C   0  0  0  0  0  0  0  0  0  0  0  0
    6.4524   -3.6681   -0.8350 C   0  0  0  0  0  0  0  0  0  0  0  0
    7.7364  -15.3506   -4.7315 H   0  0  0  0  0  0  0  0  0  0  0  0
    1.3741   -9.8622    1.9860 H   0  0  0  0  0  0  0  0  0  0  0  0
    9.1201  -12.4838   -3.5124 H   0  0  0  0  0  0  0  0  0  0  0  0
    3.1198   -7.2699    0.1012 H   0  0  0  0  0  0  0  0  0  0  0  0
    5.1642  -14.3665   -3.8445 H   0  0  0  0  0  0  0  0  0  0  0  0
    4.4002  -10.1964    2.6361 H   0  0  0  0  0  0  0  0  0  0  0  0
    6.0575  -12.4226   -0.2269 H   0  0  0  0  0  0  0  0  0  0  0  0
    5.7260   -8.8858   -0.1033 H   0  0  0  0  0  0  0  0  0  0  0  0
    6.2995  -17.4752   -8.8700 H   0  0  0  0  0  0  0  0  0  0  0  0
    6.0890  -18.2025   -7.4369 H   0  0  0  0  0  0  0  0  0  0  0  0
   -0.4936  -10.3177    6.4119 H   0  0  0  0  0  0  0  0  0  0  0  0
   -0.0215  -11.6069    5.5543 H   0  0  0  0  0  0  0  0  0  0  0  0
    8.8284   -7.7160   -2.2993 H   0  0  0  0  0  0  0  0  0  0  0  0
    9.5375   -8.3905   -3.5508 H   0  0  0  0  0  0  0  0  0  0  0  0
    4.7436   -4.8660   -3.2215 H   0  0  0  0  0  0  0  0  0  0  0  0
    3.3628   -4.7132   -2.5763 H   0  0  0  0  0  0  0  0  0  0  0  0
    6.3055  -10.6098   -0.4378 H   0  0  0  0  0  0  0  0  0  0  0  0
    7.5942   -5.2742   -0.2407 H   0  0  0  0  0  0  0  0  0  0  0  0
    5.6169  -18.2182   -5.4813 H   0  0  0  0  0  0  0  0  0  0  0  0
    5.3679  -17.2173   -4.1132 H   0  0  0  0  0  0  0  0  0  0  0  0
    1.2433  -12.6027    4.3578 H   0  0  0  0  0  0  0  0  0  0  0  0
    2.5457  -12.3975    3.2708 H   0  0  0  0  0  0  0  0  0  0  0  0
    7.9995  -17.4296   -5.7340 H   0  0  0  0  0  0  0  0  0  0  0  0
    7.7154  -18.2012   -4.1925 H   0  0  0  0  0  0  0  0  0  0  0  0
   -0.2716  -11.1147    2.9787 H   0  0  0  0  0  0  0  0  0  0  0  0
    0.2821  -12.5236    2.0908 H   0  0  0  0  0  0  0  0  0  0  0  0
    7.5631  -16.8527   -2.1606 H   0  0  0  0  0  0  0  0  0  0  0  0
    6.1961  -16.0188   -2.8888 H   0  0  0  0  0  0  0  0  0  0  0  0
    1.9936  -12.3090    0.3739 H   0  0  0  0  0  0  0  0  0  0  0  0
    3.0758  -11.6902    1.6343 H   0  0  0  0  0  0  0  0  0  0  0  0
    8.7184  -14.6015   -2.0611 H   0  0  0  0  0  0  0  0  0  0  0  0
    7.1797  -14.6280   -1.1938 H   0  0  0  0  0  0  0  0  0  0  0  0
    2.2679  -10.0811   -0.7326 H   0  0  0  0  0  0  0  0  0  0  0  0
    3.7863  -10.9032   -0.4119 H   0  0  0  0  0  0  0  0  0  0  0  0
    9.9270  -11.7147   -1.5187 H   0  0  0  0  0  0  0  0  0  0  0  0
    3.6241   -6.6414   -2.6150 H   0  0  0  0  0  0  0  0  0  0  0  0
    4.4414  -16.0604   -6.0452 H   0  0  0  0  0  0  0  0  0  0  0  0
    5.8109  -15.1345   -5.4977 H   0  0  0  0  0  0  0  0  0  0  0  0
    2.8943  -10.8615    5.1233 H   0  0  0  0  0  0  0  0  0  0  0  0
    2.6048   -9.9009    3.7021 H   0  0  0  0  0  0  0  0  0  0  0  0
    7.5433  -13.6709   -4.0986 H   0  0  0  0  0  0  0  0  0  0  0  0
    7.3917  -12.8031   -2.6827 H   0  0  0  0  0  0  0  0  0  0  0  0
    2.5835   -8.6604    1.4339 H   0  0  0  0  0  0  0  0  0  0  0  0
    3.5781   -8.8067    0.2064 H   0  0  0  0  0  0  0  0  0  0  0  0
    9.5211   -9.5946   -2.4478 H   0  0  0  0  0  0  0  0  0  0  0  0
   10.5595   -9.4991   -1.4127 H   0  0  0  0  0  0  0  0  0  0  0  0
    6.0785   -6.0574   -0.7301 H   0  0  0  0  0  0  0  0  0  0  0  0
    6.0834   -5.2243   -2.4303 H   0  0  0  0  0  0  0  0  0  0  0  0
    8.8224   -9.0879   -5.0553 H   0  0  0  0  0  0  0  0  0  0  0  0
    7.5758   -9.5408   -6.0992 H   0  0  0  0  0  0  0  0  0  0  0  0
    2.1556   -4.2936   -1.3479 H   0  0  0  0  0  0  0  0  0  0  0  0
    1.7535   -3.6304    0.2176 H   0  0  0  0  0  0  0  0  0  0  0  0
    6.5473   -7.9559   -4.4313 H   0  0  0  0  0  0  0  0  0  0  0  0
    5.8067   -9.5417   -4.2743 H   0  0  0  0  0  0  0  0  0  0  0  0
    3.8552   -2.4341   -0.6523 H   0  0  0  0  0  0  0  0  0  0  0  0
    4.2440   -3.4466    0.8063 H   0  0  0  0  0  0  0  0  0  0  0  0
    5.9075  -15.2954   -7.9162 H   0  0  0  0  0  0  0  0  0  0  0  0
    7.2878  -16.1193   -7.2223 H   0  0  0  0  0  0  0  0  0  0  0  0
    1.3152   -8.9752    5.5472 H   0  0  0  0  0  0  0  0  0  0  0  0
    0.2252   -9.5575    4.3070 H   0  0  0  0  0  0  0  0  0  0  0  0
    7.6548  -10.1558   -2.7512 H   0  0  0  0  0  0  0  0  0  0  0  0
    4.8181   -5.0062   -0.4130 H   0  0  0  0  0  0  0  0  0  0  0  0
    4.8747  -10.8652   -1.9827 H   0  0  0  0  0  0  0  0  0  0  0  0
    6.1962  -11.2239   -3.0422 H   0  0  0  0  0  0  0  0  0  0  0  0
    6.7732   -7.2599    1.0864 H   0  0  0  0  0  0  0  0  0  0  0  0
    5.1759   -6.5336    1.3611 H   0  0  0  0  0  0  0  0  0  0  0  0
  1  2  1  0  0  0  0
  1 39  1  0  0  0  0
  2 40  1  0  0  0  0
  3 47  2  0  0  0  0
  4 48  2  0  0  0  0
  5 49  2  0  0  0  0
  6 50  2  0  0  0  0
  7 55  2  0  0  0  0
  8 56  2  0  0  0  0
  9 57  1  0  0  0  0
  9 75  1  0  0  0  0
 10 58  1  0  0  0  0
 10 76  1  0  0  0  0
 11 57  2  0  0  0  0
 12 58  2  0  0  0  0
 13 27  1  0  0  0  0
 13 29  1  0  0  0  0
 13 59  1  0  0  0  0
 14 28  1  0  0  0  0
 14 30  1  0  0  0  0
 14 60  1  0  0  0  0
 15 49  1  0  0  0  0
 15 61  1  0  0  0  0
 16 50  1  0  0  0  0
 16 62  1  0  0  0  0
 17 37  1  0  0  0  0
 17 55  1  0  0  0  0
 17 63  1  0  0  0  0
 18 38  1  0  0  0  0
 18 56  1  0  0  0  0
 18 64  1  0  0  0  0
 19 47  1  0  0  0  0
 19 53  1  0  0  0  0
 19 65  1  0  0  0  0
 20 48  1  0  0  0  0
 20 54  1  0  0  0  0
 20 66  1  0  0  0  0
 21 45  1  0  0  0  0
 21 67  1  0  0  0  0
 21 68  1  0  0  0  0
 22 46  1  0  0  0  0
 22 69  1  0  0  0  0
 22 70  1  0  0  0  0
 23 71  1  0  0  0  0
 23 72  1  0  0  0  0
 24 73  1  0  0  0  0
 24 74  1  0  0  0  0
 25 27  1  0  0  0  0
 25 35  1  0  0  0  0
 25 77  1  0  0  0  0
 25 78  1  0  0  0  0
 26 28  1  0  0  0  0
 26 36  1  0  0  0  0
 26 79  1  0  0  0  0
 26 80  1  0  0  0  0
 27 81  1  0  0  0  0
 27 82  1  0  0  0  0
 28 83  1  0  0  0  0
 28 84  1  0  0  0  0
 29 31  1  0  0  0  0
 29 85  1  0  0  0  0
 29 86  1  0  0  0  0
 30 32  1  0  0  0  0
 30 87  1  0  0  0  0
 30 88  1  0  0  0  0
 31 37  1  0  0  0  0
 31 89  1  0  0  0  0
 31 90  1  0  0  0  0
 32 38  1  0  0  0  0
 32 91  1  0  0  0  0
 32 92  1  0  0  0  0
 33 47  1  0  0  0  0
 33 93  1  1  0  0  0
 33 39  1  0  0  0  0
 33 15  1  0  0  0  0
 34 48  1  0  0  0  0
 34 94  1  6  0  0  0
 34 40  1  0  0  0  0
 34 16  1  0  0  0  0
 35 45  1  0  0  0  0
 35 95  1  0  0  0  0
 35 96  1  0  0  0  0
 36 46  1  0  0  0  0
 36 97  1  0  0  0  0
 36 98  1  0  0  0  0
 37 99  1  0  0  0  0
 37100  1  0  0  0  0
 38101  1  0  0  0  0
 38102  1  0  0  0  0
 39103  1  0  0  0  0
 39104  1  0  0  0  0
 40105  1  0  0  0  0
 40106  1  0  0  0  0
 41 43  1  0  0  0  0
 41 49  1  0  0  0  0
 41107  1  0  0  0  0
 41108  1  0  0  0  0
 42 44  1  0  0  0  0
 42 50  1  0  0  0  0
 42109  1  0  0  0  0
 42110  1  0  0  0  0
 43 51  1  0  0  0  0
 43111  1  0  0  0  0
 43112  1  0  0  0  0
 44 52  1  0  0  0  0
 44113  1  0  0  0  0
 44114  1  0  0  0  0
 45115  1  0  0  0  0
 45116  1  0  0  0  0
 46117  1  0  0  0  0
 46118  1  0  0  0  0
 51 23  1  0  0  0  0
 51 57  1  0  0  0  0
 51119  1  1  0  0  0
 52 24  1  0  0  0  0
 52 58  1  0  0  0  0
 52120  1  1  0  0  0
 53 55  1  0  0  0  0
 53121  1  0  0  0  0
 53122  1  0  0  0  0
 54 56  1  0  0  0  0
 54123  1  0  0  0  0
 54124  1  0  0  0  0
M  END
>  <DRUGBANK_ID>
DB02553

>  <SECONDARY_ACCESSION_NUMBERS>
EXPT03119

>  <COMMON_NAME>
Glutathionylspermidine disulfide

$$$$
