
 OpenBabel10282417233D

168177  0  0  1  0  0  0  0  0999 V2000
    6.4137    3.0282   -0.2206 C   0  0  0  0  0  0  0  0  0  0  0  0
    5.8606    2.7739    2.3451 O   0  0  0  0  0  0  0  0  0  0  0  0
    5.3532    2.7797    4.9396 C   0  0  1  0  0  0  0  0  0  0  0  0
    3.7475    2.8239    7.7765 C   0  0  0  0  0  0  0  0  0  0  0  0
    2.5832    2.9754   10.0077 C   0  0  0  0  0  0  0  0  0  0  0  0
    1.5695    3.4631   12.4980 O   0  0  0  0  0  0  0  0  0  0  0  0
    0.8465    4.2034   14.9198 C   0  0  1  0  0  0  0  0  0  0  0  0
    0.5422    5.3403   17.2016 C   0  0  0  0  0  0  0  0  0  0  0  0
    1.8780    4.1382   16.2065 O   0  0  0  0  0  0  0  0  0  0  0  0
    2.5767    4.5991   15.1625 C   0  0  0  0  0  0  0  0  0  0  0  0
    1.8763    5.5605   14.4358 C   0  0  0  0  0  0  0  0  0  0  0  0
    0.5568    5.7310   15.0567 C   0  0  0  0  0  0  0  0  0  0  0  0
   -0.3893    6.4744   14.8370 O   0  0  0  0  0  0  0  0  0  0  0  0
    2.4271    6.1042   13.2897 C   0  0  0  0  0  0  0  0  0  0  0  0
    3.7419    5.6839   12.8847 C   0  0  0  0  0  0  0  0  0  0  0  0
    4.4319    4.7196   13.6431 C   0  0  0  0  0  0  0  0  0  0  0  0
    5.7160    4.3060   13.2573 O   0  0  0  0  0  0  0  0  0  0  0  0
    3.8436    4.1812   14.7748 C   0  0  0  0  0  0  0  0  0  0  0  0
    4.5926    3.1586   15.5619 C   0  0  0  0  0  0  0  0  0  0  0  0
    4.3187    6.2391   11.7351 C   0  0  0  0  0  0  0  0  0  0  0  0
    5.6035    5.8594   11.3160 O   0  0  0  0  0  0  0  0  0  0  0  0
    3.5999    7.2013   10.9920 C   0  0  0  0  0  0  0  0  0  0  0  0
    4.0613    7.6886    9.6977 N   0  0  0  0  0  0  0  0  0  0  0  0
    4.5369    6.7611    8.7039 C   0  0  0  0  0  0  0  0  0  0  0  0
    4.5755    5.5420    8.9146 O   0  0  0  0  0  0  0  0  0  0  0  0
    5.0300    7.3136    7.3629 C   0  0  0  0  0  0  0  0  0  0  0  0
    4.9504    8.7784    7.0518 C   0  0  0  0  0  0  0  0  0  0  0  0
    5.8703    6.5180    6.5861 C   0  0  0  0  0  0  0  0  0  0  0  0
    6.0569    6.9678    5.1471 C   0  0  0  0  0  0  0  0  0  0  0  0
    6.3551    6.1767    4.1052 C   0  0  0  0  0  0  0  0  0  0  0  0
    6.8270    6.6539    2.7709 C   0  0  2  0  0  0  0  0  0  0  0  0
    5.8297    6.4254    1.6876 C   0  0  0  0  0  0  0  0  0  0  0  0
    8.2959    6.2600    2.5277 C   0  0  2  0  0  0  0  0  0  0  0  0
    8.7390    6.7797    1.2794 O   0  0  0  0  0  0  0  0  0  0  0  0
    8.4509    4.7840    2.5883 C   0  0  1  0  0  0  0  0  0  0  0  0
    8.0534    4.2280    3.9196 C   0  0  0  0  0  0  0  0  0  0  0  0
    7.6747    4.3548    1.4549 C   0  0  1  0  0  0  0  0  0  0  0  0
    6.4361    4.2513    1.5087 O   0  0  0  0  0  0  0  0  0  0  0  0
    8.1028    4.7482    0.2609 C   0  0  2  0  0  0  0  0  0  0  0  0
    7.0325    4.3827   -0.3811 C   0  0  0  0  0  0  0  0  0  0  0  0
    8.8529    3.7386    0.8364 C   0  0  2  0  0  0  0  0  0  0  0  0
    9.7922    4.5855   -1.0670 O   0  0  0  0  0  0  0  0  0  0  0  0
   11.0840    4.2589   -2.0113 C   0  0  0  0  0  0  0  0  0  0  0  0
   11.9071    3.1753   -1.3432 C   0  0  0  0  0  0  0  0  0  0  0  0
   11.4351    4.6939   -3.1262 O   0  0  0  0  0  0  0  0  0  0  0  0
    7.3322    2.8374    2.8346 C   0  0  1  0  0  0  0  0  0  0  0  0
    9.1298    2.1563    1.5217 C   0  0  0  0  0  0  0  0  0  0  0  0
    2.3145    7.6094   11.4116 C   0  0  0  0  0  0  0  0  0  0  0  0
    1.5439    8.6327   10.6226 C   0  0  0  0  0  0  0  0  0  0  0  0
    0.3465    9.0264   10.9884 N   0  0  0  0  0  0  0  0  0  0  0  0
   -0.3357    9.9829   10.2361 N   0  0  0  0  0  0  0  0  0  0  0  0
   -1.0795   11.1183   10.7985 C   0  0  0  0  0  0  0  0  0  0  0  0
   -2.5391   11.0522   10.4539 C   0  0  0  0  0  0  0  0  0  0  0  0
   -2.7591   10.9711    8.9547 C   0  0  3  0  0  0  0  0  0  0  0  0
   -1.8910    9.8863    8.3313 C   0  0  0  0  0  0  0  0  0  0  0  0
   -0.4621    9.9974    8.7851 C   0  0  0  0  0  0  0  0  0  0  0  0
   -4.1415   10.7302    8.7011 N   0  0  0  0  0  0  0  0  0  0  0  0
   -4.3059   10.7294    7.1649 C   0  0  0  0  0  0  0  0  0  0  0  0
   -4.5753    9.4247    9.2786 C   0  0  0  0  0  0  0  0  0  0  0  0
   -4.4584    9.1787   10.7861 C   0  0  0  0  0  0  0  0  0  0  0  0
   -3.4956    8.4681    9.8646 C   0  0  0  0  0  0  0  0  0  0  0  0
   -5.7382    9.1431    8.3570 C   0  0  2  0  0  0  0  0  0  0  0  0
   -7.0832    9.8645    8.1178 C   0  0  0  0  0  0  0  0  0  0  0  0
   -8.0142    8.8084    8.6247 C   0  0  0  0  0  0  0  0  0  0  0  0
   -7.4407    7.5806    8.0557 N   0  0  0  0  0  0  0  0  0  0  0  0
   -5.9489    7.7341    8.0421 C   0  0  0  0  0  0  0  0  0  0  0  0
   -8.1757    6.4387    7.5995 C   0  0  0  0  0  0  0  0  0  0  0  0
   -7.9751    5.2283    8.1419 C   0  0  0  0  0  0  0  0  0  0  0  0
   -6.9539    5.1053    9.2608 C   0  0  0  0  0  0  0  0  0  0  0  0
   -8.7101    4.0582    7.6847 C   0  0  0  0  0  0  0  0  0  0  0  0
   -8.4826    2.8101    8.2573 C   0  0  0  0  0  0  0  0  0  0  0  0
   -9.2352    1.7165    7.7794 C   0  0  0  0  0  0  0  0  0  0  0  0
  -10.1369    1.8399    6.7838 C   0  0  0  0  0  0  0  0  0  0  0  0
  -10.9351    0.6710    6.2569 C   0  0  0  0  0  0  0  0  0  0  0  0
  -10.7068   -0.5783    6.8477 O   0  0  0  0  0  0  0  0  0  0  0  0
  -11.7582    0.7974    5.3434 O   0  0  0  0  0  0  0  0  0  0  0  0
  -10.3755    3.1331    6.1697 C   0  0  0  0  0  0  0  0  0  0  0  0
  -11.1997    3.2304    5.2632 O   0  0  0  0  0  0  0  0  0  0  0  0
   -9.6459    4.2164    6.6481 N   0  0  0  0  0  0  0  0  0  0  0  0
   -9.8383    5.4965    6.0953 C   0  0  0  0  0  0  0  0  0  0  0  0
   -9.1428    6.5604    6.5364 C   0  0  0  0  0  0  0  0  0  0  0  0
   -9.3206    7.7771    5.9953 F   0  0  0  0  0  0  0  0  0  0  0  0
   -7.5090    2.6039    9.3719 C   0  0  0  0  0  0  0  0  0  0  0  0
   -6.2181    1.8185    9.5780 C   0  0  0  0  0  0  0  0  0  0  0  0
   -7.4247    1.5719   10.4757 C   0  0  0  0  0  0  0  0  0  0  0  0
    1.7286    7.0640   12.5370 C   0  0  0  0  0  0  0  0  0  0  0  0
    0.4548    7.4691   12.9252 O   0  0  0  0  0  0  0  0  0  0  0  0
    7.0621    3.2226   -2.1481 H   0  0  0  0  0  0  0  0  0  0  0  0
    7.7719    4.2904   -1.1992 H   0  0  0  0  0  0  0  0  0  0  0  0
    5.9306    3.7041   -1.7250 H   0  0  0  0  0  0  0  0  0  0  0  0
    6.1613    2.5075    3.3487 H   0  0  0  0  0  0  0  0  0  0  0  0
    2.6803    2.5888    9.3333 H   0  0  0  0  0  0  0  0  0  0  0  0
    1.3165    2.7131   11.6745 H   0  0  0  0  0  0  0  0  0  0  0  0
    1.3079    6.2507   17.6723 H   0  0  0  0  0  0  0  0  0  0  0  0
   -0.4360    6.0516   17.6311 H   0  0  0  0  0  0  0  0  0  0  0  0
    0.5681    4.8510   18.4260 H   0  0  0  0  0  0  0  0  0  0  0  0
    6.1916    3.6283   13.7955 H   0  0  0  0  0  0  0  0  0  0  0  0
    4.8135    2.2992   14.9427 H   0  0  0  0  0  0  0  0  0  0  0  0
    5.5225    3.5776   15.9233 H   0  0  0  0  0  0  0  0  0  0  0  0
    4.0013    2.8404   16.4044 H   0  0  0  0  0  0  0  0  0  0  0  0
    6.0928    5.1726   11.8424 H   0  0  0  0  0  0  0  0  0  0  0  0
    4.0114    8.6950    9.5166 H   0  0  0  0  0  0  0  0  0  0  0  0
    5.9447    9.1466    6.8264 H   0  0  0  0  0  0  0  0  0  0  0  0
    4.3102    8.9703    6.1998 H   0  0  0  0  0  0  0  0  0  0  0  0
    4.5692    9.3155    7.9002 H   0  0  0  0  0  0  0  0  0  0  0  0
    5.5190    5.3884    6.6163 H   0  0  0  0  0  0  0  0  0  0  0  0
    4.9698    6.4774    5.6309 H   0  0  0  0  0  0  0  0  0  0  0  0
    6.2282    5.1880    4.3625 H   0  0  0  0  0  0  0  0  0  0  0  0
    6.7367    7.7059    2.7274 H   0  0  0  0  0  0  0  0  0  0  0  0
    6.3857    6.3765    0.6901 H   0  0  0  0  0  0  0  0  0  0  0  0
    5.4651    5.1435    2.0195 H   0  0  0  0  0  0  0  0  0  0  0  0
    4.8564    6.3358    1.6737 H   0  0  0  0  0  0  0  0  0  0  0  0
    8.8951    6.6926    3.3047 H   0  0  0  0  0  0  0  0  0  0  0  0
    9.6467    6.5653    0.9669 H   0  0  0  0  0  0  0  0  0  0  0  0
    9.4768    4.4921    2.4221 H   0  0  0  0  0  0  0  0  0  0  0  0
    8.1294    3.1621    4.0085 H   0  0  0  0  0  0  0  0  0  0  0  0
    8.5839    4.6529    4.6945 H   0  0  0  0  0  0  0  0  0  0  0  0
    7.0657    4.3056    4.0067 H   0  0  0  0  0  0  0  0  0  0  0  0
    7.4472    3.4420    1.3837 H   0  0  0  0  0  0  0  0  0  0  0  0
    6.5929    5.2188    1.4490 H   0  0  0  0  0  0  0  0  0  0  0  0
    7.9600    5.7293    0.0670 H   0  0  0  0  0  0  0  0  0  0  0  0
    7.5677    4.4106   -2.2000 H   0  0  0  0  0  0  0  0  0  0  0  0
    7.7431    3.0786   -0.3717 H   0  0  0  0  0  0  0  0  0  0  0  0
    6.1403    4.5600   -0.7706 H   0  0  0  0  0  0  0  0  0  0  0  0
   10.0794    4.6755    0.7068 H   0  0  0  0  0  0  0  0  0  0  0  0
   11.9305    2.2872   -1.9610 H   0  0  0  0  0  0  0  0  0  0  0  0
   12.9197    3.5151   -1.1786 H   0  0  0  0  0  0  0  0  0  0  0  0
   11.5094    2.9354   -0.3890 H   0  0  0  0  0  0  0  0  0  0  0  0
    8.8809    2.7315    1.4145 H   0  0  0  0  0  0  0  0  0  0  0  0
    9.3049    1.1259    1.3020 H   0  0  0  0  0  0  0  0  0  0  0  0
    9.8721    2.6681    2.1218 H   0  0  0  0  0  0  0  0  0  0  0  0
    8.0204    2.2143    1.4125 H   0  0  0  0  0  0  0  0  0  0  0  0
    2.0054    9.0628    9.7347 H   0  0  0  0  0  0  0  0  0  0  0  0
   -0.6858   12.0374   10.3747 H   0  0  0  0  0  0  0  0  0  0  0  0
   -0.9616   11.1403   11.8683 H   0  0  0  0  0  0  0  0  0  0  0  0
   -3.0556   11.9101   10.8462 H   0  0  0  0  0  0  0  0  0  0  0  0
   -2.9159   10.1785   10.9224 H   0  0  0  0  0  0  0  0  0  0  0  0
   -2.4882   11.9167    8.5135 H   0  0  0  0  0  0  0  0  0  0  0  0
   -2.2471    8.9206    8.5613 H   0  0  0  0  0  0  0  0  0  0  0  0
   -1.9585    9.9183    7.2663 H   0  0  0  0  0  0  0  0  0  0  0  0
    0.0995    9.1753    8.3787 H   0  0  0  0  0  0  0  0  0  0  0  0
   -0.0703   10.9337    8.4066 H   0  0  0  0  0  0  0  0  0  0  0  0
   -3.7860    9.8540    6.7862 H   0  0  0  0  0  0  0  0  0  0  0  0
   -5.4478   10.5761    6.8592 H   0  0  0  0  0  0  0  0  0  0  0  0
   -4.1151   11.6138    6.7651 H   0  0  0  0  0  0  0  0  0  0  0  0
   -4.2966    9.8779   11.6245 H   0  0  0  0  0  0  0  0  0  0  0  0
   -5.1713    8.6476   11.3340 H   0  0  0  0  0  0  0  0  0  0  0  0
   -3.2059    7.4488    9.6919 H   0  0  0  0  0  0  0  0  0  0  0  0
   -2.4507    8.7521    9.8942 H   0  0  0  0  0  0  0  0  0  0  0  0
   -5.2356    9.6756    7.7768 H   0  0  0  0  0  0  0  0  0  0  0  0
   -7.3072   10.1286    7.0707 H   0  0  0  0  0  0  0  0  0  0  0  0
   -7.1716   10.7879    8.6538 H   0  0  0  0  0  0  0  0  0  0  0  0
   -8.0623    8.8016    9.7120 H   0  0  0  0  0  0  0  0  0  0  0  0
   -9.0241    8.9722    8.3034 H   0  0  0  0  0  0  0  0  0  0  0  0
   -5.5086    7.3933    7.1192 H   0  0  0  0  0  0  0  0  0  0  0  0
   -5.4881    7.1617    8.8320 H   0  0  0  0  0  0  0  0  0  0  0  0
   -7.4484    4.7369   10.1825 H   0  0  0  0  0  0  0  0  0  0  0  0
   -6.1863    4.3787    8.9704 H   0  0  0  0  0  0  0  0  0  0  0  0
   -6.5210    6.0127    9.4944 H   0  0  0  0  0  0  0  0  0  0  0  0
   -9.0555    0.7618    8.2369 H   0  0  0  0  0  0  0  0  0  0  0  0
  -10.0537   -0.6970    7.5774 H   0  0  0  0  0  0  0  0  0  0  0  0
  -10.5709    5.6121    5.2945 H   0  0  0  0  0  0  0  0  0  0  0  0
   -7.6840    3.5964    9.3508 H   0  0  0  0  0  0  0  0  0  0  0  0
   -5.6370    1.1724    8.9282 H   0  0  0  0  0  0  0  0  0  0  0  0
   -5.3232    2.2743    9.9706 H   0  0  0  0  0  0  0  0  0  0  0  0
   -7.5566    1.5959   11.5552 H   0  0  0  0  0  0  0  0  0  0  0  0
   -7.9962    0.6694   10.3953 H   0  0  0  0  0  0  0  0  0  0  0  0
   -0.0344    8.1502   12.3886 H   0  0  0  0  0  0  0  0  0  0  0  0
  1  2  1  0  0  0  0
  1 88  1  0  0  0  0
  1 89  1  0  0  0  0
  1 90  1  0  0  0  0
  3  4  1  0  0  0  0
  3 91  1  6  0  0  0
  3  2  1  0  0  0  0
  4  5  2  0  0  0  0
  4 92  1  0  0  0  0
  5  6  1  0  0  0  0
  5 93  1  0  0  0  0
  7  6  1  0  0  0  0
  7  8  1  1  0  0  0
  7  9  1  0  0  0  0
  7 12  1  0  0  0  0
  8 94  1  0  0  0  0
  8 95  1  0  0  0  0
  8 96  1  0  0  0  0
  9 10  1  0  0  0  0
 10 11  2  0  0  0  0
 10 18  1  0  0  0  0
 11 12  1  0  0  0  0
 11 14  1  0  0  0  0
 12 13  2  0  0  0  0
 14 15  2  0  0  0  0
 14 86  1  0  0  0  0
 15 16  1  0  0  0  0
 15 20  1  0  0  0  0
 16 17  1  0  0  0  0
 16 18  2  0  0  0  0
 17 97  1  0  0  0  0
 18 19  1  0  0  0  0
 19 98  1  0  0  0  0
 19 99  1  0  0  0  0
 19100  1  0  0  0  0
 20 21  1  0  0  0  0
 20 22  2  0  0  0  0
 21101  1  0  0  0  0
 22 23  1  0  0  0  0
 22 48  1  0  0  0  0
 23 24  1  0  0  0  0
 23102  1  0  0  0  0
 24 25  2  0  0  0  0
 24 26  1  0  0  0  0
 26 27  1  0  0  0  0
 26 28  2  3  0  0  0
 27103  1  0  0  0  0
 27104  1  0  0  0  0
 27105  1  0  0  0  0
 28 29  1  0  0  0  0
 28106  1  0  0  0  0
 29 30  2  0  0  0  0
 29107  1  0  0  0  0
 30108  1  0  0  0  0
 31 30  1  0  0  0  0
 31109  1  1  0  0  0
 31 32  1  0  0  0  0
 32110  1  0  0  0  0
 32111  1  0  0  0  0
 32112  1  0  0  0  0
 33 31  1  0  0  0  0
 33 35  1  0  0  0  0
 33113  1  1  0  0  0
 33 34  1  0  0  0  0
 34114  1  0  0  0  0
 35 36  1  0  0  0  0
 35 37  1  0  0  0  0
 35115  1  6  0  0  0
 36116  1  0  0  0  0
 36117  1  0  0  0  0
 36118  1  0  0  0  0
 37 38  1  0  0  0  0
 37 39  1  0  0  0  0
 37119  1  6  0  0  0
 38120  1  0  0  0  0
 39 41  1  0  0  0  0
 39121  1  6  0  0  0
 39 40  1  0  0  0  0
 40122  1  0  0  0  0
 40123  1  0  0  0  0
 40124  1  0  0  0  0
 41 46  1  0  0  0  0
 41125  1  1  0  0  0
 41 42  1  0  0  0  0
 42 43  1  0  0  0  0
 43 44  1  0  0  0  0
 43 45  2  0  0  0  0
 44126  1  0  0  0  0
 44127  1  0  0  0  0
 44128  1  0  0  0  0
 46  3  1  0  0  0  0
 46 47  1  0  0  0  0
 46129  1  6  0  0  0
 47130  1  0  0  0  0
 47131  1  0  0  0  0
 47132  1  0  0  0  0
 48 49  1  0  0  0  0
 48 86  2  0  0  0  0
 49 50  2  0  0  0  0
 49133  1  0  0  0  0
 50 51  1  0  0  0  0
 51 52  1  0  0  0  0
 51 56  1  0  0  0  0
 52 53  1  0  0  0  0
 52134  1  0  0  0  0
 52135  1  0  0  0  0
 53 54  1  0  0  0  0
 53136  1  0  0  0  0
 53137  1  0  0  0  0
 54 55  1  0  0  0  0
 54 57  1  0  0  0  0
 54138  1  0  0  0  0
 55 56  1  0  0  0  0
 55139  1  0  0  0  0
 55140  1  0  0  0  0
 56141  1  0  0  0  0
 56142  1  0  0  0  0
 57 58  1  0  0  0  0
 57 59  1  0  0  0  0
 58143  1  0  0  0  0
 58144  1  0  0  0  0
 58145  1  0  0  0  0
 59 60  1  0  0  0  0
 59 61  1  0  0  0  0
 60 61  1  0  0  0  0
 60146  1  0  0  0  0
 60147  1  0  0  0  0
 61148  1  0  0  0  0
 61149  1  0  0  0  0
 62 59  1  0  0  0  0
 62 63  1  0  0  0  0
 62 66  1  0  0  0  0
 62150  1  6  0  0  0
 63 64  1  0  0  0  0
 63151  1  0  0  0  0
 63152  1  0  0  0  0
 64 65  1  0  0  0  0
 64153  1  0  0  0  0
 64154  1  0  0  0  0
 65 66  1  0  0  0  0
 65 67  1  0  0  0  0
 66155  1  0  0  0  0
 66156  1  0  0  0  0
 67 68  2  0  0  0  0
 67 81  1  0  0  0  0
 68 69  1  0  0  0  0
 68 70  1  0  0  0  0
 69157  1  0  0  0  0
 69158  1  0  0  0  0
 69159  1  0  0  0  0
 70 71  2  0  0  0  0
 70 79  1  0  0  0  0
 71 72  1  0  0  0  0
 71 83  1  0  0  0  0
 72 73  2  0  0  0  0
 72160  1  0  0  0  0
 73 74  1  0  0  0  0
 73 77  1  0  0  0  0
 74 75  1  0  0  0  0
 74 76  2  0  0  0  0
 75161  1  0  0  0  0
 77 78  2  0  0  0  0
 77 79  1  0  0  0  0
 79 80  1  0  0  0  0
 80 81  2  0  0  0  0
 80162  1  0  0  0  0
 81 82  1  0  0  0  0
 83 84  1  0  0  0  0
 83 85  1  0  0  0  0
 83163  1  0  0  0  0
 84 85  1  0  0  0  0
 84164  1  0  0  0  0
 84165  1  0  0  0  0
 85166  1  0  0  0  0
 85167  1  0  0  0  0
 86 87  1  0  0  0  0
 87168  1  0  0  0  0
M  END
>  <DRUGBANK_ID>
DB16312

>  <COMMON_NAME>
TNP-2092

>  <CAS_NUMBER>
922717-97-3

>  <UNII>
W2P7EF7O6O

$$$$
