RP4
 OpenBabel10282417173D

 43 45  0  0  0  0  0  0  0  0999 V2000
    5.1345    0.2739    0.1771 O   0  0  0  0  0  0  0  0  0  0  0  0
    4.7315   -0.8895    0.1395 C   0  0  0  0  0  0  0  0  0  0  0  0
    5.5942   -1.9261    0.3174 O   0  0  0  0  0  0  0  0  0  0  0  0
    3.2494   -1.2843   -0.1791 C   0  0  1  0  0  0  0  0  0  0  0  0
    2.2607   -0.2923    0.0780 O   0  0  0  0  0  0  0  0  0  0  0  0
    3.2065   -1.5946   -1.6789 C   0  0  0  0  0  0  0  0  0  0  0  0
    3.3089   -3.0514   -2.0952 C   0  0  1  0  0  0  0  0  0  0  0  0
    4.6032   -3.2000   -2.6909 O   0  0  0  0  0  0  0  0  0  0  0  0
    3.1025   -4.1388   -1.0196 C   0  0  2  0  0  0  0  0  0  0  0  0
    1.9077   -4.8458   -1.3498 O   0  0  0  0  0  0  0  0  0  0  0  0
    2.9440   -3.6848    0.3994 C   0  0  0  0  0  0  0  0  0  0  0  0
    2.9297   -2.3949    0.7646 C   0  0  0  0  0  0  0  0  0  0  0  0
    2.9614   -4.7041    1.4595 C   0  0  0  0  0  0  0  0  0  0  0  0
    4.0455   -5.5828    1.5924 C   0  0  0  0  0  0  0  0  0  0  0  0
    4.0796   -6.4963    2.6396 C   0  0  0  0  0  0  0  0  0  0  0  0
    3.0443   -6.5206    3.5681 C   0  0  0  0  0  0  0  0  0  0  0  0
    1.9941   -5.6055    3.4961 C   0  0  0  0  0  0  0  0  0  0  0  0
    1.9269   -4.7431    2.3985 C   0  0  0  0  0  0  0  0  0  0  0  0
    0.7526   -5.4230    4.7483 S   0  0  0  0  0  0  0  0  0  0  0  0
    1.2917   -6.3776    6.1526 C   0  0  0  0  0  0  0  0  0  0  0  0
    2.5622   -6.2804    6.7381 C   0  0  0  0  0  0  0  0  0  0  0  0
    2.8501   -6.9652    7.9228 C   0  0  0  0  0  0  0  0  0  0  0  0
    1.8537   -7.7034    8.5578 C   0  0  0  0  0  0  0  0  0  0  0  0
    0.5847   -7.7888    7.9910 C   0  0  0  0  0  0  0  0  0  0  0  0
    0.3224   -7.1725    6.7690 C   0  0  0  0  0  0  0  0  0  0  0  0
    2.5719   -3.2022   -2.8962 H   0  0  0  0  0  0  0  0  0  0  0  0
    3.9385   -4.8441   -1.0909 H   0  0  0  0  0  0  0  0  0  0  0  0
    5.2065   -2.8216    0.2677 H   0  0  0  0  0  0  0  0  0  0  0  0
    2.0968    0.2164   -0.7351 H   0  0  0  0  0  0  0  0  0  0  0  0
    4.0199   -1.0332   -2.1620 H   0  0  0  0  0  0  0  0  0  0  0  0
    2.2962   -1.1863   -2.1365 H   0  0  0  0  0  0  0  0  0  0  0  0
    4.5175   -3.8424   -3.4192 H   0  0  0  0  0  0  0  0  0  0  0  0
    1.1678   -4.2444   -1.1487 H   0  0  0  0  0  0  0  0  0  0  0  0
    2.8477   -2.1013    1.8148 H   0  0  0  0  0  0  0  0  0  0  0  0
    4.8790   -5.5704    0.8949 H   0  0  0  0  0  0  0  0  0  0  0  0
    4.9176   -7.1782    2.7540 H   0  0  0  0  0  0  0  0  0  0  0  0
    3.0874   -7.2604    4.3594 H   0  0  0  0  0  0  0  0  0  0  0  0
    1.0721   -4.0790    2.2749 H   0  0  0  0  0  0  0  0  0  0  0  0
    3.3437   -5.6749    6.2845 H   0  0  0  0  0  0  0  0  0  0  0  0
    3.8388   -6.8922    8.3698 H   0  0  0  0  0  0  0  0  0  0  0  0
    2.0600   -8.2040    9.5001 H   0  0  0  0  0  0  0  0  0  0  0  0
   -0.2132   -8.3122    8.5096 H   0  0  0  0  0  0  0  0  0  0  0  0
   -0.6582   -7.2891    6.3129 H   0  0  0  0  0  0  0  0  0  0  0  0
  1  2  2  0  0  0  0
  2  3  1  0  0  0  0
  3 28  1  0  0  0  0
  4  6  1  0  0  0  0
  4 12  1  0  0  0  0
  4  5  1  1  0  0  0
  4  2  1  0  0  0  0
  5 29  1  0  0  0  0
  6  7  1  0  0  0  0
  6 30  1  0  0  0  0
  6 31  1  0  0  0  0
  7  9  1  0  0  0  0
  7 26  1  6  0  0  0
  7  8  1  0  0  0  0
  8 32  1  0  0  0  0
  9 10  1  0  0  0  0
  9 11  1  0  0  0  0
  9 27  1  6  0  0  0
 10 33  1  0  0  0  0
 11 12  2  0  0  0  0
 11 13  1  0  0  0  0
 12 34  1  0  0  0  0
 13 14  2  0  0  0  0
 13 18  1  0  0  0  0
 14 15  1  0  0  0  0
 14 35  1  0  0  0  0
 15 16  2  0  0  0  0
 15 36  1  0  0  0  0
 16 17  1  0  0  0  0
 16 37  1  0  0  0  0
 17 18  2  0  0  0  0
 17 19  1  0  0  0  0
 18 38  1  0  0  0  0
 19 20  1  0  0  0  0
 20 21  2  0  0  0  0
 20 25  1  0  0  0  0
 21 22  1  0  0  0  0
 21 39  1  0  0  0  0
 22 23  2  0  0  0  0
 22 40  1  0  0  0  0
 23 24  1  0  0  0  0
 23 41  1  0  0  0  0
 24 25  2  0  0  0  0
 24 42  1  0  0  0  0
 25 43  1  0  0  0  0
M  END
>  <DRUGBANK_ID>
DB08485

>  <COMMON_NAME>
(1S,4S,5S)-1,4,5-TRIHYDROXY-3-[3-(PHENYLTHIO)PHENYL]CYCLOHEX-2-ENE-1-CARBOXYLIC ACID

$$$$
