253
 OpenBabel10282417103D

 57 60  0  0  1  0  0  0  0  0999 V2000
   -0.6054    6.1178   -1.5989 O   0  0  0  0  0  0  0  0  0  0  0  0
   -5.8434    5.2211   -0.6482 O   0  0  0  0  0  0  0  0  0  0  0  0
    1.3391    3.3843    5.1109 O   0  0  0  0  0  0  0  0  0  0  0  0
   -2.9307    3.3618   -2.6555 C   0  0  2  0  0  0  0  0  0  0  0  0
   -3.1205    4.7517   -2.4388 C   0  0  2  0  0  0  0  0  0  0  0  0
   -1.7869    3.3967   -1.1308 C   0  0  1  0  0  0  0  0  0  0  0  0
   -1.8296    4.5301    0.0550 C   0  0  1  0  0  0  0  0  0  0  0  0
   -0.9008    4.2480    1.6160 C   0  0  2  0  0  0  0  0  0  0  0  0
   -2.9780    5.9444   -1.5624 C   0  0  0  0  0  0  0  0  0  0  0  0
   -1.7273    5.9164   -0.7481 C   0  0  2  0  0  0  0  0  0  0  0  0
   -4.7846    4.4304   -2.6567 C   0  0  2  0  0  0  0  0  0  0  0  0
   -3.7043    4.4101   -4.2068 C   0  0  0  0  0  0  0  0  0  0  0  0
   -1.3695    2.2379   -0.2164 C   0  0  0  0  0  0  0  0  0  0  0  0
   -4.9669    5.2206   -3.8369 C   0  0  0  0  0  0  0  0  0  0  0  0
    0.2243    2.5565    0.3702 C   0  0  1  0  0  0  0  0  0  0  0  0
    0.4723    3.7067    1.4862 C   0  0  0  0  0  0  0  0  0  0  0  0
   -1.6086    4.5891   -3.5573 C   0  0  0  0  0  0  0  0  0  0  0  0
   -1.1671    2.7280    2.7886 C   0  0  0  0  0  0  0  0  0  0  0  0
   -0.3667    5.7986    1.7819 C   0  0  0  0  0  0  0  0  0  0  0  0
   -5.8385    4.4345   -1.6088 C   0  0  0  0  0  0  0  0  0  0  0  0
    0.1342    1.9137    3.7517 C   0  0  0  0  0  0  0  0  0  0  0  0
    1.1488    3.9040    2.7243 C   0  0  0  0  0  0  0  0  0  0  0  0
    0.7761    1.2992    0.9363 C   0  0  0  0  0  0  0  0  0  0  0  0
    0.9745    3.0770    4.0235 C   0  0  0  0  0  0  0  0  0  0  0  0
   -6.9303    3.4064   -1.8039 C   0  0  0  0  0  0  0  0  0  0  0  0
   -3.6218    2.5540   -2.3843 H   0  0  0  0  0  0  0  0  0  0  0  0
   -0.8230    3.4561   -1.6131 H   0  0  0  0  0  0  0  0  0  0  0  0
   -2.8344    4.5782    0.4969 H   0  0  0  0  0  0  0  0  0  0  0  0
   -0.2559    5.2692   -1.8903 H   0  0  0  0  0  0  0  0  0  0  0  0
   -3.0623    6.8410   -2.1899 H   0  0  0  0  0  0  0  0  0  0  0  0
   -3.7936    6.0259   -0.8438 H   0  0  0  0  0  0  0  0  0  0  0  0
   -1.7900    6.8359   -0.1598 H   0  0  0  0  0  0  0  0  0  0  0  0
   -5.0207    3.4002   -3.0628 H   0  0  0  0  0  0  0  0  0  0  0  0
   -3.7442    4.0596   -5.2501 H   0  0  0  0  0  0  0  0  0  0  0  0
   -3.1435    5.3477   -4.4837 H   0  0  0  0  0  0  0  0  0  0  0  0
   -1.3928    1.2532   -0.6717 H   0  0  0  0  0  0  0  0  0  0  0  0
   -2.1319    2.2179    0.5761 H   0  0  0  0  0  0  0  0  0  0  0  0
   -5.8655    5.0655   -4.4340 H   0  0  0  0  0  0  0  0  0  0  0  0
   -4.8371    6.2935   -3.6172 H   0  0  0  0  0  0  0  0  0  0  0  0
    0.8429    2.8167   -0.4898 H   0  0  0  0  0  0  0  0  0  0  0  0
   -0.6940    4.1654   -3.1521 H   0  0  0  0  0  0  0  0  0  0  0  0
   -1.7359    3.7729   -4.3359 H   0  0  0  0  0  0  0  0  0  0  0  0
   -1.3584    5.5072   -4.0788 H   0  0  0  0  0  0  0  0  0  0  0  0
   -1.4885    1.8259    2.2295 H   0  0  0  0  0  0  0  0  0  0  0  0
   -1.9760    2.8351    3.5169 H   0  0  0  0  0  0  0  0  0  0  0  0
   -0.9582    6.4516    2.4118 H   0  0  0  0  0  0  0  0  0  0  0  0
    0.7179    5.9986    1.9085 H   0  0  0  0  0  0  0  0  0  0  0  0
   -0.3098    6.2867    0.8050 H   0  0  0  0  0  0  0  0  0  0  0  0
    0.9539    1.2469    3.3511 H   0  0  0  0  0  0  0  0  0  0  0  0
   -0.1459    1.2174    4.5529 H   0  0  0  0  0  0  0  0  0  0  0  0
    0.9897    4.8535    3.2926 H   0  0  0  0  0  0  0  0  0  0  0  0
    0.1660    0.3999    1.0167 H   0  0  0  0  0  0  0  0  0  0  0  0
    1.8524    1.2572    1.1061 H   0  0  0  0  0  0  0  0  0  0  0  0
    0.5327    1.5941    1.8860 H   0  0  0  0  0  0  0  0  0  0  0  0
   -7.4280    3.5722   -2.7666 H   0  0  0  0  0  0  0  0  0  0  0  0
   -6.5019    2.3950   -1.8000 H   0  0  0  0  0  0  0  0  0  0  0  0
   -7.6457    3.4982   -0.9916 H   0  0  0  0  0  0  0  0  0  0  0  0
  1 29  1  0  0  0  0
  2 20  2  0  0  0  0
  3 24  2  0  0  0  0
  4  5  1  0  0  0  0
  4  6  1  0  0  0  0
  4 12  1  0  0  0  0
  4 26  1  1  0  0  0
  5  9  1  0  0  0  0
  5 11  1  0  0  0  0
  5 17  1  6  0  0  0
  6  7  1  0  0  0  0
  6 13  1  0  0  0  0
  6 27  1  6  0  0  0
  7  8  1  0  0  0  0
  7 10  1  0  0  0  0
  7 28  1  1  0  0  0
  8 16  1  0  0  0  0
  8 18  1  0  0  0  0
  8 19  1  1  0  0  0
  9 10  1  0  0  0  0
  9 30  1  0  0  0  0
  9 31  1  0  0  0  0
 10 32  1  1  0  0  0
 10  1  1  0  0  0  0
 11 14  1  0  0  0  0
 11 33  1  6  0  0  0
 11 20  1  0  0  0  0
 12 14  1  0  0  0  0
 12 34  1  0  0  0  0
 12 35  1  0  0  0  0
 13 15  1  0  0  0  0
 13 36  1  0  0  0  0
 13 37  1  0  0  0  0
 14 38  1  0  0  0  0
 14 39  1  0  0  0  0
 15 16  1  0  0  0  0
 15 40  1  6  0  0  0
 15 23  1  0  0  0  0
 16 22  2  0  0  0  0
 17 41  1  0  0  0  0
 17 42  1  0  0  0  0
 17 43  1  0  0  0  0
 18 21  1  0  0  0  0
 18 44  1  0  0  0  0
 18 45  1  0  0  0  0
 19 46  1  0  0  0  0
 19 47  1  0  0  0  0
 19 48  1  0  0  0  0
 20 25  1  0  0  0  0
 21 24  1  0  0  0  0
 21 49  1  0  0  0  0
 21 50  1  0  0  0  0
 22 24  1  0  0  0  0
 22 51  1  0  0  0  0
 23 52  1  0  0  0  0
 23 53  1  0  0  0  0
 23 54  1  0  0  0  0
 25 55  1  0  0  0  0
 25 56  1  0  0  0  0
 25 57  1  0  0  0  0
M  END
>  <DRUGBANK_ID>
DB00253

>  <SECONDARY_ACCESSION_NUMBERS>
APRD01091

>  <COMMON_NAME>
Medrysone

>  <CAS_NUMBER>
2668-66-8

>  <UNII>
D2UFC189XF

>  <SYNONYMS>
11beta-Hydroxy-6alpha-methylpregn-4-ene-3,20-dione; Medrisona; Medrysone; Medrysonum

$$$$
