
 OpenBabel10282417183D

 49 50  0  0  0  0  0  0  0  0999 V2000
    4.1752    0.8294    0.4609 C   0  0  0  0  0  0  0  0  0  0  0  0
    4.3500   -0.5196    0.1672 C   0  0  0  0  0  0  0  0  0  0  0  0
    3.2820   -1.3033   -0.2477 C   0  0  0  0  0  0  0  0  0  0  0  0
    2.0021   -0.7336   -0.3752 C   0  0  0  0  0  0  0  0  0  0  0  0
    1.8055    0.6388   -0.0467 C   0  0  0  0  0  0  0  0  0  0  0  0
    2.9058    1.4064    0.3633 C   0  0  0  0  0  0  0  0  0  0  0  0
    2.7425    2.7186    0.7141 O   0  0  0  0  0  0  0  0  0  0  0  0
    5.6017   -1.0446    0.3027 O   0  0  0  0  0  0  0  0  0  0  0  0
    0.4265    1.1929   -0.0047 C   0  0  0  0  0  0  0  0  0  0  0  0
    0.3172    2.5177   -0.2465 O   0  0  0  0  0  0  0  0  0  0  0  0
   -0.9601    3.1819   -0.0118 C   0  0  2  0  0  0  0  0  0  0  0  0
   -2.1684    2.4521   -0.6276 C   0  0  0  0  0  0  0  0  0  0  0  0
   -2.9899    1.7669    0.4617 C   0  0  0  0  0  0  0  0  0  0  0  0
   -3.9756    0.7560   -0.1340 C   0  0  0  0  0  0  0  0  0  0  0  0
   -3.8888   -0.6414    0.4973 C   0  0  2  0  0  0  0  0  0  0  0  0
   -3.5068   -0.5465    1.8667 O   0  0  0  0  0  0  0  0  0  0  0  0
   -2.9399   -1.5411   -0.3076 C   0  0  0  0  0  0  0  0  0  0  0  0
   -2.3012   -2.6591    0.5150 C   0  0  0  0  0  0  0  0  0  0  0  0
   -1.0176   -3.1672   -0.1395 C   0  0  0  0  0  0  0  0  0  0  0  0
    0.2069   -2.3661    0.3283 C   0  0  0  0  0  0  0  0  0  0  0  0
    0.8815   -1.6426   -0.8395 C   0  0  0  0  0  0  0  0  0  0  0  0
   -0.5190    0.4528    0.2382 O   0  0  0  0  0  0  0  0  0  0  0  0
   -0.8463    4.5773   -0.6233 C   0  0  0  0  0  0  0  0  0  0  0  0
    5.0334    1.4084    0.7859 H   0  0  0  0  0  0  0  0  0  0  0  0
    3.4213   -2.3593   -0.4693 H   0  0  0  0  0  0  0  0  0  0  0  0
    3.6003    3.1291    0.9064 H   0  0  0  0  0  0  0  0  0  0  0  0
    5.5795   -1.9901    0.0757 H   0  0  0  0  0  0  0  0  0  0  0  0
   -1.0698    3.2927    1.0770 H   0  0  0  0  0  0  0  0  0  0  0  0
   -2.8544    3.1324   -1.1402 H   0  0  0  0  0  0  0  0  0  0  0  0
   -1.8251    1.7290   -1.3762 H   0  0  0  0  0  0  0  0  0  0  0  0
   -3.5376    2.5106    1.0524 H   0  0  0  0  0  0  0  0  0  0  0  0
   -2.3059    1.3217    1.1814 H   0  0  0  0  0  0  0  0  0  0  0  0
   -3.8583    0.6764   -1.2231 H   0  0  0  0  0  0  0  0  0  0  0  0
   -4.9871    1.1483    0.0196 H   0  0  0  0  0  0  0  0  0  0  0  0
   -4.8828   -1.1002    0.4875 H   0  0  0  0  0  0  0  0  0  0  0  0
   -2.5447   -0.3764    1.8796 H   0  0  0  0  0  0  0  0  0  0  0  0
   -3.4947   -1.9786   -1.1503 H   0  0  0  0  0  0  0  0  0  0  0  0
   -2.1647   -0.9341   -0.7839 H   0  0  0  0  0  0  0  0  0  0  0  0
   -2.0599   -2.3349    1.5314 H   0  0  0  0  0  0  0  0  0  0  0  0
   -3.0249   -3.4731    0.6229 H   0  0  0  0  0  0  0  0  0  0  0  0
   -0.8759   -4.2134    0.1490 H   0  0  0  0  0  0  0  0  0  0  0  0
   -1.1151   -3.1483   -1.2315 H   0  0  0  0  0  0  0  0  0  0  0  0
   -0.0625   -1.6579    1.1211 H   0  0  0  0  0  0  0  0  0  0  0  0
    0.9238   -3.0480    0.8014 H   0  0  0  0  0  0  0  0  0  0  0  0
    1.2793   -2.3866   -1.5413 H   0  0  0  0  0  0  0  0  0  0  0  0
    0.1593   -1.0730   -1.4354 H   0  0  0  0  0  0  0  0  0  0  0  0
   -1.6508    4.7859   -1.3361 H   0  0  0  0  0  0  0  0  0  0  0  0
   -0.9339    5.3360    0.1612 H   0  0  0  0  0  0  0  0  0  0  0  0
    0.1049    4.7195   -1.1412 H   0  0  0  0  0  0  0  0  0  0  0  0
  1  2  2  0  0  0  0
  1  6  1  0  0  0  0
  1 24  1  0  0  0  0
  2  3  1  0  0  0  0
  2  8  1  0  0  0  0
  3  4  2  0  0  0  0
  3 25  1  0  0  0  0
  4  5  1  0  0  0  0
  5  6  2  0  0  0  0
  5  9  1  0  0  0  0
  6  7  1  0  0  0  0
  7 26  1  0  0  0  0
  8 27  1  0  0  0  0
  9 10  1  0  0  0  0
  9 22  2  0  0  0  0
 10 11  1  0  0  0  0
 11 12  1  0  0  0  0
 11 28  1  1  0  0  0
 11 23  1  0  0  0  0
 12 13  1  0  0  0  0
 12 29  1  0  0  0  0
 12 30  1  0  0  0  0
 13 14  1  0  0  0  0
 13 31  1  0  0  0  0
 13 32  1  0  0  0  0
 14 15  1  0  0  0  0
 14 33  1  0  0  0  0
 14 34  1  0  0  0  0
 15 16  1  0  0  0  0
 15 17  1  0  0  0  0
 15 35  1  6  0  0  0
 16 36  1  0  0  0  0
 17 18  1  0  0  0  0
 17 37  1  0  0  0  0
 17 38  1  0  0  0  0
 18 19  1  0  0  0  0
 18 39  1  0  0  0  0
 18 40  1  0  0  0  0
 19 20  1  0  0  0  0
 19 41  1  0  0  0  0
 19 42  1  0  0  0  0
 20 21  1  0  0  0  0
 20 43  1  0  0  0  0
 20 44  1  0  0  0  0
 21  4  1  0  0  0  0
 21 45  1  0  0  0  0
 21 46  1  0  0  0  0
 23 47  1  0  0  0  0
 23 48  1  0  0  0  0
 23 49  1  0  0  0  0
M  END
>  <DRUGBANK_ID>
DB11478

>  <COMMON_NAME>
Zeranol

>  <CAS_NUMBER>
26538-44-3

>  <UNII>
76LO2L2V39

>  <SYNONYMS>
alpha-Zeranol; Zeranol; Zeranolum; Î±-zeranol

$$$$
