TLM
 OpenBabel10282417143D

 28 28  0  0  0  0  0  0  0  0999 V2000
   -1.5292    0.1272   -0.0319 S   0  0  0  0  0  0  0  0  0  0  0  0
   -0.2679    1.3118    0.1466 C   0  0  0  0  0  0  0  0  0  0  0  0
    1.0706    0.7191   -0.0226 C   0  0  0  0  0  0  0  0  0  0  0  0
    1.0169   -0.6198    0.0071 C   0  0  0  0  0  0  0  0  0  0  0  0
   -0.3463   -1.2657    0.1162 C   0  0  1  0  0  0  0  0  0  0  0  0
   -0.5821   -1.9180    1.4826 C   0  0  0  0  0  0  0  0  0  0  0  0
   -0.9627   -3.1939    1.7442 C   0  0  0  0  0  0  0  0  0  0  0  0
   -1.1674   -3.6656    3.1082 C   0  0  0  0  0  0  0  0  0  0  0  0
   -1.5276   -4.9188    3.4236 C   0  0  0  0  0  0  0  0  0  0  0  0
   -0.4878    2.4910    0.4011 O   0  0  0  0  0  0  0  0  0  0  0  0
    2.2724    1.5647   -0.2044 C   0  0  0  0  0  0  0  0  0  0  0  0
    2.1074   -1.4539   -0.1510 O   0  0  0  0  0  0  0  0  0  0  0  0
   -0.5570   -2.1241   -1.1278 C   0  0  0  0  0  0  0  0  0  0  0  0
   -1.2000   -4.2005    0.6492 C   0  0  0  0  0  0  0  0  0  0  0  0
   -0.4353   -1.2359    2.3280 H   0  0  0  0  0  0  0  0  0  0  0  0
   -1.0159   -2.9573    3.9217 H   0  0  0  0  0  0  0  0  0  0  0  0
   -1.6648   -5.2420    4.4445 H   0  0  0  0  0  0  0  0  0  0  0  0
   -1.7041   -5.6954    2.6902 H   0  0  0  0  0  0  0  0  0  0  0  0
    3.0008    1.3613    0.5857 H   0  0  0  0  0  0  0  0  0  0  0  0
    2.7382    1.3498   -1.1727 H   0  0  0  0  0  0  0  0  0  0  0  0
    2.0299    2.6301   -0.1826 H   0  0  0  0  0  0  0  0  0  0  0  0
    2.9182   -0.9357   -0.2946 H   0  0  0  0  0  0  0  0  0  0  0  0
   -0.3862   -1.6133   -2.0772 H   0  0  0  0  0  0  0  0  0  0  0  0
    0.1540   -2.9556   -1.1309 H   0  0  0  0  0  0  0  0  0  0  0  0
   -1.5844   -2.4909   -1.1717 H   0  0  0  0  0  0  0  0  0  0  0  0
   -2.0517   -3.8903    0.0416 H   0  0  0  0  0  0  0  0  0  0  0  0
   -0.2784   -4.3534    0.0876 H   0  0  0  0  0  0  0  0  0  0  0  0
   -1.4649   -5.2114    0.9313 H   0  0  0  0  0  0  0  0  0  0  0  0
  1  2  1  0  0  0  0
  1  5  1  0  0  0  0
  2  3  1  0  0  0  0
  2 10  2  0  0  0  0
  3  4  2  0  0  0  0
  3 11  1  0  0  0  0
  4  5  1  0  0  0  0
  4 12  1  0  0  0  0
  5  6  1  1  0  0  0
  5 13  1  0  0  0  0
  6  7  2  0  0  0  0
  6 15  1  0  0  0  0
  7  8  1  0  0  0  0
  7 14  1  0  0  0  0
  8  9  2  0  0  0  0
  8 16  1  0  0  0  0
  9 17  1  0  0  0  0
  9 18  1  0  0  0  0
 11 19  1  0  0  0  0
 11 20  1  0  0  0  0
 11 21  1  0  0  0  0
 12 22  1  0  0  0  0
 13 23  1  0  0  0  0
 13 24  1  0  0  0  0
 13 25  1  0  0  0  0
 14 26  1  0  0  0  0
 14 27  1  0  0  0  0
 14 28  1  0  0  0  0
M  END
>  <DRUGBANK_ID>
DB04302

>  <SECONDARY_ACCESSION_NUMBERS>
EXPT03065

>  <COMMON_NAME>
4-Hydroxy-3,5-Dimethyl-5-(2-Methyl-Buta-1,3-Dienyl)-5h-Thiophen-2-One

>  <CAS_NUMBER>
82079-32-1

$$$$
