
 OpenBabel10282417123D

 25 26  0  0  0  0  0  0  0  0999 V2000
    2.5216    1.7743    4.8121 S   0  0  0  0  0  0  0  0  0  0  0  0
   -0.4998   -1.2298    2.0452 O   0  0  0  0  0  0  0  0  0  0  0  0
    2.3956   -1.5056    2.4425 O   0  0  0  0  0  0  0  0  0  0  0  0
    1.3347    1.7189    3.6638 O   0  0  0  0  0  0  0  0  0  0  0  0
   -0.3823   -2.1394    4.8621 O   0  0  0  0  0  0  0  0  0  0  0  0
    3.4346    0.3062    2.7864 O   0  0  0  0  0  0  0  0  0  0  0  0
    3.8526    2.3078    4.0637 O   0  0  0  0  0  0  0  0  0  0  0  0
    2.8003    0.4370    5.2759 O   0  0  0  0  0  0  0  0  0  0  0  0
    2.1929    2.8263    5.7552 O   0  0  0  0  0  0  0  0  0  0  0  0
   -0.0748   -0.3808    3.1719 C   0  0  1  0  0  0  0  0  0  0  0  0
    0.5588   -1.3649    4.1267 C   0  0  2  0  0  0  0  0  0  0  0  0
    1.3450   -2.1854    3.1150 C   0  0  1  0  0  0  0  0  0  0  0  0
    1.0296    0.6309    2.7349 C   0  0  2  0  0  0  0  0  0  0  0  0
    0.3313   -2.4221    2.0240 C   0  0  0  0  0  0  0  0  0  0  0  0
    2.2575   -0.1300    2.1749 C   0  0  2  0  0  0  0  0  0  0  0  0
   -0.9721    0.1116    3.5605 H   0  0  0  0  0  0  0  0  0  0  0  0
    1.7641   -3.1005    3.5382 H   0  0  0  0  0  0  0  0  0  0  0  0
   -1.0064   -2.5696    4.2555 H   0  0  0  0  0  0  0  0  0  0  0  0
    3.3897   -0.2324    3.6183 H   0  0  0  0  0  0  0  0  0  0  0  0
    3.7472    2.2838    3.0925 H   0  0  0  0  0  0  0  0  0  0  0  0
    1.1487   -0.8523    4.8674 H   0  0  0  0  0  0  0  0  0  0  0  0
    0.5808    1.1586    1.8759 H   0  0  0  0  0  0  0  0  0  0  0  0
    0.7987   -2.5058    1.0347 H   0  0  0  0  0  0  0  0  0  0  0  0
   -0.2676   -3.3182    2.2094 H   0  0  0  0  0  0  0  0  0  0  0  0
    2.3680    0.0741    1.1021 H   0  0  0  0  0  0  0  0  0  0  0  0
  1  4  1  0  0  0  0
  1  7  1  0  0  0  0
  1  8  2  0  0  0  0
  1  9  2  0  0  0  0
  2 10  1  0  0  0  0
  2 14  1  0  0  0  0
  3 12  1  0  0  0  0
  3 15  1  0  0  0  0
  5 18  1  0  0  0  0
  6 19  1  0  0  0  0
  7 20  1  0  0  0  0
 10 11  1  0  0  0  0
 10 13  1  0  0  0  0
 10 16  1  1  0  0  0
 11  5  1  0  0  0  0
 11 12  1  0  0  0  0
 11 21  1  1  0  0  0
 12 14  1  0  0  0  0
 12 17  1  1  0  0  0
 13 15  1  0  0  0  0
 13 22  1  6  0  0  0
 13  4  1  0  0  0  0
 14 23  1  0  0  0  0
 14 24  1  0  0  0  0
 15  6  1  0  0  0  0
 15 25  1  6  0  0  0
M  END
>  <DRUGBANK_ID>
DB01981

>  <SECONDARY_ACCESSION_NUMBERS>
EXPT01183

>  <COMMON_NAME>
3,6-Anhydro-2-(hydrogen sulfate)-alpha-D-galactopyranose

>  <CAS_NUMBER>
96519-18-5

>  <UNII>
1EE1TT025N

$$$$
