
 OpenBabel10282417143D

 26 25  0  0  0  0  0  0  0  0999 V2000
    1.0991    0.1219   -0.0917 C   0  0  0  0  0  0  0  0  0  0  0  0
   -1.5560    2.9090    2.6645 C   0  0  0  0  0  0  0  0  0  0  0  0
    0.6224    0.2311    1.3727 C   0  0  0  0  0  0  0  0  0  0  0  0
   -0.9256    2.7734    1.2832 C   0  0  0  0  0  0  0  0  0  0  0  0
    1.1118    1.4853    2.1071 C   0  0  0  0  0  0  0  0  0  0  0  0
    0.6002    2.7530    1.4465 C   0  0  0  0  0  0  0  0  0  0  0  0
    0.5290    1.0687   -1.1517 C   0  0  0  0  0  0  0  0  0  0  0  0
   -0.4958    0.9026   -1.7728 O   0  0  0  0  0  0  0  0  0  0  0  0
    1.2419    2.2055   -1.3214 O   0  0  0  0  0  0  0  0  0  0  0  0
   -1.0774    4.1982    3.3157 C   0  0  0  0  0  0  0  0  0  0  0  0
    0.8068   -0.8739   -0.4400 H   0  0  0  0  0  0  0  0  0  0  0  0
    2.1922    0.1515   -0.1228 H   0  0  0  0  0  0  0  0  0  0  0  0
   -2.6473    2.8963    2.5897 H   0  0  0  0  0  0  0  0  0  0  0  0
   -1.2815    2.0502    3.2885 H   0  0  0  0  0  0  0  0  0  0  0  0
   -0.4688    0.1404    1.4358 H   0  0  0  0  0  0  0  0  0  0  0  0
    0.9978   -0.6358    1.9327 H   0  0  0  0  0  0  0  0  0  0  0  0
   -1.2321    3.5993    0.6311 H   0  0  0  0  0  0  0  0  0  0  0  0
   -1.3207    1.8763    0.7899 H   0  0  0  0  0  0  0  0  0  0  0  0
    0.8139    1.4597    3.1639 H   0  0  0  0  0  0  0  0  0  0  0  0
    2.2069    1.5037    2.1087 H   0  0  0  0  0  0  0  0  0  0  0  0
    0.9757    3.6549    1.9275 H   0  0  0  0  0  0  0  0  0  0  0  0
    1.1208    2.8568    0.5211 H   0  0  0  0  0  0  0  0  0  0  0  0
    0.5781    2.9123   -1.4956 H   0  0  0  0  0  0  0  0  0  0  0  0
   -1.3593    5.0528    2.6930 H   0  0  0  0  0  0  0  0  0  0  0  0
   -1.4857    4.3077    4.3173 H   0  0  0  0  0  0  0  0  0  0  0  0
    0.0088    4.2281    3.4405 H   0  0  0  0  0  0  0  0  0  0  0  0
  1  7  1  0  0  0  0
  1 11  1  0  0  0  0
  1 12  1  0  0  0  0
  2 10  1  0  0  0  0
  2 13  1  0  0  0  0
  2 14  1  0  0  0  0
  3  1  1  0  0  0  0
  3 15  1  0  0  0  0
  3 16  1  0  0  0  0
  4  2  1  0  0  0  0
  4 17  1  0  0  0  0
  4 18  1  0  0  0  0
  5  3  1  0  0  0  0
  5 19  1  0  0  0  0
  5 20  1  0  0  0  0
  6  4  1  0  0  0  0
  6  5  1  0  0  0  0
  6 21  1  0  0  0  0
  6 22  1  0  0  0  0
  7  8  2  0  0  0  0
  7  9  1  0  0  0  0
  9 23  1  0  0  0  0
 10 24  1  0  0  0  0
 10 25  1  0  0  0  0
 10 26  1  0  0  0  0
M  END
>  <DRUGBANK_ID>
DB04519

>  <SECONDARY_ACCESSION_NUMBERS>
EXPT02413

>  <COMMON_NAME>
Caprylic acid

>  <CAS_NUMBER>
124-07-2

>  <UNII>
OBL58JN025

>  <SYNONYMS>
1-heptanecarboxylic acid; Acide octanoïque; Acide octanoique; ácido octanoico; Acidum octanocium; Acidum octanoicum; C8:0; Caprylic acid; Kaprylsäure; n-caprylic acid; n-octanoic acid; n-Octoic acid; n-octylic acid; Octanoic acid; Octoic acid; Octylic acid

$$$$
