
 OpenBabel10282417193D

 63 65  0  0  0  0  0  0  0  0999 V2000
    0.9199    0.1271   -0.0704 C   0  0  0  0  0  0  0  0  0  0  0  0
    0.4518   -1.1401   -0.7614 C   0  0  0  0  0  0  0  0  0  0  0  0
    0.9437   -2.4364   -0.1112 C   0  0  0  0  0  0  0  0  0  0  0  0
    0.5128   -2.5953    1.2962 N   0  0  0  0  0  0  0  0  0  0  0  0
    1.3214   -1.7844    2.2456 C   0  0  0  0  0  0  0  0  0  0  0  0
    2.8181   -2.1049    2.2126 C   0  0  0  0  0  0  0  0  0  0  0  0
    3.0373   -3.5233    2.4622 N   0  0  0  0  0  0  0  0  0  0  0  0
    2.1991   -4.4667    1.7247 C   0  0  0  0  0  0  0  0  0  0  0  0
    0.7125   -4.0113    1.7212 C   0  0  0  0  0  0  0  0  0  0  0  0
    3.7735   -3.9145    3.5428 C   0  0  0  0  0  0  0  0  0  0  0  0
    3.6628   -3.2309    4.7228 C   0  0  0  0  0  0  0  0  0  0  0  0
    4.5611   -3.4782    5.7476 C   0  0  0  0  0  0  0  0  0  0  0  0
    5.2712   -4.6672    5.8390 C   0  0  0  0  0  0  0  0  0  0  0  0
    5.3760   -5.3914    4.6571 C   0  0  0  0  0  0  0  0  0  0  0  0
    4.7277   -4.9283    3.4947 C   0  0  0  0  0  0  0  0  0  0  0  0
    5.8517   -5.1923    7.1309 C   0  0  0  0  0  0  0  0  0  0  0  0
    6.7146   -6.0712    7.0904 O   0  0  0  0  0  0  0  0  0  0  0  0
    5.3962   -4.7906    8.3836 N   0  0  0  0  0  0  0  0  0  0  0  0
    4.3672   -3.7703    8.7741 C   0  0  0  0  0  0  0  0  0  0  0  0
    5.1584   -2.4309    8.9198 C   0  0  0  0  0  0  0  0  0  0  0  0
    4.2875   -1.2876    9.3456 C   0  0  0  0  0  0  0  0  0  0  0  0
    3.3515   -1.6822   10.5502 C   0  0  0  0  0  0  0  0  0  0  0  0
    2.7453   -3.1342   10.5728 C   0  0  0  0  0  0  0  0  0  0  0  0
    3.7790   -4.1592   10.1449 C   0  0  0  0  0  0  0  0  0  0  0  0
    3.0509   -3.9843    7.8018 C   0  0  0  0  0  0  0  0  0  0  0  0
    2.8099   -5.1220    7.3666 O   0  0  0  0  0  0  0  0  0  0  0  0
    2.2058   -2.9785    7.3371 N   0  0  0  0  0  0  0  0  0  0  0  0
    1.6389   -1.8315    8.0206 C   0  0  0  0  0  0  0  0  0  0  0  0
    1.8426   -0.4625    7.5410 C   0  0  0  0  0  0  0  0  0  0  0  0
    2.1454    0.6596    7.3641 N   0  0  0  0  0  0  0  0  0  0  0  0
    0.3786    0.2581    0.8680 H   0  0  0  0  0  0  0  0  0  0  0  0
    0.6766    1.0252   -0.6348 H   0  0  0  0  0  0  0  0  0  0  0  0
    2.0031    0.0999    0.1037 H   0  0  0  0  0  0  0  0  0  0  0  0
   -0.6421   -1.1498   -0.7911 H   0  0  0  0  0  0  0  0  0  0  0  0
    0.8106   -1.1185   -1.7967 H   0  0  0  0  0  0  0  0  0  0  0  0
    0.5474   -3.2697   -0.7103 H   0  0  0  0  0  0  0  0  0  0  0  0
    2.0290   -2.5045   -0.2399 H   0  0  0  0  0  0  0  0  0  0  0  0
    1.2479   -0.7152    2.1073 H   0  0  0  0  0  0  0  0  0  0  0  0
    0.8983   -1.9104    3.2512 H   0  0  0  0  0  0  0  0  0  0  0  0
    3.2478   -1.8796    1.2331 H   0  0  0  0  0  0  0  0  0  0  0  0
    3.3452   -1.4322    2.8998 H   0  0  0  0  0  0  0  0  0  0  0  0
    2.5760   -4.4904    0.6987 H   0  0  0  0  0  0  0  0  0  0  0  0
    2.2626   -5.4823    2.1269 H   0  0  0  0  0  0  0  0  0  0  0  0
    0.2929   -4.1150    2.7328 H   0  0  0  0  0  0  0  0  0  0  0  0
    0.1196   -4.6815    1.0873 H   0  0  0  0  0  0  0  0  0  0  0  0
    2.8806   -2.4873    4.8571 H   0  0  0  0  0  0  0  0  0  0  0  0
    4.5202   -2.7599    6.5380 H   0  0  0  0  0  0  0  0  0  0  0  0
    5.9650   -6.3024    4.6170 H   0  0  0  0  0  0  0  0  0  0  0  0
    5.0037   -5.3314    2.5273 H   0  0  0  0  0  0  0  0  0  0  0  0
    5.9975   -5.1437    9.1255 H   0  0  0  0  0  0  0  0  0  0  0  0
    5.9626   -2.5043    9.6621 H   0  0  0  0  0  0  0  0  0  0  0  0
    5.6753   -2.1560    7.9899 H   0  0  0  0  0  0  0  0  0  0  0  0
    4.7787   -0.3248    9.5300 H   0  0  0  0  0  0  0  0  0  0  0  0
    3.8451   -1.0523    8.3825 H   0  0  0  0  0  0  0  0  0  0  0  0
    3.9433   -1.5754   11.4581 H   0  0  0  0  0  0  0  0  0  0  0  0
    2.5265   -0.9559   10.6261 H   0  0  0  0  0  0  0  0  0  0  0  0
    2.2953   -3.3623   11.5418 H   0  0  0  0  0  0  0  0  0  0  0  0
    1.8697   -3.2935    9.9269 H   0  0  0  0  0  0  0  0  0  0  0  0
    3.2974   -5.1429   10.0525 H   0  0  0  0  0  0  0  0  0  0  0  0
    4.5419   -4.2447   10.9219 H   0  0  0  0  0  0  0  0  0  0  0  0
    1.6673   -3.2884    6.5397 H   0  0  0  0  0  0  0  0  0  0  0  0
    0.6933   -2.0297    8.5281 H   0  0  0  0  0  0  0  0  0  0  0  0
    2.2683   -1.8424    8.8429 H   0  0  0  0  0  0  0  0  0  0  0  0
  1  2  1  0  0  0  0
  1 31  1  0  0  0  0
  1 32  1  0  0  0  0
  1 33  1  0  0  0  0
  2  3  1  0  0  0  0
  2 34  1  0  0  0  0
  2 35  1  0  0  0  0
  3  4  1  0  0  0  0
  3 36  1  0  0  0  0
  3 37  1  0  0  0  0
  4  5  1  0  0  0  0
  4  9  1  0  0  0  0
  5  6  1  0  0  0  0
  5 38  1  0  0  0  0
  5 39  1  0  0  0  0
  6  7  1  0  0  0  0
  6 40  1  0  0  0  0
  6 41  1  0  0  0  0
  7  8  1  0  0  0  0
  7 10  1  0  0  0  0
  8  9  1  0  0  0  0
  8 42  1  0  0  0  0
  8 43  1  0  0  0  0
  9 44  1  0  0  0  0
  9 45  1  0  0  0  0
 10 11  2  0  0  0  0
 10 15  1  0  0  0  0
 11 12  1  0  0  0  0
 11 46  1  0  0  0  0
 12 13  2  0  0  0  0
 12 47  1  0  0  0  0
 13 14  1  0  0  0  0
 13 16  1  0  0  0  0
 14 15  2  0  0  0  0
 14 48  1  0  0  0  0
 15 49  1  0  0  0  0
 16 17  2  0  0  0  0
 16 18  1  0  0  0  0
 18 19  1  0  0  0  0
 18 50  1  0  0  0  0
 19 20  1  0  0  0  0
 19 24  1  0  0  0  0
 19 25  1  0  0  0  0
 20 21  1  0  0  0  0
 20 51  1  0  0  0  0
 20 52  1  0  0  0  0
 21 22  1  0  0  0  0
 21 53  1  0  0  0  0
 21 54  1  0  0  0  0
 22 23  1  0  0  0  0
 22 55  1  0  0  0  0
 22 56  1  0  0  0  0
 23 24  1  0  0  0  0
 23 57  1  0  0  0  0
 23 58  1  0  0  0  0
 24 59  1  0  0  0  0
 24 60  1  0  0  0  0
 25 26  2  0  0  0  0
 25 27  1  0  0  0  0
 27 28  1  0  0  0  0
 27 61  1  0  0  0  0
 28 29  1  0  0  0  0
 28 62  1  0  0  0  0
 28 63  1  0  0  0  0
 29 30  3  0  0  0  0
M  END
>  <DRUGBANK_ID>
DB12239

>  <COMMON_NAME>
Balicatib

>  <CAS_NUMBER>
354813-19-7

>  <UNII>
E00MVC7O57

>  <SYNONYMS>
Balicatib

$$$$
