BCE
 OpenBabel10282417163D

 35 36  0  0  0  0  0  0  0  0999 V2000
    1.3851   -0.2679    0.0131 C   0  0  0  0  0  0  0  0  0  0  0  0
    0.4940   -1.3360    0.0246 C   0  0  0  0  0  0  0  0  0  0  0  0
   -0.8824   -1.1065   -0.0028 C   0  0  0  0  0  0  0  0  0  0  0  0
   -1.3764    0.1937    0.0114 C   0  0  0  0  0  0  0  0  0  0  0  0
   -0.4855    1.2609    0.0436 C   0  0  0  0  0  0  0  0  0  0  0  0
    0.9043    1.0368   -0.0538 C   0  0  0  0  0  0  0  0  0  0  0  0
    1.8028    2.1505   -0.3368 C   0  0  0  0  0  0  0  0  0  0  0  0
    2.5890    2.2237   -1.5040 C   0  0  0  0  0  0  0  0  0  0  0  0
    3.3420    3.3771   -1.8193 C   0  0  0  0  0  0  0  0  0  0  0  0
    1.7282    3.2690    0.4515 C   0  0  0  0  0  0  0  0  0  0  0  0
    2.2354    4.4525   -0.0448 C   0  0  0  0  0  0  0  0  0  0  0  0
    3.2271    4.4996   -1.0087 C   0  0  0  0  0  0  0  0  0  0  0  0
    4.0962    5.6173   -1.1099 N   0  0  0  0  0  0  0  0  0  0  0  0
    4.3095    6.6754   -0.2251 C   0  0  0  0  0  0  0  0  0  0  0  0
    5.0672    7.5912   -0.5581 O   0  0  0  0  0  0  0  0  0  0  0  0
    3.5826    6.7815    1.0905 C   0  0  0  0  0  0  0  0  0  0  0  0
    2.7965    7.9645    1.2791 C   0  0  0  0  0  0  0  0  0  0  0  0
    2.1125    8.8683    1.4953 N   0  0  0  0  0  0  0  0  0  0  0  0
    3.5510    5.7675    1.9915 C   0  0  0  0  0  0  0  0  0  0  0  0
    2.5086    5.6290    3.0828 C   0  0  0  0  0  0  0  0  0  0  0  0
    4.3410    4.6350    1.8230 O   0  0  0  0  0  0  0  0  0  0  0  0
    2.4564   -0.4490    0.0335 H   0  0  0  0  0  0  0  0  0  0  0  0
    0.8805   -2.3497    0.0201 H   0  0  0  0  0  0  0  0  0  0  0  0
   -1.5709   -1.9455   -0.0235 H   0  0  0  0  0  0  0  0  0  0  0  0
   -2.4464    0.3800   -0.0338 H   0  0  0  0  0  0  0  0  0  0  0  0
   -0.8866    2.2732    0.0971 H   0  0  0  0  0  0  0  0  0  0  0  0
    2.5958    1.3759   -2.1853 H   0  0  0  0  0  0  0  0  0  0  0  0
    3.9610    3.3748   -2.7124 H   0  0  0  0  0  0  0  0  0  0  0  0
    1.2039    3.2534    1.4023 H   0  0  0  0  0  0  0  0  0  0  0  0
    1.8692    5.3494    0.4183 H   0  0  0  0  0  0  0  0  0  0  0  0
    4.7584    5.6259   -1.8806 H   0  0  0  0  0  0  0  0  0  0  0  0
    1.7760    4.8491    2.8318 H   0  0  0  0  0  0  0  0  0  0  0  0
    2.9893    5.3235    4.0110 H   0  0  0  0  0  0  0  0  0  0  0  0
    1.9231    6.5346    3.2525 H   0  0  0  0  0  0  0  0  0  0  0  0
    3.8422    3.8490    2.1223 H   0  0  0  0  0  0  0  0  0  0  0  0
  1  2  2  0  0  0  0
  1  6  1  0  0  0  0
  1 22  1  0  0  0  0
  2  3  1  0  0  0  0
  2 23  1  0  0  0  0
  3  4  2  0  0  0  0
  3 24  1  0  0  0  0
  4  5  1  0  0  0  0
  4 25  1  0  0  0  0
  5  6  2  0  0  0  0
  5 26  1  0  0  0  0
  6  7  1  0  0  0  0
  7  8  2  0  0  0  0
  7 10  1  0  0  0  0
  8  9  1  0  0  0  0
  8 27  1  0  0  0  0
  9 12  2  0  0  0  0
  9 28  1  0  0  0  0
 10 11  2  0  0  0  0
 10 29  1  0  0  0  0
 11 12  1  0  0  0  0
 11 30  1  0  0  0  0
 12 13  1  0  0  0  0
 13 14  1  0  0  0  0
 13 31  1  0  0  0  0
 14 15  2  0  0  0  0
 14 16  1  0  0  0  0
 16 17  1  0  0  0  0
 16 19  2  0  0  0  0
 17 18  3  0  0  0  0
 19 20  1  0  0  0  0
 19 21  1  0  0  0  0
 20 32  1  0  0  0  0
 20 33  1  0  0  0  0
 20 34  1  0  0  0  0
 21 35  1  0  0  0  0
M  END
>  <DRUGBANK_ID>
DB07443

>  <COMMON_NAME>
(2Z)-N-biphenyl-4-yl-2-cyano-3-hydroxybut-2-enamide

$$$$
