
 OpenBabel10282417203D

 39 41  0  0  0  0  0  0  0  0999 V2000
    1.4022   -0.5506   -0.1811 C   0  0  0  0  0  0  0  0  0  0  0  0
    2.7840    5.5499    2.6838 C   0  0  0  0  0  0  0  0  0  0  0  0
    0.4884   -1.5806   -0.0139 C   0  0  0  0  0  0  0  0  0  0  0  0
    0.9381    0.6661   -0.6522 C   0  0  0  0  0  0  0  0  0  0  0  0
    2.6040    4.2532    3.1590 C   0  0  0  0  0  0  0  0  0  0  0  0
    2.0952    5.9847    1.5469 C   0  0  0  0  0  0  0  0  0  0  0  0
   -0.8973   -1.3453   -0.1037 C   0  0  0  0  0  0  0  0  0  0  0  0
   -0.4410    0.8693   -0.8198 C   0  0  0  0  0  0  0  0  0  0  0  0
    1.7066    3.4350    2.5250 C   0  0  0  0  0  0  0  0  0  0  0  0
    1.0906    5.2054    1.0088 C   0  0  0  0  0  0  0  0  0  0  0  0
   -2.8253    0.3800   -0.2315 C   0  0  0  0  0  0  0  0  0  0  0  0
   -0.2351    3.0822    1.0205 C   0  0  0  0  0  0  0  0  0  0  0  0
   -2.6404    2.5086    1.1352 C   0  0  0  0  0  0  0  0  0  0  0  0
   -3.2687    0.4526    2.2050 C   0  0  0  0  0  0  0  0  0  0  0  0
   -1.3800   -0.0620   -0.4009 C   0  0  0  0  0  0  0  0  0  0  0  0
    0.8244    3.9556    1.5732 C   0  0  0  0  0  0  0  0  0  0  0  0
   -1.1505    1.7800    2.9573 C   0  0  0  0  0  0  0  0  0  0  0  0
   -3.1908    1.1772    0.9571 N   0  0  0  0  0  0  0  0  0  0  0  0
   -1.3527    2.5602    1.8147 N   0  0  0  0  0  0  0  0  0  0  0  0
   -0.6533    2.3547    4.4511 S   0  0  0  0  0  0  0  0  0  0  0  0
   -1.6540    0.1037    2.8739 S   0  0  0  0  0  0  0  0  0  0  0  0
    2.4582   -0.6753    0.0411 H   0  0  0  0  0  0  0  0  0  0  0  0
    3.4708    6.2085    3.1919 H   0  0  0  0  0  0  0  0  0  0  0  0
    0.8618   -2.5735    0.2298 H   0  0  0  0  0  0  0  0  0  0  0  0
    1.6315    1.4990   -0.7541 H   0  0  0  0  0  0  0  0  0  0  0  0
    3.1424    3.8782    4.0246 H   0  0  0  0  0  0  0  0  0  0  0  0
    2.3276    6.9477    1.0993 H   0  0  0  0  0  0  0  0  0  0  0  0
   -1.5811   -2.1600    0.1068 H   0  0  0  0  0  0  0  0  0  0  0  0
   -0.8035    1.8495   -1.1213 H   0  0  0  0  0  0  0  0  0  0  0  0
    1.6481    2.3804    2.8026 H   0  0  0  0  0  0  0  0  0  0  0  0
    0.5336    5.5476    0.1373 H   0  0  0  0  0  0  0  0  0  0  0  0
   -3.0987    0.9658   -1.1193 H   0  0  0  0  0  0  0  0  0  0  0  0
   -3.4815   -0.4989   -0.2785 H   0  0  0  0  0  0  0  0  0  0  0  0
    0.3664    2.2239    0.8110 H   0  0  0  0  0  0  0  0  0  0  0  0
   -0.5997    3.5264    0.0833 H   0  0  0  0  0  0  0  0  0  0  0  0
   -2.6257    3.0592    0.1863 H   0  0  0  0  0  0  0  0  0  0  0  0
   -3.3050    3.0987    1.7814 H   0  0  0  0  0  0  0  0  0  0  0  0
   -3.8112    1.0420    2.9577 H   0  0  0  0  0  0  0  0  0  0  0  0
   -3.8435   -0.4720    2.0964 H   0  0  0  0  0  0  0  0  0  0  0  0
  1 22  1  0  0  0  0
  2 23  1  0  0  0  0
  3  1  2  0  0  0  0
  3 24  1  0  0  0  0
  4  1  1  0  0  0  0
  4 25  1  0  0  0  0
  5  2  2  0  0  0  0
  5 26  1  0  0  0  0
  6  2  1  0  0  0  0
  6 27  1  0  0  0  0
  7  3  1  0  0  0  0
  7 28  1  0  0  0  0
  8  4  2  0  0  0  0
  8 29  1  0  0  0  0
  9  5  1  0  0  0  0
  9 30  1  0  0  0  0
 10  6  2  0  0  0  0
 10 31  1  0  0  0  0
 11 32  1  0  0  0  0
 11 33  1  0  0  0  0
 12 34  1  0  0  0  0
 12 35  1  0  0  0  0
 13 36  1  0  0  0  0
 13 37  1  0  0  0  0
 14 38  1  0  0  0  0
 14 39  1  0  0  0  0
 15  7  2  0  0  0  0
 15  8  1  0  0  0  0
 15 11  1  0  0  0  0
 16  9  2  0  0  0  0
 16 10  1  0  0  0  0
 16 12  1  0  0  0  0
 18 11  1  0  0  0  0
 18 13  1  0  0  0  0
 18 14  1  0  0  0  0
 19 12  1  0  0  0  0
 19 13  1  0  0  0  0
 19 17  1  0  0  0  0
 20 17  2  0  0  0  0
 21 14  1  0  0  0  0
 21 17  1  0  0  0  0
M  END
>  <DRUGBANK_ID>
DB13671

>  <COMMON_NAME>
Sulbentine

>  <CAS_NUMBER>
350-12-9

>  <UNII>
D0NR12WK9J

>  <SYNONYMS>
Sulbentine

$$$$
