TDZ
 OpenBabel10282417173D

 58 61  0  0  0  0  0  0  0  0999 V2000
   -2.6559   11.1131   -1.1445 C   0  0  0  0  0  0  0  0  0  0  0  0
   -4.0291   11.7318   -0.9910 C   0  0  0  0  0  0  0  0  0  0  0  0
   -3.8033   13.1967   -1.1556 C   0  0  0  0  0  0  0  0  0  0  0  0
   -4.8853   13.9984   -1.5425 C   0  0  0  0  0  0  0  0  0  0  0  0
   -6.2625   13.3964   -1.6499 C   0  0  0  0  0  0  0  0  0  0  0  0
   -4.6381   15.3387   -1.8093 C   0  0  0  0  0  0  0  0  0  0  0  0
   -5.7123   16.0821   -2.2187 O   0  0  0  0  0  0  0  0  0  0  0  0
   -3.3436   15.8862   -1.6791 C   0  0  0  0  0  0  0  0  0  0  0  0
   -3.1212   17.3376   -2.0002 C   0  0  0  0  0  0  0  0  0  0  0  0
   -2.2690   15.0709   -1.2307 C   0  0  0  0  0  0  0  0  0  0  0  0
   -0.8787   15.6277   -1.0957 C   0  0  0  0  0  0  0  0  0  0  0  0
   -2.5153   13.7332   -0.9222 C   0  0  0  0  0  0  0  0  0  0  0  0
   -1.4564   12.9785   -0.4134 O   0  0  0  0  0  0  0  0  0  0  0  0
   -1.8189   11.6407    0.0546 C   0  0  2  0  0  0  0  0  0  0  0  0
   -0.5405   10.7996    0.2994 C   0  0  0  0  0  0  0  0  0  0  0  0
   -2.4902   11.8124    1.4902 C   0  0  0  0  0  0  0  0  0  0  0  0
   -2.8511   10.6486    2.2934 O   0  0  0  0  0  0  0  0  0  0  0  0
   -3.7486    9.7816    1.7493 C   0  0  0  0  0  0  0  0  0  0  0  0
   -3.4821    9.1575    0.5533 C   0  0  0  0  0  0  0  0  0  0  0  0
   -4.4288    8.5231   -0.2418 C   0  0  0  0  0  0  0  0  0  0  0  0
   -4.8700    9.3407    2.4005 C   0  0  0  0  0  0  0  0  0  0  0  0
   -5.7704    8.5072    1.7118 C   0  0  0  0  0  0  0  0  0  0  0  0
   -5.5750    8.1045    0.3762 C   0  0  0  0  0  0  0  0  0  0  0  0
   -6.4169    7.0439   -0.2869 C   0  0  0  0  0  0  0  0  0  0  0  0
   -6.1215    5.6508    0.3064 C   0  0  1  0  0  0  0  0  0  0  0  0
   -6.3208    5.4602    2.1251 S   0  0  0  0  0  0  0  0  0  0  0  0
   -7.6829    4.4146    1.9811 C   0  0  0  0  0  0  0  0  0  0  0  0
   -8.3521    4.0351    2.9401 O   0  0  0  0  0  0  0  0  0  0  0  0
   -7.8702    4.0699    0.6952 N   0  0  0  0  0  0  0  0  0  0  0  0
   -7.0660    4.6177   -0.2643 C   0  0  0  0  0  0  0  0  0  0  0  0
   -7.1193    4.3021   -1.4447 O   0  0  0  0  0  0  0  0  0  0  0  0
   -5.0912    5.3564    0.0802 H   0  0  0  0  0  0  0  0  0  0  0  0
   -2.2022   11.4161   -2.0998 H   0  0  0  0  0  0  0  0  0  0  0  0
   -2.7107   10.0509   -1.3450 H   0  0  0  0  0  0  0  0  0  0  0  0
   -4.7119   11.3014   -1.7254 H   0  0  0  0  0  0  0  0  0  0  0  0
   -4.5112   11.5922   -0.0167 H   0  0  0  0  0  0  0  0  0  0  0  0
   -6.2678   12.5880   -2.3882 H   0  0  0  0  0  0  0  0  0  0  0  0
   -6.5687   12.9947   -0.6761 H   0  0  0  0  0  0  0  0  0  0  0  0
   -7.0221   14.1141   -1.9626 H   0  0  0  0  0  0  0  0  0  0  0  0
   -5.4436   16.9908   -2.4097 H   0  0  0  0  0  0  0  0  0  0  0  0
   -3.3815   17.5279   -3.0456 H   0  0  0  0  0  0  0  0  0  0  0  0
   -3.7370   17.9557   -1.3401 H   0  0  0  0  0  0  0  0  0  0  0  0
   -2.0872   17.6564   -1.8643 H   0  0  0  0  0  0  0  0  0  0  0  0
   -0.5356   16.0007   -2.0665 H   0  0  0  0  0  0  0  0  0  0  0  0
   -0.8799   16.4355   -0.3589 H   0  0  0  0  0  0  0  0  0  0  0  0
   -0.1450   14.8874   -0.7656 H   0  0  0  0  0  0  0  0  0  0  0  0
   -0.0320   10.5288   -0.6281 H   0  0  0  0  0  0  0  0  0  0  0  0
    0.1744   11.3349    0.9340 H   0  0  0  0  0  0  0  0  0  0  0  0
   -0.7475    9.8652    0.8382 H   0  0  0  0  0  0  0  0  0  0  0  0
   -1.7462   12.3504    2.1032 H   0  0  0  0  0  0  0  0  0  0  0  0
   -3.3223   12.5285    1.4840 H   0  0  0  0  0  0  0  0  0  0  0  0
   -2.4695    9.1885    0.2071 H   0  0  0  0  0  0  0  0  0  0  0  0
   -4.2117    8.3086   -1.2875 H   0  0  0  0  0  0  0  0  0  0  0  0
   -5.0248    9.5502    3.4526 H   0  0  0  0  0  0  0  0  0  0  0  0
   -6.6027    8.1035    2.2751 H   0  0  0  0  0  0  0  0  0  0  0  0
   -7.4731    7.3281   -0.2416 H   0  0  0  0  0  0  0  0  0  0  0  0
   -6.1862    7.0073   -1.3681 H   0  0  0  0  0  0  0  0  0  0  0  0
   -8.5546    3.3691    0.4621 H   0  0  0  0  0  0  0  0  0  0  0  0
  1  2  1  0  0  0  0
  1 14  1  0  0  0  0
  1 33  1  0  0  0  0
  1 34  1  0  0  0  0
  2  3  1  0  0  0  0
  2 35  1  0  0  0  0
  2 36  1  0  0  0  0
  3  4  2  0  0  0  0
  3 12  1  0  0  0  0
  4  5  1  0  0  0  0
  4  6  1  0  0  0  0
  5 37  1  0  0  0  0
  5 38  1  0  0  0  0
  5 39  1  0  0  0  0
  6  7  1  0  0  0  0
  6  8  2  0  0  0  0
  7 40  1  0  0  0  0
  8 10  1  0  0  0  0
  8  9  1  0  0  0  0
  9 41  1  0  0  0  0
  9 42  1  0  0  0  0
  9 43  1  0  0  0  0
 10 12  2  0  0  0  0
 10 11  1  0  0  0  0
 11 44  1  0  0  0  0
 11 45  1  0  0  0  0
 11 46  1  0  0  0  0
 12 13  1  0  0  0  0
 13 14  1  0  0  0  0
 14 16  1  1  0  0  0
 14 15  1  0  0  0  0
 15 47  1  0  0  0  0
 15 48  1  0  0  0  0
 15 49  1  0  0  0  0
 16 17  1  0  0  0  0
 16 50  1  0  0  0  0
 16 51  1  0  0  0  0
 17 18  1  0  0  0  0
 18 19  2  0  0  0  0
 18 21  1  0  0  0  0
 19 20  1  0  0  0  0
 19 52  1  0  0  0  0
 20 23  2  0  0  0  0
 20 53  1  0  0  0  0
 21 22  2  0  0  0  0
 21 54  1  0  0  0  0
 22 23  1  0  0  0  0
 22 55  1  0  0  0  0
 23 24  1  0  0  0  0
 24 56  1  0  0  0  0
 24 57  1  0  0  0  0
 25 26  1  0  0  0  0
 25 30  1  0  0  0  0
 25 32  1  6  0  0  0
 25 24  1  0  0  0  0
 26 27  1  0  0  0  0
 27 28  2  0  0  0  0
 27 29  1  0  0  0  0
 29 30  1  0  0  0  0
 29 58  1  0  0  0  0
 30 31  2  0  0  0  0
M  END
>  <DRUGBANK_ID>
DB08607

>  <COMMON_NAME>
(5R)-5-(4-{[(2R)-6-HYDROXY-2,5,7,8-TETRAMETHYL-3,4-DIHYDRO-2H-CHROMEN-2-YL]METHOXY}BENZYL)-1,3-THIAZOLIDINE-2,4-DIONE

>  <UNII>
1A70L3TM4P

$$$$
