
 OpenBabel10282417123D

 32 31  0  0  1  0  0  0  0  0999 V2000
    5.9853    6.1907    2.6807 C   0  0  0  0  0  0  0  0  0  0  0  0
    6.2621    5.3347    3.8230 N   0  0  0  0  0  0  0  0  0  0  0  0
    7.4777    5.5589    4.5783 C   0  0  0  0  0  0  0  0  0  0  0  0
    5.5141    4.2446    4.1490 C   0  0  0  0  0  0  0  0  0  0  0  0
    4.7547    3.8531    3.1002 N   0  0  0  0  0  0  0  0  0  0  0  0
    5.5473    3.6877    5.3055 N   0  0  0  0  0  0  0  0  0  0  0  0
    4.7062    2.5589    5.7006 C   0  0  0  0  0  0  0  0  0  0  0  0
    3.2858    3.0297    6.0671 C   0  0  0  0  0  0  0  0  0  0  0  0
    2.4596    3.6276    4.9184 C   0  0  0  0  0  0  0  0  0  0  0  0
    2.1082    2.6595    3.7351 C   0  0  2  0  0  0  0  0  0  0  0  0
    0.6517    2.5267    3.6043 N   0  0  0  0  0  0  0  0  0  0  0  0
    2.7114    1.2312    3.8530 C   0  0  0  0  0  0  0  0  0  0  0  0
    3.6663    0.8980    2.9576 O   0  0  0  0  0  0  0  0  0  0  0  0
    2.3937    0.4524    4.7548 O   0  0  0  0  0  0  0  0  0  0  0  0
    6.7537    6.9476    2.5201 H   0  0  0  0  0  0  0  0  0  0  0  0
    5.0290    6.7073    2.8362 H   0  0  0  0  0  0  0  0  0  0  0  0
    5.9019    5.6057    1.7563 H   0  0  0  0  0  0  0  0  0  0  0  0
    7.2387    5.7872    5.6214 H   0  0  0  0  0  0  0  0  0  0  0  0
    8.0941    4.6523    4.5520 H   0  0  0  0  0  0  0  0  0  0  0  0
    8.0693    6.3782    4.1673 H   0  0  0  0  0  0  0  0  0  0  0  0
    4.2375    3.0705    3.4210 H   0  0  0  0  0  0  0  0  0  0  0  0
    4.1375    4.6067    2.8068 H   0  0  0  0  0  0  0  0  0  0  0  0
    4.7462    1.7642    4.9571 H   0  0  0  0  0  0  0  0  0  0  0  0
    5.1392    2.0879    6.5923 H   0  0  0  0  0  0  0  0  0  0  0  0
    2.7072    2.2102    6.5096 H   0  0  0  0  0  0  0  0  0  0  0  0
    3.3741    3.7828    6.8614 H   0  0  0  0  0  0  0  0  0  0  0  0
    1.5481    4.0679    5.3437 H   0  0  0  0  0  0  0  0  0  0  0  0
    2.9608    4.5362    4.5602 H   0  0  0  0  0  0  0  0  0  0  0  0
    2.4168    3.0931    2.7757 H   0  0  0  0  0  0  0  0  0  0  0  0
    0.1983    3.3279    4.0397 H   0  0  0  0  0  0  0  0  0  0  0  0
    0.3744    1.7185    4.1692 H   0  0  0  0  0  0  0  0  0  0  0  0
    3.9242    1.5187    2.2484 H   0  0  0  0  0  0  0  0  0  0  0  0
  1  2  1  0  0  0  0
  1 15  1  0  0  0  0
  1 16  1  0  0  0  0
  1 17  1  0  0  0  0
  2  3  1  0  0  0  0
  2  4  1  0  0  0  0
  3 18  1  0  0  0  0
  3 19  1  0  0  0  0
  3 20  1  0  0  0  0
  4  5  1  0  0  0  0
  4  6  2  0  0  0  0
  5 21  1  0  0  0  0
  5 22  1  0  0  0  0
  6  7  1  0  0  0  0
  7  8  1  0  0  0  0
  7 23  1  0  0  0  0
  7 24  1  0  0  0  0
  8  9  1  0  0  0  0
  8 25  1  0  0  0  0
  8 26  1  0  0  0  0
  9 27  1  0  0  0  0
  9 28  1  0  0  0  0
 10 12  1  0  0  0  0
 10 29  1  6  0  0  0
 10 11  1  0  0  0  0
 10  9  1  0  0  0  0
 11 30  1  0  0  0  0
 11 31  1  0  0  0  0
 12 13  1  0  0  0  0
 12 14  2  0  0  0  0
 13 32  1  0  0  0  0
M  END
>  <DRUGBANK_ID>
DB01686

>  <SECONDARY_ACCESSION_NUMBERS>
EXPT01101

>  <COMMON_NAME>
N,N-dimethylarginine

>  <CAS_NUMBER>
30315-93-6

>  <UNII>
63CV1GEK3Y

>  <SYNONYMS>
ADMA; Asymmetric dimethylarginine; dimethyl-L-arginine; guanidino-N,N-dimethylarginine; L-NG,NG-dimethylarginine; N(5)-((Dimethylamino)iminomethyl)-L-ornithine; N(G)-Dimethylarginine; N(G),N(G)-Dimethylarginine; N(G1),N(G1)-Dimethylarginine; NG,NG-Dimethyl-L-arginine

$$$$
