
 OpenBabel10282417153D

 43 45  0  0  0  0  0  0  0  0999 V2000
   -1.2117   -1.5211   -0.0381 C   0  0  0  0  0  0  0  0  0  0  0  0
    0.1947   -1.6161    0.0193 C   0  0  0  0  0  0  0  0  0  0  0  0
    0.9259   -0.5183    0.4270 C   0  0  0  0  0  0  0  0  0  0  0  0
    0.2654    0.5357    1.0143 C   0  0  0  0  0  0  0  0  0  0  0  0
   -1.1205    0.5936    1.0141 C   0  0  0  0  0  0  0  0  0  0  0  0
   -1.8634   -0.3270    0.3189 C   0  0  0  0  0  0  0  0  0  0  0  0
   -3.2954    0.0226   -0.0091 C   0  0  0  0  0  0  0  0  0  0  0  0
   -3.8270    1.2019   -0.2559 N   0  0  0  0  0  0  0  0  0  0  0  0
   -3.2662    2.4736   -0.2399 N   0  0  0  0  0  0  0  0  0  0  0  0
   -1.9221    2.8863   -0.4819 C   0  0  0  0  0  0  0  0  0  0  0  0
   -1.1850    2.1984   -1.4675 C   0  0  0  0  0  0  0  0  0  0  0  0
    0.2246    2.2348   -1.5159 C   0  0  0  0  0  0  0  0  0  0  0  0
    0.9458    3.0314   -0.6154 C   0  0  0  0  0  0  0  0  0  0  0  0
    0.2478    3.8013    0.3372 C   0  0  0  0  0  0  0  0  0  0  0  0
   -1.1769    3.7074    0.4295 C   0  0  0  0  0  0  0  0  0  0  0  0
   -1.7626    4.1511    1.7316 N   0  3  0  0  0  0  0  0  0  0  0  0
   -1.0156    4.6779    2.5547 O   0  0  0  0  0  0  0  0  0  0  0  0
   -2.9724    3.9208    1.9472 O   0  5  0  0  0  0  0  0  0  0  0  0
    2.3995    2.7619   -0.4103 N   0  3  0  0  0  0  0  0  0  0  0  0
    2.9427    3.2743    0.5774 O   0  0  0  0  0  0  0  0  0  0  0  0
    2.9727    2.0100   -1.2158 O   0  5  0  0  0  0  0  0  0  0  0  0
   -4.2183   -1.1706   -0.0236 C   0  0  0  0  0  0  0  0  0  0  0  0
   -4.1390   -2.0996    1.0306 C   0  0  0  0  0  0  0  0  0  0  0  0
   -4.8618   -3.2933    0.9893 C   0  0  0  0  0  0  0  0  0  0  0  0
   -5.6967   -3.5383   -0.0933 C   0  0  0  0  0  0  0  0  0  0  0  0
   -5.8042   -2.6166   -1.1340 C   0  0  0  0  0  0  0  0  0  0  0  0
   -5.0686   -1.4236   -1.1026 C   0  0  0  0  0  0  0  0  0  0  0  0
   -6.4354   -4.6814   -0.1791 O   0  0  0  0  0  0  0  0  0  0  0  0
    2.2699   -0.3803    0.3120 O   0  0  0  0  0  0  0  0  0  0  0  0
   -1.7743   -2.3950   -0.3564 H   0  0  0  0  0  0  0  0  0  0  0  0
    0.6949   -2.5379   -0.2541 H   0  0  0  0  0  0  0  0  0  0  0  0
    0.8305    1.3827    1.3775 H   0  0  0  0  0  0  0  0  0  0  0  0
   -1.6248    1.4485    1.4282 H   0  0  0  0  0  0  0  0  0  0  0  0
   -3.8729    3.2099    0.1440 H   0  0  0  0  0  0  0  0  0  0  0  0
   -1.6995    1.4200   -2.0330 H   0  0  0  0  0  0  0  0  0  0  0  0
    0.7256    1.4430   -2.0776 H   0  0  0  0  0  0  0  0  0  0  0  0
    0.8159    4.2783    1.1388 H   0  0  0  0  0  0  0  0  0  0  0  0
   -3.4786   -1.9139    1.8748 H   0  0  0  0  0  0  0  0  0  0  0  0
   -4.7447   -4.0114    1.7951 H   0  0  0  0  0  0  0  0  0  0  0  0
   -6.4545   -2.8391   -1.9762 H   0  0  0  0  0  0  0  0  0  0  0  0
   -5.1408   -0.7241   -1.9309 H   0  0  0  0  0  0  0  0  0  0  0  0
   -6.3182   -5.2020    0.6329 H   0  0  0  0  0  0  0  0  0  0  0  0
    2.6800   -1.1345   -0.1375 H   0  0  0  0  0  0  0  0  0  0  0  0
  1  2  2  0  0  0  0
  1  6  1  0  0  0  0
  1 30  1  0  0  0  0
  2  3  1  0  0  0  0
  2 31  1  0  0  0  0
  3  4  2  0  0  0  0
  3 29  1  0  0  0  0
  4  5  1  0  0  0  0
  4 32  1  0  0  0  0
  5  6  2  0  0  0  0
  5 33  1  0  0  0  0
  6  7  1  0  0  0  0
  7  8  2  0  0  0  0
  7 22  1  0  0  0  0
  8  9  1  0  0  0  0
  9 10  1  0  0  0  0
  9 34  1  0  0  0  0
 10 11  2  0  0  0  0
 10 15  1  0  0  0  0
 11 12  1  0  0  0  0
 11 35  1  0  0  0  0
 12 13  2  0  0  0  0
 12 36  1  0  0  0  0
 13 14  1  0  0  0  0
 13 19  1  0  0  0  0
 14 15  2  0  0  0  0
 14 37  1  0  0  0  0
 15 16  1  0  0  0  0
 16 17  2  0  0  0  0
 16 18  1  0  0  0  0
 19 20  2  0  0  0  0
 19 21  1  0  0  0  0
 22 23  2  0  0  0  0
 22 27  1  0  0  0  0
 23 24  1  0  0  0  0
 23 38  1  0  0  0  0
 24 25  2  0  0  0  0
 24 39  1  0  0  0  0
 25 26  1  0  0  0  0
 25 28  1  0  0  0  0
 26 27  2  0  0  0  0
 26 40  1  0  0  0  0
 27 41  1  0  0  0  0
 28 42  1  0  0  0  0
 29 43  1  0  0  0  0
M  CHG  4  16   1  18  -1  19   1  21  -1
M  END
>  <DRUGBANK_ID>
DB05686

>  <COMMON_NAME>
Sivifene

>  <CAS_NUMBER>
2675-35-6

>  <UNII>
XAV05295I5

>  <SYNONYMS>
Sivifene

$$$$
