525
 OpenBabel10282417103D

 39 41  0  0  0  0  0  0  0  0999 V2000
    0.8215    0.0338   -0.0031 S   0  0  0  0  0  0  0  0  0  0  0  0
    3.2659    1.1345   -0.3989 O   0  0  0  0  0  0  0  0  0  0  0  0
    3.3114   -1.1035    0.5060 N   0  0  0  0  0  0  0  0  0  0  0  0
    2.3941    4.2733   -2.2658 C   0  0  0  0  0  0  0  0  0  0  0  0
    1.3032    4.7359   -1.4771 C   0  0  0  0  0  0  0  0  0  0  0  0
    2.7070   -2.3552    0.8848 C   0  0  0  0  0  0  0  0  0  0  0  0
    2.6733    2.4038   -0.7325 C   0  0  0  0  0  0  0  0  0  0  0  0
    3.0585    3.0765   -1.8931 C   0  0  0  0  0  0  0  0  0  0  0  0
    1.6714   -2.8843    0.1054 C   0  0  0  0  0  0  0  0  0  0  0  0
    0.9081   -3.9780    0.5076 C   0  0  0  0  0  0  0  0  0  0  0  0
    0.9387    4.0404   -0.3323 C   0  0  0  0  0  0  0  0  0  0  0  0
    1.6794    2.9451    0.0873 C   0  0  0  0  0  0  0  0  0  0  0  0
    2.7555    5.0421   -3.3855 C   0  0  0  0  0  0  0  0  0  0  0  0
    3.0810   -3.0559    2.0355 C   0  0  0  0  0  0  0  0  0  0  0  0
    0.6180    5.9064   -1.8198 C   0  0  0  0  0  0  0  0  0  0  0  0
    2.5252   -0.0104    0.0380 C   0  0  0  0  0  0  0  0  0  0  0  0
    1.2797   -4.6550    1.6643 C   0  0  0  0  0  0  0  0  0  0  0  0
    2.3736   -4.2083    2.4138 C   0  0  0  0  0  0  0  0  0  0  0  0
    4.7769   -1.0586    0.5273 C   0  0  0  0  0  0  0  0  0  0  0  0
    2.0821    6.2306   -3.6988 C   0  0  0  0  0  0  0  0  0  0  0  0
    1.0127    6.6616   -2.9163 C   0  0  0  0  0  0  0  0  0  0  0  0
   -0.2910   -4.3671   -0.3022 C   0  0  0  0  0  0  0  0  0  0  0  0
    3.8632    2.6844   -2.5112 H   0  0  0  0  0  0  0  0  0  0  0  0
    1.4113   -2.4113   -0.8375 H   0  0  0  0  0  0  0  0  0  0  0  0
    0.0729    4.3388    0.2567 H   0  0  0  0  0  0  0  0  0  0  0  0
    1.3983    2.4710    1.0209 H   0  0  0  0  0  0  0  0  0  0  0  0
    3.5836    4.7314   -4.0203 H   0  0  0  0  0  0  0  0  0  0  0  0
    3.8762   -2.6985    2.6840 H   0  0  0  0  0  0  0  0  0  0  0  0
   -0.2133    6.2559   -1.2073 H   0  0  0  0  0  0  0  0  0  0  0  0
    0.7199   -5.5296    1.9855 H   0  0  0  0  0  0  0  0  0  0  0  0
    2.6543   -4.7472    3.3157 H   0  0  0  0  0  0  0  0  0  0  0  0
    5.1394   -0.8798   -0.4904 H   0  0  0  0  0  0  0  0  0  0  0  0
    5.1275   -0.2531    1.1776 H   0  0  0  0  0  0  0  0  0  0  0  0
    5.2137   -2.0072    0.8648 H   0  0  0  0  0  0  0  0  0  0  0  0
    2.3936    6.8270   -4.5518 H   0  0  0  0  0  0  0  0  0  0  0  0
    0.4939    7.5870   -3.1505 H   0  0  0  0  0  0  0  0  0  0  0  0
   -0.1517   -5.3640   -0.7245 H   0  0  0  0  0  0  0  0  0  0  0  0
   -1.1950   -4.3419    0.3146 H   0  0  0  0  0  0  0  0  0  0  0  0
   -0.4531   -3.6692   -1.1337 H   0  0  0  0  0  0  0  0  0  0  0  0
  1 16  2  0  0  0  0
  2  7  1  0  0  0  0
  2 16  1  0  0  0  0
  3  6  1  0  0  0  0
  3 16  1  0  0  0  0
  3 19  1  0  0  0  0
  4  5  1  0  0  0  0
  4  8  1  0  0  0  0
  4 13  2  0  0  0  0
  5 11  1  0  0  0  0
  5 15  2  0  0  0  0
  6  9  1  0  0  0  0
  6 14  2  0  0  0  0
  7  8  2  0  0  0  0
  7 12  1  0  0  0  0
  8 23  1  0  0  0  0
  9 10  2  0  0  0  0
  9 24  1  0  0  0  0
 10 17  1  0  0  0  0
 10 22  1  0  0  0  0
 11 12  2  0  0  0  0
 11 25  1  0  0  0  0
 12 26  1  0  0  0  0
 13 20  1  0  0  0  0
 13 27  1  0  0  0  0
 14 18  1  0  0  0  0
 14 28  1  0  0  0  0
 15 21  1  0  0  0  0
 15 29  1  0  0  0  0
 17 18  2  0  0  0  0
 17 30  1  0  0  0  0
 18 31  1  0  0  0  0
 19 32  1  0  0  0  0
 19 33  1  0  0  0  0
 19 34  1  0  0  0  0
 20 21  2  0  0  0  0
 20 35  1  0  0  0  0
 21 36  1  0  0  0  0
 22 37  1  0  0  0  0
 22 38  1  0  0  0  0
 22 39  1  0  0  0  0
M  END
>  <DRUGBANK_ID>
DB00525

>  <SECONDARY_ACCESSION_NUMBERS>
APRD01607

>  <COMMON_NAME>
Tolnaftate

>  <CAS_NUMBER>
2398-96-1

>  <UNII>
06KB629TKV

>  <SYNONYMS>
2-Naphthyl N-methyl-N-(3-tolyl)thionocarbamate; m,N-Dimethylthiocarbanilic acid O-2-naphthyl ester; Methyl (3-methylphenyl)carbamothioic acid O-2-naphthalenyl ester; N-methyl-N-(3-methylphenyl)-1-(naphthalen-2-yloxy)methanethioamide; O-2-Naphthyl m,N-dimethylthiocarbanilate; Tolnaftate; Tolnaftato; Tolnaftatum; Tolnaphthate

$$$$
