
 OpenBabel10282417153D

 69 72  0  0  1  0  0  0  0  0999 V2000
   -2.4735   -0.7250    0.4428 C   0  0  0  0  0  0  0  0  0  0  0  0
   -1.3364   -0.1665   -0.4257 C   0  0  1  0  0  0  0  0  0  0  0  0
   -0.8949    1.2696   -0.1234 C   0  0  2  0  0  0  0  0  0  0  0  0
    0.5247    1.2304    0.0514 O   0  0  0  0  0  0  0  0  0  0  0  0
    0.9162   -0.0629    0.1141 C   0  0  0  0  0  0  0  0  0  0  0  0
    2.0395   -0.3720    0.4937 O   0  0  0  0  0  0  0  0  0  0  0  0
   -0.1006   -0.8899   -0.2876 N   0  0  0  0  0  0  0  0  0  0  0  0
    0.0174   -2.3146   -0.5386 C   0  0  0  0  0  0  0  0  0  0  0  0
    0.9153   -2.6163   -1.7210 C   0  0  0  0  0  0  0  0  0  0  0  0
    2.2854   -2.3672   -1.6042 C   0  0  0  0  0  0  0  0  0  0  0  0
    3.2002   -2.6350   -2.6203 C   0  0  0  0  0  0  0  0  0  0  0  0
    2.7525   -3.2601   -3.7765 C   0  0  0  0  0  0  0  0  0  0  0  0
    1.3979   -3.5387   -3.9185 C   0  0  0  0  0  0  0  0  0  0  0  0
    0.4626   -3.1967   -2.9146 C   0  0  0  0  0  0  0  0  0  0  0  0
   -0.9488   -3.4975   -3.1415 C   0  0  0  0  0  0  0  0  0  0  0  0
   -1.8011   -2.3842   -3.3006 C   0  0  0  0  0  0  0  0  0  0  0  0
   -3.1450   -2.5212   -3.6334 C   0  0  0  0  0  0  0  0  0  0  0  0
   -3.6198   -3.8117   -3.8564 C   0  0  0  0  0  0  0  0  0  0  0  0
   -2.7942   -4.9261   -3.7289 C   0  0  0  0  0  0  0  0  0  0  0  0
   -1.4734   -4.7918   -3.2873 C   0  0  0  0  0  0  0  0  0  0  0  0
   -0.8420   -5.9870   -3.0432 O   0  0  0  0  0  0  0  0  0  0  0  0
    0.3978   -5.9860   -2.3368 C   0  0  0  0  0  0  0  0  0  0  0  0
   -4.9013   -4.0027   -4.1991 F   0  0  0  0  0  0  0  0  0  0  0  0
   -4.0017   -1.2913   -3.8233 C   0  0  0  0  0  0  0  0  0  0  0  0
   -4.4566   -1.1911   -5.2784 C   0  0  0  0  0  0  0  0  0  0  0  0
   -5.1913   -1.2944   -2.8669 C   0  0  0  0  0  0  0  0  0  0  0  0
    4.6460   -2.2852   -2.4179 C   0  0  0  0  0  0  0  0  0  0  0  0
    5.4359   -3.3916   -2.3945 F   0  0  0  0  0  0  0  0  0  0  0  0
    5.1257   -1.4888   -3.4101 F   0  0  0  0  0  0  0  0  0  0  0  0
    4.8934   -1.6243   -1.2538 F   0  0  0  0  0  0  0  0  0  0  0  0
   -1.4438    1.8474    1.1463 C   0  0  0  0  0  0  0  0  0  0  0  0
   -1.1992    1.2071    2.3729 C   0  0  0  0  0  0  0  0  0  0  0  0
   -1.7621    1.6617    3.5569 C   0  0  0  0  0  0  0  0  0  0  0  0
   -2.4709    2.8589    3.5282 C   0  0  0  0  0  0  0  0  0  0  0  0
   -2.6010    3.5844    2.3343 C   0  0  0  0  0  0  0  0  0  0  0  0
   -2.1778    3.0250    1.1261 C   0  0  0  0  0  0  0  0  0  0  0  0
   -3.0433    5.0189    2.3692 C   0  0  0  0  0  0  0  0  0  0  0  0
   -2.0721    5.8463    1.8920 F   0  0  0  0  0  0  0  0  0  0  0  0
   -4.1486    5.2517    1.6181 F   0  0  0  0  0  0  0  0  0  0  0  0
   -3.3228    5.4577    3.6254 F   0  0  0  0  0  0  0  0  0  0  0  0
   -1.5358    0.9165    4.8408 C   0  0  0  0  0  0  0  0  0  0  0  0
   -0.8176    1.6500    5.7299 F   0  0  0  0  0  0  0  0  0  0  0  0
   -2.7007    0.5887    5.4609 F   0  0  0  0  0  0  0  0  0  0  0  0
   -0.8586   -0.2532    4.6743 F   0  0  0  0  0  0  0  0  0  0  0  0
   -2.7531   -1.7393    0.1530 H   0  0  0  0  0  0  0  0  0  0  0  0
   -2.2009   -0.8178    1.4972 H   0  0  0  0  0  0  0  0  0  0  0  0
   -3.3613   -0.0890    0.3708 H   0  0  0  0  0  0  0  0  0  0  0  0
   -1.6623   -0.2073   -1.4658 H   0  0  0  0  0  0  0  0  0  0  0  0
   -1.0786    1.9233   -0.9836 H   0  0  0  0  0  0  0  0  0  0  0  0
    0.4131   -2.8015    0.3594 H   0  0  0  0  0  0  0  0  0  0  0  0
   -0.9837   -2.7317   -0.6833 H   0  0  0  0  0  0  0  0  0  0  0  0
    2.6868   -1.9640   -0.6832 H   0  0  0  0  0  0  0  0  0  0  0  0
    3.4548   -3.5621   -4.5492 H   0  0  0  0  0  0  0  0  0  0  0  0
    1.0754   -4.1328   -4.7751 H   0  0  0  0  0  0  0  0  0  0  0  0
   -1.3809   -1.3884   -3.1754 H   0  0  0  0  0  0  0  0  0  0  0  0
   -3.2012   -5.8992   -3.9852 H   0  0  0  0  0  0  0  0  0  0  0  0
    1.2062   -5.6906   -3.0015 H   0  0  0  0  0  0  0  0  0  0  0  0
    0.3686   -5.3821   -1.4221 H   0  0  0  0  0  0  0  0  0  0  0  0
    0.6610   -7.0052   -2.0498 H   0  0  0  0  0  0  0  0  0  0  0  0
   -3.4051   -0.3942   -3.6008 H   0  0  0  0  0  0  0  0  0  0  0  0
   -5.0733   -2.0484   -5.5668 H   0  0  0  0  0  0  0  0  0  0  0  0
   -5.0486   -0.2862   -5.4410 H   0  0  0  0  0  0  0  0  0  0  0  0
   -3.5941   -1.1640   -5.9544 H   0  0  0  0  0  0  0  0  0  0  0  0
   -4.8540   -1.3413   -1.8255 H   0  0  0  0  0  0  0  0  0  0  0  0
   -5.7914   -0.3880   -2.9926 H   0  0  0  0  0  0  0  0  0  0  0  0
   -5.8473   -2.1526   -3.0418 H   0  0  0  0  0  0  0  0  0  0  0  0
   -0.5978    0.2964    2.4010 H   0  0  0  0  0  0  0  0  0  0  0  0
   -2.8694    3.2644    4.4572 H   0  0  0  0  0  0  0  0  0  0  0  0
   -2.3642    3.5414    0.1845 H   0  0  0  0  0  0  0  0  0  0  0  0
  1 45  1  0  0  0  0
  1 46  1  0  0  0  0
  1 47  1  0  0  0  0
  2  1  1  0  0  0  0
  2  3  1  0  0  0  0
  2  7  1  0  0  0  0
  2 48  1  6  0  0  0
  3  4  1  0  0  0  0
  3 49  1  6  0  0  0
  3 31  1  0  0  0  0
  4  5  1  0  0  0  0
  5  6  2  0  0  0  0
  5  7  1  0  0  0  0
  7  8  1  0  0  0  0
  8  9  1  0  0  0  0
  8 50  1  0  0  0  0
  8 51  1  0  0  0  0
  9 10  2  0  0  0  0
  9 14  1  0  0  0  0
 10 11  1  0  0  0  0
 10 52  1  0  0  0  0
 11 12  2  0  0  0  0
 11 27  1  0  0  0  0
 12 13  1  0  0  0  0
 12 53  1  0  0  0  0
 13 14  2  0  0  0  0
 13 54  1  0  0  0  0
 14 15  1  0  0  0  0
 15 16  2  0  0  0  0
 15 20  1  0  0  0  0
 16 17  1  0  0  0  0
 16 55  1  0  0  0  0
 17 18  2  0  0  0  0
 17 24  1  0  0  0  0
 18 19  1  0  0  0  0
 18 23  1  0  0  0  0
 19 20  2  0  0  0  0
 19 56  1  0  0  0  0
 20 21  1  0  0  0  0
 21 22  1  0  0  0  0
 22 57  1  0  0  0  0
 22 58  1  0  0  0  0
 22 59  1  0  0  0  0
 24 25  1  0  0  0  0
 24 26  1  0  0  0  0
 24 60  1  0  0  0  0
 25 61  1  0  0  0  0
 25 62  1  0  0  0  0
 25 63  1  0  0  0  0
 26 64  1  0  0  0  0
 26 65  1  0  0  0  0
 26 66  1  0  0  0  0
 27 28  1  0  0  0  0
 27 29  1  0  0  0  0
 27 30  1  0  0  0  0
 31 32  2  0  0  0  0
 31 36  1  0  0  0  0
 32 33  1  0  0  0  0
 32 67  1  0  0  0  0
 33 34  2  0  0  0  0
 33 41  1  0  0  0  0
 34 35  1  0  0  0  0
 34 68  1  0  0  0  0
 35 36  2  0  0  0  0
 35 37  1  0  0  0  0
 36 69  1  0  0  0  0
 37 38  1  0  0  0  0
 37 39  1  0  0  0  0
 37 40  1  0  0  0  0
 41 42  1  0  0  0  0
 41 43  1  0  0  0  0
 41 44  1  0  0  0  0
M  END
>  <DRUGBANK_ID>
DB06630

>  <COMMON_NAME>
Anacetrapib

>  <CAS_NUMBER>
875446-37-0

>  <UNII>
P7T269PR6S

>  <SYNONYMS>
Anacetrapib

$$$$
