
 OpenBabel10282417133D

 58 60  0  0  0  0  0  0  0  0999 V2000
    1.0543    0.0300   -0.0785 P   0  0  1  0  0  0  0  0  0  0  0  0
    2.6833    0.4831    2.1829 P   0  0  2  0  0  0  0  0  0  0  0  0
   -0.1488    2.9649    1.9036 O   0  0  0  0  0  0  0  0  0  0  0  0
   -2.6733    3.8074   -0.0083 O   0  0  0  0  0  0  0  0  0  0  0  0
    3.9893    0.2270    0.6981 O   0  0  0  0  0  0  0  0  0  0  0  0
    0.6588    1.4645   -0.7413 O   0  0  0  0  0  0  0  0  0  0  0  0
    4.5135    0.8239    1.0708 O   0  0  0  0  0  0  0  0  0  0  0  0
    3.5392    1.0094   -3.5960 O   0  0  0  0  0  0  0  0  0  0  0  0
    5.3038   -0.7986   -2.3579 O   0  0  0  0  0  0  0  0  0  0  0  0
    2.5143    3.0511   -2.0835 O   0  0  0  0  0  0  0  0  0  0  0  0
    1.0543    0.2983    1.6306 O   0  0  0  0  0  0  0  0  0  0  0  0
   -1.5569    4.7016    4.8796 O   0  0  0  0  0  0  0  0  0  0  0  0
   -0.6757    0.0300   -0.0785 O   0  0  0  0  0  0  0  0  0  0  0  0
    2.2581    1.9326    2.8524 O   0  0  0  0  0  0  0  0  0  0  0  0
    2.6026    0.0300   -0.0785 O   0  0  0  0  0  0  0  0  0  0  0  0
    4.1412    0.6485    2.6772 O   0  0  0  0  0  0  0  0  0  0  0  0
    2.1747    6.8662    6.0438 O   0  0  0  0  0  0  0  0  0  0  0  0
    0.1804    4.7166    3.3647 N   0  0  0  0  0  0  0  0  0  0  0  0
    0.4499    5.4843    5.5374 N   0  0  0  0  0  0  0  0  0  0  0  0
   -1.2905    4.0789    0.0652 C   0  0  2  0  0  0  0  0  0  0  0  0
   -0.5856    2.8471    0.5523 C   0  0  1  0  0  0  0  0  0  0  0  0
   -0.8758    5.0672    1.1130 C   0  0  0  0  0  0  0  0  0  0  0  0
   -0.6957    4.1908    2.3509 C   0  0  1  0  0  0  0  0  0  0  0  0
    0.5992    2.7837   -0.2937 C   0  0  0  0  0  0  0  0  0  0  0  0
    3.9154    1.0926   -2.1999 C   0  0  2  0  0  0  0  0  0  0  0  0
    4.2375   -0.2906   -1.5896 C   0  0  2  0  0  0  0  0  0  0  0  0
    2.8458    1.8001   -1.4988 C   0  0  1  0  0  0  0  0  0  0  0  0
    4.9144   -0.2446   -0.0484 C   0  0  2  0  0  0  0  0  0  0  0  0
    3.2525    1.8743    0.0700 C   0  0  0  0  0  0  0  0  0  0  0  0
    1.4988    5.0389    3.0927 C   0  0  0  0  0  0  0  0  0  0  0  0
   -0.3828    4.9421    4.6049 C   0  0  0  0  0  0  0  0  0  0  0  0
    2.2143    5.8034    3.9255 C   0  0  0  0  0  0  0  0  0  0  0  0
    1.6298    6.1056    5.2513 C   0  0  0  0  0  0  0  0  0  0  0  0
    3.5312    6.4187    3.5919 C   0  0  0  0  0  0  0  0  0  0  0  0
    0.0422    5.6705    6.4382 H   0  0  0  0  0  0  0  0  0  0  0  0
   -2.8942    3.1890    0.7083 H   0  0  0  0  0  0  0  0  0  0  0  0
    2.6360    0.6484   -3.7011 H   0  0  0  0  0  0  0  0  0  0  0  0
    5.9750   -0.1557   -2.0632 H   0  0  0  0  0  0  0  0  0  0  0  0
    2.8265    3.7331   -1.4799 H   0  0  0  0  0  0  0  0  0  0  0  0
   -1.0284   -0.8080   -0.4306 H   0  0  0  0  0  0  0  0  0  0  0  0
    1.3163    1.8944    3.1222 H   0  0  0  0  0  0  0  0  0  0  0  0
   -1.0040    4.4209   -0.9393 H   0  0  0  0  0  0  0  0  0  0  0  0
   -1.2122    1.9692    0.5214 H   0  0  0  0  0  0  0  0  0  0  0  0
    0.0880    5.5098    0.8222 H   0  0  0  0  0  0  0  0  0  0  0  0
   -1.6223    5.8452    1.2294 H   0  0  0  0  0  0  0  0  0  0  0  0
   -1.6836    3.9382    2.7458 H   0  0  0  0  0  0  0  0  0  0  0  0
    1.4555    3.2650    0.1953 H   0  0  0  0  0  0  0  0  0  0  0  0
    0.5245    3.4025   -1.1937 H   0  0  0  0  0  0  0  0  0  0  0  0
    4.7231    1.7900   -2.0687 H   0  0  0  0  0  0  0  0  0  0  0  0
    3.3547   -0.9806   -1.7733 H   0  0  0  0  0  0  0  0  0  0  0  0
    2.0271    1.1475   -1.9021 H   0  0  0  0  0  0  0  0  0  0  0  0
    4.9234   -1.3252    0.2910 H   0  0  0  0  0  0  0  0  0  0  0  0
    2.3266    1.8988    0.6875 H   0  0  0  0  0  0  0  0  0  0  0  0
    3.7507    2.6266    0.6899 H   0  0  0  0  0  0  0  0  0  0  0  0
    1.9174    4.7059    2.1457 H   0  0  0  0  0  0  0  0  0  0  0  0
    3.4398    7.5121    3.6091 H   0  0  0  0  0  0  0  0  0  0  0  0
    4.2994    6.1237    4.3105 H   0  0  0  0  0  0  0  0  0  0  0  0
    3.8673    6.1409    2.5875 H   0  0  0  0  0  0  0  0  0  0  0  0
  1 13  1  0  0  0  0
  1 15  2  6  0  0  0
  1 11  1  0  0  0  0
  1  6  1  0  0  0  0
  2  7  1  0  0  0  0
  2 11  1  0  0  0  0
  2 14  1  0  0  0  0
  2 16  2  1  0  0  0
  3 21  1  0  0  0  0
  3 23  1  0  0  0  0
  4 36  1  0  0  0  0
  5 28  1  0  0  0  0
  5 29  1  0  0  0  0
  6 24  1  0  0  0  0
  8 37  1  0  0  0  0
  9 38  1  0  0  0  0
 10 39  1  0  0  0  0
 12 31  2  0  0  0  0
 13 40  1  0  0  0  0
 14 41  1  0  0  0  0
 17 33  2  0  0  0  0
 18 30  1  0  0  0  0
 18 31  1  0  0  0  0
 19 31  1  0  0  0  0
 19 33  1  0  0  0  0
 19 35  1  0  0  0  0
 20  4  1  0  0  0  0
 20 21  1  0  0  0  0
 20 22  1  0  0  0  0
 20 42  1  6  0  0  0
 21 24  1  0  0  0  0
 21 43  1  6  0  0  0
 22 23  1  0  0  0  0
 22 44  1  0  0  0  0
 22 45  1  0  0  0  0
 23 46  1  1  0  0  0
 23 18  1  0  0  0  0
 24 47  1  0  0  0  0
 24 48  1  0  0  0  0
 25  8  1  0  0  0  0
 25 26  1  0  0  0  0
 25 27  1  0  0  0  0
 25 49  1  1  0  0  0
 26  9  1  0  0  0  0
 26 28  1  0  0  0  0
 26 50  1  6  0  0  0
 27 10  1  0  0  0  0
 27 29  1  0  0  0  0
 27 51  1  6  0  0  0
 28  7  1  0  0  0  0
 28 52  1  1  0  0  0
 29 53  1  0  0  0  0
 29 54  1  0  0  0  0
 30 32  2  0  0  0  0
 30 55  1  0  0  0  0
 32 33  1  0  0  0  0
 32 34  1  0  0  0  0
 34 56  1  0  0  0  0
 34 57  1  0  0  0  0
 34 58  1  0  0  0  0
M  END
>  <DRUGBANK_ID>
DB03161

>  <SECONDARY_ACCESSION_NUMBERS>
EXPT03034

>  <COMMON_NAME>
Thymidine-5'-diphospho-beta-D-xylose

$$$$
