
 OpenBabel10282417183D

  3  0  0  0  0  0  0  0  0  0999 V2000
    0.9128   -0.0447   -0.0200 Cl  0  5  0  0  0  0  0  0  0  0  0  0
    0.9744   -0.0486    0.0836 Cl  0  5  0  0  0  0  0  0  0  0  0  0
    0.9432   -0.0770    0.0292 Sn  0  2  0  0  0  0  0  0  0  0  0  0
M  CHG  3   1  -1   2  -1   3   2
M  END
>  <DRUGBANK_ID>
DB11056

>  <COMMON_NAME>
Stannous chloride

>  <CAS_NUMBER>
7772-99-8

>  <UNII>
R30H55TN67

>  <SYNONYMS>
Stannous chloride anhydrous; Stannous chloride,anhydrous; Tin dichloride

$$$$
