634
 OpenBabel10282417103D

 24 24  0  0  0  0  0  0  0  0999 V2000
    0.9867   -0.0609   -0.0734 S   0  0  0  0  0  0  0  0  0  0  0  0
    0.4778   -0.5661   -1.3309 O   0  0  0  0  0  0  0  0  0  0  0  0
    0.4834   -0.5781    1.1820 O   0  0  0  0  0  0  0  0  0  0  0  0
    0.3271    3.9109   -0.0501 O   0  0  0  0  0  0  0  0  0  0  0  0
    0.5750    1.6234   -0.0643 N   0  0  0  0  0  0  0  0  0  0  0  0
    6.9966   -0.1559   -0.0718 N   0  0  0  0  0  0  0  0  0  0  0  0
    2.7557   -0.4121   -0.0794 C   0  0  0  0  0  0  0  0  0  0  0  0
    3.5299    0.6919   -0.0704 C   0  0  0  0  0  0  0  0  0  0  0  0
    3.4715   -1.5761   -0.0806 C   0  0  0  0  0  0  0  0  0  0  0  0
    5.6252   -0.2593   -0.0683 C   0  0  0  0  0  0  0  0  0  0  0  0
    4.8904    0.8804   -0.0779 C   0  0  0  0  0  0  0  0  0  0  0  0
    4.9104   -1.4847   -0.0724 C   0  0  0  0  0  0  0  0  0  0  0  0
    1.1032    2.9789   -0.0581 C   0  0  0  0  0  0  0  0  0  0  0  0
    2.5799    3.3030   -0.0588 C   0  0  0  0  0  0  0  0  0  0  0  0
   -0.4494    1.6818   -0.0620 H   0  0  0  0  0  0  0  0  0  0  0  0
    7.5767   -0.9773   -0.0419 H   0  0  0  0  0  0  0  0  0  0  0  0
    7.4483    0.7532   -0.0452 H   0  0  0  0  0  0  0  0  0  0  0  0
    2.8587    1.4514   -0.0322 H   0  0  0  0  0  0  0  0  0  0  0  0
    2.9669   -2.5335   -0.0828 H   0  0  0  0  0  0  0  0  0  0  0  0
    5.3090    1.8846   -0.0777 H   0  0  0  0  0  0  0  0  0  0  0  0
    5.4863   -2.4024   -0.0649 H   0  0  0  0  0  0  0  0  0  0  0  0
    2.9648    2.8989    0.8952 H   0  0  0  0  0  0  0  0  0  0  0  0
    2.9644    2.8907   -1.0087 H   0  0  0  0  0  0  0  0  0  0  0  0
    2.9694    4.3115   -0.0596 H   0  0  0  0  0  0  0  0  0  0  0  0
  1  2  2  0  0  0  0
  1  3  2  0  0  0  0
  1  5  1  0  0  0  0
  1  7  1  0  0  0  0
  4 13  2  0  0  0  0
  5 13  1  0  0  0  0
  5 15  1  0  0  0  0
  6 10  1  0  0  0  0
  6 16  1  0  0  0  0
  6 17  1  0  0  0  0
  7  8  2  0  0  0  0
  7  9  1  0  0  0  0
  8 11  1  0  0  0  0
  8 18  1  0  0  0  0
  9 12  2  0  0  0  0
  9 19  1  0  0  0  0
 10 11  2  0  0  0  0
 10 12  1  0  0  0  0
 11 20  1  0  0  0  0
 12 21  1  0  0  0  0
 13 14  1  0  0  0  0
 14 22  1  0  0  0  0
 14 23  1  0  0  0  0
 14 24  1  0  0  0  0
M  END
>  <DRUGBANK_ID>
DB00634

>  <SECONDARY_ACCESSION_NUMBERS>
APRD00452

>  <COMMON_NAME>
Sulfacetamide

>  <CAS_NUMBER>
144-80-9

>  <UNII>
4965G3J0F5

>  <SYNONYMS>
Acetosulfamine; N-((p-Aminophenyl)sulfonyl)acetamide; N-(p-Aminobenzenesulfonyl)acetamide; N-[(p-Aminophenyl)sulfonyl]acetamide; N-Acetyl-4-aminobenzenesulfonamide; N-Acetylsulfanilamide; N-Sulfanilylacetamide; N-Sulphanilylacetamide; N'-acetylsulfanilamide; N(1)-Acetyl-4-aminophenylsulfonamide; N(1)-Acetylsulfanilamide; p-Aminobenzenesulfonacetamide; p-Aminobenzenesulfonoacetamide; Sulfacetamid; Sulfacetamida; Sulfac√©tamide; Sulfacetamide; Sulfacetamidum; Sulfanilazetamid; Sulphacetamide; Sulphacetamidum

$$$$
