
 OpenBabel10282417113D

 50 53  0  0  0  0  0  0  0  0999 V2000
   -0.2846    0.8960    0.7346 C   0  0  0  0  0  0  0  0  0  0  0  0
   -0.6875    2.1917    1.7078 C   0  0  0  0  0  0  0  0  0  0  0  0
    0.3747    3.2195    1.9235 C   0  0  0  0  0  0  0  0  0  0  0  0
    0.2182   -0.1013    1.7058 C   0  0  0  0  0  0  0  0  0  0  0  0
    1.2903    0.8568    2.4282 C   0  0  1  0  0  0  0  0  0  0  0  0
    1.4089    2.3869    1.7291 C   0  0  0  0  0  0  0  0  0  0  0  0
    2.0648    2.5493    0.3377 C   0  0  0  0  0  0  0  0  0  0  0  0
    3.4436    1.8495    0.2815 C   0  0  0  0  0  0  0  0  0  0  0  0
    2.7546    0.3747    2.3553 C   0  0  2  0  0  0  0  0  0  0  0  0
    3.4555    0.3099    0.8242 C   0  0  2  0  0  0  0  0  0  0  0  0
    4.2082   -1.2704    3.1569 C   0  0  0  0  0  0  0  0  0  0  0  0
    2.7951   -0.9282    3.1036 C   0  0  0  0  0  0  0  0  0  0  0  0
    4.6840   -1.4033    1.7342 C   0  0  1  0  0  0  0  0  0  0  0  0
    4.8106   -0.9482    0.4268 C   0  0  1  0  0  0  0  0  0  0  0  0
    5.5540   -2.7492    0.7607 C   0  0  0  0  0  0  0  0  0  0  0  0
    6.5250   -2.7706    1.9850 C   0  0  0  0  0  0  0  0  0  0  0  0
    6.3632   -1.3516    1.8115 C   0  0  2  0  0  0  0  0  0  0  0  0
    0.2014    4.4845    1.4027 O   0  0  0  0  0  0  0  0  0  0  0  0
   -1.6156    2.2202    2.5140 O   0  0  0  0  0  0  0  0  0  0  0  0
    0.6789    0.8451    3.8882 C   0  0  0  0  0  0  0  0  0  0  0  0
    2.6762   -0.0578    0.1624 H   0  0  0  0  0  0  0  0  0  0  0  0
    3.3376    1.1177    2.9343 H   0  0  0  0  0  0  0  0  0  0  0  0
    5.6134   -0.2913    0.0080 H   0  0  0  0  0  0  0  0  0  0  0  0
    3.3536   -2.3220    0.7678 C   0  0  0  0  0  0  0  0  0  0  0  0
    6.9787   -0.4519    2.6790 O   0  0  0  0  0  0  0  0  0  0  0  0
   -0.8888    0.7794   -0.1527 H   0  0  0  0  0  0  0  0  0  0  0  0
    0.6680    0.8412    0.2069 H   0  0  0  0  0  0  0  0  0  0  0  0
   -0.6780   -0.4385    2.2437 H   0  0  0  0  0  0  0  0  0  0  0  0
    0.6684   -1.0323    1.3424 H   0  0  0  0  0  0  0  0  0  0  0  0
    2.0646    3.6075    0.0223 H   0  0  0  0  0  0  0  0  0  0  0  0
    1.4240    2.1793   -0.4880 H   0  0  0  0  0  0  0  0  0  0  0  0
    4.0578    2.5183    0.8910 H   0  0  0  0  0  0  0  0  0  0  0  0
    3.7526    1.9038   -0.7666 H   0  0  0  0  0  0  0  0  0  0  0  0
    4.2954   -2.2255    3.6766 H   0  0  0  0  0  0  0  0  0  0  0  0
    4.7742   -0.5277    3.7201 H   0  0  0  0  0  0  0  0  0  0  0  0
    2.1998   -1.7019    2.6236 H   0  0  0  0  0  0  0  0  0  0  0  0
    2.4418   -0.9045    4.1292 H   0  0  0  0  0  0  0  0  0  0  0  0
    5.8687   -3.4590   -0.0233 H   0  0  0  0  0  0  0  0  0  0  0  0
    4.8533   -3.4867    1.2402 H   0  0  0  0  0  0  0  0  0  0  0  0
    7.5232   -3.1810    1.8629 H   0  0  0  0  0  0  0  0  0  0  0  0
    6.1147   -3.1052    2.9543 H   0  0  0  0  0  0  0  0  0  0  0  0
    6.9310   -1.1804    0.8584 H   0  0  0  0  0  0  0  0  0  0  0  0
   -0.3396    4.9843    2.0497 H   0  0  0  0  0  0  0  0  0  0  0  0
   -0.4180    0.8040    3.8616 H   0  0  0  0  0  0  0  0  0  0  0  0
    0.8550   -0.0660    4.4681 H   0  0  0  0  0  0  0  0  0  0  0  0
    0.9685    1.7158    4.4670 H   0  0  0  0  0  0  0  0  0  0  0  0
    2.4254   -1.7784    0.6047 H   0  0  0  0  0  0  0  0  0  0  0  0
    3.6580   -2.4945   -0.3107 H   0  0  0  0  0  0  0  0  0  0  0  0
    3.0597   -3.2935    1.1610 H   0  0  0  0  0  0  0  0  0  0  0  0
    7.4077    0.1950    2.0766 H   0  0  0  0  0  0  0  0  0  0  0  0
  1  2  1  0  0  0  0
  1  4  1  0  0  0  0
  1 26  1  0  0  0  0
  1 27  1  0  0  0  0
  2  3  1  0  0  0  0
  2 19  2  0  0  0  0
  3  6  2  0  0  0  0
  3 18  1  0  0  0  0
  4 28  1  0  0  0  0
  4 29  1  0  0  0  0
  5  4  1  0  0  0  0
  5  6  1  0  0  0  0
  5  9  1  0  0  0  0
  5 20  1  6  0  0  0
  6  7  1  0  0  0  0
  7  8  1  0  0  0  0
  7 30  1  0  0  0  0
  7 31  1  0  0  0  0
  8 10  1  0  0  0  0
  8 32  1  0  0  0  0
  8 33  1  0  0  0  0
  9 10  1  0  0  0  0
  9 12  1  0  0  0  0
  9 22  1  1  0  0  0
 10 14  1  0  0  0  0
 10 21  1  6  0  0  0
 11 12  1  0  0  0  0
 11 34  1  0  0  0  0
 11 35  1  0  0  0  0
 12 36  1  0  0  0  0
 12 37  1  0  0  0  0
 13 11  1  0  0  0  0
 13 14  1  0  0  0  0
 13 24  1  6  0  0  0
 14 15  1  0  0  0  0
 14 23  1  1  0  0  0
 15 16  1  0  0  0  0
 15 38  1  0  0  0  0
 15 39  1  0  0  0  0
 16 17  1  0  0  0  0
 16 40  1  0  0  0  0
 16 41  1  0  0  0  0
 17 13  1  0  0  0  0
 17 42  1  6  0  0  0
 17 25  1  0  0  0  0
 18 43  1  0  0  0  0
 20 44  1  0  0  0  0
 20 45  1  0  0  0  0
 20 46  1  0  0  0  0
 24 47  1  0  0  0  0
 24 48  1  0  0  0  0
 24 49  1  0  0  0  0
 25 50  1  0  0  0  0
M  END
>  <DRUGBANK_ID>
DB01485

>  <COMMON_NAME>
4-Hydroxytestosterone

>  <CAS_NUMBER>
2141-17-5

>  <UNII>
912GOZ167T

>  <SYNONYMS>
4-Androstene-7alpha-17beta-diol-3-one; 4,17beta-Dihydroxy-4-androstene-3-one; 7alpha-Hydroxytestosterone

$$$$
