
 OpenBabel10282417203D

 20 21  0  0  1  0  0  0  0  0999 V2000
    0.0378    0.8552   -0.1389 C   0  0  0  0  0  0  0  0  0  0  0  0
    0.7876   -0.4240    0.1432 C   0  0  1  0  0  0  0  0  0  0  0  0
   -0.5761   -0.4358   -0.2854 O   0  0  0  0  0  0  0  0  0  0  0  0
    1.8223   -0.9524   -0.8103 C   0  0  1  0  0  0  0  0  0  0  0  0
    3.2076   -0.2752   -0.5768 C   0  0  1  0  0  0  0  0  0  0  0  0
    3.6246   -0.3540    0.8705 C   0  0  2  0  0  0  0  0  0  0  0  0
    5.0496   -0.3386    1.3523 C   0  0  0  0  0  0  0  0  0  0  0  0
    4.3013   -1.5655    1.2397 O   0  0  0  0  0  0  0  0  0  0  0  0
    4.2038   -0.8570   -1.4210 O   0  0  0  0  0  0  0  0  0  0  0  0
    1.9426   -2.3733   -0.6376 O   0  0  0  0  0  0  0  0  0  0  0  0
   -0.2059    1.4691    0.7213 H   0  0  0  0  0  0  0  0  0  0  0  0
    0.1644    1.4066   -1.0609 H   0  0  0  0  0  0  0  0  0  0  0  0
    0.9578   -0.7176    1.1695 H   0  0  0  0  0  0  0  0  0  0  0  0
    1.5195   -0.8023   -1.8540 H   0  0  0  0  0  0  0  0  0  0  0  0
    3.1357    0.7833   -0.8518 H   0  0  0  0  0  0  0  0  0  0  0  0
    2.9067    0.0720    1.5534 H   0  0  0  0  0  0  0  0  0  0  0  0
    5.8414   -0.1454    0.6442 H   0  0  0  0  0  0  0  0  0  0  0  0
    5.2224    0.0443    2.3515 H   0  0  0  0  0  0  0  0  0  0  0  0
    4.2117   -1.8119   -1.2067 H   0  0  0  0  0  0  0  0  0  0  0  0
    2.2553   -2.5392    0.2694 H   0  0  0  0  0  0  0  0  0  0  0  0
  1  2  1  0  0  0  0
  1  3  1  0  0  0  0
  1 11  1  0  0  0  0
  1 12  1  0  0  0  0
  2  3  1  0  0  0  0
  2  4  1  0  0  0  0
  2 13  1  1  0  0  0
  4  5  1  0  0  0  0
  4 10  1  0  0  0  0
  4 14  1  6  0  0  0
  5  9  1  0  0  0  0
  5 15  1  6  0  0  0
  6  5  1  0  0  0  0
  6  7  1  0  0  0  0
  6  8  1  0  0  0  0
  6 16  1  1  0  0  0
  7  8  1  0  0  0  0
  7 17  1  0  0  0  0
  7 18  1  0  0  0  0
  9 19  1  0  0  0  0
 10 20  1  0  0  0  0
M  END
>  <DRUGBANK_ID>
DB12873

>  <COMMON_NAME>
Dianhydrogalactitol

>  <CAS_NUMBER>
23261-20-3

>  <UNII>
4S465RYF7M

>  <SYNONYMS>
1,2:5,6-Dianhdrogalactitol; 1,2:5,6-Dianhydrogalactitol; Dianhydrogalactitol

$$$$
