
 OpenBabel10282417183D

 54 57  0  0  0  0  0  0  0  0999 V2000
    2.5182   -3.5410    1.0125 C   0  0  1  0  0  0  0  0  0  0  0  0
    0.3555   -1.7191   -2.7160 C   0  0  2  0  0  0  0  0  0  0  0  0
    3.9590   -3.1560    1.4564 C   0  0  0  0  0  0  0  0  0  0  0  0
    0.6436   -1.4982   -4.4098 C   0  0  1  0  0  0  0  0  0  0  0  0
    1.8571   -3.5334   -0.4556 C   0  0  2  0  0  0  0  0  0  0  0  0
    2.5098   -2.5055   -1.3062 C   0  0  2  0  0  0  0  0  0  0  0  0
    1.8152   -2.3813   -2.6487 C   0  0  2  0  0  0  0  0  0  0  0  0
    1.9367   -2.2544    1.4695 C   0  0  0  0  0  0  0  0  0  0  0  0
   -0.4026   -2.8986   -1.8834 C   0  0  0  0  0  0  0  0  0  0  0  0
    0.2719   -3.2462   -0.4836 C   0  0  2  0  0  0  0  0  0  0  0  0
    4.0193   -2.7057   -1.3354 C   0  0  0  0  0  0  0  0  0  0  0  0
    4.7191   -2.7230    0.1097 C   0  0  2  0  0  0  0  0  0  0  0  0
    4.0684   -2.4797    2.7264 C   0  0  0  0  0  0  0  0  0  0  0  0
    1.3722   -0.0711   -4.4163 C   0  0  0  0  0  0  0  0  0  0  0  0
    0.8734   -2.9896   -4.7121 C   0  0  0  0  0  0  0  0  0  0  0  0
    1.7785   -3.5412   -3.6349 C   0  0  0  0  0  0  0  0  0  0  0  0
    1.5606   -1.9150    2.6950 C   0  0  0  0  0  0  0  0  0  0  0  0
    2.9096   -1.4277    3.0612 C   0  0  0  0  0  0  0  0  0  0  0  0
    0.8362    0.8837   -5.0157 O   0  0  0  0  0  0  0  0  0  0  0  0
    3.0703   -0.2322    3.4261 O   0  0  0  0  0  0  0  0  0  0  0  0
   -0.0141   -1.2258   -5.6799 O   0  0  0  0  0  0  0  0  0  0  0  0
    2.1380   -4.9250    1.5548 C   0  0  0  0  0  0  0  0  0  0  0  0
    0.0572   -0.4035   -1.8566 C   0  0  0  0  0  0  0  0  0  0  0  0
    5.8515   -3.4718   -0.0568 F   0  0  0  0  0  0  0  0  0  0  0  0
   -0.1940   -2.1848    0.3590 O   0  0  0  0  0  0  0  0  0  0  0  0
    2.6458    0.3231   -3.6119 C   0  0  0  0  0  0  0  0  0  0  0  0
    3.0027    0.0104   -2.2985 O   0  0  0  0  0  0  0  0  0  0  0  0
    2.5067   -1.7893   -3.2125 H   0  0  0  0  0  0  0  0  0  0  0  0
    2.0353   -4.4954   -0.9627 H   0  0  0  0  0  0  0  0  0  0  0  0
    2.3825   -1.5568   -0.8157 H   0  0  0  0  0  0  0  0  0  0  0  0
    2.4900   -1.4121    0.9753 H   0  0  0  0  0  0  0  0  0  0  0  0
   -1.4255   -2.5806   -1.6293 H   0  0  0  0  0  0  0  0  0  0  0  0
   -0.4954   -3.8396   -2.4237 H   0  0  0  0  0  0  0  0  0  0  0  0
   -0.1825   -4.1297   -0.0316 H   0  0  0  0  0  0  0  0  0  0  0  0
    4.4634   -1.8648   -1.8952 H   0  0  0  0  0  0  0  0  0  0  0  0
    4.2599   -3.5609   -1.9844 H   0  0  0  0  0  0  0  0  0  0  0  0
    5.0391   -1.6881    0.2714 H   0  0  0  0  0  0  0  0  0  0  0  0
    3.7550   -2.9672    3.6982 H   0  0  0  0  0  0  0  0  0  0  0  0
    1.1083   -3.3703   -5.7167 H   0  0  0  0  0  0  0  0  0  0  0  0
   -0.1522   -3.3941   -4.5820 H   0  0  0  0  0  0  0  0  0  0  0  0
    2.7808   -3.6846   -4.0399 H   0  0  0  0  0  0  0  0  0  0  0  0
    1.4064   -4.4888   -3.2413 H   0  0  0  0  0  0  0  0  0  0  0  0
    0.8606   -1.0774    2.7299 H   0  0  0  0  0  0  0  0  0  0  0  0
    0.7037   -0.9396   -6.3267 H   0  0  0  0  0  0  0  0  0  0  0  0
    2.2706   -5.6986    0.7753 H   0  0  0  0  0  0  0  0  0  0  0  0
    2.7451   -5.2700    2.3951 H   0  0  0  0  0  0  0  0  0  0  0  0
    1.0833   -4.9345    1.8289 H   0  0  0  0  0  0  0  0  0  0  0  0
    0.6572   -0.3883   -0.9470 H   0  0  0  0  0  0  0  0  0  0  0  0
    0.2870    0.5706   -2.2963 H   0  0  0  0  0  0  0  0  0  0  0  0
   -0.9695   -0.3355   -1.4635 H   0  0  0  0  0  0  0  0  0  0  0  0
    0.4663   -1.4758    0.3844 H   0  0  0  0  0  0  0  0  0  0  0  0
    3.5133    0.0708   -4.2168 H   0  0  0  0  0  0  0  0  0  0  0  0
    2.5189    1.3981   -3.5003 H   0  0  0  0  0  0  0  0  0  0  0  0
    2.1679   -0.1541   -1.8561 H   0  0  0  0  0  0  0  0  0  0  0  0
  1 22  1  6  0  0  0
  2  9  1  0  0  0  0
  2 23  1  1  0  0  0
  3  1  1  0  0  0  0
  4  2  1  0  0  0  0
  4 15  1  0  0  0  0
  4 21  1  6  0  0  0
  4 14  1  0  0  0  0
  5  1  1  0  0  0  0
  5 29  1  6  0  0  0
  6  5  1  0  0  0  0
  6 30  1  1  0  0  0
  6 11  1  0  0  0  0
  7  6  1  0  0  0  0
  7 28  1  1  0  0  0
  7  2  1  0  0  0  0
  8  1  1  0  0  0  0
  8 31  1  0  0  0  0
  9 10  1  0  0  0  0
  9 32  1  0  0  0  0
  9 33  1  0  0  0  0
 10  5  1  0  0  0  0
 10 25  1  0  0  0  0
 10 34  1  1  0  0  0
 11 12  1  0  0  0  0
 11 35  1  0  0  0  0
 11 36  1  0  0  0  0
 12  3  1  0  0  0  0
 12 37  1  1  0  0  0
 12 24  1  0  0  0  0
 13  3  2  0  0  0  0
 13 38  1  0  0  0  0
 15 16  1  0  0  0  0
 15 39  1  0  0  0  0
 15 40  1  0  0  0  0
 16  7  1  0  0  0  0
 16 41  1  0  0  0  0
 16 42  1  0  0  0  0
 17  8  2  0  0  0  0
 17 43  1  0  0  0  0
 18 13  1  0  0  0  0
 18 17  1  0  0  0  0
 19 14  2  0  0  0  0
 20 18  2  0  0  0  0
 21 44  1  0  0  0  0
 22 45  1  0  0  0  0
 22 46  1  0  0  0  0
 22 47  1  0  0  0  0
 23 48  1  0  0  0  0
 23 49  1  0  0  0  0
 23 50  1  0  0  0  0
 25 51  1  0  0  0  0
 26 14  1  0  0  0  0
 26 52  1  0  0  0  0
 26 53  1  0  0  0  0
 27 26  1  0  0  0  0
 27 54  1  0  0  0  0
M  END
>  <DRUGBANK_ID>
DB09378

>  <COMMON_NAME>
Fluprednisolone

>  <CAS_NUMBER>
53-34-9

>  <UNII>
9H05937G3X

>  <SYNONYMS>
6alpha-Fluoroprednisolone; Fluprednisolone; Fluprednisolonum

$$$$
