
 OpenBabel10282417153D

 44 46  0  0  0  0  0  0  0  0999 V2000
    1.9733    0.1218   -0.0610 O   0  0  0  0  0  0  0  0  0  0  0  0
   -3.4595   -5.8455   -0.8873 O   0  0  0  0  0  0  0  0  0  0  0  0
    2.2767   -1.9768    3.1426 O   0  0  0  0  0  0  0  0  0  0  0  0
   -0.0828   -0.9465   -0.2894 N   0  0  0  0  0  0  0  0  0  0  0  0
   -2.2088   -4.1050   -0.2864 N   0  0  0  0  0  0  0  0  0  0  0  0
   -1.1349   -4.9748    3.1435 N   0  0  0  0  0  0  0  0  0  0  0  0
    1.1718   -5.8293    2.9258 N   0  0  0  0  0  0  0  0  0  0  0  0
   -0.5605   -2.8743    3.7556 N   0  0  0  0  0  0  0  0  0  0  0  0
    2.9112   -4.1921    3.2014 N   0  0  0  0  0  0  0  0  0  0  0  0
   -1.4621   -0.5732   -0.0739 C   0  0  0  0  0  0  0  0  0  0  0  0
   -1.4795    0.8917   -0.3528 C   0  0  0  0  0  0  0  0  0  0  0  0
    0.4004   -2.3113   -0.4305 C   0  0  0  0  0  0  0  0  0  0  0  0
   -0.1268    1.3277    0.1965 C   0  0  0  0  0  0  0  0  0  0  0  0
    0.7576    0.1290   -0.0569 C   0  0  0  0  0  0  0  0  0  0  0  0
   -0.1282   -3.1554    0.6732 C   0  0  0  0  0  0  0  0  0  0  0  0
   -1.6298   -3.2823    0.6958 C   0  0  0  0  0  0  0  0  0  0  0  0
   -1.9467   -5.9932    2.4459 C   0  0  0  0  0  0  0  0  0  0  0  0
   -3.1705   -5.6199    1.5315 C   0  0  0  0  0  0  0  0  0  0  0  0
   -2.9413   -5.2166    0.0344 C   0  0  0  0  0  0  0  0  0  0  0  0
    0.2361   -4.9190    3.2375 C   0  0  0  0  0  0  0  0  0  0  0  0
    0.5827   -3.6160    3.5430 C   0  0  0  0  0  0  0  0  0  0  0  0
   -1.5632   -3.7162    3.5734 C   0  0  0  0  0  0  0  0  0  0  0  0
    1.9771   -3.1714    3.3096 C   0  0  0  0  0  0  0  0  0  0  0  0
    2.4816   -5.4057    3.0258 C   0  0  0  0  0  0  0  0  0  0  0  0
   -2.1466   -3.8217   -1.2576 H   0  0  0  0  0  0  0  0  0  0  0  0
    0.9844   -6.8152    2.7827 H   0  0  0  0  0  0  0  0  0  0  0  0
   -1.7358   -0.6753    0.9865 H   0  0  0  0  0  0  0  0  0  0  0  0
   -2.1238   -1.1436   -0.7325 H   0  0  0  0  0  0  0  0  0  0  0  0
   -2.3311    1.3808    0.1275 H   0  0  0  0  0  0  0  0  0  0  0  0
   -1.5412    1.0325   -1.4347 H   0  0  0  0  0  0  0  0  0  0  0  0
    0.1011   -2.7316   -1.3889 H   0  0  0  0  0  0  0  0  0  0  0  0
    1.4962   -2.3281   -0.3539 H   0  0  0  0  0  0  0  0  0  0  0  0
   -0.1713    1.5166    1.2747 H   0  0  0  0  0  0  0  0  0  0  0  0
    0.2478    2.1927   -0.3446 H   0  0  0  0  0  0  0  0  0  0  0  0
    0.3527   -4.1417    0.6754 H   0  0  0  0  0  0  0  0  0  0  0  0
    0.1939   -2.5988    1.5455 H   0  0  0  0  0  0  0  0  0  0  0  0
   -1.9047   -3.8164    1.5412 H   0  0  0  0  0  0  0  0  0  0  0  0
   -2.2305   -2.4168    0.9334 H   0  0  0  0  0  0  0  0  0  0  0  0
   -2.3249   -6.5973    3.2770 H   0  0  0  0  0  0  0  0  0  0  0  0
   -1.2679   -6.6175    1.8534 H   0  0  0  0  0  0  0  0  0  0  0  0
   -3.8129   -4.8734    2.0158 H   0  0  0  0  0  0  0  0  0  0  0  0
   -3.7961   -6.5240    1.4633 H   0  0  0  0  0  0  0  0  0  0  0  0
   -2.5944   -3.3863    3.4662 H   0  0  0  0  0  0  0  0  0  0  0  0
    3.2045   -6.2352    2.9875 H   0  0  0  0  0  0  0  0  0  0  0  0
  1 14  2  0  0  0  0
  2 19  2  0  0  0  0
  3 23  2  0  0  0  0
  4 10  1  0  0  0  0
  4 12  1  0  0  0  0
  4 14  1  0  0  0  0
  5 16  1  0  0  0  0
  5 19  1  0  0  0  0
  5 25  1  0  0  0  0
  6 17  1  0  0  0  0
  6 20  1  0  0  0  0
  6 22  1  0  0  0  0
  7 20  1  0  0  0  0
  7 24  1  0  0  0  0
  7 26  1  0  0  0  0
  8 21  1  0  0  0  0
  8 22  2  0  0  0  0
  9 23  1  0  0  0  0
  9 24  2  0  0  0  0
 10 11  1  0  0  0  0
 10 27  1  0  0  0  0
 10 28  1  0  0  0  0
 11 13  1  0  0  0  0
 11 29  1  0  0  0  0
 11 30  1  0  0  0  0
 12 15  1  0  0  0  0
 12 31  1  0  0  0  0
 12 32  1  0  0  0  0
 13 14  1  0  0  0  0
 13 33  1  0  0  0  0
 13 34  1  0  0  0  0
 15 16  1  0  0  0  0
 15 35  1  0  0  0  0
 15 36  1  0  0  0  0
 16 37  1  0  0  0  0
 16 38  1  0  0  0  0
 17 18  1  0  0  0  0
 17 39  1  0  0  0  0
 17 40  1  0  0  0  0
 18 19  1  0  0  0  0
 18 41  1  0  0  0  0
 18 42  1  0  0  0  0
 20 21  2  0  0  0  0
 21 23  1  0  0  0  0
 22 43  1  0  0  0  0
 24 44  1  0  0  0  0
M  END
>  <DRUGBANK_ID>
DB06106

>  <COMMON_NAME>
AIT-034

>  <CAS_NUMBER>
138117-48-3

>  <UNII>
5F3GZ8G54Z

$$$$
