701
 OpenBabel10282417163D

 53 55  0  0  0  0  0  0  0  0999 V2000
    1.9853   -0.0127    0.0396 Cl  0  0  0  0  0  0  0  0  0  0  0  0
    0.2905    0.2586    0.0086 C   0  0  0  0  0  0  0  0  0  0  0  0
   -0.3442    1.4664    0.0349 C   0  0  0  0  0  0  0  0  0  0  0  0
   -1.7622    1.3052   -0.0783 C   0  0  0  0  0  0  0  0  0  0  0  0
   -2.1725   -0.0158   -0.2664 C   0  0  0  0  0  0  0  0  0  0  0  0
   -3.5006   -0.5990   -0.5233 C   0  0  0  0  0  0  0  0  0  0  0  0
   -3.6626   -2.0932   -0.8997 C   0  0  0  0  0  0  0  0  0  0  0  0
   -6.2200   -0.2361   -0.0707 S   0  0  0  0  0  0  0  0  0  0  0  0
   -6.6772    0.3820    1.1552 O   0  0  0  0  0  0  0  0  0  0  0  0
   -6.9295    0.0142   -1.3056 O   0  0  0  0  0  0  0  0  0  0  0  0
   -6.3087   -1.9057    0.1944 N   0  0  0  0  0  0  0  0  0  0  0  0
   -5.7453   -2.4787    1.4501 C   0  0  1  0  0  0  0  0  0  0  0  0
   -4.3426   -1.9849    1.8069 C   0  0  0  0  0  0  0  0  0  0  0  0
   -4.2253   -2.2082    3.2312 C   0  0  0  0  0  0  0  0  0  0  0  0
   -6.4818   -2.0786    2.7019 C   0  0  0  0  0  0  0  0  0  0  0  0
   -7.7029   -1.9475    2.8044 O   0  0  0  0  0  0  0  0  0  0  0  0
   -5.5170   -1.9160    3.6770 N   0  0  0  0  0  0  0  0  0  0  0  0
   -5.6077   -1.1917    4.9106 C   0  0  1  0  0  0  0  0  0  0  0  0
   -4.9732   -2.1258    5.9372 C   0  0  0  0  0  0  0  0  0  0  0  0
   -4.9586    0.2788    4.9644 C   0  0  0  0  0  0  0  0  0  0  0  0
   -5.6850    1.1727    5.4305 O   0  0  0  0  0  0  0  0  0  0  0  0
   -3.5788    0.5481    4.8586 N   0  0  0  0  0  0  0  0  0  0  0  0
   -2.5094    0.3062    3.8357 C   0  0  0  0  0  0  0  0  0  0  0  0
   -1.4159   -0.5610    4.4839 C   0  0  0  0  0  0  0  0  0  0  0  0
   -0.8100    0.1981    5.5392 O   0  0  0  0  0  0  0  0  0  0  0  0
   -1.7909    0.5759    6.5283 C   0  0  0  0  0  0  0  0  0  0  0  0
   -2.9920    1.3436    5.9333 C   0  0  0  0  0  0  0  0  0  0  0  0
   -0.7725   -1.0431   -0.0644 S   0  0  0  0  0  0  0  0  0  0  0  0
   -4.5540    0.2349   -0.2883 C   0  0  0  0  0  0  0  0  0  0  0  0
   -5.7393   -3.5723    1.3669 H   0  0  0  0  0  0  0  0  0  0  0  0
   -6.6799   -1.0793    5.1119 H   0  0  0  0  0  0  0  0  0  0  0  0
    0.1700    2.4173    0.0986 H   0  0  0  0  0  0  0  0  0  0  0  0
   -2.4334    2.1547   -0.0858 H   0  0  0  0  0  0  0  0  0  0  0  0
   -4.2202   -2.7430   -0.2376 H   0  0  0  0  0  0  0  0  0  0  0  0
   -4.2011   -2.2302   -1.8286 H   0  0  0  0  0  0  0  0  0  0  0  0
   -2.7092   -2.6243   -0.8643 H   0  0  0  0  0  0  0  0  0  0  0  0
   -7.2878   -2.1890    0.0722 H   0  0  0  0  0  0  0  0  0  0  0  0
   -3.4418   -2.4448    1.4048 H   0  0  0  0  0  0  0  0  0  0  0  0
   -4.2970   -0.9034    1.6968 H   0  0  0  0  0  0  0  0  0  0  0  0
   -3.7374   -3.1181    3.5670 H   0  0  0  0  0  0  0  0  0  0  0  0
   -3.6236   -1.4389    3.6133 H   0  0  0  0  0  0  0  0  0  0  0  0
   -3.8861   -2.1801    5.8007 H   0  0  0  0  0  0  0  0  0  0  0  0
   -5.1735   -1.8117    6.9559 H   0  0  0  0  0  0  0  0  0  0  0  0
   -5.3454   -3.1511    5.7875 H   0  0  0  0  0  0  0  0  0  0  0  0
   -2.0877    1.2877    3.5858 H   0  0  0  0  0  0  0  0  0  0  0  0
   -2.8194   -0.0597    2.8607 H   0  0  0  0  0  0  0  0  0  0  0  0
   -1.8099   -1.4942    4.9100 H   0  0  0  0  0  0  0  0  0  0  0  0
   -0.6468   -0.8412    3.7570 H   0  0  0  0  0  0  0  0  0  0  0  0
   -1.2799    1.1987    7.2651 H   0  0  0  0  0  0  0  0  0  0  0  0
   -2.1339   -0.3399    7.0235 H   0  0  0  0  0  0  0  0  0  0  0  0
   -2.6574    2.2845    5.4804 H   0  0  0  0  0  0  0  0  0  0  0  0
   -3.7188    1.5705    6.7158 H   0  0  0  0  0  0  0  0  0  0  0  0
   -4.4332    1.2795   -0.0258 H   0  0  0  0  0  0  0  0  0  0  0  0
  1  2  1  0  0  0  0
  2  3  2  0  0  0  0
  2 28  1  0  0  0  0
  3  4  1  0  0  0  0
  3 32  1  0  0  0  0
  4  5  2  0  0  0  0
  4 33  1  0  0  0  0
  5  6  1  0  0  0  0
  5 28  1  0  0  0  0
  6  7  1  0  0  0  0
  6 29  2  0  0  0  0
  7 34  1  0  0  0  0
  7 35  1  0  0  0  0
  7 36  1  0  0  0  0
  8  9  2  0  0  0  0
  8 10  2  0  0  0  0
  8 11  1  0  0  0  0
  8 29  1  0  0  0  0
 11 37  1  0  0  0  0
 12 11  1  0  0  0  0
 12 13  1  0  0  0  0
 12 15  1  0  0  0  0
 12 30  1  6  0  0  0
 13 14  1  0  0  0  0
 13 38  1  0  0  0  0
 13 39  1  0  0  0  0
 14 17  1  0  0  0  0
 14 40  1  0  0  0  0
 14 41  1  0  0  0  0
 15 16  2  0  0  0  0
 15 17  1  0  0  0  0
 17 18  1  0  0  0  0
 18 19  1  0  0  0  0
 18 20  1  0  0  0  0
 18 31  1  1  0  0  0
 19 42  1  0  0  0  0
 19 43  1  0  0  0  0
 19 44  1  0  0  0  0
 20 21  2  0  0  0  0
 20 22  1  0  0  0  0
 22 23  1  0  0  0  0
 22 27  1  0  0  0  0
 23 24  1  0  0  0  0
 23 45  1  0  0  0  0
 23 46  1  0  0  0  0
 24 25  1  0  0  0  0
 24 47  1  0  0  0  0
 24 48  1  0  0  0  0
 25 26  1  0  0  0  0
 26 27  1  0  0  0  0
 26 49  1  0  0  0  0
 26 50  1  0  0  0  0
 27 51  1  0  0  0  0
 27 52  1  0  0  0  0
 29 53  1  0  0  0  0
M  END
>  <DRUGBANK_ID>
DB07211

>  <COMMON_NAME>
(2R)-2-(5-CHLORO-2-THIENYL)-N-{(3S)-1-[(1S)-1-METHYL-2-MORPHOLIN-4-YL-2-OXOETHYL]-2-OXOPYRROLIDIN-3-YL}PROPENE-1-SULFONAMIDE

$$$$
