HMDB02124.mol
 OpenBabel10282417163D

 30 32  0  0  0  0  0  0  0  0999 V2000
    2.3319   -0.2555   -0.0019 C   0  0  0  0  0  0  0  0  0  0  0  0
    1.8936    1.0660   -0.0134 C   0  0  0  0  0  0  0  0  0  0  0  0
    0.5233    1.3292    0.0062 C   0  0  0  0  0  0  0  0  0  0  0  0
   -0.4021    0.2763    0.0235 C   0  0  0  0  0  0  0  0  0  0  0  0
    0.0553   -1.0474    0.0438 C   0  0  0  0  0  0  0  0  0  0  0  0
    1.4272   -1.3140    0.0365 C   0  0  0  0  0  0  0  0  0  0  0  0
   -1.8618    0.5076   -0.0031 C   0  0  0  0  0  0  0  0  0  0  0  0
   -2.7107   -0.6874   -0.0639 C   0  0  0  0  0  0  0  0  0  0  0  0
   -2.1491   -1.9015   -0.0347 C   0  0  0  0  0  0  0  0  0  0  0  0
   -0.7895   -2.1370    0.0634 O   0  0  0  0  0  0  0  0  0  0  0  0
   -2.3967    1.6094    0.0063 O   0  0  0  0  0  0  0  0  0  0  0  0
   -3.0072   -3.0940   -0.1034 C   0  0  0  0  0  0  0  0  0  0  0  0
   -3.0337   -4.0303    0.9397 C   0  0  0  0  0  0  0  0  0  0  0  0
   -3.9096   -5.1241    0.8920 C   0  0  0  0  0  0  0  0  0  0  0  0
   -4.7530   -5.2802   -0.2046 C   0  0  0  0  0  0  0  0  0  0  0  0
   -4.7267   -4.3710   -1.2534 C   0  0  0  0  0  0  0  0  0  0  0  0
   -3.8578   -3.2809   -1.2038 C   0  0  0  0  0  0  0  0  0  0  0  0
   -5.6361   -6.3144   -0.3016 O   0  0  0  0  0  0  0  0  0  0  0  0
    0.0966    2.6262    0.0002 O   0  0  0  0  0  0  0  0  0  0  0  0
    3.6629   -0.5530   -0.0329 O   0  0  0  0  0  0  0  0  0  0  0  0
    2.6071    1.8823   -0.0435 H   0  0  0  0  0  0  0  0  0  0  0  0
    1.7905   -2.3383    0.0486 H   0  0  0  0  0  0  0  0  0  0  0  0
   -3.7779   -0.5185   -0.1309 H   0  0  0  0  0  0  0  0  0  0  0  0
   -2.3881   -3.9005    1.8059 H   0  0  0  0  0  0  0  0  0  0  0  0
   -3.9210   -5.8310    1.7159 H   0  0  0  0  0  0  0  0  0  0  0  0
   -5.3853   -4.5061   -2.1064 H   0  0  0  0  0  0  0  0  0  0  0  0
   -3.8566   -2.5734   -2.0302 H   0  0  0  0  0  0  0  0  0  0  0  0
   -5.5767   -6.8640    0.4961 H   0  0  0  0  0  0  0  0  0  0  0  0
    0.8417    3.2452   -0.0053 H   0  0  0  0  0  0  0  0  0  0  0  0
    4.1755    0.2720   -0.0763 H   0  0  0  0  0  0  0  0  0  0  0  0
  1  2  2  0  0  0  0
  1  6  1  0  0  0  0
  1 20  1  0  0  0  0
  2  3  1  0  0  0  0
  2 21  1  0  0  0  0
  3  4  2  0  0  0  0
  3 19  1  0  0  0  0
  4  5  1  0  0  0  0
  4  7  1  0  0  0  0
  5  6  2  0  0  0  0
  5 10  1  0  0  0  0
  6 22  1  0  0  0  0
  7  8  1  0  0  0  0
  7 11  2  0  0  0  0
  8  9  2  0  0  0  0
  8 23  1  0  0  0  0
  9 10  1  0  0  0  0
  9 12  1  0  0  0  0
 12 13  2  0  0  0  0
 12 17  1  0  0  0  0
 13 14  1  0  0  0  0
 13 24  1  0  0  0  0
 14 15  2  0  0  0  0
 14 25  1  0  0  0  0
 15 16  1  0  0  0  0
 15 18  1  0  0  0  0
 16 17  2  0  0  0  0
 16 26  1  0  0  0  0
 17 27  1  0  0  0  0
 18 28  1  0  0  0  0
 19 29  1  0  0  0  0
 20 30  1  0  0  0  0
M  END
>  <DRUGBANK_ID>
DB07352

>  <COMMON_NAME>
Apigenin

>  <CAS_NUMBER>
520-36-5

>  <UNII>
7V515PI7F6

$$$$
