
 OpenBabel10282417223D

 61 66  0  0  0  0  0  0  0  0999 V2000
    2.1309   -0.0295   -0.1345 F   0  0  0  0  0  0  0  0  0  0  0  0
    0.7939   -0.0148   -0.0836 C   0  0  0  0  0  0  0  0  0  0  0  0
    0.1203    1.2045   -0.0716 C   0  0  0  0  0  0  0  0  0  0  0  0
   -1.2744    1.2237   -0.0396 C   0  0  0  0  0  0  0  0  0  0  0  0
   -1.9752    0.0116   -0.0371 C   0  0  0  0  0  0  0  0  0  0  0  0
   -1.2897   -1.2093   -0.0109 C   0  0  0  0  0  0  0  0  0  0  0  0
    0.1038   -1.2191   -0.0315 C   0  0  0  0  0  0  0  0  0  0  0  0
   -3.4546   -0.0051   -0.0153 C   0  0  0  0  0  0  0  0  0  0  0  0
   -4.0559   -0.6346    0.9449 N   0  0  0  0  0  0  0  0  0  0  0  0
   -5.4210   -0.5682    0.9017 N   0  0  0  0  0  0  0  0  0  0  0  0
   -6.3580   -1.0540    1.7954 C   0  0  0  0  0  0  0  0  0  0  0  0
   -6.1191   -1.9064    3.2975 S   0  0  0  0  0  0  0  0  0  0  0  0
   -4.3624   -2.0648    3.5183 C   0  0  0  0  0  0  0  0  0  0  0  0
   -3.5665   -0.9326    3.6744 C   0  0  0  0  0  0  0  0  0  0  0  0
   -2.1830   -1.0713    3.6600 C   0  0  0  0  0  0  0  0  0  0  0  0
   -1.6114   -2.3660    3.5462 C   0  0  0  0  0  0  0  0  0  0  0  0
   -0.3028   -2.6816    3.2545 N   0  0  0  0  0  0  0  0  0  0  0  0
    0.0067   -3.8777    3.6880 C   0  0  0  0  0  0  0  0  0  0  0  0
    1.2594   -4.3265    4.0032 N   0  0  0  0  0  0  0  0  0  0  0  0
    2.3218   -3.5295    4.2827 C   0  0  0  0  0  0  0  0  0  0  0  0
    3.4562   -3.8961    4.1960 O   0  0  0  0  0  0  0  0  0  0  0  0
    2.1080   -2.2909    4.7760 N   0  0  0  0  0  0  0  0  0  0  0  0
    0.8657   -1.3994    4.9490 C   0  0  0  0  0  0  0  0  0  0  0  0
    0.7826   -0.0145    5.6599 C   0  0  0  0  0  0  0  0  0  0  0  0
    1.9046    0.9092    5.3495 N   0  0  0  0  0  0  0  0  0  0  0  0
    1.8935    2.0098    4.3713 C   0  0  0  0  0  0  0  0  0  0  0  0
    1.7036    1.6889    2.8777 C   0  0  0  0  0  0  0  0  0  0  0  0
    2.7318    0.8095    2.3981 O   0  0  0  0  0  0  0  0  0  0  0  0
    2.6481   -0.3691    3.1714 C   0  0  0  0  0  0  0  0  0  0  0  0
    2.9581    0.0587    4.7958 C   0  0  0  0  0  0  0  0  0  0  0  0
   -1.3474   -4.8883    3.8623 S   0  0  0  0  0  0  0  0  0  0  0  0
   -2.4017   -3.4966    3.6655 C   0  0  0  0  0  0  0  0  0  0  0  0
   -3.7947   -3.3614    3.5936 C   0  0  0  0  0  0  0  0  0  0  0  0
   -7.5680   -0.7695    1.3486 N   0  0  0  0  0  0  0  0  0  0  0  0
   -7.4480   -0.0782    0.1655 N   0  0  0  0  0  0  0  0  0  0  0  0
   -6.1660    0.0533   -0.0879 C   0  0  0  0  0  0  0  0  0  0  0  0
   -5.4721    0.6864   -1.1428 C   0  0  0  0  0  0  0  0  0  0  0  0
   -4.1326    0.6964   -1.1401 C   0  0  0  0  0  0  0  0  0  0  0  0
    0.6949    2.1263   -0.0625 H   0  0  0  0  0  0  0  0  0  0  0  0
   -1.7965    2.1757    0.0011 H   0  0  0  0  0  0  0  0  0  0  0  0
   -1.8336   -2.1498    0.0244 H   0  0  0  0  0  0  0  0  0  0  0  0
    0.6581   -2.1519   -0.0004 H   0  0  0  0  0  0  0  0  0  0  0  0
   -3.9946    0.0711    3.6549 H   0  0  0  0  0  0  0  0  0  0  0  0
   -1.5756   -0.1682    3.6628 H   0  0  0  0  0  0  0  0  0  0  0  0
    1.5084   -5.3004    4.0058 H   0  0  0  0  0  0  0  0  0  0  0  0
    3.0766   -1.9710    4.7093 H   0  0  0  0  0  0  0  0  0  0  0  0
    0.5048   -1.0323    3.9915 H   0  0  0  0  0  0  0  0  0  0  0  0
    0.1453   -2.0649    5.3948 H   0  0  0  0  0  0  0  0  0  0  0  0
   -0.2092    0.4405    5.4752 H   0  0  0  0  0  0  0  0  0  0  0  0
    0.7413   -0.3015    6.7220 H   0  0  0  0  0  0  0  0  0  0  0  0
    2.9327    2.3781    4.4229 H   0  0  0  0  0  0  0  0  0  0  0  0
    1.2845    2.8606    4.6710 H   0  0  0  0  0  0  0  0  0  0  0  0
    0.6959    1.2915    2.6974 H   0  0  0  0  0  0  0  0  0  0  0  0
    1.8381    2.5857    2.2753 H   0  0  0  0  0  0  0  0  0  0  0  0
    3.2692   -1.1899    2.7863 H   0  0  0  0  0  0  0  0  0  0  0  0
    1.6671   -0.7469    2.8316 H   0  0  0  0  0  0  0  0  0  0  0  0
    3.9585    0.4746    4.8675 H   0  0  0  0  0  0  0  0  0  0  0  0
    3.0252   -0.6424    5.6469 H   0  0  0  0  0  0  0  0  0  0  0  0
   -4.4151   -4.2464    3.5367 H   0  0  0  0  0  0  0  0  0  0  0  0
   -6.0418    1.1500   -1.9407 H   0  0  0  0  0  0  0  0  0  0  0  0
   -3.5500    1.1500   -1.9321 H   0  0  0  0  0  0  0  0  0  0  0  0
  1  2  1  0  0  0  0
  2  3  2  0  0  0  0
  2  7  1  0  0  0  0
  3  4  1  0  0  0  0
  3 39  1  0  0  0  0
  4  5  2  0  0  0  0
  4 40  1  0  0  0  0
  5  6  1  0  0  0  0
  5  8  1  0  0  0  0
  6  7  2  0  0  0  0
  6 41  1  0  0  0  0
  7 42  1  0  0  0  0
  8  9  2  0  0  0  0
  8 38  1  0  0  0  0
  9 10  1  0  0  0  0
 10 11  1  0  0  0  0
 10 36  1  0  0  0  0
 11 12  1  0  0  0  0
 11 34  2  0  0  0  0
 12 13  1  0  0  0  0
 13 14  2  0  0  0  0
 13 33  1  0  0  0  0
 14 15  1  0  0  0  0
 14 43  1  0  0  0  0
 15 16  2  0  0  0  0
 15 44  1  0  0  0  0
 16 17  1  0  0  0  0
 16 32  1  0  0  0  0
 17 18  2  0  0  0  0
 18 19  1  0  0  0  0
 18 31  1  0  0  0  0
 19 20  1  0  0  0  0
 19 45  1  0  0  0  0
 20 21  2  0  0  0  0
 20 22  1  0  0  0  0
 22 23  1  0  0  0  0
 22 46  1  0  0  0  0
 23 24  1  0  0  0  0
 23 47  1  0  0  0  0
 23 48  1  0  0  0  0
 24 25  1  0  0  0  0
 24 49  1  0  0  0  0
 24 50  1  0  0  0  0
 25 26  1  0  0  0  0
 25 30  1  0  0  0  0
 26 27  1  0  0  0  0
 26 51  1  0  0  0  0
 26 52  1  0  0  0  0
 27 28  1  0  0  0  0
 27 53  1  0  0  0  0
 27 54  1  0  0  0  0
 28 29  1  0  0  0  0
 29 30  1  0  0  0  0
 29 55  1  0  0  0  0
 29 56  1  0  0  0  0
 30 57  1  0  0  0  0
 30 58  1  0  0  0  0
 31 32  1  0  0  0  0
 32 33  2  0  0  0  0
 33 59  1  0  0  0  0
 34 35  1  0  0  0  0
 35 36  2  0  0  0  0
 36 37  1  0  0  0  0
 37 38  2  0  0  0  0
 37 60  1  0  0  0  0
 38 61  1  0  0  0  0
M  END
>  <DRUGBANK_ID>
DB15382

>  <COMMON_NAME>
SAR-125844

>  <CAS_NUMBER>
1116743-46-4

>  <UNII>
XH93U6NIJE

$$$$
