
 OpenBabel10282417103D

181192  0  0  0  0  0  0  0  0999 V2000
    8.4826   -1.2454    5.1400 C   0  0  0  0  0  0  0  0  0  0  0  0
    4.0638   -1.3215   -2.4091 N   0  0  0  0  0  0  0  0  0  0  0  0
    6.2564   -1.5177   -1.2884 N   0  3  0  0  0  0  0  0  0  0  0  0
    5.0180   -2.1173    0.6634 C   0  0  0  0  0  0  0  0  0  0  0  0
    3.8316   -2.9829    1.0556 C   0  0  1  0  0  0  0  0  0  0  0  0
    4.0661   -3.5671    2.4391 C   0  0  0  0  0  0  0  0  0  0  0  0
    4.2246   -2.4389    3.4453 C   0  0  0  0  0  0  0  0  0  0  0  0
    2.9625   -1.5921    3.4601 C   0  0  0  0  0  0  0  0  0  0  0  0
    2.5779   -1.0062    2.3999 O   0  0  0  0  0  0  0  0  0  0  0  0
    4.6680   -0.6103    2.6218 C   0  0  0  0  0  0  0  0  0  0  0  0
    4.1778   -1.4053    0.0758 N   0  3  0  0  0  0  0  0  0  0  0  0
    3.0886   -2.0198    0.6242 C   0  0  0  0  0  0  0  0  0  0  0  0
    2.5335   -3.2148   -0.0182 C   0  0  0  0  0  0  0  0  0  0  0  0
    3.2652   -3.8934   -0.9219 C   0  0  0  0  0  0  0  0  0  0  0  0
    4.6697   -3.4594   -1.2486 N   0  3  0  0  0  0  0  0  0  0  0  0
    5.6610   -4.2746   -1.5377 C   0  0  0  0  0  0  0  0  0  0  0  0
    5.4286   -5.7766   -1.5582 C   0  0  1  0  0  0  0  0  0  0  0  0
    4.9635   -6.2361   -0.1860 C   0  0  0  0  0  0  0  0  0  0  0  0
    3.6676   -5.5277    0.1733 C   0  0  0  0  0  0  0  0  0  0  0  0
    2.6042   -5.8618   -0.8602 C   0  0  0  0  0  0  0  0  0  0  0  0
    2.7890   -5.5630   -2.0816 O   0  0  0  0  0  0  0  0  0  0  0  0
    4.3652   -6.1106   -2.5917 C   0  0  0  0  0  0  0  0  0  0  0  0
    4.1327   -7.6126   -2.6122 C   0  0  0  0  0  0  0  0  0  0  0  0
    3.0693   -5.4022   -2.2324 C   0  0  0  0  0  0  0  0  0  0  0  0
    5.3936   -0.9132    1.5117 C   0  0  0  0  0  0  0  0  0  0  0  0
    5.0180   -2.1173    0.6634 C   0  0  0  0  0  0  0  0  0  0  0  0
    7.0389   -3.7145   -1.8511 C   0  0  0  0  0  0  0  0  0  0  0  0
    7.2713   -2.2125   -1.8306 C   0  0  0  0  0  0  0  0  0  0  0  0
    5.1349   -0.5411   -3.1983 C   0  0  1  0  0  0  0  0  0  0  0  0
    5.1307    0.4929   -2.9233 H   0  0  0  0  0  0  0  0  0  0  0  0
    6.4707   -1.2123   -2.7918 C   0  0  2  0  0  0  0  0  0  0  0  0
    7.6433   -0.2672   -2.9971 C   0  0  0  0  0  0  0  0  0  0  0  0
    6.7566   -3.5750    4.8842 C   0  0  0  0  0  0  0  0  0  0  0  0
    5.4024   -2.8915    4.7861 C   0  0  0  0  0  0  0  0  0  0  0  0
    5.3258   -1.6237    4.8308 O   0  0  0  0  0  0  0  0  0  0  0  0
    4.1815   -3.6970    4.6396 N   0  0  0  0  0  0  0  0  0  0  0  0
    2.8719   -3.0360    4.5447 C   0  0  0  0  0  0  0  0  0  0  0  0
    2.2168   -3.3970    3.2215 C   0  0  2  0  0  0  0  0  0  0  0  0
    7.6415   -3.1130    3.7379 C   0  0  0  0  0  0  0  0  0  0  0  0
    7.8274   -1.6065    3.8168 C   0  0  1  0  0  0  0  0  0  0  0  0
    6.4733   -0.9230    3.7187 C   0  0  0  0  0  0  0  0  0  0  0  0
    2.1866   -1.4509    4.7007 N   0  0  0  0  0  0  0  0  0  0  0  0
    1.3620   -6.5304   -0.4470 N   0  0  0  0  0  0  0  0  0  0  0  0
    7.4215   -3.7554    0.1102 C   0  0  0  0  0  0  0  0  0  0  0  0
    7.6315   -3.8131    2.8626 C   0  0  0  0  0  0  0  0  0  0  0  0
    6.4864   -3.0735    0.9149 C   0  0  0  0  0  0  0  0  0  0  0  0
    4.8595   -1.9123    1.7531 C   0  0  0  0  0  0  0  0  0  0  0  0
    6.6097   -3.1154    2.2820 C   0  0  0  0  0  0  0  0  0  0  0  0
    5.4232   -2.3387    0.6218 N   0  3  0  0  0  0  0  0  0  0  0  0
    5.5802   -2.3780    2.7988 N   0  0  0  0  0  0  0  0  0  0  0  0
    8.4326   -4.4452    0.7027 C   0  0  0  0  0  0  0  0  0  0  0  0
    9.4511   -5.1871   -0.1475 C   0  0  0  0  0  0  0  0  0  0  0  0
    8.5320   -4.4693    2.1040 C   0  0  0  0  0  0  0  0  0  0  0  0
    9.6614   -5.2398    2.7683 C   0  0  0  0  0  0  0  0  0  0  0  0
    5.3026   -2.1669    4.2268 C   0  0  1  0  0  0  0  0  0  0  0  0
    6.3105   -2.9059    5.1410 O   0  0  0  0  0  0  0  0  0  0  0  0
    5.7095   -4.3343    5.2240 C   0  0  2  0  0  0  0  0  0  0  0  0
    6.0836   -5.1486    3.9962 C   0  0  0  0  0  0  0  0  0  0  0  0
    6.7574   -6.3324    4.3973 O   0  0  0  0  0  0  0  0  0  0  0  0
    3.9269   -2.7232    4.6485 C   0  0  2  0  0  0  0  0  0  0  0  0
    3.2811   -1.8513    5.5644 O   0  0  0  0  0  0  0  0  0  0  0  0
    4.1852   -4.1014    5.2825 C   0  0  2  0  0  0  0  0  0  0  0  0
    3.5786   -5.3476    4.9734 O   0  0  0  0  0  0  0  0  0  0  0  0
    4.7777   -1.9396   -1.1961 Co  0  7  0  0  0  0  0  0  0  0  0  0
    2.9346   -2.4653   -1.0812 O   0  0  0  0  0  0  0  0  0  0  0  0
    2.4875   -2.3077   -1.9616 H   0  0  0  0  0  0  0  0  0  0  0  0
    2.4563   -1.4687    1.8919 C   0  0  1  0  0  0  0  0  0  0  0  0
    1.2700   -2.3343    2.2840 C   0  0  0  0  0  0  0  0  0  0  0  0
    0.9785   -3.3259    1.1694 C   0  0  0  0  0  0  0  0  0  0  0  0
    2.2034   -4.1936    0.9301 C   0  0  0  0  0  0  0  0  0  0  0  0
    3.3035   -3.6588    0.5854 O   0  0  0  0  0  0  0  0  0  0  0  0
    2.1154   -5.6514    1.0975 N   0  0  0  0  0  0  0  0  0  0  0  0
    8.7124   -1.1445    2.6705 C   0  0  1  0  0  0  0  0  0  0  0  0
    8.0572   -1.5056    1.3474 C   0  0  0  0  0  0  0  0  0  0  0  0
    6.7031   -0.8221    1.2493 C   0  0  0  0  0  0  0  0  0  0  0  0
    5.8040   -1.0662    2.1137 O   0  0  0  0  0  0  0  0  0  0  0  0
    6.4335    0.1212    0.1546 N   0  0  0  0  0  0  0  0  0  0  0  0
    2.5695   -2.1361    1.0704 C   0  0  1  0  0  0  0  0  0  0  0  0
    1.3832   -3.0017    1.4625 C   0  0  0  0  0  0  0  0  0  0  0  0
    1.6176   -3.5859    2.8460 C   0  0  0  0  0  0  0  0  0  0  0  0
    2.7827   -4.4477    3.0922 N   0  0  0  0  0  0  0  0  0  0  0  0
    0.8062   -3.3294    3.7900 O   0  0  0  0  0  0  0  0  0  0  0  0
    2.7281   -1.0079    2.0766 C   0  0  0  0  0  0  0  0  0  0  0  0
    3.4816   -1.4759    3.0140 C   0  0  1  0  0  0  0  0  0  0  0  0
    3.9529   -2.8998    3.2606 C   0  0  0  0  0  0  0  0  0  0  0  0
    2.8493   -0.9248    4.2816 C   0  0  0  0  0  0  0  0  0  0  0  0
    3.5185    0.4131    4.5510 C   0  0  0  0  0  0  0  0  0  0  0  0
    4.7826    0.4800    4.6641 O   0  0  0  0  0  0  0  0  0  0  0  0
    2.7036    1.6296    4.6809 N   0  0  0  0  0  0  0  0  0  0  0  0
    3.5843   -5.5823    3.2595 P   0  0  3  0  0  0  0  0  0  0  0  0
    2.0430   -4.8044    3.1478 O   0  0  0  0  0  0  0  0  0  0  0  0
    2.9777   -6.8712    2.6526 O   0  0  0  0  0  0  0  0  0  0  0  0
    3.1017   -2.9351    2.0753 C   0  0  0  0  0  0  0  0  0  0  0  0
    5.1255   -6.3602    3.3711 O   0  5  0  0  0  0  0  0  0  0  0  0
    3.7200   -3.7771    0.3472 H   0  0  0  0  0  0  0  0  0  0  0  0
    3.2310   -4.1765    2.7151 H   0  0  0  0  0  0  0  0  0  0  0  0
    4.9546   -4.1633    2.4286 H   0  0  0  0  0  0  0  0  0  0  0  0
    4.3896   -2.8502    4.4192 H   0  0  0  0  0  0  0  0  0  0  0  0
    5.0597   -1.8296    3.1692 H   0  0  0  0  0  0  0  0  0  0  0  0
    1.5475   -3.5475    0.2309 H   0  0  0  0  0  0  0  0  0  0  0  0
    6.3408   -6.2753   -1.8111 H   0  0  0  0  0  0  0  0  0  0  0  0
    4.7999   -7.2935   -0.2005 H   0  0  0  0  0  0  0  0  0  0  0  0
    5.7121   -6.0010    0.5415 H   0  0  0  0  0  0  0  0  0  0  0  0
    3.3402   -5.8512    1.1392 H   0  0  0  0  0  0  0  0  0  0  0  0
    3.8312   -4.4704    0.1877 H   0  0  0  0  0  0  0  0  0  0  0  0
    3.8054   -7.9361   -1.6463 H   0  0  0  0  0  0  0  0  0  0  0  0
    3.3842   -7.8478   -3.3397 H   0  0  0  0  0  0  0  0  0  0  0  0
    5.0450   -8.1113   -2.8651 H   0  0  0  0  0  0  0  0  0  0  0  0
    2.7419   -5.7257   -1.2664 H   0  0  0  0  0  0  0  0  0  0  0  0
    3.2329   -4.3449   -2.2180 H   0  0  0  0  0  0  0  0  0  0  0  0
    2.3207   -5.6374   -2.9599 H   0  0  0  0  0  0  0  0  0  0  0  0
    5.0740   -3.0045    1.2589 H   0  0  0  0  0  0  0  0  0  0  0  0
    4.0205   -1.9971    0.2954 H   0  0  0  0  0  0  0  0  0  0  0  0
    5.6951   -2.1978   -0.1611 H   0  0  0  0  0  0  0  0  0  0  0  0
    6.6319   -1.7428   -2.5484 H   0  0  0  0  0  0  0  0  0  0  0  0
    7.0530   -1.8311   -0.8550 H   0  0  0  0  0  0  0  0  0  0  0  0
    8.2927   -2.0063   -2.0738 H   0  0  0  0  0  0  0  0  0  0  0  0
    7.4538    0.6529   -2.4849 H   0  0  0  0  0  0  0  0  0  0  0  0
    8.5343   -0.7147   -2.6087 H   0  0  0  0  0  0  0  0  0  0  0  0
    7.7674   -0.0746   -4.0423 H   0  0  0  0  0  0  0  0  0  0  0  0
    6.6257   -4.6355    4.8286 H   0  0  0  0  0  0  0  0  0  0  0  0
    7.2177   -3.3208    5.8156 H   0  0  0  0  0  0  0  0  0  0  0  0
    4.2430   -4.7145    4.6037 H   0  0  0  0  0  0  0  0  0  0  0  0
    2.2490   -3.3612    5.3516 H   0  0  0  0  0  0  0  0  0  0  0  0
    3.0028   -1.9755    4.6002 H   0  0  0  0  0  0  0  0  0  0  0  0
    1.2635   -2.9159    3.1525 H   0  0  0  0  0  0  0  0  0  0  0  0
    7.1803   -3.3672    2.8065 H   0  0  0  0  0  0  0  0  0  0  0  0
    8.5947   -3.5941    3.8070 H   0  0  0  0  0  0  0  0  0  0  0  0
    5.8504   -1.2482    4.5256 H   0  0  0  0  0  0  0  0  0  0  0  0
    6.6042    0.1375    3.7742 H   0  0  0  0  0  0  0  0  0  0  0  0
    6.0121   -1.1772    2.7873 H   0  0  0  0  0  0  0  0  0  0  0  0
    1.3397   -0.8826    4.7106 H   0  0  0  0  0  0  0  0  0  0  0  0
    2.4953   -1.9212    5.5515 H   0  0  0  0  0  0  0  0  0  0  0  0
    0.6484   -6.7546   -1.1405 H   0  0  0  0  0  0  0  0  0  0  0  0
    1.2136   -6.7702    0.5333 H   0  0  0  0  0  0  0  0  0  0  0  0
    7.3365   -3.7305   -0.9562 H   0  0  0  0  0  0  0  0  0  0  0  0
    7.7174   -3.8386    3.9288 H   0  0  0  0  0  0  0  0  0  0  0  0
    3.9827   -1.3029    1.8220 H   0  0  0  0  0  0  0  0  0  0  0  0
    8.9511   -5.9233   -0.7417 H   0  0  0  0  0  0  0  0  0  0  0  0
    9.9540   -4.4932   -0.7882 H   0  0  0  0  0  0  0  0  0  0  0  0
   10.1650   -5.6670    0.4888 H   0  0  0  0  0  0  0  0  0  0  0  0
   10.2543   -4.5690    3.3544 H   0  0  0  0  0  0  0  0  0  0  0  0
    9.2514   -5.9991    3.4009 H   0  0  0  0  0  0  0  0  0  0  0  0
   10.2737   -5.6936    2.0172 H   0  0  0  0  0  0  0  0  0  0  0  0
    5.3496   -1.1101    4.3873 H   0  0  0  0  0  0  0  0  0  0  0  0
    6.0727   -4.8832    6.0676 H   0  0  0  0  0  0  0  0  0  0  0  0
    5.1938   -5.4083    3.4615 H   0  0  0  0  0  0  0  0  0  0  0  0
    6.7241   -4.5706    3.3632 H   0  0  0  0  0  0  0  0  0  0  0  0
    7.5889   -6.0897    4.8969 H   0  0  0  0  0  0  0  0  0  0  0  0
    3.2915   -2.8235    3.7935 H   0  0  0  0  0  0  0  0  0  0  0  0
    3.8532   -1.7379    6.3767 H   0  0  0  0  0  0  0  0  0  0  0  0
    3.6504   -3.9204    6.1914 H   0  0  0  0  0  0  0  0  0  0  0  0
    2.1246   -0.4664    1.7183 H   0  0  0  0  0  0  0  0  0  0  0  0
    1.5109   -2.8663    3.1806 H   0  0  0  0  0  0  0  0  0  0  0  0
    0.4078   -1.7235    2.4524 H   0  0  0  0  0  0  0  0  0  0  0  0
    0.1521   -3.9450    1.4499 H   0  0  0  0  0  0  0  0  0  0  0  0
    0.7376   -2.7939    0.2728 H   0  0  0  0  0  0  0  0  0  0  0  0
    2.9373   -6.2337    0.9369 H   0  0  0  0  0  0  0  0  0  0  0  0
    1.2324   -6.0806    1.3741 H   0  0  0  0  0  0  0  0  0  0  0  0
    8.8433   -0.0840    2.7261 H   0  0  0  0  0  0  0  0  0  0  0  0
    8.6802   -1.1804    0.5405 H   0  0  0  0  0  0  0  0  0  0  0  0
    7.9263   -2.5661    1.2918 H   0  0  0  0  0  0  0  0  0  0  0  0
    5.5248    0.5798    0.0887 H   0  0  0  0  0  0  0  0  0  0  0  0
    7.1551    0.3170   -0.5392 H   0  0  0  0  0  0  0  0  0  0  0  0
    0.4947   -2.4056    1.4729 H   0  0  0  0  0  0  0  0  0  0  0  0
    1.2715   -3.7959    0.7542 H   0  0  0  0  0  0  0  0  0  0  0  0
    3.4339   -4.6536    2.3346 H   0  0  0  0  0  0  0  0  0  0  0  0
    2.9400   -4.8398    4.0206 H   0  0  0  0  0  0  0  0  0  0  0  0
    2.8931   -1.4192    3.0505 H   0  0  0  0  0  0  0  0  0  0  0  0
    3.5632   -0.3985    1.8006 H   0  0  0  0  0  0  0  0  0  0  0  0
    1.8396   -0.4118    2.0870 H   0  0  0  0  0  0  0  0  0  0  0  0
    4.8190   -2.5281    2.7540 H   0  0  0  0  0  0  0  0  0  0  0  0
    4.1712   -3.0164    4.3015 H   0  0  0  0  0  0  0  0  0  0  0  0
    3.6761   -3.8466    2.8460 H   0  0  0  0  0  0  0  0  0  0  0  0
    1.7901   -0.7873    4.2180 H   0  0  0  0  0  0  0  0  0  0  0  0
    3.0738   -1.6028    5.0783 H   0  0  0  0  0  0  0  0  0  0  0  0
    3.1527    2.5274    4.8617 H   0  0  0  0  0  0  0  0  0  0  0  0
    1.6891    1.5760    4.5902 H   0  0  0  0  0  0  0  0  0  0  0  0
    3.6670   -3.7535    1.6809 H   0  0  0  0  0  0  0  0  0  0  0  0
    2.4493   -2.5543    1.3175 H   0  0  0  0  0  0  0  0  0  0  0  0
    3.7688   -2.1613    2.3934 H   0  0  0  0  0  0  0  0  0  0  0  0
  1  2  1  0  0  0  0
  2 64  1  0  0  0  0
  3  4  2  0  0  0  0
  3 64  1  0  0  0  0
  4 25  1  0  0  0  0
  5  4  1  0  0  0  0
  5  6  1  0  0  0  0
  5 95  1  6  0  0  0
  6  7  1  0  0  0  0
  6 96  1  0  0  0  0
  6 97  1  0  0  0  0
  7  8  1  0  0  0  0
  7 98  1  0  0  0  0
  7 99  1  0  0  0  0
  8 42  1  0  0  0  0
  8  9  2  0  0  0  0
 10 11  1  0  0  0  0
 10 84  1  0  0  0  0
 11 12  2  0  0  0  0
 11 64  1  0  0  0  0
 12 13  1  0  0  0  0
 12 67  1  0  0  0  0
 13 14  2  0  0  0  0
 13100  1  0  0  0  0
 14 15  1  0  0  0  0
 14 22  1  0  0  0  0
 15 16  2  0  0  0  0
 15 64  1  0  0  0  0
 16 17  1  0  0  0  0
 17 18  1  0  0  0  0
 17 22  1  0  0  0  0
 17101  1  6  0  0  0
 18 19  1  0  0  0  0
 18102  1  0  0  0  0
 18103  1  0  0  0  0
 19 20  1  0  0  0  0
 19104  1  0  0  0  0
 19105  1  0  0  0  0
 20 43  1  0  0  0  0
 20 21  2  0  0  0  0
 22 23  1  0  0  0  0
 22 24  1  0  0  0  0
 23106  1  0  0  0  0
 23107  1  0  0  0  0
 23108  1  0  0  0  0
 24109  1  0  0  0  0
 24110  1  0  0  0  0
 24111  1  0  0  0  0
 25 10  2  0  0  0  0
 25 26  1  0  0  0  0
 26112  1  0  0  0  0
 26113  1  0  0  0  0
 26114  1  0  0  0  0
 27  1  2  0  0  0  0
 27 28  1  0  0  0  0
 27 16  1  0  0  0  0
 28115  1  0  0  0  0
 28116  1  0  0  0  0
 28117  1  0  0  0  0
 29  2  1  0  0  0  0
 29 73  1  0  0  0  0
 29 31  1  0  0  0  0
 29 30  1  1  0  0  0
 31  3  1  0  0  0  0
 31 78  1  0  0  0  0
 31 32  1  1  0  0  0
 32118  1  0  0  0  0
 32119  1  0  0  0  0
 32120  1  0  0  0  0
 33 34  1  0  0  0  0
 33121  1  0  0  0  0
 33122  1  0  0  0  0
 34 36  1  0  0  0  0
 34 35  2  0  0  0  0
 36123  1  0  0  0  0
 37 36  1  0  0  0  0
 37124  1  0  0  0  0
 37125  1  0  0  0  0
 38 37  1  0  0  0  0
 38 91  1  0  0  0  0
 38126  1  6  0  0  0
 38 93  1  0  0  0  0
 39 33  1  0  0  0  0
 39127  1  0  0  0  0
 39128  1  0  0  0  0
 40  1  1  0  0  0  0
 40 39  1  0  0  0  0
 40 41  1  6  0  0  0
 41129  1  0  0  0  0
 41130  1  0  0  0  0
 41131  1  0  0  0  0
 42132  1  0  0  0  0
 42133  1  0  0  0  0
 43134  1  0  0  0  0
 43135  1  0  0  0  0
 44 46  2  0  0  0  0
 44 51  1  0  0  0  0
 44136  1  0  0  0  0
 45 53  1  0  0  0  0
 45137  1  0  0  0  0
 46 49  1  0  0  0  0
 46 48  1  0  0  0  0
 47 50  1  0  0  0  0
 47 49  2  0  0  0  0
 47138  1  0  0  0  0
 48 45  2  0  0  0  0
 49 64  1  0  0  0  0
 50 48  1  0  0  0  0
 51 52  1  0  0  0  0
 52139  1  0  0  0  0
 52140  1  0  0  0  0
 52141  1  0  0  0  0
 53 51  2  0  0  0  0
 53 54  1  0  0  0  0
 54142  1  0  0  0  0
 54143  1  0  0  0  0
 54144  1  0  0  0  0
 55 50  1  0  0  0  0
 55 60  1  0  0  0  0
 55 56  1  0  0  0  0
 55145  1  6  0  0  0
 57 56  1  0  0  0  0
 57146  1  1  0  0  0
 57 58  1  0  0  0  0
 58 59  1  0  0  0  0
 58147  1  0  0  0  0
 58148  1  0  0  0  0
 59149  1  0  0  0  0
 60 62  1  0  0  0  0
 60 61  1  0  0  0  0
 60150  1  6  0  0  0
 61151  1  0  0  0  0
 62 57  1  0  0  0  0
 62 63  1  0  0  0  0
 62152  1  6  0  0  0
 63 90  1  0  0  0  0
 64 65  1  0  0  0  0
 65 66  1  0  0  0  0
 67 84  1  0  0  0  0
 67153  1  6  0  0  0
 67 68  1  0  0  0  0
 68 69  1  0  0  0  0
 68154  1  0  0  0  0
 68155  1  0  0  0  0
 69 70  1  0  0  0  0
 69156  1  0  0  0  0
 69157  1  0  0  0  0
 70 72  1  0  0  0  0
 70 71  2  0  0  0  0
 72158  1  0  0  0  0
 72159  1  0  0  0  0
 73 40  1  0  0  0  0
 73 74  1  0  0  0  0
 73160  1  1  0  0  0
 74 75  1  0  0  0  0
 74161  1  0  0  0  0
 74162  1  0  0  0  0
 75 77  1  0  0  0  0
 75 76  2  0  0  0  0
 77163  1  0  0  0  0
 77164  1  0  0  0  0
 78  5  1  0  0  0  0
 78 79  1  6  0  0  0
 78 83  1  0  0  0  0
 79 80  1  0  0  0  0
 79165  1  0  0  0  0
 79166  1  0  0  0  0
 80 82  2  0  0  0  0
 80 81  1  0  0  0  0
 81167  1  0  0  0  0
 81168  1  0  0  0  0
 83169  1  0  0  0  0
 83170  1  0  0  0  0
 83171  1  0  0  0  0
 84 86  1  1  0  0  0
 84 85  1  0  0  0  0
 85172  1  0  0  0  0
 85173  1  0  0  0  0
 85174  1  0  0  0  0
 86 87  1  0  0  0  0
 86175  1  0  0  0  0
 86176  1  0  0  0  0
 87 89  1  0  0  0  0
 87 88  2  0  0  0  0
 89177  1  0  0  0  0
 89178  1  0  0  0  0
 90 91  1  0  0  0  0
 90 92  2  0  0  0  0
 90 94  1  0  0  0  0
 93179  1  0  0  0  0
 93180  1  0  0  0  0
 93181  1  0  0  0  0
M  CHG  6   3   1  11   1  15   1  49   1  64  -3  94  -1
M  END
>  <DRUGBANK_ID>
DB00200

>  <SECONDARY_ACCESSION_NUMBERS>
APRD01022

>  <COMMON_NAME>
Hydroxocobalamin

>  <CAS_NUMBER>
13422-51-0

>  <UNII>
Q40X8H422O

>  <SYNONYMS>
Hydroxocobalamin; Hydroxocobalamin anhydrous; Hydroxocobalamine; Hydroxocobalaminum anhydrous; Hydroxycobalamin; OH-Cbl; Vitamin B-12b

$$$$
