WR1
 OpenBabel10282417173D

 55 56  0  0  0  0  0  0  0  0999 V2000
    4.9668    3.0699   -0.6606 O   0  0  0  0  0  0  0  0  0  0  0  0
    4.0173    3.8023   -0.3753 C   0  0  0  0  0  0  0  0  0  0  0  0
    4.2077    4.9033    0.4057 O   0  0  0  0  0  0  0  0  0  0  0  0
    3.2205    5.9221    0.6576 C   0  0  0  0  0  0  0  0  0  0  0  0
    2.8161    6.5076   -0.6563 C   0  0  0  0  0  0  0  0  0  0  0  0
    1.6711    6.0408   -1.3177 C   0  0  0  0  0  0  0  0  0  0  0  0
    1.4413    6.3576   -2.6436 C   0  0  0  0  0  0  0  0  0  0  0  0
    2.2431    7.3092   -3.2544 C   0  0  0  0  0  0  0  0  0  0  0  0
    3.3142    7.8790   -2.5631 C   0  0  0  0  0  0  0  0  0  0  0  0
    3.6581    7.4142   -1.2995 C   0  0  0  0  0  0  0  0  0  0  0  0
    2.7179    3.4452   -0.6114 N   0  0  0  0  0  0  0  0  0  0  0  0
    2.3464    2.1590   -1.1880 C   0  0  1  0  0  0  0  0  0  0  0  0
    2.6205    2.2336   -2.7119 C   0  0  0  0  0  0  0  0  0  0  0  0
    2.2950    0.9897   -3.4839 C   0  0  0  0  0  0  0  0  0  0  0  0
    1.1919    0.8553   -4.3288 C   0  0  0  0  0  0  0  0  0  0  0  0
    0.8615   -0.4099   -4.8276 C   0  0  0  0  0  0  0  0  0  0  0  0
    1.6267   -1.5287   -4.4877 C   0  0  0  0  0  0  0  0  0  0  0  0
    2.7491   -1.3807   -3.6895 C   0  0  0  0  0  0  0  0  0  0  0  0
    3.1233   -0.1136   -3.2795 C   0  0  0  0  0  0  0  0  0  0  0  0
    2.9564    0.9980   -0.3097 C   0  0  0  0  0  0  0  0  0  0  0  0
    3.1004   -0.1702   -0.6693 O   0  0  0  0  0  0  0  0  0  0  0  0
    3.2528    1.1685    1.0087 N   0  0  0  0  0  0  0  0  0  0  0  0
    2.9504    2.2421    1.9251 C   0  0  2  0  0  0  0  0  0  0  0  0
    4.2219    2.8675    2.4780 C   0  0  0  0  0  0  0  0  0  0  0  0
    1.9905    1.7458    2.9808 C   0  0  0  0  0  0  0  0  0  0  0  0
    0.9069    1.2410    2.6646 O   0  0  0  0  0  0  0  0  0  0  0  0
    2.3246    2.0061    4.4238 C   0  0  0  0  0  0  0  0  0  0  0  0
    1.2993    2.9526    4.9998 C   0  0  0  0  0  0  0  0  0  0  0  0
    0.0069    2.3736    5.0034 O   0  0  0  0  0  0  0  0  0  0  0  0
    1.2572    2.0721   -1.0470 H   0  0  0  0  0  0  0  0  0  0  0  0
    2.3283    3.0024    1.4632 H   0  0  0  0  0  0  0  0  0  0  0  0
    2.3750    5.5350    1.2399 H   0  0  0  0  0  0  0  0  0  0  0  0
    3.6952    6.6864    1.2863 H   0  0  0  0  0  0  0  0  0  0  0  0
    0.9672    5.3695   -0.8383 H   0  0  0  0  0  0  0  0  0  0  0  0
    0.6259    5.8763   -3.1751 H   0  0  0  0  0  0  0  0  0  0  0  0
    2.0194    7.6201   -4.2687 H   0  0  0  0  0  0  0  0  0  0  0  0
    3.8890    8.6799   -3.0158 H   0  0  0  0  0  0  0  0  0  0  0  0
    4.5762    7.7559   -0.8230 H   0  0  0  0  0  0  0  0  0  0  0  0
    1.9735    3.9574   -0.1851 H   0  0  0  0  0  0  0  0  0  0  0  0
    2.0504    3.0791   -3.1298 H   0  0  0  0  0  0  0  0  0  0  0  0
    3.6717    2.4872   -2.8896 H   0  0  0  0  0  0  0  0  0  0  0  0
    0.5871    1.7144   -4.6096 H   0  0  0  0  0  0  0  0  0  0  0  0
   -0.0111   -0.5371   -5.4616 H   0  0  0  0  0  0  0  0  0  0  0  0
    1.3659   -2.5153   -4.8551 H   0  0  0  0  0  0  0  0  0  0  0  0
    3.3279   -2.2329   -3.3473 H   0  0  0  0  0  0  0  0  0  0  0  0
    4.0311   -0.0003   -2.6897 H   0  0  0  0  0  0  0  0  0  0  0  0
    3.6844    0.3286    1.3762 H   0  0  0  0  0  0  0  0  0  0  0  0
    4.9776    3.1308    1.7426 H   0  0  0  0  0  0  0  0  0  0  0  0
    3.9631    3.7911    3.0095 H   0  0  0  0  0  0  0  0  0  0  0  0
    4.7428    2.1745    3.1399 H   0  0  0  0  0  0  0  0  0  0  0  0
    2.3847    1.0368    4.9188 H   0  0  0  0  0  0  0  0  0  0  0  0
    3.2943    2.4831    4.5484 H   0  0  0  0  0  0  0  0  0  0  0  0
    1.5792    3.1853    6.0300 H   0  0  0  0  0  0  0  0  0  0  0  0
    1.2588    3.8929    4.4366 H   0  0  0  0  0  0  0  0  0  0  0  0
   -0.1728    2.0357    4.0993 H   0  0  0  0  0  0  0  0  0  0  0  0
  1  2  2  0  0  0  0
  2  3  1  0  0  0  0
  2 11  1  0  0  0  0
  3  4  1  0  0  0  0
  4  5  1  0  0  0  0
  4 32  1  0  0  0  0
  4 33  1  0  0  0  0
  5  6  1  0  0  0  0
  5 10  2  0  0  0  0
  6  7  2  0  0  0  0
  6 34  1  0  0  0  0
  7  8  1  0  0  0  0
  7 35  1  0  0  0  0
  8  9  2  0  0  0  0
  8 36  1  0  0  0  0
  9 10  1  0  0  0  0
  9 37  1  0  0  0  0
 10 38  1  0  0  0  0
 11 39  1  0  0  0  0
 12 13  1  0  0  0  0
 12 30  1  1  0  0  0
 12 20  1  0  0  0  0
 12 11  1  0  0  0  0
 13 14  1  0  0  0  0
 13 40  1  0  0  0  0
 13 41  1  0  0  0  0
 14 19  2  0  0  0  0
 14 15  1  0  0  0  0
 15 16  2  0  0  0  0
 15 42  1  0  0  0  0
 16 17  1  0  0  0  0
 16 43  1  0  0  0  0
 17 18  2  0  0  0  0
 17 44  1  0  0  0  0
 18 19  1  0  0  0  0
 18 45  1  0  0  0  0
 19 46  1  0  0  0  0
 20 21  2  0  0  0  0
 20 22  1  0  0  0  0
 22 23  1  0  0  0  0
 22 47  1  0  0  0  0
 23 25  1  0  0  0  0
 23 24  1  0  0  0  0
 23 31  1  6  0  0  0
 24 48  1  0  0  0  0
 24 49  1  0  0  0  0
 24 50  1  0  0  0  0
 25 27  1  0  0  0  0
 25 26  2  0  0  0  0
 27 28  1  0  0  0  0
 27 51  1  0  0  0  0
 27 52  1  0  0  0  0
 28 29  1  0  0  0  0
 28 53  1  0  0  0  0
 28 54  1  0  0  0  0
 29 55  1  0  0  0  0
M  END
>  <DRUGBANK_ID>
DB08732

>  <COMMON_NAME>
NALPHA-[(BENZYLOXY)CARBONYL]-N-[(1R)-4-HYDROXY-1-METHYL-2-OXOBUTYL]-L-PHENYLALANINAMIDE

$$$$
