
 OpenBabel10282417123D

 22 22  0  0  1  0  0  0  0  0999 V2000
   -0.4684   -1.3898   -0.0702 C   0  0  0  0  0  0  0  0  0  0  0  0
   -1.3832   -0.4178   -0.0213 C   0  0  0  0  0  0  0  0  0  0  0  0
    0.4248    1.4469   -0.0230 C   0  0  0  0  0  0  0  0  0  0  0  0
    0.9933   -1.1381   -0.1482 C   0  0  2  0  0  0  0  0  0  0  0  0
    1.4629    0.3305   -0.0566 C   0  0  2  0  0  0  0  0  0  0  0  0
   -1.5601    1.5357    1.4237 C   0  0  0  0  0  0  0  0  0  0  0  0
   -1.0553    1.0420    0.0397 C   0  0  2  0  0  0  0  0  0  0  0  0
    1.4215   -1.6943   -1.3877 O   0  0  0  0  0  0  0  0  0  0  0  0
    2.2608    0.4862    1.1279 O   0  0  0  0  0  0  0  0  0  0  0  0
   -2.3530    2.4441    1.6352 O   0  0  0  0  0  0  0  0  0  0  0  0
   -0.9491    0.8970    2.4568 O   0  0  0  0  0  0  0  0  0  0  0  0
   -1.7034    1.6072   -1.0936 O   0  0  0  0  0  0  0  0  0  0  0  0
    1.4762   -1.7179    0.6473 H   0  0  0  0  0  0  0  0  0  0  0  0
    2.1334    0.5465   -0.8990 H   0  0  0  0  0  0  0  0  0  0  0  0
   -0.7848   -2.4307   -0.0636 H   0  0  0  0  0  0  0  0  0  0  0  0
   -2.4397   -0.6827    0.0051 H   0  0  0  0  0  0  0  0  0  0  0  0
    0.6552    2.1048    0.8289 H   0  0  0  0  0  0  0  0  0  0  0  0
    0.5994    2.0956   -0.8915 H   0  0  0  0  0  0  0  0  0  0  0  0
    1.0477   -1.1317   -2.0879 H   0  0  0  0  0  0  0  0  0  0  0  0
    1.7277    0.1361    1.8653 H   0  0  0  0  0  0  0  0  0  0  0  0
   -1.2914    1.3210    3.2708 H   0  0  0  0  0  0  0  0  0  0  0  0
   -1.4252    2.5362   -1.1672 H   0  0  0  0  0  0  0  0  0  0  0  0
  1 15  1  0  0  0  0
  2  1  2  0  0  0  0
  2 16  1  0  0  0  0
  3 17  1  0  0  0  0
  3 18  1  0  0  0  0
  4  1  1  0  0  0  0
  4  8  1  0  0  0  0
  4 13  1  1  0  0  0
  5  3  1  0  0  0  0
  5  4  1  0  0  0  0
  5 14  1  6  0  0  0
  5  9  1  0  0  0  0
  7  2  1  0  0  0  0
  7  3  1  0  0  0  0
  7  6  1  1  0  0  0
  7 12  1  0  0  0  0
  8 19  1  0  0  0  0
  9 20  1  0  0  0  0
 10  6  2  0  0  0  0
 11  6  1  0  0  0  0
 11 21  1  0  0  0  0
 12 22  1  0  0  0  0
M  END
>  <DRUGBANK_ID>
DB02801

>  <SECONDARY_ACCESSION_NUMBERS>
EXPT01385

>  <COMMON_NAME>
2,3-Anhydro-quinic acid

>  <CAS_NUMBER>
227002-11-1

$$$$
