
 OpenBabel10282417123D

 13 13  0  0  0  0  0  0  0  0999 V2000
    0.8871    0.0025   -0.0316 O   0  0  0  0  0  0  0  0  0  0  0  0
    1.0276   -1.8030   -1.3526 O   0  0  0  0  0  0  0  0  0  0  0  0
   -1.9081   -2.0193   -0.7483 N   0  0  0  0  0  0  0  0  0  0  0  0
   -1.0972   -0.9043   -0.7625 C   0  0  0  0  0  0  0  0  0  0  0  0
   -1.9395    0.1962   -0.7856 C   0  0  0  0  0  0  0  0  0  0  0  0
   -3.2270   -1.6445   -0.7580 C   0  0  0  0  0  0  0  0  0  0  0  0
   -3.2760   -0.2707   -0.8012 C   0  0  0  0  0  0  0  0  0  0  0  0
    0.3346   -0.9684   -0.7848 C   0  0  0  0  0  0  0  0  0  0  0  0
    1.8495   -0.1658   -0.0867 H   0  0  0  0  0  0  0  0  0  0  0  0
   -1.5717   -2.9739   -0.7165 H   0  0  0  0  0  0  0  0  0  0  0  0
   -1.6166    1.2286   -0.8282 H   0  0  0  0  0  0  0  0  0  0  0  0
   -4.0165   -2.3847   -0.7463 H   0  0  0  0  0  0  0  0  0  0  0  0
   -4.1758    0.3299   -0.8444 H   0  0  0  0  0  0  0  0  0  0  0  0
  1  8  1  0  0  0  0
  1  9  1  0  0  0  0
  2  8  2  0  0  0  0
  3  4  1  0  0  0  0
  3  6  1  0  0  0  0
  3 10  1  0  0  0  0
  4  5  2  0  0  0  0
  4  8  1  0  0  0  0
  5  7  1  0  0  0  0
  5 11  1  0  0  0  0
  6  7  2  0  0  0  0
  6 12  1  0  0  0  0
  7 13  1  0  0  0  0
M  END
>  <DRUGBANK_ID>
DB02543

>  <SECONDARY_ACCESSION_NUMBERS>
EXPT02717

>  <COMMON_NAME>
Pyrrole-2-Carboxylate

>  <UNII>
2NNB85QQT9

$$$$
