
 OpenBabel10282417243D

 59 61  0  0  1  0  0  0  0  0999 V2000
    1.0614   -0.1491   -0.0192 H   0  0  0  0  0  0  0  0  0  0  0  0
    2.1562   -0.1000    0.0193 C   0  0  1  0  0  0  0  0  0  0  0  0
    2.6324    1.2926    0.4034 C   0  0  0  0  0  0  0  0  0  0  0  0
    4.0278    1.4171   -0.1948 C   0  0  1  0  0  0  0  0  0  0  0  0
    5.0081    1.1866    0.8142 O   0  0  0  0  0  0  0  0  0  0  0  0
    4.1487    0.3504   -1.2924 C   0  0  2  0  0  0  0  0  0  0  0  0
    4.4318    0.9610   -2.6259 C   0  0  0  0  0  0  0  0  0  0  0  0
    5.5344    0.6520   -3.3137 C   0  0  0  0  0  0  0  0  0  0  0  0
    5.8385    1.2343   -4.6428 C   0  0  1  0  0  0  0  0  0  0  0  0
    7.0787    1.8942   -4.4481 O   0  0  0  0  0  0  0  0  0  0  0  0
    5.9116    0.1362   -5.7273 C   0  0  1  0  0  0  0  0  0  0  0  0
    4.5987   -0.6519   -5.8128 C   0  0  0  0  0  0  0  0  0  0  0  0
    6.2063    0.7462   -7.1005 C   0  0  0  0  0  0  0  0  0  0  0  0
    7.5239    1.5024   -7.0495 C   0  0  0  0  0  0  0  0  0  0  0  0
    8.6541    2.1511   -7.0058 C   0  0  0  0  0  0  0  0  0  0  0  0
    9.9218    2.8781   -6.9532 C   0  0  0  0  0  0  0  0  0  0  0  0
    2.8155   -0.4054   -1.3261 C   0  0  1  0  0  0  0  0  0  0  0  0
    2.1681   -0.1640   -2.1749 H   0  0  0  0  0  0  0  0  0  0  0  0
    3.0240   -1.8626   -1.1565 C   0  0  0  0  0  0  0  0  0  0  0  0
    3.3727   -2.8116   -2.1038 C   0  0  0  0  0  0  0  0  0  0  0  0
    3.6597   -4.0903   -1.6600 C   0  0  0  0  0  0  0  0  0  0  0  0
    3.6267   -4.3685   -0.2918 C   0  0  0  0  0  0  0  0  0  0  0  0
    3.1899   -3.4369    0.6682 C   0  0  0  0  0  0  0  0  0  0  0  0
    3.0131   -3.7967    2.1195 C   0  0  0  0  0  0  0  0  0  0  0  0
    1.9546   -4.8944    2.3479 C   0  0  0  0  0  0  0  0  0  0  0  0
    2.2586   -6.2558    1.7123 C   0  0  0  0  0  0  0  0  0  0  0  0
    3.6108   -6.8063    2.1426 C   0  0  0  0  0  0  0  0  0  0  0  0
    3.5718   -8.0595    2.6272 O   0  0  0  0  0  0  0  0  0  0  0  0
    4.6783   -6.2106    2.0514 O   0  0  0  0  0  0  0  0  0  0  0  0
    2.9220   -2.1715    0.1955 C   0  0  0  0  0  0  0  0  0  0  0  0
    2.6049   -1.0855    0.9773 O   0  0  0  0  0  0  0  0  0  0  0  0
    2.6423    1.4418    1.4872 H   0  0  0  0  0  0  0  0  0  0  0  0
    1.9771    2.0394   -0.0590 H   0  0  0  0  0  0  0  0  0  0  0  0
    4.1967    2.4329   -0.5712 H   0  0  0  0  0  0  0  0  0  0  0  0
    4.8801    0.2770    1.1439 H   0  0  0  0  0  0  0  0  0  0  0  0
    4.9772   -0.3287   -1.0398 H   0  0  0  0  0  0  0  0  0  0  0  0
    3.7140    1.6670   -3.0364 H   0  0  0  0  0  0  0  0  0  0  0  0
    6.2654   -0.0526   -2.9176 H   0  0  0  0  0  0  0  0  0  0  0  0
    5.0938    1.9840   -4.9390 H   0  0  0  0  0  0  0  0  0  0  0  0
    6.9176    2.6638   -3.8789 H   0  0  0  0  0  0  0  0  0  0  0  0
    6.7269   -0.5594   -5.4806 H   0  0  0  0  0  0  0  0  0  0  0  0
    3.7628    0.0107   -6.0634 H   0  0  0  0  0  0  0  0  0  0  0  0
    4.6579   -1.4329   -6.5770 H   0  0  0  0  0  0  0  0  0  0  0  0
    4.3649   -1.1451   -4.8656 H   0  0  0  0  0  0  0  0  0  0  0  0
    6.2754   -0.0339   -7.8671 H   0  0  0  0  0  0  0  0  0  0  0  0
    5.4122    1.4403   -7.3999 H   0  0  0  0  0  0  0  0  0  0  0  0
   10.4483    2.8105   -7.9101 H   0  0  0  0  0  0  0  0  0  0  0  0
    9.7552    3.9368   -6.7333 H   0  0  0  0  0  0  0  0  0  0  0  0
   10.5754    2.4688   -6.1773 H   0  0  0  0  0  0  0  0  0  0  0  0
    3.4664   -2.5719   -3.1553 H   0  0  0  0  0  0  0  0  0  0  0  0
    3.9358   -4.8821   -2.3522 H   0  0  0  0  0  0  0  0  0  0  0  0
    3.9609   -5.3586   -0.0107 H   0  0  0  0  0  0  0  0  0  0  0  0
    3.9791   -4.0673    2.5539 H   0  0  0  0  0  0  0  0  0  0  0  0
    2.7007   -2.9140    2.6940 H   0  0  0  0  0  0  0  0  0  0  0  0
    1.8302   -5.0410    3.4278 H   0  0  0  0  0  0  0  0  0  0  0  0
    0.9863   -4.5361    1.9702 H   0  0  0  0  0  0  0  0  0  0  0  0
    1.4617   -6.9621    1.9641 H   0  0  0  0  0  0  0  0  0  0  0  0
    2.2074   -6.2052    0.6204 H   0  0  0  0  0  0  0  0  0  0  0  0
    2.6876   -8.4637    2.6374 H   0  0  0  0  0  0  0  0  0  0  0  0
  2  1  1  6  0  0  0
  2  3  1  0  0  0  0
  2 31  1  0  0  0  0
  3 32  1  0  0  0  0
  3 33  1  0  0  0  0
  4  3  1  0  0  0  0
  4 34  1  6  0  0  0
  4  5  1  0  0  0  0
  5 35  1  0  0  0  0
  6  4  1  0  0  0  0
  6  7  1  0  0  0  0
  6 17  1  0  0  0  0
  6 36  1  1  0  0  0
  7  8  2  0  0  0  0
  7 37  1  0  0  0  0
  8 38  1  0  0  0  0
  9  8  1  0  0  0  0
  9 10  1  0  0  0  0
  9 11  1  0  0  0  0
  9 39  1  6  0  0  0
 10 40  1  0  0  0  0
 11 12  1  0  0  0  0
 11 13  1  0  0  0  0
 11 41  1  1  0  0  0
 12 42  1  0  0  0  0
 12 43  1  0  0  0  0
 12 44  1  0  0  0  0
 13 14  1  0  0  0  0
 13 45  1  0  0  0  0
 13 46  1  0  0  0  0
 14 15  3  0  0  0  0
 15 16  1  0  0  0  0
 16 47  1  0  0  0  0
 16 48  1  0  0  0  0
 16 49  1  0  0  0  0
 17  2  1  0  0  0  0
 17 18  1  6  0  0  0
 17 19  1  0  0  0  0
 19 20  2  0  0  0  0
 19 30  1  0  0  0  0
 20 21  1  0  0  0  0
 20 50  1  0  0  0  0
 21 22  2  0  0  0  0
 21 51  1  0  0  0  0
 22 23  1  0  0  0  0
 22 52  1  0  0  0  0
 23 24  1  0  0  0  0
 23 30  2  0  0  0  0
 24 25  1  0  0  0  0
 24 53  1  0  0  0  0
 24 54  1  0  0  0  0
 25 26  1  0  0  0  0
 25 55  1  0  0  0  0
 25 56  1  0  0  0  0
 26 27  1  0  0  0  0
 26 57  1  0  0  0  0
 26 58  1  0  0  0  0
 27 28  1  0  0  0  0
 27 29  2  0  0  0  0
 28 59  1  0  0  0  0
 30 31  1  0  0  0  0
M  END
>  <DRUGBANK_ID>
DB18464

>  <COMMON_NAME>
Esuberaprost

>  <CAS_NUMBER>
94132-88-4

>  <UNII>
1JSN1I7582

>  <SYNONYMS>
(+)-4-((1r,2r,3as,8bs)-2-hydroxy-1-((1e,3s,4s)-3-hydroxy-4-methyl-oct-1-en-6-yn-1-yl)-2,3,3a,8b-tetrahydro-1h-cyclopenta(b)(1)benzofuran-5-yl)butanoic acid; 1h-cyclopenta(b)benzofuran-5-butanoic acid, 2,3,3a,8b-tetrahydro-2-hydroxy-1-((1e,3s,4s)-3-hydroxy-4-methyl-1-octen-6-ynyl)-, (1r,2r,3as,8bs)-; Aps-314d free acid; Beraprost, (+)-

$$$$
