
 OpenBabel10282417203D

 33 33  0  0  0  0  0  0  0  0999 V2000
   -1.3894    0.0065    0.7604 C   0  0  3  0  0  0  0  0  0  0  0  0
   -0.5014   -0.0152    2.0122 C   0  0  0  0  0  0  0  0  0  0  0  0
   -1.2953    1.2713   -0.0981 C   0  0  0  0  0  0  0  0  0  0  0  0
   -1.2792   -1.2222   -0.0512 N   0  0  0  0  0  0  0  0  0  0  0  0
   -0.6240    1.1237    2.8976 N   0  0  0  0  0  0  0  0  0  0  0  0
    0.0471    1.5737   -0.7768 C   0  0  0  0  0  0  0  0  0  0  0  0
   -0.0090   -1.5366   -0.7094 C   0  0  0  0  0  0  0  0  0  0  0  0
   -0.1723    1.0776    4.1747 C   0  0  0  0  0  0  0  0  0  0  0  0
    1.3095    1.3657    0.0610 C   0  0  0  0  0  0  0  0  0  0  0  0
    1.2714   -1.3782    0.1099 C   0  0  0  0  0  0  0  0  0  0  0  0
    0.1037    2.1211    4.8535 N   0  0  0  0  0  0  0  0  0  0  0  0
   -0.0771   -0.1412    4.7357 N   0  0  0  0  0  0  0  0  0  0  0  0
    2.0034   -0.0190   -0.0967 C   0  0  0  0  0  0  0  0  0  0  0  0
   -2.4136   -0.0122    1.1649 H   0  0  0  0  0  0  0  0  0  0  0  0
   -0.6860   -0.9717    2.5038 H   0  0  0  0  0  0  0  0  0  0  0  0
    0.5500   -0.0254    1.8002 H   0  0  0  0  0  0  0  0  0  0  0  0
   -2.0666    1.2136   -0.8819 H   0  0  0  0  0  0  0  0  0  0  0  0
   -1.5932    2.1338    0.5124 H   0  0  0  0  0  0  0  0  0  0  0  0
   -2.0134   -1.2091   -0.7630 H   0  0  0  0  0  0  0  0  0  0  0  0
   -0.3797    1.9994    2.4433 H   0  0  0  0  0  0  0  0  0  0  0  0
    0.1306    1.0138   -1.7106 H   0  0  0  0  0  0  0  0  0  0  0  0
    0.0096    2.6219   -1.0988 H   0  0  0  0  0  0  0  0  0  0  0  0
    0.0821   -0.9871   -1.6480 H   0  0  0  0  0  0  0  0  0  0  0  0
   -0.0748   -2.5854   -1.0242 H   0  0  0  0  0  0  0  0  0  0  0  0
    2.0414    2.1324   -0.2273 H   0  0  0  0  0  0  0  0  0  0  0  0
    1.1419    1.6444    1.1022 H   0  0  0  0  0  0  0  0  0  0  0  0
    1.9738   -2.1758   -0.1669 H   0  0  0  0  0  0  0  0  0  0  0  0
    1.0945   -1.6503    1.1579 H   0  0  0  0  0  0  0  0  0  0  0  0
   -0.0739    2.9527    4.2837 H   0  0  0  0  0  0  0  0  0  0  0  0
   -0.0130   -0.9978    4.2180 H   0  0  0  0  0  0  0  0  0  0  0  0
    0.1369   -0.1817    5.7180 H   0  0  0  0  0  0  0  0  0  0  0  0
    2.3969   -0.0434   -1.1189 H   0  0  0  0  0  0  0  0  0  0  0  0
    2.8791   -0.0187    0.5659 H   0  0  0  0  0  0  0  0  0  0  0  0
  1  2  1  0  0  0  0
  1  3  1  0  0  0  0
  1  4  1  0  0  0  0
  1 14  1  0  0  0  0
  2  5  1  0  0  0  0
  2 15  1  0  0  0  0
  2 16  1  0  0  0  0
  3  6  1  0  0  0  0
  3 17  1  0  0  0  0
  3 18  1  0  0  0  0
  4  7  1  0  0  0  0
  4 19  1  0  0  0  0
  5  8  1  0  0  0  0
  5 20  1  0  0  0  0
  6  9  1  0  0  0  0
  6 21  1  0  0  0  0
  6 22  1  0  0  0  0
  7 10  1  0  0  0  0
  7 23  1  0  0  0  0
  7 24  1  0  0  0  0
  8 11  2  0  0  0  0
  8 12  1  0  0  0  0
  9 13  1  0  0  0  0
  9 25  1  0  0  0  0
  9 26  1  0  0  0  0
 10 13  1  0  0  0  0
 10 27  1  0  0  0  0
 10 28  1  0  0  0  0
 11 29  1  0  0  0  0
 12 30  1  0  0  0  0
 12 31  1  0  0  0  0
 13 32  1  0  0  0  0
 13 33  1  0  0  0  0
M  END
>  <DRUGBANK_ID>
DB13604

>  <COMMON_NAME>
Guanazodine

>  <CAS_NUMBER>
32059-15-7

>  <UNII>
7N05KQ38YI

>  <SYNONYMS>
Guanazodine

$$$$
