
 OpenBabel10282417243D

 38 39  0  0  0  0  0  0  0  0999 V2000
    1.0288   -0.2797   -0.1067 C   0  0  0  0  0  0  0  0  0  0  0  0
    0.4785   -0.1902   -1.5151 C   0  0  0  0  0  0  0  0  0  0  0  0
   -0.2478   -1.0863   -1.9481 O   0  0  0  0  0  0  0  0  0  0  0  0
    0.8539    0.9817   -2.4121 C   0  0  0  0  0  0  0  0  0  0  0  0
    0.3569    2.3278   -1.9052 C   0  0  0  0  0  0  0  0  0  0  0  0
    1.0271    2.7806   -0.6132 C   0  0  0  0  0  0  0  0  0  0  0  0
    2.5582    2.8242   -0.7210 C   0  0  0  0  0  0  0  0  0  0  0  0
    2.9492    3.9036   -1.6041 N   0  0  0  0  0  0  0  0  0  0  0  0
    3.3898    3.8324   -2.8973 C   0  0  0  0  0  0  0  0  0  0  0  0
    3.3887    5.0278   -3.4692 N   0  0  0  0  0  0  0  0  0  0  0  0
    2.9310    5.8809   -2.5017 C   0  0  0  0  0  0  0  0  0  0  0  0
    2.7092    7.2409   -2.5826 N   0  0  0  0  0  0  0  0  0  0  0  0
    3.0017    8.0017   -3.7837 C   0  0  0  0  0  0  0  0  0  0  0  0
    2.2023    7.9197   -1.4638 C   0  0  0  0  0  0  0  0  0  0  0  0
    2.0150    9.1390   -1.4735 O   0  0  0  0  0  0  0  0  0  0  0  0
    1.9180    7.1628   -0.3196 N   0  0  0  0  0  0  0  0  0  0  0  0
    1.3800    7.8107    0.8547 C   0  0  0  0  0  0  0  0  0  0  0  0
    2.1630    5.8115   -0.1745 C   0  0  0  0  0  0  0  0  0  0  0  0
    1.9482    5.1924    0.8710 O   0  0  0  0  0  0  0  0  0  0  0  0
    2.6771    5.2109   -1.3460 C   0  0  0  0  0  0  0  0  0  0  0  0
    0.8000   -1.2592    0.3155 H   0  0  0  0  0  0  0  0  0  0  0  0
    0.5362    0.4159    0.5685 H   0  0  0  0  0  0  0  0  0  0  0  0
    2.1121   -0.1346   -0.0986 H   0  0  0  0  0  0  0  0  0  0  0  0
    1.9325    0.9707   -2.5952 H   0  0  0  0  0  0  0  0  0  0  0  0
    0.4020    0.8091   -3.3974 H   0  0  0  0  0  0  0  0  0  0  0  0
    0.5350    3.0922   -2.6749 H   0  0  0  0  0  0  0  0  0  0  0  0
   -0.7288    2.3014   -1.7604 H   0  0  0  0  0  0  0  0  0  0  0  0
    0.5887    3.7466   -0.3528 H   0  0  0  0  0  0  0  0  0  0  0  0
    0.7381    2.1774    0.2370 H   0  0  0  0  0  0  0  0  0  0  0  0
    3.0181    3.0015    0.2573 H   0  0  0  0  0  0  0  0  0  0  0  0
    2.9960    1.8914   -1.0872 H   0  0  0  0  0  0  0  0  0  0  0  0
    3.6600    2.8968   -3.3756 H   0  0  0  0  0  0  0  0  0  0  0  0
    4.0630    7.9073   -4.0294 H   0  0  0  0  0  0  0  0  0  0  0  0
    2.3842    7.6435   -4.6121 H   0  0  0  0  0  0  0  0  0  0  0  0
    2.7858    9.0660   -3.6422 H   0  0  0  0  0  0  0  0  0  0  0  0
    0.4113    7.3552    1.0908 H   0  0  0  0  0  0  0  0  0  0  0  0
    2.0559    7.6216    1.6962 H   0  0  0  0  0  0  0  0  0  0  0  0
    1.2549    8.8848    0.7252 H   0  0  0  0  0  0  0  0  0  0  0  0
  1  2  1  0  0  0  0
  1 21  1  0  0  0  0
  1 22  1  0  0  0  0
  1 23  1  0  0  0  0
  2  3  2  0  0  0  0
  2  4  1  0  0  0  0
  4  5  1  0  0  0  0
  4 24  1  0  0  0  0
  4 25  1  0  0  0  0
  5  6  1  0  0  0  0
  5 26  1  0  0  0  0
  5 27  1  0  0  0  0
  6  7  1  0  0  0  0
  6 28  1  0  0  0  0
  6 29  1  0  0  0  0
  7  8  1  0  0  0  0
  7 30  1  0  0  0  0
  7 31  1  0  0  0  0
  8  9  1  0  0  0  0
  8 20  1  0  0  0  0
  9 10  2  0  0  0  0
  9 32  1  0  0  0  0
 10 11  1  0  0  0  0
 11 12  1  0  0  0  0
 11 20  2  0  0  0  0
 12 13  1  0  0  0  0
 12 14  1  0  0  0  0
 13 33  1  0  0  0  0
 13 34  1  0  0  0  0
 13 35  1  0  0  0  0
 14 15  2  0  0  0  0
 14 16  1  0  0  0  0
 16 17  1  0  0  0  0
 16 18  1  0  0  0  0
 17 36  1  0  0  0  0
 17 37  1  0  0  0  0
 17 38  1  0  0  0  0
 18 19  2  0  0  0  0
 18 20  1  0  0  0  0
M  END
>  <DRUGBANK_ID>
DB18002

>  <COMMON_NAME>
Lomifylline

>  <CAS_NUMBER>
10226-54-7

>  <UNII>
NA91GV8GDJ

>  <SYNONYMS>
7-(5-oxohexyl)theophylline

$$$$
