
 OpenBabel10282417173D

 34 34  0  0  0  0  0  0  0  0999 V2000
   -1.4302   -0.1257   -0.0339 N   0  0  0  0  0  0  0  0  0  0  0  0
   -0.6629   -1.3028   -0.0170 C   0  0  0  0  0  0  0  0  0  0  0  0
   -0.7821    1.1094    0.0375 C   0  0  0  0  0  0  0  0  0  0  0  0
   -2.8360   -0.0982   -0.1745 C   0  0  0  0  0  0  0  0  0  0  0  0
    0.6997   -1.1374    0.1348 N   0  0  0  0  0  0  0  0  0  0  0  0
   -1.1118   -2.4422   -0.1422 O   0  0  0  0  0  0  0  0  0  0  0  0
    0.5442    1.2348   -0.0099 C   0  0  0  0  0  0  0  0  0  0  0  0
   -3.4641   -1.3073   -0.3275 N   0  0  0  0  0  0  0  0  0  0  0  0
   -3.4798    0.9530   -0.1909 O   0  0  0  0  0  0  0  0  0  0  0  0
    1.3871    0.0337   -0.0292 C   0  0  0  0  0  0  0  0  0  0  0  0
    1.1572    2.4313   -0.0500 F   0  0  0  0  0  0  0  0  0  0  0  0
   -4.8973   -1.4327   -0.5363 C   0  0  0  0  0  0  0  0  0  0  0  0
    2.6061    0.0710   -0.1775 O   0  0  0  0  0  0  0  0  0  0  0  0
   -5.2146   -2.1407   -1.8537 C   0  0  0  0  0  0  0  0  0  0  0  0
   -4.7006   -3.5855   -1.8770 C   0  0  0  0  0  0  0  0  0  0  0  0
   -5.3414   -4.4594   -0.7901 C   0  0  0  0  0  0  0  0  0  0  0  0
   -6.8637   -4.5507   -0.9257 C   0  0  0  0  0  0  0  0  0  0  0  0
   -7.2596   -5.1787   -2.2528 C   0  0  0  0  0  0  0  0  0  0  0  0
   -1.4035    1.9987    0.0932 H   0  0  0  0  0  0  0  0  0  0  0  0
    1.2559   -1.9800    0.1371 H   0  0  0  0  0  0  0  0  0  0  0  0
   -2.8992   -2.1546   -0.2893 H   0  0  0  0  0  0  0  0  0  0  0  0
   -5.3071   -1.9783    0.3192 H   0  0  0  0  0  0  0  0  0  0  0  0
   -5.3766   -0.4497   -0.5311 H   0  0  0  0  0  0  0  0  0  0  0  0
   -6.2988   -2.1238   -2.0208 H   0  0  0  0  0  0  0  0  0  0  0  0
   -4.7810   -1.5876   -2.6946 H   0  0  0  0  0  0  0  0  0  0  0  0
   -4.8826   -4.0182   -2.8671 H   0  0  0  0  0  0  0  0  0  0  0  0
   -3.6118   -3.6002   -1.7612 H   0  0  0  0  0  0  0  0  0  0  0  0
   -4.9078   -5.4651   -0.8323 H   0  0  0  0  0  0  0  0  0  0  0  0
   -5.0891   -4.0753    0.2048 H   0  0  0  0  0  0  0  0  0  0  0  0
   -7.2683   -5.1461   -0.1002 H   0  0  0  0  0  0  0  0  0  0  0  0
   -7.3254   -3.5611   -0.8329 H   0  0  0  0  0  0  0  0  0  0  0  0
   -6.8377   -6.1852   -2.3330 H   0  0  0  0  0  0  0  0  0  0  0  0
   -8.3458   -5.2410   -2.3432 H   0  0  0  0  0  0  0  0  0  0  0  0
   -6.9011   -4.5923   -3.1043 H   0  0  0  0  0  0  0  0  0  0  0  0
  1  2  1  0  0  0  0
  1  3  1  0  0  0  0
  1  4  1  0  0  0  0
  2  5  1  0  0  0  0
  2  6  2  0  0  0  0
  3  7  2  0  0  0  0
  3 19  1  0  0  0  0
  4  8  1  0  0  0  0
  4  9  2  0  0  0  0
  5 10  1  0  0  0  0
  5 20  1  0  0  0  0
  7 11  1  0  0  0  0
  7 10  1  0  0  0  0
  8 12  1  0  0  0  0
  8 21  1  0  0  0  0
 10 13  2  0  0  0  0
 12 14  1  0  0  0  0
 12 22  1  0  0  0  0
 12 23  1  0  0  0  0
 14 15  1  0  0  0  0
 14 24  1  0  0  0  0
 14 25  1  0  0  0  0
 15 16  1  0  0  0  0
 15 26  1  0  0  0  0
 15 27  1  0  0  0  0
 16 17  1  0  0  0  0
 16 28  1  0  0  0  0
 16 29  1  0  0  0  0
 17 18  1  0  0  0  0
 17 30  1  0  0  0  0
 17 31  1  0  0  0  0
 18 32  1  0  0  0  0
 18 33  1  0  0  0  0
 18 34  1  0  0  0  0
M  END
>  <DRUGBANK_ID>
DB09010

>  <COMMON_NAME>
Carmofur

>  <CAS_NUMBER>
61422-45-5

>  <UNII>
HA82M3RAB2

>  <SYNONYMS>
Carmofur

$$$$
