
 OpenBabel10282417133D

 52 55  0  0  0  0  0  0  0  0999 V2000
    0.9787   -0.0433    0.1497 N   0  0  0  0  0  0  0  0  0  0  0  0
    0.5007    1.2408   -0.3809 C   0  0  0  0  0  0  0  0  0  0  0  0
    1.0485    1.5752   -1.7467 C   0  0  0  0  0  0  0  0  0  0  0  0
    1.0123    2.8747   -2.2837 C   0  0  0  0  0  0  0  0  0  0  0  0
    1.5598    3.1445   -3.5608 C   0  0  0  0  0  0  0  0  0  0  0  0
    2.2225    2.1266   -4.2534 C   0  0  0  0  0  0  0  0  0  0  0  0
    2.6074    2.2277   -5.6115 N   0  0  0  0  0  0  0  0  0  0  0  0
    3.0067    1.2200   -6.5124 C   0  0  0  0  0  0  0  0  0  0  0  0
    3.4930    1.5684   -7.6038 O   0  0  0  0  0  0  0  0  0  0  0  0
    2.8340   -0.2754   -6.2661 C   0  0  0  0  0  0  0  0  0  0  0  0
    1.7144   -0.7773   -5.6071 C   0  0  0  0  0  0  0  0  0  0  0  0
    1.8238   -2.0160   -4.9295 C   0  0  0  0  0  0  0  0  0  0  0  0
    0.7922   -2.3819   -4.0006 N   0  0  0  0  0  0  0  0  0  0  0  0
    0.5668   -3.7256   -3.6285 C   0  0  0  0  0  0  0  0  0  0  0  0
   -0.2291   -4.4956   -4.3893 N   0  0  0  0  0  0  0  0  0  0  0  0
   -0.1678   -5.8338   -4.1745 C   0  0  0  0  0  0  0  0  0  0  0  0
    0.6823   -6.4304   -3.2751 C   0  0  0  0  0  0  0  0  0  0  0  0
    1.4026   -5.5578   -2.5089 C   0  0  0  0  0  0  0  0  0  0  0  0
    1.2981   -4.2165   -2.6148 N   0  0  0  0  0  0  0  0  0  0  0  0
    3.0534   -2.7545   -5.0831 C   0  0  0  0  0  0  0  0  0  0  0  0
    3.7711   -3.7380   -4.2853 C   0  0  0  0  0  0  0  0  0  0  0  0
    4.7854   -4.5530   -4.7950 C   0  0  0  0  0  0  0  0  0  0  0  0
    4.1777   -5.1251   -5.8564 C   0  0  0  0  0  0  0  0  0  0  0  0
    3.9110   -4.0776   -6.7846 C   0  0  0  0  0  0  0  0  0  0  0  0
    3.5754   -2.6769   -6.3186 C   0  0  0  0  0  0  0  0  0  0  0  0
    3.7503   -1.2598   -6.6918 C   0  0  0  0  0  0  0  0  0  0  0  0
    6.1550   -4.1993   -5.4045 C   0  0  0  0  0  0  0  0  0  0  0  0
    6.5243   -2.9565   -5.8405 N   0  0  0  0  0  0  0  0  0  0  0  0
    6.8744   -5.2025   -5.8139 N   0  0  0  0  0  0  0  0  0  0  0  0
    2.4636    0.9584   -3.5688 C   0  0  0  0  0  0  0  0  0  0  0  0
    1.7105    0.6029   -2.4738 C   0  0  0  0  0  0  0  0  0  0  0  0
    0.6486   -0.8022   -0.4487 H   0  0  0  0  0  0  0  0  0  0  0  0
    1.9982   -0.0652    0.0742 H   0  0  0  0  0  0  0  0  0  0  0  0
   -0.5926    1.2350   -0.3994 H   0  0  0  0  0  0  0  0  0  0  0  0
    0.8394    2.0136    0.3149 H   0  0  0  0  0  0  0  0  0  0  0  0
    0.5519    3.6798   -1.7125 H   0  0  0  0  0  0  0  0  0  0  0  0
    1.4619    4.1477   -3.9703 H   0  0  0  0  0  0  0  0  0  0  0  0
    2.5578    3.1529   -6.0297 H   0  0  0  0  0  0  0  0  0  0  0  0
    0.8618   -0.1240   -5.4423 H   0  0  0  0  0  0  0  0  0  0  0  0
   -0.0941   -2.0390   -4.3612 H   0  0  0  0  0  0  0  0  0  0  0  0
   -0.8223   -6.4431   -4.7930 H   0  0  0  0  0  0  0  0  0  0  0  0
    0.7903   -7.5020   -3.1793 H   0  0  0  0  0  0  0  0  0  0  0  0
    2.1863   -5.9014   -1.8379 H   0  0  0  0  0  0  0  0  0  0  0  0
    3.0429   -4.3355   -3.7512 H   0  0  0  0  0  0  0  0  0  0  0  0
    3.4434   -5.8985   -5.5859 H   0  0  0  0  0  0  0  0  0  0  0  0
    4.4297   -4.2211   -7.7296 H   0  0  0  0  0  0  0  0  0  0  0  0
    4.6799   -0.9312   -7.1624 H   0  0  0  0  0  0  0  0  0  0  0  0
    6.9376   -2.9923   -6.7698 H   0  0  0  0  0  0  0  0  0  0  0  0
    5.7600   -2.3009   -5.8753 H   0  0  0  0  0  0  0  0  0  0  0  0
    7.6152   -4.8507   -6.4222 H   0  0  0  0  0  0  0  0  0  0  0  0
    3.1812    0.2335   -3.9203 H   0  0  0  0  0  0  0  0  0  0  0  0
    1.7176   -0.4444   -2.1908 H   0  0  0  0  0  0  0  0  0  0  0  0
  1  2  1  0  0  0  0
  1 32  1  0  0  0  0
  1 33  1  0  0  0  0
  2  3  1  0  0  0  0
  2 34  1  0  0  0  0
  2 35  1  0  0  0  0
  3  4  2  0  0  0  0
  3 31  1  0  0  0  0
  4  5  1  0  0  0  0
  4 36  1  0  0  0  0
  5  6  2  0  0  0  0
  5 37  1  0  0  0  0
  6  7  1  0  0  0  0
  6 30  1  0  0  0  0
  7  8  1  0  0  0  0
  7 38  1  0  0  0  0
  8  9  2  0  0  0  0
  8 10  1  0  0  0  0
 10 11  2  0  0  0  0
 10 26  1  0  0  0  0
 11 12  1  0  0  0  0
 11 39  1  0  0  0  0
 12 13  1  0  0  0  0
 12 20  2  0  0  0  0
 13 14  1  0  0  0  0
 13 40  1  0  0  0  0
 14 15  2  0  0  0  0
 14 19  1  0  0  0  0
 15 16  1  0  0  0  0
 16 17  2  0  0  0  0
 16 41  1  0  0  0  0
 17 18  1  0  0  0  0
 17 42  1  0  0  0  0
 18 19  2  0  0  0  0
 18 43  1  0  0  0  0
 20 21  1  0  0  0  0
 20 25  1  0  0  0  0
 21 22  2  0  0  0  0
 21 44  1  0  0  0  0
 22 23  1  0  0  0  0
 22 27  1  0  0  0  0
 23 24  2  0  0  0  0
 23 45  1  0  0  0  0
 24 25  1  0  0  0  0
 24 46  1  0  0  0  0
 25 26  2  0  0  0  0
 26 47  1  0  0  0  0
 27 28  1  0  0  0  0
 27 29  2  0  0  0  0
 28 48  1  0  0  0  0
 28 49  1  0  0  0  0
 29 50  1  0  0  0  0
 30 31  2  0  0  0  0
 30 51  1  0  0  0  0
 31 52  1  0  0  0  0
M  END
>  <DRUGBANK_ID>
DB03082

>  <SECONDARY_ACCESSION_NUMBERS>
EXPT03178

>  <COMMON_NAME>
6-[(Z)-Amino(Imino)Methyl]-N-[4-(Aminomethyl)Phenyl]-4-(Pyrimidin-2-Ylamino)-2-Naphthamide

$$$$
