
 OpenBabel10282417243D

 53 54  0  0  0  0  0  0  0  0999 V2000
    0.7041    0.5685    0.4605 C   0  0  0  0  0  0  0  0  0  0  0  0
    0.2030   -0.8157    1.1383 C   0  0  0  0  0  0  0  0  0  0  0  0
    0.8819   -1.3963    2.3333 N   0  3  0  0  0  0  0  0  0  0  0  0
    0.3764   -0.3297    3.3134 C   0  0  0  0  0  0  0  0  0  0  0  0
   -1.1822   -0.1954    3.2789 C   0  0  0  0  0  0  0  0  0  0  0  0
    0.2101   -2.9050    2.5510 C   0  0  0  0  0  0  0  0  0  0  0  0
    0.3262   -4.0769    1.4744 C   0  0  0  0  0  0  0  0  0  0  0  0
    0.3964   -5.2591    1.9819 O   0  0  0  0  0  0  0  0  0  0  0  0
    0.4239   -4.0477    0.0905 N   0  0  0  0  0  0  0  0  0  0  0  0
   -0.2503   -3.2087   -0.8743 C   0  0  0  0  0  0  0  0  0  0  0  0
    0.2188   -1.9322   -1.2331 C   0  0  0  0  0  0  0  0  0  0  0  0
    1.7005   -1.6690   -0.8418 C   0  0  0  0  0  0  0  0  0  0  0  0
   -0.8484   -0.9916   -1.4838 C   0  0  0  0  0  0  0  0  0  0  0  0
   -2.1562   -1.3605   -1.7587 C   0  0  0  0  0  0  0  0  0  0  0  0
   -2.4177   -2.6983   -1.8553 C   0  0  0  0  0  0  0  0  0  0  0  0
   -1.4715   -3.6252   -1.3930 C   0  0  0  0  0  0  0  0  0  0  0  0
   -1.7502   -5.0791   -1.5018 C   0  0  0  0  0  0  0  0  0  0  0  0
    2.6204   -1.5837    2.3222 C   0  0  0  0  0  0  0  0  0  0  0  0
    3.3619   -2.7230    1.5123 C   0  0  0  0  0  0  0  0  0  0  0  0
    4.2200   -2.5483    0.3836 C   0  0  0  0  0  0  0  0  0  0  0  0
    4.4878   -3.6171   -0.5294 C   0  0  0  0  0  0  0  0  0  0  0  0
    3.9263   -4.8726   -0.3341 C   0  0  0  0  0  0  0  0  0  0  0  0
    3.2458   -5.0932    0.8499 C   0  0  0  0  0  0  0  0  0  0  0  0
    3.0703   -4.0572    1.7980 C   0  0  0  0  0  0  0  0  0  0  0  0
    0.1447    1.4414    0.7951 H   0  0  0  0  0  0  0  0  0  0  0  0
    0.6137    0.6259   -0.6381 H   0  0  0  0  0  0  0  0  0  0  0  0
    1.7745    0.7942    0.5031 H   0  0  0  0  0  0  0  0  0  0  0  0
   -0.8954   -0.9166    1.1434 H   0  0  0  0  0  0  0  0  0  0  0  0
    0.2813   -1.7326    0.6730 H   0  0  0  0  0  0  0  0  0  0  0  0
    0.7715   -0.5407    4.2996 H   0  0  0  0  0  0  0  0  0  0  0  0
    0.8116    0.6115    2.9477 H   0  0  0  0  0  0  0  0  0  0  0  0
   -1.6739   -1.1397    3.5229 H   0  0  0  0  0  0  0  0  0  0  0  0
   -1.5351    0.5910    3.9367 H   0  0  0  0  0  0  0  0  0  0  0  0
   -1.6149    0.1296    2.3185 H   0  0  0  0  0  0  0  0  0  0  0  0
    0.6487   -3.2337    3.5087 H   0  0  0  0  0  0  0  0  0  0  0  0
   -0.8603   -2.7785    2.7192 H   0  0  0  0  0  0  0  0  0  0  0  0
    0.5711   -4.9930   -0.2551 H   0  0  0  0  0  0  0  0  0  0  0  0
    1.9204   -2.5135   -0.2036 H   0  0  0  0  0  0  0  0  0  0  0  0
    2.4821   -1.5881   -1.5760 H   0  0  0  0  0  0  0  0  0  0  0  0
    2.0121   -0.9411   -0.0935 H   0  0  0  0  0  0  0  0  0  0  0  0
   -0.8735    0.0734   -1.2594 H   0  0  0  0  0  0  0  0  0  0  0  0
   -2.9298   -0.6033   -1.9004 H   0  0  0  0  0  0  0  0  0  0  0  0
   -3.3803   -3.0092   -2.2436 H   0  0  0  0  0  0  0  0  0  0  0  0
   -0.8950   -5.5400   -2.0083 H   0  0  0  0  0  0  0  0  0  0  0  0
   -1.8858   -5.5150   -0.5116 H   0  0  0  0  0  0  0  0  0  0  0  0
   -2.6351   -5.2419   -2.1160 H   0  0  0  0  0  0  0  0  0  0  0  0
    2.9959   -0.5966    2.0347 H   0  0  0  0  0  0  0  0  0  0  0  0
    2.8527   -1.7431    3.3831 H   0  0  0  0  0  0  0  0  0  0  0  0
    4.5827   -1.5687    0.0714 H   0  0  0  0  0  0  0  0  0  0  0  0
    5.0646   -3.4564   -1.4436 H   0  0  0  0  0  0  0  0  0  0  0  0
    4.0161   -5.6691   -1.0752 H   0  0  0  0  0  0  0  0  0  0  0  0
    2.7506   -6.0534    1.0077 H   0  0  0  0  0  0  0  0  0  0  0  0
    2.5325   -4.2997    2.7064 H   0  0  0  0  0  0  0  0  0  0  0  0
  1  2  1  0  0  0  0
  1 25  1  0  0  0  0
  1 26  1  0  0  0  0
  1 27  1  0  0  0  0
  2  3  1  0  0  0  0
  2 28  1  0  0  0  0
  2 29  1  0  0  0  0
  3  4  1  0  0  0  0
  3  6  1  0  0  0  0
  3 18  1  0  0  0  0
  4  5  1  0  0  0  0
  4 30  1  0  0  0  0
  4 31  1  0  0  0  0
  5 32  1  0  0  0  0
  5 33  1  0  0  0  0
  5 34  1  0  0  0  0
  6  7  1  0  0  0  0
  6 35  1  0  0  0  0
  6 36  1  0  0  0  0
  7  8  2  0  0  0  0
  7  9  1  0  0  0  0
  9 10  1  0  0  0  0
  9 37  1  0  0  0  0
 10 11  2  0  0  0  0
 10 16  1  0  0  0  0
 11 12  1  0  0  0  0
 11 13  1  0  0  0  0
 12 38  1  0  0  0  0
 12 39  1  0  0  0  0
 12 40  1  0  0  0  0
 13 14  2  0  0  0  0
 13 41  1  0  0  0  0
 14 15  1  0  0  0  0
 14 42  1  0  0  0  0
 15 16  2  0  0  0  0
 15 43  1  0  0  0  0
 16 17  1  0  0  0  0
 17 44  1  0  0  0  0
 17 45  1  0  0  0  0
 17 46  1  0  0  0  0
 18 19  1  0  0  0  0
 18 47  1  0  0  0  0
 18 48  1  0  0  0  0
 19 20  2  0  0  0  0
 19 24  1  0  0  0  0
 20 21  1  0  0  0  0
 20 49  1  0  0  0  0
 21 22  2  0  0  0  0
 21 50  1  0  0  0  0
 22 23  1  0  0  0  0
 22 51  1  0  0  0  0
 23 24  2  0  0  0  0
 23 52  1  0  0  0  0
 24 53  1  0  0  0  0
M  CHG  1   3   1
M  END
>  <DRUGBANK_ID>
DB18588

>  <COMMON_NAME>
Denatonium

>  <CAS_NUMBER>
47324-98-1

>  <UNII>
4IK22DF4OU

>  <SYNONYMS>
Benzenemethanaminium, n-(2-((2,6-dimethylphenyl)amino)-2-oxoethyl)-n,n-diethyl; Benzyldiethyl((2,6-xylylcarbamoyl)methyl)ammonium

$$$$
