J78
 OpenBabel10282417173D

 57 59  0  0  0  0  0  0  0  0999 V2000
    1.0747    0.0513    0.0094 C   0  0  0  0  0  0  0  0  0  0  0  0
    0.5529    0.0439   -1.3934 C   0  0  0  0  0  0  0  0  0  0  0  0
    0.2945   -1.1448   -2.0474 C   0  0  0  0  0  0  0  0  0  0  0  0
   -0.4297   -1.1079   -3.2364 C   0  0  0  0  0  0  0  0  0  0  0  0
   -0.6323    0.1047   -3.8773 C   0  0  0  0  0  0  0  0  0  0  0  0
   -0.2332    1.2399   -3.2697 N   0  0  0  0  0  0  0  0  0  0  0  0
    0.2923    1.2202   -1.9915 N   0  0  0  0  0  0  0  0  0  0  0  0
   -1.1522    0.1659   -5.1437 N   0  0  0  0  0  0  0  0  0  0  0  0
   -2.4799   -0.3039   -5.4715 C   0  0  0  0  0  0  0  0  0  0  0  0
   -2.3795   -1.4892   -6.3925 C   0  0  0  0  0  0  0  0  0  0  0  0
   -1.5175   -1.1495   -7.5803 C   0  0  0  0  0  0  0  0  0  0  0  0
   -0.1476   -0.5327   -7.2050 C   0  0  0  0  0  0  0  0  0  0  0  0
   -0.3149    0.6256   -6.2341 C   0  0  0  0  0  0  0  0  0  0  0  0
   -1.3261   -2.4558   -8.3088 C   0  0  0  0  0  0  0  0  0  0  0  0
   -2.4948   -2.9954   -9.1243 C   0  0  0  0  0  0  0  0  0  0  0  0
   -3.0583   -1.9718  -10.1267 C   0  0  0  0  0  0  0  0  0  0  0  0
   -2.2691   -1.7597  -11.3416 O   0  0  0  0  0  0  0  0  0  0  0  0
   -1.0383   -1.1605  -11.2417 C   0  0  0  0  0  0  0  0  0  0  0  0
    0.0855   -1.8494  -10.7954 C   0  0  0  0  0  0  0  0  0  0  0  0
    1.2142   -1.1537  -10.3167 C   0  0  0  0  0  0  0  0  0  0  0  0
    1.3581    0.2021  -10.5794 C   0  0  0  0  0  0  0  0  0  0  0  0
    0.3329    0.8391  -11.2948 C   0  0  0  0  0  0  0  0  0  0  0  0
   -0.8331    0.1391  -11.6749 C   0  0  0  0  0  0  0  0  0  0  0  0
    2.6095    0.9541  -10.2432 C   0  0  0  0  0  0  0  0  0  0  0  0
    2.7954    2.0895  -10.6076 O   0  0  0  0  0  0  0  0  0  0  0  0
    3.5106    0.1689   -9.5757 O   0  0  0  0  0  0  0  0  0  0  0  0
    4.8210    0.7428   -9.3731 C   0  0  0  0  0  0  0  0  0  0  0  0
    5.5684    0.9216  -10.6872 C   0  0  0  0  0  0  0  0  0  0  0  0
    0.7084   -0.8265    0.5553 H   0  0  0  0  0  0  0  0  0  0  0  0
    0.7140    0.9331    0.5496 H   0  0  0  0  0  0  0  0  0  0  0  0
    2.1672    0.0426    0.0247 H   0  0  0  0  0  0  0  0  0  0  0  0
    0.6253   -2.0907   -1.6342 H   0  0  0  0  0  0  0  0  0  0  0  0
   -0.7902   -2.0336   -3.6687 H   0  0  0  0  0  0  0  0  0  0  0  0
   -3.0084    0.4971   -6.0030 H   0  0  0  0  0  0  0  0  0  0  0  0
   -3.0699   -0.5838   -4.5981 H   0  0  0  0  0  0  0  0  0  0  0  0
   -3.3746   -1.7854   -6.7427 H   0  0  0  0  0  0  0  0  0  0  0  0
   -1.9376   -2.3515   -5.8789 H   0  0  0  0  0  0  0  0  0  0  0  0
   -2.0068   -0.3998   -8.2161 H   0  0  0  0  0  0  0  0  0  0  0  0
    0.5189   -1.3038   -6.7990 H   0  0  0  0  0  0  0  0  0  0  0  0
    0.3483   -0.1332   -8.0926 H   0  0  0  0  0  0  0  0  0  0  0  0
    0.6732    0.9868   -5.9234 H   0  0  0  0  0  0  0  0  0  0  0  0
   -0.8129    1.4516   -6.7571 H   0  0  0  0  0  0  0  0  0  0  0  0
   -0.5635   -2.1498   -8.9488 H   0  0  0  0  0  0  0  0  0  0  0  0
   -0.8168   -3.2381   -7.7374 H   0  0  0  0  0  0  0  0  0  0  0  0
   -2.1673   -3.8797   -9.6832 H   0  0  0  0  0  0  0  0  0  0  0  0
   -3.2752   -3.3415   -8.4314 H   0  0  0  0  0  0  0  0  0  0  0  0
   -4.0210   -2.3840  -10.4672 H   0  0  0  0  0  0  0  0  0  0  0  0
   -3.3426   -1.0290   -9.6397 H   0  0  0  0  0  0  0  0  0  0  0  0
    0.0069   -2.9142  -10.5716 H   0  0  0  0  0  0  0  0  0  0  0  0
    1.9055   -1.6647   -9.6455 H   0  0  0  0  0  0  0  0  0  0  0  0
    0.4304    1.8901  -11.5588 H   0  0  0  0  0  0  0  0  0  0  0  0
   -1.5427    0.5980  -12.3561 H   0  0  0  0  0  0  0  0  0  0  0  0
    4.7428    1.6845   -8.8185 H   0  0  0  0  0  0  0  0  0  0  0  0
    5.3892    0.0469   -8.7416 H   0  0  0  0  0  0  0  0  0  0  0  0
    5.0369    1.5948  -11.3646 H   0  0  0  0  0  0  0  0  0  0  0  0
    6.5655    1.3392  -10.5202 H   0  0  0  0  0  0  0  0  0  0  0  0
    5.6651   -0.0363  -11.2077 H   0  0  0  0  0  0  0  0  0  0  0  0
  1  2  1  0  0  0  0
  1 29  1  0  0  0  0
  1 30  1  0  0  0  0
  1 31  1  0  0  0  0
  2  3  1  0  0  0  0
  2  7  2  0  0  0  0
  3  4  2  0  0  0  0
  3 32  1  0  0  0  0
  4  5  1  0  0  0  0
  4 33  1  0  0  0  0
  5  6  2  0  0  0  0
  5  8  1  0  0  0  0
  6  7  1  0  0  0  0
  8  9  1  0  0  0  0
  8 13  1  0  0  0  0
  9 10  1  0  0  0  0
  9 34  1  0  0  0  0
  9 35  1  0  0  0  0
 10 11  1  0  0  0  0
 10 36  1  0  0  0  0
 10 37  1  0  0  0  0
 11 12  1  0  0  0  0
 11 14  1  0  0  0  0
 11 38  1  0  0  0  0
 12 13  1  0  0  0  0
 12 39  1  0  0  0  0
 12 40  1  0  0  0  0
 13 41  1  0  0  0  0
 13 42  1  0  0  0  0
 14 15  1  0  0  0  0
 14 43  1  0  0  0  0
 14 44  1  0  0  0  0
 15 16  1  0  0  0  0
 15 45  1  0  0  0  0
 15 46  1  0  0  0  0
 16 17  1  0  0  0  0
 16 47  1  0  0  0  0
 16 48  1  0  0  0  0
 17 18  1  0  0  0  0
 18 19  2  0  0  0  0
 18 23  1  0  0  0  0
 19 20  1  0  0  0  0
 19 49  1  0  0  0  0
 20 21  2  0  0  0  0
 20 50  1  0  0  0  0
 21 22  1  0  0  0  0
 21 24  1  0  0  0  0
 22 23  2  0  0  0  0
 22 51  1  0  0  0  0
 23 52  1  0  0  0  0
 24 25  2  0  0  0  0
 24 26  1  0  0  0  0
 26 27  1  0  0  0  0
 27 28  1  0  0  0  0
 27 53  1  0  0  0  0
 27 54  1  0  0  0  0
 28 55  1  0  0  0  0
 28 56  1  0  0  0  0
 28 57  1  0  0  0  0
M  END
>  <DRUGBANK_ID>
DB08013

>  <COMMON_NAME>
(METHYLPYRIDAZINE PIPERIDINE PROPYLOXYPHENYL)ETHYLACETATE

>  <UNII>
3GR7JE5BNH

$$$$
