
 OpenBabel10282417233D

259264  0  0  1  0  0  0  0  0999 V2000
  -17.8284   -2.9394   21.5476 N   0  0  0  0  0  0  0  0  0  0  0  0
  -18.6363   -2.2570   20.7332 C   0  0  2  0  0  0  0  0  0  0  0  0
  -19.7491   -3.2432   21.3189 C   0  0  0  0  0  0  0  0  0  0  0  0
  -19.4134   -4.3015   22.0591 C   0  0  0  0  0  0  0  0  0  0  0  0
  -20.1462   -4.3332   23.1476 C   0  0  0  0  0  0  0  0  0  0  0  0
  -19.4401   -5.2584   23.6737 C   0  0  0  0  0  0  0  0  0  0  0  0
  -18.1582   -5.7818   23.2014 C   0  0  0  0  0  0  0  0  0  0  0  0
  -17.4609   -5.5347   22.0874 C   0  0  0  0  0  0  0  0  0  0  0  0
  -18.1858   -4.8510   21.3610 C   0  0  0  0  0  0  0  0  0  0  0  0
  -17.4492   -6.7396   23.9069 C   0  0  0  0  0  0  0  0  0  0  0  0
  -16.3686   -7.1159   23.4719 O   0  0  0  0  0  0  0  0  0  0  0  0
  -18.0505   -7.2661   25.0961 C   0  0  0  0  0  0  0  0  0  0  0  0
  -19.2850   -7.8928   24.9929 C   0  0  0  0  0  0  0  0  0  0  0  0
  -19.7480   -8.6731   26.0303 C   0  0  0  0  0  0  0  0  0  0  0  0
  -18.9935   -8.8145   27.1738 C   0  0  0  0  0  0  0  0  0  0  0  0
  -17.7453   -8.2155   27.2282 C   0  0  0  0  0  0  0  0  0  0  0  0
  -17.3264   -7.3182   26.2574 C   0  0  0  0  0  0  0  0  0  0  0  0
  -18.0196   -1.0862   19.3406 C   0  0  0  0  0  0  0  0  0  0  0  0
  -18.0501   -0.0915   18.6426 O   0  0  0  0  0  0  0  0  0  0  0  0
  -17.5843   -1.7993   18.4015 N   0  0  0  0  0  0  0  0  0  0  0  0
  -18.2549   -2.9610   18.3798 C   0  0  2  0  0  0  0  0  0  0  0  0
  -19.1653   -3.2836   17.4159 C   0  0  0  0  0  0  0  0  0  0  0  0
  -20.0395   -4.8584   17.3512 O   0  0  0  0  0  0  0  0  0  0  0  0
  -19.1182   -3.4232   19.3130 C   0  0  0  0  0  0  0  0  0  0  0  0
  -19.2540   -4.6419   19.5345 O   0  0  0  0  0  0  0  0  0  0  0  0
  -20.2046   -2.3288   19.8249 N   0  0  0  0  0  0  0  0  0  0  0  0
  -21.1890   -0.7251   19.5329 C   0  0  2  0  0  0  0  0  0  0  0  0
  -20.0329   -0.4645   19.0005 C   0  0  0  0  0  0  0  0  0  0  0  0
  -20.6727    0.1541   20.1382 C   0  0  0  0  0  0  0  0  0  0  0  0
  -21.8286   -0.6318   21.6242 C   0  0  0  0  0  0  0  0  0  0  0  0
  -21.9816    0.9009   22.6411 N   0  0  0  0  0  0  0  0  0  0  0  0
  -20.7199    2.3832   21.9959 C   0  0  0  0  0  0  0  0  0  0  0  0
  -19.7980    2.0629   21.0468 C   0  0  0  0  0  0  0  0  0  0  0  0
  -18.6595    3.1337   20.9149 C   0  0  0  0  0  0  0  0  0  0  0  0
  -18.9775    4.2548   21.4957 C   0  0  0  0  0  0  0  0  0  0  0  0
  -20.1655    4.4796   22.0326 C   0  0  0  0  0  0  0  0  0  0  0  0
  -21.1829    3.7429   21.9061 C   0  0  0  0  0  0  0  0  0  0  0  0
  -22.2153    0.5924   20.9233 C   0  0  0  0  0  0  0  0  0  0  0  0
  -23.4235    1.1967   20.8923 O   0  0  0  0  0  0  0  0  0  0  0  0
  -20.6425    0.7477   22.1013 N   0  0  0  0  0  0  0  0  0  0  0  0
  -18.4327    0.6073   22.1625 C   0  0  2  0  0  0  0  0  0  0  0  0
  -17.9532   -0.4690   23.6012 C   0  0  0  0  0  0  0  0  0  0  0  0
  -17.7433   -1.9279   23.7500 O   0  0  0  0  0  0  0  0  0  0  0  0
  -17.3340    1.5751   22.0386 C   0  0  0  0  0  0  0  0  0  0  0  0
  -16.6259    1.6713   21.0164 O   0  0  0  0  0  0  0  0  0  0  0  0
  -17.8164    2.5285   22.9463 N   0  0  0  0  0  0  0  0  0  0  0  0
  -19.2324    2.4365   23.7064 C   0  0  2  0  0  0  0  0  0  0  0  0
  -19.2614    1.3655   24.7628 C   0  0  0  0  0  0  0  0  0  0  0  0
  -20.5027    0.5873   25.0964 C   0  0  0  0  0  0  0  0  0  0  0  0
  -21.3944    1.5237   25.3590 C   0  0  0  0  0  0  0  0  0  0  0  0
  -20.8867    2.7287   25.5364 F   0  0  0  0  0  0  0  0  0  0  0  0
  -22.6510    1.2987   25.6384 C   0  0  0  0  0  0  0  0  0  0  0  0
  -23.3856    2.3580   25.8911 F   0  0  0  0  0  0  0  0  0  0  0  0
  -23.0034    0.0129   25.8213 C   0  0  0  0  0  0  0  0  0  0  0  0
  -24.0954   -0.2394   26.5102 F   0  0  0  0  0  0  0  0  0  0  0  0
  -22.2085   -1.0194   25.4310 C   0  0  0  0  0  0  0  0  0  0  0  0
  -22.6710   -2.2594   25.3575 F   0  0  0  0  0  0  0  0  0  0  0  0
  -20.9088   -0.7521   25.2035 C   0  0  0  0  0  0  0  0  0  0  0  0
  -20.1300   -1.8248   25.0526 F   0  0  0  0  0  0  0  0  0  0  0  0
  -21.1752    2.8815   23.6290 C   0  0  0  0  0  0  0  0  0  0  0  0
  -21.2793    4.0439   24.1412 O   0  0  0  0  0  0  0  0  0  0  0  0
  -22.3746    2.4074   22.0681 N   0  0  0  0  0  0  0  0  0  0  0  0
  -21.3020    1.8606   20.3717 C   0  0  2  0  0  0  0  0  0  0  0  0
  -19.2157    1.3404   19.6089 C   0  0  0  0  0  0  0  0  0  0  0  0
  -18.9604    2.4224   18.8350 C   0  0  0  0  0  0  0  0  0  0  0  0
  -20.2532    2.5713   18.5845 C   0  0  0  0  0  0  0  0  0  0  0  0
  -20.7088    3.3570   17.5983 C   0  0  0  0  0  0  0  0  0  0  0  0
  -19.2171    2.9818   16.5135 C   0  0  0  0  0  0  0  0  0  0  0  0
  -17.8434    3.0587   16.8709 C   0  0  0  0  0  0  0  0  0  0  0  0
  -17.8884    2.2085   17.9765 C   0  0  0  0  0  0  0  0  0  0  0  0
  -22.1399    1.8766   19.4155 C   0  0  0  0  0  0  0  0  0  0  0  0
  -21.5317    1.1181   18.7754 O   0  0  0  0  0  0  0  0  0  0  0  0
  -22.4802    2.8987   18.9473 N   0  0  0  0  0  0  0  0  0  0  0  0
  -21.1684    4.2925   19.1278 C   0  0  2  0  0  0  0  0  0  0  0  0
  -22.3176    5.0290   19.0581 C   0  0  0  0  0  0  0  0  0  0  0  0
  -21.9211    5.7399   20.1767 C   0  0  0  0  0  0  0  0  0  0  0  0
  -20.4459    6.1462   20.0963 C   0  0  0  0  0  0  0  0  0  0  0  0
  -19.9585    6.7346   18.8900 N   0  0  0  0  0  0  0  0  0  0  0  0
  -19.4517    7.9508   18.9238 C   0  0  0  0  0  0  0  0  0  0  0  0
  -19.0628    8.4837   17.7542 N   0  0  0  0  0  0  0  0  0  0  0  0
  -19.4436    8.5406   20.0600 N   0  0  0  0  0  0  0  0  0  0  0  0
  -19.4916    4.5247   17.8018 C   0  0  0  0  0  0  0  0  0  0  0  0
  -18.4000    4.6155   18.4073 O   0  0  0  0  0  0  0  0  0  0  0  0
  -20.4645    4.2762   16.0594 N   0  0  0  0  0  0  0  0  0  0  0  0
  -21.9046    3.5659   15.6906 C   0  0  2  0  0  0  0  0  0  0  0  0
  -23.0579    3.8321   16.6011 C   0  0  0  0  0  0  0  0  0  0  0  0
  -24.4776    3.7783   16.5160 C   0  0  0  0  0  0  0  0  0  0  0  0
  -24.7807    2.4296   15.3787 C   0  0  0  0  0  0  0  0  0  0  0  0
  -24.6053    0.6389   15.7087 N   0  0  0  0  0  0  0  0  0  0  0  0
  -25.6809   -0.0594   16.3542 C   0  0  0  0  0  0  0  0  0  0  0  0
  -25.5413   -1.3911   16.8780 N   0  0  0  0  0  0  0  0  0  0  0  0
  -26.7760    0.5145   16.2182 N   0  0  0  0  0  0  0  0  0  0  0  0
  -21.8272    2.2465   14.9372 C   0  0  0  0  0  0  0  0  0  0  0  0
  -22.1752    2.2112   13.7782 O   0  0  0  0  0  0  0  0  0  0  0  0
  -21.7625    1.0634   15.5156 N   0  0  0  0  0  0  0  0  0  0  0  0
  -21.2220    0.8461   16.6956 C   0  0  2  0  0  0  0  0  0  0  0  0
  -19.9181    0.3848   16.6407 C   0  0  0  0  0  0  0  0  0  0  0  0
  -20.0620   -0.8403   16.2188 C   0  0  0  0  0  0  0  0  0  0  0  0
  -20.0672   -0.7378   14.7926 C   0  0  0  0  0  0  0  0  0  0  0  0
  -18.8966   -0.0419   14.5101 N   0  0  0  0  0  0  0  0  0  0  0  0
  -18.0553   -0.5694   13.6311 C   0  0  0  0  0  0  0  0  0  0  0  0
  -16.9834    0.1800   13.3631 N   0  0  0  0  0  0  0  0  0  0  0  0
  -18.3494   -1.6579   13.0271 N   0  0  0  0  0  0  0  0  0  0  0  0
  -22.1654   -0.0213   17.4395 C   0  0  0  0  0  0  0  0  0  0  0  0
  -22.9042    0.5416   18.3434 O   0  0  0  0  0  0  0  0  0  0  0  0
  -22.6369   -1.5133   17.0306 N   0  0  0  0  0  0  0  0  0  0  0  0
  -22.1995   -2.2791   15.9545 C   0  0  2  0  0  0  0  0  0  0  0  0
  -22.8166   -3.5612   15.7484 C   0  0  0  0  0  0  0  0  0  0  0  0
  -22.2245   -3.9565   14.4718 C   0  0  0  0  0  0  0  0  0  0  0  0
  -20.7451   -4.2642   14.3943 C   0  0  0  0  0  0  0  0  0  0  0  0
  -20.1377   -5.4083   14.4046 N   0  0  0  0  0  0  0  0  0  0  0  0
  -19.8545   -3.4781   14.1860 O   0  0  0  0  0  0  0  0  0  0  0  0
  -20.9799   -2.9431   16.3806 C   0  0  0  0  0  0  0  0  0  0  0  0
  -19.8818   -2.6297   15.8025 O   0  0  0  0  0  0  0  0  0  0  0  0
  -21.1413   -3.4723   18.0306 N   0  0  0  0  0  0  0  0  0  0  0  0
  -21.9967   -4.0778   18.9750 C   0  0  2  0  0  0  0  0  0  0  0  0
  -23.1413   -3.5274   18.5062 C   0  0  0  0  0  0  0  0  0  0  0  0
  -23.7820   -2.6186   19.3132 C   0  0  0  0  0  0  0  0  0  0  0  0
  -23.2893   -0.9664   19.1911 C   0  0  0  0  0  0  0  0  0  0  0  0
  -24.1221   -0.2554   17.5846 N   0  0  0  0  0  0  0  0  0  0  0  0
  -24.5108    1.3194   17.9435 C   0  0  0  0  0  0  0  0  0  0  0  0
  -23.5240    1.6727   17.0018 N   0  0  0  0  0  0  0  0  0  0  0  0
  -24.7417    1.9222   19.0504 N   0  0  0  0  0  0  0  0  0  0  0  0
  -22.0750   -4.2775   20.5307 C   0  0  0  0  0  0  0  0  0  0  0  0
  -21.4136   -5.2012   20.9683 O   0  0  0  0  0  0  0  0  0  0  0  0
  -22.2005   -3.0665   21.3657 N   0  0  0  0  0  0  0  0  0  0  0  0
  -21.9758   -1.9491   20.4657 C   0  0  2  0  0  0  0  0  0  0  0  0
  -20.1661   -0.9773   21.3450 C   0  0  0  0  0  0  0  0  0  0  0  0
  -20.1392   -0.8395   22.8085 C   0  0  0  0  0  0  0  0  0  0  0  0
  -19.1577   -1.5749   22.6450 C   0  0  0  0  0  0  0  0  0  0  0  0
  -17.3323   -1.1368   21.7599 N   0  0  0  0  0  0  0  0  0  0  0  0
  -16.1023   -1.5726   21.9043 C   0  0  0  0  0  0  0  0  0  0  0  0
  -15.4965   -1.9328   20.7850 N   0  0  0  0  0  0  0  0  0  0  0  0
  -16.0488   -2.2935   22.9065 N   0  0  0  0  0  0  0  0  0  0  0  0
  -23.9160   -1.3262   20.9390 C   0  0  0  0  0  0  0  0  0  0  0  0
  -24.9750   -0.9139   19.4665 O   0  0  0  0  0  0  0  0  0  0  0  0
  -24.2123   -0.7720   21.9728 O   0  0  0  0  0  0  0  0  0  0  0  0
  -17.1003   -2.8175   20.9544 H   0  0  0  0  0  0  0  0  0  0  0  0
  -17.2240   -3.0685   22.5104 H   0  0  0  0  0  0  0  0  0  0  0  0
  -18.7255   -1.4028   21.0989 H   0  0  0  0  0  0  0  0  0  0  0  0
  -20.6584   -2.3662   21.7082 H   0  0  0  0  0  0  0  0  0  0  0  0
  -20.3221   -3.8589   20.4627 H   0  0  0  0  0  0  0  0  0  0  0  0
  -21.0266   -3.7678   23.3852 H   0  0  0  0  0  0  0  0  0  0  0  0
  -19.9887   -5.6672   24.4493 H   0  0  0  0  0  0  0  0  0  0  0  0
  -16.6560   -5.7749   21.4730 H   0  0  0  0  0  0  0  0  0  0  0  0
  -17.5154   -4.2685   20.4586 H   0  0  0  0  0  0  0  0  0  0  0  0
  -19.8967   -7.7601   24.1087 H   0  0  0  0  0  0  0  0  0  0  0  0
  -20.6734   -9.2116   25.9181 H   0  0  0  0  0  0  0  0  0  0  0  0
  -19.3664   -9.3738   28.0243 H   0  0  0  0  0  0  0  0  0  0  0  0
  -17.0843   -8.5032   28.0289 H   0  0  0  0  0  0  0  0  0  0  0  0
  -16.4514   -6.6970   26.4026 H   0  0  0  0  0  0  0  0  0  0  0  0
  -17.8993   -1.0805   17.7365 H   0  0  0  0  0  0  0  0  0  0  0  0
  -17.7774   -3.8241   18.4743 H   0  0  0  0  0  0  0  0  0  0  0  0
  -19.9916   -2.3042   17.5707 H   0  0  0  0  0  0  0  0  0  0  0  0
  -19.0181   -3.7953   16.5437 H   0  0  0  0  0  0  0  0  0  0  0  0
  -20.3156   -5.2070   18.2423 H   0  0  0  0  0  0  0  0  0  0  0  0
  -20.9870   -2.8689   20.5928 H   0  0  0  0  0  0  0  0  0  0  0  0
  -22.2234   -1.8250   18.9228 H   0  0  0  0  0  0  0  0  0  0  0  0
  -19.6832   -1.3018   18.5197 H   0  0  0  0  0  0  0  0  0  0  0  0
  -20.3606    0.1049   18.3361 H   0  0  0  0  0  0  0  0  0  0  0  0
  -22.7274   -0.0872   22.4373 H   0  0  0  0  0  0  0  0  0  0  0  0
  -21.4521   -0.1066   21.9885 H   0  0  0  0  0  0  0  0  0  0  0  0
  -17.7627    3.0595   20.1924 H   0  0  0  0  0  0  0  0  0  0  0  0
  -18.3885    5.0403   21.2312 H   0  0  0  0  0  0  0  0  0  0  0  0
  -20.8974    5.1518   22.3146 H   0  0  0  0  0  0  0  0  0  0  0  0
  -22.3316    3.7151   22.8632 H   0  0  0  0  0  0  0  0  0  0  0  0
  -20.6809    1.3090   23.0773 H   0  0  0  0  0  0  0  0  0  0  0  0
  -18.1655    0.0875   21.2361 H   0  0  0  0  0  0  0  0  0  0  0  0
  -17.3018    0.2428   23.8334 H   0  0  0  0  0  0  0  0  0  0  0  0
  -18.9327   -0.6834   24.2049 H   0  0  0  0  0  0  0  0  0  0  0  0
  -18.1896   -2.5736   22.8799 H   0  0  0  0  0  0  0  0  0  0  0  0
  -17.5864    3.4207   22.5108 H   0  0  0  0  0  0  0  0  0  0  0  0
  -18.9776    3.1303   24.4468 H   0  0  0  0  0  0  0  0  0  0  0  0
  -19.3715    0.7264   24.0735 H   0  0  0  0  0  0  0  0  0  0  0  0
  -18.3228    0.9398   24.9265 H   0  0  0  0  0  0  0  0  0  0  0  0
  -22.7507    2.6424   21.2002 H   0  0  0  0  0  0  0  0  0  0  0  0
  -21.0647    1.1712   20.9575 H   0  0  0  0  0  0  0  0  0  0  0  0
  -18.5051    1.3789   20.5197 H   0  0  0  0  0  0  0  0  0  0  0  0
  -18.0666    0.8285   19.9623 H   0  0  0  0  0  0  0  0  0  0  0  0
  -19.1447    3.3286   19.3075 H   0  0  0  0  0  0  0  0  0  0  0  0
  -20.2479    1.6550   18.2242 H   0  0  0  0  0  0  0  0  0  0  0  0
  -20.8629    2.9104   19.5717 H   0  0  0  0  0  0  0  0  0  0  0  0
  -21.6292    3.4874   17.4425 H   0  0  0  0  0  0  0  0  0  0  0  0
  -20.8336    4.9471   17.7794 H   0  0  0  0  0  0  0  0  0  0  0  0
  -19.7789    2.2011   16.0571 H   0  0  0  0  0  0  0  0  0  0  0  0
  -18.9320    4.3523   16.0441 H   0  0  0  0  0  0  0  0  0  0  0  0
  -17.5361    2.7504   15.9388 H   0  0  0  0  0  0  0  0  0  0  0  0
  -17.6424    4.1305   16.9585 H   0  0  0  0  0  0  0  0  0  0  0  0
  -17.0552    2.0706   18.5676 H   0  0  0  0  0  0  0  0  0  0  0  0
  -18.2526    1.3717   17.5732 H   0  0  0  0  0  0  0  0  0  0  0  0
  -22.5184    2.0247   18.1909 H   0  0  0  0  0  0  0  0  0  0  0  0
  -20.5938    4.0878   20.0324 H   0  0  0  0  0  0  0  0  0  0  0  0
  -22.0876    5.5066   18.1420 H   0  0  0  0  0  0  0  0  0  0  0  0
  -23.2177    4.4116   19.1176 H   0  0  0  0  0  0  0  0  0  0  0  0
  -22.5587    6.4944   19.9008 H   0  0  0  0  0  0  0  0  0  0  0  0
  -22.2787    5.0734   20.9594 H   0  0  0  0  0  0  0  0  0  0  0  0
  -20.2651    6.6222   21.0211 H   0  0  0  0  0  0  0  0  0  0  0  0
  -19.7824    5.3196   20.1020 H   0  0  0  0  0  0  0  0  0  0  0  0
  -19.8803    6.2276   18.0350 H   0  0  0  0  0  0  0  0  0  0  0  0
  -18.7235    9.4370   17.7306 H   0  0  0  0  0  0  0  0  0  0  0  0
  -19.0682    8.0103   16.8589 H   0  0  0  0  0  0  0  0  0  0  0  0
  -19.1042    9.4889   20.0369 H   0  0  0  0  0  0  0  0  0  0  0  0
  -19.8763    3.6803   15.1530 H   0  0  0  0  0  0  0  0  0  0  0  0
  -22.0203    4.4215   15.1642 H   0  0  0  0  0  0  0  0  0  0  0  0
  -22.8957    3.1003   17.2600 H   0  0  0  0  0  0  0  0  0  0  0  0
  -22.9581    4.4656   17.3959 H   0  0  0  0  0  0  0  0  0  0  0  0
  -24.8149    3.6559   17.6059 H   0  0  0  0  0  0  0  0  0  0  0  0
  -24.3818    4.7461   16.1280 H   0  0  0  0  0  0  0  0  0  0  0  0
  -25.7955    2.4687   15.4266 H   0  0  0  0  0  0  0  0  0  0  0  0
  -23.9299    2.4905   14.7455 H   0  0  0  0  0  0  0  0  0  0  0  0
  -23.8707    0.5374   16.5337 H   0  0  0  0  0  0  0  0  0  0  0  0
  -26.0985   -1.8416   17.5857 H   0  0  0  0  0  0  0  0  0  0  0  0
  -25.0998   -1.1950   17.6994 H   0  0  0  0  0  0  0  0  0  0  0  0
  -27.3417   -0.2660   16.4652 H   0  0  0  0  0  0  0  0  0  0  0  0
  -22.1559    0.2215   15.1797 H   0  0  0  0  0  0  0  0  0  0  0  0
  -21.2697    1.7723   17.0761 H   0  0  0  0  0  0  0  0  0  0  0  0
  -18.9474    0.5721   16.6906 H   0  0  0  0  0  0  0  0  0  0  0  0
  -19.4764   -0.1714   17.3495 H   0  0  0  0  0  0  0  0  0  0  0  0
  -19.0534   -1.3607   16.6704 H   0  0  0  0  0  0  0  0  0  0  0  0
  -20.9099   -1.1145   16.8059 H   0  0  0  0  0  0  0  0  0  0  0  0
  -20.2984   -1.6105   14.2537 H   0  0  0  0  0  0  0  0  0  0  0  0
  -20.9626   -0.3364   14.4744 H   0  0  0  0  0  0  0  0  0  0  0  0
  -18.7232    0.7460   15.1099 H   0  0  0  0  0  0  0  0  0  0  0  0
  -16.3448   -0.1072   12.6369 H   0  0  0  0  0  0  0  0  0  0  0  0
  -16.7665    1.0455   13.8315 H   0  0  0  0  0  0  0  0  0  0  0  0
  -17.7036   -1.9821   12.3264 H   0  0  0  0  0  0  0  0  0  0  0  0
  -23.5907   -1.9439   17.3440 H   0  0  0  0  0  0  0  0  0  0  0  0
  -22.2121   -1.5066   15.2353 H   0  0  0  0  0  0  0  0  0  0  0  0
  -22.4863   -4.2982   16.5011 H   0  0  0  0  0  0  0  0  0  0  0  0
  -23.8697   -3.3674   15.8671 H   0  0  0  0  0  0  0  0  0  0  0  0
  -22.7046   -4.8711   14.2880 H   0  0  0  0  0  0  0  0  0  0  0  0
  -22.4654   -3.1339   13.8029 H   0  0  0  0  0  0  0  0  0  0  0  0
  -19.1125   -5.3476   14.3778 H   0  0  0  0  0  0  0  0  0  0  0  0
  -20.6588   -6.1796   14.1201 H   0  0  0  0  0  0  0  0  0  0  0  0
  -20.3185   -3.8979   18.3924 H   0  0  0  0  0  0  0  0  0  0  0  0
  -21.9236   -5.0414   18.6008 H   0  0  0  0  0  0  0  0  0  0  0  0
  -22.9059   -3.1968   17.6036 H   0  0  0  0  0  0  0  0  0  0  0  0
  -23.6704   -4.3370   18.2943 H   0  0  0  0  0  0  0  0  0  0  0  0
  -24.7887   -2.5802   19.2000 H   0  0  0  0  0  0  0  0  0  0  0  0
  -23.6884   -3.0066   20.2836 H   0  0  0  0  0  0  0  0  0  0  0  0
  -23.6052   -0.1361   19.8026 H   0  0  0  0  0  0  0  0  0  0  0  0
  -22.6010   -0.4862   19.5636 H   0  0  0  0  0  0  0  0  0  0  0  0
  -23.3876   -0.6205   16.6268 H   0  0  0  0  0  0  0  0  0  0  0  0
  -24.2510    2.2541   16.9714 H   0  0  0  0  0  0  0  0  0  0  0  0
  -23.3096    1.4618   15.9304 H   0  0  0  0  0  0  0  0  0  0  0  0
  -24.4343    2.9052   19.1457 H   0  0  0  0  0  0  0  0  0  0  0  0
  -21.8222   -2.7437   22.3626 H   0  0  0  0  0  0  0  0  0  0  0  0
  -21.1813   -2.0875   18.9103 H   0  0  0  0  0  0  0  0  0  0  0  0
  -19.4219   -0.2534   20.9134 H   0  0  0  0  0  0  0  0  0  0  0  0
  -19.6231    0.3713   21.0775 H   0  0  0  0  0  0  0  0  0  0  0  0
  -19.5569   -0.0333   23.0160 H   0  0  0  0  0  0  0  0  0  0  0  0
  -21.0496   -0.8086   23.2776 H   0  0  0  0  0  0  0  0  0  0  0  0
  -19.3947   -2.1923   23.5580 H   0  0  0  0  0  0  0  0  0  0  0  0
  -19.8398   -2.3273   22.7044 H   0  0  0  0  0  0  0  0  0  0  0  0
  -17.2286   -1.4638   20.6688 H   0  0  0  0  0  0  0  0  0  0  0  0
  -14.5850   -2.1513   21.1232 H   0  0  0  0  0  0  0  0  0  0  0  0
  -15.6561   -1.6493   19.8211 H   0  0  0  0  0  0  0  0  0  0  0  0
  -15.3525   -2.5873   23.4682 H   0  0  0  0  0  0  0  0  0  0  0  0
  -24.2543   -0.9288   18.3493 H   0  0  0  0  0  0  0  0  0  0  0  0
  1138  1  0  0  0  0
  1139  1  0  0  0  0
  2 18  1  0  0  0  0
  2140  1  1  0  0  0
  2  3  1  0  0  0  0
  2  1  1  0  0  0  0
  3  4  1  0  0  0  0
  3141  1  0  0  0  0
  3142  1  0  0  0  0
  4  5  2  0  0  0  0
  4  9  1  0  0  0  0
  5  6  1  0  0  0  0
  5143  1  0  0  0  0
  6  7  2  0  0  0  0
  6144  1  0  0  0  0
  7  8  1  0  0  0  0
  7 10  1  0  0  0  0
  8  9  2  0  0  0  0
  8145  1  0  0  0  0
  9146  1  0  0  0  0
 10 11  2  0  0  0  0
 10 12  1  0  0  0  0
 12 13  2  0  0  0  0
 12 17  1  0  0  0  0
 13 14  1  0  0  0  0
 13147  1  0  0  0  0
 14 15  2  0  0  0  0
 14148  1  0  0  0  0
 15 16  1  0  0  0  0
 15149  1  0  0  0  0
 16 17  2  0  0  0  0
 16150  1  0  0  0  0
 17151  1  0  0  0  0
 18 19  2  0  0  0  0
 18 20  1  0  0  0  0
 20152  1  0  0  0  0
 21 24  1  0  0  0  0
 21153  1  6  0  0  0
 21 22  1  0  0  0  0
 21 20  1  0  0  0  0
 22 23  1  0  0  0  0
 22154  1  0  0  0  0
 22155  1  0  0  0  0
 23156  1  0  0  0  0
 24 25  2  0  0  0  0
 24 26  1  0  0  0  0
 26157  1  0  0  0  0
 27 38  1  0  0  0  0
 27158  1  6  0  0  0
 27 28  1  0  0  0  0
 27 26  1  0  0  0  0
 28 29  1  0  0  0  0
 28159  1  0  0  0  0
 28160  1  0  0  0  0
 29 30  2  0  0  0  0
 29 33  1  0  0  0  0
 30 31  1  0  0  0  0
 30161  1  0  0  0  0
 31 32  1  0  0  0  0
 31162  1  0  0  0  0
 32 33  2  0  0  0  0
 32 37  1  0  0  0  0
 33 34  1  0  0  0  0
 34 35  2  0  0  0  0
 34163  1  0  0  0  0
 35 36  1  0  0  0  0
 35164  1  0  0  0  0
 36 37  2  0  0  0  0
 36165  1  0  0  0  0
 37166  1  0  0  0  0
 38 39  2  0  0  0  0
 38 40  1  0  0  0  0
 40167  1  0  0  0  0
 41 44  1  0  0  0  0
 41168  1  6  0  0  0
 41 42  1  0  0  0  0
 41 40  1  0  0  0  0
 42 43  1  0  0  0  0
 42169  1  0  0  0  0
 42170  1  0  0  0  0
 43171  1  0  0  0  0
 44 45  2  0  0  0  0
 44 46  1  0  0  0  0
 46172  1  0  0  0  0
 47 60  1  0  0  0  0
 47173  1  1  0  0  0
 47 48  1  0  0  0  0
 47 46  1  0  0  0  0
 48 49  1  0  0  0  0
 48174  1  0  0  0  0
 48175  1  0  0  0  0
 49 50  2  0  0  0  0
 49 58  1  0  0  0  0
 50 51  1  0  0  0  0
 50 52  1  0  0  0  0
 52 53  1  0  0  0  0
 52 54  2  0  0  0  0
 54 55  1  0  0  0  0
 54 56  1  0  0  0  0
 56 57  1  0  0  0  0
 56 58  2  0  0  0  0
 58 59  1  0  0  0  0
 60 61  2  0  0  0  0
 60 62  1  0  0  0  0
 62176  1  0  0  0  0
 63 71  1  0  0  0  0
 63177  1  1  0  0  0
 63 64  1  0  0  0  0
 63 62  1  0  0  0  0
 64 65  1  0  0  0  0
 64178  1  0  0  0  0
 64179  1  0  0  0  0
 65 66  1  0  0  0  0
 65 70  1  0  0  0  0
 65180  1  0  0  0  0
 66 67  1  0  0  0  0
 66181  1  0  0  0  0
 66182  1  0  0  0  0
 67 68  1  0  0  0  0
 67183  1  0  0  0  0
 67184  1  0  0  0  0
 68 69  1  0  0  0  0
 68185  1  0  0  0  0
 68186  1  0  0  0  0
 69 70  1  0  0  0  0
 69187  1  0  0  0  0
 69188  1  0  0  0  0
 70189  1  0  0  0  0
 70190  1  0  0  0  0
 71 72  2  0  0  0  0
 71 73  1  0  0  0  0
 73191  1  0  0  0  0
 74 82  1  0  0  0  0
 74192  1  1  0  0  0
 74 75  1  0  0  0  0
 74 73  1  0  0  0  0
 75 76  1  0  0  0  0
 75193  1  0  0  0  0
 75194  1  0  0  0  0
 76 77  1  0  0  0  0
 76195  1  0  0  0  0
 76196  1  0  0  0  0
 77 78  1  0  0  0  0
 77197  1  0  0  0  0
 77198  1  0  0  0  0
 78 79  1  0  0  0  0
 78199  1  0  0  0  0
 79 80  1  0  0  0  0
 79 81  2  0  0  0  0
 80200  1  0  0  0  0
 80201  1  0  0  0  0
 81202  1  0  0  0  0
 82 83  2  0  0  0  0
 82 84  1  0  0  0  0
 84203  1  0  0  0  0
 85 93  1  0  0  0  0
 85204  1  6  0  0  0
 85 86  1  0  0  0  0
 85 84  1  0  0  0  0
 86 87  1  0  0  0  0
 86205  1  0  0  0  0
 86206  1  0  0  0  0
 87 88  1  0  0  0  0
 87207  1  0  0  0  0
 87208  1  0  0  0  0
 88 89  1  0  0  0  0
 88209  1  0  0  0  0
 88210  1  0  0  0  0
 89 90  1  0  0  0  0
 89211  1  0  0  0  0
 90 91  1  0  0  0  0
 90 92  2  0  0  0  0
 91212  1  0  0  0  0
 91213  1  0  0  0  0
 92214  1  0  0  0  0
 93 94  2  0  0  0  0
 93 95  1  0  0  0  0
 95215  1  0  0  0  0
 96104  1  0  0  0  0
 96216  1  1  0  0  0
 96 97  1  0  0  0  0
 96 95  1  0  0  0  0
 97 98  1  0  0  0  0
 97217  1  0  0  0  0
 97218  1  0  0  0  0
 98 99  1  0  0  0  0
 98219  1  0  0  0  0
 98220  1  0  0  0  0
 99100  1  0  0  0  0
 99221  1  0  0  0  0
 99222  1  0  0  0  0
100101  1  0  0  0  0
100223  1  0  0  0  0
101102  1  0  0  0  0
101103  2  0  0  0  0
102224  1  0  0  0  0
102225  1  0  0  0  0
103226  1  0  0  0  0
104105  2  0  0  0  0
104106  1  0  0  0  0
106227  1  0  0  0  0
107113  1  0  0  0  0
107228  1  6  0  0  0
107108  1  0  0  0  0
107106  1  0  0  0  0
108109  1  0  0  0  0
108229  1  0  0  0  0
108230  1  0  0  0  0
109110  1  0  0  0  0
109231  1  0  0  0  0
109232  1  0  0  0  0
110111  1  0  0  0  0
110112  2  0  0  0  0
111233  1  0  0  0  0
111234  1  0  0  0  0
113114  2  0  0  0  0
113115  1  0  0  0  0
115235  1  0  0  0  0
116124  1  0  0  0  0
116236  1  6  0  0  0
116117  1  0  0  0  0
116115  1  0  0  0  0
117118  1  0  0  0  0
117237  1  0  0  0  0
117238  1  0  0  0  0
118119  1  0  0  0  0
118239  1  0  0  0  0
118240  1  0  0  0  0
119120  1  0  0  0  0
119241  1  0  0  0  0
119242  1  0  0  0  0
120121  1  0  0  0  0
120243  1  0  0  0  0
121122  1  0  0  0  0
121123  2  0  0  0  0
122244  1  0  0  0  0
122245  1  0  0  0  0
123246  1  0  0  0  0
124125  2  0  0  0  0
124126  1  0  0  0  0
126247  1  0  0  0  0
127135  1  0  0  0  0
127248  1  6  0  0  0
127128  1  0  0  0  0
127126  1  0  0  0  0
128129  1  0  0  0  0
128249  1  0  0  0  0
128250  1  0  0  0  0
129130  1  0  0  0  0
129251  1  0  0  0  0
129252  1  0  0  0  0
130131  1  0  0  0  0
130253  1  0  0  0  0
130254  1  0  0  0  0
131132  1  0  0  0  0
131255  1  0  0  0  0
132133  1  0  0  0  0
132134  2  0  0  0  0
133256  1  0  0  0  0
133257  1  0  0  0  0
134258  1  0  0  0  0
135136  1  0  0  0  0
135137  2  0  0  0  0
136259  1  0  0  0  0
M  END
>  <DRUGBANK_ID>
DB17277

>  <COMMON_NAME>
CBP-501

>  <CAS_NUMBER>
565434-85-7

>  <UNII>
XH2662798I

>  <SYNONYMS>
D-arginine, 4-benzoyl-d-phenylalanyl-d-seryl-d-tryptophyl-d-seryl-2,3,4,5,6-pentafluoro-d-phenylalanyl-3-cyclohexyl-d-alanyl-d-arginyl-d-arginyl-d-arginyl-d-glutaminyl-d-arginyl-

$$$$
