
 OpenBabel10282417133D

 33 33  0  0  0  0  0  0  0  0999 V2000
    1.3543    0.1640   -0.4889 C   0  0  1  0  0  0  0  0  0  0  0  0
   -0.5248   -1.1846   -0.3517 N   0  0  0  0  0  0  0  0  0  0  0  0
    0.1569    0.9529   -0.3355 N   0  0  0  0  0  0  0  0  0  0  0  0
    2.6295    0.6998    0.1479 C   0  0  0  0  0  0  0  0  0  0  0  0
   -0.9685    0.1419   -0.4345 C   0  0  0  0  0  0  0  0  0  0  0  0
   -2.1293    0.5101   -0.3893 O   0  0  0  0  0  0  0  0  0  0  0  0
    0.8933   -1.2286   -0.0252 C   0  0  2  0  0  0  0  0  0  0  0  0
    1.2395   -1.4872    1.4617 C   0  0  0  0  0  0  0  0  0  0  0  0
    0.7314   -0.4221    2.4537 C   0  0  0  0  0  0  0  0  0  0  0  0
   -0.7818   -0.3640    2.5393 C   0  0  0  0  0  0  0  0  0  0  0  0
   -1.3938   -1.6652    2.9920 C   0  0  0  0  0  0  0  0  0  0  0  0
   -0.9569   -1.9488    4.4131 C   0  0  0  0  0  0  0  0  0  0  0  0
   -1.4296   -0.8689    5.3539 C   0  0  0  0  0  0  0  0  0  0  0  0
   -2.3135   -1.0002    6.1937 O   0  0  0  0  0  0  0  0  0  0  0  0
   -0.8290    0.3243    5.1830 O   0  0  0  0  0  0  0  0  0  0  0  0
    1.5099    0.1322   -1.5720 H   0  0  0  0  0  0  0  0  0  0  0  0
   -1.2024   -1.8978   -0.1058 H   0  0  0  0  0  0  0  0  0  0  0  0
    0.0704    1.9322   -0.0952 H   0  0  0  0  0  0  0  0  0  0  0  0
    3.4619    0.0403   -0.1153 H   0  0  0  0  0  0  0  0  0  0  0  0
    2.8390    1.7148   -0.1900 H   0  0  0  0  0  0  0  0  0  0  0  0
    2.6408    0.7510    1.2372 H   0  0  0  0  0  0  0  0  0  0  0  0
    1.3333   -2.0277   -0.6289 H   0  0  0  0  0  0  0  0  0  0  0  0
    0.9032   -2.4854    1.7649 H   0  0  0  0  0  0  0  0  0  0  0  0
    2.3337   -1.5464    1.5542 H   0  0  0  0  0  0  0  0  0  0  0  0
    1.1932   -0.6001    3.4326 H   0  0  0  0  0  0  0  0  0  0  0  0
    1.0504    0.5901    2.2089 H   0  0  0  0  0  0  0  0  0  0  0  0
   -1.1008    0.5188    3.0909 H   0  0  0  0  0  0  0  0  0  0  0  0
   -1.2508   -0.1410    1.6142 H   0  0  0  0  0  0  0  0  0  0  0  0
   -2.4821   -1.5998    2.8923 H   0  0  0  0  0  0  0  0  0  0  0  0
   -1.0967   -2.4838    2.3222 H   0  0  0  0  0  0  0  0  0  0  0  0
   -1.3732   -2.9103    4.7185 H   0  0  0  0  0  0  0  0  0  0  0  0
    0.1305   -2.0511    4.4905 H   0  0  0  0  0  0  0  0  0  0  0  0
   -1.3874    0.9948    5.6288 H   0  0  0  0  0  0  0  0  0  0  0  0
  1  3  1  0  0  0  0
  1  4  1  0  0  0  0
  1 16  1  6  0  0  0
  2  5  1  0  0  0  0
  2 17  1  0  0  0  0
  3  5  1  0  0  0  0
  3 18  1  0  0  0  0
  4 19  1  0  0  0  0
  4 20  1  0  0  0  0
  4 21  1  0  0  0  0
  5  6  2  0  0  0  0
  7  1  1  0  0  0  0
  7  2  1  0  0  0  0
  7 22  1  6  0  0  0
  7  8  1  0  0  0  0
  8  9  1  0  0  0  0
  8 23  1  0  0  0  0
  8 24  1  0  0  0  0
  9 10  1  0  0  0  0
  9 25  1  0  0  0  0
  9 26  1  0  0  0  0
 10 11  1  0  0  0  0
 10 27  1  0  0  0  0
 10 28  1  0  0  0  0
 11 12  1  0  0  0  0
 11 29  1  0  0  0  0
 11 30  1  0  0  0  0
 12 13  1  0  0  0  0
 12 31  1  0  0  0  0
 12 32  1  0  0  0  0
 13 14  2  0  0  0  0
 13 15  1  0  0  0  0
 15 33  1  0  0  0  0
M  END
>  <DRUGBANK_ID>
DB03775

>  <SECONDARY_ACCESSION_NUMBERS>
EXPT01280

>  <COMMON_NAME>
Dethiobiotin

>  <CAS_NUMBER>
533-48-2

>  <UNII>
71U5JB52KS

>  <SYNONYMS>
(+)-dethiobiotin; (4R-cis)-5-methyl-2-oxo-4-imidazolidinehexanoic acid; (4R,5S)-5-methyl-2-oxo-4-imidazolidinehexanoic acid; (4R,5S)-dethiobiotin; d-Dethiobiotin

$$$$
