
 OpenBabel10282417103D

 23 25  0  0  0  0  0  0  0  0999 V2000
    1.4308   -0.6270   -0.1758 C   0  0  0  0  0  0  0  0  0  0  0  0
    1.4525    0.7162   -0.0209 N   0  0  0  0  0  0  0  0  0  0  0  0
   -0.9295    0.7509   -0.1659 C   0  0  0  0  0  0  0  0  0  0  0  0
    0.3789   -1.3604   -0.2958 N   0  0  0  0  0  0  0  0  0  0  0  0
   -0.8535   -0.6637   -0.1510 C   0  0  0  0  0  0  0  0  0  0  0  0
    0.3395    1.5351   -0.3834 C   0  0  0  0  0  0  0  0  0  0  0  0
   -2.1706    1.3972   -0.0057 C   0  0  0  0  0  0  0  0  0  0  0  0
   -3.3281    0.6411    0.2150 C   0  0  0  0  0  0  0  0  0  0  0  0
   -2.0234   -1.3978    0.0713 C   0  0  0  0  0  0  0  0  0  0  0  0
   -3.2519   -0.7521    0.2570 C   0  0  0  0  0  0  0  0  0  0  0  0
   -2.2532    3.1313   -0.0820 Cl  0  0  0  0  0  0  0  0  0  0  0  0
   -4.8795    1.3702    0.4500 Cl  0  0  0  0  0  0  0  0  0  0  0  0
    2.7665    1.1992    0.3228 C   0  0  0  0  0  0  0  0  0  0  0  0
    2.6936   -1.1017   -0.1291 N   0  0  0  0  0  0  0  0  0  0  0  0
    3.5387   -0.1252    0.3423 C   0  0  0  0  0  0  0  0  0  0  0  0
    4.6752   -0.2907    0.7650 O   0  0  0  0  0  0  0  0  0  0  0  0
    0.3989    1.8206   -1.4408 H   0  0  0  0  0  0  0  0  0  0  0  0
    0.3590    2.4377    0.2319 H   0  0  0  0  0  0  0  0  0  0  0  0
   -1.9784   -2.4837    0.1176 H   0  0  0  0  0  0  0  0  0  0  0  0
   -4.1486   -1.3417    0.4350 H   0  0  0  0  0  0  0  0  0  0  0  0
    2.7563    1.6541    1.3167 H   0  0  0  0  0  0  0  0  0  0  0  0
    3.1888    1.8666   -0.4313 H   0  0  0  0  0  0  0  0  0  0  0  0
    2.9443   -2.0739   -0.1872 H   0  0  0  0  0  0  0  0  0  0  0  0
  1 14  1  0  0  0  0
  2  1  1  0  0  0  0
  3  5  1  0  0  0  0
  4  1  2  0  0  0  0
  5  4  1  0  0  0  0
  6  2  1  0  0  0  0
  6  3  1  0  0  0  0
  6 17  1  0  0  0  0
  6 18  1  0  0  0  0
  7  3  2  0  0  0  0
  8 10  2  0  0  0  0
  8  7  1  0  0  0  0
  9  5  2  0  0  0  0
  9 19  1  0  0  0  0
 10  9  1  0  0  0  0
 10 20  1  0  0  0  0
 11  7  1  0  0  0  0
 12  8  1  0  0  0  0
 13  2  1  0  0  0  0
 13 15  1  0  0  0  0
 13 21  1  0  0  0  0
 13 22  1  0  0  0  0
 14 15  1  0  0  0  0
 14 23  1  0  0  0  0
 15 16  2  0  0  0  0
M  END
>  <DRUGBANK_ID>
DB00261

>  <SECONDARY_ACCESSION_NUMBERS>
APRD00798

>  <COMMON_NAME>
Anagrelide

>  <CAS_NUMBER>
68475-42-3

>  <UNII>
K9X45X0051

>  <SYNONYMS>
Anagrelida; Anagrelide; Anagrelidum

$$$$
