LNQ
 OpenBabel10282417133D

 45 45  0  0  0  0  0  0  0  0999 V2000
    0.7427   -0.3690    0.1638 C   0  0  0  0  0  0  0  0  0  0  0  0
    0.1666    0.7801    1.0413 C   0  0  0  0  0  0  0  0  0  0  0  0
    0.1850    2.3187    0.6596 C   0  0  0  0  0  0  0  0  0  0  0  0
   -0.0155    2.6938   -0.6817 O   0  0  0  0  0  0  0  0  0  0  0  0
    0.7454    1.9132   -1.6304 C   0  0  0  0  0  0  0  0  0  0  0  0
    2.2498    1.4097   -1.4117 C   0  0  0  0  0  0  0  0  0  0  0  0
    2.7352    1.2391   -0.0712 O   0  0  0  0  0  0  0  0  0  0  0  0
    2.8695    2.2360    0.9807 C   0  0  0  0  0  0  0  0  0  0  0  0
    2.9428    3.8496    0.7427 C   0  0  0  0  0  0  0  0  0  0  0  0
    2.6163    4.5748   -0.4602 O   0  0  0  0  0  0  0  0  0  0  0  0
    3.1122    4.0008   -1.6417 C   0  0  0  0  0  0  0  0  0  0  0  0
    4.6075    3.4737   -1.6568 C   0  0  0  0  0  0  0  0  0  0  0  0
    5.3494    2.7452   -0.4644 C   0  0  0  0  0  0  0  0  0  0  0  0
    5.0331    1.3379   -0.4113 N   0  0  0  0  0  0  0  0  0  0  0  0
    5.7125    0.2861   -0.0896 C   0  0  0  0  0  0  0  0  0  0  0  0
    6.8196    0.0578    0.8113 C   0  0  0  0  0  0  0  0  0  0  0  0
    6.8223   -1.3354    0.3198 C   0  0  0  0  0  0  0  0  0  0  0  0
    5.5924   -1.0317   -0.4365 C   0  0  0  0  0  0  0  0  0  0  0  0
    7.4518    0.7087    1.6380 O   0  0  0  0  0  0  0  0  0  0  0  0
    7.6078   -2.2650    0.4512 O   0  0  0  0  0  0  0  0  0  0  0  0
    4.8069   -1.7480   -1.2185 N   0  0  0  0  0  0  0  0  0  0  0  0
    0.4412   -0.3456   -0.8724 H   0  0  0  0  0  0  0  0  0  0  0  0
    0.4063   -1.3491    0.4740 H   0  0  0  0  0  0  0  0  0  0  0  0
    1.8288   -0.4956    0.1883 H   0  0  0  0  0  0  0  0  0  0  0  0
   -0.8933    0.5734    1.1564 H   0  0  0  0  0  0  0  0  0  0  0  0
    0.6131    0.6235    2.0393 H   0  0  0  0  0  0  0  0  0  0  0  0
   -0.0799    2.9607    1.5367 H   0  0  0  0  0  0  0  0  0  0  0  0
    1.0881    2.8415    0.6319 H   0  0  0  0  0  0  0  0  0  0  0  0
    0.0989    1.0703   -1.7684 H   0  0  0  0  0  0  0  0  0  0  0  0
    0.6632    2.4059   -2.6025 H   0  0  0  0  0  0  0  0  0  0  0  0
    2.5201    0.6388   -2.1687 H   0  0  0  0  0  0  0  0  0  0  0  0
    3.0757    1.9456   -1.8250 H   0  0  0  0  0  0  0  0  0  0  0  0
    2.0443    1.9168    1.5890 H   0  0  0  0  0  0  0  0  0  0  0  0
    3.4675    1.9295    1.8605 H   0  0  0  0  0  0  0  0  0  0  0  0
    2.3778    4.3190    1.5525 H   0  0  0  0  0  0  0  0  0  0  0  0
    3.9257    4.2279    0.9536 H   0  0  0  0  0  0  0  0  0  0  0  0
    2.3019    3.3392   -1.6469 H   0  0  0  0  0  0  0  0  0  0  0  0
    2.7681    4.2891   -2.6651 H   0  0  0  0  0  0  0  0  0  0  0  0
    4.7619    2.8261   -2.5390 H   0  0  0  0  0  0  0  0  0  0  0  0
    5.1666    4.3858   -1.8558 H   0  0  0  0  0  0  0  0  0  0  0  0
    6.4216    2.8167   -0.6030 H   0  0  0  0  0  0  0  0  0  0  0  0
    5.2322    3.2245    0.4978 H   0  0  0  0  0  0  0  0  0  0  0  0
    4.0531    1.1075   -0.3043 H   0  0  0  0  0  0  0  0  0  0  0  0
    3.9850   -1.3704   -1.6924 H   0  0  0  0  0  0  0  0  0  0  0  0
    5.0181   -2.6983   -1.5164 H   0  0  0  0  0  0  0  0  0  0  0  0
  1  2  1  0  0  0  0
  1 22  1  0  0  0  0
  1 23  1  0  0  0  0
  1 24  1  0  0  0  0
  2  3  1  0  0  0  0
  2 25  1  0  0  0  0
  2 26  1  0  0  0  0
  3  4  1  0  0  0  0
  3 27  1  0  0  0  0
  3 28  1  0  0  0  0
  4  5  1  0  0  0  0
  5  6  1  0  0  0  0
  5 29  1  0  0  0  0
  5 30  1  0  0  0  0
  6  7  1  0  0  0  0
  6 31  1  0  0  0  0
  6 32  1  0  0  0  0
  7  8  1  0  0  0  0
  8  9  1  0  0  0  0
  8 33  1  0  0  0  0
  8 34  1  0  0  0  0
  9 10  1  0  0  0  0
  9 35  1  0  0  0  0
  9 36  1  0  0  0  0
 10 11  1  0  0  0  0
 11 12  1  0  0  0  0
 11 37  1  0  0  0  0
 11 38  1  0  0  0  0
 12 13  1  0  0  0  0
 12 39  1  0  0  0  0
 12 40  1  0  0  0  0
 13 14  1  0  0  0  0
 13 41  1  0  0  0  0
 13 42  1  0  0  0  0
 14 15  1  0  0  0  0
 14 43  1  0  0  0  0
 15 16  1  0  0  0  0
 15 18  2  0  0  0  0
 16 17  1  0  0  0  0
 16 19  2  0  0  0  0
 17 18  1  0  0  0  0
 17 20  2  0  0  0  0
 18 21  1  0  0  0  0
 21 44  1  0  0  0  0
 21 45  1  0  0  0  0
M  END
>  <DRUGBANK_ID>
DB03077

>  <SECONDARY_ACCESSION_NUMBERS>
EXPT02049

>  <COMMON_NAME>
3-Amino-4-{3-[2-(2-Propoxy-Ethoxy)-Ethoxy]-Propylamino}-Cyclobut-3-Ene-1,2-Dione

$$$$
