TYP
 OpenBabel10282417143D

 35 37  0  0  0  0  0  0  0  0999 V2000
    0.7045    1.8535   -0.0207 N   0  0  0  0  0  0  0  0  0  0  0  0
   -0.6255    1.8683    0.6039 C   0  0  2  0  0  0  0  0  0  0  0  0
   -1.4064    0.6646    0.0144 C   0  0  0  0  0  0  0  0  0  0  0  0
   -2.5509    0.6902   -0.4248 O   0  0  0  0  0  0  0  0  0  0  0  0
   -1.3415    3.1980    0.4039 C   0  0  0  0  0  0  0  0  0  0  0  0
   -2.7013    3.2199    1.0589 C   0  0  0  0  0  0  0  0  0  0  0  0
   -2.8547    3.0071    2.4374 C   0  0  0  0  0  0  0  0  0  0  0  0
   -4.1294    2.9572    3.0068 C   0  0  0  0  0  0  0  0  0  0  0  0
   -5.1116    3.3209    0.8276 C   0  0  0  0  0  0  0  0  0  0  0  0
   -3.8422    3.3704    0.2598 C   0  0  0  0  0  0  0  0  0  0  0  0
   -5.2472    3.1276    2.1953 C   0  0  0  0  0  0  0  0  0  0  0  0
   -6.5136    3.1124    2.7000 O   0  0  0  0  0  0  0  0  0  0  0  0
   -0.6716   -0.4983    0.0847 N   0  0  0  0  0  0  0  0  0  0  0  0
    0.7047   -0.5124    0.5662 C   0  0  2  0  0  0  0  0  0  0  0  0
    1.4397    0.6803   -0.0687 C   0  0  0  0  0  0  0  0  0  0  0  0
    2.5942    0.6623   -0.4801 O   0  0  0  0  0  0  0  0  0  0  0  0
    1.2096   -1.8918    0.1807 C   0  0  0  0  0  0  0  0  0  0  0  0
   -0.0674   -2.7372    0.1422 C   0  0  0  0  0  0  0  0  0  0  0  0
   -1.1200   -1.7813   -0.3941 C   0  0  0  0  0  0  0  0  0  0  0  0
   -0.4803    1.6759    1.6759 H   0  0  0  0  0  0  0  0  0  0  0  0
    0.6964   -0.3805    1.6548 H   0  0  0  0  0  0  0  0  0  0  0  0
    1.1622    2.7025   -0.3293 H   0  0  0  0  0  0  0  0  0  0  0  0
   -0.7412    4.0173    0.8201 H   0  0  0  0  0  0  0  0  0  0  0  0
   -1.4290    3.4025   -0.6709 H   0  0  0  0  0  0  0  0  0  0  0  0
   -1.9866    2.8538    3.0743 H   0  0  0  0  0  0  0  0  0  0  0  0
   -4.2264    2.7763    4.0723 H   0  0  0  0  0  0  0  0  0  0  0  0
   -5.9909    3.4159    0.1988 H   0  0  0  0  0  0  0  0  0  0  0  0
   -3.7498    3.4737   -0.8194 H   0  0  0  0  0  0  0  0  0  0  0  0
   -6.4662    3.0066    3.6628 H   0  0  0  0  0  0  0  0  0  0  0  0
    1.6864   -1.8818   -0.8053 H   0  0  0  0  0  0  0  0  0  0  0  0
    1.9338   -2.2719    0.9070 H   0  0  0  0  0  0  0  0  0  0  0  0
   -0.3348   -3.0451    1.1608 H   0  0  0  0  0  0  0  0  0  0  0  0
    0.0352   -3.6338   -0.4731 H   0  0  0  0  0  0  0  0  0  0  0  0
   -2.1320   -1.9974   -0.0371 H   0  0  0  0  0  0  0  0  0  0  0  0
   -1.1280   -1.7515   -1.4885 H   0  0  0  0  0  0  0  0  0  0  0  0
  1  2  1  0  0  0  0
  1 15  1  0  0  0  0
  1 22  1  0  0  0  0
  2  3  1  0  0  0  0
  2  5  1  0  0  0  0
  2 20  1  1  0  0  0
  3  4  2  0  0  0  0
  3 13  1  0  0  0  0
  5  6  1  0  0  0  0
  5 23  1  0  0  0  0
  5 24  1  0  0  0  0
  6  7  2  0  0  0  0
  6 10  1  0  0  0  0
  7  8  1  0  0  0  0
  7 25  1  0  0  0  0
  8 11  2  0  0  0  0
  8 26  1  0  0  0  0
  9 10  2  0  0  0  0
  9 11  1  0  0  0  0
  9 27  1  0  0  0  0
 10 28  1  0  0  0  0
 11 12  1  0  0  0  0
 12 29  1  0  0  0  0
 13 14  1  0  0  0  0
 13 19  1  0  0  0  0
 14 15  1  0  0  0  0
 14 17  1  0  0  0  0
 14 21  1  1  0  0  0
 15 16  2  0  0  0  0
 17 18  1  0  0  0  0
 17 30  1  0  0  0  0
 17 31  1  0  0  0  0
 18 19  1  0  0  0  0
 18 32  1  0  0  0  0
 18 33  1  0  0  0  0
 19 34  1  0  0  0  0
 19 35  1  0  0  0  0
M  END
>  <DRUGBANK_ID>
DB04520

>  <SECONDARY_ACCESSION_NUMBERS>
EXPT03139

>  <COMMON_NAME>
(3s,8ar)-3-(4-Hydroxybenzyl)Hexahydropyrrolo[1,2-a]Pyrazine-1,4-Dione

$$$$
