
 OpenBabel10282417233D

 37 40  0  0  1  0  0  0  0  0999 V2000
    0.9536   -0.0811   -0.1173 H   0  0  0  0  0  0  0  0  0  0  0  0
    2.0533   -0.0927   -0.0621 C   0  0  1  0  0  0  0  0  0  0  0  0
    2.4973    0.4523    1.3194 C   0  0  0  0  0  0  0  0  0  0  0  0
    2.0979    1.8960    1.5268 C   0  0  0  0  0  0  0  0  0  0  0  0
    2.1356    2.7876    0.4294 C   0  0  0  0  0  0  0  0  0  0  0  0
    1.7725    4.1204    0.6875 C   0  0  0  0  0  0  0  0  0  0  0  0
    1.7159    5.0647   -0.3081 O   0  0  0  0  0  0  0  0  0  0  0  0
    1.4310    4.5527    1.9747 C   0  0  0  0  0  0  0  0  0  0  0  0
    1.1190    5.8779    2.1286 O   0  0  0  0  0  0  0  0  0  0  0  0
    1.4133    3.6706    3.0426 C   0  0  0  0  0  0  0  0  0  0  0  0
    1.7483    2.3390    2.8184 C   0  0  0  0  0  0  0  0  0  0  0  0
    2.5593    2.2622   -0.8959 C   0  0  0  0  0  0  0  0  0  0  0  0
    2.5479    0.8666   -1.1475 C   0  0  0  0  0  0  0  0  0  0  0  0
    2.9475    0.3746   -2.4072 C   0  0  0  0  0  0  0  0  0  0  0  0
    2.9886   -1.0985   -2.6863 C   0  0  0  0  0  0  0  0  0  0  0  0
    2.2996   -1.9518   -1.6238 C   0  0  0  0  0  0  0  0  0  0  0  0
    2.5393   -1.4904   -0.2462 N   0  0  0  0  0  0  0  0  0  0  0  0
    1.8743   -2.4219    0.6720 C   0  0  0  0  0  0  0  0  0  0  0  0
    3.3872    1.2561   -3.4016 C   0  0  0  0  0  0  0  0  0  0  0  0
    3.4227    2.6167   -3.1612 C   0  0  0  0  0  0  0  0  0  0  0  0
    3.0266    3.1065   -1.9195 C   0  0  0  0  0  0  0  0  0  0  0  0
    3.5879    0.3768    1.4295 H   0  0  0  0  0  0  0  0  0  0  0  0
    2.0472   -0.1403    2.1231 H   0  0  0  0  0  0  0  0  0  0  0  0
    1.5175    5.9071    0.1429 H   0  0  0  0  0  0  0  0  0  0  0  0
    0.9043    6.0301    3.0650 H   0  0  0  0  0  0  0  0  0  0  0  0
    1.1430    3.9932    4.0425 H   0  0  0  0  0  0  0  0  0  0  0  0
    1.7395    1.6395    3.6522 H   0  0  0  0  0  0  0  0  0  0  0  0
    4.0405   -1.3972   -2.7719 H   0  0  0  0  0  0  0  0  0  0  0  0
    2.5059   -1.2931   -3.6527 H   0  0  0  0  0  0  0  0  0  0  0  0
    2.6813   -2.9754   -1.7377 H   0  0  0  0  0  0  0  0  0  0  0  0
    1.2224   -1.9918   -1.8333 H   0  0  0  0  0  0  0  0  0  0  0  0
    0.7947   -2.4767    0.4892 H   0  0  0  0  0  0  0  0  0  0  0  0
    2.2960   -3.4269    0.5605 H   0  0  0  0  0  0  0  0  0  0  0  0
    2.0308   -2.1558    1.7201 H   0  0  0  0  0  0  0  0  0  0  0  0
    3.7236    0.8774   -4.3638 H   0  0  0  0  0  0  0  0  0  0  0  0
    3.7678    3.3088   -3.9232 H   0  0  0  0  0  0  0  0  0  0  0  0
    3.1120    4.1766   -1.7709 H   0  0  0  0  0  0  0  0  0  0  0  0
  2  1  1  6  0  0  0
  2  3  1  0  0  0  0
  2 13  1  0  0  0  0
  2 17  1  0  0  0  0
  3  4  1  0  0  0  0
  3 22  1  0  0  0  0
  3 23  1  0  0  0  0
  4  5  2  0  0  0  0
  4 11  1  0  0  0  0
  5  6  1  0  0  0  0
  5 12  1  0  0  0  0
  6  7  1  0  0  0  0
  6  8  2  0  0  0  0
  7 24  1  0  0  0  0
  8  9  1  0  0  0  0
  8 10  1  0  0  0  0
  9 25  1  0  0  0  0
 10 11  2  0  0  0  0
 10 26  1  0  0  0  0
 11 27  1  0  0  0  0
 12 13  2  0  0  0  0
 12 21  1  0  0  0  0
 13 14  1  0  0  0  0
 14 15  1  0  0  0  0
 14 19  2  0  0  0  0
 15 16  1  0  0  0  0
 15 28  1  0  0  0  0
 15 29  1  0  0  0  0
 16 17  1  0  0  0  0
 16 30  1  0  0  0  0
 16 31  1  0  0  0  0
 17 18  1  0  0  0  0
 18 32  1  0  0  0  0
 18 33  1  0  0  0  0
 18 34  1  0  0  0  0
 19 20  1  0  0  0  0
 19 35  1  0  0  0  0
 20 21  2  0  0  0  0
 20 36  1  0  0  0  0
 21 37  1  0  0  0  0
M  END
>  <DRUGBANK_ID>
DB16927

>  <COMMON_NAME>
S-Apomorphine

>  <CAS_NUMBER>
39478-62-1

>  <UNII>
LH812IV7LI

>  <SYNONYMS>
(+)-10,11-Dihydroxyaporphine; (6as)-5,6,6a,7-tetrahydro-6-methyl-4h-dibenzo(de,g)quinoline-10,11-diol; 4h-dibenzo(de,g)quinoline-10,11-diol, 5,6,6a,7-tetrahydro-6-methyl-, (6as)-; Apomorphine, s-; S-(+)-apomorphine; S-[+]-apomorphine

$$$$
