NS6
 OpenBabel10282417173D

 54 57  0  0  0  0  0  0  0  0999 V2000
    1.1648    0.0342    0.4233 C   0  0  0  0  0  0  0  0  0  0  0  0
    0.4192    1.2963    0.0458 C   0  0  0  0  0  0  0  0  0  0  0  0
   -1.0399    0.9208    0.2582 C   0  0  0  0  0  0  0  0  0  0  0  0
   -1.1712   -0.6044    0.1796 C   0  0  0  0  0  0  0  0  0  0  0  0
    0.2383   -1.1149   -0.0240 C   0  0  0  0  0  0  0  0  0  0  0  0
    0.4291   -1.4416   -1.4868 C   0  0  1  0  0  0  0  0  0  0  0  0
    0.1644   -0.2539   -2.4387 C   0  0  0  0  0  0  0  0  0  0  0  0
    1.8208   -1.7646   -1.5606 N   0  0  0  0  0  0  0  0  0  0  0  0
    2.2308   -2.3823   -2.9874 S   0  0  0  0  0  0  0  0  0  0  0  0
    1.7373   -3.7232   -2.8880 O   0  0  0  0  0  0  0  0  0  0  0  0
    3.6380   -1.9858   -3.0195 O   0  0  0  0  0  0  0  0  0  0  0  0
    1.2895   -1.4347   -4.2071 C   0  0  0  0  0  0  0  0  0  0  0  0
    1.1629   -1.7836   -5.5312 C   0  0  0  0  0  0  0  0  0  0  0  0
    0.4643   -0.4181   -3.8705 C   0  0  0  0  0  0  0  0  0  0  0  0
   -0.0672    0.4420   -4.8694 C   0  0  0  0  0  0  0  0  0  0  0  0
    0.2389    0.2678   -6.2331 C   0  0  0  0  0  0  0  0  0  0  0  0
    0.8950   -0.8946   -6.5930 C   0  0  0  0  0  0  0  0  0  0  0  0
    1.4345   -1.1689   -8.3762 S   0  0  0  0  0  0  0  0  0  0  0  0
    0.3533   -1.8678   -9.0293 O   0  0  0  0  0  0  0  0  0  0  0  0
    1.8285    0.1585   -8.8300 O   0  0  0  0  0  0  0  0  0  0  0  0
    2.9190   -2.1177   -8.5250 N   0  0  0  0  0  0  0  0  0  0  0  0
    2.9675   -3.6557   -8.4981 C   0  0  0  0  0  0  0  0  0  0  0  0
    2.7586   -4.2572   -7.1243 C   0  0  0  0  0  0  0  0  0  0  0  0
    3.8195   -3.7294   -6.2220 N   0  0  0  0  0  0  0  0  0  0  0  0
    3.4733   -4.2277   -4.9068 C   0  0  0  0  0  0  0  0  0  0  0  0
    3.8879   -2.2450   -6.3237 C   0  0  0  0  0  0  0  0  0  0  0  0
    4.0421   -1.5541   -7.6746 C   0  0  0  0  0  0  0  0  0  0  0  0
   -0.1710   -2.3239   -1.7692 H   0  0  0  0  0  0  0  0  0  0  0  0
    1.3149   -0.0287    1.5013 H   0  0  0  0  0  0  0  0  0  0  0  0
    2.1703    0.0453   -0.0067 H   0  0  0  0  0  0  0  0  0  0  0  0
    0.7742    2.1535    0.6121 H   0  0  0  0  0  0  0  0  0  0  0  0
    0.5631    1.6388   -0.9792 H   0  0  0  0  0  0  0  0  0  0  0  0
   -1.6814    1.4031   -0.4856 H   0  0  0  0  0  0  0  0  0  0  0  0
   -1.3296    1.2499    1.2532 H   0  0  0  0  0  0  0  0  0  0  0  0
   -1.8430   -0.9268   -0.6297 H   0  0  0  0  0  0  0  0  0  0  0  0
   -1.5901   -1.0166    1.0995 H   0  0  0  0  0  0  0  0  0  0  0  0
    0.4313   -2.0279    0.5607 H   0  0  0  0  0  0  0  0  0  0  0  0
   -0.8715    0.0684   -2.3595 H   0  0  0  0  0  0  0  0  0  0  0  0
    0.9069    0.5015   -2.2267 H   0  0  0  0  0  0  0  0  0  0  0  0
    2.5649   -1.1448   -1.2578 H   0  0  0  0  0  0  0  0  0  0  0  0
    1.3772   -2.7981   -5.7172 H   0  0  0  0  0  0  0  0  0  0  0  0
   -0.7355    1.2468   -4.5704 H   0  0  0  0  0  0  0  0  0  0  0  0
   -0.1275    0.9640   -6.9847 H   0  0  0  0  0  0  0  0  0  0  0  0
    3.9940   -3.9583   -8.7564 H   0  0  0  0  0  0  0  0  0  0  0  0
    2.3058   -4.1340   -9.2198 H   0  0  0  0  0  0  0  0  0  0  0  0
    2.8174   -5.3502   -7.0849 H   0  0  0  0  0  0  0  0  0  0  0  0
    1.7148   -4.0706   -6.8434 H   0  0  0  0  0  0  0  0  0  0  0  0
    4.0802   -3.7393   -4.1555 H   0  0  0  0  0  0  0  0  0  0  0  0
    2.4018   -4.1041   -4.7758 H   0  0  0  0  0  0  0  0  0  0  0  0
    3.5915   -5.2942   -4.7286 H   0  0  0  0  0  0  0  0  0  0  0  0
    2.8724   -2.0612   -6.3491 H   0  0  0  0  0  0  0  0  0  0  0  0
    4.1288   -1.6253   -5.4521 H   0  0  0  0  0  0  0  0  0  0  0  0
    5.0435   -1.6677   -8.0832 H   0  0  0  0  0  0  0  0  0  0  0  0
    3.8588   -0.4745   -7.5531 H   0  0  0  0  0  0  0  0  0  0  0  0
  1  5  1  0  0  0  0
  1 29  1  0  0  0  0
  1 30  1  0  0  0  0
  2  1  1  0  0  0  0
  2 31  1  0  0  0  0
  2 32  1  0  0  0  0
  3  2  1  0  0  0  0
  3  4  1  0  0  0  0
  3 33  1  0  0  0  0
  3 34  1  0  0  0  0
  4  5  1  0  0  0  0
  4 35  1  0  0  0  0
  4 36  1  0  0  0  0
  5 37  1  0  0  0  0
  6  5  1  0  0  0  0
  6  7  1  0  0  0  0
  6 28  1  6  0  0  0
  7 14  1  0  0  0  0
  7 38  1  0  0  0  0
  7 39  1  0  0  0  0
  8  6  1  0  0  0  0
  8  9  1  0  0  0  0
  8 40  1  0  0  0  0
  9 12  1  0  0  0  0
  9 11  2  0  0  0  0
 10  9  2  0  0  0  0
 12 13  1  0  0  0  0
 13 17  2  0  0  0  0
 13 41  1  0  0  0  0
 14 12  2  0  0  0  0
 14 15  1  0  0  0  0
 15 16  2  0  0  0  0
 15 42  1  0  0  0  0
 16 17  1  0  0  0  0
 16 43  1  0  0  0  0
 17 18  1  0  0  0  0
 18 19  2  0  0  0  0
 18 20  2  0  0  0  0
 18 21  1  0  0  0  0
 21 22  1  0  0  0  0
 21 27  1  0  0  0  0
 22 23  1  0  0  0  0
 22 44  1  0  0  0  0
 22 45  1  0  0  0  0
 23 24  1  0  0  0  0
 23 46  1  0  0  0  0
 23 47  1  0  0  0  0
 24 25  1  0  0  0  0
 25 48  1  0  0  0  0
 25 49  1  0  0  0  0
 25 50  1  0  0  0  0
 26 24  1  0  0  0  0
 26 51  1  0  0  0  0
 26 52  1  0  0  0  0
 27 26  1  0  0  0  0
 27 53  1  0  0  0  0
 27 54  1  0  0  0  0
M  END
>  <DRUGBANK_ID>
DB08304

>  <COMMON_NAME>
(3R)-3-cyclopentyl-7-[(4-methylpiperazin-1-yl)sulfonyl]-3,4-dihydro-2H-1,2-benzothiazine 1,1-dioxide

$$$$
