
 OpenBabel10282417123D

 45 46  0  0  0  0  0  0  0  0999 V2000
   -1.2326   -1.4569    0.3353 O   0  0  0  0  0  0  0  0  0  0  0  0
    0.1541   -1.7752    0.0689 C   0  0  1  0  0  0  0  0  0  0  0  0
    1.0350   -0.5518    0.3613 C   0  0  2  0  0  0  0  0  0  0  0  0
    0.5808    0.6143   -0.5237 C   0  0  1  0  0  0  0  0  0  0  0  0
   -0.9147    0.8479   -0.3627 C   0  0  1  0  0  0  0  0  0  0  0  0
   -1.6953   -0.4737   -0.6061 C   0  0  2  0  0  0  0  0  0  0  0  0
   -3.1139   -0.3040   -0.4793 O   0  0  0  0  0  0  0  0  0  0  0  0
   -1.1744    1.3754    0.9569 O   0  0  0  0  0  0  0  0  0  0  0  0
    1.2848    1.8160   -0.1947 O   0  0  0  0  0  0  0  0  0  0  0  0
    2.4132   -0.8439    0.1681 O   0  0  0  0  0  0  0  0  0  0  0  0
    0.5551   -2.9656    0.9350 C   0  0  0  0  0  0  0  0  0  0  0  0
   -0.2349   -4.1008    0.5835 O   0  0  0  0  0  0  0  0  0  0  0  0
   -5.5852    2.0935   -1.8361 O   0  0  0  0  0  0  0  0  0  0  0  0
   -5.1321    0.9755   -1.0421 C   0  0  1  0  0  0  0  0  0  0  0  0
   -3.6366    0.7431   -1.3104 C   0  0  2  0  0  0  0  0  0  0  0  0
   -3.4167    0.4932   -2.8247 C   0  0  1  0  0  0  0  0  0  0  0  0
   -4.0282    1.6204   -3.6509 C   0  0  1  0  0  0  0  0  0  0  0  0
   -5.4880    1.8438   -3.2362 C   0  0  2  0  0  0  0  0  0  0  0  0
   -6.0204    2.9675   -3.9112 O   0  0  0  0  0  0  0  0  0  0  0  0
   -3.2290    2.8116   -3.4381 O   0  0  0  0  0  0  0  0  0  0  0  0
   -2.0181    0.4377   -3.1599 O   0  0  0  0  0  0  0  0  0  0  0  0
   -5.3722    1.3347    0.4315 C   0  0  0  0  0  0  0  0  0  0  0  0
   -6.7604    1.5768    0.6575 O   0  0  0  0  0  0  0  0  0  0  0  0
    0.2529   -2.0823   -0.9837 H   0  0  0  0  0  0  0  0  0  0  0  0
    0.9173   -0.2597    1.4129 H   0  0  0  0  0  0  0  0  0  0  0  0
    0.8073    0.3994   -1.5752 H   0  0  0  0  0  0  0  0  0  0  0  0
   -1.1953    1.6488   -1.0496 H   0  0  0  0  0  0  0  0  0  0  0  0
   -1.4962   -0.9115   -1.5845 H   0  0  0  0  0  0  0  0  0  0  0  0
   -1.2903    0.6117    1.5563 H   0  0  0  0  0  0  0  0  0  0  0  0
    0.9341    2.1126    0.6691 H   0  0  0  0  0  0  0  0  0  0  0  0
    2.5885   -0.9244   -0.7919 H   0  0  0  0  0  0  0  0  0  0  0  0
    1.6060   -3.2286    0.7840 H   0  0  0  0  0  0  0  0  0  0  0  0
    0.3846   -2.7518    1.9936 H   0  0  0  0  0  0  0  0  0  0  0  0
   -1.1650   -3.8214    0.6822 H   0  0  0  0  0  0  0  0  0  0  0  0
   -5.7351    0.0933   -1.2919 H   0  0  0  0  0  0  0  0  0  0  0  0
   -3.1524    1.6813   -1.0277 H   0  0  0  0  0  0  0  0  0  0  0  0
   -3.8530   -0.4757   -3.0951 H   0  0  0  0  0  0  0  0  0  0  0  0
   -3.9444    1.4027   -4.7213 H   0  0  0  0  0  0  0  0  0  0  0  0
   -6.0982    0.9710   -3.4949 H   0  0  0  0  0  0  0  0  0  0  0  0
   -5.3401    3.6639   -3.8546 H   0  0  0  0  0  0  0  0  0  0  0  0
   -3.4541    3.1828   -2.5625 H   0  0  0  0  0  0  0  0  0  0  0  0
   -1.7142    1.3641   -3.2573 H   0  0  0  0  0  0  0  0  0  0  0  0
   -5.0560    0.5280    1.0987 H   0  0  0  0  0  0  0  0  0  0  0  0
   -4.8347    2.2490    0.7065 H   0  0  0  0  0  0  0  0  0  0  0  0
   -7.0204    2.2723    0.0232 H   0  0  0  0  0  0  0  0  0  0  0  0
  1  2  1  0  0  0  0
  1  6  1  0  0  0  0
  2  3  1  0  0  0  0
  2 11  1  0  0  0  0
  2 24  1  6  0  0  0
  3  4  1  0  0  0  0
  3 10  1  0  0  0  0
  3 25  1  1  0  0  0
  4  5  1  0  0  0  0
  4  9  1  0  0  0  0
  4 26  1  6  0  0  0
  5  6  1  0  0  0  0
  5  8  1  0  0  0  0
  5 27  1  6  0  0  0
  6  7  1  0  0  0  0
  6 28  1  6  0  0  0
  8 29  1  0  0  0  0
  9 30  1  0  0  0  0
 10 31  1  0  0  0  0
 11 12  1  0  0  0  0
 11 32  1  0  0  0  0
 11 33  1  0  0  0  0
 12 34  1  0  0  0  0
 13 14  1  0  0  0  0
 13 18  1  0  0  0  0
 14 15  1  0  0  0  0
 14 22  1  0  0  0  0
 14 35  1  6  0  0  0
 15  7  1  0  0  0  0
 15 16  1  0  0  0  0
 15 36  1  1  0  0  0
 16 17  1  0  0  0  0
 16 21  1  0  0  0  0
 16 37  1  6  0  0  0
 17 18  1  0  0  0  0
 17 20  1  0  0  0  0
 17 38  1  6  0  0  0
 18 19  1  0  0  0  0
 18 39  1  6  0  0  0
 19 40  1  0  0  0  0
 20 41  1  0  0  0  0
 21 42  1  0  0  0  0
 22 23  1  0  0  0  0
 22 43  1  0  0  0  0
 22 44  1  0  0  0  0
 23 45  1  0  0  0  0
M  END
>  <DRUGBANK_ID>
DB01687

>  <SECONDARY_ACCESSION_NUMBERS>
EXPT02103

>  <COMMON_NAME>
beta-Mannobiose

>  <SYNONYMS>
4-O-β-D-mannopyranosyl-β-D-mannopyranose; β-mannobiose

$$$$
