
 OpenBabel10282417233D

 29 29  0  0  0  0  0  0  0  0999 V2000
    0.9446   -0.0176   -0.0607 C   0  0  0  0  0  0  0  0  0  0  0  0
    0.4588   -1.4601   -0.3905 C   0  0  3  0  0  0  0  0  0  0  0  0
    0.4584    0.4097    1.3279 C   0  0  0  0  0  0  0  0  0  0  0  0
    0.4492    1.0078   -1.0900 C   0  0  0  0  0  0  0  0  0  0  0  0
    2.3723    0.0557   -0.0939 O   0  0  0  0  0  0  0  0  0  0  0  0
    0.5439   -1.7587   -1.8949 C   0  0  0  0  0  0  0  0  0  0  0  0
    1.2189   -2.5521    0.4006 C   0  0  0  0  0  0  0  0  0  0  0  0
    0.0140   -3.1376   -2.2484 C   0  0  0  0  0  0  0  0  0  0  0  0
    0.9602   -3.9459   -0.0867 C   0  0  0  0  0  0  0  0  0  0  0  0
    0.4139   -4.2159   -1.2876 C   0  0  0  0  0  0  0  0  0  0  0  0
    0.1615   -5.6057   -1.7751 C   0  0  0  0  0  0  0  0  0  0  0  0
   -0.6045   -1.5285   -0.1133 H   0  0  0  0  0  0  0  0  0  0  0  0
    0.8209    1.4136    1.5742 H   0  0  0  0  0  0  0  0  0  0  0  0
   -0.6364    0.4170    1.3749 H   0  0  0  0  0  0  0  0  0  0  0  0
    0.8334   -0.2559    2.1113 H   0  0  0  0  0  0  0  0  0  0  0  0
    0.7909    2.0168   -0.8395 H   0  0  0  0  0  0  0  0  0  0  0  0
    0.8676    0.8116   -2.0844 H   0  0  0  0  0  0  0  0  0  0  0  0
   -0.6432    1.0073   -1.1590 H   0  0  0  0  0  0  0  0  0  0  0  0
    2.7304   -0.4606    0.6471 H   0  0  0  0  0  0  0  0  0  0  0  0
   -0.0627   -1.0486   -2.4668 H   0  0  0  0  0  0  0  0  0  0  0  0
    1.5810   -1.6513   -2.2355 H   0  0  0  0  0  0  0  0  0  0  0  0
    0.9468   -2.4916    1.4612 H   0  0  0  0  0  0  0  0  0  0  0  0
    2.3032   -2.4064    0.3416 H   0  0  0  0  0  0  0  0  0  0  0  0
    0.3643   -3.3811   -3.2583 H   0  0  0  0  0  0  0  0  0  0  0  0
   -1.0820   -3.1015   -2.2870 H   0  0  0  0  0  0  0  0  0  0  0  0
    1.2584   -4.7549    0.5742 H   0  0  0  0  0  0  0  0  0  0  0  0
   -0.9097   -5.7425   -1.9545 H   0  0  0  0  0  0  0  0  0  0  0  0
    0.6948   -5.7691   -2.7177 H   0  0  0  0  0  0  0  0  0  0  0  0
    0.4929   -6.3636   -1.0609 H   0  0  0  0  0  0  0  0  0  0  0  0
  1  2  1  0  0  0  0
  1  3  1  0  0  0  0
  1  4  1  0  0  0  0
  1  5  1  0  0  0  0
  2  6  1  0  0  0  0
  2  7  1  0  0  0  0
  2 12  1  0  0  0  0
  3 13  1  0  0  0  0
  3 14  1  0  0  0  0
  3 15  1  0  0  0  0
  4 16  1  0  0  0  0
  4 17  1  0  0  0  0
  4 18  1  0  0  0  0
  5 19  1  0  0  0  0
  6  8  1  0  0  0  0
  6 20  1  0  0  0  0
  6 21  1  0  0  0  0
  7  9  1  0  0  0  0
  7 22  1  0  0  0  0
  7 23  1  0  0  0  0
  8 10  1  0  0  0  0
  8 24  1  0  0  0  0
  8 25  1  0  0  0  0
  9 10  2  0  0  0  0
  9 26  1  0  0  0  0
 10 11  1  0  0  0  0
 11 27  1  0  0  0  0
 11 28  1  0  0  0  0
 11 29  1  0  0  0  0
M  END
>  <DRUGBANK_ID>
DB15956

>  <COMMON_NAME>
Terpineol

>  <CAS_NUMBER>
8000-41-7

>  <UNII>
21334LVV8W

$$$$
