
 OpenBabel10282417233D

 66 70  0  0  1  0  0  0  0  0999 V2000
   -2.9395   -3.4992   10.0968 C   0  0  0  0  0  0  0  0  0  0  0  0
   -2.2976   -3.2774    8.7671 C   0  0  0  0  0  0  0  0  0  0  0  0
   -2.3003   -4.0899    7.6380 C   0  0  0  0  0  0  0  0  0  0  0  0
   -1.5610   -3.4181    6.5896 C   0  0  0  0  0  0  0  0  0  0  0  0
   -1.0592   -2.1706    6.8902 C   0  0  0  0  0  0  0  0  0  0  0  0
   -1.4548   -1.7818    8.5061 S   0  0  0  0  0  0  0  0  0  0  0  0
   -0.3196   -1.2520    6.0123 C   0  0  0  0  0  0  0  0  0  0  0  0
    0.1496   -0.1676    6.3547 O   0  0  0  0  0  0  0  0  0  0  0  0
   -0.1129   -1.6310    4.5934 C   0  0  0  0  0  0  0  0  0  0  0  0
   -1.1562   -1.8566    3.7040 C   0  0  0  0  0  0  0  0  0  0  0  0
   -2.4778   -1.8614    4.1490 N   0  0  0  0  0  0  0  0  0  0  0  0
   -3.5755   -2.0382    3.2082 C   0  0  1  0  0  0  0  0  0  0  0  0
   -3.5711   -3.4675    2.6907 C   0  0  0  0  0  0  0  0  0  0  0  0
   -4.3782   -4.2109    3.7196 C   0  0  2  0  0  0  0  0  0  0  0  0
   -4.5219   -5.5132    3.2092 O   0  0  0  0  0  0  0  0  0  0  0  0
   -5.5872   -3.2809    3.8949 C   0  0  1  0  0  0  0  0  0  0  0  0
   -6.4748   -3.6104    5.0909 C   0  0  0  0  0  0  0  0  0  0  0  0
   -6.7117   -5.0026    5.2028 O   0  0  0  0  0  0  0  0  0  0  0  0
   -7.5188   -5.8168    4.0550 S   0  0  0  0  0  0  0  0  0  0  0  0
   -9.0571   -5.2075    4.0944 N   0  0  0  0  0  0  0  0  0  0  0  0
   -7.0444   -5.4857    2.7434 O   0  0  0  0  0  0  0  0  0  0  0  0
   -7.5969   -7.1969    4.4855 O   0  0  0  0  0  0  0  0  0  0  0  0
   -4.9179   -1.8976    3.9802 C   0  0  0  0  0  0  0  0  0  0  0  0
   -0.9057   -2.2325    2.4297 N   0  0  0  0  0  0  0  0  0  0  0  0
    0.3733   -2.3962    2.0569 C   0  0  0  0  0  0  0  0  0  0  0  0
    1.4405   -2.1699    2.8304 N   0  0  0  0  0  0  0  0  0  0  0  0
    1.1670   -1.7643    4.0903 C   0  0  0  0  0  0  0  0  0  0  0  0
   -3.0494   -5.3833    7.3067 C   0  0  2  0  0  0  0  0  0  0  0  0
   -4.4351   -5.4290    7.7625 N   0  0  0  0  0  0  0  0  0  0  0  0
   -4.6983   -6.4581    8.7599 C   0  0  0  0  0  0  0  0  0  0  0  0
   -4.3242   -7.8542    8.2680 C   0  0  0  0  0  0  0  0  0  0  0  0
   -2.9107   -7.8805    7.7361 C   0  0  0  0  0  0  0  0  0  0  0  0
   -2.2526   -6.6752    7.3787 C   0  0  0  0  0  0  0  0  0  0  0  0
   -0.9838   -6.7740    6.7840 C   0  0  0  0  0  0  0  0  0  0  0  0
   -0.3931   -8.0170    6.5552 C   0  0  0  0  0  0  0  0  0  0  0  0
    1.1379   -8.0899    5.7726 Cl  0  0  0  0  0  0  0  0  0  0  0  0
   -1.0455   -9.1916    6.9139 C   0  0  0  0  0  0  0  0  0  0  0  0
   -2.3053   -9.1255    7.5022 C   0  0  0  0  0  0  0  0  0  0  0  0
   -2.1997   -3.5094   10.9024 H   0  0  0  0  0  0  0  0  0  0  0  0
   -3.7038   -2.7449   10.3136 H   0  0  0  0  0  0  0  0  0  0  0  0
   -3.4358   -4.4631   10.1245 H   0  0  0  0  0  0  0  0  0  0  0  0
   -1.4687   -3.8511    5.6015 H   0  0  0  0  0  0  0  0  0  0  0  0
   -2.6792   -1.2929    4.9616 H   0  0  0  0  0  0  0  0  0  0  0  0
   -3.5217   -1.3108    2.3913 H   0  0  0  0  0  0  0  0  0  0  0  0
   -2.5960   -3.9489    2.5872 H   0  0  0  0  0  0  0  0  0  0  0  0
   -4.0568   -3.5281    1.7080 H   0  0  0  0  0  0  0  0  0  0  0  0
   -3.8498   -4.2826    4.6675 H   0  0  0  0  0  0  0  0  0  0  0  0
   -5.1286   -6.0227    3.7593 H   0  0  0  0  0  0  0  0  0  0  0  0
   -6.2249   -3.2813    3.0031 H   0  0  0  0  0  0  0  0  0  0  0  0
   -5.9940   -3.2803    6.0230 H   0  0  0  0  0  0  0  0  0  0  0  0
   -7.4337   -3.0797    5.0508 H   0  0  0  0  0  0  0  0  0  0  0  0
   -9.5035   -5.5480    3.2410 H   0  0  0  0  0  0  0  0  0  0  0  0
   -9.5347   -5.4895    4.9429 H   0  0  0  0  0  0  0  0  0  0  0  0
   -4.7587   -1.6012    5.0251 H   0  0  0  0  0  0  0  0  0  0  0  0
   -5.5543   -1.1293    3.5271 H   0  0  0  0  0  0  0  0  0  0  0  0
    0.5523   -2.7501    1.0452 H   0  0  0  0  0  0  0  0  0  0  0  0
    2.0429   -1.5684    4.7015 H   0  0  0  0  0  0  0  0  0  0  0  0
   -3.1604   -5.3016    6.2258 H   0  0  0  0  0  0  0  0  0  0  0  0
   -4.7723   -4.5135    8.0319 H   0  0  0  0  0  0  0  0  0  0  0  0
   -4.1484   -6.2640    9.6834 H   0  0  0  0  0  0  0  0  0  0  0  0
   -5.7624   -6.4428    9.0198 H   0  0  0  0  0  0  0  0  0  0  0  0
   -4.4077   -8.5573    9.1072 H   0  0  0  0  0  0  0  0  0  0  0  0
   -5.0229   -8.1850    7.4886 H   0  0  0  0  0  0  0  0  0  0  0  0
   -0.4778   -5.8874    6.4169 H   0  0  0  0  0  0  0  0  0  0  0  0
   -0.5890  -10.1581    6.7222 H   0  0  0  0  0  0  0  0  0  0  0  0
   -2.8313  -10.0472    7.7458 H   0  0  0  0  0  0  0  0  0  0  0  0
  1  2  1  0  0  0  0
  1 39  1  0  0  0  0
  1 40  1  0  0  0  0
  1 41  1  0  0  0  0
  2  3  2  0  0  0  0
  2  6  1  0  0  0  0
  3  4  1  0  0  0  0
  4  5  2  0  0  0  0
  4 42  1  0  0  0  0
  5  6  1  0  0  0  0
  5  7  1  0  0  0  0
  7  8  2  0  0  0  0
  7  9  1  0  0  0  0
  9 10  2  0  0  0  0
  9 27  1  0  0  0  0
 10 11  1  0  0  0  0
 10 24  1  0  0  0  0
 11 43  1  0  0  0  0
 12 13  1  0  0  0  0
 12 23  1  0  0  0  0
 12 44  1  6  0  0  0
 12 11  1  0  0  0  0
 13 45  1  0  0  0  0
 13 46  1  0  0  0  0
 14 13  1  0  0  0  0
 14 16  1  0  0  0  0
 14 47  1  1  0  0  0
 14 15  1  0  0  0  0
 15 48  1  0  0  0  0
 16 23  1  0  0  0  0
 16 49  1  6  0  0  0
 16 17  1  0  0  0  0
 17 18  1  0  0  0  0
 17 50  1  0  0  0  0
 17 51  1  0  0  0  0
 18 19  1  0  0  0  0
 19 20  1  0  0  0  0
 19 21  2  0  0  0  0
 19 22  2  0  0  0  0
 20 52  1  0  0  0  0
 20 53  1  0  0  0  0
 23 54  1  0  0  0  0
 23 55  1  0  0  0  0
 24 25  2  0  0  0  0
 25 26  1  0  0  0  0
 25 56  1  0  0  0  0
 26 27  2  0  0  0  0
 27 57  1  0  0  0  0
 28  3  1  0  0  0  0
 28 29  1  0  0  0  0
 28 33  1  0  0  0  0
 28 58  1  6  0  0  0
 29 30  1  0  0  0  0
 29 59  1  0  0  0  0
 30 31  1  0  0  0  0
 30 60  1  0  0  0  0
 30 61  1  0  0  0  0
 31 32  1  0  0  0  0
 31 62  1  0  0  0  0
 31 63  1  0  0  0  0
 32 33  2  0  0  0  0
 32 38  1  0  0  0  0
 33 34  1  0  0  0  0
 34 35  2  0  0  0  0
 34 64  1  0  0  0  0
 35 36  1  0  0  0  0
 35 37  1  0  0  0  0
 37 38  2  0  0  0  0
 37 65  1  0  0  0  0
 38 66  1  0  0  0  0
M  END
>  <DRUGBANK_ID>
DB16406

>  <COMMON_NAME>
Subasumstat

>  <CAS_NUMBER>
1858276-04-6

>  <UNII>
XQ43H3V6M1

>  <SYNONYMS>
Subasumstat

$$$$
