
 OpenBabel10282417133D

 15 14  0  0  1  0  0  0  0  0999 V2000
   -0.5510    2.2152   -0.7799 C   0  0  0  0  0  0  0  0  0  0  0  0
    0.3351    2.1922   -2.0042 C   0  0  0  0  0  0  0  0  0  0  0  0
    0.5433    3.2267   -2.6441 O   0  0  0  0  0  0  0  0  0  0  0  0
    0.9522    0.8603   -2.4391 C   0  0  2  0  0  0  0  0  0  0  0  0
    0.5939   -0.2462   -1.4997 N   0  0  0  0  0  0  0  0  0  0  0  0
    2.4725    0.9667   -2.5489 C   0  0  0  0  0  0  0  0  0  0  0  0
    2.9870    0.6731   -3.7664 O   0  0  0  0  0  0  0  0  0  0  0  0
    3.1992    1.1911   -1.5843 O   0  0  0  0  0  0  0  0  0  0  0  0
   -1.0233    3.1932   -0.6668 H   0  0  0  0  0  0  0  0  0  0  0  0
    0.0468    2.0141    0.1138 H   0  0  0  0  0  0  0  0  0  0  0  0
   -1.3407    1.4665   -0.8889 H   0  0  0  0  0  0  0  0  0  0  0  0
    0.5197    0.6113   -3.4144 H   0  0  0  0  0  0  0  0  0  0  0  0
    0.6649    0.0987   -0.5393 H   0  0  0  0  0  0  0  0  0  0  0  0
    1.3293   -0.9570   -1.5294 H   0  0  0  0  0  0  0  0  0  0  0  0
    2.3440    0.4960   -4.4803 H   0  0  0  0  0  0  0  0  0  0  0  0
  1  2  1  0  0  0  0
  1  9  1  0  0  0  0
  1 10  1  0  0  0  0
  1 11  1  0  0  0  0
  2  3  2  0  0  0  0
  4  6  1  0  0  0  0
  4 12  1  6  0  0  0
  4  5  1  0  0  0  0
  4  2  1  0  0  0  0
  5 13  1  0  0  0  0
  5 14  1  0  0  0  0
  6  7  1  0  0  0  0
  6  8  2  0  0  0  0
  7 15  1  0  0  0  0
M  END
>  <DRUGBANK_ID>
DB03915

>  <SECONDARY_ACCESSION_NUMBERS>
EXPT00482

>  <COMMON_NAME>
2-Amino-3-Ketobutyric Acid

$$$$
