
 OpenBabel10282417213D

 34 36  0  0  0  0  0  0  0  0999 V2000
   -0.3931    0.2771    0.0227 C   0  0  0  0  0  0  0  0  0  0  0  0
    0.0350   -1.0487    0.0456 C   0  0  0  0  0  0  0  0  0  0  0  0
    0.5649    1.3057    0.0039 C   0  0  0  0  0  0  0  0  0  0  0  0
   -1.8533    0.5186   -0.0039 C   0  0  0  0  0  0  0  0  0  0  0  0
   -0.8102   -2.1326    0.0673 O   0  0  0  0  0  0  0  0  0  0  0  0
    1.3933   -1.3388    0.0393 C   0  0  0  0  0  0  0  0  0  0  0  0
    1.9557    1.0269   -0.0178 C   0  0  0  0  0  0  0  0  0  0  0  0
    0.1452    2.6149   -0.0001 O   0  0  0  0  0  0  0  0  0  0  0  0
   -2.7141   -0.6730   -0.0645 C   0  0  0  0  0  0  0  0  0  0  0  0
   -2.3832    1.6240    0.0059 O   0  0  0  0  0  0  0  0  0  0  0  0
   -2.1639   -1.8923   -0.0326 C   0  0  0  0  0  0  0  0  0  0  0  0
    2.3488   -0.3197   -0.0013 C   0  0  0  0  0  0  0  0  0  0  0  0
    2.7374    2.1574   -0.0575 O   0  0  0  0  0  0  0  0  0  0  0  0
   -3.0174   -3.0874   -0.1011 C   0  0  0  0  0  0  0  0  0  0  0  0
    3.6107   -0.8385   -0.0226 O   0  0  0  0  0  0  0  0  0  0  0  0
    4.1478    2.0166   -0.1114 C   0  0  0  0  0  0  0  0  0  0  0  0
   -3.0375   -4.0271    0.9398 C   0  0  0  0  0  0  0  0  0  0  0  0
   -3.8627   -3.2784   -1.2038 C   0  0  0  0  0  0  0  0  0  0  0  0
   -3.9099   -5.1235    0.8915 C   0  0  0  0  0  0  0  0  0  0  0  0
   -4.7278   -4.3712   -1.2541 C   0  0  0  0  0  0  0  0  0  0  0  0
   -4.7531   -5.2803   -0.2051 C   0  0  0  0  0  0  0  0  0  0  0  0
   -5.6352   -6.3154   -0.3020 O   0  0  0  0  0  0  0  0  0  0  0  0
    1.7265   -2.3744    0.0535 H   0  0  0  0  0  0  0  0  0  0  0  0
    0.9323    3.1869   -0.0107 H   0  0  0  0  0  0  0  0  0  0  0  0
   -3.7803   -0.5008   -0.1323 H   0  0  0  0  0  0  0  0  0  0  0  0
    4.2972   -0.1706   -0.0745 H   0  0  0  0  0  0  0  0  0  0  0  0
    4.5178    1.5275    0.7967 H   0  0  0  0  0  0  0  0  0  0  0  0
    4.4476    1.4917   -1.0257 H   0  0  0  0  0  0  0  0  0  0  0  0
    4.6174    3.0030   -0.1490 H   0  0  0  0  0  0  0  0  0  0  0  0
   -2.3902   -3.8980    1.8050 H   0  0  0  0  0  0  0  0  0  0  0  0
   -3.8600   -2.5720   -2.0309 H   0  0  0  0  0  0  0  0  0  0  0  0
   -3.9199   -5.8309    1.7150 H   0  0  0  0  0  0  0  0  0  0  0  0
   -5.3855   -4.5074   -2.1075 H   0  0  0  0  0  0  0  0  0  0  0  0
   -5.5768   -6.8637    0.4967 H   0  0  0  0  0  0  0  0  0  0  0  0
  1  2  2  0  0  0  0
  1  3  1  0  0  0  0
  1  4  1  0  0  0  0
  2  5  1  0  0  0  0
  2  6  1  0  0  0  0
  3  7  2  0  0  0  0
  3  8  1  0  0  0  0
  4  9  1  0  0  0  0
  4 10  2  0  0  0  0
  5 11  1  0  0  0  0
  6 12  2  0  0  0  0
  6 23  1  0  0  0  0
  7 13  1  0  0  0  0
  7 12  1  0  0  0  0
  8 24  1  0  0  0  0
  9 11  2  0  0  0  0
  9 25  1  0  0  0  0
 11 14  1  0  0  0  0
 12 15  1  0  0  0  0
 13 16  1  0  0  0  0
 14 17  2  0  0  0  0
 14 18  1  0  0  0  0
 15 26  1  0  0  0  0
 16 27  1  0  0  0  0
 16 28  1  0  0  0  0
 16 29  1  0  0  0  0
 17 19  1  0  0  0  0
 17 30  1  0  0  0  0
 18 20  2  0  0  0  0
 18 31  1  0  0  0  0
 19 21  2  0  0  0  0
 19 32  1  0  0  0  0
 20 21  1  0  0  0  0
 20 33  1  0  0  0  0
 21 22  1  0  0  0  0
 22 34  1  0  0  0  0
M  END
>  <DRUGBANK_ID>
DB14008

>  <COMMON_NAME>
Hispidulin

>  <CAS_NUMBER>
1447-88-7

>  <UNII>
N7F61604C2

>  <SYNONYMS>
4',5,7-Trihydroxy-6-methoxyflavone; Dinatin; Salvitin; Scutellarein 6-methyl ether

$$$$
