791
 OpenBabel10282417113D

 26 26  0  0  0  0  0  0  0  0999 V2000
    1.2234    0.9804   -0.2649 Cl  0  0  0  0  0  0  0  0  0  0  0  0
    2.4287   -3.0901    5.2489 Cl  0  0  0  0  0  0  0  0  0  0  0  0
    0.7071   -1.9483    0.2615 O   0  0  0  0  0  0  0  0  0  0  0  0
   -2.6937   -1.9743    3.0181 O   0  0  0  0  0  0  0  0  0  0  0  0
    2.6410   -1.0002    2.3151 N   0  0  0  0  0  0  0  0  0  0  0  0
   -1.0141   -1.3514    1.6097 N   0  0  0  0  0  0  0  0  0  0  0  0
   -0.6437   -1.5204    3.8707 N   0  0  0  0  0  0  0  0  0  0  0  0
    3.1834    0.1183    1.4934 C   0  0  0  0  0  0  0  0  0  0  0  0
    3.6285   -1.9038    2.9885 C   0  0  0  0  0  0  0  0  0  0  0  0
    1.2590   -1.1771    2.4929 C   0  0  0  0  0  0  0  0  0  0  0  0
    2.7819    0.1393    0.0117 C   0  0  0  0  0  0  0  0  0  0  0  0
    3.6106   -1.9444    4.5330 C   0  0  0  0  0  0  0  0  0  0  0  0
    0.3212   -1.5237    1.3456 C   0  0  0  0  0  0  0  0  0  0  0  0
    0.6534   -1.1509    3.6862 C   0  0  0  0  0  0  0  0  0  0  0  0
   -1.5244   -1.6332    2.8396 C   0  0  0  0  0  0  0  0  0  0  0  0
   -1.6383   -1.5131    0.8372 H   0  0  0  0  0  0  0  0  0  0  0  0
   -0.9827   -1.7310    4.8017 H   0  0  0  0  0  0  0  0  0  0  0  0
    4.2803    0.0895    1.5173 H   0  0  0  0  0  0  0  0  0  0  0  0
    2.9066    1.0673    1.9686 H   0  0  0  0  0  0  0  0  0  0  0  0
    3.5176   -2.9168    2.5857 H   0  0  0  0  0  0  0  0  0  0  0  0
    4.6427   -1.5839    2.7173 H   0  0  0  0  0  0  0  0  0  0  0  0
    2.7828   -0.8622   -0.4317 H   0  0  0  0  0  0  0  0  0  0  0  0
    3.4924    0.7459   -0.5548 H   0  0  0  0  0  0  0  0  0  0  0  0
    4.5595   -2.3408    4.8979 H   0  0  0  0  0  0  0  0  0  0  0  0
    3.4731   -0.9471    4.9665 H   0  0  0  0  0  0  0  0  0  0  0  0
    1.1855   -0.8889    4.5879 H   0  0  0  0  0  0  0  0  0  0  0  0
  1 11  1  0  0  0  0
  2 12  1  0  0  0  0
  3 13  2  0  0  0  0
  4 15  2  0  0  0  0
  5  8  1  0  0  0  0
  5  9  1  0  0  0  0
  5 10  1  0  0  0  0
  6 13  1  0  0  0  0
  6 15  1  0  0  0  0
  6 16  1  0  0  0  0
  7 14  1  0  0  0  0
  7 15  1  0  0  0  0
  7 17  1  0  0  0  0
  8 11  1  0  0  0  0
  8 18  1  0  0  0  0
  8 19  1  0  0  0  0
  9 12  1  0  0  0  0
  9 20  1  0  0  0  0
  9 21  1  0  0  0  0
 10 13  1  0  0  0  0
 10 14  2  0  0  0  0
 11 22  1  0  0  0  0
 11 23  1  0  0  0  0
 12 24  1  0  0  0  0
 12 25  1  0  0  0  0
 14 26  1  0  0  0  0
M  END
>  <DRUGBANK_ID>
DB00791

>  <SECONDARY_ACCESSION_NUMBERS>
APRD00130

>  <COMMON_NAME>
Uracil mustard

>  <CAS_NUMBER>
66-75-1

>  <UNII>
W7KQ46GJ8U

>  <SYNONYMS>
5-(di-2-chloroethyl)aminouracil; 5-[bis(2-chloroethyl)amino]-2,4(1H,3H)-pyrimidinedione; 5-[bis(2-chloroethyl)amino]uracil; 5-[di(Î²-chloroethyl)amino]uracil; 5-aminouracil mustard; 5-N,N-bis(2-chloroethyl)aminouracil; Aminouracil mustard; Uracil mustard; Uracil nitrogen mustard; Uramustina; Uramustine; Uramustinum

$$$$
