
 OpenBabel10282417243D

 35 37  0  0  1  0  0  0  0  0999 V2000
    0.7504    0.1447   -0.2928 H   0  0  0  0  0  0  0  0  0  0  0  0
    1.8029    0.1207   -0.0133 C   0  0  2  0  0  0  0  0  0  0  0  0
    2.1946   -1.1183    0.7886 C   0  0  0  0  0  0  0  0  0  0  0  0
    2.8730   -1.5857   -0.5268 C   0  0  0  0  0  0  0  0  0  0  0  0
    3.5467   -2.5579   -0.8763 O   0  0  0  0  0  0  0  0  0  0  0  0
    2.7272   -0.3792   -1.0499 N   0  0  0  0  0  0  0  0  0  0  0  0
    3.6772    0.5568   -1.6823 C   0  0  1  0  0  0  0  0  0  0  0  0
    2.9372    1.2348   -2.8771 C   0  0  0  0  0  0  0  0  0  0  0  0
    3.5767    1.2316   -3.9588 O   0  5  0  0  0  0  0  0  0  0  0  0
    1.7850    1.6595   -2.5961 O   0  0  0  0  0  0  0  0  0  0  0  0
    4.0894    1.5747   -0.5831 C   0  0  2  0  0  0  0  0  0  0  0  0
    4.5440    2.9376   -1.1584 C   0  0  0  0  0  0  0  0  0  0  0  0
    5.2839    1.1504    0.3370 C   0  0  0  0  0  0  0  0  0  0  0  0
    5.2334   -0.0987    1.1377 N   0  0  0  0  0  0  0  0  0  0  0  0
    5.4531   -1.3736    0.6414 C   0  0  0  0  0  0  0  0  0  0  0  0
    4.9552   -2.1989    1.6091 C   0  0  0  0  0  0  0  0  0  0  0  0
    4.7454   -1.3719    2.7048 N   0  3  0  0  0  0  0  0  0  0  0  0
    4.1435   -1.7797    3.9766 C   0  0  0  0  0  0  0  0  0  0  0  0
    4.9763   -0.0776    2.4536 N   0  0  0  0  0  0  0  0  0  0  0  0
    2.5636    1.7253    0.4123 S   0  0  0  0  0  0  0  0  0  0  0  0
    2.9492    1.7242    1.8157 O   0  0  0  0  0  0  0  0  0  0  0  0
    1.7478    2.8302   -0.0440 O   0  0  0  0  0  0  0  0  0  0  0  0
    2.8065   -0.8147    1.6260 H   0  0  0  0  0  0  0  0  0  0  0  0
    1.4794   -1.8352    1.1856 H   0  0  0  0  0  0  0  0  0  0  0  0
    4.5520    0.0178   -2.0661 H   0  0  0  0  0  0  0  0  0  0  0  0
    4.7888    3.6434   -0.3544 H   0  0  0  0  0  0  0  0  0  0  0  0
    5.4550    2.8123   -1.7602 H   0  0  0  0  0  0  0  0  0  0  0  0
    3.7969    3.4283   -1.7860 H   0  0  0  0  0  0  0  0  0  0  0  0
    6.1698    1.0243   -0.3029 H   0  0  0  0  0  0  0  0  0  0  0  0
    5.5429    1.9606    1.0343 H   0  0  0  0  0  0  0  0  0  0  0  0
    5.6555   -1.4684   -0.4097 H   0  0  0  0  0  0  0  0  0  0  0  0
    4.5349   -3.1905    1.5971 H   0  0  0  0  0  0  0  0  0  0  0  0
    4.9200   -1.8096    4.7425 H   0  0  0  0  0  0  0  0  0  0  0  0
    3.3393   -1.0973    4.2687 H   0  0  0  0  0  0  0  0  0  0  0  0
    3.7111   -2.7831    3.8720 H   0  0  0  0  0  0  0  0  0  0  0  0
  2  1  1  6  0  0  0
  2  3  1  0  0  0  0
  2  6  1  0  0  0  0
  2 20  1  0  0  0  0
  3  4  1  0  0  0  0
  3 23  1  0  0  0  0
  3 24  1  0  0  0  0
  4  5  2  0  0  0  0
  4  6  1  0  0  0  0
  7  6  1  0  0  0  0
  7  8  1  0  0  0  0
  7 11  1  0  0  0  0
  7 25  1  6  0  0  0
  8  9  1  0  0  0  0
  8 10  2  0  0  0  0
 11 12  1  6  0  0  0
 11 13  1  0  0  0  0
 11 20  1  0  0  0  0
 12 26  1  0  0  0  0
 12 27  1  0  0  0  0
 12 28  1  0  0  0  0
 13 14  1  0  0  0  0
 13 29  1  0  0  0  0
 13 30  1  0  0  0  0
 14 15  1  0  0  0  0
 14 19  1  0  0  0  0
 15 16  2  0  0  0  0
 15 31  1  0  0  0  0
 16 17  1  0  0  0  0
 16 32  1  0  0  0  0
 17 18  1  0  0  0  0
 17 19  2  0  0  0  0
 18 33  1  0  0  0  0
 18 34  1  0  0  0  0
 18 35  1  0  0  0  0
 20 21  2  0  0  0  0
 20 22  2  0  0  0  0
M  CHG  2   9  -1  17   1
M  END
>  <DRUGBANK_ID>
DB18716

>  <COMMON_NAME>
Enmetazobactam

>  <CAS_NUMBER>
1001404-83-6

>  <UNII>
80VUN7L00C

>  <SYNONYMS>
(2s,3s,5r)-3-methyl-3-((3-methyltriazol-3-ium-1-yl)methyl)-4,4,7-trioxo-4^6-thia-1-azabicyclo(3.2.0)heptane-2-carboxylate; 1h-1,2,3-triazolium, 3-(((2s,3s,5r)-2-carboxy-3-methyl-4,4-dioxido-7-oxo-4-thia-1-azabicyclo(3.2.0)hept-3-yl)methyl)-1-methyl-, inner salt

$$$$
