
 OpenBabel10282417113D

 52 55  0  0  1  0  0  0  0  0999 V2000
   -1.2600   -0.7045    0.3190 N   0  3  2  0  0  0  0  0  0  0  0  0
    0.8999    0.4106   -1.1494 C   0  0  3  0  0  0  0  0  0  0  0  0
   -0.5040   -0.2046   -1.2303 C   0  0  0  0  0  0  0  0  0  0  0  0
    1.5164   -0.3800    0.0616 C   0  0  1  0  0  0  0  0  0  0  0  0
   -0.4908   -0.0038    1.7107 C   0  0  0  0  0  0  0  0  0  0  0  0
   -0.6355   -2.0641    0.0954 C   0  0  0  0  0  0  0  0  0  0  0  0
    1.0113    0.3086    1.4032 C   0  0  0  0  0  0  0  0  0  0  0  0
    0.9514   -1.8525   -0.0048 C   0  0  0  0  0  0  0  0  0  0  0  0
   -3.1036   -0.8957    0.6748 C   0  0  0  0  0  0  0  0  0  0  0  0
    1.3351    0.7177   -2.5495 O   0  0  0  0  0  0  0  0  0  0  0  0
    0.8927    1.8349   -3.3211 C   0  0  0  0  0  0  0  0  0  0  0  0
   -0.6677    2.3768   -3.5115 C   0  0  0  0  0  0  0  0  0  0  0  0
    1.7523    2.3832   -4.0914 O   0  0  0  0  0  0  0  0  0  0  0  0
   -0.7538    3.7817   -3.7694 O   0  0  0  0  0  0  0  0  0  0  0  0
   -1.3677    1.6085   -4.6688 C   0  0  0  0  0  0  0  0  0  0  0  0
   -1.4936    2.4152   -2.2395 C   0  0  0  0  0  0  0  0  0  0  0  0
   -0.6407    0.7928   -5.5299 C   0  0  0  0  0  0  0  0  0  0  0  0
   -1.2954    0.0142   -6.4836 C   0  0  0  0  0  0  0  0  0  0  0  0
   -2.6822   -0.1014   -6.4882 C   0  0  0  0  0  0  0  0  0  0  0  0
   -2.7767    1.6188   -4.8660 C   0  0  0  0  0  0  0  0  0  0  0  0
   -3.4267    0.6225   -5.5868 C   0  0  0  0  0  0  0  0  0  0  0  0
   -2.6641    1.6603   -2.2194 C   0  0  0  0  0  0  0  0  0  0  0  0
   -3.0033    1.0922   -1.0074 C   0  0  0  0  0  0  0  0  0  0  0  0
   -0.8515    2.9204   -1.1168 C   0  0  0  0  0  0  0  0  0  0  0  0
   -2.4718    1.6706    0.1114 C   0  0  0  0  0  0  0  0  0  0  0  0
   -1.3006    2.3686    0.0649 C   0  0  0  0  0  0  0  0  0  0  0  0
    1.0941    1.4140   -0.7940 H   0  0  0  0  0  0  0  0  0  0  0  0
   -0.9497    0.6345   -1.5558 H   0  0  0  0  0  0  0  0  0  0  0  0
   -0.7602   -0.8685   -2.0858 H   0  0  0  0  0  0  0  0  0  0  0  0
    2.6150   -0.3175    0.0332 H   0  0  0  0  0  0  0  0  0  0  0  0
   -0.9218    0.9687    1.9936 H   0  0  0  0  0  0  0  0  0  0  0  0
   -0.8260   -0.5625    2.5975 H   0  0  0  0  0  0  0  0  0  0  0  0
   -1.0200   -2.7648    0.8312 H   0  0  0  0  0  0  0  0  0  0  0  0
   -1.0410   -2.4049   -0.8776 H   0  0  0  0  0  0  0  0  0  0  0  0
    1.6312    0.1887    2.3090 H   0  0  0  0  0  0  0  0  0  0  0  0
    1.1715    1.4084    1.2941 H   0  0  0  0  0  0  0  0  0  0  0  0
    1.4367   -2.4886    0.7326 H   0  0  0  0  0  0  0  0  0  0  0  0
    1.2739   -2.2024   -0.9946 H   0  0  0  0  0  0  0  0  0  0  0  0
   -3.8947   -0.4200    0.0355 H   0  0  0  0  0  0  0  0  0  0  0  0
   -3.4223   -1.9285    0.6227 H   0  0  0  0  0  0  0  0  0  0  0  0
   -3.3835   -0.3256    1.5860 H   0  0  0  0  0  0  0  0  0  0  0  0
   -0.6253    4.2487   -2.9182 H   0  0  0  0  0  0  0  0  0  0  0  0
    0.4438    0.7839   -5.5282 H   0  0  0  0  0  0  0  0  0  0  0  0
   -0.7056   -0.5048   -7.2303 H   0  0  0  0  0  0  0  0  0  0  0  0
   -3.1889   -0.7071   -7.2310 H   0  0  0  0  0  0  0  0  0  0  0  0
   -3.4256    2.2818   -4.2848 H   0  0  0  0  0  0  0  0  0  0  0  0
   -4.4946    0.4494   -5.4646 H   0  0  0  0  0  0  0  0  0  0  0  0
   -3.0766    0.9795   -2.9396 H   0  0  0  0  0  0  0  0  0  0  0  0
   -3.1399    0.0130   -1.3079 H   0  0  0  0  0  0  0  0  0  0  0  0
    0.1927    3.2220   -1.0878 H   0  0  0  0  0  0  0  0  0  0  0  0
   -2.5480    1.1774    1.0864 H   0  0  0  0  0  0  0  0  0  0  0  0
   -0.4445    1.8502    0.4719 H   0  0  0  0  0  0  0  0  0  0  0  0
  1  3  1  0  0  0  0
  1  6  1  0  0  0  0
  1  9  1  1  0  0  0
  2 10  1  0  0  0  0
  2 27  1  0  0  0  0
  3  2  1  0  0  0  0
  3 28  1  0  0  0  0
  3 29  1  0  0  0  0
  4  2  1  0  0  0  0
  4  8  1  0  0  0  0
  4 30  1  6  0  0  0
  5  7  1  0  0  0  0
  5  1  1  0  0  0  0
  5 31  1  0  0  0  0
  5 32  1  0  0  0  0
  6  8  1  0  0  0  0
  6 33  1  0  0  0  0
  6 34  1  0  0  0  0
  7  4  1  0  0  0  0
  7 35  1  0  0  0  0
  7 36  1  0  0  0  0
  8 37  1  0  0  0  0
  8 38  1  0  0  0  0
  9 39  1  0  0  0  0
  9 40  1  0  0  0  0
  9 41  1  0  0  0  0
 10 11  1  0  0  0  0
 11 12  1  0  0  0  0
 11 13  2  0  0  0  0
 12 14  1  0  0  0  0
 12 15  1  0  0  0  0
 12 16  1  0  0  0  0
 14 42  1  0  0  0  0
 15 17  2  0  0  0  0
 16 22  1  0  0  0  0
 17 43  1  0  0  0  0
 18 17  1  0  0  0  0
 18 44  1  0  0  0  0
 19 18  2  0  0  0  0
 19 45  1  0  0  0  0
 20 15  1  0  0  0  0
 20 46  1  0  0  0  0
 21 19  1  0  0  0  0
 21 20  2  0  0  0  0
 21 47  1  0  0  0  0
 22 48  1  0  0  0  0
 23 22  2  0  0  0  0
 23 49  1  0  0  0  0
 24 16  2  0  0  0  0
 24 50  1  0  0  0  0
 25 23  1  0  0  0  0
 25 51  1  0  0  0  0
 26 24  1  0  0  0  0
 26 25  2  0  0  0  0
 26 52  1  0  0  0  0
M  CHG  1   1   1
M  END
>  <DRUGBANK_ID>
DB00771

>  <SECONDARY_ACCESSION_NUMBERS>
APRD00737

>  <COMMON_NAME>
Clidinium

>  <CAS_NUMBER>
7020-55-5

>  <UNII>
BO76JF850N

>  <SYNONYMS>
3-(2-Hydroxy-2,2-diphenyl-acetoxy)-1-methyl-1-azonia-bicyclo[2.2.2]octane; 3-hydroxy-1-methylquinuclidinium benzilate ester; Bromure de Clidinium; Bromuro de clidinio; Clidinii Bromidum; Clidinium bromid; N-methyl quinuclidinyl benzilate

$$$$
