
 OpenBabel10282417153D

 83 85  0  0  0  0  0  0  0  0999 V2000
   -0.2190    2.8075   -2.3188 C   0  0  0  0  0  0  0  0  0  0  0  0
   -1.1044    1.9697   -3.2068 C   0  0  0  0  0  0  0  0  0  0  0  0
   -0.6206    2.1201   -4.6397 C   0  0  0  0  0  0  0  0  0  0  0  0
   -1.0581    0.4853   -2.8091 C   0  0  0  0  0  0  0  0  0  0  0  0
   -1.7071    0.2477   -1.4244 C   0  0  2  0  0  0  0  0  0  0  0  0
   -1.3796   -0.9594   -0.6562 N   0  0  0  0  0  0  0  0  0  0  0  0
   -0.8213   -0.9741    0.6032 C   0  0  0  0  0  0  0  0  0  0  0  0
   -0.4958   -2.0609    1.0927 O   0  0  0  0  0  0  0  0  0  0  0  0
   -0.4868    0.3667    1.3067 C   0  0  0  0  0  0  0  0  0  0  0  0
    0.1002    1.5093    0.6975 O   0  0  0  0  0  0  0  0  0  0  0  0
    1.3217    1.5390    0.0771 C   0  0  0  0  0  0  0  0  0  0  0  0
    1.8862    2.8252   -0.0026 C   0  0  0  0  0  0  0  0  0  0  0  0
    3.0657    3.0534   -0.7298 C   0  0  0  0  0  0  0  0  0  0  0  0
    3.6955    2.0122   -1.4011 C   0  0  0  0  0  0  0  0  0  0  0  0
    3.1337    0.7570   -1.3691 C   0  0  0  0  0  0  0  0  0  0  0  0
    1.9717    0.5153   -0.6317 C   0  0  0  0  0  0  0  0  0  0  0  0
    1.5142   -0.8790   -0.7475 C   0  0  0  0  0  0  0  0  0  0  0  0
   -3.1928    0.3295   -1.6263 C   0  0  0  0  0  0  0  0  0  0  0  0
   -3.8841    1.1030   -0.9634 O   0  0  0  0  0  0  0  0  0  0  0  0
   -3.7535   -0.5266   -2.5494 N   0  0  0  0  0  0  0  0  0  0  0  0
   -3.1897   -1.7986   -3.0414 C   0  0  1  0  0  0  0  0  0  0  0  0
   -3.5978   -3.1468   -2.3689 C   0  0  0  0  0  0  0  0  0  0  0  0
   -4.3819   -3.1689   -1.0757 C   0  0  0  0  0  0  0  0  0  0  0  0
   -4.8363   -2.0139   -0.4825 C   0  0  0  0  0  0  0  0  0  0  0  0
   -5.5865   -1.9215    0.6543 C   0  0  0  0  0  0  0  0  0  0  0  0
   -5.9430   -3.0436    1.3315 C   0  0  0  0  0  0  0  0  0  0  0  0
   -6.6957   -2.9195    2.5297 O   0  0  0  0  0  0  0  0  0  0  0  0
   -7.2596   -1.6646    2.9303 C   0  0  0  0  0  0  0  0  0  0  0  0
   -7.1431   -0.5923    2.3724 O   0  0  0  0  0  0  0  0  0  0  0  0
   -8.1022   -1.7603    4.0244 N   0  0  0  0  0  0  0  0  0  0  0  0
   -9.2081   -0.8207    4.1259 C   0  0  0  0  0  0  0  0  0  0  0  0
   -9.0036    0.2117    5.2245 C   0  0  0  0  0  0  0  0  0  0  0  0
   -8.6403   -0.4612    6.5523 C   0  0  3  0  0  0  0  0  0  0  0  0
   -7.4818   -1.4585    6.3752 C   0  0  0  0  0  0  0  0  0  0  0  0
   -7.7340   -2.4553    5.2340 C   0  0  0  0  0  0  0  0  0  0  0  0
   -8.3208    0.5854    7.6125 C   0  0  0  0  0  0  0  0  0  0  0  0
   -8.9787    0.7087    8.6407 O   0  0  0  0  0  0  0  0  0  0  0  0
   -7.2558    1.4007    7.3732 N   0  0  0  0  0  0  0  0  0  0  0  0
   -5.5053   -4.2740    0.8074 C   0  0  0  0  0  0  0  0  0  0  0  0
   -4.7243   -4.3343   -0.3909 C   0  0  0  0  0  0  0  0  0  0  0  0
   -3.5060   -1.7570   -4.5272 C   0  0  0  0  0  0  0  0  0  0  0  0
   -2.7200   -1.5108   -5.4141 O   0  0  0  0  0  0  0  0  0  0  0  0
   -4.8311   -1.8678   -4.7722 O   0  0  0  0  0  0  0  0  0  0  0  0
    0.7961    2.4153   -2.3903 H   0  0  0  0  0  0  0  0  0  0  0  0
   -0.5761    2.7900   -1.2906 H   0  0  0  0  0  0  0  0  0  0  0  0
   -0.1911    3.8573   -2.6076 H   0  0  0  0  0  0  0  0  0  0  0  0
   -2.1327    2.3417   -3.1290 H   0  0  0  0  0  0  0  0  0  0  0  0
    0.3957    1.7235   -4.7461 H   0  0  0  0  0  0  0  0  0  0  0  0
   -1.2751    1.5796   -5.3280 H   0  0  0  0  0  0  0  0  0  0  0  0
   -0.6087    3.1759   -4.9216 H   0  0  0  0  0  0  0  0  0  0  0  0
   -1.6054   -0.0105   -3.6093 H   0  0  0  0  0  0  0  0  0  0  0  0
   -0.0472    0.0887   -2.9040 H   0  0  0  0  0  0  0  0  0  0  0  0
   -1.4822    1.0817   -0.7812 H   0  0  0  0  0  0  0  0  0  0  0  0
   -1.2932   -1.8652   -1.1035 H   0  0  0  0  0  0  0  0  0  0  0  0
   -1.4735    0.6881    1.6720 H   0  0  0  0  0  0  0  0  0  0  0  0
    0.1012    0.1482    2.2033 H   0  0  0  0  0  0  0  0  0  0  0  0
    1.3704    3.6785    0.4391 H   0  0  0  0  0  0  0  0  0  0  0  0
    3.4821    4.0526   -0.8011 H   0  0  0  0  0  0  0  0  0  0  0  0
    4.6112    2.1569   -1.9618 H   0  0  0  0  0  0  0  0  0  0  0  0
    3.5830   -0.0638   -1.9252 H   0  0  0  0  0  0  0  0  0  0  0  0
    1.4564   -1.2500    0.2661 H   0  0  0  0  0  0  0  0  0  0  0  0
    0.6188   -0.8509   -1.3365 H   0  0  0  0  0  0  0  0  0  0  0  0
    2.1267   -1.5805   -1.3096 H   0  0  0  0  0  0  0  0  0  0  0  0
   -4.7634   -0.4336   -2.6245 H   0  0  0  0  0  0  0  0  0  0  0  0
   -2.1012   -1.7845   -2.9746 H   0  0  0  0  0  0  0  0  0  0  0  0
   -2.6548   -3.6885   -2.1837 H   0  0  0  0  0  0  0  0  0  0  0  0
   -4.1252   -3.7619   -3.1077 H   0  0  0  0  0  0  0  0  0  0  0  0
   -4.6678   -1.0291   -0.8116 H   0  0  0  0  0  0  0  0  0  0  0  0
   -5.8220   -0.9022    0.9178 H   0  0  0  0  0  0  0  0  0  0  0  0
  -10.0942   -1.4267    4.3377 H   0  0  0  0  0  0  0  0  0  0  0  0
   -9.3845   -0.3173    3.1677 H   0  0  0  0  0  0  0  0  0  0  0  0
   -9.9235    0.7983    5.3445 H   0  0  0  0  0  0  0  0  0  0  0  0
   -8.2219    0.9186    4.9227 H   0  0  0  0  0  0  0  0  0  0  0  0
   -9.5202   -1.0153    6.9092 H   0  0  0  0  0  0  0  0  0  0  0  0
   -6.5527   -0.9095    6.1771 H   0  0  0  0  0  0  0  0  0  0  0  0
   -7.3274   -2.0090    7.3103 H   0  0  0  0  0  0  0  0  0  0  0  0
   -6.8377   -3.0623    5.0704 H   0  0  0  0  0  0  0  0  0  0  0  0
   -8.5703   -3.1143    5.4796 H   0  0  0  0  0  0  0  0  0  0  0  0
   -6.6973    1.3638    6.5319 H   0  0  0  0  0  0  0  0  0  0  0  0
   -7.0398    2.1121    8.0601 H   0  0  0  0  0  0  0  0  0  0  0  0
   -5.7509   -5.2047    1.3064 H   0  0  0  0  0  0  0  0  0  0  0  0
   -4.3865   -5.2972   -0.7735 H   0  0  0  0  0  0  0  0  0  0  0  0
   -4.9149   -1.7066   -5.7345 H   0  0  0  0  0  0  0  0  0  0  0  0
  1  2  1  0  0  0  0
  1 44  1  0  0  0  0
  1 45  1  0  0  0  0
  1 46  1  0  0  0  0
  2  3  1  0  0  0  0
  2  4  1  0  0  0  0
  2 47  1  0  0  0  0
  3 48  1  0  0  0  0
  3 49  1  0  0  0  0
  3 50  1  0  0  0  0
  4 51  1  0  0  0  0
  4 52  1  0  0  0  0
  5 18  1  0  0  0  0
  5 53  1  1  0  0  0
  5  6  1  0  0  0  0
  5  4  1  0  0  0  0
  6  7  1  0  0  0  0
  6 54  1  0  0  0  0
  7  8  2  0  0  0  0
  7  9  1  0  0  0  0
  9 10  1  0  0  0  0
  9 55  1  0  0  0  0
  9 56  1  0  0  0  0
 10 11  1  0  0  0  0
 11 12  2  0  0  0  0
 11 16  1  0  0  0  0
 12 13  1  0  0  0  0
 12 57  1  0  0  0  0
 13 14  2  0  0  0  0
 13 58  1  0  0  0  0
 14 15  1  0  0  0  0
 14 59  1  0  0  0  0
 15 16  2  0  0  0  0
 15 60  1  0  0  0  0
 16 17  1  0  0  0  0
 17 61  1  0  0  0  0
 17 62  1  0  0  0  0
 17 63  1  0  0  0  0
 18 19  2  0  0  0  0
 18 20  1  0  0  0  0
 20 64  1  0  0  0  0
 21 20  1  0  0  0  0
 21 22  1  0  0  0  0
 21 41  1  0  0  0  0
 21 65  1  1  0  0  0
 22 23  1  0  0  0  0
 22 66  1  0  0  0  0
 22 67  1  0  0  0  0
 23 24  2  0  0  0  0
 23 40  1  0  0  0  0
 24 25  1  0  0  0  0
 24 68  1  0  0  0  0
 25 26  2  0  0  0  0
 25 69  1  0  0  0  0
 26 27  1  0  0  0  0
 26 39  1  0  0  0  0
 27 28  1  0  0  0  0
 28 29  2  0  0  0  0
 28 30  1  0  0  0  0
 30 31  1  0  0  0  0
 30 35  1  0  0  0  0
 31 32  1  0  0  0  0
 31 70  1  0  0  0  0
 31 71  1  0  0  0  0
 32 33  1  0  0  0  0
 32 72  1  0  0  0  0
 32 73  1  0  0  0  0
 33 34  1  0  0  0  0
 33 36  1  0  0  0  0
 33 74  1  0  0  0  0
 34 35  1  0  0  0  0
 34 75  1  0  0  0  0
 34 76  1  0  0  0  0
 35 77  1  0  0  0  0
 35 78  1  0  0  0  0
 36 37  2  0  0  0  0
 36 38  1  0  0  0  0
 38 79  1  0  0  0  0
 38 80  1  0  0  0  0
 39 40  2  0  0  0  0
 39 81  1  0  0  0  0
 40 82  1  0  0  0  0
 41 42  2  0  0  0  0
 41 43  1  0  0  0  0
 43 83  1  0  0  0  0
M  END
>  <DRUGBANK_ID>
DB06508

>  <COMMON_NAME>
GW-559090

>  <CAS_NUMBER>
278598-52-0

>  <UNII>
H9W4YH429K

$$$$
