
 OpenBabel10282417153D

 50 55  0  0  1  0  0  0  0  0999 V2000
    1.1565   -0.0284    0.2079 O   0  0  0  0  0  0  0  0  0  0  0  0
    0.6415    0.9062   -0.6328 C   0  0  0  0  0  0  0  0  0  0  0  0
   -0.4948    1.9273   -0.0312 C   0  0  0  0  0  0  0  0  0  0  0  0
   -1.5502    3.0125   -0.7759 C   0  0  0  0  0  0  0  0  0  0  0  0
   -1.5126    3.0327   -2.1808 C   0  0  0  0  0  0  0  0  0  0  0  0
   -2.3181    3.1977   -4.2038 C   0  0  0  0  0  0  0  0  0  0  0  0
   -1.2069    2.5090   -5.4338 C   0  0  1  0  0  0  0  0  0  0  0  0
   -1.6201    2.8104   -4.1425 N   0  0  0  0  0  0  0  0  0  0  0  0
   -1.0841    1.8717   -3.4521 C   0  0  0  0  0  0  0  0  0  0  0  0
    0.3575    3.3982   -2.5088 C   0  0  0  0  0  0  0  0  0  0  0  0
    0.9542    4.7822   -2.3392 C   0  0  0  0  0  0  0  0  0  0  0  0
    1.9767    3.1870   -2.3618 C   0  0  0  0  0  0  0  0  0  0  0  0
   -0.8900    4.5028   -3.7991 C   0  0  0  0  0  0  0  0  0  0  0  0
    1.0255    3.9734   -4.3126 C   0  0  0  0  0  0  0  0  0  0  0  0
    0.7137    2.3181   -4.1190 C   0  0  1  0  0  0  0  0  0  0  0  0
    1.3855    1.0447   -4.3789 C   0  0  1  0  0  0  0  0  0  0  0  0
    1.8036    0.4359   -2.9566 O   0  0  0  0  0  0  0  0  0  0  0  0
    1.0071    0.8503   -1.9296 C   0  0  0  0  0  0  0  0  0  0  0  0
    0.0675    1.6944   -2.2287 C   0  0  0  0  0  0  0  0  0  0  0  0
    2.4306    1.4075   -5.4283 C   0  0  0  0  0  0  0  0  0  0  0  0
    2.8598    0.3554   -6.0941 C   0  0  0  0  0  0  0  0  0  0  0  0
    2.3600    2.7111   -6.2036 C   0  0  0  0  0  0  0  0  0  0  0  0
    1.0065    3.3323   -6.5771 C   0  0  0  0  0  0  0  0  0  0  0  0
    0.0906    3.2671   -5.4431 C   0  0  1  0  0  0  0  0  0  0  0  0
   -0.2347    4.9921   -5.6510 O   0  0  0  0  0  0  0  0  0  0  0  0
    2.0881   -0.0808   -0.0679 H   0  0  0  0  0  0  0  0  0  0  0  0
   -0.5994    1.7775    1.0478 H   0  0  0  0  0  0  0  0  0  0  0  0
   -1.8022    3.7997   -0.0681 H   0  0  0  0  0  0  0  0  0  0  0  0
   -1.9263    4.0503   -5.3460 H   0  0  0  0  0  0  0  0  0  0  0  0
   -3.0126    3.5319   -5.3263 H   0  0  0  0  0  0  0  0  0  0  0  0
   -1.1076    1.4200   -5.5380 H   0  0  0  0  0  0  0  0  0  0  0  0
   -1.9100    1.4018   -2.3291 H   0  0  0  0  0  0  0  0  0  0  0  0
   -1.0570    0.7128   -3.4671 H   0  0  0  0  0  0  0  0  0  0  0  0
    0.3952    3.4113   -1.3575 H   0  0  0  0  0  0  0  0  0  0  0  0
    0.5244    5.4008   -3.2755 H   0  0  0  0  0  0  0  0  0  0  0  0
    1.2279    5.6633   -3.0735 H   0  0  0  0  0  0  0  0  0  0  0  0
    2.8402    2.6070   -3.0224 H   0  0  0  0  0  0  0  0  0  0  0  0
    2.3634    2.7094   -3.4976 H   0  0  0  0  0  0  0  0  0  0  0  0
   -1.8188    5.1569   -4.1858 H   0  0  0  0  0  0  0  0  0  0  0  0
   -1.4873    4.8794   -2.8117 H   0  0  0  0  0  0  0  0  0  0  0  0
    2.1549    4.4700   -4.6069 H   0  0  0  0  0  0  0  0  0  0  0  0
    2.0925    4.3494   -3.6648 H   0  0  0  0  0  0  0  0  0  0  0  0
    0.6263    0.3710   -4.8084 H   0  0  0  0  0  0  0  0  0  0  0  0
    2.0846    0.2657   -6.8648 H   0  0  0  0  0  0  0  0  0  0  0  0
    2.9948   -0.4660   -5.3970 H   0  0  0  0  0  0  0  0  0  0  0  0
    2.9675    2.8791   -7.0861 H   0  0  0  0  0  0  0  0  0  0  0  0
    3.0454    3.2324   -5.5032 H   0  0  0  0  0  0  0  0  0  0  0  0
    1.1465    4.0927   -7.3523 H   0  0  0  0  0  0  0  0  0  0  0  0
    0.0348    3.2916   -7.0427 H   0  0  0  0  0  0  0  0  0  0  0  0
    0.5739    5.5465   -5.7095 H   0  0  0  0  0  0  0  0  0  0  0  0
  1 26  1  0  0  0  0
  1  2  1  0  0  0  0
  2  3  2  0  0  0  0
  2 18  1  0  0  0  0
  3  4  1  0  0  0  0
  3 27  1  0  0  0  0
  4  5  2  0  0  0  0
  4 28  1  0  0  0  0
  5  6  1  0  0  0  0
  5 19  1  0  0  0  0
  6 29  1  0  0  0  0
  6 30  1  0  0  0  0
  7  6  1  0  0  0  0
  7  8  1  0  0  0  0
  7 31  1  1  0  0  0
  8 13  1  0  0  0  0
  8  9  1  0  0  0  0
  9 10  1  0  0  0  0
  9 32  1  0  0  0  0
  9 33  1  0  0  0  0
 10 11  1  0  0  0  0
 10 12  1  0  0  0  0
 10 34  1  0  0  0  0
 11 12  1  0  0  0  0
 11 35  1  0  0  0  0
 11 36  1  0  0  0  0
 12 37  1  0  0  0  0
 12 38  1  0  0  0  0
 13 14  1  0  0  0  0
 13 39  1  0  0  0  0
 13 40  1  0  0  0  0
 14 41  1  0  0  0  0
 14 42  1  0  0  0  0
 15 14  1  0  0  0  0
 15 16  1  0  0  0  0
 15 19  1  1  0  0  0
 15 24  1  0  0  0  0
 16 17  1  0  0  0  0
 16 20  1  0  0  0  0
 16 43  1  1  0  0  0
 17 18  1  0  0  0  0
 18 19  2  0  0  0  0
 20 22  1  0  0  0  0
 20 21  2  0  0  0  0
 21 44  1  0  0  0  0
 21 45  1  0  0  0  0
 22 23  1  0  0  0  0
 22 46  1  0  0  0  0
 22 47  1  0  0  0  0
 23 48  1  0  0  0  0
 23 49  1  0  0  0  0
 24 23  1  0  0  0  0
 24  7  1  0  0  0  0
 24 25  1  1  0  0  0
 25 50  1  0  0  0  0
M  END
>  <DRUGBANK_ID>
DB06230

>  <COMMON_NAME>
Nalmefene

>  <CAS_NUMBER>
55096-26-9

>  <UNII>
TOV02TDP9I

>  <SYNONYMS>
Nalmefene; Nalmefeno

$$$$
