
 OpenBabel10282417233D

 56 58  0  0  0  0  0  0  0  0999 V2000
    1.0306    0.0206    0.0970 F   0  0  0  0  0  0  0  0  0  0  0  0
    2.3814    0.0328    0.1124 C   0  0  0  0  0  0  0  0  0  0  0  0
    2.7845   -0.7184    1.1638 F   0  0  0  0  0  0  0  0  0  0  0  0
    2.7825   -0.6445   -0.9828 F   0  0  0  0  0  0  0  0  0  0  0  0
    2.9470    1.4366    0.2086 C   0  0  0  0  0  0  0  0  0  0  0  0
    2.5293    2.3451   -0.8236 O   0  0  0  0  0  0  0  0  0  0  0  0
    2.7697    1.9867   -2.0899 C   0  0  0  0  0  0  0  0  0  0  0  0
    3.5041    1.0689   -2.4460 O   0  0  0  0  0  0  0  0  0  0  0  0
    1.9326    2.6954   -2.8778 N   0  0  0  0  0  0  0  0  0  0  0  0
    2.1128    4.1480   -2.9314 C   0  0  0  0  0  0  0  0  0  0  0  0
    0.7871    4.7458   -3.4315 C   0  0  0  0  0  0  0  0  0  0  0  0
    0.4185    4.2943   -4.7904 N   0  0  0  0  0  0  0  0  0  0  0  0
    1.2317    4.8409   -5.9263 C   0  0  0  0  0  0  0  0  0  0  0  0
    2.7099    4.4686   -6.0680 C   0  0  0  0  0  0  0  0  0  0  0  0
    3.0108    3.1372   -6.4691 C   0  0  0  0  0  0  0  0  0  0  0  0
    4.2271    2.5570   -6.1074 C   0  0  0  0  0  0  0  0  0  0  0  0
    5.2788    3.3810   -5.7465 C   0  0  0  0  0  0  0  0  0  0  0  0
    5.0612    4.7781   -5.7082 C   0  0  0  0  0  0  0  0  0  0  0  0
    3.7686    5.3455   -5.7250 C   0  0  0  0  0  0  0  0  0  0  0  0
    3.5983    6.6578   -5.3450 N   0  0  0  0  0  0  0  0  0  0  0  0
    2.9431    7.1591   -4.1501 C   0  0  0  0  0  0  0  0  0  0  0  0
    2.2454    8.4147   -4.6336 C   0  0  0  0  0  0  0  0  0  0  0  0
    3.3244    9.0085   -5.5216 C   0  0  0  0  0  0  0  0  0  0  0  0
    4.0790    7.7944   -6.1171 C   0  0  0  0  0  0  0  0  0  0  0  0
    6.6288    2.7859   -5.4472 C   0  0  0  0  0  0  0  0  0  0  0  0
    7.5279    3.0929   -6.4203 F   0  0  0  0  0  0  0  0  0  0  0  0
    7.1673    3.2291   -4.2774 F   0  0  0  0  0  0  0  0  0  0  0  0
    6.6300    1.4238   -5.3589 F   0  0  0  0  0  0  0  0  0  0  0  0
    0.2968    2.8237   -4.7448 C   0  0  0  0  0  0  0  0  0  0  0  0
    1.5277    2.1297   -4.1359 C   0  0  0  0  0  0  0  0  0  0  0  0
    2.4183    1.9951    1.5064 C   0  0  0  0  0  0  0  0  0  0  0  0
    2.8468    1.2940    2.5757 F   0  0  0  0  0  0  0  0  0  0  0  0
    2.8527    3.2703    1.6845 F   0  0  0  0  0  0  0  0  0  0  0  0
    1.0686    2.0394    1.5535 F   0  0  0  0  0  0  0  0  0  0  0  0
    4.0402    1.4327    0.2270 H   0  0  0  0  0  0  0  0  0  0  0  0
    2.4593    4.5608   -1.9787 H   0  0  0  0  0  0  0  0  0  0  0  0
    2.9559    4.3450   -3.5977 H   0  0  0  0  0  0  0  0  0  0  0  0
    0.0313    4.3943   -2.7174 H   0  0  0  0  0  0  0  0  0  0  0  0
    0.6690    5.8249   -3.3525 H   0  0  0  0  0  0  0  0  0  0  0  0
    0.7393    4.5397   -6.8618 H   0  0  0  0  0  0  0  0  0  0  0  0
    1.1352    5.9300   -5.9247 H   0  0  0  0  0  0  0  0  0  0  0  0
    2.2052    2.4541   -6.7505 H   0  0  0  0  0  0  0  0  0  0  0  0
    4.3072    1.4691   -6.0029 H   0  0  0  0  0  0  0  0  0  0  0  0
    5.9242    5.4239   -5.5719 H   0  0  0  0  0  0  0  0  0  0  0  0
    3.6634    7.3837   -3.3555 H   0  0  0  0  0  0  0  0  0  0  0  0
    2.2366    6.4934   -3.7283 H   0  0  0  0  0  0  0  0  0  0  0  0
    1.3502    8.1682   -5.2200 H   0  0  0  0  0  0  0  0  0  0  0  0
    1.9319    9.0711   -3.8151 H   0  0  0  0  0  0  0  0  0  0  0  0
    2.9072    9.6615   -6.2919 H   0  0  0  0  0  0  0  0  0  0  0  0
    4.0004    9.6071   -4.8997 H   0  0  0  0  0  0  0  0  0  0  0  0
    3.8478    7.6751   -7.1774 H   0  0  0  0  0  0  0  0  0  0  0  0
    5.1564    7.9241   -5.9757 H   0  0  0  0  0  0  0  0  0  0  0  0
   -0.5621    2.5808   -4.1021 H   0  0  0  0  0  0  0  0  0  0  0  0
    0.0424    2.4382   -5.7365 H   0  0  0  0  0  0  0  0  0  0  0  0
    2.4027    2.3450   -4.6814 H   0  0  0  0  0  0  0  0  0  0  0  0
    1.4933    1.0386   -4.1842 H   0  0  0  0  0  0  0  0  0  0  0  0
  1  2  1  0  0  0  0
  2  3  1  0  0  0  0
  2  4  1  0  0  0  0
  2  5  1  0  0  0  0
  5  6  1  0  0  0  0
  5 31  1  0  0  0  0
  5 35  1  0  0  0  0
  6  7  1  0  0  0  0
  7  8  2  0  0  0  0
  7  9  1  0  0  0  0
  9 10  1  0  0  0  0
  9 30  1  0  0  0  0
 10 11  1  0  0  0  0
 10 36  1  0  0  0  0
 10 37  1  0  0  0  0
 11 12  1  0  0  0  0
 11 38  1  0  0  0  0
 11 39  1  0  0  0  0
 12 13  1  0  0  0  0
 12 29  1  0  0  0  0
 13 14  1  0  0  0  0
 13 40  1  0  0  0  0
 13 41  1  0  0  0  0
 14 15  2  0  0  0  0
 14 19  1  0  0  0  0
 15 16  1  0  0  0  0
 15 42  1  0  0  0  0
 16 17  2  0  0  0  0
 16 43  1  0  0  0  0
 17 18  1  0  0  0  0
 17 25  1  0  0  0  0
 18 19  2  0  0  0  0
 18 44  1  0  0  0  0
 19 20  1  0  0  0  0
 20 21  1  0  0  0  0
 20 24  1  0  0  0  0
 21 22  1  0  0  0  0
 21 45  1  0  0  0  0
 21 46  1  0  0  0  0
 22 23  1  0  0  0  0
 22 47  1  0  0  0  0
 22 48  1  0  0  0  0
 23 24  1  0  0  0  0
 23 49  1  0  0  0  0
 23 50  1  0  0  0  0
 24 51  1  0  0  0  0
 24 52  1  0  0  0  0
 25 26  1  0  0  0  0
 25 27  1  0  0  0  0
 25 28  1  0  0  0  0
 29 30  1  0  0  0  0
 29 53  1  0  0  0  0
 29 54  1  0  0  0  0
 30 55  1  0  0  0  0
 30 56  1  0  0  0  0
 31 32  1  0  0  0  0
 31 33  1  0  0  0  0
 31 34  1  0  0  0  0
M  END
>  <DRUGBANK_ID>
DB16036

>  <COMMON_NAME>
ABX-1431

>  <CAS_NUMBER>
1446817-84-0

>  <UNII>
FB39E94UXK

$$$$
