
 OpenBabel10282417123D

 28 28  0  0  0  0  0  0  0  0999 V2000
   -1.5380   -1.7506    0.0157 C   0  0  0  0  0  0  0  0  0  0  0  0
   -0.4105   -0.7575   -0.0032 C   0  0  0  0  0  0  0  0  0  0  0  0
    0.8372   -1.2869   -0.0134 N   0  0  0  0  0  0  0  0  0  0  0  0
    1.8804   -0.4354   -0.0403 C   0  0  0  0  0  0  0  0  0  0  0  0
    1.7559    0.9525   -0.0259 C   0  0  0  0  0  0  0  0  0  0  0  0
    3.0203    1.7785    0.0435 C   0  0  0  0  0  0  0  0  0  0  0  0
    3.7437    1.5233    1.2464 O   0  0  0  0  0  0  0  0  0  0  0  0
    2.7632    1.8082    2.6429 P   0  0  0  0  0  0  0  0  0  0  0  0
    3.1574    0.2708    3.0470 O   0  0  0  0  0  0  0  0  0  0  0  0
    4.1090    2.5144    3.2501 O   0  0  0  0  0  0  0  0  0  0  0  0
    1.8856    2.0631    3.8928 O   0  0  0  0  0  0  0  0  0  0  0  0
    0.4506    1.5062   -0.0070 C   0  0  0  0  0  0  0  0  0  0  0  0
    0.2768    2.9999    0.0333 C   0  0  0  0  0  0  0  0  0  0  0  0
    0.8741    3.4829    1.2305 O   0  0  0  0  0  0  0  0  0  0  0  0
   -0.6430    0.6236   -0.0052 C   0  0  0  0  0  0  0  0  0  0  0  0
   -1.9458    1.0323    0.0122 O   0  0  0  0  0  0  0  0  0  0  0  0
   -1.4856   -2.3845   -0.8748 H   0  0  0  0  0  0  0  0  0  0  0  0
   -1.4595   -2.3813    0.9068 H   0  0  0  0  0  0  0  0  0  0  0  0
   -2.5246   -1.2788    0.0299 H   0  0  0  0  0  0  0  0  0  0  0  0
    2.8580   -0.9151   -0.0398 H   0  0  0  0  0  0  0  0  0  0  0  0
    3.6649    1.5366   -0.8078 H   0  0  0  0  0  0  0  0  0  0  0  0
    2.8420    2.8544   -0.0136 H   0  0  0  0  0  0  0  0  0  0  0  0
    2.4139   -0.3365    2.8935 H   0  0  0  0  0  0  0  0  0  0  0  0
    4.5869    2.9786    2.5442 H   0  0  0  0  0  0  0  0  0  0  0  0
    0.7748    3.4524   -0.8319 H   0  0  0  0  0  0  0  0  0  0  0  0
   -0.7575    3.3442    0.0072 H   0  0  0  0  0  0  0  0  0  0  0  0
    0.2903    3.2316    1.9741 H   0  0  0  0  0  0  0  0  0  0  0  0
   -2.0476    1.9933   -0.0330 H   0  0  0  0  0  0  0  0  0  0  0  0
  1  2  1  0  0  0  0
  1 17  1  0  0  0  0
  1 18  1  0  0  0  0
  1 19  1  0  0  0  0
  2  3  2  0  0  0  0
  2 15  1  0  0  0  0
  3  4  1  0  0  0  0
  4  5  2  0  0  0  0
  4 20  1  0  0  0  0
  5  6  1  0  0  0  0
  5 12  1  0  0  0  0
  6  7  1  0  0  0  0
  6 21  1  0  0  0  0
  6 22  1  0  0  0  0
  7  8  1  0  0  0  0
  8  9  1  0  0  0  0
  8 10  1  0  0  0  0
  8 11  2  0  0  0  0
  9 23  1  0  0  0  0
 10 24  1  0  0  0  0
 12 13  1  0  0  0  0
 12 15  2  0  0  0  0
 13 14  1  0  0  0  0
 13 25  1  0  0  0  0
 13 26  1  0  0  0  0
 14 27  1  0  0  0  0
 15 16  1  0  0  0  0
 16 28  1  0  0  0  0
M  END
>  <DRUGBANK_ID>
DB02209

>  <SECONDARY_ACCESSION_NUMBERS>
EXPT02710

>  <COMMON_NAME>
Pyridoxine phosphate

>  <CAS_NUMBER>
447-05-2

>  <UNII>
RG20W8WYLS

>  <SYNONYMS>
Pyridoxine 5-phosphate

$$$$
