
 OpenBabel10282417233D

 32 32  0  0  0  0  0  0  0  0999 V2000
    0.9306    0.0162   -0.0365 S   0  0  0  0  0  0  0  0  0  0  0  0
    0.3619   -1.1448    1.0558 N   0  0  0  0  0  0  0  0  0  0  0  0
    2.3763   -0.0511   -0.1346 O   0  0  0  0  0  0  0  0  0  0  0  0
    0.2504    1.2543    0.2578 O   0  0  0  0  0  0  0  0  0  0  0  0
    3.3047   -1.6713    3.3075 C   0  0  0  0  0  0  0  0  0  0  0  0
    2.3009   -1.0184    2.5812 C   0  0  0  0  0  0  0  0  0  0  0  0
    1.2756   -1.7455    1.9762 C   0  0  0  0  0  0  0  0  0  0  0  0
    4.5723   -0.9134    3.6492 C   0  0  3  0  0  0  0  0  0  0  0  0
    0.3003   -0.6072   -1.5748 C   0  0  0  0  0  0  0  0  0  0  0  0
    5.6755   -1.4989    1.4684 N   0  0  0  0  0  0  0  0  0  0  0  0
    4.7585   -0.9292    5.0617 O   0  0  0  0  0  0  0  0  0  0  0  0
    3.1959   -3.0496    3.5346 C   0  0  0  0  0  0  0  0  0  0  0  0
    2.1320   -3.7656    2.9887 C   0  0  0  0  0  0  0  0  0  0  0  0
    5.8058   -1.5214    2.9337 C   0  0  0  0  0  0  0  0  0  0  0  0
    1.1448   -3.1056    2.2516 C   0  0  0  0  0  0  0  0  0  0  0  0
    6.8201   -2.1212    0.8298 C   0  0  0  0  0  0  0  0  0  0  0  0
   -0.6113   -1.0564    1.3495 H   0  0  0  0  0  0  0  0  0  0  0  0
    2.3981    0.0500    2.4001 H   0  0  0  0  0  0  0  0  0  0  0  0
    4.4820    0.1380    3.3471 H   0  0  0  0  0  0  0  0  0  0  0  0
    0.6872   -1.6140   -1.7408 H   0  0  0  0  0  0  0  0  0  0  0  0
   -0.7897   -0.5948   -1.5529 H   0  0  0  0  0  0  0  0  0  0  0  0
    0.6615    0.0546   -2.3668 H   0  0  0  0  0  0  0  0  0  0  0  0
    4.8205   -1.9880    1.1922 H   0  0  0  0  0  0  0  0  0  0  0  0
    3.9426   -0.5582    5.4403 H   0  0  0  0  0  0  0  0  0  0  0  0
    3.9683   -3.5742    4.0951 H   0  0  0  0  0  0  0  0  0  0  0  0
    2.1066   -4.8481    3.0892 H   0  0  0  0  0  0  0  0  0  0  0  0
    6.6961   -0.9573    3.2355 H   0  0  0  0  0  0  0  0  0  0  0  0
    5.9636   -2.5501    3.2832 H   0  0  0  0  0  0  0  0  0  0  0  0
    0.3153   -3.6775    1.8480 H   0  0  0  0  0  0  0  0  0  0  0  0
    6.9315   -3.1660    1.1363 H   0  0  0  0  0  0  0  0  0  0  0  0
    6.6898   -2.0986   -0.2563 H   0  0  0  0  0  0  0  0  0  0  0  0
    7.7366   -1.5737    1.0671 H   0  0  0  0  0  0  0  0  0  0  0  0
  2  1  1  0  0  0  0
  2 17  1  0  0  0  0
  3  1  2  0  0  0  0
  4  1  2  0  0  0  0
  5  6  2  0  0  0  0
  6  7  1  0  0  0  0
  6 18  1  0  0  0  0
  7  2  1  0  0  0  0
  8  5  1  0  0  0  0
  8 11  1  0  0  0  0
  8 19  1  0  0  0  0
  9  1  1  0  0  0  0
  9 20  1  0  0  0  0
  9 21  1  0  0  0  0
  9 22  1  0  0  0  0
 10 14  1  0  0  0  0
 10 23  1  0  0  0  0
 11 24  1  0  0  0  0
 12  5  1  0  0  0  0
 12 25  1  0  0  0  0
 13 15  1  0  0  0  0
 13 12  2  0  0  0  0
 13 26  1  0  0  0  0
 14  8  1  0  0  0  0
 14 27  1  0  0  0  0
 14 28  1  0  0  0  0
 15  7  2  0  0  0  0
 15 29  1  0  0  0  0
 16 10  1  0  0  0  0
 16 30  1  0  0  0  0
 16 31  1  0  0  0  0
 16 32  1  0  0  0  0
M  END
>  <DRUGBANK_ID>
DB16623

>  <COMMON_NAME>
Amidephrine

>  <CAS_NUMBER>
37571-84-9

>  <UNII>
7E2P22546V

>  <SYNONYMS>
Amidefrine; Amidephrine

$$$$
