
 OpenBabel10282417133D

 39 38  0  0  0  0  0  0  0  0999 V2000
   -4.4112   -3.0983   -6.0821 C   0  0  0  0  0  0  0  0  0  0  0  0
   -3.6389   -2.2305   -6.4651 O   0  0  0  0  0  0  0  0  0  0  0  0
   -4.7718   -3.3826   -4.6238 C   0  0  1  0  0  0  0  0  0  0  0  0
   -6.2155   -3.2224   -4.3828 N   0  0  0  0  0  0  0  0  0  0  0  0
   -1.9275   -5.5056   -1.6395 N   0  0  0  0  0  0  0  0  0  0  0  0
   -2.3462   -4.1652   -2.0715 C   0  0  0  0  0  0  0  0  0  0  0  0
   -4.3100   -4.7954   -4.2469 C   0  0  0  0  0  0  0  0  0  0  0  0
   -2.0050   -3.9870   -3.5407 C   0  0  0  0  0  0  0  0  0  0  0  0
   -2.7916   -4.9550   -4.4236 C   0  0  0  0  0  0  0  0  0  0  0  0
   -4.9840   -3.9476   -6.9588 O   0  0  0  0  0  0  0  0  0  0  0  0
   -2.2330   -5.6900   -0.2050 C   0  0  2  0  0  0  0  0  0  0  0  0
   -1.4035   -4.7394    0.6842 C   0  0  0  0  0  0  0  0  0  0  0  0
   -1.5197   -4.6080    1.8985 O   0  0  0  0  0  0  0  0  0  0  0  0
   -0.4648   -4.0160    0.0416 O   0  0  0  0  0  0  0  0  0  0  0  0
   -1.9757   -7.1582    0.1863 C   0  0  0  0  0  0  0  0  0  0  0  0
   -2.4040   -7.4859    1.6230 C   0  0  0  0  0  0  0  0  0  0  0  0
   -3.8820   -7.2357    1.8505 C   0  0  0  0  0  0  0  0  0  0  0  0
   -4.5761   -8.3096    2.2734 O   0  0  0  0  0  0  0  0  0  0  0  0
   -4.4368   -6.1622    1.6621 O   0  0  0  0  0  0  0  0  0  0  0  0
   -4.2722   -2.6302   -4.0038 H   0  0  0  0  0  0  0  0  0  0  0  0
   -6.3968   -3.3518   -3.3875 H   0  0  0  0  0  0  0  0  0  0  0  0
   -6.4701   -2.2570   -4.5915 H   0  0  0  0  0  0  0  0  0  0  0  0
   -2.4486   -6.2056   -2.1676 H   0  0  0  0  0  0  0  0  0  0  0  0
   -1.8512   -3.3549   -1.5356 H   0  0  0  0  0  0  0  0  0  0  0  0
   -3.4140   -4.0143   -1.8768 H   0  0  0  0  0  0  0  0  0  0  0  0
   -4.6025   -5.0217   -3.2135 H   0  0  0  0  0  0  0  0  0  0  0  0
   -4.8168   -5.5528   -4.8551 H   0  0  0  0  0  0  0  0  0  0  0  0
   -0.9280   -4.1223   -3.6945 H   0  0  0  0  0  0  0  0  0  0  0  0
   -2.2073   -2.9470   -3.8209 H   0  0  0  0  0  0  0  0  0  0  0  0
   -2.5093   -5.9898   -4.2007 H   0  0  0  0  0  0  0  0  0  0  0  0
   -2.5044   -4.7960   -5.4674 H   0  0  0  0  0  0  0  0  0  0  0  0
   -4.6493   -3.6774   -7.8362 H   0  0  0  0  0  0  0  0  0  0  0  0
   -3.2937   -5.4520   -0.1056 H   0  0  0  0  0  0  0  0  0  0  0  0
   -0.0948   -3.4029    0.7031 H   0  0  0  0  0  0  0  0  0  0  0  0
   -2.5065   -7.8363   -0.4980 H   0  0  0  0  0  0  0  0  0  0  0  0
   -0.9055   -7.3814    0.0733 H   0  0  0  0  0  0  0  0  0  0  0  0
   -2.1516   -8.5283    1.8450 H   0  0  0  0  0  0  0  0  0  0  0  0
   -1.8425   -6.8947    2.3507 H   0  0  0  0  0  0  0  0  0  0  0  0
   -4.0501   -9.1135    2.4302 H   0  0  0  0  0  0  0  0  0  0  0  0
  1  2  2  0  0  0  0
  1  3  1  0  0  0  0
  3  4  1  0  0  0  0
  3  7  1  0  0  0  0
  3 20  1  1  0  0  0
  4 21  1  0  0  0  0
  4 22  1  0  0  0  0
  5  6  1  0  0  0  0
  5 23  1  0  0  0  0
  6  8  1  0  0  0  0
  6 24  1  0  0  0  0
  6 25  1  0  0  0  0
  7  9  1  0  0  0  0
  7 26  1  0  0  0  0
  7 27  1  0  0  0  0
  8  9  1  0  0  0  0
  8 28  1  0  0  0  0
  8 29  1  0  0  0  0
  9 30  1  0  0  0  0
  9 31  1  0  0  0  0
 10  1  1  0  0  0  0
 10 32  1  0  0  0  0
 11 33  1  1  0  0  0
 11 12  1  0  0  0  0
 11  5  1  0  0  0  0
 13 12  2  0  0  0  0
 14 12  1  0  0  0  0
 14 34  1  0  0  0  0
 15 11  1  0  0  0  0
 15 35  1  0  0  0  0
 15 36  1  0  0  0  0
 16 15  1  0  0  0  0
 16 17  1  0  0  0  0
 16 37  1  0  0  0  0
 16 38  1  0  0  0  0
 18 17  1  0  0  0  0
 18 39  1  0  0  0  0
 19 17  2  0  0  0  0
M  END
>  <DRUGBANK_ID>
DB04207

>  <SECONDARY_ACCESSION_NUMBERS>
EXPT02906

>  <COMMON_NAME>
L-Saccharopine

>  <CAS_NUMBER>
997-68-2

>  <UNII>
WBQ73O8W32

>  <SYNONYMS>
epsilon-N-(L-Glutar-2-yl)-L-lysine; N-[(S)-5-Amino-5-carboxypentyl]-L-glutamic acid; N6-(L-1,3-Dicarboxypropyl)-L-lysine; Saccharopine

$$$$
