
 OpenBabel10282417183D

 51 54  0  0  1  0  0  0  0  0999 V2000
    0.9094    0.0059    0.0901 C   0  0  0  0  0  0  0  0  0  0  0  0
    0.3363    0.7742    1.1381 O   0  0  0  0  0  0  0  0  0  0  0  0
    0.7865    0.5174    2.4039 C   0  0  0  0  0  0  0  0  0  0  0  0
    2.1001    0.2026    2.7349 C   0  0  0  0  0  0  0  0  0  0  0  0
    2.4640    0.0903    4.0774 C   0  0  0  0  0  0  0  0  0  0  0  0
    1.5221    0.3207    5.0881 C   0  0  0  0  0  0  0  0  0  0  0  0
    0.2035    0.6852    4.7757 C   0  0  0  0  0  0  0  0  0  0  0  0
   -0.1553    0.7173    3.4208 C   0  0  0  0  0  0  0  0  0  0  0  0
   -0.7157    0.9579    5.8257 N   0  0  0  0  0  0  0  0  0  0  0  0
   -1.9806    1.4696    5.6151 C   0  0  0  0  0  0  0  0  0  0  0  0
   -2.4233    2.7651    6.0783 C   0  0  0  0  0  0  0  0  0  0  0  0
   -1.7927    3.8825    6.6472 C   0  0  0  0  0  0  0  0  0  0  0  0
   -2.8679    4.8068    6.9106 C   0  0  0  0  0  0  0  0  0  0  0  0
   -3.9253    4.4239    6.1101 C   0  0  0  0  0  0  0  0  0  0  0  0
   -3.6978    3.1372    5.7246 N   0  0  0  0  0  0  0  0  0  0  0  0
   -4.5742    2.3924    5.0500 N   0  0  0  0  0  0  0  0  0  0  0  0
   -4.1160    1.2134    4.7445 C   0  0  0  0  0  0  0  0  0  0  0  0
   -2.8648    0.7371    4.9798 N   0  0  0  0  0  0  0  0  0  0  0  0
   -0.3047    4.1548    6.8189 C   0  0  0  0  0  0  0  0  0  0  0  0
    0.2927    5.1952    5.9530 N   0  0  0  0  0  0  0  0  0  0  0  0
   -0.2438    6.5452    6.0832 C   0  0  0  0  0  0  0  0  0  0  0  0
   -1.3994    6.8017    5.1174 C   0  0  0  0  0  0  0  0  0  0  0  0
   -1.1001    6.4793    3.6603 C   0  0  2  0  0  0  0  0  0  0  0  0
   -0.4032    5.0998    3.5077 C   0  0  1  0  0  0  0  0  0  0  0  0
    0.7024    4.9025    4.5654 C   0  0  0  0  0  0  0  0  0  0  0  0
   -1.3549    4.0596    3.6393 O   0  0  0  0  0  0  0  0  0  0  0  0
   -0.3270    7.5912    3.1190 N   0  0  0  0  0  0  0  0  0  0  0  0
    0.5279    0.4047   -0.8556 H   0  0  0  0  0  0  0  0  0  0  0  0
    0.5884   -1.0362    0.1741 H   0  0  0  0  0  0  0  0  0  0  0  0
    1.9992    0.0782    0.0473 H   0  0  0  0  0  0  0  0  0  0  0  0
    2.8647    0.0710    1.9775 H   0  0  0  0  0  0  0  0  0  0  0  0
    3.4930   -0.1505    4.3346 H   0  0  0  0  0  0  0  0  0  0  0  0
    1.8421    0.2273    6.1231 H   0  0  0  0  0  0  0  0  0  0  0  0
   -1.1774    0.9330    3.1223 H   0  0  0  0  0  0  0  0  0  0  0  0
   -0.2397    1.3066    6.6466 H   0  0  0  0  0  0  0  0  0  0  0  0
   -2.7854    5.8043    7.3322 H   0  0  0  0  0  0  0  0  0  0  0  0
   -4.7933    4.9643    5.7490 H   0  0  0  0  0  0  0  0  0  0  0  0
   -4.8087    0.5160    4.2484 H   0  0  0  0  0  0  0  0  0  0  0  0
   -0.1357    4.4422    7.8645 H   0  0  0  0  0  0  0  0  0  0  0  0
    0.2726    3.2400    6.6808 H   0  0  0  0  0  0  0  0  0  0  0  0
   -0.5358    6.7357    7.1231 H   0  0  0  0  0  0  0  0  0  0  0  0
    0.5554    7.2721    5.8823 H   0  0  0  0  0  0  0  0  0  0  0  0
   -2.2362    6.1628    5.3218 H   0  0  0  0  0  0  0  0  0  0  0  0
   -1.8130    7.8032    5.2747 H   0  0  0  0  0  0  0  0  0  0  0  0
   -2.0721    6.4352    3.1483 H   0  0  0  0  0  0  0  0  0  0  0  0
   -0.0146    4.9808    2.4928 H   0  0  0  0  0  0  0  0  0  0  0  0
    1.5111    5.6019    4.3015 H   0  0  0  0  0  0  0  0  0  0  0  0
    1.1502    3.9058    4.4891 H   0  0  0  0  0  0  0  0  0  0  0  0
   -1.6427    4.1736    4.5527 H   0  0  0  0  0  0  0  0  0  0  0  0
   -0.5413    7.6727    2.1276 H   0  0  0  0  0  0  0  0  0  0  0  0
    0.6647    7.3721    3.1842 H   0  0  0  0  0  0  0  0  0  0  0  0
  1  2  1  0  0  0  0
  1 28  1  0  0  0  0
  1 29  1  0  0  0  0
  1 30  1  0  0  0  0
  2  3  1  0  0  0  0
  3  4  2  0  0  0  0
  3  8  1  0  0  0  0
  4  5  1  0  0  0  0
  4 31  1  0  0  0  0
  5  6  2  0  0  0  0
  5 32  1  0  0  0  0
  6  7  1  0  0  0  0
  6 33  1  0  0  0  0
  7  8  2  0  0  0  0
  7  9  1  0  0  0  0
  8 34  1  0  0  0  0
  9 10  1  0  0  0  0
  9 35  1  0  0  0  0
 10 11  1  0  0  0  0
 10 18  2  0  0  0  0
 11 12  2  0  0  0  0
 11 15  1  0  0  0  0
 12 13  1  0  0  0  0
 12 19  1  0  0  0  0
 13 14  2  0  0  0  0
 13 36  1  0  0  0  0
 14 15  1  0  0  0  0
 14 37  1  0  0  0  0
 15 16  1  0  0  0  0
 16 17  2  0  0  0  0
 17 18  1  0  0  0  0
 17 38  1  0  0  0  0
 19 20  1  0  0  0  0
 19 39  1  0  0  0  0
 19 40  1  0  0  0  0
 20 21  1  0  0  0  0
 20 25  1  0  0  0  0
 21 22  1  0  0  0  0
 21 41  1  0  0  0  0
 21 42  1  0  0  0  0
 22 23  1  0  0  0  0
 22 43  1  0  0  0  0
 22 44  1  0  0  0  0
 23 24  1  0  0  0  0
 23 45  1  6  0  0  0
 23 27  1  0  0  0  0
 24 25  1  0  0  0  0
 24 26  1  0  0  0  0
 24 46  1  6  0  0  0
 25 47  1  0  0  0  0
 25 48  1  0  0  0  0
 26 49  1  0  0  0  0
 27 50  1  0  0  0  0
 27 51  1  0  0  0  0
M  END
>  <DRUGBANK_ID>
DB11665

>  <COMMON_NAME>
BMS-690514

>  <CAS_NUMBER>
859853-30-8

>  <UNII>
VKU5X213Q7

$$$$
