FII
 OpenBabel10282417163D

 54 53  0  0  0  0  0  0  0  0999 V2000
    0.9681    0.0325    0.0737 C   0  0  0  0  0  0  0  0  0  0  0  0
    0.3762    0.1839   -1.2763 C   0  0  0  0  0  0  0  0  0  0  0  0
   -0.4991   -0.9225   -1.7479 C   0  0  0  0  0  0  0  0  0  0  0  0
    0.6505    1.2415   -2.0547 C   0  0  0  0  0  0  0  0  0  0  0  0
    1.6285    2.3562   -1.7398 C   0  0  0  0  0  0  0  0  0  0  0  0
    2.9020    2.4657   -2.6192 C   0  0  0  0  0  0  0  0  0  0  0  0
    2.6409    2.8895   -4.0494 C   0  0  0  0  0  0  0  0  0  0  0  0
    3.2196    4.1035   -4.6581 C   0  0  0  0  0  0  0  0  0  0  0  0
    1.7967    2.2036   -4.8115 C   0  0  0  0  0  0  0  0  0  0  0  0
    1.4004    2.3561   -6.2431 C   0  0  0  0  0  0  0  0  0  0  0  0
    1.8173    1.1264   -7.0280 C   0  0  0  0  0  0  0  0  0  0  0  0
    0.9399   -0.0045   -6.5431 C   0  0  0  0  0  0  0  0  0  0  0  0
   -0.0978   -0.4559   -7.6141 C   0  0  0  0  0  0  0  0  0  0  0  0
    1.3197   -0.5696   -5.3422 C   0  0  0  0  0  0  0  0  0  0  0  0
    0.9098   -1.8691   -4.7752 C   0  0  0  0  0  0  0  0  0  0  0  0
    1.9932   -2.8034   -4.4987 O   0  0  0  0  0  0  0  0  0  0  0  0
    2.8900   -3.2668   -5.5092 N   0  0  0  0  0  0  0  0  0  0  0  0
    2.8699   -3.1885   -6.8854 C   0  0  0  0  0  0  0  0  0  0  0  0
    3.8040   -3.4149   -7.5979 O   0  0  0  0  0  0  0  0  0  0  0  0
    1.6115   -2.6951   -7.4337 C   0  0  0  0  0  0  0  0  0  0  0  0
    0.1922   -3.7406   -7.2108 P   0  0  0  0  0  0  0  0  0  0  0  0
   -0.1552   -4.5390   -8.4109 O   0  0  0  0  0  0  0  0  0  0  0  0
    0.5543   -4.5912   -5.8928 O   0  0  0  0  0  0  0  0  0  0  0  0
   -1.1827   -3.1558   -6.5779 O   0  0  0  0  0  0  0  0  0  0  0  0
    0.6239   -0.8827    0.5581 H   0  0  0  0  0  0  0  0  0  0  0  0
    0.6345    0.8824    0.6742 H   0  0  0  0  0  0  0  0  0  0  0  0
    2.0596    0.0089    0.0197 H   0  0  0  0  0  0  0  0  0  0  0  0
   -1.3982   -0.5863   -2.2731 H   0  0  0  0  0  0  0  0  0  0  0  0
    0.1445   -1.4761   -2.3989 H   0  0  0  0  0  0  0  0  0  0  0  0
   -0.7572   -1.6694   -0.9973 H   0  0  0  0  0  0  0  0  0  0  0  0
    0.0857    1.3116   -2.9815 H   0  0  0  0  0  0  0  0  0  0  0  0
    1.0774    3.2990   -1.7936 H   0  0  0  0  0  0  0  0  0  0  0  0
    1.9724    2.2543   -0.7062 H   0  0  0  0  0  0  0  0  0  0  0  0
    3.5706    3.1991   -2.1525 H   0  0  0  0  0  0  0  0  0  0  0  0
    3.4547    1.5123   -2.5982 H   0  0  0  0  0  0  0  0  0  0  0  0
    3.8199    3.8224   -5.5307 H   0  0  0  0  0  0  0  0  0  0  0  0
    2.3820    4.7282   -4.9958 H   0  0  0  0  0  0  0  0  0  0  0  0
    3.8192    4.6740   -3.9572 H   0  0  0  0  0  0  0  0  0  0  0  0
    1.3415    1.3798   -4.3137 H   0  0  0  0  0  0  0  0  0  0  0  0
    0.3079    2.4396   -6.2716 H   0  0  0  0  0  0  0  0  0  0  0  0
    1.8262    3.2430   -6.7039 H   0  0  0  0  0  0  0  0  0  0  0  0
    1.6894    1.2867   -8.1037 H   0  0  0  0  0  0  0  0  0  0  0  0
    2.8827    0.8742   -6.9006 H   0  0  0  0  0  0  0  0  0  0  0  0
    0.0751   -1.3892   -8.1447 H   0  0  0  0  0  0  0  0  0  0  0  0
   -1.0989   -0.5986   -7.2174 H   0  0  0  0  0  0  0  0  0  0  0  0
   -0.0648    0.1856   -8.5023 H   0  0  0  0  0  0  0  0  0  0  0  0
    2.2078   -0.2141   -4.8122 H   0  0  0  0  0  0  0  0  0  0  0  0
    0.2127   -1.9159   -3.9660 H   0  0  0  0  0  0  0  0  0  0  0  0
    0.2119   -2.2313   -5.4756 H   0  0  0  0  0  0  0  0  0  0  0  0
    3.6930   -3.7895   -5.1667 H   0  0  0  0  0  0  0  0  0  0  0  0
    1.6515   -1.8907   -6.7793 H   0  0  0  0  0  0  0  0  0  0  0  0
    1.8098   -2.0985   -8.3347 H   0  0  0  0  0  0  0  0  0  0  0  0
    1.1018   -4.0950   -5.2351 H   0  0  0  0  0  0  0  0  0  0  0  0
   -1.7779   -3.9332   -6.4381 H   0  0  0  0  0  0  0  0  0  0  0  0
  1  2  1  0  0  0  0
  1 25  1  0  0  0  0
  1 26  1  0  0  0  0
  1 27  1  0  0  0  0
  2  3  1  0  0  0  0
  2  4  2  0  0  0  0
  3 28  1  0  0  0  0
  3 29  1  0  0  0  0
  3 30  1  0  0  0  0
  4  5  1  0  0  0  0
  4 31  1  0  0  0  0
  5  6  1  0  0  0  0
  5 32  1  0  0  0  0
  5 33  1  0  0  0  0
  6  7  1  0  0  0  0
  6 34  1  0  0  0  0
  6 35  1  0  0  0  0
  7  8  1  0  0  0  0
  7  9  2  0  0  0  0
  8 36  1  0  0  0  0
  8 37  1  0  0  0  0
  8 38  1  0  0  0  0
  9 10  1  0  0  0  0
  9 39  1  0  0  0  0
 10 11  1  0  0  0  0
 10 40  1  0  0  0  0
 10 41  1  0  0  0  0
 11 12  1  0  0  0  0
 11 42  1  0  0  0  0
 11 43  1  0  0  0  0
 12 13  1  0  0  0  0
 12 14  2  0  0  0  0
 13 44  1  0  0  0  0
 13 45  1  0  0  0  0
 13 46  1  0  0  0  0
 14 15  1  0  0  0  0
 14 47  1  0  0  0  0
 15 16  1  0  0  0  0
 15 48  1  0  0  0  0
 15 49  1  0  0  0  0
 16 17  1  0  0  0  0
 17 18  1  0  0  0  0
 17 50  1  0  0  0  0
 18 19  2  0  0  0  0
 18 20  1  0  0  0  0
 20 21  1  0  0  0  0
 20 51  1  0  0  0  0
 20 52  1  0  0  0  0
 21 22  2  0  0  0  0
 21 23  1  0  0  0  0
 21 24  1  0  0  0  0
 23 53  1  0  0  0  0
 24 54  1  0  0  0  0
M  END
>  <DRUGBANK_ID>
DB07771

>  <COMMON_NAME>
[(3,7,11-TRIMETHYL-DODECA-2,6,10-TRIENYLOXYCARBAMOYL)-METHYL]-PHOSPHONIC ACID

$$$$
