XY2
 OpenBabel10282417173D

 36 37  0  0  0  0  0  0  0  0999 V2000
   -0.8719   -1.5644   -0.0119 C   0  0  0  0  0  0  0  0  0  0  0  0
    0.3349   -0.8459   -0.0136 C   0  0  0  0  0  0  0  0  0  0  0  0
    0.3362    0.6148    0.0072 C   0  0  0  0  0  0  0  0  0  0  0  0
   -1.7623    7.9240   -1.1943 C   0  0  0  0  0  0  0  0  0  0  0  0
   -0.6336    6.9177   -1.2175 C   0  0  0  0  0  0  0  0  0  0  0  0
    0.5299    7.3173   -1.0993 O   0  0  0  0  0  0  0  0  0  0  0  0
   -0.9489    5.5770   -1.3727 N   0  0  0  0  0  0  0  0  0  0  0  0
   -2.2795    5.1498   -1.7893 C   0  0  0  0  0  0  0  0  0  0  0  0
    0.1403    4.5652   -1.2491 C   0  0  0  0  0  0  0  0  0  0  0  0
    0.1787    3.7103    0.0448 C   0  0  0  0  0  0  0  0  0  0  0  0
   -0.9490    2.7676    0.1707 N   0  0  0  0  0  0  0  0  0  0  0  0
   -2.2420    3.3063    0.5151 C   0  0  0  0  0  0  0  0  0  0  0  0
    1.6146   -1.2483   -0.0185 N   0  0  0  0  0  0  0  0  0  0  0  0
    2.3885   -0.1140   -0.0084 O   0  0  0  0  0  0  0  0  0  0  0  0
    1.6151    1.0154    0.0023 N   0  0  0  0  0  0  0  0  0  0  0  0
   -0.9028   -3.0050   -0.0062 N   0  3  0  0  0  0  0  0  0  0  0  0
    0.1759   -3.6239   -0.0041 O   0  5  0  0  0  0  0  0  0  0  0  0
   -2.0108   -3.5421   -0.0021 O   0  0  0  0  0  0  0  0  0  0  0  0
   -2.0625   -0.8260   -0.0100 C   0  0  0  0  0  0  0  0  0  0  0  0
   -2.0369    0.5781    0.0119 C   0  0  0  0  0  0  0  0  0  0  0  0
   -0.8579    1.3909    0.0528 C   0  0  0  0  0  0  0  0  0  0  0  0
   -1.6472    8.5510   -0.3080 H   0  0  0  0  0  0  0  0  0  0  0  0
   -1.7148    8.5259   -2.1049 H   0  0  0  0  0  0  0  0  0  0  0  0
   -2.7631    7.5050   -1.1090 H   0  0  0  0  0  0  0  0  0  0  0  0
   -2.2247    4.3785   -2.5559 H   0  0  0  0  0  0  0  0  0  0  0  0
   -2.8494    4.8192   -0.9425 H   0  0  0  0  0  0  0  0  0  0  0  0
   -2.9331    5.9487   -2.1217 H   0  0  0  0  0  0  0  0  0  0  0  0
    1.1085    5.0866   -1.2761 H   0  0  0  0  0  0  0  0  0  0  0  0
    0.1255    3.9254   -2.1383 H   0  0  0  0  0  0  0  0  0  0  0  0
    0.2140    4.3511    0.9331 H   0  0  0  0  0  0  0  0  0  0  0  0
    1.1439    3.2023    0.0447 H   0  0  0  0  0  0  0  0  0  0  0  0
   -2.9010    3.1121   -0.3425 H   0  0  0  0  0  0  0  0  0  0  0  0
   -2.7322    2.8556    1.3784 H   0  0  0  0  0  0  0  0  0  0  0  0
   -2.1533    4.3684    0.7533 H   0  0  0  0  0  0  0  0  0  0  0  0
   -3.0362   -1.3163   -0.0108 H   0  0  0  0  0  0  0  0  0  0  0  0
   -3.0244    1.0444    0.0073 H   0  0  0  0  0  0  0  0  0  0  0  0
  1  2  1  0  0  0  0
  1 16  1  0  0  0  0
  1 19  2  0  0  0  0
  2  3  1  0  0  0  0
  2 13  2  0  0  0  0
  3 15  2  0  0  0  0
  3 21  1  0  0  0  0
  4  5  1  0  0  0  0
  4 22  1  0  0  0  0
  4 23  1  0  0  0  0
  4 24  1  0  0  0  0
  5  6  2  0  0  0  0
  5  7  1  0  0  0  0
  7  8  1  0  0  0  0
  7  9  1  0  0  0  0
  8 25  1  0  0  0  0
  8 26  1  0  0  0  0
  8 27  1  0  0  0  0
  9 10  1  0  0  0  0
  9 28  1  0  0  0  0
  9 29  1  0  0  0  0
 10 11  1  0  0  0  0
 10 30  1  0  0  0  0
 10 31  1  0  0  0  0
 11 12  1  0  0  0  0
 11 21  1  0  0  0  0
 12 32  1  0  0  0  0
 12 33  1  0  0  0  0
 12 34  1  0  0  0  0
 13 14  1  0  0  0  0
 14 15  1  0  0  0  0
 16 17  1  0  0  0  0
 16 18  2  0  0  0  0
 19 20  1  0  0  0  0
 19 35  1  0  0  0  0
 20 21  2  0  0  0  0
 20 36  1  0  0  0  0
M  CHG  2  16   1  17  -1
M  END
>  <DRUGBANK_ID>
DB08751

>  <COMMON_NAME>
N,N'-DIMETHYL-N-(ACETYL)-N'-(7-NITROBENZ-2-OXA-1,3-DIAZOL-4-YL)ETHYLENEDIAMINE

$$$$
