
 OpenBabel10282417123D

 22 21  0  0  1  0  0  0  0  0999 V2000
    0.7443    2.5174   -1.2077 C   0  0  0  0  0  0  0  0  0  0  0  0
    0.4292    1.5468   -0.0105 C   0  0  2  0  0  0  0  0  0  0  0  0
    0.9612    0.1413   -0.0826 O   0  0  0  0  0  0  0  0  0  0  0  0
    2.6901    0.1484   -0.0208 P   0  0  0  0  0  0  0  0  0  0  0  0
    2.5933   -1.2896   -0.7998 O   0  0  0  0  0  0  0  0  0  0  0  0
    2.7085    0.9946   -1.4040 O   0  0  0  0  0  0  0  0  0  0  0  0
    4.2374    0.1548    0.0345 O   0  0  0  0  0  0  0  0  0  0  0  0
   -1.1136    1.4952    0.0468 C   0  0  1  0  0  0  0  0  0  0  0  0
   -1.5737    0.6849    1.1833 N   0  0  0  0  0  0  0  0  0  0  0  0
   -1.6461    2.9365    0.1698 C   0  0  0  0  0  0  0  0  0  0  0  0
   -2.3803    3.3656   -0.8827 O   0  0  0  0  0  0  0  0  0  0  0  0
   -1.3597    3.6997    1.0966 O   0  0  0  0  0  0  0  0  0  0  0  0
    0.3754    2.0915   -2.1485 H   0  0  0  0  0  0  0  0  0  0  0  0
    1.7893    2.8023   -1.3467 H   0  0  0  0  0  0  0  0  0  0  0  0
    0.2897    3.5044   -1.0773 H   0  0  0  0  0  0  0  0  0  0  0  0
    0.8420    1.9838    0.9078 H   0  0  0  0  0  0  0  0  0  0  0  0
    2.7958   -2.0211   -0.1944 H   0  0  0  0  0  0  0  0  0  0  0  0
    2.0839    0.6065   -2.0306 H   0  0  0  0  0  0  0  0  0  0  0  0
   -1.4879    1.0321   -0.8755 H   0  0  0  0  0  0  0  0  0  0  0  0
   -2.5900    0.6372    1.1876 H   0  0  0  0  0  0  0  0  0  0  0  0
   -1.2110   -0.2618    1.0796 H   0  0  0  0  0  0  0  0  0  0  0  0
   -2.5189    2.7315   -1.6115 H   0  0  0  0  0  0  0  0  0  0  0  0
  1 13  1  0  0  0  0
  1 14  1  0  0  0  0
  1 15  1  0  0  0  0
  2  8  1  0  0  0  0
  2 16  1  1  0  0  0
  2  3  1  0  0  0  0
  2  1  1  0  0  0  0
  3  4  1  0  0  0  0
  4  5  1  0  0  0  0
  4  6  1  0  0  0  0
  4  7  2  0  0  0  0
  5 17  1  0  0  0  0
  6 18  1  0  0  0  0
  8  9  1  0  0  0  0
  8 10  1  0  0  0  0
  8 19  1  6  0  0  0
  9 20  1  0  0  0  0
  9 21  1  0  0  0  0
 10 11  1  0  0  0  0
 10 12  2  0  0  0  0
 11 22  1  0  0  0  0
M  END
>  <DRUGBANK_ID>
DB02482

>  <SECONDARY_ACCESSION_NUMBERS>
EXPT03092

>  <COMMON_NAME>
Phosphonothreonine

$$$$
