
 OpenBabel10282417143D

 23 23  0  0  1  0  0  0  0  0999 V2000
    5.3668   -4.5539    0.8406 C   0  0  0  0  0  0  0  0  0  0  0  0
    5.7803   -3.1594   -1.0699 C   0  0  0  0  0  0  0  0  0  0  0  0
    5.5312   -5.6992    0.0488 C   0  0  0  0  0  0  0  0  0  0  0  0
    5.9320   -4.3011   -1.8690 C   0  0  0  0  0  0  0  0  0  0  0  0
    5.0534   -2.0660    1.1401 C   0  0  0  0  0  0  0  0  0  0  0  0
    5.4759   -3.2596    0.2934 C   0  0  0  0  0  0  0  0  0  0  0  0
    5.8003   -5.5674   -1.3093 C   0  0  0  0  0  0  0  0  0  0  0  0
    5.7265   -0.6727    1.0379 C   0  0  2  0  0  0  0  0  0  0  0  0
    5.1772    0.1257   -0.1514 C   0  0  0  0  0  0  0  0  0  0  0  0
    5.9803   -7.2560   -2.5075 I   0  0  0  0  0  0  0  0  0  0  0  0
    7.2020   -0.6634    1.0513 N   0  0  0  0  0  0  0  0  0  0  0  0
    4.5828   -0.3121   -1.1261 O   0  0  0  0  0  0  0  0  0  0  0  0
    5.3913    1.4538   -0.0631 O   0  0  0  0  0  0  0  0  0  0  0  0
    5.3941   -0.1143    1.9265 H   0  0  0  0  0  0  0  0  0  0  0  0
    5.1115   -4.6899    1.8903 H   0  0  0  0  0  0  0  0  0  0  0  0
    5.8560   -2.1977   -1.5651 H   0  0  0  0  0  0  0  0  0  0  0  0
    5.4179   -6.6824    0.4992 H   0  0  0  0  0  0  0  0  0  0  0  0
    6.1216   -4.1775   -2.9326 H   0  0  0  0  0  0  0  0  0  0  0  0
    3.9859   -1.9251    0.9227 H   0  0  0  0  0  0  0  0  0  0  0  0
    5.1054   -2.3684    2.1954 H   0  0  0  0  0  0  0  0  0  0  0  0
    7.5438   -1.1555    1.8753 H   0  0  0  0  0  0  0  0  0  0  0  0
    7.5541   -1.1770    0.2454 H   0  0  0  0  0  0  0  0  0  0  0  0
    5.0318    1.7950   -0.9086 H   0  0  0  0  0  0  0  0  0  0  0  0
  1 15  1  0  0  0  0
  2 16  1  0  0  0  0
  3  1  1  0  0  0  0
  3 17  1  0  0  0  0
  4  2  2  0  0  0  0
  4 18  1  0  0  0  0
  5 19  1  0  0  0  0
  5 20  1  0  0  0  0
  6  1  2  0  0  0  0
  6  2  1  0  0  0  0
  6  5  1  0  0  0  0
  7  3  2  0  0  0  0
  7  4  1  0  0  0  0
  8 11  1  0  0  0  0
  8 14  1  1  0  0  0
  8  9  1  0  0  0  0
  8  5  1  0  0  0  0
 10  7  1  0  0  0  0
 11 21  1  0  0  0  0
 11 22  1  0  0  0  0
 12  9  2  0  0  0  0
 13  9  1  0  0  0  0
 13 23  1  0  0  0  0
M  END
>  <DRUGBANK_ID>
DB04713

>  <COMMON_NAME>
4-Iodo-D-phenylalanine

>  <CAS_NUMBER>
62561-75-5

>  <SYNONYMS>
D-p-Iodophenylalanine

$$$$
