
 OpenBabel10282417203D

 73 76  0  0  0  0  0  0  0  0999 V2000
    1.1275    0.0326    0.0291 C   0  0  0  0  0  0  0  0  0  0  0  0
    0.6443   -0.8677   -0.9011 C   0  0  0  0  0  0  0  0  0  0  0  0
    1.0253   -2.2857   -0.3841 C   0  0  0  0  0  0  0  0  0  0  0  0
   -0.0398   -2.8514    0.4376 C   0  0  0  0  0  0  0  0  0  0  0  0
    0.1607   -4.3090    0.3996 C   0  0  0  0  0  0  0  0  0  0  0  0
    0.2079   -4.9123    1.6229 C   0  0  0  0  0  0  0  0  0  0  0  0
   -0.0177   -4.0784    2.7363 C   0  0  0  0  0  0  0  0  0  0  0  0
   -0.3688   -2.6479    2.6474 C   0  0  0  0  0  0  0  0  0  0  0  0
   -0.5818   -1.9769    1.4325 C   0  0  0  0  0  0  0  0  0  0  0  0
   -0.9249   -0.4548    1.4541 O   0  0  0  0  0  0  0  0  0  0  0  0
   -1.2318    0.7201    0.2856 C   0  0  0  0  0  0  0  0  0  0  0  0
   -1.9995    0.2220   -0.8040 C   0  0  0  0  0  0  0  0  0  0  0  0
   -1.6861    0.6810   -2.1434 C   0  0  0  0  0  0  0  0  0  0  0  0
   -0.7309    1.6871   -2.4312 C   0  0  0  0  0  0  0  0  0  0  0  0
   -0.0622    2.3682   -1.3899 C   0  0  0  0  0  0  0  0  0  0  0  0
   -0.2526    1.9980    0.0043 C   0  0  0  0  0  0  0  0  0  0  0  0
    1.2025    2.5075    0.7908 C   0  0  0  0  0  0  0  0  0  0  0  0
    2.1778    2.9068    0.2546 O   0  0  0  0  0  0  0  0  0  0  0  0
    1.3484    2.0398    2.0877 O   0  0  0  0  0  0  0  0  0  0  0  0
    0.3495   -5.1453   -0.7047 O   0  0  0  0  0  0  0  0  0  0  0  0
    0.5897   -4.7789   -2.0962 C   0  0  0  0  0  0  0  0  0  0  0  0
   -0.4374   -3.9331   -2.8634 C   0  0  0  0  0  0  0  0  0  0  0  0
   -0.4314   -2.5174   -2.4400 C   0  0  0  0  0  0  0  0  0  0  0  0
    1.0553   -1.7876   -2.8417 O   0  0  0  0  0  0  0  0  0  0  0  0
    2.5795   -1.7112   -2.1040 C   0  0  0  0  0  0  0  0  0  0  0  0
    3.0953   -2.8001   -2.7565 C   0  0  0  0  0  0  0  0  0  0  0  0
    4.0103   -3.5184   -2.0223 C   0  0  0  0  0  0  0  0  0  0  0  0
    4.7335   -3.0008   -0.9173 C   0  0  0  0  0  0  0  0  0  0  0  0
    4.5119   -1.7608   -0.3814 C   0  0  0  0  0  0  0  0  0  0  0  0
    3.3271   -1.1734   -0.6846 C   0  0  0  0  0  0  0  0  0  0  0  0
    3.2135   -0.4557    0.9574 C   0  0  0  0  0  0  0  0  0  0  0  0
    2.9828   -1.1201    2.3798 C   0  0  0  0  0  0  0  0  0  0  0  0
    5.9482   -3.6035   -0.4676 C   0  0  0  0  0  0  0  0  0  0  0  0
    6.8952   -3.7070   -1.4840 C   0  0  0  0  0  0  0  0  0  0  0  0
    8.1817   -4.0453   -1.1805 C   0  0  0  0  0  0  0  0  0  0  0  0
    8.5195   -4.2347    0.1510 C   0  0  0  0  0  0  0  0  0  0  0  0
    7.6003   -4.0667    1.1891 C   0  0  0  0  0  0  0  0  0  0  0  0
    6.2785   -3.7936    0.8820 C   0  0  0  0  0  0  0  0  0  0  0  0
    9.7682   -4.6090    0.4396 F   0  0  0  0  0  0  0  0  0  0  0  0
    4.2064   -4.8354   -2.3545 O   0  0  0  0  0  0  0  0  0  0  0  0
    1.2346   -0.7235    0.7709 H   0  0  0  0  0  0  0  0  0  0  0  0
    0.7034    0.5037    0.8720 H   0  0  0  0  0  0  0  0  0  0  0  0
    1.9305    0.6405   -0.4174 H   0  0  0  0  0  0  0  0  0  0  0  0
   -0.3797   -0.8942   -1.0532 H   0  0  0  0  0  0  0  0  0  0  0  0
    0.9724   -0.2883   -1.7890 H   0  0  0  0  0  0  0  0  0  0  0  0
    1.1216   -2.9566   -1.1798 H   0  0  0  0  0  0  0  0  0  0  0  0
    1.9733   -2.5641    0.0958 H   0  0  0  0  0  0  0  0  0  0  0  0
    0.4553   -5.9726    1.7011 H   0  0  0  0  0  0  0  0  0  0  0  0
    0.0406   -4.5548    3.7150 H   0  0  0  0  0  0  0  0  0  0  0  0
   -0.3283   -2.0885    3.5763 H   0  0  0  0  0  0  0  0  0  0  0  0
   -2.4534   -0.7684   -0.7133 H   0  0  0  0  0  0  0  0  0  0  0  0
   -1.9817    0.0629   -3.0043 H   0  0  0  0  0  0  0  0  0  0  0  0
   -0.3950    1.8186   -3.4725 H   0  0  0  0  0  0  0  0  0  0  0  0
    0.7951    2.9860   -1.7085 H   0  0  0  0  0  0  0  0  0  0  0  0
    2.3232    1.8796    2.1965 H   0  0  0  0  0  0  0  0  0  0  0  0
    1.5845   -4.3777   -2.1052 H   0  0  0  0  0  0  0  0  0  0  0  0
    0.7712   -5.6543   -2.7319 H   0  0  0  0  0  0  0  0  0  0  0  0
   -0.1946   -3.7897   -3.9117 H   0  0  0  0  0  0  0  0  0  0  0  0
   -1.4424   -4.3634   -2.7553 H   0  0  0  0  0  0  0  0  0  0  0  0
   -1.2705   -1.9188   -2.8219 H   0  0  0  0  0  0  0  0  0  0  0  0
   -0.8264   -2.5819   -1.4149 H   0  0  0  0  0  0  0  0  0  0  0  0
    2.5296   -3.2418   -3.5691 H   0  0  0  0  0  0  0  0  0  0  0  0
    5.1327   -1.3796    0.4316 H   0  0  0  0  0  0  0  0  0  0  0  0
    3.8608    0.4232    0.9189 H   0  0  0  0  0  0  0  0  0  0  0  0
    2.4535    0.2139    1.2628 H   0  0  0  0  0  0  0  0  0  0  0  0
    3.9097   -1.2427    2.9268 H   0  0  0  0  0  0  0  0  0  0  0  0
    2.3922   -0.4164    3.0329 H   0  0  0  0  0  0  0  0  0  0  0  0
    2.3352   -2.0001    2.3996 H   0  0  0  0  0  0  0  0  0  0  0  0
    6.5974   -3.4728   -2.5060 H   0  0  0  0  0  0  0  0  0  0  0  0
    8.8967   -4.1337   -1.9830 H   0  0  0  0  0  0  0  0  0  0  0  0
    7.9273   -4.1379    2.2196 H   0  0  0  0  0  0  0  0  0  0  0  0
    5.5366   -3.6783    1.6734 H   0  0  0  0  0  0  0  0  0  0  0  0
    3.4877   -5.1098   -2.9446 H   0  0  0  0  0  0  0  0  0  0  0  0
  1  2  1  0  0  0  0
  1 41  1  0  0  0  0
  1 42  1  0  0  0  0
  1 43  1  0  0  0  0
  2  3  1  0  0  0  0
  2 44  1  0  0  0  0
  2 45  1  0  0  0  0
  3  4  1  0  0  0  0
  3 46  1  0  0  0  0
  3 47  1  0  0  0  0
  4  5  2  0  0  0  0
  4  9  1  0  0  0  0
  5  6  1  0  0  0  0
  5 20  1  0  0  0  0
  6  7  2  0  0  0  0
  6 48  1  0  0  0  0
  7  8  1  0  0  0  0
  7 49  1  0  0  0  0
  8  9  2  0  0  0  0
  8 50  1  0  0  0  0
  9 10  1  0  0  0  0
 10 11  1  0  0  0  0
 11 12  2  0  0  0  0
 11 16  1  0  0  0  0
 12 13  1  0  0  0  0
 12 51  1  0  0  0  0
 13 14  2  0  0  0  0
 13 52  1  0  0  0  0
 14 15  1  0  0  0  0
 14 53  1  0  0  0  0
 15 16  2  0  0  0  0
 15 54  1  0  0  0  0
 16 17  1  0  0  0  0
 17 18  2  0  0  0  0
 17 19  1  0  0  0  0
 19 55  1  0  0  0  0
 20 21  1  0  0  0  0
 21 22  1  0  0  0  0
 21 56  1  0  0  0  0
 21 57  1  0  0  0  0
 22 23  1  0  0  0  0
 22 58  1  0  0  0  0
 22 59  1  0  0  0  0
 23 24  1  0  0  0  0
 23 60  1  0  0  0  0
 23 61  1  0  0  0  0
 24 25  1  0  0  0  0
 25 26  2  0  0  0  0
 25 30  1  0  0  0  0
 26 27  1  0  0  0  0
 26 62  1  0  0  0  0
 27 28  2  0  0  0  0
 27 40  1  0  0  0  0
 28 29  1  0  0  0  0
 28 33  1  0  0  0  0
 29 30  2  0  0  0  0
 29 63  1  0  0  0  0
 30 31  1  0  0  0  0
 31 32  1  0  0  0  0
 31 64  1  0  0  0  0
 31 65  1  0  0  0  0
 32 66  1  0  0  0  0
 32 67  1  0  0  0  0
 32 68  1  0  0  0  0
 33 34  2  0  0  0  0
 33 38  1  0  0  0  0
 34 35  1  0  0  0  0
 34 69  1  0  0  0  0
 35 36  2  0  0  0  0
 35 70  1  0  0  0  0
 36 37  1  0  0  0  0
 36 39  1  0  0  0  0
 37 38  2  0  0  0  0
 37 71  1  0  0  0  0
 38 72  1  0  0  0  0
 40 73  1  0  0  0  0
M  END
>  <DRUGBANK_ID>
DB12850

>  <COMMON_NAME>
Etalocib

>  <CAS_NUMBER>
161172-51-6

>  <UNII>
THY6RIW44R

>  <SYNONYMS>
Etalocib

$$$$
