
 OpenBabel10282417133D

 37 39  0  0  0  0  0  0  0  0999 V2000
    0.8893   -0.1226    0.1601 F   0  0  0  0  0  0  0  0  0  0  0  0
    2.2463   -0.0739    0.0705 C   0  0  0  0  0  0  0  0  0  0  0  0
    2.6755    0.5543    1.2003 F   0  0  0  0  0  0  0  0  0  0  0  0
    2.6762   -1.3626    0.1765 F   0  0  0  0  0  0  0  0  0  0  0  0
    2.7172    0.6208   -1.1781 C   0  0  0  0  0  0  0  0  0  0  0  0
    2.4436    1.9834   -1.3792 C   0  0  0  0  0  0  0  0  0  0  0  0
    2.8780    2.6416   -2.5383 C   0  0  0  0  0  0  0  0  0  0  0  0
    3.4514   -0.0672   -2.1431 C   0  0  0  0  0  0  0  0  0  0  0  0
    3.9218    0.6061   -3.2641 C   0  0  0  0  0  0  0  0  0  0  0  0
    3.6065    1.9505   -3.5118 C   0  0  0  0  0  0  0  0  0  0  0  0
    4.0311    2.5762   -4.6889 N   0  0  0  0  0  0  0  0  0  0  0  0
    4.5942    1.9551   -5.8080 C   0  0  0  0  0  0  0  0  0  0  0  0
    5.6875    2.5053   -6.3436 N   0  0  0  0  0  0  0  0  0  0  0  0
    6.3058    1.7994   -7.3155 C   0  0  0  0  0  0  0  0  0  0  0  0
    5.8296    0.6175   -7.8259 C   0  0  0  0  0  0  0  0  0  0  0  0
    4.0512    0.8126   -6.2526 N   0  0  0  0  0  0  0  0  0  0  0  0
    4.6638    0.1670   -7.2658 C   0  0  0  0  0  0  0  0  0  0  0  0
    3.9018   -0.9566   -7.8040 C   0  0  0  0  0  0  0  0  0  0  0  0
    4.5637   -2.5328   -7.9612 S   0  0  0  0  0  0  0  0  0  0  0  0
    2.5951   -0.9594   -8.2679 C   0  0  0  0  0  0  0  0  0  0  0  0
    1.6745    0.2061   -8.3363 C   0  0  0  0  0  0  0  0  0  0  0  0
    2.1389   -2.1790   -8.7440 N   0  0  0  0  0  0  0  0  0  0  0  0
    3.0775   -3.0919   -8.6251 C   0  0  0  0  0  0  0  0  0  0  0  0
    2.8936   -4.5118   -9.0418 C   0  0  0  0  0  0  0  0  0  0  0  0
    1.8849    2.5357   -0.6245 H   0  0  0  0  0  0  0  0  0  0  0  0
    2.6448    3.6964   -2.6588 H   0  0  0  0  0  0  0  0  0  0  0  0
    3.6744   -1.1271   -2.0396 H   0  0  0  0  0  0  0  0  0  0  0  0
    4.5563    0.0556   -3.9546 H   0  0  0  0  0  0  0  0  0  0  0  0
    3.8561    3.5559   -4.8262 H   0  0  0  0  0  0  0  0  0  0  0  0
    7.2257    2.2398   -7.6872 H   0  0  0  0  0  0  0  0  0  0  0  0
    6.3170    0.1119   -8.6489 H   0  0  0  0  0  0  0  0  0  0  0  0
    1.3622    0.3732   -9.3711 H   0  0  0  0  0  0  0  0  0  0  0  0
    0.7894    0.0245   -7.7210 H   0  0  0  0  0  0  0  0  0  0  0  0
    2.1454    1.1289   -7.9874 H   0  0  0  0  0  0  0  0  0  0  0  0
    2.0621   -4.9603   -8.4873 H   0  0  0  0  0  0  0  0  0  0  0  0
    2.6465   -4.5581  -10.1081 H   0  0  0  0  0  0  0  0  0  0  0  0
    3.7838   -5.1247   -8.8734 H   0  0  0  0  0  0  0  0  0  0  0  0
  2  1  1  0  0  0  0
  2  3  1  0  0  0  0
  2  4  1  0  0  0  0
  5  2  1  0  0  0  0
  5  6  1  0  0  0  0
  6  7  2  0  0  0  0
  6 25  1  0  0  0  0
  7 26  1  0  0  0  0
  8  5  2  0  0  0  0
  8 27  1  0  0  0  0
  9  8  1  0  0  0  0
  9 28  1  0  0  0  0
 10  7  1  0  0  0  0
 10  9  2  0  0  0  0
 10 11  1  0  0  0  0
 11 29  1  0  0  0  0
 12 11  1  0  0  0  0
 12 13  1  0  0  0  0
 12 16  2  0  0  0  0
 14 13  2  0  0  0  0
 14 30  1  0  0  0  0
 15 14  1  0  0  0  0
 15 31  1  0  0  0  0
 17 15  2  0  0  0  0
 17 16  1  0  0  0  0
 17 18  1  0  0  0  0
 18 19  1  0  0  0  0
 20 18  2  0  0  0  0
 20 21  1  0  0  0  0
 20 22  1  0  0  0  0
 21 32  1  0  0  0  0
 21 33  1  0  0  0  0
 21 34  1  0  0  0  0
 23 19  1  0  0  0  0
 23 22  2  0  0  0  0
 23 24  1  0  0  0  0
 24 35  1  0  0  0  0
 24 36  1  0  0  0  0
 24 37  1  0  0  0  0
M  END
>  <DRUGBANK_ID>
DB02915

>  <SECONDARY_ACCESSION_NUMBERS>
EXPT00927

>  <COMMON_NAME>
4-(2,4-Dimethyl-1,3-thiazol-5-yl)-N-[4-(trifluoromethyl)phenyl]-2-pyrimidinamine

$$$$
