RE2
 OpenBabel10282417173D

 31 32  0  0  0  0  0  0  0  0999 V2000
   -1.0918   -0.3682    0.2973 C   0  0  0  0  0  0  0  0  0  0  0  0
    0.0946   -1.0343    0.0626 C   0  0  0  0  0  0  0  0  0  0  0  0
    1.2709   -0.2988    0.0016 C   0  0  0  0  0  0  0  0  0  0  0  0
   -0.8101    3.7829   -1.2541 C   0  0  0  0  0  0  0  0  0  0  0  0
   -0.0828    3.2825    0.0377 C   0  0  0  0  0  0  0  0  0  0  0  0
    1.2533    1.1008    0.0270 C   0  0  0  0  0  0  0  0  0  0  0  0
    0.0407    1.7764    0.2138 C   0  0  0  0  0  0  0  0  0  0  0  0
   -1.0998    1.0102    0.5021 C   0  0  0  0  0  0  0  0  0  0  0  0
    2.4376   -0.9953   -0.1141 O   0  0  0  0  0  0  0  0  0  0  0  0
   -2.2539   -1.0822    0.2438 O   0  0  0  0  0  0  0  0  0  0  0  0
   -2.2626    3.3675   -1.4161 C   0  0  0  0  0  0  0  0  0  0  0  0
   -3.3291    4.2487   -1.2200 C   0  0  0  0  0  0  0  0  0  0  0  0
   -4.6521    3.7745   -1.1880 C   0  0  0  0  0  0  0  0  0  0  0  0
   -4.8894    2.4036   -1.2838 C   0  0  0  0  0  0  0  0  0  0  0  0
   -6.1336    1.8641   -1.1489 O   0  0  0  0  0  0  0  0  0  0  0  0
   -3.8544    1.5342   -1.5402 C   0  0  0  0  0  0  0  0  0  0  0  0
   -2.5644    2.0305   -1.7159 C   0  0  0  0  0  0  0  0  0  0  0  0
    0.1013   -2.1115   -0.0677 H   0  0  0  0  0  0  0  0  0  0  0  0
   -0.7608    4.8813   -1.2552 H   0  0  0  0  0  0  0  0  0  0  0  0
   -0.2554    3.4596   -2.1436 H   0  0  0  0  0  0  0  0  0  0  0  0
   -0.5729    3.6979    0.9265 H   0  0  0  0  0  0  0  0  0  0  0  0
    0.9289    3.7126    0.0256 H   0  0  0  0  0  0  0  0  0  0  0  0
    2.1729    1.6608   -0.1131 H   0  0  0  0  0  0  0  0  0  0  0  0
   -2.0316    1.5141    0.7449 H   0  0  0  0  0  0  0  0  0  0  0  0
    3.1769   -0.3792    0.0090 H   0  0  0  0  0  0  0  0  0  0  0  0
   -3.0005   -0.4592    0.2364 H   0  0  0  0  0  0  0  0  0  0  0  0
   -3.1483    5.3145   -1.0856 H   0  0  0  0  0  0  0  0  0  0  0  0
   -5.4684    4.4732   -1.0582 H   0  0  0  0  0  0  0  0  0  0  0  0
   -6.7912    2.5723   -1.2002 H   0  0  0  0  0  0  0  0  0  0  0  0
   -4.0355    0.4621   -1.5876 H   0  0  0  0  0  0  0  0  0  0  0  0
   -1.7665    1.3345   -1.9590 H   0  0  0  0  0  0  0  0  0  0  0  0
  1  8  1  0  0  0  0
  2  1  2  0  0  0  0
  2  3  1  0  0  0  0
  2 18  1  0  0  0  0
  3  6  2  0  0  0  0
  4 11  1  0  0  0  0
  4 19  1  0  0  0  0
  4 20  1  0  0  0  0
  5  4  1  0  0  0  0
  5 21  1  0  0  0  0
  5 22  1  0  0  0  0
  6  7  1  0  0  0  0
  6 23  1  0  0  0  0
  7  5  1  0  0  0  0
  8  7  2  0  0  0  0
  8 24  1  0  0  0  0
  9  3  1  0  0  0  0
  9 25  1  0  0  0  0
 10  1  1  0  0  0  0
 10 26  1  0  0  0  0
 11 12  1  0  0  0  0
 12 13  2  0  0  0  0
 12 27  1  0  0  0  0
 13 28  1  0  0  0  0
 14 13  1  0  0  0  0
 14 15  1  0  0  0  0
 15 29  1  0  0  0  0
 16 14  2  0  0  0  0
 16 30  1  0  0  0  0
 17 11  2  0  0  0  0
 17 16  1  0  0  0  0
 17 31  1  0  0  0  0
M  END
>  <DRUGBANK_ID>
DB08466

>  <COMMON_NAME>
5-[2-(4-hydroxyphenyl)ethyl]benzene-1,3-diol

>  <UNII>
CBY43AY0TT

$$$$
