
 OpenBabel10282417183D

 59 64  0  0  0  0  0  0  0  0999 V2000
    4.4971   -0.7473    0.0677 C   0  0  0  0  0  0  0  0  0  0  0  0
    0.5646    3.0128   -0.8498 C   0  0  0  0  0  0  0  0  0  0  0  0
    0.1268   -1.2308   -1.9862 C   0  0  0  0  0  0  0  0  0  0  0  0
   -1.1240   -1.7286   -1.6907 C   0  0  0  0  0  0  0  0  0  0  0  0
   -0.6972    3.4552   -0.3337 C   0  0  0  0  0  0  0  0  0  0  0  0
    1.2411   -0.7505    1.7518 C   0  0  0  0  0  0  0  0  0  0  0  0
    2.6478   -0.3567    1.5123 C   0  0  0  0  0  0  0  0  0  0  0  0
   -3.7780   -0.4748   -0.9451 C   0  0  0  0  0  0  0  0  0  0  0  0
   -3.7184   -0.5792    1.7950 C   0  0  0  0  0  0  0  0  0  0  0  0
   -4.5993    1.2941    0.4957 C   0  0  0  0  0  0  0  0  0  0  0  0
   -4.3081   -2.0195   -0.8887 C   0  0  0  0  0  0  0  0  0  0  0  0
   -4.1816   -2.0438    1.7933 C   0  0  0  0  0  0  0  0  0  0  0  0
   -3.8567    2.3748    1.3038 C   0  0  0  0  0  0  0  0  0  0  0  0
    2.1830    0.9839   -1.2941 C   0  0  0  0  0  0  0  0  0  0  0  0
    1.0064    1.6953   -0.6691 C   0  0  0  0  0  0  0  0  0  0  0  0
    1.0440   -1.2477   -0.7825 C   0  0  1  0  0  0  0  0  0  0  0  0
    2.3582   -0.5698   -0.9810 C   0  0  2  0  0  0  0  0  0  0  0  0
   -1.2069   -2.0258   -0.2386 C   0  0  1  0  0  0  0  0  0  0  0  0
   -1.5606    2.5821    0.3488 C   0  0  0  0  0  0  0  0  0  0  0  0
    0.2252    0.9187    0.1228 C   0  0  0  0  0  0  0  0  0  0  0  0
   -1.0090    1.3261    0.5716 C   0  0  0  0  0  0  0  0  0  0  0  0
   -0.7875   -0.9900    0.8109 C   0  0  1  0  0  0  0  0  0  0  0  0
    0.5133   -0.5126    0.4487 C   0  0  2  0  0  0  0  0  0  0  0  0
    3.0955   -0.9688    0.2548 N   0  0  0  0  0  0  0  0  0  0  0  0
   -3.8059    0.1094    0.4239 N   0  0  0  0  0  0  0  0  0  0  0  0
   -2.4364   -2.2059    0.2760 O   0  0  0  0  0  0  0  0  0  0  0  0
   -4.4749   -2.7047    0.4859 O   0  0  0  0  0  0  0  0  0  0  0  0
   -2.8121    3.0888    0.6084 O   0  0  0  0  0  0  0  0  0  0  0  0
   -1.5186    0.2364    1.1675 O   0  0  0  0  0  0  0  0  0  0  0  0
    1.1793   -2.3201   -0.5306 H   0  0  0  0  0  0  0  0  0  0  0  0
    2.8066   -1.0668   -1.8488 H   0  0  0  0  0  0  0  0  0  0  0  0
   -0.8395   -1.5756    1.7395 H   0  0  0  0  0  0  0  0  0  0  0  0
    4.8279   -1.3301   -0.7933 H   0  0  0  0  0  0  0  0  0  0  0  0
    4.6843    0.3126   -0.0954 H   0  0  0  0  0  0  0  0  0  0  0  0
    5.0379   -1.0927    0.9482 H   0  0  0  0  0  0  0  0  0  0  0  0
    1.1697    3.7171   -1.4126 H   0  0  0  0  0  0  0  0  0  0  0  0
    0.3559   -0.8880   -2.9677 H   0  0  0  0  0  0  0  0  0  0  0  0
   -1.8728   -1.8038   -2.4591 H   0  0  0  0  0  0  0  0  0  0  0  0
   -1.0125    4.4860   -0.5079 H   0  0  0  0  0  0  0  0  0  0  0  0
    1.1686   -1.8143    2.0473 H   0  0  0  0  0  0  0  0  0  0  0  0
    0.7825   -0.1871    2.5832 H   0  0  0  0  0  0  0  0  0  0  0  0
    3.2090   -0.7168    2.3784 H   0  0  0  0  0  0  0  0  0  0  0  0
    2.6990    0.7335    1.4879 H   0  0  0  0  0  0  0  0  0  0  0  0
   -2.7116   -0.2870   -1.2218 H   0  0  0  0  0  0  0  0  0  0  0  0
   -4.0932    0.0889   -1.8605 H   0  0  0  0  0  0  0  0  0  0  0  0
   -2.7148   -0.6769    2.2893 H   0  0  0  0  0  0  0  0  0  0  0  0
   -4.0327    0.0716    2.6294 H   0  0  0  0  0  0  0  0  0  0  0  0
   -5.5093    0.9319    0.9840 H   0  0  0  0  0  0  0  0  0  0  0  0
   -4.8884    1.6684   -0.4926 H   0  0  0  0  0  0  0  0  0  0  0  0
   -5.3162   -2.0762   -1.2662 H   0  0  0  0  0  0  0  0  0  0  0  0
   -3.7071   -2.7029   -1.5604 H   0  0  0  0  0  0  0  0  0  0  0  0
   -3.4273   -2.6354    2.3978 H   0  0  0  0  0  0  0  0  0  0  0  0
   -5.1090   -2.0803    2.3378 H   0  0  0  0  0  0  0  0  0  0  0  0
   -3.4839    2.0413    2.2755 H   0  0  0  0  0  0  0  0  0  0  0  0
   -4.6483    3.0991    1.5500 H   0  0  0  0  0  0  0  0  0  0  0  0
    3.0879    1.5031   -0.9949 H   0  0  0  0  0  0  0  0  0  0  0  0
    2.0469    1.0644   -2.3783 H   0  0  0  0  0  0  0  0  0  0  0  0
   -0.9013   -3.0530   -0.0994 H   0  0  0  0  0  0  0  0  0  0  0  0
   -2.7471   -1.2953    0.3543 H   0  0  0  0  0  0  0  0  0  0  0  0
  1 33  1  0  0  0  0
  1 34  1  0  0  0  0
  1 35  1  0  0  0  0
  2 36  1  0  0  0  0
  3 37  1  0  0  0  0
  4  3  2  0  0  0  0
  4 38  1  0  0  0  0
  5  2  2  0  0  0  0
  5 39  1  0  0  0  0
  6 40  1  0  0  0  0
  6 41  1  0  0  0  0
  7  6  1  0  0  0  0
  7 42  1  0  0  0  0
  7 43  1  0  0  0  0
  8 44  1  0  0  0  0
  8 45  1  0  0  0  0
  9 46  1  0  0  0  0
  9 47  1  0  0  0  0
 10 48  1  0  0  0  0
 10 49  1  0  0  0  0
 11  8  1  0  0  0  0
 11 50  1  0  0  0  0
 11 51  1  0  0  0  0
 12  9  1  0  0  0  0
 12 52  1  0  0  0  0
 12 53  1  0  0  0  0
 13 10  1  0  0  0  0
 13 54  1  0  0  0  0
 13 55  1  0  0  0  0
 14 56  1  0  0  0  0
 14 57  1  0  0  0  0
 15  2  1  0  0  0  0
 15 14  1  0  0  0  0
 16  3  1  0  0  0  0
 16 30  1  1  0  0  0
 17 14  1  0  0  0  0
 17 16  1  0  0  0  0
 17 31  1  6  0  0  0
 18  4  1  0  0  0  0
 18 26  1  0  0  0  0
 18 58  1  1  0  0  0
 19  5  1  0  0  0  0
 20 15  2  0  0  0  0
 21 19  2  0  0  0  0
 21 20  1  0  0  0  0
 22 18  1  0  0  0  0
 22 32  1  1  0  0  0
 23  6  1  0  0  0  0
 23 16  1  0  0  0  0
 23 20  1  6  0  0  0
 23 22  1  0  0  0  0
 24  1  1  0  0  0  0
 24  7  1  0  0  0  0
 24 17  1  0  0  0  0
 25  8  1  0  0  0  0
 25  9  1  0  0  0  0
 25 10  1  0  0  0  0
 26 59  1  0  0  0  0
 27 11  1  0  0  0  0
 27 12  1  0  0  0  0
 28 13  1  0  0  0  0
 28 19  1  0  0  0  0
 29 21  1  0  0  0  0
 29 22  1  0  0  0  0
M  END
>  <DRUGBANK_ID>
DB09209

>  <COMMON_NAME>
Pholcodine

>  <CAS_NUMBER>
509-67-1

>  <UNII>
LPP64AWZ7L

>  <SYNONYMS>
folcodina; Pholcodine

$$$$
