1291
 OpenBabel10282417113D

 37 37  0  0  1  0  0  0  0  0999 V2000
    1.0187   -0.0787    0.1134 O   0  0  0  0  0  0  0  0  0  0  0  0
    1.8424    3.2368   -5.2595 O   0  0  0  0  0  0  0  0  0  0  0  0
    3.3770   -0.1891   -4.3888 O   0  0  0  0  0  0  0  0  0  0  0  0
    2.4784    2.2200    1.0888 N   0  0  0  0  0  0  0  0  0  0  0  0
    1.3867    0.9376   -2.4546 N   0  0  0  0  0  0  0  0  0  0  0  0
    2.9841    3.1003    2.1497 C   0  0  0  0  0  0  0  0  0  0  0  0
    1.0055    2.1131    1.0364 C   0  0  0  0  0  0  0  0  0  0  0  0
    0.5441    1.2507   -0.1485 C   0  0  3  0  0  0  0  0  0  0  0  0
    2.5300    2.5911    3.5242 C   0  0  0  0  0  0  0  0  0  0  0  0
    4.5223    3.0647    2.0890 C   0  0  0  0  0  0  0  0  0  0  0  0
    2.5259    4.5484    1.9142 C   0  0  0  0  0  0  0  0  0  0  0  0
    0.9937    1.8172   -1.4934 C   0  0  0  0  0  0  0  0  0  0  0  0
    0.9417    3.1894   -1.7409 C   0  0  0  0  0  0  0  0  0  0  0  0
    1.6876    1.4282   -3.6901 C   0  0  0  0  0  0  0  0  0  0  0  0
    1.2442    3.6822   -3.0000 C   0  0  0  0  0  0  0  0  0  0  0  0
    1.5964    2.7832   -3.9990 C   0  0  0  0  0  0  0  0  0  0  0  0
    2.1349    0.4275   -4.7335 C   0  0  0  0  0  0  0  0  0  0  0  0
    1.9210   -0.0989   -0.2526 H   0  0  0  0  0  0  0  0  0  0  0  0
    1.6357    4.1860   -5.2996 H   0  0  0  0  0  0  0  0  0  0  0  0
    3.9441    0.5179   -4.0380 H   0  0  0  0  0  0  0  0  0  0  0  0
    2.8587    1.2792    1.2159 H   0  0  0  0  0  0  0  0  0  0  0  0
    0.5400    3.0973    0.9596 H   0  0  0  0  0  0  0  0  0  0  0  0
    0.6299    1.6460    1.9512 H   0  0  0  0  0  0  0  0  0  0  0  0
   -0.5517    1.2087   -0.1496 H   0  0  0  0  0  0  0  0  0  0  0  0
    2.8510    1.5539    3.6818 H   0  0  0  0  0  0  0  0  0  0  0  0
    2.9467    3.2021    4.3291 H   0  0  0  0  0  0  0  0  0  0  0  0
    1.4411    2.6228    3.6348 H   0  0  0  0  0  0  0  0  0  0  0  0
    4.8989    3.4256    1.1240 H   0  0  0  0  0  0  0  0  0  0  0  0
    4.9540    3.7024    2.8692 H   0  0  0  0  0  0  0  0  0  0  0  0
    4.9121    2.0511    2.2402 H   0  0  0  0  0  0  0  0  0  0  0  0
    2.8512    4.9112    0.9310 H   0  0  0  0  0  0  0  0  0  0  0  0
    1.4382    4.6575    1.9637 H   0  0  0  0  0  0  0  0  0  0  0  0
    2.9403    5.2181    2.6738 H   0  0  0  0  0  0  0  0  0  0  0  0
    0.6707    3.9004   -0.9643 H   0  0  0  0  0  0  0  0  0  0  0  0
    1.1971    4.7491   -3.1786 H   0  0  0  0  0  0  0  0  0  0  0  0
    1.3746   -0.3505   -4.8468 H   0  0  0  0  0  0  0  0  0  0  0  0
    2.2765    0.8980   -5.7098 H   0  0  0  0  0  0  0  0  0  0  0  0
  1  8  1  0  0  0  0
  1 18  1  0  0  0  0
  2 16  1  0  0  0  0
  2 19  1  0  0  0  0
  3 17  1  0  0  0  0
  3 20  1  0  0  0  0
  4  6  1  0  0  0  0
  4  7  1  0  0  0  0
  4 21  1  0  0  0  0
  5 12  2  0  0  0  0
  5 14  1  0  0  0  0
  6  9  1  0  0  0  0
  6 10  1  0  0  0  0
  6 11  1  0  0  0  0
  7  8  1  0  0  0  0
  7 22  1  0  0  0  0
  7 23  1  0  0  0  0
  8 12  1  0  0  0  0
  8 24  1  0  0  0  0
  9 25  1  0  0  0  0
  9 26  1  0  0  0  0
  9 27  1  0  0  0  0
 10 28  1  0  0  0  0
 10 29  1  0  0  0  0
 10 30  1  0  0  0  0
 11 31  1  0  0  0  0
 11 32  1  0  0  0  0
 11 33  1  0  0  0  0
 12 13  1  0  0  0  0
 13 15  2  0  0  0  0
 13 34  1  0  0  0  0
 14 16  2  0  0  0  0
 14 17  1  0  0  0  0
 15 16  1  0  0  0  0
 15 35  1  0  0  0  0
 17 36  1  0  0  0  0
 17 37  1  0  0  0  0
M  END
>  <DRUGBANK_ID>
DB01291

>  <COMMON_NAME>
Pirbuterol

>  <CAS_NUMBER>
38677-81-5

>  <UNII>
OG645J8RVW

>  <SYNONYMS>
(+/-)-pirbuterol; Pirbuterol; Pirbuterolum

$$$$
