
 OpenBabel10282417183D

 46 48  0  0  0  0  0  0  0  0999 V2000
    0.9933    0.7136   -0.1916 C   0  0  0  0  0  0  0  0  0  0  0  0
    0.9906   -4.3795    3.0794 C   0  0  0  0  0  0  0  0  0  0  0  0
   -1.8106   -3.9017   -1.0690 C   0  0  0  0  0  0  0  0  0  0  0  0
    0.2143   -2.5667   -1.3844 C   0  0  0  0  0  0  0  0  0  0  0  0
   -1.6293   -4.2010    0.4274 C   0  0  0  0  0  0  0  0  0  0  0  0
    0.5162   -2.9613    0.0689 C   0  0  0  0  0  0  0  0  0  0  0  0
    1.0660   -0.9588    4.1229 C   0  0  0  0  0  0  0  0  0  0  0  0
    0.8861    0.2564    4.7621 C   0  0  0  0  0  0  0  0  0  0  0  0
   -1.8541   -1.0881   -1.1368 C   0  0  0  0  0  0  0  0  0  0  0  0
   -2.8566   -1.7841    3.6707 C   0  0  0  0  0  0  0  0  0  0  0  0
   -1.2911   -2.5153   -1.5846 C   0  0  3  0  0  0  0  0  0  0  0  0
   -0.1914   -4.0010    0.9011 C   0  0  3  0  0  0  0  0  0  0  0  0
   -0.2146   -1.5180    3.8016 C   0  0  0  0  0  0  0  0  0  0  0  0
   -1.1283   -0.5470    4.2313 C   0  0  0  0  0  0  0  0  0  0  0  0
   -0.7423   -2.7043    3.1567 C   0  0  0  0  0  0  0  0  0  0  0  0
    0.2696   -0.2450    0.5983 N   0  0  0  0  0  0  0  0  0  0  0  0
   -0.4553    0.5245    4.7551 N   0  0  0  0  0  0  0  0  0  0  0  0
   -2.4629   -0.5890    4.1483 N   0  0  0  0  0  0  0  0  0  0  0  0
   -2.1002   -2.8580    3.2935 N   0  0  0  0  0  0  0  0  0  0  0  0
   -0.0113   -3.6281    2.3731 N   0  0  0  0  0  0  0  0  0  0  0  0
   -1.9788   -1.4305    1.2814 O   0  0  0  0  0  0  0  0  0  0  0  0
   -1.9414    0.9436    0.6643 O   0  0  0  0  0  0  0  0  0  0  0  0
   -1.4293   -0.3735    0.4632 S   0  0  0  0  0  0  0  0  0  0  0  0
    0.7953    1.6880    0.2258 H   0  0  0  0  0  0  0  0  0  0  0  0
    0.7100    0.5698   -1.2303 H   0  0  0  0  0  0  0  0  0  0  0  0
    2.0686    0.4688   -0.1249 H   0  0  0  0  0  0  0  0  0  0  0  0
    1.7235   -3.7395    3.5731 H   0  0  0  0  0  0  0  0  0  0  0  0
    0.4969   -5.0371    3.7951 H   0  0  0  0  0  0  0  0  0  0  0  0
    1.5518   -5.0077    2.3798 H   0  0  0  0  0  0  0  0  0  0  0  0
   -1.2355   -4.6789   -1.6077 H   0  0  0  0  0  0  0  0  0  0  0  0
   -2.8526   -4.0673   -1.3543 H   0  0  0  0  0  0  0  0  0  0  0  0
    0.5764   -1.5666   -1.6554 H   0  0  0  0  0  0  0  0  0  0  0  0
    0.7315   -3.2342   -2.0760 H   0  0  0  0  0  0  0  0  0  0  0  0
   -2.3781   -3.6048    0.9393 H   0  0  0  0  0  0  0  0  0  0  0  0
   -1.8948   -5.2348    0.6716 H   0  0  0  0  0  0  0  0  0  0  0  0
   -0.0495   -2.2516    0.5952 H   0  0  0  0  0  0  0  0  0  0  0  0
    1.5654   -2.8140    0.3437 H   0  0  0  0  0  0  0  0  0  0  0  0
    2.0250   -1.4231    3.9587 H   0  0  0  0  0  0  0  0  0  0  0  0
    1.5852    0.9537    5.2077 H   0  0  0  0  0  0  0  0  0  0  0  0
   -2.9522   -1.1528   -1.1263 H   0  0  0  0  0  0  0  0  0  0  0  0
   -1.5616   -0.3062   -1.8389 H   0  0  0  0  0  0  0  0  0  0  0  0
   -3.9185   -1.8517    3.4461 H   0  0  0  0  0  0  0  0  0  0  0  0
   -1.5080   -2.5405   -2.6648 H   0  0  0  0  0  0  0  0  0  0  0  0
    0.3882   -4.8971    0.6631 H   0  0  0  0  0  0  0  0  0  0  0  0
    0.8881   -1.0401    0.5431 H   0  0  0  0  0  0  0  0  0  0  0  0
   -0.9102    1.3543    5.1149 H   0  0  0  0  0  0  0  0  0  0  0  0
  1 24  1  0  0  0  0
  1 25  1  0  0  0  0
  1 26  1  0  0  0  0
  2 27  1  0  0  0  0
  2 28  1  0  0  0  0
  2 29  1  0  0  0  0
  3 30  1  0  0  0  0
  3 31  1  0  0  0  0
  4 32  1  0  0  0  0
  4 33  1  0  0  0  0
  5  3  1  0  0  0  0
  5 34  1  0  0  0  0
  5 35  1  0  0  0  0
  6  4  1  0  0  0  0
  6 36  1  0  0  0  0
  6 37  1  0  0  0  0
  7 38  1  0  0  0  0
  8  7  2  0  0  0  0
  8 39  1  0  0  0  0
  9 40  1  0  0  0  0
  9 41  1  0  0  0  0
 10 42  1  0  0  0  0
 11  3  1  0  0  0  0
 11  4  1  0  0  0  0
 11  9  1  0  0  0  0
 11 43  1  0  0  0  0
 12  5  1  0  0  0  0
 12  6  1  0  0  0  0
 12 44  1  0  0  0  0
 13  7  1  0  0  0  0
 14 13  2  0  0  0  0
 15 13  1  0  0  0  0
 16  1  1  0  0  0  0
 16 45  1  0  0  0  0
 17  8  1  0  0  0  0
 17 14  1  0  0  0  0
 17 46  1  0  0  0  0
 18 10  2  0  0  0  0
 18 14  1  0  0  0  0
 19 10  1  0  0  0  0
 19 15  2  0  0  0  0
 20  2  1  0  0  0  0
 20 12  1  0  0  0  0
 20 15  1  0  0  0  0
 23  9  1  0  0  0  0
 23 16  1  0  0  0  0
 23 21  2  0  0  0  0
 23 22  2  0  0  0  0
M  END
>  <DRUGBANK_ID>
DB11441

>  <COMMON_NAME>
Oclacitinib

>  <UNII>
99GS5XTB51

>  <SYNONYMS>
Oclacitinib

$$$$
