
 OpenBabel10282417243D

 95103  0  0  1  0  0  0  0  0999 V2000
    2.4047   -0.1882   -0.0963 O   0  0  0  0  0  0  0  0  0  0  0  0
    1.0746   -0.3045    0.1203 C   0  0  0  0  0  0  0  0  0  0  0  0
    0.3310   -1.4709   -0.0239 C   0  0  0  0  0  0  0  0  0  0  0  0
   -1.0803   -1.4366    0.0165 C   0  0  0  0  0  0  0  0  0  0  0  0
   -1.7329   -0.2720    0.3854 C   0  0  0  0  0  0  0  0  0  0  0  0
   -0.8794    0.6917    0.9391 C   0  0  0  0  0  0  0  0  0  0  0  0
    0.4562    0.8081    0.5851 C   0  0  0  0  0  0  0  0  0  0  0  0
   -3.1430   -0.0112    0.0976 N   0  0  0  0  0  0  0  0  0  0  0  0
   -3.7140    1.2917    0.1232 C   0  0  0  0  0  0  0  0  0  0  0  0
   -4.9095    1.5152    0.0931 O   0  0  0  0  0  0  0  0  0  0  0  0
   -2.7355    2.4170    0.2201 C   0  0  0  0  0  0  0  0  0  0  0  0
   -2.6673    3.3980    1.2472 C   0  0  0  0  0  0  0  0  0  0  0  0
   -1.7567    4.3782    0.8169 C   0  0  0  0  0  0  0  0  0  0  0  0
   -1.7175    5.7793    1.2151 C   0  0  0  0  0  0  0  0  0  0  0  0
   -1.8731    5.8642    2.5511 C   0  0  0  0  0  0  0  0  0  0  0  0
   -1.6901    7.0780    3.0574 C   0  0  0  0  0  0  0  0  0  0  0  0
   -0.8274    7.2459    4.1042 O   0  0  0  0  0  0  0  0  0  0  0  0
   -1.8245    7.9630    4.7634 C   0  0  0  0  0  0  0  0  0  0  0  0
   -2.3228    8.9606    3.7377 O   0  0  0  0  0  0  0  0  0  0  0  0
   -2.0624    8.2707    2.5624 C   0  0  0  0  0  0  0  0  0  0  0  0
   -1.9550    8.3193    1.1742 C   0  0  0  0  0  0  0  0  0  0  0  0
   -1.7619    6.9829    0.4450 C   0  0  0  0  0  0  0  0  0  0  0  0
   -1.8983    6.8230   -1.0801 C   0  0  0  0  0  0  0  0  0  0  0  0
   -1.3086    7.7373   -1.7478 O   0  0  0  0  0  0  0  0  0  0  0  0
   -2.5821    5.7176   -1.8287 N   0  0  0  0  0  0  0  0  0  0  0  0
   -2.0844    5.5439   -3.2091 C   0  0  0  0  0  0  0  0  0  0  0  0
   -2.7588    4.5572   -4.1416 C   0  0  0  0  0  0  0  0  0  0  0  0
   -2.2934    4.4664   -5.4561 C   0  0  0  0  0  0  0  0  0  0  0  0
   -2.6424    3.3795   -6.2637 C   0  0  0  0  0  0  0  0  0  0  0  0
   -3.3747    2.3129   -5.7474 C   0  0  0  0  0  0  0  0  0  0  0  0
   -3.8111    2.3667   -4.4376 C   0  0  0  0  0  0  0  0  0  0  0  0
   -3.5685    3.5188   -3.6693 C   0  0  0  0  0  0  0  0  0  0  0  0
   -3.8608    3.4417   -2.2101 C   0  0  0  0  0  0  0  0  0  0  0  0
   -3.7265    4.7620   -1.4141 C   0  0  1  0  0  0  0  0  0  0  0  0
   -4.4241    5.0199   -0.0622 C   0  0  0  0  0  0  0  0  0  0  0  0
   -5.2380    6.2049    0.1653 N   0  0  0  0  0  0  0  0  0  0  0  0
   -6.3632    6.1474   -0.7148 C   0  0  0  0  0  0  0  0  0  0  0  0
   -6.0096    6.5939   -2.1557 C   0  0  0  0  0  0  0  0  0  0  0  0
   -5.6419    7.9818   -2.1370 O   0  0  0  0  0  0  0  0  0  0  0  0
   -4.3757    8.0267   -1.4467 C   0  0  0  0  0  0  0  0  0  0  0  0
   -4.6062    7.5068   -0.0083 C   0  0  0  0  0  0  0  0  0  0  0  0
   -1.0608    3.8750   -0.2240 N   0  0  0  0  0  0  0  0  0  0  0  0
    0.0381    4.5514   -0.8622 C   0  0  0  0  0  0  0  0  0  0  0  0
    0.7433    3.6524   -1.8332 C   0  0  0  0  0  0  0  0  0  0  0  0
   -0.1678    2.7589   -2.6802 C   0  0  0  0  0  0  0  0  0  0  0  0
   -1.1192    1.9404   -1.8429 C   0  0  0  0  0  0  0  0  0  0  0  0
   -1.6326    2.6941   -0.6242 C   0  0  0  0  0  0  0  0  0  0  0  0
   -4.0281   -1.1419   -0.0086 C   0  0  0  0  0  0  0  0  0  0  0  0
   -3.9851   -2.0704    1.0380 C   0  0  0  0  0  0  0  0  0  0  0  0
   -4.8135   -3.1876    1.0621 C   0  0  0  0  0  0  0  0  0  0  0  0
   -5.7406   -3.3857    0.0469 C   0  0  0  0  0  0  0  0  0  0  0  0
   -5.8433   -2.4530   -0.9872 C   0  0  0  0  0  0  0  0  0  0  0  0
   -4.9789   -1.3392   -1.0305 C   0  0  0  0  0  0  0  0  0  0  0  0
    2.7907   -1.0737   -0.0711 H   0  0  0  0  0  0  0  0  0  0  0  0
    0.8220   -2.4164   -0.1939 H   0  0  0  0  0  0  0  0  0  0  0  0
   -1.6393   -2.3292   -0.2392 H   0  0  0  0  0  0  0  0  0  0  0  0
   -1.2340    1.5451    1.4861 H   0  0  0  0  0  0  0  0  0  0  0  0
    0.9528    1.7754    0.6304 H   0  0  0  0  0  0  0  0  0  0  0  0
   -3.4166    3.5175    2.0352 H   0  0  0  0  0  0  0  0  0  0  0  0
   -1.9920    5.0342    3.2259 H   0  0  0  0  0  0  0  0  0  0  0  0
   -2.4257    7.0715    5.0904 H   0  0  0  0  0  0  0  0  0  0  0  0
   -1.5306    8.3887    5.7260 H   0  0  0  0  0  0  0  0  0  0  0  0
   -2.1261    9.2446    0.6038 H   0  0  0  0  0  0  0  0  0  0  0  0
   -1.8406    6.4915   -3.6944 H   0  0  0  0  0  0  0  0  0  0  0  0
   -1.0943    5.1186   -3.0807 H   0  0  0  0  0  0  0  0  0  0  0  0
   -1.5841    5.2048   -5.8243 H   0  0  0  0  0  0  0  0  0  0  0  0
   -2.2982    3.3479   -7.2912 H   0  0  0  0  0  0  0  0  0  0  0  0
   -3.5831    1.4318   -6.3460 H   0  0  0  0  0  0  0  0  0  0  0  0
   -4.2551    1.4835   -3.9742 H   0  0  0  0  0  0  0  0  0  0  0  0
   -3.0702    2.8107   -2.0016 H   0  0  0  0  0  0  0  0  0  0  0  0
   -4.7360    2.8254   -1.9788 H   0  0  0  0  0  0  0  0  0  0  0  0
   -4.5898    4.9840   -1.9641 H   0  0  0  0  0  0  0  0  0  0  0  0
   -4.9753    4.1241    0.2525 H   0  0  0  0  0  0  0  0  0  0  0  0
   -3.7419    5.2012    0.7147 H   0  0  0  0  0  0  0  0  0  0  0  0
   -7.0527    6.8602   -0.2643 H   0  0  0  0  0  0  0  0  0  0  0  0
   -6.7828    5.1424   -0.6104 H   0  0  0  0  0  0  0  0  0  0  0  0
   -5.1768    6.1849   -2.7261 H   0  0  0  0  0  0  0  0  0  0  0  0
   -6.8198    6.2873   -2.8029 H   0  0  0  0  0  0  0  0  0  0  0  0
   -3.9043    9.0143   -1.4404 H   0  0  0  0  0  0  0  0  0  0  0  0
   -3.7195    7.4792   -2.1106 H   0  0  0  0  0  0  0  0  0  0  0  0
   -5.1892    8.2854    0.4816 H   0  0  0  0  0  0  0  0  0  0  0  0
   -3.8008    7.4623    0.6734 H   0  0  0  0  0  0  0  0  0  0  0  0
    0.6717    4.9878   -0.0845 H   0  0  0  0  0  0  0  0  0  0  0  0
   -0.2779    5.4245   -1.4054 H   0  0  0  0  0  0  0  0  0  0  0  0
    1.3770    3.0201   -1.2187 H   0  0  0  0  0  0  0  0  0  0  0  0
    1.3646    4.2716   -2.4814 H   0  0  0  0  0  0  0  0  0  0  0  0
   -0.7279    3.2971   -3.4343 H   0  0  0  0  0  0  0  0  0  0  0  0
    0.4444    2.0791   -3.2713 H   0  0  0  0  0  0  0  0  0  0  0  0
   -1.9238    1.5021   -2.4487 H   0  0  0  0  0  0  0  0  0  0  0  0
   -0.5833    1.0480   -1.5740 H   0  0  0  0  0  0  0  0  0  0  0  0
   -3.3043   -1.9004    1.8663 H   0  0  0  0  0  0  0  0  0  0  0  0
   -4.7374   -3.8844    1.8907 H   0  0  0  0  0  0  0  0  0  0  0  0
   -6.3866   -4.2605    0.0730 H   0  0  0  0  0  0  0  0  0  0  0  0
   -6.6076   -2.5987   -1.7508 H   0  0  0  0  0  0  0  0  0  0  0  0
   -5.0552   -0.6700   -1.8858 H   0  0  0  0  0  0  0  0  0  0  0  0
  1  2  1  0  0  0  0
  1 54  1  0  0  0  0
  2  3  2  0  0  0  0
  2  7  1  0  0  0  0
  3  4  1  0  0  0  0
  3 55  1  0  0  0  0
  4  5  2  0  0  0  0
  4 56  1  0  0  0  0
  5  6  1  0  0  0  0
  5  8  1  0  0  0  0
  6  7  2  0  0  0  0
  6 57  1  0  0  0  0
  7 58  1  0  0  0  0
  8  9  1  0  0  0  0
  8 48  1  0  0  0  0
  9 10  2  0  0  0  0
  9 11  1  0  0  0  0
 11 12  1  0  0  0  0
 11 47  2  0  0  0  0
 12 13  2  0  0  0  0
 12 59  1  0  0  0  0
 13 14  1  0  0  0  0
 13 42  1  0  0  0  0
 14 15  2  0  0  0  0
 14 22  1  0  0  0  0
 15 16  1  0  0  0  0
 15 60  1  0  0  0  0
 16 17  1  0  0  0  0
 16 20  2  0  0  0  0
 17 18  1  0  0  0  0
 18 19  1  0  0  0  0
 18 61  1  0  0  0  0
 18 62  1  0  0  0  0
 19 20  1  0  0  0  0
 20 21  1  0  0  0  0
 21 22  2  0  0  0  0
 21 63  1  0  0  0  0
 22 23  1  0  0  0  0
 23 24  2  0  0  0  0
 23 25  1  0  0  0  0
 25 26  1  0  0  0  0
 26 27  1  0  0  0  0
 26 64  1  0  0  0  0
 26 65  1  0  0  0  0
 27 28  2  0  0  0  0
 27 32  1  0  0  0  0
 28 29  1  0  0  0  0
 28 66  1  0  0  0  0
 29 30  2  0  0  0  0
 29 67  1  0  0  0  0
 30 31  1  0  0  0  0
 30 68  1  0  0  0  0
 31 32  2  0  0  0  0
 31 69  1  0  0  0  0
 32 33  1  0  0  0  0
 33 70  1  0  0  0  0
 33 71  1  0  0  0  0
 34 33  1  0  0  0  0
 34 25  1  0  0  0  0
 34 35  1  0  0  0  0
 34 72  1  6  0  0  0
 35 36  1  0  0  0  0
 35 73  1  0  0  0  0
 35 74  1  0  0  0  0
 36 37  1  0  0  0  0
 36 41  1  0  0  0  0
 37 38  1  0  0  0  0
 37 75  1  0  0  0  0
 37 76  1  0  0  0  0
 38 39  1  0  0  0  0
 38 77  1  0  0  0  0
 38 78  1  0  0  0  0
 39 40  1  0  0  0  0
 40 41  1  0  0  0  0
 40 79  1  0  0  0  0
 40 80  1  0  0  0  0
 41 81  1  0  0  0  0
 41 82  1  0  0  0  0
 42 43  1  0  0  0  0
 42 47  1  0  0  0  0
 43 44  1  0  0  0  0
 43 83  1  0  0  0  0
 43 84  1  0  0  0  0
 44 45  1  0  0  0  0
 44 85  1  0  0  0  0
 44 86  1  0  0  0  0
 45 46  1  0  0  0  0
 45 87  1  0  0  0  0
 45 88  1  0  0  0  0
 46 47  1  0  0  0  0
 46 89  1  0  0  0  0
 46 90  1  0  0  0  0
 48 49  2  0  0  0  0
 48 53  1  0  0  0  0
 49 50  1  0  0  0  0
 49 91  1  0  0  0  0
 50 51  2  0  0  0  0
 50 92  1  0  0  0  0
 51 52  1  0  0  0  0
 51 93  1  0  0  0  0
 52 53  2  0  0  0  0
 52 94  1  0  0  0  0
 53 95  1  0  0  0  0
M  END
>  <DRUGBANK_ID>
DB18365

>  <COMMON_NAME>
S-55746

>  <CAS_NUMBER>
1448584-12-0

>  <UNII>
W93257I68I

>  <SYNONYMS>
(S)-N-(4-hydroxyphenyl)-3-(6-(3-(morpholinomethyl)-1,2,3,4-tetrahydroisoquinoline-2-carbonyl)benzo(d)(1,3)dioxol-5-yl)-n-phenyl-5,6,7,8-tetrahydroindolizine-1-carboxamide

$$$$
