
 OpenBabel10282417143D

 18 19  0  0  0  0  0  0  0  0999 V2000
    0.3382    0.5812    0.0110 C   0  0  0  0  0  0  0  0  0  0  0  0
    0.5886   -0.7987    0.0110 C   0  0  0  0  0  0  0  0  0  0  0  0
   -0.9866    1.0381    0.0129 N   0  0  0  0  0  0  0  0  0  0  0  0
    1.3905    1.4960    0.0029 C   0  0  0  0  0  0  0  0  0  0  0  0
   -0.5430   -1.7260    0.0065 C   0  0  0  0  0  0  0  0  0  0  0  0
    1.9082   -1.2571    0.0040 C   0  0  0  0  0  0  0  0  0  0  0  0
   -2.0724    0.2046   -0.0053 C   0  0  0  0  0  0  0  0  0  0  0  0
    2.7061    1.0296   -0.0066 C   0  0  0  0  0  0  0  0  0  0  0  0
   -1.7962   -1.2534   -0.0159 C   0  0  0  0  0  0  0  0  0  0  0  0
    2.9643   -0.3425   -0.0057 C   0  0  0  0  0  0  0  0  0  0  0  0
   -3.2238    0.6247   -0.0097 O   0  0  0  0  0  0  0  0  0  0  0  0
   -1.1873    2.0282    0.0234 H   0  0  0  0  0  0  0  0  0  0  0  0
    1.2021    2.5654   -0.0023 H   0  0  0  0  0  0  0  0  0  0  0  0
   -0.3482   -2.7922    0.0137 H   0  0  0  0  0  0  0  0  0  0  0  0
    2.1263   -2.3219    0.0009 H   0  0  0  0  0  0  0  0  0  0  0  0
    3.5326    1.7361   -0.0169 H   0  0  0  0  0  0  0  0  0  0  0  0
   -2.6606   -1.9049   -0.0361 H   0  0  0  0  0  0  0  0  0  0  0  0
    3.9909   -0.7010   -0.0152 H   0  0  0  0  0  0  0  0  0  0  0  0
  1  2  2  0  0  0  0
  1  3  1  0  0  0  0
  1  4  1  0  0  0  0
  2  5  1  0  0  0  0
  2  6  1  0  0  0  0
  3  7  1  0  0  0  0
  3 12  1  0  0  0  0
  4  8  2  0  0  0  0
  4 13  1  0  0  0  0
  5  9  2  0  0  0  0
  5 14  1  0  0  0  0
  6 10  2  0  0  0  0
  6 15  1  0  0  0  0
  7 11  2  0  0  0  0
  7  9  1  0  0  0  0
  8 10  1  0  0  0  0
  8 16  1  0  0  0  0
  9 17  1  0  0  0  0
 10 18  1  0  0  0  0
M  END
>  <DRUGBANK_ID>
DB04745

>  <COMMON_NAME>
2-Hydroxyquinoline

>  <CAS_NUMBER>
59-31-4

>  <UNII>
803BHY7QWU

>  <SYNONYMS>
2-quinolone; 2(1H)-Quinolinone; Carbostyril; o-Aminocinnamic acid lactam; Quinolin-2-ol; Quinolin-2(1H)-one; Î±-Quinolone

$$$$
