
 OpenBabel10282417203D

 83 88  0  0  1  0  0  0  0  0999 V2000
   -2.1707   -3.4431   -0.5313 C   0  0  0  0  0  0  0  0  0  0  0  0
   -1.6838   -4.2483    1.6867 C   0  0  0  0  0  0  0  0  0  0  0  0
    3.9892    7.2163   -2.8857 C   0  0  0  0  0  0  0  0  0  0  0  0
    4.8257    5.0347   -3.8321 C   0  0  0  0  0  0  0  0  0  0  0  0
    2.8153    6.1460   -4.8110 C   0  0  0  0  0  0  0  0  0  0  0  0
   -0.0116    1.7302    2.6774 C   0  0  0  0  0  0  0  0  0  0  0  0
    1.3841    4.7271   -2.7850 C   0  0  0  0  0  0  0  0  0  0  0  0
    0.5811    4.0603   -1.8664 C   0  0  0  0  0  0  0  0  0  0  0  0
    1.3736    2.3442    2.6224 C   0  0  0  0  0  0  0  0  0  0  0  0
   -1.7462    0.5288    1.0998 C   0  0  0  0  0  0  0  0  0  0  0  0
   -0.4280   -0.7621    2.1566 C   0  0  0  0  0  0  0  0  0  0  0  0
    3.2723    4.7649   -1.2393 C   0  0  0  0  0  0  0  0  0  0  0  0
   -3.1354   -1.6584    2.7941 C   0  0  0  0  0  0  0  0  0  0  0  0
   -2.2034    2.2658    4.9298 C   0  0  0  0  0  0  0  0  0  0  0  0
   -3.3012   -0.6140    8.0218 C   0  0  0  0  0  0  0  0  0  0  0  0
   -2.5739   -3.2508    0.9334 C   0  0  0  0  0  0  0  0  0  0  0  0
   -0.2673    0.6647    1.6138 C   0  0  2  0  0  0  0  0  0  0  0  0
    2.7132    5.0982   -2.4900 C   0  0  0  0  0  0  0  0  0  0  0  0
   -1.4655   -1.0003    1.0391 C   0  0  1  0  0  0  0  0  0  0  0  0
    1.1397    3.7624   -0.6301 C   0  0  0  0  0  0  0  0  0  0  0  0
    2.4555    4.0925   -0.3481 C   0  0  0  0  0  0  0  0  0  0  0  0
   -2.3401   -2.4476    3.8679 C   0  0  2  0  0  0  0  0  0  0  0  0
    1.5154    3.0430    1.3320 C   0  0  0  0  0  0  0  0  0  0  0  0
   -3.0648    1.3820    7.2847 C   0  0  0  0  0  0  0  0  0  0  0  0
   -3.1477   -3.5391    4.5595 C   0  0  2  0  0  0  0  0  0  0  0  0
   -3.5623   -2.8765    5.8530 C   0  0  2  0  0  0  0  0  0  0  0  0
   -3.0030    2.7551    7.0164 C   0  0  0  0  0  0  0  0  0  0  0  0
   -2.6104    0.5492    6.2713 C   0  0  0  0  0  0  0  0  0  0  0  0
   -2.3834   -1.9531    6.1378 C   0  0  2  0  0  0  0  0  0  0  0  0
    3.5714    5.8646   -3.4983 C   0  0  0  0  0  0  0  0  0  0  0  0
   -3.3906    3.7278    7.9070 N   0  0  0  0  0  0  0  0  0  0  0  0
   -2.5578    3.1878    5.8307 N   0  0  0  0  0  0  0  0  0  0  0  0
   -2.1728    0.9319    5.0717 N   0  0  0  0  0  0  0  0  0  0  0  0
   -3.5015    0.6428    8.3635 N   0  0  0  0  0  0  0  0  0  0  0  0
    0.5639    3.1574    0.4298 N   0  0  0  0  0  0  0  0  0  0  0  0
    2.6761    3.6147    0.9124 N   0  0  0  0  0  0  0  0  0  0  0  0
   -2.6298   -1.8320    1.4083 N   0  0  0  0  0  0  0  0  0  0  0  0
   -2.7452   -0.7137    6.7776 N   0  0  0  0  0  0  0  0  0  0  0  0
   -2.3322   -4.6787    4.9157 O   0  0  0  0  0  0  0  0  0  0  0  0
   -3.7189   -3.8448    6.8914 O   0  0  0  0  0  0  0  0  0  0  0  0
   -1.7765   -1.6469    4.8976 O   0  0  0  0  0  0  0  0  0  0  0  0
    0.4456    0.6826    0.7813 H   0  0  0  0  0  0  0  0  0  0  0  0
   -1.0095   -1.2395    0.0737 H   0  0  0  0  0  0  0  0  0  0  0  0
   -1.4213   -2.8212    3.4345 H   0  0  0  0  0  0  0  0  0  0  0  0
   -3.9866   -3.9089    3.9598 H   0  0  0  0  0  0  0  0  0  0  0  0
   -4.4969   -2.3240    5.7156 H   0  0  0  0  0  0  0  0  0  0  0  0
   -1.6195   -2.4401    6.7563 H   0  0  0  0  0  0  0  0  0  0  0  0
   -1.1231   -3.1675   -0.6908 H   0  0  0  0  0  0  0  0  0  0  0  0
   -2.8118   -2.8894   -1.2164 H   0  0  0  0  0  0  0  0  0  0  0  0
   -2.2417   -4.5080   -0.7920 H   0  0  0  0  0  0  0  0  0  0  0  0
   -0.6552   -3.8845    1.7788 H   0  0  0  0  0  0  0  0  0  0  0  0
   -2.0910   -4.4779    2.6566 H   0  0  0  0  0  0  0  0  0  0  0  0
   -1.6632   -5.2383    1.2261 H   0  0  0  0  0  0  0  0  0  0  0  0
    4.5856    7.0934   -1.9741 H   0  0  0  0  0  0  0  0  0  0  0  0
    4.5944    7.7952   -3.5906 H   0  0  0  0  0  0  0  0  0  0  0  0
    3.1110    7.8167   -2.6189 H   0  0  0  0  0  0  0  0  0  0  0  0
    4.5515    4.0576   -4.2477 H   0  0  0  0  0  0  0  0  0  0  0  0
    5.4540    5.5518   -4.5641 H   0  0  0  0  0  0  0  0  0  0  0  0
    5.4476    4.8476   -2.9489 H   0  0  0  0  0  0  0  0  0  0  0  0
    2.5042    5.2118   -5.2956 H   0  0  0  0  0  0  0  0  0  0  0  0
    1.9161    6.7481   -4.6281 H   0  0  0  0  0  0  0  0  0  0  0  0
    3.4355    6.6939   -5.5249 H   0  0  0  0  0  0  0  0  0  0  0  0
   -0.7259    2.5446    2.5178 H   0  0  0  0  0  0  0  0  0  0  0  0
   -0.1308    1.3233    3.6812 H   0  0  0  0  0  0  0  0  0  0  0  0
    0.9221    4.9536   -3.7405 H   0  0  0  0  0  0  0  0  0  0  0  0
   -0.4416    3.7859   -2.0968 H   0  0  0  0  0  0  0  0  0  0  0  0
    1.4773    3.0740    3.4359 H   0  0  0  0  0  0  0  0  0  0  0  0
    2.1408    1.5759    2.7518 H   0  0  0  0  0  0  0  0  0  0  0  0
   -2.5046    0.8987    1.7989 H   0  0  0  0  0  0  0  0  0  0  0  0
   -1.9290    1.0183    0.1360 H   0  0  0  0  0  0  0  0  0  0  0  0
    0.4629   -1.3894    2.1326 H   0  0  0  0  0  0  0  0  0  0  0  0
   -0.7688   -0.6948    3.1828 H   0  0  0  0  0  0  0  0  0  0  0  0
    4.2887    5.0228   -0.9653 H   0  0  0  0  0  0  0  0  0  0  0  0
   -3.2075   -0.5978    3.0575 H   0  0  0  0  0  0  0  0  0  0  0  0
   -4.1844   -1.9862    2.7840 H   0  0  0  0  0  0  0  0  0  0  0  0
   -1.9320    2.6661    3.9716 H   0  0  0  0  0  0  0  0  0  0  0  0
   -3.5424   -1.4825    8.6202 H   0  0  0  0  0  0  0  0  0  0  0  0
   -3.6044   -3.6260    1.0163 H   0  0  0  0  0  0  0  0  0  0  0  0
   -3.8747    3.4449    8.7406 H   0  0  0  0  0  0  0  0  0  0  0  0
   -3.3946    4.6696    7.5480 H   0  0  0  0  0  0  0  0  0  0  0  0
    3.5422    3.6537    1.4310 H   0  0  0  0  0  0  0  0  0  0  0  0
   -1.4088   -4.3863    5.0232 H   0  0  0  0  0  0  0  0  0  0  0  0
   -3.0546   -4.5444    6.7015 H   0  0  0  0  0  0  0  0  0  0  0  0
  1 48  1  0  0  0  0
  1 49  1  0  0  0  0
  1 50  1  0  0  0  0
  2 51  1  0  0  0  0
  2 52  1  0  0  0  0
  2 53  1  0  0  0  0
  3 54  1  0  0  0  0
  3 55  1  0  0  0  0
  3 56  1  0  0  0  0
  4 57  1  0  0  0  0
  4 58  1  0  0  0  0
  4 59  1  0  0  0  0
  5 60  1  0  0  0  0
  5 61  1  0  0  0  0
  5 62  1  0  0  0  0
  6 63  1  0  0  0  0
  6 64  1  0  0  0  0
  7 65  1  0  0  0  0
  8  7  2  0  0  0  0
  8 66  1  0  0  0  0
  9  6  1  0  0  0  0
  9 67  1  0  0  0  0
  9 68  1  0  0  0  0
 10 69  1  0  0  0  0
 10 70  1  0  0  0  0
 11 71  1  0  0  0  0
 11 72  1  0  0  0  0
 12 73  1  0  0  0  0
 13 74  1  0  0  0  0
 13 75  1  0  0  0  0
 14 76  1  0  0  0  0
 15 77  1  0  0  0  0
 16  1  1  0  0  0  0
 16  2  1  0  0  0  0
 16 78  1  0  0  0  0
 17 10  1  0  0  0  0
 17 11  1  0  0  0  0
 17 42  1  6  0  0  0
 17  6  1  0  0  0  0
 18  7  1  0  0  0  0
 18 12  2  0  0  0  0
 19 10  1  0  0  0  0
 19 11  1  0  0  0  0
 19 43  1  6  0  0  0
 19 37  1  0  0  0  0
 20  8  1  0  0  0  0
 21 12  1  0  0  0  0
 21 20  2  0  0  0  0
 22 13  1  0  0  0  0
 22 44  1  6  0  0  0
 23  9  1  0  0  0  0
 25 22  1  0  0  0  0
 25 39  1  0  0  0  0
 25 45  1  6  0  0  0
 26 25  1  0  0  0  0
 26 40  1  0  0  0  0
 26 46  1  6  0  0  0
 27 24  2  0  0  0  0
 28 24  1  0  0  0  0
 29 26  1  0  0  0  0
 29 47  1  1  0  0  0
 29 38  1  0  0  0  0
 30  3  1  0  0  0  0
 30  4  1  0  0  0  0
 30  5  1  0  0  0  0
 30 18  1  0  0  0  0
 31 27  1  0  0  0  0
 31 79  1  0  0  0  0
 31 80  1  0  0  0  0
 32 14  2  0  0  0  0
 32 27  1  0  0  0  0
 33 14  1  0  0  0  0
 33 28  2  0  0  0  0
 34 15  2  0  0  0  0
 34 24  1  0  0  0  0
 35 20  1  0  0  0  0
 35 23  2  0  0  0  0
 36 21  1  0  0  0  0
 36 23  1  0  0  0  0
 36 81  1  0  0  0  0
 37 13  1  0  0  0  0
 37 16  1  0  0  0  0
 38 15  1  0  0  0  0
 38 28  1  0  0  0  0
 39 82  1  0  0  0  0
 40 83  1  0  0  0  0
 41 22  1  0  0  0  0
 41 29  1  0  0  0  0
M  END
>  <DRUGBANK_ID>
DB12920

>  <COMMON_NAME>
Pinometostat

>  <CAS_NUMBER>
1380288-87-8

>  <UNII>
8V9YR09EF3

>  <SYNONYMS>
9H-PURIN-6-AMINE, 9-(5-DEOXY-5-((CIS-3-(2-(6-(1,1-DIMETHYLETHYL)-1H-BENZIMIDAZOL-2-YL)ETHYL)CYCLOBUTYL)(1-METHYLETHYL)AMINO)-.BETA.-D-RIBOFURANOSYL)-; Pinometostat; PINOMETOSTAT ANHYDROUS

$$$$
