
 OpenBabel10282417123D

 44 45  0  0  1  0  0  0  0  0999 V2000
    0.6430    1.6116   -0.1763 C   0  0  0  0  0  0  0  0  0  0  0  0
    3.1268    1.5495   -0.0246 C   0  0  0  0  0  0  0  0  0  0  0  0
   -1.7067   -2.8515    2.2759 C   0  0  0  0  0  0  0  0  0  0  0  0
    1.8870    0.8245   -0.5659 C   0  0  1  0  0  0  0  0  0  0  0  0
   -0.6147    0.8854   -0.6153 C   0  0  1  0  0  0  0  0  0  0  0  0
   -0.5629   -1.9146    2.6729 C   0  0  2  0  0  0  0  0  0  0  0  0
   -0.5613   -0.5417   -0.1111 C   0  0  2  0  0  0  0  0  0  0  0  0
    1.9871   -1.5095    2.6053 C   0  0  2  0  0  0  0  0  0  0  0  0
    1.8567   -1.0717    4.0698 C   0  0  2  0  0  0  0  0  0  0  0  0
    0.7959   -2.3372    2.0557 C   0  0  2  0  0  0  0  0  0  0  0  0
    0.4162   -0.6065    4.3251 C   0  0  2  0  0  0  0  0  0  0  0  0
    0.7671   -1.2984   -0.2430 C   0  0  1  0  0  0  0  0  0  0  0  0
    4.3020    0.7944   -0.2926 O   0  0  0  0  0  0  0  0  0  0  0  0
   -2.9574   -2.2051    2.5322 O   0  0  0  0  0  0  0  0  0  0  0  0
   -1.7308    1.5755   -0.0197 O   0  0  0  0  0  0  0  0  0  0  0  0
   -1.7006   -1.3060   -0.4866 O   0  0  0  0  0  0  0  0  0  0  0  0
    3.2285   -2.1961    2.3824 O   0  0  0  0  0  0  0  0  0  0  0  0
    2.8068   -0.0309    4.3469 O   0  0  0  0  0  0  0  0  0  0  0  0
    0.2075   -0.1552    5.6439 O   0  0  0  0  0  0  0  0  0  0  0  0
    1.8907   -0.4774    0.0172 O   0  0  0  0  0  0  0  0  0  0  0  0
   -0.4645   -1.7120    4.0879 O   0  0  0  0  0  0  0  0  0  0  0  0
    0.7975   -2.4714    0.6101 O   0  0  0  0  0  0  0  0  0  0  0  0
    1.9595    0.7021   -1.6505 H   0  0  0  0  0  0  0  0  0  0  0  0
   -0.7634    0.9122   -1.6950 H   0  0  0  0  0  0  0  0  0  0  0  0
   -0.9092   -0.9391    2.3885 H   0  0  0  0  0  0  0  0  0  0  0  0
   -0.6688   -0.3371    0.9201 H   0  0  0  0  0  0  0  0  0  0  0  0
    2.0880   -0.5781    2.0621 H   0  0  0  0  0  0  0  0  0  0  0  0
    2.1050   -1.9020    4.7359 H   0  0  0  0  0  0  0  0  0  0  0  0
    0.9697   -3.3639    2.4106 H   0  0  0  0  0  0  0  0  0  0  0  0
    0.1776    0.2533    3.6777 H   0  0  0  0  0  0  0  0  0  0  0  0
    0.8627   -1.6841   -1.2638 H   0  0  0  0  0  0  0  0  0  0  0  0
    0.6124    1.7500    0.9169 H   0  0  0  0  0  0  0  0  0  0  0  0
    0.6526    2.6182   -0.6052 H   0  0  0  0  0  0  0  0  0  0  0  0
    3.2277    2.5351   -0.4866 H   0  0  0  0  0  0  0  0  0  0  0  0
    3.0685    1.6809    1.0632 H   0  0  0  0  0  0  0  0  0  0  0  0
   -1.6811   -3.0861    1.2076 H   0  0  0  0  0  0  0  0  0  0  0  0
   -1.6886   -3.7854    2.8373 H   0  0  0  0  0  0  0  0  0  0  0  0
    4.1697   -0.0737    0.1406 H   0  0  0  0  0  0  0  0  0  0  0  0
   -2.9167   -1.8577    3.4400 H   0  0  0  0  0  0  0  0  0  0  0  0
   -1.8160    1.3150    0.9179 H   0  0  0  0  0  0  0  0  0  0  0  0
   -1.5845   -1.6475   -1.3770 H   0  0  0  0  0  0  0  0  0  0  0  0
    3.2838   -2.9487    2.9960 H   0  0  0  0  0  0  0  0  0  0  0  0
    2.6777    0.6960    3.7114 H   0  0  0  0  0  0  0  0  0  0  0  0
    0.4846   -0.8888    6.2122 H   0  0  0  0  0  0  0  0  0  0  0  0
  1 32  1  0  0  0  0
  1 33  1  0  0  0  0
  2 34  1  0  0  0  0
  2 35  1  0  0  0  0
  3 36  1  0  0  0  0
  3 37  1  0  0  0  0
  4  1  1  0  0  0  0
  4  2  1  0  0  0  0
  4 23  1  6  0  0  0
  5  1  1  0  0  0  0
  5 15  1  0  0  0  0
  5 24  1  6  0  0  0
  6  3  1  0  0  0  0
  6 25  1  6  0  0  0
  7  5  1  0  0  0  0
  7 16  1  0  0  0  0
  7 26  1  1  0  0  0
  8 17  1  0  0  0  0
  8 27  1  6  0  0  0
  9  8  1  0  0  0  0
  9 18  1  0  0  0  0
  9 28  1  1  0  0  0
 10  6  1  0  0  0  0
 10  8  1  0  0  0  0
 10 22  1  0  0  0  0
 10 29  1  1  0  0  0
 11  9  1  0  0  0  0
 11 19  1  0  0  0  0
 11 30  1  6  0  0  0
 12  7  1  0  0  0  0
 12 22  1  0  0  0  0
 12 31  1  6  0  0  0
 13  2  1  0  0  0  0
 13 38  1  0  0  0  0
 14  3  1  0  0  0  0
 14 39  1  0  0  0  0
 15 40  1  0  0  0  0
 16 41  1  0  0  0  0
 17 42  1  0  0  0  0
 18 43  1  0  0  0  0
 19 44  1  0  0  0  0
 20  4  1  0  0  0  0
 20 12  1  0  0  0  0
 21  6  1  0  0  0  0
 21 11  1  0  0  0  0
M  END
>  <DRUGBANK_ID>
DB02065

>  <SECONDARY_ACCESSION_NUMBERS>
EXPT01157

>  <COMMON_NAME>
4-Deoxylactose

$$$$
