
 OpenBabel10282417183D

 54 56  0  0  1  0  0  0  0  0999 V2000
   -2.3387   -0.2357    0.3111 C   0  0  0  0  0  0  0  0  0  0  0  0
   -0.8983   -0.1140    0.3746 N   0  0  0  0  0  0  0  0  0  0  0  0
   -0.2650   -1.3189   -0.1464 C   0  0  0  0  0  0  0  0  0  0  0  0
    1.2110   -1.3012    0.2286 C   0  0  0  0  0  0  0  0  0  0  0  0
    1.9170   -0.0393   -0.2622 C   0  0  0  0  0  0  0  0  0  0  0  0
    1.1472    1.2010    0.1886 C   0  0  0  0  0  0  0  0  0  0  0  0
   -0.3438    1.1110   -0.2411 C   0  0  1  0  0  0  0  0  0  0  0  0
   -0.4452    1.1860   -1.7998 C   0  0  0  0  0  0  0  0  0  0  0  0
   -1.8611    1.2254   -2.4353 C   0  0  0  0  0  0  0  0  0  0  0  0
   -2.6403    2.3812   -1.8635 C   0  0  0  0  0  0  0  0  0  0  0  0
   -3.6873    2.2351   -0.9136 C   0  0  0  0  0  0  0  0  0  0  0  0
   -4.1145    3.3055   -0.1348 C   0  0  0  0  0  0  0  0  0  0  0  0
   -3.4067    4.4685   -0.2290 C   0  0  0  0  0  0  0  0  0  0  0  0
   -2.2275    4.4685   -0.9694 C   0  0  0  0  0  0  0  0  0  0  0  0
   -2.0751    3.6302   -2.0439 C   0  0  0  0  0  0  0  0  0  0  0  0
   -1.3550    3.9489   -3.2273 N   0  0  0  0  0  0  0  0  0  0  0  0
   -0.9881    5.1255   -3.8564 C   0  0  0  0  0  0  0  0  0  0  0  0
   -0.4114    5.0623   -4.9243 O   0  0  0  0  0  0  0  0  0  0  0  0
   -1.2148    6.4713   -3.2457 C   0  0  0  0  0  0  0  0  0  0  0  0
   -2.2266    6.6802   -2.4087 C   0  0  0  0  0  0  0  0  0  0  0  0
   -2.4926    7.7375   -1.4370 C   0  0  0  0  0  0  0  0  0  0  0  0
   -3.0928    8.8302   -2.0130 C   0  0  0  0  0  0  0  0  0  0  0  0
   -3.7285    9.7578   -1.2115 C   0  0  0  0  0  0  0  0  0  0  0  0
   -3.7858    9.5899    0.1739 C   0  0  0  0  0  0  0  0  0  0  0  0
   -3.1828    8.4938    0.7768 C   0  0  0  0  0  0  0  0  0  0  0  0
   -2.4791    7.5948   -0.0237 C   0  0  0  0  0  0  0  0  0  0  0  0
   -2.7930    0.6397    0.7735 H   0  0  0  0  0  0  0  0  0  0  0  0
   -2.7017   -0.3886   -0.7004 H   0  0  0  0  0  0  0  0  0  0  0  0
   -2.7289   -1.0998    0.8516 H   0  0  0  0  0  0  0  0  0  0  0  0
   -0.7341   -2.2051    0.2930 H   0  0  0  0  0  0  0  0  0  0  0  0
   -0.3969   -1.4082   -1.2309 H   0  0  0  0  0  0  0  0  0  0  0  0
    1.2947   -1.3522    1.3217 H   0  0  0  0  0  0  0  0  0  0  0  0
    1.6974   -2.1889   -0.1827 H   0  0  0  0  0  0  0  0  0  0  0  0
    2.9457   -0.0106    0.1097 H   0  0  0  0  0  0  0  0  0  0  0  0
    1.9848   -0.0541   -1.3556 H   0  0  0  0  0  0  0  0  0  0  0  0
    1.2164    1.2890    1.2834 H   0  0  0  0  0  0  0  0  0  0  0  0
    1.6208    2.1054   -0.2154 H   0  0  0  0  0  0  0  0  0  0  0  0
   -0.8207    1.9942    0.2071 H   0  0  0  0  0  0  0  0  0  0  0  0
    0.1271    2.0725   -2.1125 H   0  0  0  0  0  0  0  0  0  0  0  0
    0.0905    0.3576   -2.2686 H   0  0  0  0  0  0  0  0  0  0  0  0
   -1.7512    1.3498   -3.5172 H   0  0  0  0  0  0  0  0  0  0  0  0
   -2.3868    0.2770   -2.3712 H   0  0  0  0  0  0  0  0  0  0  0  0
   -4.1532    1.2801   -0.7020 H   0  0  0  0  0  0  0  0  0  0  0  0
   -4.8874    3.2268    0.6251 H   0  0  0  0  0  0  0  0  0  0  0  0
   -3.7635    5.3606    0.2751 H   0  0  0  0  0  0  0  0  0  0  0  0
   -1.4777    5.2268   -0.8083 H   0  0  0  0  0  0  0  0  0  0  0  0
   -1.1866    3.1863   -3.8731 H   0  0  0  0  0  0  0  0  0  0  0  0
   -0.5182    7.2491   -3.5314 H   0  0  0  0  0  0  0  0  0  0  0  0
   -3.0436    5.9625   -2.4274 H   0  0  0  0  0  0  0  0  0  0  0  0
   -3.1230    8.8958   -3.0952 H   0  0  0  0  0  0  0  0  0  0  0  0
   -4.2233   10.5871   -1.6970 H   0  0  0  0  0  0  0  0  0  0  0  0
   -4.3129   10.3193    0.7785 H   0  0  0  0  0  0  0  0  0  0  0  0
   -3.2946    8.3252    1.8484 H   0  0  0  0  0  0  0  0  0  0  0  0
   -2.0113    6.7598    0.4993 H   0  0  0  0  0  0  0  0  0  0  0  0
  1  2  1  0  0  0  0
  1 27  1  0  0  0  0
  1 28  1  0  0  0  0
  1 29  1  0  0  0  0
  2  3  1  0  0  0  0
  2  7  1  0  0  0  0
  3  4  1  0  0  0  0
  3 30  1  0  0  0  0
  3 31  1  0  0  0  0
  4  5  1  0  0  0  0
  4 32  1  0  0  0  0
  4 33  1  0  0  0  0
  5  6  1  0  0  0  0
  5 34  1  0  0  0  0
  5 35  1  0  0  0  0
  6  7  1  0  0  0  0
  6 36  1  0  0  0  0
  6 37  1  0  0  0  0
  7  8  1  0  0  0  0
  7 38  1  1  0  0  0
  8  9  1  0  0  0  0
  8 39  1  0  0  0  0
  8 40  1  0  0  0  0
  9 10  1  0  0  0  0
  9 41  1  0  0  0  0
  9 42  1  0  0  0  0
 10 11  2  0  0  0  0
 10 15  1  0  0  0  0
 11 12  1  0  0  0  0
 11 43  1  0  0  0  0
 12 13  2  0  0  0  0
 12 44  1  0  0  0  0
 13 14  1  0  0  0  0
 13 45  1  0  0  0  0
 14 15  2  0  0  0  0
 14 46  1  0  0  0  0
 15 16  1  0  0  0  0
 16 17  1  0  0  0  0
 16 47  1  0  0  0  0
 17 18  2  0  0  0  0
 17 19  1  0  0  0  0
 19 20  2  0  0  0  0
 19 48  1  0  0  0  0
 20 21  1  0  0  0  0
 20 49  1  0  0  0  0
 21 22  2  0  0  0  0
 21 26  1  0  0  0  0
 22 23  1  0  0  0  0
 22 50  1  0  0  0  0
 23 24  2  0  0  0  0
 23 51  1  0  0  0  0
 24 25  1  0  0  0  0
 24 52  1  0  0  0  0
 25 26  2  0  0  0  0
 25 53  1  0  0  0  0
 26 54  1  0  0  0  0
M  END
>  <DRUGBANK_ID>
DB11686

>  <COMMON_NAME>
Iferanserin

>  <CAS_NUMBER>
58754-46-4

>  <UNII>
NWR3BEB8PA

>  <SYNONYMS>
Iferanserin

$$$$
