
 OpenBabel10282417143D

 44 46  0  0  1  0  0  0  0  0999 V2000
   -2.3058    0.5163    0.0355 Cl  0  0  0  0  0  0  0  0  0  0  0  0
    2.6773    3.9238   -0.0306 O   0  0  0  0  0  0  0  0  0  0  0  0
   -0.5396    2.8181   -0.0129 O   0  0  0  0  0  0  0  0  0  0  0  0
    4.3056   -1.5465    0.4508 N   0  0  3  0  0  0  0  0  0  0  0  0
    4.1542    2.4134    0.0005 N   0  0  0  0  0  0  0  0  0  0  0  0
   -0.6698   -2.0877    0.1287 N   0  0  0  0  0  0  0  0  0  0  0  0
    4.9315    0.5752    1.4538 C   0  0  3  0  0  0  0  0  0  0  0  0
    5.0075    1.2273    0.0473 C   0  0  3  0  0  0  0  0  0  0  0  0
    4.0043   -0.6149    1.5718 C   0  0  0  0  0  0  0  0  0  0  0  0
    6.2925    0.0608    1.8786 C   0  0  0  0  0  0  0  0  0  0  0  0
    4.8003    0.3942   -1.2207 C   0  0  0  0  0  0  0  0  0  0  0  0
    4.4196   -1.0652   -0.9616 C   0  0  0  0  0  0  0  0  0  0  0  0
    6.6019   -1.3806    1.4521 C   0  0  0  0  0  0  0  0  0  0  0  0
    5.5283   -2.2412    0.7839 C   0  0  0  0  0  0  0  0  0  0  0  0
    2.8020    2.6849   -0.0357 C   0  0  0  0  0  0  0  0  0  0  0  0
    1.6101    1.6321   -0.0898 C   0  0  0  0  0  0  0  0  0  0  0  0
    0.2216    1.6769   -0.0446 C   0  0  0  0  0  0  0  0  0  0  0  0
    1.9934    0.3297   -0.1786 C   0  0  0  0  0  0  0  0  0  0  0  0
   -0.5736    0.4281   -0.0262 C   0  0  0  0  0  0  0  0  0  0  0  0
    1.3147   -0.8959   -0.1328 C   0  0  0  0  0  0  0  0  0  0  0  0
   -0.0265   -0.8728   -0.0751 C   0  0  0  0  0  0  0  0  0  0  0  0
    0.1979    4.0205   -0.0582 C   0  0  0  0  0  0  0  0  0  0  0  0
    4.6718    3.2896    0.0184 H   0  0  0  0  0  0  0  0  0  0  0  0
   -1.6656   -2.1251   -0.0389 H   0  0  0  0  0  0  0  0  0  0  0  0
   -0.1530   -2.9473   -0.0548 H   0  0  0  0  0  0  0  0  0  0  0  0
    4.6188    1.3495    2.1745 H   0  0  0  0  0  0  0  0  0  0  0  0
    6.0162    1.6467   -0.0635 H   0  0  0  0  0  0  0  0  0  0  0  0
    4.1091   -1.1309    2.5408 H   0  0  0  0  0  0  0  0  0  0  0  0
    2.9735   -0.2751    1.7218 H   0  0  0  0  0  0  0  0  0  0  0  0
    7.0785    0.7259    1.5111 H   0  0  0  0  0  0  0  0  0  0  0  0
    6.3412    0.1230    2.9735 H   0  0  0  0  0  0  0  0  0  0  0  0
    4.0079    0.8630   -1.8370 H   0  0  0  0  0  0  0  0  0  0  0  0
    5.6702    0.4571   -1.8783 H   0  0  0  0  0  0  0  0  0  0  0  0
    3.4648   -1.2501   -1.4803 H   0  0  0  0  0  0  0  0  0  0  0  0
    5.0603   -1.7003   -1.5789 H   0  0  0  0  0  0  0  0  0  0  0  0
    7.4473   -1.3324    0.7643 H   0  0  0  0  0  0  0  0  0  0  0  0
    6.9178   -1.9201    2.3490 H   0  0  0  0  0  0  0  0  0  0  0  0
    5.9559   -2.7032   -0.1111 H   0  0  0  0  0  0  0  0  0  0  0  0
    5.2541   -3.0880    1.4209 H   0  0  0  0  0  0  0  0  0  0  0  0
    3.0199    0.2635   -0.1479 H   0  0  0  0  0  0  0  0  0  0  0  0
    1.8680   -1.8356   -0.0807 H   0  0  0  0  0  0  0  0  0  0  0  0
    0.7741    4.1117    0.8713 H   0  0  0  0  0  0  0  0  0  0  0  0
    0.7810    4.0571   -0.9886 H   0  0  0  0  0  0  0  0  0  0  0  0
   -0.4668    4.8763   -0.0881 H   0  0  0  0  0  0  0  0  0  0  0  0
  1 19  1  0  0  0  0
  2 15  2  0  0  0  0
  3 17  1  0  0  0  0
  3 22  1  0  0  0  0
  4  9  1  0  0  0  0
  4 12  1  0  0  0  0
  4 14  1  0  0  0  0
  5  8  1  0  0  0  0
  5 15  1  0  0  0  0
  5 23  1  0  0  0  0
  6 21  1  0  0  0  0
  6 24  1  0  0  0  0
  6 25  1  0  0  0  0
  7  8  1  0  0  0  0
  7  9  1  0  0  0  0
  7 10  1  0  0  0  0
  7 26  1  0  0  0  0
  8 11  1  0  0  0  0
  8 27  1  0  0  0  0
  9 28  1  0  0  0  0
  9 29  1  0  0  0  0
 10 13  1  0  0  0  0
 10 30  1  0  0  0  0
 10 31  1  0  0  0  0
 11 12  1  0  0  0  0
 11 32  1  0  0  0  0
 11 33  1  0  0  0  0
 12 34  1  0  0  0  0
 12 35  1  0  0  0  0
 13 14  1  0  0  0  0
 13 36  1  0  0  0  0
 13 37  1  0  0  0  0
 14 38  1  0  0  0  0
 14 39  1  0  0  0  0
 15 16  1  0  0  0  0
 16 17  2  0  0  0  0
 16 18  1  0  0  0  0
 17 19  1  0  0  0  0
 18 20  2  0  0  0  0
 18 40  1  0  0  0  0
 19 21  2  0  0  0  0
 20 21  1  0  0  0  0
 20 41  1  0  0  0  0
 22 42  1  0  0  0  0
 22 43  1  0  0  0  0
 22 44  1  0  0  0  0
M  END
>  <DRUGBANK_ID>
DB04917

>  <COMMON_NAME>
Renzapride

>  <CAS_NUMBER>
112727-80-7

>  <UNII>
9073C0W4E9

>  <SYNONYMS>
Renzapride

$$$$
