1221
 OpenBabel10282417113D

 32 33  0  0  1  0  0  0  0  0999 V2000
   -2.2358   -0.1799    0.0623 Cl  0  0  0  0  0  0  0  0  0  0  0  0
   -1.6875    4.2587    1.4001 O   0  0  0  0  0  0  0  0  0  0  0  0
    0.0610    2.6779    1.5360 N   0  0  0  0  0  0  0  0  0  0  0  0
   -0.4307    2.5581    0.1319 C   0  0  3  0  0  0  0  0  0  0  0  0
   -0.2094    2.9727   -1.4060 C   0  0  0  0  0  0  0  0  0  0  0  0
   -1.5278    2.8680   -2.2563 C   0  0  0  0  0  0  0  0  0  0  0  0
   -2.5290    3.9042   -1.8048 C   0  0  0  0  0  0  0  0  0  0  0  0
   -1.7189    3.4268    0.4422 C   0  0  0  0  0  0  0  0  0  0  0  0
   -2.9274    3.5657   -0.3978 C   0  0  0  0  0  0  0  0  0  0  0  0
    0.1206    1.1223   -0.0555 C   0  0  0  0  0  0  0  0  0  0  0  0
   -0.5268   -0.0903   -0.0097 C   0  0  0  0  0  0  0  0  0  0  0  0
    1.5766    1.0698   -0.2004 C   0  0  0  0  0  0  0  0  0  0  0  0
    1.3792    2.9280    2.0029 C   0  0  0  0  0  0  0  0  0  0  0  0
    0.2358   -1.2804   -0.0246 C   0  0  0  0  0  0  0  0  0  0  0  0
    2.3300   -0.0919   -0.1233 C   0  0  0  0  0  0  0  0  0  0  0  0
    1.6449   -1.2825   -0.0382 C   0  0  0  0  0  0  0  0  0  0  0  0
   -0.5717    3.2818    2.0828 H   0  0  0  0  0  0  0  0  0  0  0  0
    0.2402    3.9600   -1.5151 H   0  0  0  0  0  0  0  0  0  0  0  0
    0.4498    2.2903   -1.9701 H   0  0  0  0  0  0  0  0  0  0  0  0
   -1.3191    3.0114   -3.3221 H   0  0  0  0  0  0  0  0  0  0  0  0
   -1.9858    1.8719   -2.1679 H   0  0  0  0  0  0  0  0  0  0  0  0
   -2.0659    4.8991   -1.8617 H   0  0  0  0  0  0  0  0  0  0  0  0
   -3.4238    3.9290   -2.4347 H   0  0  0  0  0  0  0  0  0  0  0  0
   -3.5401    2.6744   -0.2843 H   0  0  0  0  0  0  0  0  0  0  0  0
   -3.5050    4.4173   -0.0009 H   0  0  0  0  0  0  0  0  0  0  0  0
    2.1431    2.0056   -0.2723 H   0  0  0  0  0  0  0  0  0  0  0  0
    1.8289    3.7523    1.4608 H   0  0  0  0  0  0  0  0  0  0  0  0
    1.2962    3.1873    3.0646 H   0  0  0  0  0  0  0  0  0  0  0  0
    1.9937    2.0269    2.0014 H   0  0  0  0  0  0  0  0  0  0  0  0
   -0.2676   -2.2417    0.0059 H   0  0  0  0  0  0  0  0  0  0  0  0
    3.4179   -0.0469   -0.0925 H   0  0  0  0  0  0  0  0  0  0  0  0
    2.2052   -2.2120    0.0210 H   0  0  0  0  0  0  0  0  0  0  0  0
  1 11  1  0  0  0  0
  2  8  2  0  0  0  0
  3  4  1  0  0  0  0
  3 13  1  0  0  0  0
  3 17  1  0  0  0  0
  4  5  1  0  0  0  0
  4  8  1  0  0  0  0
  4 10  1  0  0  0  0
  5  6  1  0  0  0  0
  5 18  1  0  0  0  0
  5 19  1  0  0  0  0
  6  7  1  0  0  0  0
  6 20  1  0  0  0  0
  6 21  1  0  0  0  0
  7  9  1  0  0  0  0
  7 22  1  0  0  0  0
  7 23  1  0  0  0  0
  8  9  1  0  0  0  0
  9 24  1  0  0  0  0
  9 25  1  0  0  0  0
 10 11  1  0  0  0  0
 10 12  2  0  0  0  0
 11 14  2  0  0  0  0
 12 15  1  0  0  0  0
 12 26  1  0  0  0  0
 13 27  1  0  0  0  0
 13 28  1  0  0  0  0
 13 29  1  0  0  0  0
 14 16  1  0  0  0  0
 14 30  1  0  0  0  0
 15 16  2  0  0  0  0
 15 31  1  0  0  0  0
 16 32  1  0  0  0  0
M  END
>  <DRUGBANK_ID>
DB01221

>  <SECONDARY_ACCESSION_NUMBERS>
APRD00493

>  <COMMON_NAME>
Ketamine

>  <CAS_NUMBER>
6740-88-1

>  <UNII>
690G0D6V8H

>  <SYNONYMS>
(+-)-Ketamine; (±)-ketamine; 2-(2-Chloro-phenyl)-2-methylamino-cyclohexanone; 2-(methylamino)-2-(2-chlorophenyl)cyclohexanone; 2-(o-chlorophenyl)-2-(methylamino)-cyclohexanone; DL-ketamine; Ketamina; Ketamine; Kétamine; Ketaminum; NMDA; Special K

$$$$
