
 OpenBabel10282417193D

  3  2  0  0  0  0  0  0  0  0999 V2000
    1.0464   -0.0164   -0.0871 Ba  0  0  0  0  0  0  0  0  0  0  0  0
   -1.4136   -0.0164   -0.0871 H   0  0  0  0  0  0  0  0  0  0  0  0
    3.5064   -0.0164   -0.0871 H   0  0  0  0  0  0  0  0  0  0  0  0
  1  2  1  0  0  0  0
  1  3  1  0  0  0  0
M  END
>  <DRUGBANK_ID>
DB12481

>  <COMMON_NAME>
Barium

>  <CAS_NUMBER>
7440-39-3

>  <UNII>
24GP945V5T

>  <SYNONYMS>
Ba

$$$$
