STS
 OpenBabel10282417173D

 35 37  0  0  0  0  0  0  0  0999 V2000
    3.0256   -3.8070   -0.9948 S   0  0  0  0  0  0  0  0  0  0  0  0
    2.4368   -2.8022    0.4022 C   0  0  0  0  0  0  0  0  0  0  0  0
    0.9039   -2.6782    0.4890 C   0  0  2  0  0  0  0  0  0  0  0  0
    0.6087   -1.3543    1.1807 C   0  0  0  0  0  0  0  0  0  0  0  0
    0.9366   -0.1545    0.7479 N   0  0  0  0  0  0  0  0  0  0  0  0
    0.2952    0.7387    1.5681 C   0  0  0  0  0  0  0  0  0  0  0  0
   -0.4595    0.0678    2.5099 C   0  0  0  0  0  0  0  0  0  0  0  0
   -0.1402   -1.2522    2.3369 N   0  0  0  0  0  0  0  0  0  0  0  0
   -1.3061    0.6890    3.4101 C   0  0  0  0  0  0  0  0  0  0  0  0
   -1.2795    2.0689    3.3315 C   0  0  0  0  0  0  0  0  0  0  0  0
   -0.5321    2.7033    2.4163 N   0  3  0  0  0  0  0  0  0  0  0  0
    0.3035    2.1275    1.5386 C   0  0  0  0  0  0  0  0  0  0  0  0
    0.2493   -3.8967    1.2017 C   0  0  0  0  0  0  0  0  0  0  0  0
   -1.2754   -3.9698    1.1257 C   0  0  0  0  0  0  0  0  0  0  0  0
   -1.9264   -5.1981    1.2602 C   0  0  0  0  0  0  0  0  0  0  0  0
   -3.3176   -5.2710    1.1065 C   0  0  0  0  0  0  0  0  0  0  0  0
   -4.0910   -4.1133    1.0164 C   0  0  0  0  0  0  0  0  0  0  0  0
   -3.4742   -2.8818    1.0240 C   0  0  0  0  0  0  0  0  0  0  0  0
   -2.0919   -2.8390    0.9421 C   0  0  0  0  0  0  0  0  0  0  0  0
    0.4836   -2.6194   -0.5269 H   0  0  0  0  0  0  0  0  0  0  0  0
    2.4647   -4.9703   -0.6442 H   0  0  0  0  0  0  0  0  0  0  0  0
    2.8421   -3.1993    1.3387 H   0  0  0  0  0  0  0  0  0  0  0  0
    2.8885   -1.8141    0.2563 H   0  0  0  0  0  0  0  0  0  0  0  0
   -0.5798   -2.0185    2.8207 H   0  0  0  0  0  0  0  0  0  0  0  0
   -1.9128    0.1422    4.1217 H   0  0  0  0  0  0  0  0  0  0  0  0
   -1.8397    2.6912    4.0225 H   0  0  0  0  0  0  0  0  0  0  0  0
   -0.6096    3.7212    2.3742 H   0  0  0  0  0  0  0  0  0  0  0  0
    0.9059    2.7423    0.8843 H   0  0  0  0  0  0  0  0  0  0  0  0
    0.6525   -4.8237    0.7741 H   0  0  0  0  0  0  0  0  0  0  0  0
    0.5475   -3.9047    2.2616 H   0  0  0  0  0  0  0  0  0  0  0  0
   -1.3663   -6.1175    1.4220 H   0  0  0  0  0  0  0  0  0  0  0  0
   -3.8064   -6.2392    1.0440 H   0  0  0  0  0  0  0  0  0  0  0  0
   -5.1683   -4.1656    0.8967 H   0  0  0  0  0  0  0  0  0  0  0  0
   -4.0444   -1.9574    1.0114 H   0  0  0  0  0  0  0  0  0  0  0  0
   -1.6988   -1.8662    0.6858 H   0  0  0  0  0  0  0  0  0  0  0  0
  1  2  1  0  0  0  0
  1 21  1  0  0  0  0
  2 22  1  0  0  0  0
  2 23  1  0  0  0  0
  3 13  1  0  0  0  0
  3 20  1  6  0  0  0
  3  4  1  0  0  0  0
  3  2  1  0  0  0  0
  4  5  2  0  0  0  0
  4  8  1  0  0  0  0
  5  6  1  0  0  0  0
  6  7  2  0  0  0  0
  6 12  1  0  0  0  0
  7  8  1  0  0  0  0
  7  9  1  0  0  0  0
  8 24  1  0  0  0  0
  9 10  2  0  0  0  0
  9 25  1  0  0  0  0
 10 11  1  0  0  0  0
 10 26  1  0  0  0  0
 11 12  2  0  0  0  0
 11 27  1  0  0  0  0
 12 28  1  0  0  0  0
 13 14  1  0  0  0  0
 13 29  1  0  0  0  0
 13 30  1  0  0  0  0
 14 15  2  0  0  0  0
 14 19  1  0  0  0  0
 15 16  1  0  0  0  0
 15 31  1  0  0  0  0
 16 17  2  0  0  0  0
 16 32  1  0  0  0  0
 17 18  1  0  0  0  0
 17 33  1  0  0  0  0
 18 19  2  0  0  0  0
 18 34  1  0  0  0  0
 19 35  1  0  0  0  0
M  CHG  1  11   1
M  END
>  <DRUGBANK_ID>
DB08575

>  <COMMON_NAME>
2-[(1S)-1-BENZYL-2-SULFANYLETHYL]-1H-IMIDAZO[4,5-C]PYRIDIN-5-IUM

$$$$
