
 OpenBabel10282417113D

 62 66  0  0  0  0  0  0  0  0999 V2000
  -12.7802   11.5241   -2.9489 C   0  0  1  0  0  0  0  0  0  0  0  0
  -11.7456   12.6268   -4.2291 C   0  0  2  0  0  0  0  0  0  0  0  0
  -10.6050   12.6239   -3.1384 C   0  0  2  0  0  0  0  0  0  0  0  0
  -12.7704   15.8700   -1.7489 C   0  0  2  0  0  0  0  0  0  0  0  0
  -11.3337   13.6531   -2.0957 C   0  0  1  0  0  0  0  0  0  0  0  0
  -11.8104   10.4614   -3.2519 C   0  0  1  0  0  0  0  0  0  0  0  0
  -11.5353   15.1389   -2.4660 C   0  0  2  0  0  0  0  0  0  0  0  0
  -13.5325   15.3661   -0.5065 C   0  0  0  0  0  0  0  0  0  0  0  0
  -11.3637   14.2080   -4.7513 C   0  0  0  0  0  0  0  0  0  0  0  0
  -11.9147   15.2609   -3.9526 C   0  0  2  0  0  0  0  0  0  0  0  0
  -13.8585   15.4448   -2.6804 C   0  0  0  0  0  0  0  0  0  0  0  0
  -10.4507   11.0590   -2.9346 C   0  0  0  0  0  0  0  0  0  0  0  0
  -15.0040   15.3614   -0.5694 C   0  0  0  0  0  0  0  0  0  0  0  0
  -11.2573   13.4665   -0.6120 C   0  0  0  0  0  0  0  0  0  0  0  0
  -14.9374   16.1225   -3.0289 C   0  0  0  0  0  0  0  0  0  0  0  0
  -15.6961   15.2454   -2.1297 C   0  0  0  0  0  0  0  0  0  0  0  0
  -12.4978   14.2798    0.1836 C   0  0  0  0  0  0  0  0  0  0  0  0
  -16.4863   14.3837   -2.5896 O   0  0  0  0  0  0  0  0  0  0  0  0
  -11.1614   12.1188   -5.7154 C   0  0  0  0  0  0  0  0  0  0  0  0
  -11.8320   16.5811   -4.4412 O   0  0  0  0  0  0  0  0  0  0  0  0
  -12.3994   17.3606   -1.6136 C   0  0  0  0  0  0  0  0  0  0  0  0
   -9.6235   13.0231   -3.4308 H   0  0  0  0  0  0  0  0  0  0  0  0
  -10.5787   15.6437   -2.2762 H   0  0  0  0  0  0  0  0  0  0  0  0
  -12.3470   13.3982   -2.2514 H   0  0  0  0  0  0  0  0  0  0  0  0
  -13.8997   10.5489   -2.8213 O   0  0  0  0  0  0  0  0  0  0  0  0
  -13.6040    9.1335   -2.8327 C   0  0  0  0  0  0  0  0  0  0  0  0
  -12.2128    9.1444   -3.0548 O   0  0  0  0  0  0  0  0  0  0  0  0
  -13.5258   11.8558   -1.3949 C   0  0  0  0  0  0  0  0  0  0  0  0
  -13.5748   10.9489   -0.0343 C   0  0  0  0  0  0  0  0  0  0  0  0
  -14.3401   12.7917   -1.3098 O   0  0  0  0  0  0  0  0  0  0  0  0
  -12.9658   11.3159    1.2044 O   0  0  0  0  0  0  0  0  0  0  0  0
  -13.6325    7.6532   -2.2608 C   0  0  0  0  0  0  0  0  0  0  0  0
  -15.0029    8.9787   -3.4935 C   0  0  0  0  0  0  0  0  0  0  0  0
  -11.8900   10.4210   -4.3406 H   0  0  0  0  0  0  0  0  0  0  0  0
  -10.2774   14.4192   -4.8615 H   0  0  0  0  0  0  0  0  0  0  0  0
  -11.7595   14.4378   -5.7614 H   0  0  0  0  0  0  0  0  0  0  0  0
  -12.9097   14.9336   -4.2615 H   0  0  0  0  0  0  0  0  0  0  0  0
  -13.9406   14.3364   -2.6579 H   0  0  0  0  0  0  0  0  0  0  0  0
   -9.9257   10.8186   -2.0111 H   0  0  0  0  0  0  0  0  0  0  0  0
   -9.8341   10.5818   -3.7136 H   0  0  0  0  0  0  0  0  0  0  0  0
  -15.5910   16.3348   -0.5988 H   0  0  0  0  0  0  0  0  0  0  0  0
  -10.2392   13.6532   -0.2435 H   0  0  0  0  0  0  0  0  0  0  0  0
  -11.3563   12.3846   -0.4614 H   0  0  0  0  0  0  0  0  0  0  0  0
  -14.8993   17.1856   -2.8763 H   0  0  0  0  0  0  0  0  0  0  0  0
  -12.0362   14.6993    1.0843 H   0  0  0  0  0  0  0  0  0  0  0  0
  -13.1470   13.4979    0.5547 H   0  0  0  0  0  0  0  0  0  0  0  0
  -10.8131   12.9717   -6.3619 H   0  0  0  0  0  0  0  0  0  0  0  0
  -10.1976   11.5989   -5.7128 H   0  0  0  0  0  0  0  0  0  0  0  0
  -11.9275   11.7337   -6.3880 H   0  0  0  0  0  0  0  0  0  0  0  0
  -12.6166   17.0296   -4.0612 H   0  0  0  0  0  0  0  0  0  0  0  0
  -11.8642   17.5806   -0.6828 H   0  0  0  0  0  0  0  0  0  0  0  0
  -11.7002   17.6830   -2.3938 H   0  0  0  0  0  0  0  0  0  0  0  0
  -13.2718   18.0098   -1.6812 H   0  0  0  0  0  0  0  0  0  0  0  0
  -14.6408   11.0555    0.2699 H   0  0  0  0  0  0  0  0  0  0  0  0
  -13.4913    9.8729   -0.1643 H   0  0  0  0  0  0  0  0  0  0  0  0
  -12.0034   11.2652    1.1463 H   0  0  0  0  0  0  0  0  0  0  0  0
  -13.2563    7.0336   -3.1158 H   0  0  0  0  0  0  0  0  0  0  0  0
  -12.9485    7.3923   -1.4481 H   0  0  0  0  0  0  0  0  0  0  0  0
  -14.5881    7.1614   -2.0243 H   0  0  0  0  0  0  0  0  0  0  0  0
  -15.5241    8.0169   -3.4194 H   0  0  0  0  0  0  0  0  0  0  0  0
  -15.7254    9.5869   -2.8886 H   0  0  0  0  0  0  0  0  0  0  0  0
  -15.0250    9.3111   -4.5210 H   0  0  0  0  0  0  0  0  0  0  0  0
  1 25  1  0  0  0  0
  1 28  1  6  0  0  0
  2  1  1  0  0  0  0
  2 19  1  6  0  0  0
  3  2  1  0  0  0  0
  3 22  1  1  0  0  0
  4 21  1  1  0  0  0
  5  3  1  0  0  0  0
  5 24  1  1  0  0  0
  6  1  1  0  0  0  0
  6 27  1  0  0  0  0
  6 34  1  6  0  0  0
  7  4  1  0  0  0  0
  7  5  1  0  0  0  0
  7 23  1  6  0  0  0
  8  4  1  0  0  0  0
  9  2  1  0  0  0  0
  9 35  1  0  0  0  0
  9 36  1  0  0  0  0
 10  7  1  0  0  0  0
 10  9  1  0  0  0  0
 10 20  1  0  0  0  0
 10 37  1  6  0  0  0
 11  4  1  0  0  0  0
 11 38  1  0  0  0  0
 12  3  1  0  0  0  0
 12  6  1  0  0  0  0
 12 39  1  0  0  0  0
 12 40  1  0  0  0  0
 13  8  2  0  0  0  0
 13 41  1  0  0  0  0
 14  5  1  0  0  0  0
 14 42  1  0  0  0  0
 14 43  1  0  0  0  0
 15 11  2  0  0  0  0
 15 44  1  0  0  0  0
 16 13  1  0  0  0  0
 16 15  1  0  0  0  0
 17  8  1  0  0  0  0
 17 14  1  0  0  0  0
 17 45  1  0  0  0  0
 17 46  1  0  0  0  0
 18 16  2  0  0  0  0
 19 47  1  0  0  0  0
 19 48  1  0  0  0  0
 19 49  1  0  0  0  0
 20 50  1  0  0  0  0
 21 51  1  0  0  0  0
 21 52  1  0  0  0  0
 21 53  1  0  0  0  0
 26 25  1  0  0  0  0
 27 26  1  0  0  0  0
 29 28  1  0  0  0  0
 29 54  1  0  0  0  0
 29 55  1  0  0  0  0
 30 28  2  0  0  0  0
 31 29  1  0  0  0  0
 31 56  1  0  0  0  0
 32 57  1  0  0  0  0
 32 58  1  0  0  0  0
 32 59  1  0  0  0  0
 32 26  1  0  0  0  0
 33 60  1  0  0  0  0
 33 61  1  0  0  0  0
 33 62  1  0  0  0  0
 33 26  1  0  0  0  0
M  END
>  <DRUGBANK_ID>
DB01260

>  <COMMON_NAME>
Desonide

>  <CAS_NUMBER>
638-94-8

>  <UNII>
J280872D1O

>  <SYNONYMS>
11β,21-dihydroxy-16α,17-[(1-methylethylidene)bis(oxy)]pregna-1,4-diene-3,20-dione; 11β,21-dihydroxy-16α,17-isopropylidenedioxypregna-1,4-diene-3,20-dione; 11β,21-dihydroxy-16α,17α-isopropylidenedioxypregna-1,4-diene-3,20-dione; 16α-hydroxyprednisole-16,17-acetonide; 16α-hydroxyprednisolone-16α,17-acetonide; 16α,17α-isopropylidenedioxyprednisolone; Desfluorotriamcinolone acetonide; Desonida; Desonide; Desonidum

$$$$
