
 OpenBabel10282417173D

 21 21  0  0  0  0  0  0  0  0999 V2000
    1.3777   -0.1836    0.0168 C   0  0  0  0  0  0  0  0  0  0  0  0
    0.4795   -1.2706    0.0030 C   0  0  0  0  0  0  0  0  0  0  0  0
    0.8576    1.1137   -0.0110 C   0  0  0  0  0  0  0  0  0  0  0  0
   -0.5307    1.3132    0.0454 C   0  0  0  0  0  0  0  0  0  0  0  0
   -1.4117    0.2272   -0.0187 C   0  0  0  0  0  0  0  0  0  0  0  0
   -0.9164   -1.0764   -0.0210 C   0  0  0  0  0  0  0  0  0  0  0  0
   -1.0406    2.6815    0.3115 C   0  0  0  0  0  0  0  0  0  0  0  0
   -0.3460    3.6709    0.4665 O   0  0  0  0  0  0  0  0  0  0  0  0
   -2.3762    2.7115    0.4648 O   0  0  0  0  0  0  0  0  0  0  0  0
   -1.7993   -2.2815    0.0311 C   0  0  0  0  0  0  0  0  0  0  0  0
   -3.1306   -2.0679    0.0529 O   0  0  0  0  0  0  0  0  0  0  0  0
   -1.3378   -3.4107    0.0715 O   0  0  0  0  0  0  0  0  0  0  0  0
    2.8375   -0.4916    0.1552 C   0  0  0  0  0  0  0  0  0  0  0  0
    3.6864    0.5535    0.2143 O   0  0  0  0  0  0  0  0  0  0  0  0
    3.2422   -1.6400    0.2464 O   0  0  0  0  0  0  0  0  0  0  0  0
    0.8752   -2.2895    0.0291 H   0  0  0  0  0  0  0  0  0  0  0  0
    1.4944    1.9910   -0.0427 H   0  0  0  0  0  0  0  0  0  0  0  0
   -2.4736    0.4362   -0.0352 H   0  0  0  0  0  0  0  0  0  0  0  0
   -2.5955    3.6357    0.7136 H   0  0  0  0  0  0  0  0  0  0  0  0
   -3.4803   -1.1631    0.0423 H   0  0  0  0  0  0  0  0  0  0  0  0
    3.3439    1.4602    0.1735 H   0  0  0  0  0  0  0  0  0  0  0  0
  2  1  1  0  0  0  0
  2 16  1  0  0  0  0
  3  1  2  0  0  0  0
  3 17  1  0  0  0  0
  4  3  1  0  0  0  0
  5  4  2  0  0  0  0
  5 18  1  0  0  0  0
  6  2  2  0  0  0  0
  6  5  1  0  0  0  0
  7  4  1  0  0  0  0
  8  7  2  0  0  0  0
  9  7  1  0  0  0  0
  9 19  1  0  0  0  0
 10  6  1  0  0  0  0
 11 10  1  0  0  0  0
 11 20  1  0  0  0  0
 12 10  2  0  0  0  0
 13  1  1  0  0  0  0
 14 13  1  0  0  0  0
 14 21  1  0  0  0  0
 15 13  2  0  0  0  0
M  END
>  <DRUGBANK_ID>
DB08632

>  <COMMON_NAME>
Trimesic acid

>  <CAS_NUMBER>
554-95-0

>  <UNII>
OU36OO5MTN

>  <SYNONYMS>
1,3,5-Tricarboxybenzene; 5-carboxyisophthalic acid; Benzene-1,3,5-tricarboxylic acid; Trimesinic acid; Trimesitinic acid

$$$$
