
 OpenBabel10282417133D

 81 88  0  0  0  0  0  0  0  0999 V2000
    2.3710   -1.0030    0.8310 C   0  0  0  0  0  0  0  0  0  0  0  0
    0.6750   -2.3560    0.9040 C   0  0  0  0  0  0  0  0  0  0  0  0
   -0.2330   -2.9590    0.0300 C   0  0  0  0  0  0  0  0  0  0  0  0
   -1.0550   -2.2490   -0.8370 C   0  0  0  0  0  0  0  0  0  0  0  0
   -2.4990   -0.6540   -0.8370 C   0  0  0  0  0  0  0  0  0  0  0  0
   -3.1220    0.2280    0.0530 C   0  0  0  0  0  0  0  0  0  0  0  0
   -2.2640    0.9840    0.8810 C   0  0  0  0  0  0  0  0  0  0  0  0
   -0.6070    2.3610    0.8900 C   0  0  0  0  0  0  0  0  0  0  0  0
    0.2560    3.0500    0.0330 C   0  0  0  0  0  0  0  0  0  0  0  0
    1.0070    2.2540   -0.8530 C   0  0  0  0  0  0  0  0  0  0  0  0
    2.3930    0.6160   -0.9150 C   0  0  0  0  0  0  0  0  0  0  0  0
    3.1170   -0.2480   -0.0900 C   0  0  0  0  0  0  0  0  0  0  0  0
   -1.1400   -0.8770   -0.7110 N   0  3  0  0  0  0  0  0  0  0  0  0
   -0.8890    1.0230    0.7090 N   0  0  0  0  0  0  0  0  0  0  0  0
    1.0430    0.8790   -0.7210 N   0  3  0  0  0  0  0  0  0  0  0  0
    2.6630   -1.9240    1.8200 C   0  0  0  0  0  0  0  0  0  0  0  0
    3.9168   -1.9706    2.6780 C   0  0  0  0  0  0  0  0  0  0  0  0
   -1.9960   -2.5590   -1.8380 C   0  0  0  0  0  0  0  0  0  0  0  0
   -1.9804   -3.7644   -2.7639 C   0  0  0  0  0  0  0  0  0  0  0  0
   -2.5970    1.9700    1.8040 C   0  0  0  0  0  0  0  0  0  0  0  0
   -3.9008    2.0923    2.5758 C   0  0  0  0  0  0  0  0  0  0  0  0
    2.7870    1.4850   -1.9530 C   0  0  0  0  0  0  0  0  0  0  0  0
    3.8820    1.2666   -2.9844 C   0  0  0  0  0  0  0  0  0  0  0  0
    1.5880   -2.7960    1.8750 C   0  0  0  0  0  0  0  0  0  0  0  0
    1.4290   -3.9904    2.8016 C   0  0  3  0  0  0  0  0  0  0  0  0
    2.7778   -5.1622    2.5123 S   0  0  0  0  0  0  0  0  0  0  0  0
   -2.9370   -1.5460   -1.8090 C   0  0  0  0  0  0  0  0  0  0  0  0
   -4.1896   -1.4317   -2.6624 C   0  0  3  0  0  0  0  0  0  0  0  0
   -5.6479   -1.3913   -1.5911 S   0  0  0  0  0  0  0  0  0  0  0  0
    1.9410    2.5970   -1.8200 C   0  0  0  0  0  0  0  0  0  0  0  0
    2.0299    3.9100   -2.5806 C   0  0  0  0  0  0  0  0  0  0  0  0
    0.7440    4.1321   -3.3601 C   0  0  0  0  0  0  0  0  0  0  0  0
   -1.4920    2.8280    1.8810 C   0  0  0  0  0  0  0  0  0  0  0  0
   -1.2926    4.0026    2.8249 C   0  0  0  0  0  0  0  0  0  0  0  0
   -2.3968    5.0234    2.6038 C   0  0  0  0  0  0  0  0  0  0  0  0
   -1.2383    5.3488   -2.3232 O   0  0  0  0  0  0  0  0  0  0  0  0
   -0.4302    4.1834   -2.3963 C   0  0  0  0  0  0  0  0  0  0  0  0
   -0.6888    3.1833   -1.6560 O   0  0  0  0  0  0  0  0  0  0  0  0
   -4.5904    4.8995    3.8914 O   0  0  0  0  0  0  0  0  0  0  0  0
   -3.7457    4.3778    2.8762 C   0  0  0  0  0  0  0  0  0  0  0  0
   -4.1174    3.3711    2.1954 O   0  0  0  0  0  0  0  0  0  0  0  0
    0.9960   -1.0420    0.6880 N   0  0  0  0  0  0  0  0  0  0  0  0
   -0.0020   -0.0510   -0.0190 Fe  0  6  3  0  0  0  0  0  0  0  0  0
    1.4680   -3.5196    4.2463 C   0  0  0  0  0  0  0  0  0  0  0  0
   -4.1285   -0.1541   -3.4835 C   0  0  0  0  0  0  0  0  0  0  0  0
   -0.2992   -4.0269    0.0280 H   0  0  0  0  0  0  0  0  0  0  0  0
   -4.1865    0.3239    0.1031 H   0  0  0  0  0  0  0  0  0  0  0  0
    0.3407    4.1165    0.0493 H   0  0  0  0  0  0  0  0  0  0  0  0
    4.1818   -0.3305   -0.1558 H   0  0  0  0  0  0  0  0  0  0  0  0
    4.7749   -2.0870    2.0496 H   0  0  0  0  0  0  0  0  0  0  0  0
    4.0026   -1.0603    3.2338 H   0  0  0  0  0  0  0  0  0  0  0  0
    3.8554   -2.7971    3.3547 H   0  0  0  0  0  0  0  0  0  0  0  0
   -1.0820   -3.7562   -3.3450 H   0  0  0  0  0  0  0  0  0  0  0  0
   -2.0208   -4.6615   -2.1821 H   0  0  0  0  0  0  0  0  0  0  0  0
   -2.8276   -3.7240   -3.4163 H   0  0  0  0  0  0  0  0  0  0  0  0
   -4.7142    2.1932    1.8881 H   0  0  0  0  0  0  0  0  0  0  0  0
   -4.0452    1.2163    3.1730 H   0  0  0  0  0  0  0  0  0  0  0  0
   -3.8606    2.9535    3.2096 H   0  0  0  0  0  0  0  0  0  0  0  0
    3.4568    1.2882   -3.9660 H   0  0  0  0  0  0  0  0  0  0  0  0
    4.6148    2.0413   -2.8960 H   0  0  0  0  0  0  0  0  0  0  0  0
    4.3452    0.3167   -2.8171 H   0  0  0  0  0  0  0  0  0  0  0  0
    0.4923   -4.4699    2.6078 H   0  0  0  0  0  0  0  0  0  0  0  0
    2.7430   -5.5834    1.2196 H   0  0  0  0  0  0  0  0  0  0  0  0
   -4.2523   -2.2747   -3.3185 H   0  0  0  0  0  0  0  0  0  0  0  0
   -5.7026   -2.5345   -0.8565 H   0  0  0  0  0  0  0  0  0  0  0  0
    2.1711    4.7140   -1.8889 H   0  0  0  0  0  0  0  0  0  0  0  0
    2.8566    3.8739   -3.2591 H   0  0  0  0  0  0  0  0  0  0  0  0
    0.8066    5.0564   -3.8955 H   0  0  0  0  0  0  0  0  0  0  0  0
    0.6029    3.3280   -4.0518 H   0  0  0  0  0  0  0  0  0  0  0  0
   -1.3244    3.6563    3.8369 H   0  0  0  0  0  0  0  0  0  0  0  0
   -0.3431    4.4570    2.6332 H   0  0  0  0  0  0  0  0  0  0  0  0
   -2.2565    5.8503    3.2683 H   0  0  0  0  0  0  0  0  0  0  0  0
   -2.3650    5.3697    1.5919 H   0  0  0  0  0  0  0  0  0  0  0  0
   -1.0348    6.1357   -2.9057 H   0  0  0  0  0  0  0  0  0  0  0  0
   -4.2979    5.6916    4.4271 H   0  0  0  0  0  0  0  0  0  0  0  0
    0.6706   -2.8269    4.4173 H   0  0  0  0  0  0  0  0  0  0  0  0
    1.3560   -4.3604    4.8986 H   0  0  0  0  0  0  0  0  0  0  0  0
    2.4047   -3.0401    4.4400 H   0  0  0  0  0  0  0  0  0  0  0  0
   -3.2664   -0.1780   -4.1168 H   0  0  0  0  0  0  0  0  0  0  0  0
   -5.0102   -0.0736   -4.0843 H   0  0  0  0  0  0  0  0  0  0  0  0
   -4.0658    0.6889   -2.8274 H   0  0  0  0  0  0  0  0  0  0  0  0
  1 42  1  0  0  0  0
  1 12  1  0  0  0  0
  2  3  1  0  0  0  0
  3  4  2  0  0  0  0
  3 46  1  0  0  0  0
  4 13  1  0  0  0  0
  5  6  1  0  0  0  0
  6  7  2  0  0  0  0
  6 47  1  0  0  0  0
  7 14  1  0  0  0  0
  7 20  1  0  0  0  0
  8  9  2  0  0  0  0
  9 48  1  0  0  0  0
 10  9  1  0  0  0  0
 11 12  2  0  0  0  0
 12 49  1  0  0  0  0
 13  5  2  0  0  0  0
 13 43  1  0  0  0  0
 14  8  1  0  0  0  0
 15 10  2  0  0  0  0
 15 11  1  0  0  0  0
 15 43  1  0  0  0  0
 16  1  2  0  0  0  0
 16 17  1  0  0  0  0
 17 50  1  0  0  0  0
 17 51  1  0  0  0  0
 17 52  1  0  0  0  0
 18  4  1  0  0  0  0
 18 27  2  0  0  0  0
 18 19  1  0  0  0  0
 19 53  1  0  0  0  0
 19 54  1  0  0  0  0
 19 55  1  0  0  0  0
 20 33  2  0  0  0  0
 20 21  1  0  0  0  0
 21 56  1  0  0  0  0
 21 57  1  0  0  0  0
 21 58  1  0  0  0  0
 22 11  1  0  0  0  0
 22 30  2  0  0  0  0
 22 23  1  0  0  0  0
 23 59  1  0  0  0  0
 23 60  1  0  0  0  0
 23 61  1  0  0  0  0
 24  2  2  0  0  0  0
 24 16  1  0  0  0  0
 24 25  1  0  0  0  0
 25 26  1  0  0  0  0
 25 44  1  0  0  0  0
 25 62  1  0  0  0  0
 26 63  1  0  0  0  0
 27  5  1  0  0  0  0
 27 28  1  0  0  0  0
 28 29  1  0  0  0  0
 28 45  1  0  0  0  0
 28 64  1  0  0  0  0
 29 65  1  0  0  0  0
 30 10  1  0  0  0  0
 30 31  1  0  0  0  0
 31 32  1  0  0  0  0
 31 66  1  0  0  0  0
 31 67  1  0  0  0  0
 32 37  1  0  0  0  0
 32 68  1  0  0  0  0
 32 69  1  0  0  0  0
 33  8  1  0  0  0  0
 33 34  1  0  0  0  0
 34 35  1  0  0  0  0
 34 70  1  0  0  0  0
 34 71  1  0  0  0  0
 35 40  1  0  0  0  0
 35 72  1  0  0  0  0
 35 73  1  0  0  0  0
 36 74  1  0  0  0  0
 37 36  1  0  0  0  0
 37 38  2  0  0  0  0
 39 75  1  0  0  0  0
 40 39  1  0  0  0  0
 40 41  2  0  0  0  0
 42  2  1  0  0  0  0
 42 43  1  0  0  0  0
 43 14  1  0  0  0  0
 44 76  1  0  0  0  0
 44 77  1  0  0  0  0
 44 78  1  0  0  0  0
 45 79  1  0  0  0  0
 45 80  1  0  0  0  0
 45 81  1  0  0  0  0
M  CHG  3  13   1  15   1  43  -2
M  END
>  <DRUGBANK_ID>
DB03317

>  <SECONDARY_ACCESSION_NUMBERS>
EXPT01722

>  <COMMON_NAME>
Ferroheme C

>  <CAS_NUMBER>
26598-29-8

>  <SYNONYMS>
Heme C

$$$$
