
 OpenBabel10282417143D

 51 53  0  0  0  0  0  0  0  0999 V2000
   -1.1858   -1.3242   -0.0494 O   0  0  0  0  0  0  0  0  0  0  0  0
   -3.5775   -1.3132    0.1138 O   0  0  0  0  0  0  0  0  0  0  0  0
    1.3422    1.3450   -0.2569 O   0  0  0  0  0  0  0  0  0  0  0  0
    2.4177   -0.7408   -0.2445 O   0  0  0  0  0  0  0  0  0  0  0  0
   -3.7650   -0.1858    3.6503 O   0  0  0  0  0  0  0  0  0  0  0  0
   -1.0342    2.9272    0.0033 O   0  0  0  0  0  0  0  0  0  0  0  0
   -1.9612    1.1446    1.5372 O   0  0  0  0  0  0  0  0  0  0  0  0
   -2.4946   -3.6781    1.5668 O   0  0  0  0  0  0  0  0  0  0  0  0
   -1.4117   -3.0072    4.0978 O   0  0  0  0  0  0  0  0  0  0  0  0
   -1.3785   -0.1440    3.6926 O   0  0  0  0  0  0  0  0  0  0  0  0
   -5.1045    1.7172    1.2498 O   0  0  0  0  0  0  0  0  0  0  0  0
    1.6232    0.0793    2.6522 O   0  0  0  0  0  0  0  0  0  0  0  0
   -6.5149    0.1395    1.9657 O   0  0  0  0  0  0  0  0  0  0  0  0
    3.5116    1.2105    2.4644 O   0  0  0  0  0  0  0  0  0  0  0  0
    0.1123    0.7497    0.0462 C   0  0  2  0  0  0  0  0  0  0  0  0
    0.0126   -0.6896   -0.4610 C   0  0  1  0  0  0  0  0  0  0  0  0
   -1.0588    1.5729   -0.4896 C   0  0  1  0  0  0  0  0  0  0  0  0
   -2.2705    0.9169    0.1133 C   0  0  1  0  0  0  0  0  0  0  0  0
   -2.3831   -0.6011   -0.3222 C   0  0  1  0  0  0  0  0  0  0  0  0
   -3.7985   -1.6164    1.5241 C   0  0  1  0  0  0  0  0  0  0  0  0
    1.2313   -1.4737    0.0304 C   0  0  0  0  0  0  0  0  0  0  0  0
   -2.5767   -2.3563    2.1049 C   0  0  1  0  0  0  0  0  0  0  0  0
   -4.1457   -0.3333    2.2911 C   0  0  1  0  0  0  0  0  0  0  0  0
    2.4286    0.5901    0.2907 C   0  0  1  0  0  0  0  0  0  0  0  0
   -2.5670   -2.3195    3.6185 C   0  0  2  0  0  0  0  0  0  0  0  0
   -2.5671   -0.8450    4.0544 C   0  0  3  0  0  0  0  0  0  0  0  0
    3.6518    1.2837   -0.3483 C   0  0  0  0  0  0  0  0  0  0  0  0
   -5.3483    0.5055    1.8202 C   0  0  0  0  0  0  0  0  0  0  0  0
    2.5837    0.6542    1.8886 C   0  0  0  0  0  0  0  0  0  0  0  0
    0.0428    0.7827    1.1305 H   0  0  0  0  0  0  0  0  0  0  0  0
    0.0526   -0.6775   -1.5535 H   0  0  0  0  0  0  0  0  0  0  0  0
   -0.3285    2.9803    0.6770 H   0  0  0  0  0  0  0  0  0  0  0  0
   -2.5773    1.7644    1.9797 H   0  0  0  0  0  0  0  0  0  0  0  0
   -3.2636   -4.1836    1.8699 H   0  0  0  0  0  0  0  0  0  0  0  0
   -1.3169   -2.8026    5.0433 H   0  0  0  0  0  0  0  0  0  0  0  0
   -1.3884    0.0368    2.7379 H   0  0  0  0  0  0  0  0  0  0  0  0
   -4.2370    2.1477    1.1381 H   0  0  0  0  0  0  0  0  0  0  0  0
    0.8601   -0.4014    2.2945 H   0  0  0  0  0  0  0  0  0  0  0  0
   -1.1089    1.6108   -1.5764 H   0  0  0  0  0  0  0  0  0  0  0  0
   -3.1858    1.4270   -0.1784 H   0  0  0  0  0  0  0  0  0  0  0  0
   -2.4883   -0.6032   -1.4131 H   0  0  0  0  0  0  0  0  0  0  0  0
   -4.6691   -2.2850    1.5744 H   0  0  0  0  0  0  0  0  0  0  0  0
    1.1970   -1.7453    1.0898 H   0  0  0  0  0  0  0  0  0  0  0  0
    1.2842   -2.4486   -0.4655 H   0  0  0  0  0  0  0  0  0  0  0  0
   -1.6341   -1.8938    1.8357 H   0  0  0  0  0  0  0  0  0  0  0  0
   -3.4352    0.2139    1.8062 H   0  0  0  0  0  0  0  0  0  0  0  0
   -3.4584   -2.8300    3.9887 H   0  0  0  0  0  0  0  0  0  0  0  0
   -2.5467   -0.8195    5.1460 H   0  0  0  0  0  0  0  0  0  0  0  0
    4.2292    1.8737    0.3674 H   0  0  0  0  0  0  0  0  0  0  0  0
    4.3294    0.5598   -0.8090 H   0  0  0  0  0  0  0  0  0  0  0  0
    3.3574    1.9934   -1.1353 H   0  0  0  0  0  0  0  0  0  0  0  0
  1 16  1  0  0  0  0
  1 19  1  0  0  0  0
  3 15  1  0  0  0  0
  3 24  1  0  0  0  0
  4 21  1  0  0  0  0
  4 24  1  0  0  0  0
  5 23  1  0  0  0  0
  5 26  1  0  0  0  0
  6 32  1  0  0  0  0
  7 33  1  0  0  0  0
  8 34  1  0  0  0  0
  9 35  1  0  0  0  0
 10 26  1  0  0  0  0
 10 36  1  0  0  0  0
 11 28  1  0  0  0  0
 11 37  1  0  0  0  0
 12 29  1  0  0  0  0
 12 38  1  0  0  0  0
 13 28  2  0  0  0  0
 14 29  2  0  0  0  0
 15 16  1  0  0  0  0
 15 17  1  0  0  0  0
 15 30  1  1  0  0  0
 16 21  1  0  0  0  0
 16 31  1  6  0  0  0
 17 18  1  0  0  0  0
 17 39  1  6  0  0  0
 17  6  1  0  0  0  0
 18 19  1  0  0  0  0
 18 40  1  6  0  0  0
 18  7  1  0  0  0  0
 19  2  1  0  0  0  0
 19 41  1  6  0  0  0
 20  2  1  0  0  0  0
 20 22  1  0  0  0  0
 20 23  1  0  0  0  0
 20 42  1  1  0  0  0
 21 43  1  0  0  0  0
 21 44  1  0  0  0  0
 22  8  1  0  0  0  0
 22 25  1  0  0  0  0
 22 45  1  6  0  0  0
 23 28  1  0  0  0  0
 23 46  1  6  0  0  0
 24 29  1  1  0  0  0
 24 27  1  0  0  0  0
 25 26  1  0  0  0  0
 25 47  1  1  0  0  0
 25  9  1  0  0  0  0
 26 48  1  0  0  0  0
 27 49  1  0  0  0  0
 27 50  1  0  0  0  0
 27 51  1  0  0  0  0
M  END
>  <DRUGBANK_ID>
DB04596

>  <COMMON_NAME>
4-O-{4,6-O-[(1S)-1-Carboxyethylidene]-Î²-D-mannopyranosyl}-D-glucopyranuronic acid

$$$$
