
 OpenBabel10282417113D

 48 51  0  0  0  0  0  0  0  0999 V2000
   -0.0969    0.7198   -0.1015 C   0  0  0  0  0  0  0  0  0  0  0  0
   -0.0924   -0.6813   -0.0370 C   0  0  0  0  0  0  0  0  0  0  0  0
    2.4572   -0.7447   -0.0258 C   0  0  0  0  0  0  0  0  0  0  0  0
    1.1996    1.3708   -0.1626 N   0  0  0  0  0  0  0  0  0  0  0  0
   -1.2903    1.4319   -0.1088 N   0  0  0  0  0  0  0  0  0  0  0  0
   -3.6843    1.4853    0.0091 N   0  0  0  0  0  0  0  0  0  0  0  0
    1.1686   -1.4678   -0.0239 C   0  0  0  0  0  0  0  0  0  0  0  0
   -2.4940    0.7732   -0.0305 C   0  0  0  0  0  0  0  0  0  0  0  0
    2.3574    0.5932   -0.0703 C   0  0  0  0  0  0  0  0  0  0  0  0
   -5.6801    2.4018   -0.8407 C   0  0  0  0  0  0  0  0  0  0  0  0
   -1.3044   -1.3604    0.0120 C   0  0  0  0  0  0  0  0  0  0  0  0
    1.2803    2.8440    0.0635 C   0  0  0  0  0  0  0  0  0  0  0  0
   -6.0677    1.3949    0.2396 C   0  0  3  0  0  0  0  0  0  0  0  0
    3.7613   -1.4505    0.0082 C   0  0  0  0  0  0  0  0  0  0  0  0
   -2.4922   -0.6337    0.0252 C   0  0  0  0  0  0  0  0  0  0  0  0
   -4.1525    2.4118   -1.0383 C   0  0  0  0  0  0  0  0  0  0  0  0
   -4.7375    1.2937    1.0131 C   0  0  0  0  0  0  0  0  0  0  0  0
    1.7158    3.9336   -0.8870 C   0  0  0  0  0  0  0  0  0  0  0  0
    2.6384    3.5182    0.2092 C   0  0  0  0  0  0  0  0  0  0  0  0
   -6.5922    3.0866   -1.4812 N   0  0  0  0  0  0  0  0  0  0  0  0
    1.1137   -2.6927    0.0019 O   0  0  0  0  0  0  0  0  0  0  0  0
    3.9438   -2.6613    0.0179 O   0  0  0  0  0  0  0  0  0  0  0  0
   -3.6426   -1.3260    0.0410 F   0  0  0  0  0  0  0  0  0  0  0  0
    4.8351   -0.6349    0.0081 O   0  0  0  0  0  0  0  0  0  0  0  0
   -7.2600    1.7977    1.1102 C   0  0  0  0  0  0  0  0  0  0  0  0
   -8.4999    1.8189    0.3302 N   0  0  0  0  0  0  0  0  0  0  0  0
   -6.0525    3.9392   -2.4594 O   0  0  0  0  0  0  0  0  0  0  0  0
   -7.1127    4.6476   -3.1232 C   0  0  0  0  0  0  0  0  0  0  0  0
    3.2818    1.1530   -0.0412 H   0  0  0  0  0  0  0  0  0  0  0  0
   -1.3276   -2.4475    0.0281 H   0  0  0  0  0  0  0  0  0  0  0  0
    0.4369    3.1857    0.6635 H   0  0  0  0  0  0  0  0  0  0  0  0
   -6.2668    0.4338   -0.2512 H   0  0  0  0  0  0  0  0  0  0  0  0
   -3.7803    3.4227   -0.8578 H   0  0  0  0  0  0  0  0  0  0  0  0
   -3.9203    2.0626   -2.0472 H   0  0  0  0  0  0  0  0  0  0  0  0
   -4.6633    0.3610    1.5815 H   0  0  0  0  0  0  0  0  0  0  0  0
   -4.6600    2.1200    1.7343 H   0  0  0  0  0  0  0  0  0  0  0  0
    1.9741    3.6998   -1.9110 H   0  0  0  0  0  0  0  0  0  0  0  0
    1.2896    4.9279   -0.7707 H   0  0  0  0  0  0  0  0  0  0  0  0
    2.7903    4.1164    1.0969 H   0  0  0  0  0  0  0  0  0  0  0  0
    3.5582    3.0599   -0.1359 H   0  0  0  0  0  0  0  0  0  0  0  0
    5.5963   -1.2588    0.0072 H   0  0  0  0  0  0  0  0  0  0  0  0
   -7.3912    1.0768    1.9254 H   0  0  0  0  0  0  0  0  0  0  0  0
   -7.1065    2.7842    1.5623 H   0  0  0  0  0  0  0  0  0  0  0  0
   -9.2725    2.1773    0.8879 H   0  0  0  0  0  0  0  0  0  0  0  0
   -8.3737    2.4856   -0.4424 H   0  0  0  0  0  0  0  0  0  0  0  0
   -7.7963    3.9633   -3.6397 H   0  0  0  0  0  0  0  0  0  0  0  0
   -7.6775    5.2748   -2.4233 H   0  0  0  0  0  0  0  0  0  0  0  0
   -6.6667    5.3063   -3.8765 H   0  0  0  0  0  0  0  0  0  0  0  0
  2  1  2  0  0  0  0
  3  9  2  0  0  0  0
  4  1  1  0  0  0  0
  5  1  1  0  0  0  0
  6  8  1  0  0  0  0
  7  2  1  0  0  0  0
  7  3  1  0  0  0  0
  8  5  2  0  0  0  0
  9  4  1  0  0  0  0
  9 29  1  0  0  0  0
 10 16  1  0  0  0  0
 11  2  1  0  0  0  0
 11 15  2  0  0  0  0
 11 30  1  0  0  0  0
 12  4  1  0  0  0  0
 12 31  1  0  0  0  0
 13 17  1  0  0  0  0
 13 10  1  0  0  0  0
 13 32  1  0  0  0  0
 14  3  1  0  0  0  0
 15  8  1  0  0  0  0
 16  6  1  0  0  0  0
 16 33  1  0  0  0  0
 16 34  1  0  0  0  0
 17  6  1  0  0  0  0
 17 35  1  0  0  0  0
 17 36  1  0  0  0  0
 18 12  1  0  0  0  0
 18 37  1  0  0  0  0
 18 38  1  0  0  0  0
 19 12  1  0  0  0  0
 19 18  1  0  0  0  0
 19 39  1  0  0  0  0
 19 40  1  0  0  0  0
 20 10  2  0  0  0  0
 20 27  1  0  0  0  0
 21  7  2  0  0  0  0
 22 14  2  0  0  0  0
 23 15  1  0  0  0  0
 24 14  1  0  0  0  0
 24 41  1  0  0  0  0
 25 13  1  0  0  0  0
 25 42  1  0  0  0  0
 25 43  1  0  0  0  0
 26 25  1  0  0  0  0
 26 44  1  0  0  0  0
 26 45  1  0  0  0  0
 27 28  1  0  0  0  0
 28 46  1  0  0  0  0
 28 47  1  0  0  0  0
 28 48  1  0  0  0  0
M  END
>  <DRUGBANK_ID>
DB01155

>  <SECONDARY_ACCESSION_NUMBERS>
APRD00053

>  <COMMON_NAME>
Gemifloxacin

>  <CAS_NUMBER>
175463-14-6

>  <UNII>
OKR68Y0E4T

>  <SYNONYMS>
Gemifloxacin

$$$$
