
 OpenBabel10282417203D

 24 24  0  0  1  0  0  0  0  0999 V2000
    0.9329    0.0194    0.0029 C   0  0  0  0  0  0  0  0  0  0  0  0
    0.8405    3.6103    2.6044 C   0  0  0  0  0  0  0  0  0  0  0  0
    1.3062    2.3007    2.4887 C   0  0  0  0  0  0  0  0  0  0  0  0
   -0.4749    3.8582    3.0011 C   0  0  0  0  0  0  0  0  0  0  0  0
    0.9178   -0.1998    2.5421 C   0  0  0  0  0  0  0  0  0  0  0  0
   -0.8487    1.4814    3.2050 C   0  0  0  0  0  0  0  0  0  0  0  0
    0.4257   -0.7906    1.1976 C   0  0  1  0  0  0  0  0  0  0  0  0
    0.4608    1.2207    2.7818 C   0  0  0  0  0  0  0  0  0  0  0  0
   -1.3125    2.7850    3.2898 C   0  0  0  0  0  0  0  0  0  0  0  0
   -1.0369   -0.9016    1.1158 N   0  0  0  0  0  0  0  0  0  0  0  0
   -2.6177    2.9621    3.6407 O   0  0  0  0  0  0  0  0  0  0  0  0
    0.8262   -1.8077    1.1127 H   0  0  0  0  0  0  0  0  0  0  0  0
    0.5679    1.0523    0.0204 H   0  0  0  0  0  0  0  0  0  0  0  0
    0.6054   -0.4224   -0.9435 H   0  0  0  0  0  0  0  0  0  0  0  0
    2.0277    0.0493    0.0000 H   0  0  0  0  0  0  0  0  0  0  0  0
    1.5024    4.4393    2.3640 H   0  0  0  0  0  0  0  0  0  0  0  0
    2.3203    2.1237    2.1358 H   0  0  0  0  0  0  0  0  0  0  0  0
   -0.8256    4.8810    3.0717 H   0  0  0  0  0  0  0  0  0  0  0  0
    0.5805   -0.8290    3.3767 H   0  0  0  0  0  0  0  0  0  0  0  0
    2.0152   -0.2403    2.5709 H   0  0  0  0  0  0  0  0  0  0  0  0
   -1.5318    0.6649    3.4292 H   0  0  0  0  0  0  0  0  0  0  0  0
   -1.3888   -1.3678    1.9513 H   0  0  0  0  0  0  0  0  0  0  0  0
   -1.4388    0.0384    1.1414 H   0  0  0  0  0  0  0  0  0  0  0  0
   -2.8149    3.9117    3.6443 H   0  0  0  0  0  0  0  0  0  0  0  0
  1 13  1  0  0  0  0
  1 14  1  0  0  0  0
  1 15  1  0  0  0  0
  2 16  1  0  0  0  0
  3  2  2  0  0  0  0
  3 17  1  0  0  0  0
  4  2  1  0  0  0  0
  4 18  1  0  0  0  0
  5 19  1  0  0  0  0
  5 20  1  0  0  0  0
  6 21  1  0  0  0  0
  7  1  1  0  0  0  0
  7  5  1  0  0  0  0
  7 10  1  0  0  0  0
  7 12  1  6  0  0  0
  8  3  1  0  0  0  0
  8  5  1  0  0  0  0
  8  6  2  0  0  0  0
  9  4  2  0  0  0  0
  9  6  1  0  0  0  0
 10 22  1  0  0  0  0
 10 23  1  0  0  0  0
 11  9  1  0  0  0  0
 11 24  1  0  0  0  0
M  END
>  <DRUGBANK_ID>
DB13703

>  <COMMON_NAME>
Gepefrine

>  <CAS_NUMBER>
18840-47-6

>  <UNII>
V51RRX51VH

>  <SYNONYMS>
Gepefrine

$$$$
