
 OpenBabel10282417213D

  3  2  0  0  0  0  0  0  0  0999 V2000
    0.9161   -0.0227   -0.0174 O   0  0  0  0  0  0  0  0  0  0  0  0
    0.3441   -0.7838   -1.3936 Cl  0  0  0  0  0  0  0  0  0  0  0  0
    1.8881   -0.0194   -0.0113 H   0  0  0  0  0  0  0  0  0  0  0  0
  1  2  1  0  0  0  0
  1  3  1  0  0  0  0
M  END
>  <DRUGBANK_ID>
DB14135

>  <COMMON_NAME>
Hypochlorous acid

>  <CAS_NUMBER>
7790-92-3

>  <UNII>
712K4CDC10

>  <SYNONYMS>
Chlor(I)-säure; Chloranol; Hydroxidochlorine; Hypochlorige Säure

$$$$
