JJ3
 OpenBabel10282417173D

 46 49  0  0  0  0  0  0  0  0999 V2000
   -2.6343    1.3007    0.0464 C   0  0  0  0  0  0  0  0  0  0  0  0
   -3.0487    0.0894   -0.4860 C   0  0  0  0  0  0  0  0  0  0  0  0
   -2.1534   -0.9954   -0.5360 C   0  0  0  0  0  0  0  0  0  0  0  0
   -0.8505   -0.8464   -0.0377 C   0  0  0  0  0  0  0  0  0  0  0  0
   -0.0457   -1.9536   -0.0700 O   0  0  0  0  0  0  0  0  0  0  0  0
    1.1485   -1.9081    0.7292 C   0  0  2  0  0  0  0  0  0  0  0  0
    1.8950   -0.5851    0.5111 C   0  0  1  0  0  0  0  0  0  0  0  0
    2.2887   -0.3336   -0.9514 C   0  0  0  0  0  0  0  0  0  0  0  0
    2.3720    1.1781   -1.0915 C   0  0  0  0  0  0  0  0  0  0  0  0
    1.6486    1.7769    0.1113 C   0  0  0  0  0  0  0  0  0  0  0  0
    1.0035    0.6072    0.8647 C   0  0  1  0  0  0  0  0  0  0  0  0
   -0.4232    0.3915    0.4422 C   0  0  0  0  0  0  0  0  0  0  0  0
   -1.3388    1.4541    0.5120 C   0  0  0  0  0  0  0  0  0  0  0  0
    2.0458   -3.1005    0.3864 C   0  0  0  0  0  0  0  0  0  0  0  0
    3.2699   -3.2797    1.0596 C   0  0  0  0  0  0  0  0  0  0  0  0
    4.1926   -4.2294    0.6123 C   0  0  0  0  0  0  0  0  0  0  0  0
    3.8647   -5.0709   -0.4371 C   0  0  0  0  0  0  0  0  0  0  0  0
    4.8090   -5.9539   -0.8712 O   0  0  0  0  0  0  0  0  0  0  0  0
    2.6107   -5.0032   -1.0353 C   0  0  0  0  0  0  0  0  0  0  0  0
    1.7213   -3.9987   -0.6421 C   0  0  0  0  0  0  0  0  0  0  0  0
   -2.6448   -2.3381   -1.0128 C   0  0  0  0  0  0  0  0  0  0  0  0
   -3.6999   -2.8103   -0.1690 O   0  0  0  0  0  0  0  0  0  0  0  0
   -3.2551   -3.0326    1.1680 C   0  0  0  0  0  0  0  0  0  0  0  0
   -3.4656    2.3760    0.1348 O   0  0  0  0  0  0  0  0  0  0  0  0
    0.8435   -2.0174    1.7793 H   0  0  0  0  0  0  0  0  0  0  0  0
    2.8027   -0.5373    1.1276 H   0  0  0  0  0  0  0  0  0  0  0  0
    1.0102    0.7795    1.9487 H   0  0  0  0  0  0  0  0  0  0  0  0
   -4.0717   -0.0502   -0.8240 H   0  0  0  0  0  0  0  0  0  0  0  0
    1.5407   -0.7242   -1.6516 H   0  0  0  0  0  0  0  0  0  0  0  0
    3.2391   -0.8134   -1.2065 H   0  0  0  0  0  0  0  0  0  0  0  0
    3.4129    1.5146   -1.1068 H   0  0  0  0  0  0  0  0  0  0  0  0
    1.9065    1.4981   -2.0302 H   0  0  0  0  0  0  0  0  0  0  0  0
    2.3702    2.2828    0.7617 H   0  0  0  0  0  0  0  0  0  0  0  0
    0.9383    2.5402   -0.2224 H   0  0  0  0  0  0  0  0  0  0  0  0
   -1.0381    2.4193    0.9126 H   0  0  0  0  0  0  0  0  0  0  0  0
    3.5349   -2.6546    1.9074 H   0  0  0  0  0  0  0  0  0  0  0  0
    5.1759   -4.2963    1.0736 H   0  0  0  0  0  0  0  0  0  0  0  0
    4.4732   -6.4001   -1.6645 H   0  0  0  0  0  0  0  0  0  0  0  0
    2.3174   -5.6957   -1.8148 H   0  0  0  0  0  0  0  0  0  0  0  0
    0.7768   -3.9094   -1.1765 H   0  0  0  0  0  0  0  0  0  0  0  0
   -3.0357   -2.2356   -2.0320 H   0  0  0  0  0  0  0  0  0  0  0  0
   -1.8567   -3.0978   -1.0645 H   0  0  0  0  0  0  0  0  0  0  0  0
   -2.4251   -3.7450    1.1871 H   0  0  0  0  0  0  0  0  0  0  0  0
   -2.9514   -2.0950    1.6451 H   0  0  0  0  0  0  0  0  0  0  0  0
   -4.0902   -3.4345    1.7443 H   0  0  0  0  0  0  0  0  0  0  0  0
   -4.3384    2.1248   -0.2082 H   0  0  0  0  0  0  0  0  0  0  0  0
  1  2  1  0  0  0  0
  1 13  2  0  0  0  0
  1 24  1  0  0  0  0
  2  3  2  0  0  0  0
  2 28  1  0  0  0  0
  3  4  1  0  0  0  0
  3 21  1  0  0  0  0
  4  5  1  0  0  0  0
  4 12  2  0  0  0  0
  5  6  1  0  0  0  0
  6  7  1  0  0  0  0
  6 14  1  0  0  0  0
  6 25  1  1  0  0  0
  7  8  1  0  0  0  0
  7 11  1  0  0  0  0
  7 26  1  1  0  0  0
  8  9  1  0  0  0  0
  8 29  1  0  0  0  0
  8 30  1  0  0  0  0
  9 10  1  0  0  0  0
  9 31  1  0  0  0  0
  9 32  1  0  0  0  0
 10 11  1  0  0  0  0
 10 33  1  0  0  0  0
 10 34  1  0  0  0  0
 11 12  1  0  0  0  0
 11 27  1  1  0  0  0
 12 13  1  0  0  0  0
 13 35  1  0  0  0  0
 14 15  1  0  0  0  0
 14 20  2  0  0  0  0
 15 16  2  0  0  0  0
 15 36  1  0  0  0  0
 16 17  1  0  0  0  0
 16 37  1  0  0  0  0
 17 18  1  0  0  0  0
 17 19  2  0  0  0  0
 18 38  1  0  0  0  0
 19 20  1  0  0  0  0
 19 39  1  0  0  0  0
 20 40  1  0  0  0  0
 21 22  1  0  0  0  0
 21 41  1  0  0  0  0
 21 42  1  0  0  0  0
 22 23  1  0  0  0  0
 23 43  1  0  0  0  0
 23 44  1  0  0  0  0
 23 45  1  0  0  0  0
 24 46  1  0  0  0  0
M  END
>  <DRUGBANK_ID>
DB08020

>  <COMMON_NAME>
(3AS,4R,9BR)-4-(4-HYDROXYPHENYL)-6-(METHOXYMETHYL)-1,2,3,3A,4,9B-HEXAHYDROCYCLOPENTA[C]CHROMEN-8-OL

$$$$
