
 OpenBabel10282417203D

 61 62  0  0  1  0  0  0  0  0999 V2000
    0.9125   -0.1630    0.0104 C   0  0  0  0  0  0  0  0  0  0  0  0
    0.3394    0.1701   -1.3681 C   0  0  0  0  0  0  0  0  0  0  0  0
    1.0023   -0.4921   -2.4985 N   0  0  0  0  0  0  0  0  0  0  0  0
    0.4607   -0.0807   -3.8054 C   0  0  0  0  0  0  0  0  0  0  0  0
    0.7332    1.3482   -4.2794 C   0  0  0  0  0  0  0  0  0  0  0  0
    2.4708   -0.4949   -2.4488 C   0  0  0  0  0  0  0  0  0  0  0  0
    3.2062    0.8603   -2.5607 C   0  0  3  0  0  0  0  0  0  0  0  0
    2.7912    2.0143   -1.6460 C   0  0  0  0  0  0  0  0  0  0  0  0
    4.6156    0.6786   -2.5338 O   0  0  0  0  0  0  0  0  0  0  0  0
    5.2037    0.3533   -1.3661 C   0  0  0  0  0  0  0  0  0  0  0  0
    4.6384    0.0508   -0.3397 O   0  0  0  0  0  0  0  0  0  0  0  0
    6.6948    0.4132   -1.5285 C   0  0  1  0  0  0  0  0  0  0  0  0
    7.1629   -0.9100   -2.1280 C   0  0  0  0  0  0  0  0  0  0  0  0
    8.6796   -0.9215   -2.2655 C   0  0  0  0  0  0  0  0  0  0  0  0
    9.1935    0.2675   -3.0584 C   0  0  0  0  0  0  0  0  0  0  0  0
    8.7110    1.5718   -2.4486 C   0  0  0  0  0  0  0  0  0  0  0  0
    7.1689    1.6177   -2.3726 C   0  0  2  0  0  0  0  0  0  0  0  0
    6.6628    2.9871   -1.8249 C   0  0  0  0  0  0  0  0  0  0  0  0
    7.1674    4.0745   -2.7818 C   0  0  0  0  0  0  0  0  0  0  0  0
    6.8319    5.4723   -2.3595 C   0  0  0  0  0  0  0  0  0  0  0  0
    7.3814    5.7196   -0.9687 C   0  0  0  0  0  0  0  0  0  0  0  0
    6.7873    4.7374    0.0350 C   0  0  0  0  0  0  0  0  0  0  0  0
    7.0660    3.2851   -0.3601 C   0  0  0  0  0  0  0  0  0  0  0  0
    6.7556    1.4270   -3.7456 O   0  0  0  0  0  0  0  0  0  0  0  0
    0.6321   -1.1747    0.3096 H   0  0  0  0  0  0  0  0  0  0  0  0
    0.5412    0.5521    0.7508 H   0  0  0  0  0  0  0  0  0  0  0  0
    2.0014   -0.0962    0.0693 H   0  0  0  0  0  0  0  0  0  0  0  0
   -0.7292   -0.0700   -1.3640 H   0  0  0  0  0  0  0  0  0  0  0  0
    0.3356    1.2486   -1.4886 H   0  0  0  0  0  0  0  0  0  0  0  0
    0.8333   -0.7751   -4.5696 H   0  0  0  0  0  0  0  0  0  0  0  0
   -0.6254   -0.2217   -3.7871 H   0  0  0  0  0  0  0  0  0  0  0  0
    1.7497    1.4808   -4.6393 H   0  0  0  0  0  0  0  0  0  0  0  0
    0.1366    1.6021   -5.1545 H   0  0  0  0  0  0  0  0  0  0  0  0
    0.5244    2.0885   -3.5043 H   0  0  0  0  0  0  0  0  0  0  0  0
    2.8090   -1.0435   -1.5622 H   0  0  0  0  0  0  0  0  0  0  0  0
    2.8465   -1.1556   -3.2473 H   0  0  0  0  0  0  0  0  0  0  0  0
    3.1133    1.2147   -3.5755 H   0  0  0  0  0  0  0  0  0  0  0  0
    2.9441    1.7762   -0.5924 H   0  0  0  0  0  0  0  0  0  0  0  0
    3.3648    2.9156   -1.8652 H   0  0  0  0  0  0  0  0  0  0  0  0
    1.7632    2.3350   -1.7705 H   0  0  0  0  0  0  0  0  0  0  0  0
    7.0896    0.5164   -0.5116 H   0  0  0  0  0  0  0  0  0  0  0  0
    6.6966   -1.0770   -3.1089 H   0  0  0  0  0  0  0  0  0  0  0  0
    6.8385   -1.7389   -1.4896 H   0  0  0  0  0  0  0  0  0  0  0  0
    8.9981   -1.8445   -2.7540 H   0  0  0  0  0  0  0  0  0  0  0  0
    9.1242   -0.8958   -1.2640 H   0  0  0  0  0  0  0  0  0  0  0  0
    8.8514    0.2046   -4.0991 H   0  0  0  0  0  0  0  0  0  0  0  0
   10.2864    0.2744   -3.0851 H   0  0  0  0  0  0  0  0  0  0  0  0
    9.1092    2.3494   -3.1048 H   0  0  0  0  0  0  0  0  0  0  0  0
    9.1553    1.7132   -1.4586 H   0  0  0  0  0  0  0  0  0  0  0  0
    5.5661    3.0135   -1.8569 H   0  0  0  0  0  0  0  0  0  0  0  0
    8.2551    4.0325   -2.8388 H   0  0  0  0  0  0  0  0  0  0  0  0
    6.7841    3.9296   -3.7935 H   0  0  0  0  0  0  0  0  0  0  0  0
    7.3008    6.1464   -3.0833 H   0  0  0  0  0  0  0  0  0  0  0  0
    5.7487    5.6208   -2.4011 H   0  0  0  0  0  0  0  0  0  0  0  0
    8.4740    5.6046   -0.9806 H   0  0  0  0  0  0  0  0  0  0  0  0
    7.1619    6.7491   -0.6791 H   0  0  0  0  0  0  0  0  0  0  0  0
    7.2098    4.9342    1.0269 H   0  0  0  0  0  0  0  0  0  0  0  0
    5.7049    4.8952    0.1060 H   0  0  0  0  0  0  0  0  0  0  0  0
    6.5347    2.6247    0.3392 H   0  0  0  0  0  0  0  0  0  0  0  0
    8.1326    3.0929   -0.2090 H   0  0  0  0  0  0  0  0  0  0  0  0
    6.2328    2.1775   -4.0655 H   0  0  0  0  0  0  0  0  0  0  0  0
  1  2  1  0  0  0  0
  1 25  1  0  0  0  0
  1 26  1  0  0  0  0
  1 27  1  0  0  0  0
  2  3  1  0  0  0  0
  2 28  1  0  0  0  0
  2 29  1  0  0  0  0
  3  4  1  0  0  0  0
  3  6  1  0  0  0  0
  4  5  1  0  0  0  0
  4 30  1  0  0  0  0
  4 31  1  0  0  0  0
  5 32  1  0  0  0  0
  5 33  1  0  0  0  0
  5 34  1  0  0  0  0
  6  7  1  0  0  0  0
  6 35  1  0  0  0  0
  6 36  1  0  0  0  0
  7  8  1  0  0  0  0
  7  9  1  0  0  0  0
  7 37  1  0  0  0  0
  8 38  1  0  0  0  0
  8 39  1  0  0  0  0
  8 40  1  0  0  0  0
  9 10  1  0  0  0  0
 10 11  2  0  0  0  0
 12 10  1  0  0  0  0
 12 13  1  0  0  0  0
 12 17  1  0  0  0  0
 12 41  1  1  0  0  0
 13 14  1  0  0  0  0
 13 42  1  0  0  0  0
 13 43  1  0  0  0  0
 14 15  1  0  0  0  0
 14 44  1  0  0  0  0
 14 45  1  0  0  0  0
 15 16  1  0  0  0  0
 15 46  1  0  0  0  0
 15 47  1  0  0  0  0
 16 17  1  0  0  0  0
 16 48  1  0  0  0  0
 16 49  1  0  0  0  0
 17 24  1  6  0  0  0
 17 18  1  0  0  0  0
 18 19  1  0  0  0  0
 18 23  1  0  0  0  0
 18 50  1  0  0  0  0
 19 20  1  0  0  0  0
 19 51  1  0  0  0  0
 19 52  1  0  0  0  0
 20 21  1  0  0  0  0
 20 53  1  0  0  0  0
 20 54  1  0  0  0  0
 21 22  1  0  0  0  0
 21 55  1  0  0  0  0
 21 56  1  0  0  0  0
 22 23  1  0  0  0  0
 22 57  1  0  0  0  0
 22 58  1  0  0  0  0
 23 59  1  0  0  0  0
 23 60  1  0  0  0  0
 24 61  1  0  0  0  0
M  END
>  <DRUGBANK_ID>
DB13581

>  <COMMON_NAME>
Rociverine

>  <CAS_NUMBER>
53716-44-2

>  <UNII>
VI08KS44V0

>  <SYNONYMS>
Rociverine

$$$$
