
 OpenBabel10282417123D

 38 40  0  0  0  0  0  0  0  0999 V2000
    0.9515   -0.0273   -0.0831 P   0  0  0  0  0  0  0  0  0  0  0  0
   -2.2336    3.9514   -1.5088 O   0  0  0  0  0  0  0  0  0  0  0  0
    0.4145    4.0010   -2.3292 O   0  0  0  0  0  0  0  0  0  0  0  0
    0.8043   -0.4361   -1.6552 O   0  0  0  0  0  0  0  0  0  0  0  0
    0.8426   -1.4757    0.6484 O   0  0  0  0  0  0  0  0  0  0  0  0
   -0.7785   -0.0273   -0.0831 O   0  0  0  0  0  0  0  0  0  0  0  0
    1.3696   -0.4089    4.7095 O   0  0  0  0  0  0  0  0  0  0  0  0
    2.4999   -0.0273   -0.0831 O   0  0  0  0  0  0  0  0  0  0  0  0
   -1.5949    1.2638   -1.5771 N   0  0  0  0  0  0  0  0  0  0  0  0
   -1.0386    0.4558    3.2721 N   0  0  0  0  0  0  0  0  0  0  0  0
    1.5164    2.0179    1.4859 N   0  0  0  0  0  0  0  0  0  0  0  0
    2.5972    0.4354    2.9795 N   0  0  0  0  0  0  0  0  0  0  0  0
   -1.7722    2.0414   -0.1839 C   0  0  2  0  0  0  0  0  0  0  0  0
   -0.3733    1.7132   -2.2793 C   0  0  1  0  0  0  0  0  0  0  0  0
   -1.2526    3.3547   -0.6550 C   0  0  1  0  0  0  0  0  0  0  0  0
   -0.0099    2.9599   -1.4787 C   0  0  2  0  0  0  0  0  0  0  0  0
   -1.1079    1.6606    1.3217 C   0  0  0  0  0  0  0  0  0  0  0  0
    0.8336    0.7157   -2.5039 C   0  0  0  0  0  0  0  0  0  0  0  0
    0.2667    1.6482    1.9126 C   0  0  0  0  0  0  0  0  0  0  0  0
   -1.8622    0.9524    2.2822 C   0  0  0  0  0  0  0  0  0  0  0  0
    0.2570    0.7822    2.9963 C   0  0  0  0  0  0  0  0  0  0  0  0
    1.4282    0.2451    3.6530 C   0  0  0  0  0  0  0  0  0  0  0  0
    2.5920    1.3109    2.0275 C   0  0  0  0  0  0  0  0  0  0  0  0
   -1.4404    0.2667   -1.3424 H   0  0  0  0  0  0  0  0  0  0  0  0
   -1.3120   -0.1656    4.0295 H   0  0  0  0  0  0  0  0  0  0  0  0
    1.7546    2.3159    0.5468 H   0  0  0  0  0  0  0  0  0  0  0  0
   -2.5576    3.2091   -2.0657 H   0  0  0  0  0  0  0  0  0  0  0  0
   -0.3752    4.2271   -2.8574 H   0  0  0  0  0  0  0  0  0  0  0  0
    1.7175   -1.6017    1.0838 H   0  0  0  0  0  0  0  0  0  0  0  0
   -1.1045   -0.6475    0.6023 H   0  0  0  0  0  0  0  0  0  0  0  0
   -2.8582    1.9252   -0.0457 H   0  0  0  0  0  0  0  0  0  0  0  0
   -0.6610    2.0060   -3.2966 H   0  0  0  0  0  0  0  0  0  0  0  0
   -1.0275    3.9969    0.1956 H   0  0  0  0  0  0  0  0  0  0  0  0
    0.8096    2.7304   -0.8211 H   0  0  0  0  0  0  0  0  0  0  0  0
    1.7980    1.2258   -2.3607 H   0  0  0  0  0  0  0  0  0  0  0  0
    0.8483    0.3378   -3.5334 H   0  0  0  0  0  0  0  0  0  0  0  0
   -2.9024    0.6416    2.2757 H   0  0  0  0  0  0  0  0  0  0  0  0
    3.5181    1.4364    1.4239 H   0  0  0  0  0  0  0  0  0  0  0  0
  1  4  1  0  0  0  0
  1  5  1  0  0  0  0
  1  6  1  0  0  0  0
  1  8  2  0  0  0  0
  2 27  1  0  0  0  0
  3 28  1  0  0  0  0
  4 18  1  0  0  0  0
  5 29  1  0  0  0  0
  6 30  1  0  0  0  0
  7 22  2  0  0  0  0
  9 13  1  0  0  0  0
  9 14  1  0  0  0  0
  9 24  1  0  0  0  0
 10 20  1  0  0  0  0
 10 21  1  0  0  0  0
 10 25  1  0  0  0  0
 11 19  1  0  0  0  0
 11 23  1  0  0  0  0
 11 26  1  0  0  0  0
 12 22  1  0  0  0  0
 12 23  2  0  0  0  0
 13 15  1  0  0  0  0
 13 31  1  1  0  0  0
 13 17  1  0  0  0  0
 14 16  1  0  0  0  0
 14 18  1  0  0  0  0
 14 32  1  6  0  0  0
 15  2  1  0  0  0  0
 15 16  1  0  0  0  0
 15 33  1  1  0  0  0
 16  3  1  0  0  0  0
 16 34  1  1  0  0  0
 17 19  1  0  0  0  0
 17 20  2  0  0  0  0
 18 35  1  0  0  0  0
 18 36  1  0  0  0  0
 19 21  2  0  0  0  0
 20 37  1  0  0  0  0
 21 22  1  0  0  0  0
 23 38  1  0  0  0  0
M  END
>  <DRUGBANK_ID>
DB02075

>  <SECONDARY_ACCESSION_NUMBERS>
EXPT01929

>  <COMMON_NAME>
[(2R,3R,4S,5S)-3,4-Dihydroxy-5-(4-oxo-4,5-dihydro-1H-pyrrolo[3,2-d]pyrimidin-7-yl)-2-pyrrolidinyl]methyl dihydrogen phosphate

$$$$
