
 OpenBabel10282417183D

 12 10  0  0  0  0  0  0  0  0999 V2000
    0.6631    0.1519    0.7902 C   0  0  0  0  0  0  0  0  0  0  0  0
    0.0281    1.0655    0.0231 N   0  0  0  0  0  0  0  0  0  0  0  0
   -0.0042   -0.9924    0.9820 N   0  0  0  0  0  0  0  0  0  0  0  0
    1.8731    0.2001    1.0154 O   0  0  0  0  0  0  0  0  0  0  0  0
    1.9828    0.3851   -1.6401 O   0  0  0  0  0  0  0  0  0  0  0  0
    0.8454   -0.3935   -2.1409 O   0  0  0  0  0  0  0  0  0  0  0  0
   -0.9464    1.0250   -0.2376 H   0  0  0  0  0  0  0  0  0  0  0  0
    0.6435    1.5758   -0.6179 H   0  0  0  0  0  0  0  0  0  0  0  0
    0.5288   -1.6989    1.4766 H   0  0  0  0  0  0  0  0  0  0  0  0
   -1.0082   -1.0460    1.0305 H   0  0  0  0  0  0  0  0  0  0  0  0
    2.1933   -0.1604   -0.8437 H   0  0  0  0  0  0  0  0  0  0  0  0
    0.1797   -0.1108   -1.4830 H   0  0  0  0  0  0  0  0  0  0  0  0
  1  2  1  0  0  0  0
  1  3  1  0  0  0  0
  1  4  2  0  0  0  0
  2  7  1  0  0  0  0
  2  8  1  0  0  0  0
  3  9  1  0  0  0  0
  3 10  1  0  0  0  0
  5  6  1  0  0  0  0
  5 11  1  0  0  0  0
  6 12  1  0  0  0  0
M  END
>  <DRUGBANK_ID>
DB11129

>  <COMMON_NAME>
Carbamide peroxide

>  <CAS_NUMBER>
124-43-6

>  <UNII>
31PZ2VAU81

>  <SYNONYMS>
Carbamide peroxide; Hydrogen peroxide carbamide; Urea dioxide; Urea hydrogen peroxide; Urea peroxide

$$$$
