8IN
 OpenBabel10282417123D

 54 56  0  0  0  0  0  0  0  0999 V2000
   -1.8343    0.2972   -0.7350 C   0  0  0  0  0  0  0  0  0  0  0  0
   -0.8095    1.1916   -0.3310 C   0  0  0  0  0  0  0  0  0  0  0  0
    0.3694    0.5555   -0.0434 C   0  0  0  0  0  0  0  0  0  0  0  0
    0.3714   -0.8399    0.0504 C   0  0  0  0  0  0  0  0  0  0  0  0
   -0.8225   -1.6009    0.0669 C   0  0  0  0  0  0  0  0  0  0  0  0
   -1.9909   -0.9705   -0.2323 C   0  0  0  0  0  0  0  0  0  0  0  0
    1.6742    1.0199    0.0556 N   0  0  0  0  0  0  0  0  0  0  0  0
    2.4789   -0.0938   -0.0888 C   0  0  0  0  0  0  0  0  0  0  0  0
    1.7109   -1.2252    0.0453 C   0  0  0  0  0  0  0  0  0  0  0  0
    2.1732   -2.6294    0.0646 C   0  0  0  0  0  0  0  0  0  0  0  0
    1.6481   -3.3405    1.3009 C   0  0  0  0  0  0  0  0  0  0  0  0
    0.9397   -4.3206    1.2525 O   0  0  0  0  0  0  0  0  0  0  0  0
    2.0456   -2.8052    2.5034 N   0  0  0  0  0  0  0  0  0  0  0  0
    3.9287   -0.0974   -0.3115 C   0  0  0  0  0  0  0  0  0  0  0  0
    2.1287    2.4331    0.0676 C   0  0  0  0  0  0  0  0  0  0  0  0
    2.9474    2.7784    1.3049 C   0  0  0  0  0  0  0  0  0  0  0  0
    4.1534    2.1371    1.6148 C   0  0  0  0  0  0  0  0  0  0  0  0
    4.7308    2.1544    2.8713 C   0  0  0  0  0  0  0  0  0  0  0  0
    4.2957    3.0998    3.7658 C   0  0  0  0  0  0  0  0  0  0  0  0
    3.2686    3.9673    3.3898 C   0  0  0  0  0  0  0  0  0  0  0  0
    2.5434    3.7608    2.2052 C   0  0  0  0  0  0  0  0  0  0  0  0
   -3.1848   -1.6145   -0.0786 O   0  0  0  0  0  0  0  0  0  0  0  0
   -4.4061   -0.8401    0.0056 C   0  0  0  0  0  0  0  0  0  0  0  0
   -4.5110    0.0485    1.2495 C   0  0  0  0  0  0  0  0  0  0  0  0
   -3.4547    1.1660    1.2416 C   0  0  0  0  0  0  0  0  0  0  0  0
   -3.5524    2.2130   -0.2561 P   0  0  0  0  0  0  0  0  0  0  0  0
   -5.0769    2.1930   -0.2127 O   0  0  0  0  0  0  0  0  0  0  0  0
   -3.0198    3.5111    0.5926 O   0  0  0  0  0  0  0  0  0  0  0  0
   -3.6448    3.2028   -1.6720 O   0  0  0  0  0  0  0  0  0  0  0  0
   -2.6486    0.6042   -1.3651 H   0  0  0  0  0  0  0  0  0  0  0  0
   -0.8795    2.2745   -0.3617 H   0  0  0  0  0  0  0  0  0  0  0  0
   -0.8164   -2.6804    0.1770 H   0  0  0  0  0  0  0  0  0  0  0  0
    1.7938   -3.1300   -0.8331 H   0  0  0  0  0  0  0  0  0  0  0  0
    3.2621   -2.6858    0.0537 H   0  0  0  0  0  0  0  0  0  0  0  0
    2.4574   -1.8841    2.5702 H   0  0  0  0  0  0  0  0  0  0  0  0
    1.6183   -3.1995    3.3300 H   0  0  0  0  0  0  0  0  0  0  0  0
    4.4004   -0.3689    0.6424 H   0  0  0  0  0  0  0  0  0  0  0  0
    4.2238   -0.8417   -1.0469 H   0  0  0  0  0  0  0  0  0  0  0  0
    4.2670    0.8548   -0.7169 H   0  0  0  0  0  0  0  0  0  0  0  0
    2.6927    2.6123   -0.8563 H   0  0  0  0  0  0  0  0  0  0  0  0
    1.2393    3.0760    0.0162 H   0  0  0  0  0  0  0  0  0  0  0  0
    4.7379    1.6066    0.8918 H   0  0  0  0  0  0  0  0  0  0  0  0
    5.5450    1.4693    3.0930 H   0  0  0  0  0  0  0  0  0  0  0  0
    4.8000    3.1901    4.7207 H   0  0  0  0  0  0  0  0  0  0  0  0
    3.0253    4.8040    4.0355 H   0  0  0  0  0  0  0  0  0  0  0  0
    1.6819    4.3895    1.9946 H   0  0  0  0  0  0  0  0  0  0  0  0
   -4.5707   -0.2806   -0.9222 H   0  0  0  0  0  0  0  0  0  0  0  0
   -5.2426   -1.5501    0.0487 H   0  0  0  0  0  0  0  0  0  0  0  0
   -5.5129    0.5089    1.2950 H   0  0  0  0  0  0  0  0  0  0  0  0
   -4.4326   -0.5325    2.1738 H   0  0  0  0  0  0  0  0  0  0  0  0
   -3.7292    1.7953    2.1008 H   0  0  0  0  0  0  0  0  0  0  0  0
   -2.4877    0.7820    1.5718 H   0  0  0  0  0  0  0  0  0  0  0  0
   -3.4367    3.6167    1.4732 H   0  0  0  0  0  0  0  0  0  0  0  0
   -2.7599    3.4517   -1.9881 H   0  0  0  0  0  0  0  0  0  0  0  0
  1  2  2  0  0  0  0
  1  6  1  0  0  0  0
  1 30  1  0  0  0  0
  2  3  1  0  0  0  0
  2 31  1  0  0  0  0
  3  4  2  0  0  0  0
  3  7  1  0  0  0  0
  4  5  1  0  0  0  0
  4  9  1  0  0  0  0
  5  6  2  0  0  0  0
  5 32  1  0  0  0  0
  6 22  1  0  0  0  0
  7  8  1  0  0  0  0
  7 15  1  0  0  0  0
  8  9  2  0  0  0  0
  8 14  1  0  0  0  0
  9 10  1  0  0  0  0
 10 11  1  0  0  0  0
 10 33  1  0  0  0  0
 10 34  1  0  0  0  0
 11 12  2  0  0  0  0
 11 13  1  0  0  0  0
 13 35  1  0  0  0  0
 13 36  1  0  0  0  0
 14 37  1  0  0  0  0
 14 38  1  0  0  0  0
 14 39  1  0  0  0  0
 15 16  1  0  0  0  0
 15 40  1  0  0  0  0
 15 41  1  0  0  0  0
 16 17  2  0  0  0  0
 16 21  1  0  0  0  0
 17 18  1  0  0  0  0
 17 42  1  0  0  0  0
 18 19  2  0  0  0  0
 18 43  1  0  0  0  0
 19 20  1  0  0  0  0
 19 44  1  0  0  0  0
 20 21  2  0  0  0  0
 20 45  1  0  0  0  0
 21 46  1  0  0  0  0
 22 23  1  0  0  0  0
 23 24  1  0  0  0  0
 23 47  1  0  0  0  0
 23 48  1  0  0  0  0
 24 25  1  0  0  0  0
 24 49  1  0  0  0  0
 24 50  1  0  0  0  0
 25 26  1  0  0  0  0
 25 51  1  0  0  0  0
 25 52  1  0  0  0  0
 26 27  2  0  0  0  0
 26 28  1  0  0  0  0
 26 29  1  0  0  0  0
 28 53  1  0  0  0  0
 29 54  1  0  0  0  0
M  END
>  <DRUGBANK_ID>
DB02504

>  <SECONDARY_ACCESSION_NUMBERS>
EXPT00335

>  <COMMON_NAME>
[3-(1-Benzyl-3-Carbamoylmethyl-2-Methyl-1h-Indol-5-Yloxy)-Propyl-]-Phosphonic Acid

$$$$
