
 OpenBabel10282417133D

 23 23  0  0  1  0  0  0  0  0999 V2000
    1.1210   -0.0061    0.5509 N   0  0  0  0  0  0  0  0  0  0  0  0
    0.4759    1.3286    0.6393 C   0  0  1  0  0  0  0  0  0  0  0  0
    0.9364    2.3513   -0.4254 C   0  0  0  0  0  0  0  0  0  0  0  0
    0.5073    2.1457   -1.8256 N   0  0  0  0  0  0  0  0  0  0  0  0
    0.3867    0.8849   -2.3809 C   0  0  0  0  0  0  0  0  0  0  0  0
    0.2075    0.6596   -3.6713 C   0  0  0  0  0  0  0  0  0  0  0  0
    0.1598   -0.5878   -4.1735 F   0  0  0  0  0  0  0  0  0  0  0  0
   -0.0426    1.7945   -4.5598 C   0  0  0  0  0  0  0  0  0  0  0  0
   -0.1669    1.6658   -5.7649 O   0  0  0  0  0  0  0  0  0  0  0  0
   -0.1502    3.0014   -3.9074 N   0  0  0  0  0  0  0  0  0  0  0  0
    0.2552    3.2690   -2.6173 C   0  0  0  0  0  0  0  0  0  0  0  0
    0.3839    4.4286   -2.2276 O   0  0  0  0  0  0  0  0  0  0  0  0
   -1.0636    1.2668    0.6179 C   0  0  0  0  0  0  0  0  0  0  0  0
   -1.6619    1.5273    1.8014 O   0  0  0  0  0  0  0  0  0  0  0  0
   -1.7325    1.0252   -0.3785 O   0  0  0  0  0  0  0  0  0  0  0  0
    0.6999   -0.5741   -0.1803 H   0  0  0  0  0  0  0  0  0  0  0  0
    2.0967    0.1069    0.2645 H   0  0  0  0  0  0  0  0  0  0  0  0
    0.7931    1.7024    1.6195 H   0  0  0  0  0  0  0  0  0  0  0  0
    0.6048    3.3447   -0.0906 H   0  0  0  0  0  0  0  0  0  0  0  0
    2.0350    2.4028   -0.4309 H   0  0  0  0  0  0  0  0  0  0  0  0
    0.3648    0.0106   -1.7681 H   0  0  0  0  0  0  0  0  0  0  0  0
   -0.3824    3.7951   -4.4806 H   0  0  0  0  0  0  0  0  0  0  0  0
   -1.0644    1.6448    2.5616 H   0  0  0  0  0  0  0  0  0  0  0  0
  1 16  1  0  0  0  0
  1 17  1  0  0  0  0
  2  1  1  0  0  0  0
  2  3  1  0  0  0  0
  2 13  1  0  0  0  0
  2 18  1  1  0  0  0
  3  4  1  0  0  0  0
  3 19  1  0  0  0  0
  3 20  1  0  0  0  0
  4  5  1  0  0  0  0
  4 11  1  0  0  0  0
  5  6  2  0  0  0  0
  5 21  1  0  0  0  0
  6  7  1  0  0  0  0
  6  8  1  0  0  0  0
  8  9  2  0  0  0  0
  8 10  1  0  0  0  0
 10 11  1  0  0  0  0
 10 22  1  0  0  0  0
 11 12  2  0  0  0  0
 13 14  1  0  0  0  0
 13 15  2  0  0  0  0
 14 23  1  0  0  0  0
M  END
>  <DRUGBANK_ID>
DB02966

>  <SECONDARY_ACCESSION_NUMBERS>
EXPT01513

>  <COMMON_NAME>
Fluoro-Willardiine

>  <UNII>
7CTR2LWV5M

$$$$
