
 OpenBabel10282417133D

 59 61  0  0  0  0  0  0  0  0999 V2000
    0.7281    1.2737   -0.2707 C   0  0  2  0  0  0  0  0  0  0  0  0
    0.7121    1.2809   -1.6746 O   0  0  0  0  0  0  0  0  0  0  0  0
    2.0504    1.1633   -2.7646 P   0  0  3  0  0  0  0  0  0  0  0  0
    1.3216   -0.0343   -3.3671 O   0  0  0  0  0  0  0  0  0  0  0  0
    1.3748    2.4044   -3.5921 O   0  0  0  0  0  0  0  0  0  0  0  0
    3.3887    1.0457   -3.8545 O   0  0  0  0  0  0  0  0  0  0  0  0
    4.0800   -0.5367   -3.7502 P   0  0  3  0  0  0  0  0  0  0  0  0
    3.9715   -0.4708   -2.2419 O   0  0  0  0  0  0  0  0  0  0  0  0
    2.8934   -0.9394   -4.7562 O   0  0  0  0  0  0  0  0  0  0  0  0
    4.7714   -2.1191   -3.6460 O   0  0  0  0  0  0  0  0  0  0  0  0
    4.1518   -3.0807   -4.5166 C   0  0  0  0  0  0  0  0  0  0  0  0
    2.6379   -3.2928   -4.2219 C   0  0  1  0  0  0  0  0  0  0  0  0
    2.2815   -4.6716   -4.3232 O   0  0  0  0  0  0  0  0  0  0  0  0
    1.8098   -5.0389   -3.0320 C   0  0  2  0  0  0  0  0  0  0  0  0
    2.2516   -4.0523   -1.9911 C   0  0  1  0  0  0  0  0  0  0  0  0
    2.1424   -2.8377   -2.8344 C   0  0  2  0  0  0  0  0  0  0  0  0
    0.7616   -2.4344   -2.8453 O   0  0  0  0  0  0  0  0  0  0  0  0
    1.3457   -4.1133   -0.9062 O   0  0  0  0  0  0  0  0  0  0  0  0
    2.2483   -6.3460   -2.7221 N   0  0  0  0  0  0  0  0  0  0  0  0
    3.6076   -6.5685   -2.5959 C   0  0  0  0  0  0  0  0  0  0  0  0
    4.4886   -5.7336   -2.7716 O   0  0  0  0  0  0  0  0  0  0  0  0
    3.9418   -7.8398   -2.2446 N   0  0  0  0  0  0  0  0  0  0  0  0
    3.0852   -8.8867   -2.3268 C   0  0  0  0  0  0  0  0  0  0  0  0
    3.4711  -10.0636   -2.3363 O   0  0  0  0  0  0  0  0  0  0  0  0
    1.6517   -8.5772   -2.3897 C   0  0  0  0  0  0  0  0  0  0  0  0
    1.2970   -7.3021   -2.5162 C   0  0  0  0  0  0  0  0  0  0  0  0
    1.4496    0.1002    0.3419 C   0  0  2  0  0  0  0  0  0  0  0  0
    2.7167    0.0586   -0.1426 F   0  0  0  0  0  0  0  0  0  0  0  0
    0.7490   -1.1844   -0.0014 C   0  0  1  0  0  0  0  0  0  0  0  0
    1.3675   -2.2294    0.7359 O   0  0  0  0  0  0  0  0  0  0  0  0
   -0.7355   -1.1955    0.3082 C   0  0  2  0  0  0  0  0  0  0  0  0
   -1.3697   -2.3612   -0.2477 O   0  0  0  0  0  0  0  0  0  0  0  0
   -1.3793    0.0774   -0.2317 C   0  0  1  0  0  0  0  0  0  0  0  0
   -2.8347    0.0934    0.2578 C   0  0  0  0  0  0  0  0  0  0  0  0
   -3.5093    1.2474   -0.2226 O   0  0  0  0  0  0  0  0  0  0  0  0
   -0.6550    1.2594    0.2015 O   0  0  0  0  0  0  0  0  0  0  0  0
    1.1864    2.2025    0.0764 H   0  0  0  0  0  0  0  0  0  0  0  0
    0.4050    2.2447   -3.5994 H   0  0  0  0  0  0  0  0  0  0  0  0
    2.0061   -0.7992   -4.3331 H   0  0  0  0  0  0  0  0  0  0  0  0
    4.2833   -2.7173   -5.5481 H   0  0  0  0  0  0  0  0  0  0  0  0
    4.7117   -4.0148   -4.4779 H   0  0  0  0  0  0  0  0  0  0  0  0
    2.0390   -2.8372   -5.0209 H   0  0  0  0  0  0  0  0  0  0  0  0
    0.7108   -5.0065   -3.0848 H   0  0  0  0  0  0  0  0  0  0  0  0
    3.2705   -4.1464   -1.6054 H   0  0  0  0  0  0  0  0  0  0  0  0
    2.7018   -2.0660   -2.3418 H   0  0  0  0  0  0  0  0  0  0  0  0
    0.2593   -2.9354   -3.5024 H   0  0  0  0  0  0  0  0  0  0  0  0
    0.6676   -3.4240   -1.0474 H   0  0  0  0  0  0  0  0  0  0  0  0
    4.9298   -8.0206   -2.1812 H   0  0  0  0  0  0  0  0  0  0  0  0
    0.9282   -9.3715   -2.3315 H   0  0  0  0  0  0  0  0  0  0  0  0
    0.2563   -6.9862   -2.5018 H   0  0  0  0  0  0  0  0  0  0  0  0
    1.5208    0.1777    1.4291 H   0  0  0  0  0  0  0  0  0  0  0  0
    0.8699   -1.3514   -1.0587 H   0  0  0  0  0  0  0  0  0  0  0  0
    2.3225   -2.2015    0.5411 H   0  0  0  0  0  0  0  0  0  0  0  0
   -0.8544   -1.2629    1.3961 H   0  0  0  0  0  0  0  0  0  0  0  0
   -1.4025   -2.2706   -1.2166 H   0  0  0  0  0  0  0  0  0  0  0  0
   -1.4052    0.0735   -1.3299 H   0  0  0  0  0  0  0  0  0  0  0  0
   -3.3768   -0.7883   -0.1062 H   0  0  0  0  0  0  0  0  0  0  0  0
   -2.8844    0.0940    1.3515 H   0  0  0  0  0  0  0  0  0  0  0  0
   -2.9852    2.0046    0.0943 H   0  0  0  0  0  0  0  0  0  0  0  0
  1 27  1  0  0  0  0
  1 36  1  0  0  0  0
  1 37  1  1  0  0  0
  1  2  1  0  0  0  0
  3  2  1  0  0  0  0
  3  5  1  0  0  0  0
  4  3  2  0  0  0  0
  5 38  1  0  0  0  0
  6  3  1  0  0  0  0
  7  6  1  0  0  0  0
  7  9  1  0  0  0  0
  8  7  2  0  0  0  0
  9 39  1  0  0  0  0
 10  7  1  0  0  0  0
 11 10  1  0  0  0  0
 11 40  1  0  0  0  0
 11 41  1  0  0  0  0
 12 11  1  0  0  0  0
 12 13  1  0  0  0  0
 12 42  1  6  0  0  0
 14 13  1  0  0  0  0
 14 15  1  0  0  0  0
 14 43  1  6  0  0  0
 14 19  1  0  0  0  0
 15 16  1  0  0  0  0
 15 18  1  0  0  0  0
 15 44  1  1  0  0  0
 16 12  1  0  0  0  0
 16 17  1  0  0  0  0
 16 45  1  1  0  0  0
 17 46  1  0  0  0  0
 18 47  1  0  0  0  0
 20 19  1  0  0  0  0
 20 21  2  0  0  0  0
 20 22  1  0  0  0  0
 22 48  1  0  0  0  0
 23 22  1  0  0  0  0
 23 24  2  0  0  0  0
 23 25  1  0  0  0  0
 25 26  2  0  0  0  0
 25 49  1  0  0  0  0
 26 19  1  0  0  0  0
 26 50  1  0  0  0  0
 27 28  1  0  0  0  0
 27 29  1  0  0  0  0
 27 51  1  1  0  0  0
 29 31  1  0  0  0  0
 29 52  1  6  0  0  0
 29 30  1  0  0  0  0
 30 53  1  0  0  0  0
 31 32  1  0  0  0  0
 31 33  1  0  0  0  0
 31 54  1  1  0  0  0
 32 55  1  0  0  0  0
 33 36  1  0  0  0  0
 33 56  1  6  0  0  0
 33 34  1  0  0  0  0
 34 35  1  0  0  0  0
 34 57  1  0  0  0  0
 34 58  1  0  0  0  0
 35 59  1  0  0  0  0
M  END
>  <DRUGBANK_ID>
DB03488

>  <SECONDARY_ACCESSION_NUMBERS>
EXPT03157

>  <COMMON_NAME>
Uridine-5'-diphosphate-2-deoxy-2-fluoro-alpha-D-galactose

$$$$
