
 OpenBabel10282417183D

 84 92  0  0  0  0  0  0  0  0999 V2000
  -12.0006    5.9229   -6.4857 C   0  0  0  0  0  0  0  0  0  0  0  0
  -11.3432   11.3799    3.7553 C   0  0  0  0  0  0  0  0  0  0  0  0
   -7.6128    7.1425   -0.3870 C   0  0  0  0  0  0  0  0  0  0  0  0
   -6.0869    6.4348    4.7677 C   0  0  0  0  0  0  0  0  0  0  0  0
  -10.6770    5.7598   -5.0302 C   0  0  0  0  0  0  0  0  0  0  0  0
  -10.7612   10.3599    4.2963 C   0  0  0  0  0  0  0  0  0  0  0  0
   -7.0151    6.1838   -1.6629 C   0  0  0  0  0  0  0  0  0  0  0  0
   -5.3302    6.9568    3.1886 C   0  0  0  0  0  0  0  0  0  0  0  0
  -12.3781    5.7483   -7.8253 C   0  0  0  0  0  0  0  0  0  0  0  0
  -11.2056   12.6147    4.3855 C   0  0  0  0  0  0  0  0  0  0  0  0
   -7.3557    7.9848    0.6346 C   0  0  0  0  0  0  0  0  0  0  0  0
   -7.4793    7.4883    5.3340 C   0  0  0  0  0  0  0  0  0  0  0  0
   -9.7801    7.4368    4.3215 C   0  0  0  0  0  0  0  0  0  0  0  0
   -8.8273    7.2990   -4.1538 C   0  0  0  0  0  0  0  0  0  0  0  0
   -9.9952    8.2501    6.1515 C   0  0  0  0  0  0  0  0  0  0  0  0
   -7.8999    7.3790   -3.2671 C   0  0  0  0  0  0  0  0  0  0  0  0
   -5.7604    8.5147    5.3592 C   0  0  0  0  0  0  0  0  0  0  0  0
   -6.8339    5.1015    0.4711 C   0  0  0  0  0  0  0  0  0  0  0  0
   -6.2948    8.5721    4.2530 C   0  0  0  0  0  0  0  0  0  0  0  0
   -6.1930    6.0688    1.2699 C   0  0  0  0  0  0  0  0  0  0  0  0
   -9.9292    5.6742   -5.5411 C   0  0  0  0  0  0  0  0  0  0  0  0
   -9.5536   11.9813    6.0072 C   0  0  0  0  0  0  0  0  0  0  0  0
   -5.3223    8.6175   -1.2862 C   0  0  0  0  0  0  0  0  0  0  0  0
   -7.9884    9.1962    2.5810 C   0  0  0  0  0  0  0  0  0  0  0  0
   -9.8286    5.8876   -3.2336 C   0  0  0  0  0  0  0  0  0  0  0  0
  -10.0296   10.8974    5.6532 C   0  0  0  0  0  0  0  0  0  0  0  0
   -5.9683    7.2462   -1.9581 C   0  0  0  0  0  0  0  0  0  0  0  0
   -6.1357    8.4193    2.5096 C   0  0  0  0  0  0  0  0  0  0  0  0
  -10.9133    5.6076   -7.5496 C   0  0  0  0  0  0  0  0  0  0  0  0
  -10.3325   12.8526    5.4622 C   0  0  0  0  0  0  0  0  0  0  0  0
   -5.8272    8.9903   -0.1088 C   0  0  0  0  0  0  0  0  0  0  0  0
   -8.3814    8.9079    4.0634 C   0  0  0  0  0  0  0  0  0  0  0  0
   -9.4238    6.9717    1.8299 C   0  0  0  0  0  0  0  0  0  0  0  0
   -8.7231    6.0836   -2.6220 C   0  0  0  0  0  0  0  0  0  0  0  0
   -8.8969    8.3786    5.5713 C   0  0  0  0  0  0  0  0  0  0  0  0
   -6.6420    6.7345   -3.6531 C   0  0  0  0  0  0  0  0  0  0  0  0
   -6.7987    9.4486    5.1329 C   0  0  0  0  0  0  0  0  0  0  0  0
   -5.5723    5.9190   -0.6434 C   0  0  0  0  0  0  0  0  0  0  0  0
   -6.1646    9.1833    3.0474 C   0  0  0  0  0  0  0  0  0  0  0  0
   -5.6097    7.4986    1.1312 C   0  0  0  0  0  0  0  0  0  0  0  0
   -9.4394    6.4283   -0.7473 C   0  0  0  0  0  0  0  0  0  0  0  0
   -8.2417    9.8163    6.2158 C   0  0  0  0  0  0  0  0  0  0  0  0
   -5.6970    6.1633   -2.6662 C   0  0  0  0  0  0  0  0  0  0  0  0
   -6.3477    9.1277    1.6077 C   0  0  0  0  0  0  0  0  0  0  0  0
   -8.9195    7.2470    3.7659 N   0  0  0  0  0  0  0  0  0  0  0  0
   -7.4797    5.9047   -4.2308 N   0  0  0  0  0  0  0  0  0  0  0  0
   -6.7116   10.0777    3.9364 N   0  0  0  0  0  0  0  0  0  0  0  0
   -5.2912    7.0294   -0.0792 N   0  0  0  0  0  0  0  0  0  0  0  0
  -11.4377    5.4213   -9.5400 O   0  0  0  0  0  0  0  0  0  0  0  0
  -10.1817   13.9956    6.1306 O   0  0  0  0  0  0  0  0  0  0  0  0
   -4.6808    9.7832    0.8531 O   0  0  0  0  0  0  0  0  0  0  0  0
   -8.8390   10.1549    4.6384 O   0  0  0  0  0  0  0  0  0  0  0  0
  -12.9447    6.1747   -5.9297 H   0  0  0  0  0  0  0  0  0  0  0  0
  -11.9745   11.1735    2.9490 H   0  0  0  0  0  0  0  0  0  0  0  0
   -8.1079    6.4053    0.6859 H   0  0  0  0  0  0  0  0  0  0  0  0
   -5.2968    6.5408    5.7560 H   0  0  0  0  0  0  0  0  0  0  0  0
  -11.1896    6.6486   -5.0692 H   0  0  0  0  0  0  0  0  0  0  0  0
  -10.6394    9.3478    3.8193 H   0  0  0  0  0  0  0  0  0  0  0  0
   -7.2951    5.0565   -1.5115 H   0  0  0  0  0  0  0  0  0  0  0  0
   -4.2486    7.3447    3.0815 H   0  0  0  0  0  0  0  0  0  0  0  0
  -13.4893    5.7336   -8.3035 H   0  0  0  0  0  0  0  0  0  0  0  0
  -11.7950   13.4249    4.0193 H   0  0  0  0  0  0  0  0  0  0  0  0
   -7.0905    7.3562    2.1487 H   0  0  0  0  0  0  0  0  0  0  0  0
   -7.0006    8.5772    6.4871 H   0  0  0  0  0  0  0  0  0  0  0  0
   -9.6972    7.3525    6.1332 H   0  0  0  0  0  0  0  0  0  0  0  0
  -10.0503    7.2215   -4.2666 H   0  0  0  0  0  0  0  0  0  0  0  0
  -10.1586    9.4815    7.3968 H   0  0  0  0  0  0  0  0  0  0  0  0
   -8.6684    7.6679   -2.4482 H   0  0  0  0  0  0  0  0  0  0  0  0
   -6.0612    7.6076    6.3159 H   0  0  0  0  0  0  0  0  0  0  0  0
   -6.5034    4.5699   -0.2531 H   0  0  0  0  0  0  0  0  0  0  0  0
   -7.7577    5.3981   -0.1429 H   0  0  0  0  0  0  0  0  0  0  0  0
   -5.2390    7.9985    4.3587 H   0  0  0  0  0  0  0  0  0  0  0  0
   -7.0844    6.0556    1.8483 H   0  0  0  0  0  0  0  0  0  0  0  0
   -5.3146    5.6477    1.4949 H   0  0  0  0  0  0  0  0  0  0  0  0
   -9.5594    5.5987   -7.2242 H   0  0  0  0  0  0  0  0  0  0  0  0
   -8.8113   11.9094    6.7355 H   0  0  0  0  0  0  0  0  0  0  0  0
   -4.6830    9.0186   -1.9191 H   0  0  0  0  0  0  0  0  0  0  0  0
   -8.1954   10.3469    2.2100 H   0  0  0  0  0  0  0  0  0  0  0  0
   -6.3410    6.0432   -5.2161 H   0  0  0  0  0  0  0  0  0  0  0  0
   -7.6609   10.4618    3.8442 H   0  0  0  0  0  0  0  0  0  0  0  0
  -12.5524    5.3628  -10.3922 H   0  0  0  0  0  0  0  0  0  0  0  0
  -10.7422   14.7062    5.8165 H   0  0  0  0  0  0  0  0  0  0  0  0
   -4.9178    9.8667    1.8340 H   0  0  0  0  0  0  0  0  0  0  0  0
   -9.5334    9.7353    5.8485 H   0  0  0  0  0  0  0  0  0  0  0  0
  1 53  1  0  0  0  0
  2 54  1  0  0  0  0
  3 55  1  0  0  0  0
  4 56  1  0  0  0  0
  5  1  2  0  0  0  0
  5 57  1  0  0  0  0
  6  2  2  0  0  0  0
  6 58  1  0  0  0  0
  7  3  2  0  0  0  0
  7 59  1  0  0  0  0
  8  4  2  0  0  0  0
  8 60  1  0  0  0  0
  9  1  1  0  0  0  0
  9 61  1  0  0  0  0
 10  2  1  0  0  0  0
 10 62  1  0  0  0  0
 11  3  1  0  0  0  0
 11 63  1  0  0  0  0
 12  4  1  0  0  0  0
 12 64  1  0  0  0  0
 13 65  1  0  0  0  0
 14 66  1  0  0  0  0
 15 13  2  0  0  0  0
 15 67  1  0  0  0  0
 16 14  2  0  0  0  0
 16 68  1  0  0  0  0
 17 69  1  0  0  0  0
 18 70  1  0  0  0  0
 18 71  1  0  0  0  0
 19 17  1  0  0  0  0
 19 72  1  0  0  0  0
 20 18  1  0  0  0  0
 20 73  1  0  0  0  0
 20 74  1  0  0  0  0
 21 75  1  0  0  0  0
 22 76  1  0  0  0  0
 23 77  1  0  0  0  0
 24 78  1  0  0  0  0
 25  5  1  0  0  0  0
 25 21  2  0  0  0  0
 26  6  1  0  0  0  0
 26 22  2  0  0  0  0
 27  7  1  0  0  0  0
 27 23  2  0  0  0  0
 28  8  1  0  0  0  0
 28 24  2  0  0  0  0
 29  9  2  0  0  0  0
 29 21  1  0  0  0  0
 30 10  2  0  0  0  0
 30 22  1  0  0  0  0
 31 11  2  0  0  0  0
 31 23  1  0  0  0  0
 32 12  2  0  0  0  0
 32 24  1  0  0  0  0
 33 13  1  0  0  0  0
 34 14  1  0  0  0  0
 35 15  1  0  0  0  0
 36 16  1  0  0  0  0
 37 17  2  0  0  0  0
 38 18  1  0  0  0  0
 39 19  2  0  0  0  0
 40 20  1  0  0  0  0
 41 25  1  0  0  0  0
 41 33  1  0  0  0  0
 41 34  2  0  0  0  0
 42 26  1  0  0  0  0
 42 35  2  0  0  0  0
 42 37  1  0  0  0  0
 43 27  1  0  0  0  0
 43 36  2  0  0  0  0
 43 38  1  0  0  0  0
 44 28  1  0  0  0  0
 44 39  1  0  0  0  0
 44 40  2  0  0  0  0
 45 33  2  0  0  0  0
 45 35  1  0  0  0  0
 46 34  1  0  0  0  0
 46 36  1  0  0  0  0
 46 79  1  0  0  0  0
 47 37  1  0  0  0  0
 47 39  1  0  0  0  0
 47 80  1  0  0  0  0
 48 38  2  0  0  0  0
 48 40  1  0  0  0  0
 49 29  1  0  0  0  0
 49 81  1  0  0  0  0
 50 30  1  0  0  0  0
 50 82  1  0  0  0  0
 51 31  1  0  0  0  0
 51 83  1  0  0  0  0
 52 32  1  0  0  0  0
 52 84  1  0  0  0  0
M  END
>  <DRUGBANK_ID>
DB11630

>  <COMMON_NAME>
Temoporfin

>  <CAS_NUMBER>
122341-38-2

>  <UNII>
FU21S769PF

>  <SYNONYMS>
2,3-dihydro-5,10,15,20-tetra(m-hydroxyphenyl)porphyrin; m-THPC; meso-tetrahydroxyphenylchlorin; Temoporfin

$$$$
