
 OpenBabel10282417203D

 48 50  0  0  1  0  0  0  0  0999 V2000
    1.0599   -0.0035   -0.1849 C   0  0  0  0  0  0  0  0  0  0  0  0
    0.6582   -1.1139   -0.9762 O   0  0  0  0  0  0  0  0  0  0  0  0
    0.9659   -1.0768   -2.3179 C   0  0  0  0  0  0  0  0  0  0  0  0
    2.3064   -0.8631   -2.7709 C   0  0  0  0  0  0  0  0  0  0  0  0
    2.6992   -1.0142   -4.1334 C   0  0  0  0  0  0  0  0  0  0  0  0
    1.6944   -1.4456   -5.0016 C   0  0  0  0  0  0  0  0  0  0  0  0
    0.3647   -1.7073   -4.5663 C   0  0  0  0  0  0  0  0  0  0  0  0
   -0.0350   -1.4531   -3.2294 C   0  0  0  0  0  0  0  0  0  0  0  0
   -1.3810   -1.6087   -2.9550 O   0  0  0  0  0  0  0  0  0  0  0  0
   -1.9094   -1.1646   -1.7035 C   0  0  0  0  0  0  0  0  0  0  0  0
   -0.5946   -2.2296   -5.4153 O   0  0  0  0  0  0  0  0  0  0  0  0
   -0.1207   -2.6969   -6.6770 C   0  0  0  0  0  0  0  0  0  0  0  0
    4.1296   -0.6295   -4.6753 C   0  0  0  0  0  0  0  0  0  0  0  0
    4.9341   -1.5766   -5.6983 C   0  0  1  0  0  0  0  0  0  0  0  0
    5.1741   -1.4073   -7.2317 C   0  0  0  0  0  0  0  0  0  0  0  0
    5.5927   -0.3740   -8.0808 C   0  0  0  0  0  0  0  0  0  0  0  0
    5.2387   -0.4475   -9.4411 C   0  0  0  0  0  0  0  0  0  0  0  0
    4.6176   -1.6096   -9.9118 C   0  0  0  0  0  0  0  0  0  0  0  0
    4.7370   -2.7649   -9.1771 C   0  0  0  0  0  0  0  0  0  0  0  0
    5.1741   -2.6690   -7.8642 C   0  0  0  0  0  0  0  0  0  0  0  0
    5.5785   -3.8414   -6.9969 C   0  0  0  0  0  0  0  0  0  0  0  0
    6.5136   -3.3899   -5.8104 C   0  0  0  0  0  0  0  0  0  0  0  0
    6.2070   -2.0847   -5.1564 N   0  0  0  0  0  0  0  0  0  0  0  0
    3.9198   -1.6086  -11.0799 O   0  0  0  0  0  0  0  0  0  0  0  0
    5.4156    0.5394  -10.3693 O   0  0  0  0  0  0  0  0  0  0  0  0
    0.6330   -0.1423    0.8173 H   0  0  0  0  0  0  0  0  0  0  0  0
    0.6622    0.9368   -0.5796 H   0  0  0  0  0  0  0  0  0  0  0  0
    2.1443    0.0344   -0.0724 H   0  0  0  0  0  0  0  0  0  0  0  0
    3.0569   -0.6037   -2.0294 H   0  0  0  0  0  0  0  0  0  0  0  0
    1.9580   -1.5657   -6.0456 H   0  0  0  0  0  0  0  0  0  0  0  0
   -1.6288   -1.8521   -0.8993 H   0  0  0  0  0  0  0  0  0  0  0  0
   -1.6287   -0.1310   -1.4695 H   0  0  0  0  0  0  0  0  0  0  0  0
   -3.0061   -1.1823   -1.7527 H   0  0  0  0  0  0  0  0  0  0  0  0
    0.1642   -1.8474   -7.3064 H   0  0  0  0  0  0  0  0  0  0  0  0
    0.7148   -3.3996   -6.5642 H   0  0  0  0  0  0  0  0  0  0  0  0
   -0.9273   -3.2315   -7.1858 H   0  0  0  0  0  0  0  0  0  0  0  0
    4.0526    0.3768   -5.0919 H   0  0  0  0  0  0  0  0  0  0  0  0
    4.7408   -0.5710   -3.7645 H   0  0  0  0  0  0  0  0  0  0  0  0
    4.2483   -2.4323   -5.6366 H   0  0  0  0  0  0  0  0  0  0  0  0
    6.2357    0.4390   -7.7419 H   0  0  0  0  0  0  0  0  0  0  0  0
    4.4495   -3.7214   -9.6110 H   0  0  0  0  0  0  0  0  0  0  0  0
    6.0983   -4.6109   -7.5797 H   0  0  0  0  0  0  0  0  0  0  0  0
    4.6572   -4.2819   -6.6045 H   0  0  0  0  0  0  0  0  0  0  0  0
    7.5568   -3.3467   -6.1524 H   0  0  0  0  0  0  0  0  0  0  0  0
    6.4774   -4.1613   -5.0336 H   0  0  0  0  0  0  0  0  0  0  0  0
    6.9335   -1.4129   -5.4126 H   0  0  0  0  0  0  0  0  0  0  0  0
    3.7829   -0.6660  -11.2966 H   0  0  0  0  0  0  0  0  0  0  0  0
    6.0914    1.1812  -10.0792 H   0  0  0  0  0  0  0  0  0  0  0  0
  1  2  1  0  0  0  0
  1 26  1  0  0  0  0
  1 27  1  0  0  0  0
  1 28  1  0  0  0  0
  2  3  1  0  0  0  0
  3  4  2  0  0  0  0
  3  8  1  0  0  0  0
  4  5  1  0  0  0  0
  4 29  1  0  0  0  0
  5  6  2  0  0  0  0
  5 13  1  0  0  0  0
  6  7  1  0  0  0  0
  6 30  1  0  0  0  0
  7  8  2  0  0  0  0
  7 11  1  0  0  0  0
  8  9  1  0  0  0  0
  9 10  1  0  0  0  0
 10 31  1  0  0  0  0
 10 32  1  0  0  0  0
 10 33  1  0  0  0  0
 11 12  1  0  0  0  0
 12 34  1  0  0  0  0
 12 35  1  0  0  0  0
 12 36  1  0  0  0  0
 13 37  1  0  0  0  0
 13 38  1  0  0  0  0
 14 13  1  0  0  0  0
 14 15  1  0  0  0  0
 14 23  1  0  0  0  0
 14 39  1  1  0  0  0
 15 16  2  0  0  0  0
 15 20  1  0  0  0  0
 16 17  1  0  0  0  0
 16 40  1  0  0  0  0
 17 18  2  0  0  0  0
 17 25  1  0  0  0  0
 18 19  1  0  0  0  0
 18 24  1  0  0  0  0
 19 20  2  0  0  0  0
 19 41  1  0  0  0  0
 20 21  1  0  0  0  0
 21 22  1  0  0  0  0
 21 42  1  0  0  0  0
 21 43  1  0  0  0  0
 22 23  1  0  0  0  0
 22 44  1  0  0  0  0
 22 45  1  0  0  0  0
 23 46  1  0  0  0  0
 24 47  1  0  0  0  0
 25 48  1  0  0  0  0
M  END
>  <DRUGBANK_ID>
DB13692

>  <COMMON_NAME>
Tretoquinol

>  <CAS_NUMBER>
30418-38-3

>  <UNII>
JIO3275WGI

>  <SYNONYMS>
Tretoquinol

$$$$
