PTG
 OpenBabel10282417173D

 51 51  0  0  0  0  0  0  0  0999 V2000
    1.0731    0.0518    0.0383 C   0  0  0  0  0  0  0  0  0  0  0  0
    0.6048    1.4487   -0.3326 C   0  0  0  0  0  0  0  0  0  0  0  0
    1.0724    1.8319   -1.7357 C   0  0  0  0  0  0  0  0  0  0  0  0
    0.5099    0.8997   -2.8226 C   0  0  0  0  0  0  0  0  0  0  0  0
   -1.0287    0.8180   -2.8413 C   0  0  0  0  0  0  0  0  0  0  0  0
   -1.6503    2.1447   -3.1447 C   0  0  0  0  0  0  0  0  0  0  0  0
   -2.2954    2.4203   -4.2893 C   0  0  0  0  0  0  0  0  0  0  0  0
   -2.6293    3.7717   -4.6801 C   0  0  0  0  0  0  0  0  0  0  0  0
   -1.7944    4.8259   -4.5895 C   0  0  0  0  0  0  0  0  0  0  0  0
   -0.3570    4.7500   -4.1921 C   0  0  0  0  0  0  0  0  0  0  0  0
    0.3909    3.7856   -4.2302 O   0  0  0  0  0  0  0  0  0  0  0  0
    0.1048    6.0779   -3.7966 C   0  0  0  0  0  0  0  0  0  0  0  0
   -0.8650    6.9477   -4.0887 C   0  0  0  0  0  0  0  0  0  0  0  0
   -2.1231    6.3052   -4.6297 C   0  0  2  0  0  0  0  0  0  0  0  0
   -3.3562    6.7526   -3.8018 C   0  0  0  0  0  0  0  0  0  0  0  0
   -3.7187    5.8148   -2.6905 C   0  0  0  0  0  0  0  0  0  0  0  0
   -3.6996    6.1054   -1.3924 C   0  0  0  0  0  0  0  0  0  0  0  0
   -3.9170    5.0344   -0.3632 C   0  0  0  0  0  0  0  0  0  0  0  0
   -2.7630    5.0014    0.6390 C   0  0  0  0  0  0  0  0  0  0  0  0
   -2.5326    6.3421    1.3400 C   0  0  0  0  0  0  0  0  0  0  0  0
   -3.7199    6.7919    2.1557 C   0  0  0  0  0  0  0  0  0  0  0  0
   -3.7387    6.9315    3.3669 O   0  0  0  0  0  0  0  0  0  0  0  0
   -4.8181    7.0527    1.4214 O   0  0  0  0  0  0  0  0  0  0  0  0
   -2.2493    6.6369   -5.6677 H   0  0  0  0  0  0  0  0  0  0  0  0
    0.6881   -0.7045   -0.6525 H   0  0  0  0  0  0  0  0  0  0  0  0
    0.7234   -0.2182    1.0363 H   0  0  0  0  0  0  0  0  0  0  0  0
    2.1661    0.0035    0.0174 H   0  0  0  0  0  0  0  0  0  0  0  0
   -0.4869    1.5064   -0.2617 H   0  0  0  0  0  0  0  0  0  0  0  0
    0.9888    2.1750    0.3914 H   0  0  0  0  0  0  0  0  0  0  0  0
    0.7826    2.8698   -1.9275 H   0  0  0  0  0  0  0  0  0  0  0  0
    2.1692    1.8205   -1.7769 H   0  0  0  0  0  0  0  0  0  0  0  0
    0.8903    1.2149   -3.8024 H   0  0  0  0  0  0  0  0  0  0  0  0
    0.9102   -0.1107   -2.6796 H   0  0  0  0  0  0  0  0  0  0  0  0
   -1.3310    0.0759   -3.5861 H   0  0  0  0  0  0  0  0  0  0  0  0
   -1.4116    0.4628   -1.8804 H   0  0  0  0  0  0  0  0  0  0  0  0
   -1.4185    2.9459   -2.4425 H   0  0  0  0  0  0  0  0  0  0  0  0
   -2.5528    1.6248   -4.9797 H   0  0  0  0  0  0  0  0  0  0  0  0
   -3.6716    3.9179   -4.9611 H   0  0  0  0  0  0  0  0  0  0  0  0
    1.0882    6.2460   -3.3952 H   0  0  0  0  0  0  0  0  0  0  0  0
   -0.7516    8.0145   -3.9521 H   0  0  0  0  0  0  0  0  0  0  0  0
   -3.1925    7.7636   -3.4018 H   0  0  0  0  0  0  0  0  0  0  0  0
   -4.2252    6.8273   -4.4642 H   0  0  0  0  0  0  0  0  0  0  0  0
   -3.9854    4.7956   -2.9440 H   0  0  0  0  0  0  0  0  0  0  0  0
   -3.4883    7.1242   -1.0831 H   0  0  0  0  0  0  0  0  0  0  0  0
   -4.8750    5.1976    0.1339 H   0  0  0  0  0  0  0  0  0  0  0  0
   -4.0104    4.0436   -0.8257 H   0  0  0  0  0  0  0  0  0  0  0  0
   -2.9607    4.2211    1.3838 H   0  0  0  0  0  0  0  0  0  0  0  0
   -1.8416    4.7047    0.1165 H   0  0  0  0  0  0  0  0  0  0  0  0
   -1.6736    6.2462    2.0123 H   0  0  0  0  0  0  0  0  0  0  0  0
   -2.2609    7.1354    0.6359 H   0  0  0  0  0  0  0  0  0  0  0  0
   -5.5511    7.2018    2.0530 H   0  0  0  0  0  0  0  0  0  0  0  0
  1  2  1  0  0  0  0
  1 25  1  0  0  0  0
  1 26  1  0  0  0  0
  1 27  1  0  0  0  0
  2  3  1  0  0  0  0
  2 28  1  0  0  0  0
  2 29  1  0  0  0  0
  3  4  1  0  0  0  0
  3 30  1  0  0  0  0
  3 31  1  0  0  0  0
  4  5  1  0  0  0  0
  4 32  1  0  0  0  0
  4 33  1  0  0  0  0
  5  6  1  0  0  0  0
  5 34  1  0  0  0  0
  5 35  1  0  0  0  0
  6  7  2  0  0  0  0
  6 36  1  0  0  0  0
  7  8  1  0  0  0  0
  7 37  1  0  0  0  0
  8  9  2  0  0  0  0
  8 38  1  0  0  0  0
  9 10  1  0  0  0  0
  9 14  1  0  0  0  0
 10 11  2  0  0  0  0
 12 13  2  0  0  0  0
 12 10  1  0  0  0  0
 12 39  1  0  0  0  0
 13 14  1  0  0  0  0
 13 40  1  0  0  0  0
 14 24  1  6  0  0  0
 14 15  1  0  0  0  0
 15 16  1  0  0  0  0
 15 41  1  0  0  0  0
 15 42  1  0  0  0  0
 16 17  2  0  0  0  0
 16 43  1  0  0  0  0
 17 18  1  0  0  0  0
 17 44  1  0  0  0  0
 18 19  1  0  0  0  0
 18 45  1  0  0  0  0
 18 46  1  0  0  0  0
 19 20  1  0  0  0  0
 19 47  1  0  0  0  0
 19 48  1  0  0  0  0
 20 21  1  0  0  0  0
 20 49  1  0  0  0  0
 20 50  1  0  0  0  0
 21 22  2  0  0  0  0
 21 23  1  0  0  0  0
 23 51  1  0  0  0  0
M  END
>  <DRUGBANK_ID>
DB08435

>  <COMMON_NAME>
(5E,14E)-11-oxoprosta-5,9,12,14-tetraen-1-oic acid

$$$$
