
 OpenBabel10282417223D

 19 16  0  0  0  0  0  0  0  0999 V2000
    1.9252    0.7592    1.1053 O   0  5  0  0  0  0  0  0  0  0  0  0
    2.9220    0.2021    0.0847 P   0  0  0  0  0  0  0  0  0  0  0  0
    2.4031   -1.1993   -0.2319 O   0  0  0  0  0  0  0  0  0  0  0  0
    2.6941    1.0447   -1.2858 O   0  0  0  0  0  0  0  0  0  0  0  0
    1.4507    1.3398   -1.8859 C   0  0  0  0  0  0  0  0  0  0  0  0
    0.6314    0.1187   -2.4142 C   0  0  3  0  0  0  0  0  0  0  0  0
    0.4937   -0.9614   -1.4816 O   0  0  0  0  0  0  0  0  0  0  0  0
   -0.8335    0.4919   -2.6940 C   0  0  0  0  0  0  0  0  0  0  0  0
   -1.0065    1.4466   -3.7133 O   0  0  0  0  0  0  0  0  0  0  0  0
    4.3569    0.2895    0.4293 O   0  5  0  0  0  0  0  0  0  0  0  0
    1.0757   -2.0104    1.4451 K   0  3  0  0  0  0  0  0  0  0  0  0
   -0.1855    0.8270    0.5495 K   0  3  0  0  0  0  0  0  0  0  0  0
    0.8770    1.9914   -1.2184 H   0  0  0  0  0  0  0  0  0  0  0  0
    1.6532    2.0074   -2.7347 H   0  0  0  0  0  0  0  0  0  0  0  0
    1.1198   -0.2648   -3.3175 H   0  0  0  0  0  0  0  0  0  0  0  0
    1.4393   -1.2601   -1.2975 H   0  0  0  0  0  0  0  0  0  0  0  0
   -1.4186   -0.4079   -2.9304 H   0  0  0  0  0  0  0  0  0  0  0  0
   -1.3051    0.8833   -1.7845 H   0  0  0  0  0  0  0  0  0  0  0  0
   -0.4866    2.2367   -3.4945 H   0  0  0  0  0  0  0  0  0  0  0  0
  1  2  1  0  0  0  0
  2  3  2  0  0  0  0
  2  4  1  0  0  0  0
  2 10  1  0  0  0  0
  4  5  1  0  0  0  0
  5  6  1  0  0  0  0
  5 13  1  0  0  0  0
  5 14  1  0  0  0  0
  6  7  1  0  0  0  0
  6  8  1  0  0  0  0
  6 15  1  0  0  0  0
  7 16  1  0  0  0  0
  8  9  1  0  0  0  0
  8 17  1  0  0  0  0
  8 18  1  0  0  0  0
  9 19  1  0  0  0  0
M  CHG  4   1  -1  10  -1  11   1  12   1
M  END
>  <DRUGBANK_ID>
DB15948

>  <COMMON_NAME>
Potassium glycerophosphate

>  <CAS_NUMBER>
1319-69-3

>  <UNII>
6ZC849M884

>  <SYNONYMS>
Potassium glycerophosphate anhydrous

$$$$
