
 OpenBabel10282417213D

 61 66  0  0  1  0  0  0  0  0999 V2000
   -7.1192    5.1084    2.6885 O   0  0  0  0  0  0  0  0  0  0  0  0
   -7.4254    3.8072    2.8882 C   0  0  0  0  0  0  0  0  0  0  0  0
   -7.9671    3.4260    3.9005 O   0  0  0  0  0  0  0  0  0  0  0  0
   -6.9573    2.9146    1.7981 C   0  0  0  0  0  0  0  0  0  0  0  0
   -5.7090    3.0943    1.2794 C   0  0  0  0  0  0  0  0  0  0  0  0
   -5.1552    2.0576    0.4948 C   0  0  0  0  0  0  0  0  0  0  0  0
   -5.7186    0.7486    0.1963 C   0  0  0  0  0  0  0  0  0  0  0  0
   -7.0572    0.7139    0.6133 C   0  0  0  0  0  0  0  0  0  0  0  0
   -7.6597    1.7694    1.3958 C   0  0  0  0  0  0  0  0  0  0  0  0
   -5.1212   -0.5276   -0.8811 C   0  0  1  0  0  0  0  0  0  0  0  0
   -3.4818   -1.1718   -1.6000 C   0  0  0  0  0  0  0  0  0  0  0  0
   -3.7009   -0.7918   -3.0420 C   0  0  1  0  0  0  0  0  0  0  0  0
   -2.7599   -0.0608   -3.8655 N   0  0  0  0  0  0  0  0  0  0  0  0
   -2.9485    1.3547   -4.0754 C   0  0  0  0  0  0  0  0  0  0  0  0
   -2.6321    1.8905   -5.0856 O   0  0  0  0  0  0  0  0  0  0  0  0
   -3.5840    2.1949   -2.8938 C   0  0  0  0  0  0  0  0  0  0  0  0
   -5.1572    2.4567   -3.0729 C   0  0  0  0  0  0  0  0  0  0  0  0
   -4.1815    3.5717   -3.2078 C   0  0  0  0  0  0  0  0  0  0  0  0
   -2.7712    2.0203   -1.4666 C   0  0  0  0  0  0  0  0  0  0  0  0
   -3.0391    0.9541   -0.6303 C   0  0  0  0  0  0  0  0  0  0  0  0
   -2.4376    0.1723    0.4110 C   0  0  0  0  0  0  0  0  0  0  0  0
   -1.1676    0.4984    0.5191 C   0  0  0  0  0  0  0  0  0  0  0  0
   -0.3992   -0.5114    1.0190 O   0  0  0  0  0  0  0  0  0  0  0  0
   -1.3534   -1.5963    1.0946 C   0  0  0  0  0  0  0  0  0  0  0  0
   -1.0362   -2.5522    0.1687 F   0  0  0  0  0  0  0  0  0  0  0  0
   -1.2531   -2.2081    2.3052 F   0  0  0  0  0  0  0  0  0  0  0  0
   -2.7053   -1.1148    0.8628 O   0  0  0  0  0  0  0  0  0  0  0  0
   -0.7925    1.7109   -0.0885 C   0  0  0  0  0  0  0  0  0  0  0  0
   -1.6337    2.5258   -0.9777 C   0  0  0  0  0  0  0  0  0  0  0  0
   -4.4937   -1.9717   -3.2919 C   0  0  0  0  0  0  0  0  0  0  0  0
   -5.7242   -2.0266   -2.5752 C   0  0  0  0  0  0  0  0  0  0  0  0
   -6.1306   -1.3536   -1.4407 O   0  0  0  0  0  0  0  0  0  0  0  0
   -6.6300   -2.9504   -2.9092 C   0  0  0  0  0  0  0  0  0  0  0  0
   -6.2207   -3.9553   -3.7573 C   0  0  0  0  0  0  0  0  0  0  0  0
   -7.0412   -4.9739   -4.1162 O   0  0  0  0  0  0  0  0  0  0  0  0
   -8.3306   -4.9418   -3.5154 C   0  0  0  0  0  0  0  0  0  0  0  0
   -8.2327   -4.9481   -2.1602 F   0  0  0  0  0  0  0  0  0  0  0  0
   -8.9943   -3.8187   -3.8908 F   0  0  0  0  0  0  0  0  0  0  0  0
   -4.9003   -4.0265   -4.2472 C   0  0  0  0  0  0  0  0  0  0  0  0
   -3.9782   -3.0662   -3.9303 C   0  0  0  0  0  0  0  0  0  0  0  0
   -7.4455    5.5708    3.4921 H   0  0  0  0  0  0  0  0  0  0  0  0
   -5.1219    3.9923    1.4919 H   0  0  0  0  0  0  0  0  0  0  0  0
   -4.2328    2.4727    0.1383 H   0  0  0  0  0  0  0  0  0  0  0  0
   -7.6856   -0.1217    0.3268 H   0  0  0  0  0  0  0  0  0  0  0  0
   -8.6992    1.6825    1.7041 H   0  0  0  0  0  0  0  0  0  0  0  0
   -5.3353    0.2537   -1.6178 H   0  0  0  0  0  0  0  0  0  0  0  0
   -2.4403   -0.7928   -1.5272 H   0  0  0  0  0  0  0  0  0  0  0  0
   -3.2303   -2.2187   -1.3116 H   0  0  0  0  0  0  0  0  0  0  0  0
   -4.4826   -0.0638   -3.1410 H   0  0  0  0  0  0  0  0  0  0  0  0
   -2.2697   -0.4988   -4.6432 H   0  0  0  0  0  0  0  0  0  0  0  0
   -5.7061    2.2086   -3.9961 H   0  0  0  0  0  0  0  0  0  0  0  0
   -5.8872    2.5332   -2.2672 H   0  0  0  0  0  0  0  0  0  0  0  0
   -4.2330    4.3338   -2.4396 H   0  0  0  0  0  0  0  0  0  0  0  0
   -4.0156    3.9863   -4.1985 H   0  0  0  0  0  0  0  0  0  0  0  0
   -3.7987    0.6728   -1.2644 H   0  0  0  0  0  0  0  0  0  0  0  0
    0.2253    2.0119    0.0250 H   0  0  0  0  0  0  0  0  0  0  0  0
   -1.3658    3.4896   -1.3634 H   0  0  0  0  0  0  0  0  0  0  0  0
   -7.5986   -2.8335   -2.4382 H   0  0  0  0  0  0  0  0  0  0  0  0
   -8.8800   -5.8172   -3.8385 H   0  0  0  0  0  0  0  0  0  0  0  0
   -4.5949   -4.8141   -4.9191 H   0  0  0  0  0  0  0  0  0  0  0  0
   -2.9135   -3.1460   -4.1439 H   0  0  0  0  0  0  0  0  0  0  0  0
  1  2  1  0  0  0  0
  1 41  1  0  0  0  0
  2  3  2  0  0  0  0
  2  4  1  0  0  0  0
  4  5  2  0  0  0  0
  4  9  1  0  0  0  0
  5  6  1  0  0  0  0
  5 42  1  0  0  0  0
  6  7  2  0  0  0  0
  6 43  1  0  0  0  0
  7  8  1  0  0  0  0
  8  9  2  0  0  0  0
  8 44  1  0  0  0  0
  9 45  1  0  0  0  0
 10 11  1  0  0  0  0
 10 32  1  0  0  0  0
 10 46  1  6  0  0  0
 10  7  1  0  0  0  0
 11 47  1  0  0  0  0
 11 48  1  0  0  0  0
 12 11  1  0  0  0  0
 12 13  1  0  0  0  0
 12 30  1  0  0  0  0
 12 49  1  1  0  0  0
 13 14  1  0  0  0  0
 13 50  1  0  0  0  0
 14 15  2  0  0  0  0
 14 16  1  0  0  0  0
 16 17  1  0  0  0  0
 16 18  1  0  0  0  0
 16 19  1  0  0  0  0
 17 18  1  0  0  0  0
 17 51  1  0  0  0  0
 17 52  1  0  0  0  0
 18 53  1  0  0  0  0
 18 54  1  0  0  0  0
 19 20  2  0  0  0  0
 19 29  1  0  0  0  0
 20 21  1  0  0  0  0
 20 55  1  0  0  0  0
 21 22  2  0  0  0  0
 21 27  1  0  0  0  0
 22 23  1  0  0  0  0
 22 28  1  0  0  0  0
 23 24  1  0  0  0  0
 24 25  1  0  0  0  0
 24 26  1  0  0  0  0
 24 27  1  0  0  0  0
 28 29  2  0  0  0  0
 28 56  1  0  0  0  0
 29 57  1  0  0  0  0
 30 31  2  0  0  0  0
 30 40  1  0  0  0  0
 31 32  1  0  0  0  0
 31 33  1  0  0  0  0
 33 34  2  0  0  0  0
 33 58  1  0  0  0  0
 34 35  1  0  0  0  0
 34 39  1  0  0  0  0
 35 36  1  0  0  0  0
 36 37  1  0  0  0  0
 36 38  1  0  0  0  0
 36 59  1  0  0  0  0
 39 40  2  0  0  0  0
 39 60  1  0  0  0  0
 40 61  1  0  0  0  0
M  END
>  <DRUGBANK_ID>
DB14894

>  <COMMON_NAME>
Galicaftor

>  <CAS_NUMBER>
1918143-53-9

>  <UNII>
J0IIT8QSQS

>  <SYNONYMS>
Galicaftor

$$$$
