
 OpenBabel10282417163D

117122  0  0  0  0  0  0  0  0999 V2000
    1.4874    0.8047   -0.5006 C   0  0  1  0  0  0  0  0  0  0  0  0
    3.3391   -0.5251    0.5535 C   0  0  1  0  0  0  0  0  0  0  0  0
    5.1854    1.0700    3.0711 C   0  0  0  0  0  0  0  0  0  0  0  0
    4.3113    4.6222    1.8084 C   0  0  0  0  0  0  0  0  0  0  0  0
    2.7776    5.4155    1.1451 C   0  0  1  0  0  0  0  0  0  0  0  0
    1.1593    4.7210   -0.0545 C   0  0  0  0  0  0  0  0  0  0  0  0
    1.6161    4.1796    1.0720 C   0  0  0  0  0  0  0  0  0  0  0  0
    1.6288    3.4955   -0.1220 C   0  0  2  0  0  0  0  0  0  0  0  0
    0.3373    2.8090    0.0807 C   0  0  0  0  0  0  0  0  0  0  0  0
    0.9110    4.3892    2.3314 C   0  0  0  0  0  0  0  0  0  0  0  0
    4.4870   -1.3792    0.5754 C   0  0  0  0  0  0  0  0  0  0  0  0
    2.1283   -1.8894    0.0598 O   0  0  0  0  0  0  0  0  0  0  0  0
    1.3647   -2.6293   -1.3464 C   0  0  0  0  0  0  0  0  0  0  0  0
    1.7190   -1.9146   -2.7105 C   0  0  0  0  0  0  0  0  0  0  0  0
    0.3289   -3.3457   -1.3401 O   0  0  0  0  0  0  0  0  0  0  0  0
    5.2086    5.2004    2.5291 O   0  0  0  0  0  0  0  0  0  0  0  0
    0.6403   -0.5995   -1.0409 O   0  0  0  0  0  0  0  0  0  0  0  0
    2.6487    0.4692   -3.0255 C   0  0  0  0  0  0  0  0  0  0  0  0
    3.4567    1.1522   -3.8246 C   0  0  0  0  0  0  0  0  0  0  0  0
    2.8492    1.7282   -4.8856 C   0  0  0  0  0  0  0  0  0  0  0  0
    1.5745    1.4005   -5.3419 C   0  0  0  0  0  0  0  0  0  0  0  0
    0.7235    0.6780   -4.5555 C   0  0  0  0  0  0  0  0  0  0  0  0
    1.1688    0.3089   -3.2923 C   0  0  0  0  0  0  0  0  0  0  0  0
    0.0130   -0.7098   -2.3161 C   0  0  0  0  0  0  0  0  0  0  0  0
   -0.7897   -1.5777   -2.7478 O   0  0  0  0  0  0  0  0  0  0  0  0
    2.3250    6.2407    2.7150 O   0  0  0  0  0  0  0  0  0  0  0  0
    3.3888    1.2720   -0.0414 C   0  0  2  0  0  0  0  0  0  0  0  0
    2.5824    0.3876   -0.6648 H   0  0  0  0  0  0  0  0  0  0  0  0
    4.0418    2.9512    1.5980 C   0  0  2  0  0  0  0  0  0  0  0  0
    3.7839    3.5685    3.5635 C   0  0  0  0  0  0  0  0  0  0  0  0
    0.6161    1.9032   -1.0694 C   0  0  1  0  0  0  0  0  0  0  0  0
    1.2798    2.2854   -2.2628 O   0  0  0  0  0  0  0  0  0  0  0  0
   -1.4351    3.3431   -1.9535 C   0  0  0  0  0  0  0  0  0  0  0  0
   -0.9810    1.5766   -2.2111 C   0  0  0  0  0  0  0  0  0  0  0  0
    5.4978    2.4343    2.4881 C   0  0  1  0  0  0  0  0  0  0  0  0
    6.4682    3.1252    3.4392 O   0  0  0  0  0  0  0  0  0  0  0  0
    4.9343   -0.0950    1.7545 C   0  0  1  0  0  0  0  0  0  0  0  0
    4.2172   -1.1477    2.2503 O   0  0  0  0  0  0  0  0  0  0  0  0
    0.0323    3.2222   -1.2985 C   0  0  0  0  0  0  0  0  0  0  0  0
    2.6900    2.8669    0.0998 O   0  0  0  0  0  0  0  0  0  0  0  0
   -0.8051   -1.1022    2.1862 C   0  0  0  0  0  0  0  0  0  0  0  0
   -1.7419   -1.5633    1.2535 C   0  0  0  0  0  0  0  0  0  0  0  0
   -1.9291   -1.0649    0.0169 C   0  0  0  0  0  0  0  0  0  0  0  0
   -1.4154    0.1357   -0.0081 C   0  0  0  0  0  0  0  0  0  0  0  0
    0.0188   -0.1333    1.9224 C   0  0  0  0  0  0  0  0  0  0  0  0
   -0.6186    0.5546    0.9923 C   0  0  0  0  0  0  0  0  0  0  0  0
    1.6878    1.5839    2.4571 C   0  0  2  0  0  0  0  0  0  0  0  0
    1.3189    0.1655    2.5471 C   0  0  1  0  0  0  0  0  0  0  0  0
    2.5760    1.8620    1.4754 C   0  0  0  0  0  0  0  0  0  0  0  0
    3.8249    1.2668    1.6073 O   0  0  0  0  0  0  0  0  0  0  0  0
    2.4802    1.8466    3.5362 O   0  0  0  0  0  0  0  0  0  0  0  0
    1.2384   -0.0701    3.9177 N   0  0  0  0  0  0  0  0  0  0  0  0
    0.6714   -0.3135    6.5861 C   0  0  0  0  0  0  0  0  0  0  0  0
    1.7249   -1.0495    5.9529 O   0  0  0  0  0  0  0  0  0  0  0  0
    2.0158   -0.9266    4.6356 C   0  0  0  0  0  0  0  0  0  0  0  0
    2.9212   -1.5829    4.1612 O   0  0  0  0  0  0  0  0  0  0  0  0
    6.4567    2.8641    4.8975 C   0  0  0  0  0  0  0  0  0  0  0  0
    2.4817    5.9509    4.1892 C   0  0  0  0  0  0  0  0  0  0  0  0
    0.9840    1.1711    6.5265 C   0  0  0  0  0  0  0  0  0  0  0  0
   -0.6589   -0.6450    5.9380 C   0  0  0  0  0  0  0  0  0  0  0  0
    0.5761   -0.7136    8.0546 C   0  0  0  0  0  0  0  0  0  0  0  0
    1.3756    0.2899    0.4470 H   0  0  0  0  0  0  0  0  0  0  0  0
    5.9413    0.7691    3.7344 H   0  0  0  0  0  0  0  0  0  0  0  0
    4.4360    1.2311    3.8277 H   0  0  0  0  0  0  0  0  0  0  0  0
    3.5255    6.4230    1.2095 H   0  0  0  0  0  0  0  0  0  0  0  0
    1.7539    3.9709   -1.4495 H   0  0  0  0  0  0  0  0  0  0  0  0
   -0.5460    3.6332    0.2724 H   0  0  0  0  0  0  0  0  0  0  0  0
    0.1752    2.5266    1.0709 H   0  0  0  0  0  0  0  0  0  0  0  0
    1.5431    4.0167    3.1325 H   0  0  0  0  0  0  0  0  0  0  0  0
    0.6454    5.4308    2.4150 H   0  0  0  0  0  0  0  0  0  0  0  0
    0.0343    3.8159    2.2692 H   0  0  0  0  0  0  0  0  0  0  0  0
    4.4434   -2.4139    0.5767 H   0  0  0  0  0  0  0  0  0  0  0  0
    4.7701   -0.7012   -0.2879 H   0  0  0  0  0  0  0  0  0  0  0  0
    1.8856   -2.1611   -3.7264 H   0  0  0  0  0  0  0  0  0  0  0  0
    0.8316   -1.4773   -3.6305 H   0  0  0  0  0  0  0  0  0  0  0  0
    2.1158   -1.0948   -2.1202 H   0  0  0  0  0  0  0  0  0  0  0  0
    3.3579    0.1355   -2.2418 H   0  0  0  0  0  0  0  0  0  0  0  0
    4.4785    1.2005   -3.4980 H   0  0  0  0  0  0  0  0  0  0  0  0
    3.4316    2.4629   -5.3788 H   0  0  0  0  0  0  0  0  0  0  0  0
    1.2597    1.7307   -6.3164 H   0  0  0  0  0  0  0  0  0  0  0  0
   -0.2867    0.4675   -4.8904 H   0  0  0  0  0  0  0  0  0  0  0  0
    3.2245    3.2706    4.5984 H   0  0  0  0  0  0  0  0  0  0  0  0
    4.3294    4.5210    4.4250 H   0  0  0  0  0  0  0  0  0  0  0  0
    4.7272    3.3937    3.9683 H   0  0  0  0  0  0  0  0  0  0  0  0
    2.2056    2.2234   -2.0321 H   0  0  0  0  0  0  0  0  0  0  0  0
   -1.1131    3.3888   -2.9959 H   0  0  0  0  0  0  0  0  0  0  0  0
   -2.4867    2.7944   -2.0656 H   0  0  0  0  0  0  0  0  0  0  0  0
   -1.7572    4.0029   -1.2303 H   0  0  0  0  0  0  0  0  0  0  0  0
   -0.7021    1.2481   -3.2183 H   0  0  0  0  0  0  0  0  0  0  0  0
   -1.4773    0.3283   -2.1641 H   0  0  0  0  0  0  0  0  0  0  0  0
   -2.2133    1.1378   -2.4718 H   0  0  0  0  0  0  0  0  0  0  0  0
    5.8618    2.8020    1.5644 H   0  0  0  0  0  0  0  0  0  0  0  0
    5.8997    0.5200    1.5387 H   0  0  0  0  0  0  0  0  0  0  0  0
   -0.7804   -1.3719    3.1966 H   0  0  0  0  0  0  0  0  0  0  0  0
   -2.4079   -2.3015    1.5669 H   0  0  0  0  0  0  0  0  0  0  0  0
   -2.4796   -1.4486   -0.8198 H   0  0  0  0  0  0  0  0  0  0  0  0
   -0.8801    0.3589   -0.8600 H   0  0  0  0  0  0  0  0  0  0  0  0
    0.0830    1.1504    0.6337 H   0  0  0  0  0  0  0  0  0  0  0  0
    1.0549    2.3538    2.3602 H   0  0  0  0  0  0  0  0  0  0  0  0
    2.1345   -0.4434    2.2175 H   0  0  0  0  0  0  0  0  0  0  0  0
    3.0283    1.0491    3.4734 H   0  0  0  0  0  0  0  0  0  0  0  0
    0.5526    0.5637    4.2634 H   0  0  0  0  0  0  0  0  0  0  0  0
    5.5317    3.1456    5.4167 H   0  0  0  0  0  0  0  0  0  0  0  0
    6.5785    1.8122    5.1221 H   0  0  0  0  0  0  0  0  0  0  0  0
    7.2226    3.4318    5.4380 H   0  0  0  0  0  0  0  0  0  0  0  0
    2.5305    4.9361    4.0987 H   0  0  0  0  0  0  0  0  0  0  0  0
    3.4374    6.1963    4.6384 H   0  0  0  0  0  0  0  0  0  0  0  0
    1.7899    5.5737    5.0208 H   0  0  0  0  0  0  0  0  0  0  0  0
    1.0944    1.5362    5.5160 H   0  0  0  0  0  0  0  0  0  0  0  0
    0.1818    1.7540    6.9699 H   0  0  0  0  0  0  0  0  0  0  0  0
    1.9395    1.3868    7.0044 H   0  0  0  0  0  0  0  0  0  0  0  0
   -0.8641   -1.7143    5.9806 H   0  0  0  0  0  0  0  0  0  0  0  0
   -1.4660   -0.0661    6.3739 H   0  0  0  0  0  0  0  0  0  0  0  0
   -0.6740   -0.4011    4.8915 H   0  0  0  0  0  0  0  0  0  0  0  0
    0.3604   -1.7809    8.1598 H   0  0  0  0  0  0  0  0  0  0  0  0
    1.5120   -0.5075    8.5809 H   0  0  0  0  0  0  0  0  0  0  0  0
   -0.2273   -0.1503    8.5453 H   0  0  0  0  0  0  0  0  0  0  0  0
  1 31  1  0  0  0  0
  1 17  1  0  0  0  0
  1 62  1  1  0  0  0
  2 37  1  0  0  0  0
  2 11  1  0  0  0  0
  2 12  1  6  0  0  0
  3 63  1  0  0  0  0
  3 64  1  0  0  0  0
  4 29  1  0  0  0  0
  4  5  1  0  0  0  0
  5  6  1  0  0  0  0
  5 65  1  6  0  0  0
  5 26  1  0  0  0  0
  6  7  2  0  0  0  0
  7 10  1  0  0  0  0
  8  7  1  0  0  0  0
  8 40  1  0  0  0  0
  8 66  1  6  0  0  0
  9  8  1  0  0  0  0
  9 67  1  0  0  0  0
  9 68  1  0  0  0  0
 10 69  1  0  0  0  0
 10 70  1  0  0  0  0
 10 71  1  0  0  0  0
 11 38  1  0  0  0  0
 11 72  1  0  0  0  0
 11 73  1  0  0  0  0
 13 12  1  0  0  0  0
 14 13  1  0  0  0  0
 14 74  1  0  0  0  0
 14 75  1  0  0  0  0
 14 76  1  0  0  0  0
 15 13  2  0  0  0  0
 16  4  2  0  0  0  0
 18 19  1  0  0  0  0
 18 77  1  0  0  0  0
 19 20  2  0  0  0  0
 19 78  1  0  0  0  0
 20 21  1  0  0  0  0
 20 79  1  0  0  0  0
 21 22  2  0  0  0  0
 21 80  1  0  0  0  0
 22 81  1  0  0  0  0
 23 18  2  0  0  0  0
 23 22  1  0  0  0  0
 23 24  1  0  0  0  0
 24 17  1  0  0  0  0
 24 25  2  0  0  0  0
 26 58  1  0  0  0  0
 27  1  1  0  0  0  0
 27  2  1  0  0  0  0
 27 29  1  0  0  0  0
 27 28  1  6  0  0  0
 29 35  1  0  0  0  0
 29 30  1  1  0  0  0
 30 82  1  0  0  0  0
 30 83  1  0  0  0  0
 30 84  1  0  0  0  0
 31 39  1  0  0  0  0
 31  9  1  0  0  0  0
 31 32  1  6  0  0  0
 32 85  1  0  0  0  0
 33 86  1  0  0  0  0
 33 87  1  0  0  0  0
 33 88  1  0  0  0  0
 34 89  1  0  0  0  0
 34 90  1  0  0  0  0
 34 91  1  0  0  0  0
 35  3  1  0  0  0  0
 35 92  1  6  0  0  0
 35 36  1  0  0  0  0
 36 57  1  0  0  0  0
 37  3  1  0  0  0  0
 37 38  1  0  0  0  0
 37 93  1  6  0  0  0
 39  6  1  0  0  0  0
 39 33  1  0  0  0  0
 39 34  1  0  0  0  0
 41 42  2  0  0  0  0
 41 45  1  0  0  0  0
 41 94  1  0  0  0  0
 42 43  1  0  0  0  0
 42 95  1  0  0  0  0
 43 44  2  0  0  0  0
 43 96  1  0  0  0  0
 44 46  1  0  0  0  0
 44 97  1  0  0  0  0
 46 45  2  0  0  0  0
 46 98  1  0  0  0  0
 47 51  1  0  0  0  0
 47 99  1  6  0  0  0
 48 52  1  0  0  0  0
 48100  1  6  0  0  0
 48 47  1  0  0  0  0
 48 45  1  0  0  0  0
 49 40  1  0  0  0  0
 49 47  1  0  0  0  0
 49 50  2  0  0  0  0
 51101  1  0  0  0  0
 52102  1  0  0  0  0
 53 59  1  0  0  0  0
 53 60  1  0  0  0  0
 53 61  1  0  0  0  0
 54 53  1  0  0  0  0
 54 55  1  0  0  0  0
 55 52  1  0  0  0  0
 55 56  2  0  0  0  0
 57103  1  0  0  0  0
 57104  1  0  0  0  0
 57105  1  0  0  0  0
 58106  1  0  0  0  0
 58107  1  0  0  0  0
 58108  1  0  0  0  0
 59109  1  0  0  0  0
 59110  1  0  0  0  0
 59111  1  0  0  0  0
 60112  1  0  0  0  0
 60113  1  0  0  0  0
 60114  1  0  0  0  0
 61115  1  0  0  0  0
 61116  1  0  0  0  0
 61117  1  0  0  0  0
M  END
>  <DRUGBANK_ID>
DB06772

>  <COMMON_NAME>
Cabazitaxel

>  <CAS_NUMBER>
183133-96-2

>  <UNII>
51F690397J

>  <SYNONYMS>
1-HYDROXY-7.BETA.,10.BETA.-DIMETHOXY-9-OXO-5.BETA.,20-EPOXYTAX-11-ENE-2.ALPHA.,4,13.ALPHA.-TRIYL 4-ACETATE 2-BENZOATE 13-((2R,3S)-3-(((TERT-BUTOXY)CARBONYL)AMINO)-2-HYDROXY-3-PHENYLPROPANOATE); Cabazitaxel; Cabazitaxelum

$$$$
