
 OpenBabel10282417233D

 62 61  0  0  0  0  0  0  0  0999 V2000
    1.2123    0.0123    0.0763 C   0  0  0  0  0  0  0  0  0  0  0  0
    0.3936    1.2502    0.4039 C   0  0  0  0  0  0  0  0  0  0  0  0
   -0.4871    1.7102   -0.7602 C   0  0  0  0  0  0  0  0  0  0  0  0
   -1.5810    0.7011   -1.1057 C   0  0  0  0  0  0  0  0  0  0  0  0
   -2.4247    0.3812    0.1408 C   0  0  0  0  0  0  0  0  0  0  0  0
   -3.1928    1.6291    0.5840 C   0  0  0  0  0  0  0  0  0  0  0  0
   -4.1039    2.0994   -0.5444 C   0  0  0  0  0  0  0  0  0  0  0  0
    2.4442    0.0568    0.0519 O   0  0  0  0  0  0  0  0  0  0  0  0
    0.5137   -1.1432   -0.1679 N   0  0  0  0  0  0  0  0  0  0  0  0
   -5.0265    0.9698   -0.9725 C   0  0  0  0  0  0  0  0  0  0  0  0
   -9.9911   -0.0045   -0.5598 C   0  0  0  0  0  0  0  0  0  0  0  0
  -14.2574    1.7943   -0.8422 C   0  0  0  0  0  0  0  0  0  0  0  0
  -13.5001    0.5134   -1.1538 C   0  0  0  0  0  0  0  0  0  0  0  0
  -12.3929    0.7806   -2.1748 C   0  0  0  0  0  0  0  0  0  0  0  0
  -11.3802    1.8013   -1.6458 C   0  0  0  0  0  0  0  0  0  0  0  0
  -10.7470    1.3113   -0.3377 C   0  0  0  0  0  0  0  0  0  0  0  0
   -7.2539    0.8802    0.1056 C   0  0  0  0  0  0  0  0  0  0  0  0
   -7.9473    1.3052   -1.1481 C   0  0  0  0  0  0  0  0  0  0  0  0
   -5.9450    0.6572    0.1628 C   0  0  0  0  0  0  0  0  0  0  0  0
   -8.8802    0.1896   -1.5880 C   0  0  0  0  0  0  0  0  0  0  0  0
    1.1240   -2.3707   -0.6453 C   0  0  0  0  0  0  0  0  0  0  0  0
    0.7111   -3.5288    0.2546 C   0  0  0  0  0  0  0  0  0  0  0  0
   -0.6911   -3.7805    0.1376 O   0  0  0  0  0  0  0  0  0  0  0  0
   -0.1750    1.0815    1.3254 H   0  0  0  0  0  0  0  0  0  0  0  0
    1.0862    2.0616    0.6520 H   0  0  0  0  0  0  0  0  0  0  0  0
   -0.9463    2.6743   -0.5024 H   0  0  0  0  0  0  0  0  0  0  0  0
    0.1214    1.9081   -1.6471 H   0  0  0  0  0  0  0  0  0  0  0  0
   -2.1903    1.0761   -1.9326 H   0  0  0  0  0  0  0  0  0  0  0  0
   -1.1618   -0.2002   -1.5547 H   0  0  0  0  0  0  0  0  0  0  0  0
   -3.0840   -0.4670   -0.0677 H   0  0  0  0  0  0  0  0  0  0  0  0
   -1.8373    0.0169    0.9867 H   0  0  0  0  0  0  0  0  0  0  0  0
   -3.7631    1.4105    1.4923 H   0  0  0  0  0  0  0  0  0  0  0  0
   -2.5187    2.4401    0.8726 H   0  0  0  0  0  0  0  0  0  0  0  0
   -4.6710    2.9844   -0.2352 H   0  0  0  0  0  0  0  0  0  0  0  0
   -3.5291    2.4315   -1.4152 H   0  0  0  0  0  0  0  0  0  0  0  0
   -0.4905   -1.1560   -0.1155 H   0  0  0  0  0  0  0  0  0  0  0  0
   -5.5063    1.2979   -1.8892 H   0  0  0  0  0  0  0  0  0  0  0  0
   -4.5234    0.0512   -1.2809 H   0  0  0  0  0  0  0  0  0  0  0  0
  -10.6546   -0.8073   -0.8917 H   0  0  0  0  0  0  0  0  0  0  0  0
   -9.5887   -0.3626    0.3929 H   0  0  0  0  0  0  0  0  0  0  0  0
  -14.6984    2.1962   -1.7589 H   0  0  0  0  0  0  0  0  0  0  0  0
  -15.0458    1.6101   -0.1118 H   0  0  0  0  0  0  0  0  0  0  0  0
  -13.6067    2.5651   -0.4163 H   0  0  0  0  0  0  0  0  0  0  0  0
  -14.1828   -0.2469   -1.5426 H   0  0  0  0  0  0  0  0  0  0  0  0
  -13.0919    0.0921   -0.2274 H   0  0  0  0  0  0  0  0  0  0  0  0
  -12.8211    1.1411   -3.1151 H   0  0  0  0  0  0  0  0  0  0  0  0
  -11.8952   -0.1634   -2.4283 H   0  0  0  0  0  0  0  0  0  0  0  0
  -11.8447    2.7781   -1.4854 H   0  0  0  0  0  0  0  0  0  0  0  0
  -10.6238    1.9985   -2.4136 H   0  0  0  0  0  0  0  0  0  0  0  0
  -11.4884    1.1757    0.4530 H   0  0  0  0  0  0  0  0  0  0  0  0
  -10.0976    2.0942    0.0668 H   0  0  0  0  0  0  0  0  0  0  0  0
   -7.8418    0.6951    1.0032 H   0  0  0  0  0  0  0  0  0  0  0  0
   -8.4330    2.2671   -0.9744 H   0  0  0  0  0  0  0  0  0  0  0  0
   -7.2975    1.5108   -1.9936 H   0  0  0  0  0  0  0  0  0  0  0  0
   -5.5328    0.2832    1.0986 H   0  0  0  0  0  0  0  0  0  0  0  0
   -9.2847    0.4404   -2.5747 H   0  0  0  0  0  0  0  0  0  0  0  0
   -8.3306   -0.7479   -1.7374 H   0  0  0  0  0  0  0  0  0  0  0  0
    0.7593   -2.5353   -1.6672 H   0  0  0  0  0  0  0  0  0  0  0  0
    2.2099   -2.2603   -0.6719 H   0  0  0  0  0  0  0  0  0  0  0  0
    1.2368   -4.4408   -0.0359 H   0  0  0  0  0  0  0  0  0  0  0  0
    0.9363   -3.3053    1.3024 H   0  0  0  0  0  0  0  0  0  0  0  0
   -1.1599   -3.0080    0.4923 H   0  0  0  0  0  0  0  0  0  0  0  0
  2  1  1  0  0  0  0
  2 24  1  0  0  0  0
  2 25  1  0  0  0  0
  3  2  1  0  0  0  0
  3  4  1  0  0  0  0
  3 26  1  0  0  0  0
  3 27  1  0  0  0  0
  4 28  1  0  0  0  0
  4 29  1  0  0  0  0
  5  4  1  0  0  0  0
  5  6  1  0  0  0  0
  5 30  1  0  0  0  0
  5 31  1  0  0  0  0
  6 32  1  0  0  0  0
  6 33  1  0  0  0  0
  7  6  1  0  0  0  0
  7 10  1  0  0  0  0
  7 34  1  0  0  0  0
  7 35  1  0  0  0  0
  8  1  2  0  0  0  0
  9  1  1  0  0  0  0
  9 21  1  0  0  0  0
  9 36  1  0  0  0  0
 10 19  1  0  0  0  0
 10 37  1  0  0  0  0
 10 38  1  0  0  0  0
 11 20  1  0  0  0  0
 11 39  1  0  0  0  0
 11 40  1  0  0  0  0
 12 13  1  0  0  0  0
 12 41  1  0  0  0  0
 12 42  1  0  0  0  0
 12 43  1  0  0  0  0
 13 14  1  0  0  0  0
 13 44  1  0  0  0  0
 13 45  1  0  0  0  0
 14 15  1  0  0  0  0
 14 46  1  0  0  0  0
 14 47  1  0  0  0  0
 15 16  1  0  0  0  0
 15 48  1  0  0  0  0
 15 49  1  0  0  0  0
 16 11  1  0  0  0  0
 16 50  1  0  0  0  0
 16 51  1  0  0  0  0
 17 52  1  0  0  0  0
 18 17  1  0  0  0  0
 18 53  1  0  0  0  0
 18 54  1  0  0  0  0
 19 17  2  0  0  0  0
 19 55  1  0  0  0  0
 20 18  1  0  0  0  0
 20 56  1  0  0  0  0
 20 57  1  0  0  0  0
 21 22  1  0  0  0  0
 21 58  1  0  0  0  0
 21 59  1  0  0  0  0
 22 23  1  0  0  0  0
 22 60  1  0  0  0  0
 22 61  1  0  0  0  0
 23 62  1  0  0  0  0
M  END
>  <DRUGBANK_ID>
DB16495

>  <COMMON_NAME>
Oleic monoethanolamide

>  <CAS_NUMBER>
111-58-0

>  <UNII>
1HI5J9N8E6

>  <SYNONYMS>
N-(2-Hydroxyethyl)oleamide; N-OEA; N-oleoyl ethanolamine; N-oleoylethanolamine; OEA; Oleamide MEA; Oleoyl Ethanolamide; Oleoyl monoethanolamide; Oleoylethanolamide; Oleylethanolamide

$$$$
