
 OpenBabel10282417123D

 94 95  0  0  0  0  0  0  0  0999 V2000
   -7.3904  -12.2325    7.4300 S   0  0  0  0  0  0  0  0  0  0  0  0
   -4.8844   -9.1044    2.3981 O   0  0  0  0  0  0  0  0  0  0  0  0
  -11.1003   -8.1578    6.8256 O   0  0  0  0  0  0  0  0  0  0  0  0
  -11.9468  -13.5901    7.4765 O   0  0  0  0  0  0  0  0  0  0  0  0
   -4.9587  -12.4568    5.6858 O   0  0  0  0  0  0  0  0  0  0  0  0
  -11.3190   -9.2159    8.7724 O   0  0  0  0  0  0  0  0  0  0  0  0
  -10.8031  -12.7075    5.7499 O   0  0  0  0  0  0  0  0  0  0  0  0
   -8.2052  -16.9423    6.3515 O   0  0  0  0  0  0  0  0  0  0  0  0
   -5.3411  -10.1450    7.7034 O   0  0  0  0  0  0  0  0  0  0  0  0
  -10.9799  -11.4498    3.3751 O   0  0  0  0  0  0  0  0  0  0  0  0
  -10.9829  -13.6935    3.2282 O   0  0  0  0  0  0  0  0  0  0  0  0
   -7.7341  -12.7757   -0.1528 O   0  0  0  0  0  0  0  0  0  0  0  0
   -1.1867   -7.4036    7.4945 O   0  0  0  0  0  0  0  0  0  0  0  0
   -0.4298   -9.4944    7.8361 O   0  0  0  0  0  0  0  0  0  0  0  0
   -9.6443  -11.2610    8.2643 N   0  0  0  0  0  0  0  0  0  0  0  0
   -6.0912  -11.0003    4.5936 N   0  0  0  0  0  0  0  0  0  0  0  0
   -8.6952  -14.8377    6.9684 N   0  0  0  0  0  0  0  0  0  0  0  0
   -4.7573   -8.5233    4.5717 N   0  0  0  0  0  0  0  0  0  0  0  0
   -8.0250  -12.6174    2.0356 N   0  0  0  0  0  0  0  0  0  0  0  0
   -3.2608   -9.9691    6.8930 N   0  0  0  0  0  0  0  0  0  0  0  0
   -9.0606   -9.4207    4.8110 C   0  0  0  0  0  0  0  0  0  0  0  0
   -7.7075   -8.8939    4.3665 C   0  0  0  0  0  0  0  0  0  0  0  0
   -9.1332  -10.2396    6.1384 C   0  0  0  0  0  0  0  0  0  0  0  0
   -6.6806   -9.9195    3.7649 C   0  0  1  0  0  0  0  0  0  0  0  0
   -8.8791  -12.5138    8.2280 C   0  0  1  0  0  0  0  0  0  0  0  0
   -8.0553  -11.2096    6.1997 C   0  0  0  0  0  0  0  0  0  0  0  0
   -9.8414  -10.2365    7.2769 C   0  0  0  0  0  0  0  0  0  0  0  0
   -9.5404  -13.7512    7.5396 C   0  0  1  0  0  0  0  0  0  0  0  0
   -5.3974   -9.1391    3.5160 C   0  0  0  0  0  0  0  0  0  0  0  0
   -5.8661  -12.2980    4.8497 C   0  0  0  0  0  0  0  0  0  0  0  0
   -6.6166  -13.5435    4.3778 C   0  0  0  0  0  0  0  0  0  0  0  0
  -10.8134   -9.1685    7.6540 C   0  0  0  0  0  0  0  0  0  0  0  0
  -10.7952  -13.3291    6.8312 C   0  0  0  0  0  0  0  0  0  0  0  0
   -5.0458   -8.4465    6.0417 C   0  0  2  0  0  0  0  0  0  0  0  0
   -8.1477  -13.6510    4.1354 C   0  0  0  0  0  0  0  0  0  0  0  0
   -8.7753  -12.5818    3.2570 C   0  0  2  0  0  0  0  0  0  0  0  0
   -8.8308  -16.1930    7.1013 C   0  0  0  0  0  0  0  0  0  0  0  0
   -4.6313   -7.1255    6.6618 C   0  0  0  0  0  0  0  0  0  0  0  0
   -4.5569   -9.5997    6.9348 C   0  0  0  0  0  0  0  0  0  0  0  0
   -9.7724  -16.7027    8.1775 C   0  0  0  0  0  0  0  0  0  0  0  0
  -10.3451  -12.6600    3.3484 C   0  0  0  0  0  0  0  0  0  0  0  0
   -9.3316  -16.3509    9.5965 C   0  0  0  0  0  0  0  0  0  0  0  0
   -2.2290   -9.2044    6.2380 C   0  0  2  0  0  0  0  0  0  0  0  0
   -8.5126  -12.6879    0.7819 C   0  0  0  0  0  0  0  0  0  0  0  0
   -9.5852  -15.1137   10.2310 C   0  0  0  0  0  0  0  0  0  0  0  0
   -8.6568  -17.2918   10.3592 C   0  0  0  0  0  0  0  0  0  0  0  0
   -1.7090   -9.9120    5.0110 C   0  0  0  0  0  0  0  0  0  0  0  0
   -1.1797   -8.7377    7.2406 C   0  0  0  0  0  0  0  0  0  0  0  0
   -9.9958  -12.6406    0.6362 C   0  0  0  0  0  0  0  0  0  0  0  0
   -9.0075  -14.7147   11.4183 C   0  0  0  0  0  0  0  0  0  0  0  0
   -8.3187  -16.9860   11.6833 C   0  0  0  0  0  0  0  0  0  0  0  0
   -8.4234  -15.6857   12.1846 C   0  0  0  0  0  0  0  0  0  0  0  0
   -8.4369  -12.7371    9.2042 H   0  0  0  0  0  0  0  0  0  0  0  0
  -10.7617   -8.0935    5.9278 H   0  0  0  0  0  0  0  0  0  0  0  0
  -11.8782  -14.0155    8.3557 H   0  0  0  0  0  0  0  0  0  0  0  0
  -10.8440  -10.9732    4.2159 H   0  0  0  0  0  0  0  0  0  0  0  0
   -1.8354   -6.8345    7.0427 H   0  0  0  0  0  0  0  0  0  0  0  0
  -10.0974  -11.0304    9.1483 H   0  0  0  0  0  0  0  0  0  0  0  0
   -5.6135  -10.5821    5.3708 H   0  0  0  0  0  0  0  0  0  0  0  0
   -7.9034  -14.6106    6.3863 H   0  0  0  0  0  0  0  0  0  0  0  0
   -3.8580   -8.2012    4.2374 H   0  0  0  0  0  0  0  0  0  0  0  0
   -7.0109  -12.5935    2.0853 H   0  0  0  0  0  0  0  0  0  0  0  0
   -3.0344  -10.8042    7.4347 H   0  0  0  0  0  0  0  0  0  0  0  0
   -9.3815   -9.9583    3.9280 H   0  0  0  0  0  0  0  0  0  0  0  0
   -9.7151   -8.5664    4.7873 H   0  0  0  0  0  0  0  0  0  0  0  0
   -7.8776   -8.1347    3.5867 H   0  0  0  0  0  0  0  0  0  0  0  0
   -7.3997   -8.2630    5.1864 H   0  0  0  0  0  0  0  0  0  0  0  0
   -7.0571  -10.3224    2.8255 H   0  0  0  0  0  0  0  0  0  0  0  0
   -7.2501  -10.5201    6.2204 H   0  0  0  0  0  0  0  0  0  0  0  0
   -8.2312  -11.8168    5.3583 H   0  0  0  0  0  0  0  0  0  0  0  0
  -10.0109  -14.3065    8.2826 H   0  0  0  0  0  0  0  0  0  0  0  0
   -6.0594  -13.9155    3.5233 H   0  0  0  0  0  0  0  0  0  0  0  0
   -6.4058  -14.2819    5.1755 H   0  0  0  0  0  0  0  0  0  0  0  0
   -6.1053   -8.5011    6.2160 H   0  0  0  0  0  0  0  0  0  0  0  0
   -8.3655  -14.6501    3.7367 H   0  0  0  0  0  0  0  0  0  0  0  0
   -8.7244  -13.6478    5.0479 H   0  0  0  0  0  0  0  0  0  0  0  0
   -8.5284  -11.6002    3.6060 H   0  0  0  0  0  0  0  0  0  0  0  0
   -3.6620   -6.7767    6.3170 H   0  0  0  0  0  0  0  0  0  0  0  0
   -5.3363   -6.3398    6.3922 H   0  0  0  0  0  0  0  0  0  0  0  0
   -4.5952   -7.2254    7.7523 H   0  0  0  0  0  0  0  0  0  0  0  0
  -10.7725  -16.3140    7.9645 H   0  0  0  0  0  0  0  0  0  0  0  0
   -9.8452  -17.7920    8.0544 H   0  0  0  0  0  0  0  0  0  0  0  0
   -2.6605   -8.3031    5.8406 H   0  0  0  0  0  0  0  0  0  0  0  0
  -10.2858  -14.3672    9.8967 H   0  0  0  0  0  0  0  0  0  0  0  0
   -8.4533  -18.2849    9.9638 H   0  0  0  0  0  0  0  0  0  0  0  0
   -1.5172   -9.1616    4.2346 H   0  0  0  0  0  0  0  0  0  0  0  0
   -0.7793  -10.4402    5.2129 H   0  0  0  0  0  0  0  0  0  0  0  0
   -2.4490  -10.6098    4.5995 H   0  0  0  0  0  0  0  0  0  0  0  0
  -10.4168  -13.5472    1.0731 H   0  0  0  0  0  0  0  0  0  0  0  0
  -10.3777  -11.7301    1.1086 H   0  0  0  0  0  0  0  0  0  0  0  0
  -10.2848  -12.6156   -0.4042 H   0  0  0  0  0  0  0  0  0  0  0  0
   -9.1289  -13.6881   11.7552 H   0  0  0  0  0  0  0  0  0  0  0  0
   -7.9873  -17.7776   12.3444 H   0  0  0  0  0  0  0  0  0  0  0  0
   -8.1139  -15.4350   13.1913 H   0  0  0  0  0  0  0  0  0  0  0  0
  1 25  1  0  0  0  0
  1 26  1  0  0  0  0
  2 29  2  0  0  0  0
  3 32  1  0  0  0  0
  3 54  1  0  0  0  0
  4 33  1  0  0  0  0
  4 55  1  0  0  0  0
  5 30  2  0  0  0  0
  6 32  2  0  0  0  0
  7 33  2  0  0  0  0
  8 37  2  0  0  0  0
  9 39  2  0  0  0  0
 10 41  1  0  0  0  0
 10 56  1  0  0  0  0
 11 41  2  0  0  0  0
 12 44  2  0  0  0  0
 13 48  1  0  0  0  0
 13 57  1  0  0  0  0
 14 48  2  0  0  0  0
 15 25  1  0  0  0  0
 15 27  1  0  0  0  0
 15 58  1  0  0  0  0
 16 30  1  0  0  0  0
 16 59  1  0  0  0  0
 17 37  1  0  0  0  0
 17 60  1  0  0  0  0
 18 29  1  0  0  0  0
 18 61  1  0  0  0  0
 19 44  1  0  0  0  0
 19 62  1  0  0  0  0
 20 39  1  0  0  0  0
 20 63  1  0  0  0  0
 21 22  1  0  0  0  0
 21 23  1  0  0  0  0
 21 64  1  0  0  0  0
 21 65  1  0  0  0  0
 22 66  1  0  0  0  0
 22 67  1  0  0  0  0
 23 26  1  0  0  0  0
 23 27  2  0  0  0  0
 24 29  1  0  0  0  0
 24 68  1  6  0  0  0
 24 22  1  0  0  0  0
 24 16  1  0  0  0  0
 25 53  1  1  0  0  0
 26 69  1  0  0  0  0
 26 70  1  0  0  0  0
 27 32  1  0  0  0  0
 28 33  1  0  0  0  0
 28 71  1  1  0  0  0
 28 25  1  0  0  0  0
 28 17  1  0  0  0  0
 30 31  1  0  0  0  0
 31 35  1  0  0  0  0
 31 72  1  0  0  0  0
 31 73  1  0  0  0  0
 34 39  1  0  0  0  0
 34 74  1  1  0  0  0
 34 38  1  0  0  0  0
 34 18  1  0  0  0  0
 35 36  1  0  0  0  0
 35 75  1  0  0  0  0
 35 76  1  0  0  0  0
 36 19  1  0  0  0  0
 36 41  1  0  0  0  0
 36 77  1  1  0  0  0
 37 40  1  0  0  0  0
 38 78  1  0  0  0  0
 38 79  1  0  0  0  0
 38 80  1  0  0  0  0
 40 42  1  0  0  0  0
 40 81  1  0  0  0  0
 40 82  1  0  0  0  0
 42 45  2  0  0  0  0
 42 46  1  0  0  0  0
 43 48  1  0  0  0  0
 43 83  1  6  0  0  0
 43 47  1  0  0  0  0
 43 20  1  0  0  0  0
 44 49  1  0  0  0  0
 45 50  1  0  0  0  0
 45 84  1  0  0  0  0
 46 51  2  0  0  0  0
 46 85  1  0  0  0  0
 47 86  1  0  0  0  0
 47 87  1  0  0  0  0
 47 88  1  0  0  0  0
 49 89  1  0  0  0  0
 49 90  1  0  0  0  0
 49 91  1  0  0  0  0
 50 52  2  0  0  0  0
 50 92  1  0  0  0  0
 51 52  1  0  0  0  0
 51 93  1  0  0  0  0
 52 94  1  0  0  0  0
M  END
>  <DRUGBANK_ID>
DB02136

>  <SECONDARY_ACCESSION_NUMBERS>
EXPT00887

>  <COMMON_NAME>
Cephalosporin analog

$$$$
