
 OpenBabel10282417133D

103105  0  0  1  0  0  0  0  0999 V2000
   -2.1737   -6.6957    0.2695 C   0  0  0  0  0  0  0  0  0  0  0  0
   -0.8366   -6.7629   -0.1946 O   0  0  0  0  0  0  0  0  0  0  0  0
   -0.7132   -6.2582   -1.4501 C   0  0  0  0  0  0  0  0  0  0  0  0
   -1.2976   -5.0330   -1.8084 C   0  0  0  0  0  0  0  0  0  0  0  0
   -1.0928   -4.5388   -3.0414 C   0  0  0  0  0  0  0  0  0  0  0  0
   -0.2809   -5.2851   -3.8432 C   0  0  0  0  0  0  0  0  0  0  0  0
   -0.1738   -4.7001   -5.1445 C   0  0  0  0  0  0  0  0  0  0  0  0
    1.3107   -4.4293   -5.3472 C   0  0  2  0  0  0  0  0  0  0  0  0
    1.9688   -3.1382   -5.2585 N   0  0  0  0  0  0  0  0  0  0  0  0
    1.8364   -2.0093   -5.9983 C   0  0  0  0  0  0  0  0  0  0  0  0
    2.1829   -0.9064   -5.7999 O   0  0  0  0  0  0  0  0  0  0  0  0
    1.0401   -2.3801   -7.1224 C   0  0  0  0  0  0  0  0  0  0  0  0
    1.8106   -3.6278   -8.3755 C   0  0  0  0  0  0  0  0  0  0  0  0
    2.7082   -4.8815   -8.2793 C   0  0  0  0  0  0  0  0  0  0  0  0
    0.7948   -4.6212   -9.5382 C   0  0  0  0  0  0  0  0  0  0  0  0
    2.9717   -2.8871   -8.9022 N   0  0  0  0  0  0  0  0  0  0  0  0
    1.2150   -5.3447   -6.4814 C   0  0  0  0  0  0  0  0  0  0  0  0
    1.8796   -6.3905   -6.4550 O   0  0  0  0  0  0  0  0  0  0  0  0
    0.2014   -5.0212   -7.4561 N   0  0  0  0  0  0  0  0  0  0  0  0
   -0.6943   -3.5770   -8.1069 C   0  0  1  0  0  0  0  0  0  0  0  0
   -0.0165   -2.0682   -9.0752 C   0  0  0  0  0  0  0  0  0  0  0  0
    0.9019   -2.0296  -10.2545 C   0  0  0  0  0  0  0  0  0  0  0  0
    0.8988   -0.9689  -11.0513 C   0  0  0  0  0  0  0  0  0  0  0  0
    1.0887   -1.5643  -12.2330 N   0  0  0  0  0  0  0  0  0  0  0  0
    1.5859   -2.7437  -12.0991 C   0  0  0  0  0  0  0  0  0  0  0  0
    1.8750   -2.8469  -10.8467 N   0  0  0  0  0  0  0  0  0  0  0  0
   -2.0006   -3.8076   -8.8149 C   0  0  0  0  0  0  0  0  0  0  0  0
   -2.9916   -4.0306   -8.1088 O   0  0  0  0  0  0  0  0  0  0  0  0
   -2.0942   -3.7571  -10.1977 N   0  0  0  0  0  0  0  0  0  0  0  0
   -1.0488   -3.8712  -11.5642 C   0  0  1  0  0  0  0  0  0  0  0  0
   -0.4956   -5.2930  -11.8842 C   0  0  0  0  0  0  0  0  0  0  0  0
   -1.5352   -5.8683  -12.7564 C   0  0  0  0  0  0  0  0  0  0  0  0
   -2.8215   -5.1363  -12.4176 C   0  0  0  0  0  0  0  0  0  0  0  0
   -4.0184   -5.4988  -13.1444 C   0  0  0  0  0  0  0  0  0  0  0  0
   -4.2192   -6.9036  -12.6626 C   0  0  0  0  0  0  0  0  0  0  0  0
   -2.9908   -7.7888  -12.9560 C   0  0  0  0  0  0  0  0  0  0  0  0
   -1.7146   -7.3020  -12.3100 C   0  0  0  0  0  0  0  0  0  0  0  0
   -1.1589   -2.7893  -12.7733 C   0  0  1  0  0  0  0  0  0  0  0  0
   -1.6882   -1.6388  -12.0275 O   0  0  0  0  0  0  0  0  0  0  0  0
    0.1127   -2.6741  -14.0371 C   0  0  1  0  0  0  0  0  0  0  0  0
    0.3927   -3.9276  -14.7067 O   0  0  0  0  0  0  0  0  0  0  0  0
   -0.0211   -1.3550  -14.7510 C   0  0  0  0  0  0  0  0  0  0  0  0
   -0.0485   -0.0693  -13.8303 C   0  0  0  0  0  0  0  0  0  0  0  0
    1.2656    0.5847  -13.2210 C   0  0  0  0  0  0  0  0  0  0  0  0
   -0.5680    0.9894  -14.7379 C   0  0  0  0  0  0  0  0  0  0  0  0
    0.3594   -6.4913   -3.5357 C   0  0  0  0  0  0  0  0  0  0  0  0
    0.1024   -7.0004   -2.3065 C   0  0  0  0  0  0  0  0  0  0  0  0
   -2.1613   -7.1018    1.2780 H   0  0  0  0  0  0  0  0  0  0  0  0
   -2.8256   -7.3094   -0.3608 H   0  0  0  0  0  0  0  0  0  0  0  0
   -2.5549   -5.6716    0.3338 H   0  0  0  0  0  0  0  0  0  0  0  0
   -1.9056   -4.4244   -1.1636 H   0  0  0  0  0  0  0  0  0  0  0  0
   -1.5118   -3.6049   -3.4089 H   0  0  0  0  0  0  0  0  0  0  0  0
   -0.6774   -5.5443   -5.7039 H   0  0  0  0  0  0  0  0  0  0  0  0
   -0.8207   -3.8550   -5.3386 H   0  0  0  0  0  0  0  0  0  0  0  0
    1.9941   -4.9570   -4.6759 H   0  0  0  0  0  0  0  0  0  0  0  0
    2.5418   -2.9006   -4.4787 H   0  0  0  0  0  0  0  0  0  0  0  0
    0.0132   -2.3400   -6.6785 H   0  0  0  0  0  0  0  0  0  0  0  0
    0.7772   -1.2919   -7.3234 H   0  0  0  0  0  0  0  0  0  0  0  0
    2.1801   -5.8448   -8.3302 H   0  0  0  0  0  0  0  0  0  0  0  0
    3.2211   -5.1647   -9.2119 H   0  0  0  0  0  0  0  0  0  0  0  0
    3.3513   -4.7300   -7.4334 H   0  0  0  0  0  0  0  0  0  0  0  0
    0.1358   -3.9158   -9.8650 H   0  0  0  0  0  0  0  0  0  0  0  0
    1.3165   -5.1956  -10.2857 H   0  0  0  0  0  0  0  0  0  0  0  0
   -0.1114   -5.2767   -9.3946 H   0  0  0  0  0  0  0  0  0  0  0  0
    3.5593   -2.4857   -8.1952 H   0  0  0  0  0  0  0  0  0  0  0  0
    3.5443   -3.4238   -9.5559 H   0  0  0  0  0  0  0  0  0  0  0  0
    0.2748   -5.8587   -8.0364 H   0  0  0  0  0  0  0  0  0  0  0  0
   -1.1179   -3.3272   -7.1411 H   0  0  0  0  0  0  0  0  0  0  0  0
   -0.7959   -1.3014   -9.1372 H   0  0  0  0  0  0  0  0  0  0  0  0
    0.8327   -1.4249   -8.7738 H   0  0  0  0  0  0  0  0  0  0  0  0
    0.4020   -0.0250  -10.8864 H   0  0  0  0  0  0  0  0  0  0  0  0
    1.3355   -3.6644  -12.5913 H   0  0  0  0  0  0  0  0  0  0  0  0
    2.1843   -3.7714  -10.6551 H   0  0  0  0  0  0  0  0  0  0  0  0
   -3.0675   -4.0172  -10.3325 H   0  0  0  0  0  0  0  0  0  0  0  0
   -0.2889   -3.3331  -11.1831 H   0  0  0  0  0  0  0  0  0  0  0  0
    0.4855   -5.3665  -12.3747 H   0  0  0  0  0  0  0  0  0  0  0  0
   -0.3287   -5.9975  -11.0561 H   0  0  0  0  0  0  0  0  0  0  0  0
   -1.2096   -5.7586  -13.7952 H   0  0  0  0  0  0  0  0  0  0  0  0
   -2.9939   -5.3715  -11.3680 H   0  0  0  0  0  0  0  0  0  0  0  0
   -2.8726   -4.0684  -12.5119 H   0  0  0  0  0  0  0  0  0  0  0  0
   -4.7832   -4.7915  -12.7929 H   0  0  0  0  0  0  0  0  0  0  0  0
   -3.8213   -5.3374  -14.2053 H   0  0  0  0  0  0  0  0  0  0  0  0
   -4.3826   -6.8746  -11.5700 H   0  0  0  0  0  0  0  0  0  0  0  0
   -5.1136   -7.2697  -13.1408 H   0  0  0  0  0  0  0  0  0  0  0  0
   -3.1775   -8.7948  -12.5961 H   0  0  0  0  0  0  0  0  0  0  0  0
   -2.8054   -7.7823  -14.0326 H   0  0  0  0  0  0  0  0  0  0  0  0
   -0.8282   -7.8988  -12.5594 H   0  0  0  0  0  0  0  0  0  0  0  0
   -1.8139   -7.3527  -11.2100 H   0  0  0  0  0  0  0  0  0  0  0  0
   -1.9748   -2.9502  -13.4612 H   0  0  0  0  0  0  0  0  0  0  0  0
   -1.8475   -1.8886  -11.0890 H   0  0  0  0  0  0  0  0  0  0  0  0
    1.1882   -2.4233  -13.9635 H   0  0  0  0  0  0  0  0  0  0  0  0
    1.1603   -4.3613  -14.2576 H   0  0  0  0  0  0  0  0  0  0  0  0
    0.8255   -1.2251  -15.4423 H   0  0  0  0  0  0  0  0  0  0  0  0
   -0.9424   -1.5058  -15.3029 H   0  0  0  0  0  0  0  0  0  0  0  0
   -0.8127   -0.1518  -13.0582 H   0  0  0  0  0  0  0  0  0  0  0  0
    1.9784    0.8332  -13.9878 H   0  0  0  0  0  0  0  0  0  0  0  0
    0.9683    1.4093  -12.5519 H   0  0  0  0  0  0  0  0  0  0  0  0
    1.9872    0.0632  -12.5844 H   0  0  0  0  0  0  0  0  0  0  0  0
   -1.4706    0.6248  -15.2273 H   0  0  0  0  0  0  0  0  0  0  0  0
   -0.7875    1.8833  -14.1556 H   0  0  0  0  0  0  0  0  0  0  0  0
    0.2286    1.1642  -15.4602 H   0  0  0  0  0  0  0  0  0  0  0  0
    1.0434   -6.9975   -4.2225 H   0  0  0  0  0  0  0  0  0  0  0  0
    0.5260   -7.9566   -2.0306 H   0  0  0  0  0  0  0  0  0  0  0  0
  1  2  1  0  0  0  0
  1 48  1  0  0  0  0
  1 49  1  0  0  0  0
  1 50  1  0  0  0  0
  2  3  1  0  0  0  0
  3  4  2  0  0  0  0
  3 47  1  0  0  0  0
  4  5  1  0  0  0  0
  4 51  1  0  0  0  0
  5  6  2  0  0  0  0
  5 52  1  0  0  0  0
  6  7  1  0  0  0  0
  6 46  1  0  0  0  0
  7 53  1  0  0  0  0
  7 54  1  0  0  0  0
  8 17  1  0  0  0  0
  8 55  1  1  0  0  0
  8  9  1  0  0  0  0
  8  7  1  0  0  0  0
  9 10  1  0  0  0  0
  9 56  1  0  0  0  0
 10 11  2  0  0  0  0
 10 12  1  0  0  0  0
 12 13  1  0  0  0  0
 12 57  1  0  0  0  0
 12 58  1  0  0  0  0
 13 14  1  0  0  0  0
 13 15  1  0  0  0  0
 13 16  1  0  0  0  0
 14 59  1  0  0  0  0
 14 60  1  0  0  0  0
 14 61  1  0  0  0  0
 15 62  1  0  0  0  0
 15 63  1  0  0  0  0
 15 64  1  0  0  0  0
 16 65  1  0  0  0  0
 16 66  1  0  0  0  0
 17 18  2  0  0  0  0
 17 19  1  0  0  0  0
 19 67  1  0  0  0  0
 20 19  1  0  0  0  0
 20 21  1  0  0  0  0
 20 27  1  0  0  0  0
 20 68  1  1  0  0  0
 21 22  1  0  0  0  0
 21 69  1  0  0  0  0
 21 70  1  0  0  0  0
 22 23  2  0  0  0  0
 22 26  1  0  0  0  0
 23 24  1  0  0  0  0
 23 71  1  0  0  0  0
 24 25  2  0  0  0  0
 25 26  1  0  0  0  0
 25 72  1  0  0  0  0
 26 73  1  0  0  0  0
 27 28  2  0  0  0  0
 27 29  1  0  0  0  0
 29 74  1  0  0  0  0
 30 29  1  0  0  0  0
 30 31  1  0  0  0  0
 30 38  1  0  0  0  0
 30 75  1  1  0  0  0
 31 32  1  0  0  0  0
 31 76  1  0  0  0  0
 31 77  1  0  0  0  0
 32 33  1  0  0  0  0
 32 37  1  0  0  0  0
 32 78  1  0  0  0  0
 33 34  1  0  0  0  0
 33 79  1  0  0  0  0
 33 80  1  0  0  0  0
 34 35  1  0  0  0  0
 34 81  1  0  0  0  0
 34 82  1  0  0  0  0
 35 36  1  0  0  0  0
 35 83  1  0  0  0  0
 35 84  1  0  0  0  0
 36 37  1  0  0  0  0
 36 85  1  0  0  0  0
 36 86  1  0  0  0  0
 37 87  1  0  0  0  0
 37 88  1  0  0  0  0
 38 39  1  0  0  0  0
 38 40  1  0  0  0  0
 38 89  1  6  0  0  0
 39 90  1  0  0  0  0
 40 41  1  0  0  0  0
 40 42  1  0  0  0  0
 40 91  1  1  0  0  0
 41 92  1  0  0  0  0
 42 43  1  0  0  0  0
 42 93  1  0  0  0  0
 42 94  1  0  0  0  0
 43 44  1  0  0  0  0
 43 45  1  0  0  0  0
 43 95  1  0  0  0  0
 44 96  1  0  0  0  0
 44 97  1  0  0  0  0
 44 98  1  0  0  0  0
 45 99  1  0  0  0  0
 45100  1  0  0  0  0
 45101  1  0  0  0  0
 46 47  2  0  0  0  0
 46102  1  0  0  0  0
 47103  1  0  0  0  0
M  END
>  <DRUGBANK_ID>
DB03395

>  <SECONDARY_ACCESSION_NUMBERS>
EXPT03298

>  <COMMON_NAME>
Enalkiren

>  <CAS_NUMBER>
113082-98-7

>  <UNII>
0U7YZ42Z47

>  <SYNONYMS>
Enalkiren; Enalkirene; Enalkirenum; Enalquireno

$$$$
