
 OpenBabel10282417183D

 48 50  0  0  0  0  0  0  0  0999 V2000
   -1.0928   -1.3344    0.0229 C   0  0  0  0  0  0  0  0  0  0  0  0
   -1.8328   -0.1868   -0.1199 C   0  0  0  0  0  0  0  0  0  0  0  0
   -1.1599    1.0025   -0.3384 C   0  0  0  0  0  0  0  0  0  0  0  0
    0.2105    1.1663   -0.1412 C   0  0  0  0  0  0  0  0  0  0  0  0
    0.9786   -0.0048   -0.0194 C   0  0  0  0  0  0  0  0  0  0  0  0
    0.3036   -1.2471    0.0200 C   0  0  0  0  0  0  0  0  0  0  0  0
    2.3669   -0.0050    0.0043 N   0  0  0  0  0  0  0  0  0  0  0  0
    0.7958    2.4633   -0.0878 N   0  0  0  0  0  0  0  0  0  0  0  0
    0.2172    3.7303   -0.0454 C   0  0  0  0  0  0  0  0  0  0  0  0
    0.9233    4.7331   -0.1547 O   0  0  0  0  0  0  0  0  0  0  0  0
   -1.2471    3.9313    0.1464 C   0  0  0  0  0  0  0  0  0  0  0  0
   -1.9372    3.2481    1.1603 C   0  0  0  0  0  0  0  0  0  0  0  0
   -3.3355    3.1804    1.1350 C   0  0  0  0  0  0  0  0  0  0  0  0
   -4.0632    3.9563    0.2263 C   0  0  0  0  0  0  0  0  0  0  0  0
   -3.3620    4.7770   -0.6733 C   0  0  0  0  0  0  0  0  0  0  0  0
   -1.9662    4.7077   -0.7691 C   0  0  0  0  0  0  0  0  0  0  0  0
   -5.5708    3.8889    0.1828 C   0  0  0  0  0  0  0  0  0  0  0  0
   -6.1449    5.1627    0.5279 N   0  0  0  0  0  0  0  0  0  0  0  0
   -6.9130    5.9614   -0.2674 C   0  0  0  0  0  0  0  0  0  0  0  0
   -7.2386    7.0771    0.0926 O   0  0  0  0  0  0  0  0  0  0  0  0
   -7.2489    5.3809   -1.4512 O   0  0  0  0  0  0  0  0  0  0  0  0
   -8.0896    6.1631   -2.3210 C   0  0  0  0  0  0  0  0  0  0  0  0
   -9.4503    6.4013   -1.7318 C   0  0  0  0  0  0  0  0  0  0  0  0
   -9.8917    7.6957   -1.4726 C   0  0  0  0  0  0  0  0  0  0  0  0
  -11.0621    7.9895   -0.8648 N   0  0  0  0  0  0  0  0  0  0  0  0
  -11.8215    6.9424   -0.4820 C   0  0  0  0  0  0  0  0  0  0  0  0
  -11.4861    5.6182   -0.7148 C   0  0  0  0  0  0  0  0  0  0  0  0
  -10.2836    5.3451   -1.3578 C   0  0  0  0  0  0  0  0  0  0  0  0
   -1.6048   -2.2897    0.0716 H   0  0  0  0  0  0  0  0  0  0  0  0
   -2.9185   -0.1847   -0.1194 H   0  0  0  0  0  0  0  0  0  0  0  0
   -1.7776    1.8122   -0.6850 H   0  0  0  0  0  0  0  0  0  0  0  0
    0.8657   -2.1760    0.0476 H   0  0  0  0  0  0  0  0  0  0  0  0
    2.8690   -0.8830    0.0392 H   0  0  0  0  0  0  0  0  0  0  0  0
    2.9062    0.8445    0.0256 H   0  0  0  0  0  0  0  0  0  0  0  0
    1.8066    2.5069   -0.0736 H   0  0  0  0  0  0  0  0  0  0  0  0
   -1.3894    2.6015    1.8437 H   0  0  0  0  0  0  0  0  0  0  0  0
   -3.8362    2.4687    1.7895 H   0  0  0  0  0  0  0  0  0  0  0  0
   -3.9101    5.4522   -1.3278 H   0  0  0  0  0  0  0  0  0  0  0  0
   -1.4582    5.2213   -1.5833 H   0  0  0  0  0  0  0  0  0  0  0  0
   -5.8970    3.5529   -0.8070 H   0  0  0  0  0  0  0  0  0  0  0  0
   -5.9466    3.1621    0.9121 H   0  0  0  0  0  0  0  0  0  0  0  0
   -5.8845    5.5843    1.4089 H   0  0  0  0  0  0  0  0  0  0  0  0
   -7.5799    7.0954   -2.5937 H   0  0  0  0  0  0  0  0  0  0  0  0
   -8.2115    5.5950   -3.2520 H   0  0  0  0  0  0  0  0  0  0  0  0
   -9.2840    8.5604   -1.7291 H   0  0  0  0  0  0  0  0  0  0  0  0
  -12.7361    7.2046    0.0409 H   0  0  0  0  0  0  0  0  0  0  0  0
  -12.1400    4.8185   -0.3876 H   0  0  0  0  0  0  0  0  0  0  0  0
   -9.9839    4.3158   -1.5360 H   0  0  0  0  0  0  0  0  0  0  0  0
  1  2  2  0  0  0  0
  1  6  1  0  0  0  0
  1 29  1  0  0  0  0
  2  3  1  0  0  0  0
  2 30  1  0  0  0  0
  3  4  2  0  0  0  0
  3 31  1  0  0  0  0
  4  5  1  0  0  0  0
  4  8  1  0  0  0  0
  5  6  2  0  0  0  0
  5  7  1  0  0  0  0
  6 32  1  0  0  0  0
  7 33  1  0  0  0  0
  7 34  1  0  0  0  0
  8  9  1  0  0  0  0
  8 35  1  0  0  0  0
  9 10  2  0  0  0  0
  9 11  1  0  0  0  0
 11 12  2  0  0  0  0
 11 16  1  0  0  0  0
 12 13  1  0  0  0  0
 12 36  1  0  0  0  0
 13 14  2  0  0  0  0
 13 37  1  0  0  0  0
 14 15  1  0  0  0  0
 14 17  1  0  0  0  0
 15 16  2  0  0  0  0
 15 38  1  0  0  0  0
 16 39  1  0  0  0  0
 17 18  1  0  0  0  0
 17 40  1  0  0  0  0
 17 41  1  0  0  0  0
 18 19  1  0  0  0  0
 18 42  1  0  0  0  0
 19 20  2  0  0  0  0
 19 21  1  0  0  0  0
 21 22  1  0  0  0  0
 22 23  1  0  0  0  0
 22 43  1  0  0  0  0
 22 44  1  0  0  0  0
 23 24  2  0  0  0  0
 23 28  1  0  0  0  0
 24 25  1  0  0  0  0
 24 45  1  0  0  0  0
 25 26  2  0  0  0  0
 26 27  1  0  0  0  0
 26 46  1  0  0  0  0
 27 28  2  0  0  0  0
 27 47  1  0  0  0  0
 28 48  1  0  0  0  0
M  END
>  <DRUGBANK_ID>
DB11841

>  <COMMON_NAME>
Entinostat

>  <CAS_NUMBER>
209783-80-2

>  <UNII>
1ZNY4FKK9H

>  <SYNONYMS>
Entinostat; Entinostatum; N-(2-aminophenyl)-4-(N-(pyridin-3-ylmethoxycarbonyl)aminomethyl)benzamide; N-[[4-[(2-aminoanilino)-oxomethyl]phenyl]methyl]carbamic acid 3-pyridinylmethyl ester

$$$$
