
 OpenBabel10282417213D

 84 88  0  0  0  0  0  0  0  0999 V2000
    0.2182    0.3319   -0.3412 C   0  0  0  0  0  0  0  0  0  0  0  0
    0.0091   -0.9397    0.8215 C   0  0  0  0  0  0  0  0  0  0  0  0
    0.5839   -1.2346    2.0241 C   0  0  0  0  0  0  0  0  0  0  0  0
    1.6978   -0.4544    2.5641 C   0  0  0  0  0  0  0  0  0  0  0  0
    3.0866   -0.5073    1.9936 N   0  3  0  0  0  0  0  0  0  0  0  0
    3.0864   -0.1165    0.5280 C   0  0  0  0  0  0  0  0  0  0  0  0
    2.7680   -1.4208   -0.2164 C   0  0  0  0  0  0  0  0  0  0  0  0
    3.3878   -2.5257    0.5635 C   0  0  0  0  0  0  0  0  0  0  0  0
    3.6303   -1.9548    1.9586 C   0  0  0  0  0  0  0  0  0  0  0  0
    3.9015    0.5273    2.8519 C   0  0  0  0  0  0  0  0  0  0  0  0
    3.2645    1.9906    2.9620 C   0  0  0  0  0  0  0  0  0  0  0  0
    1.9688    2.1138    3.6933 N   0  0  0  0  0  0  0  0  0  0  0  0
    1.7605    2.7869    4.8795 C   0  0  0  0  0  0  0  0  0  0  0  0
    0.3547    2.7169    5.4193 C   0  0  0  0  0  0  0  0  0  0  0  0
   -0.3094    3.9170    5.7008 C   0  0  0  0  0  0  0  0  0  0  0  0
   -1.6738    3.9120    6.0326 C   0  0  0  0  0  0  0  0  0  0  0  0
   -2.3098    2.7167    6.3326 C   0  0  0  0  0  0  0  0  0  0  0  0
   -3.5748    2.7423    6.8417 O   0  0  0  0  0  0  0  0  0  0  0  0
   -1.6348    1.5199    6.1765 C   0  0  0  0  0  0  0  0  0  0  0  0
   -2.2816    0.3686    6.5585 O   0  0  0  0  0  0  0  0  0  0  0  0
   -0.3281    1.5131    5.6686 C   0  0  0  0  0  0  0  0  0  0  0  0
    0.3985   -0.0318    5.5161 Cl  0  0  0  0  0  0  0  0  0  0  0  0
    2.6246    3.4460    5.4366 O   0  0  0  0  0  0  0  0  0  0  0  0
    0.1091   -2.2910    3.0177 C   0  0  0  0  0  0  0  0  0  0  0  0
   -0.3490   -3.8166    2.2045 S   0  0  0  0  0  0  0  0  0  0  0  0
   -1.4827   -2.9201    1.1585 C   0  0  2  0  0  0  0  0  0  0  0  0
   -2.3567   -2.5017    1.6800 H   0  0  0  0  0  0  0  0  0  0  0  0
   -1.8418   -3.5396   -0.1610 C   0  0  2  0  0  0  0  0  0  0  0  0
   -1.8954   -4.9447   -0.4764 N   0  0  0  0  0  0  0  0  0  0  0  0
   -2.9619   -5.5530   -1.1362 C   0  0  0  0  0  0  0  0  0  0  0  0
   -2.8898   -6.7746   -1.2348 O   0  0  0  0  0  0  0  0  0  0  0  0
   -4.2462   -4.7294   -1.6386 C   0  0  0  0  0  0  0  0  0  0  0  0
   -4.3849   -3.2450   -1.5876 C   0  0  0  0  0  0  0  0  0  0  0  0
   -3.3939   -2.3664   -2.0619 N   0  0  0  0  0  0  0  0  0  0  0  0
   -3.5716   -1.1362   -1.6208 C   0  0  0  0  0  0  0  0  0  0  0  0
   -2.6741   -0.1524   -1.7713 N   0  0  0  0  0  0  0  0  0  0  0  0
   -5.0259   -0.9104   -0.7359 S   0  0  0  0  0  0  0  0  0  0  0  0
   -5.3971   -2.5836   -0.9060 C   0  0  0  0  0  0  0  0  0  0  0  0
   -5.3345   -5.3116   -2.0802 N   0  0  0  0  0  0  0  0  0  0  0  0
   -5.2319   -6.7105   -2.1713 O   0  0  0  0  0  0  0  0  0  0  0  0
   -6.3950   -7.3024   -2.7814 C   0  0  0  0  0  0  0  0  0  0  0  0
   -7.6323   -7.0534   -1.9157 C   0  0  0  0  0  0  0  0  0  0  0  0
   -6.6155   -6.7632   -4.1984 C   0  0  0  0  0  0  0  0  0  0  0  0
   -6.1348   -8.8199   -2.8605 C   0  0  0  0  0  0  0  0  0  0  0  0
   -5.1437   -9.4329   -2.4950 O   0  0  0  0  0  0  0  0  0  0  0  0
   -7.1631   -9.5183   -3.4042 O   0  0  0  0  0  0  0  0  0  0  0  0
   -0.7905   -2.5967   -0.7920 C   0  0  0  0  0  0  0  0  0  0  0  0
   -0.1294   -2.5167   -1.7816 O   0  0  0  0  0  0  0  0  0  0  0  0
   -0.8561   -1.8762    0.3687 N   0  0  0  0  0  0  0  0  0  0  0  0
   -0.6857    1.2059   -0.2552 O   0  0  0  0  0  0  0  0  0  0  0  0
    1.2016    0.2872   -1.1221 O   0  5  0  0  0  0  0  0  0  0  0  0
    1.3343    0.5367    2.3960 H   0  0  0  0  0  0  0  0  0  0  0  0
    1.8597   -0.6480    3.6248 H   0  0  0  0  0  0  0  0  0  0  0  0
    4.0773    0.2436    0.2446 H   0  0  0  0  0  0  0  0  0  0  0  0
    2.4438    0.7644    0.4939 H   0  0  0  0  0  0  0  0  0  0  0  0
    1.7339   -1.7277   -0.2312 H   0  0  0  0  0  0  0  0  0  0  0  0
    3.0179   -1.4095   -1.2790 H   0  0  0  0  0  0  0  0  0  0  0  0
    2.7079   -3.3921    0.5900 H   0  0  0  0  0  0  0  0  0  0  0  0
    4.2940   -2.8392    0.0455 H   0  0  0  0  0  0  0  0  0  0  0  0
    3.1209   -2.5486    2.7240 H   0  0  0  0  0  0  0  0  0  0  0  0
    4.7035   -1.9296    2.1504 H   0  0  0  0  0  0  0  0  0  0  0  0
    3.9883    0.0968    3.8562 H   0  0  0  0  0  0  0  0  0  0  0  0
    4.8967    0.5811    2.3983 H   0  0  0  0  0  0  0  0  0  0  0  0
    3.9933    2.6334    3.4644 H   0  0  0  0  0  0  0  0  0  0  0  0
    3.1082    2.4022    1.9577 H   0  0  0  0  0  0  0  0  0  0  0  0
    1.1106    2.0527    3.1506 H   0  0  0  0  0  0  0  0  0  0  0  0
    0.2266    4.8634    5.6734 H   0  0  0  0  0  0  0  0  0  0  0  0
   -2.2344    4.8415    6.0751 H   0  0  0  0  0  0  0  0  0  0  0  0
   -3.7757    1.8270    7.1236 H   0  0  0  0  0  0  0  0  0  0  0  0
   -1.6578   -0.3728    6.4328 H   0  0  0  0  0  0  0  0  0  0  0  0
   -0.7407   -1.8957    3.5944 H   0  0  0  0  0  0  0  0  0  0  0  0
    0.8754   -2.5649    3.7505 H   0  0  0  0  0  0  0  0  0  0  0  0
   -2.8410   -3.1849   -0.1807 H   0  0  0  0  0  0  0  0  0  0  0  0
   -1.1315   -5.5754   -0.2479 H   0  0  0  0  0  0  0  0  0  0  0  0
   -2.7016    0.7269   -1.2520 H   0  0  0  0  0  0  0  0  0  0  0  0
   -1.7029   -0.3708   -1.9951 H   0  0  0  0  0  0  0  0  0  0  0  0
   -6.2724   -2.9986   -0.4286 H   0  0  0  0  0  0  0  0  0  0  0  0
   -7.8448   -5.9823   -1.8288 H   0  0  0  0  0  0  0  0  0  0  0  0
   -8.5226   -7.5347   -2.3357 H   0  0  0  0  0  0  0  0  0  0  0  0
   -7.4827   -7.4365   -0.9011 H   0  0  0  0  0  0  0  0  0  0  0  0
   -5.7380   -6.9401   -4.8288 H   0  0  0  0  0  0  0  0  0  0  0  0
   -7.4800   -7.2365   -4.6785 H   0  0  0  0  0  0  0  0  0  0  0  0
   -6.7958   -5.6828   -4.1896 H   0  0  0  0  0  0  0  0  0  0  0  0
   -6.8539  -10.4500   -3.3903 H   0  0  0  0  0  0  0  0  0  0  0  0
  1  2  1  0  0  0  0
  1 50  2  0  0  0  0
  1 51  1  0  0  0  0
  2  3  2  0  0  0  0
  2 49  1  0  0  0  0
  3  4  1  0  0  0  0
  3 24  1  0  0  0  0
  4  5  1  0  0  0  0
  4 52  1  0  0  0  0
  4 53  1  0  0  0  0
  5  6  1  0  0  0  0
  5  9  1  0  0  0  0
  5 10  1  0  0  0  0
  6  7  1  0  0  0  0
  6 54  1  0  0  0  0
  6 55  1  0  0  0  0
  7 56  1  0  0  0  0
  7 57  1  0  0  0  0
  8  7  1  0  0  0  0
  8 58  1  0  0  0  0
  8 59  1  0  0  0  0
  9  8  1  0  0  0  0
  9 60  1  0  0  0  0
  9 61  1  0  0  0  0
 10 11  1  0  0  0  0
 10 62  1  0  0  0  0
 10 63  1  0  0  0  0
 11 12  1  0  0  0  0
 11 64  1  0  0  0  0
 11 65  1  0  0  0  0
 12 13  1  0  0  0  0
 12 66  1  0  0  0  0
 13 14  1  0  0  0  0
 13 23  2  0  0  0  0
 14 15  1  0  0  0  0
 14 21  2  0  0  0  0
 15 16  2  0  0  0  0
 15 67  1  0  0  0  0
 16 17  1  0  0  0  0
 16 68  1  0  0  0  0
 17 18  1  0  0  0  0
 18 69  1  0  0  0  0
 19 17  2  0  0  0  0
 19 20  1  0  0  0  0
 20 70  1  0  0  0  0
 21 19  1  0  0  0  0
 21 22  1  0  0  0  0
 24 25  1  0  0  0  0
 24 71  1  0  0  0  0
 24 72  1  0  0  0  0
 26 25  1  0  0  0  0
 26 27  1  1  0  0  0
 26 28  1  0  0  0  0
 28 29  1  0  0  0  0
 28 73  1  6  0  0  0
 29 30  1  0  0  0  0
 29 74  1  0  0  0  0
 30 31  2  0  0  0  0
 30 32  1  0  0  0  0
 32 33  1  0  0  0  0
 32 39  2  0  0  0  0
 33 34  1  0  0  0  0
 33 38  2  0  0  0  0
 34 35  2  0  0  0  0
 35 36  1  0  0  0  0
 36 75  1  0  0  0  0
 36 76  1  0  0  0  0
 37 35  1  0  0  0  0
 38 37  1  0  0  0  0
 38 77  1  0  0  0  0
 39 40  1  0  0  0  0
 40 41  1  0  0  0  0
 41 42  1  0  0  0  0
 41 43  1  0  0  0  0
 41 44  1  0  0  0  0
 42 78  1  0  0  0  0
 42 79  1  0  0  0  0
 42 80  1  0  0  0  0
 43 81  1  0  0  0  0
 43 82  1  0  0  0  0
 43 83  1  0  0  0  0
 44 45  2  0  0  0  0
 44 46  1  0  0  0  0
 46 84  1  0  0  0  0
 47 28  1  0  0  0  0
 47 48  2  0  0  0  0
 49 47  1  0  0  0  0
 49 26  1  0  0  0  0
M  CHG  2   5   1  51  -1
M  END
>  <DRUGBANK_ID>
DB14879

>  <COMMON_NAME>
Cefiderocol

>  <CAS_NUMBER>
1225208-94-5

>  <UNII>
SZ34OMG6E8

>  <SYNONYMS>
Cefiderocol

$$$$
