
 OpenBabel10282417123D

 16 15  0  0  0  0  0  0  0  0999 V2000
    1.0809   -0.0212   -0.0207 C   0  0  0  0  0  0  0  0  0  0  0  0
    0.5914   -1.0558   -0.9289 N   0  0  0  0  0  0  0  0  0  0  0  0
   -0.8717   -1.1414   -0.8654 C   0  0  0  0  0  0  0  0  0  0  0  0
    1.0655   -0.8271   -2.3130 C   0  0  0  0  0  0  0  0  0  0  0  0
    0.5652    0.4860   -2.9313 C   0  0  0  0  0  0  0  0  0  0  0  0
    1.5385    1.3815   -3.2188 O   0  0  0  0  0  0  0  0  0  0  0  0
   -0.6128    0.7483   -3.1453 O   0  0  0  0  0  0  0  0  0  0  0  0
    0.7469   -0.2118    1.0050 H   0  0  0  0  0  0  0  0  0  0  0  0
    0.7381    0.9776   -0.3092 H   0  0  0  0  0  0  0  0  0  0  0  0
    2.1764   -0.0204   -0.0022 H   0  0  0  0  0  0  0  0  0  0  0  0
   -1.3644   -0.2029   -1.1343 H   0  0  0  0  0  0  0  0  0  0  0  0
   -1.2433   -1.9339   -1.5245 H   0  0  0  0  0  0  0  0  0  0  0  0
   -1.2030   -1.3883    0.1490 H   0  0  0  0  0  0  0  0  0  0  0  0
    2.1626   -0.8562   -2.3247 H   0  0  0  0  0  0  0  0  0  0  0  0
    0.7496   -1.6509   -2.9647 H   0  0  0  0  0  0  0  0  0  0  0  0
    2.4468    1.0894   -3.0216 H   0  0  0  0  0  0  0  0  0  0  0  0
  1  2  1  0  0  0  0
  1  8  1  0  0  0  0
  1  9  1  0  0  0  0
  1 10  1  0  0  0  0
  2  3  1  0  0  0  0
  2  4  1  0  0  0  0
  3 11  1  0  0  0  0
  3 12  1  0  0  0  0
  3 13  1  0  0  0  0
  4  5  1  0  0  0  0
  4 14  1  0  0  0  0
  4 15  1  0  0  0  0
  5  6  1  0  0  0  0
  5  7  2  0  0  0  0
  6 16  1  0  0  0  0
M  END
>  <DRUGBANK_ID>
DB02083

>  <SECONDARY_ACCESSION_NUMBERS>
EXPT01225

>  <COMMON_NAME>
N,N-dimethylglycine

>  <CAS_NUMBER>
1118-68-9

>  <UNII>
7797M4CPPA

>  <SYNONYMS>
(dimethylamino)acetic acid; 2-(Dimethylamino)acetic acid; Dimethylglycine; N-Methylsarcosine; N,N-Dimethylaminoacetic acid

$$$$
