262
 OpenBabel10282417103D

 21 20  0  0  0  0  0  0  0  0999 V2000
    1.1095   -0.4628    0.2565 Cl  0  0  0  0  0  0  0  0  0  0  0  0
   -0.1233    6.9912   -0.2990 Cl  0  0  0  0  0  0  0  0  0  0  0  0
    0.5875    2.1566   -0.9173 O   0  0  0  0  0  0  0  0  0  0  0  0
    4.9834    2.9150   -0.2208 O   0  0  0  0  0  0  0  0  0  0  0  0
    2.8139    2.4369   -0.4180 N   0  0  0  0  0  0  0  0  0  0  0  0
    1.0778    4.0066    0.1407 N   0  0  0  0  0  0  0  0  0  0  0  0
    3.8306    3.3254   -0.0741 N   0  0  0  0  0  0  0  0  0  0  0  0
    3.1635    1.0849   -0.8723 C   0  0  0  0  0  0  0  0  0  0  0  0
    1.7580    5.2248    0.5657 C   0  0  0  0  0  0  0  0  0  0  0  0
    1.4905    2.8417   -0.4218 C   0  0  0  0  0  0  0  0  0  0  0  0
    2.8268   -0.0324    0.1218 C   0  0  0  0  0  0  0  0  0  0  0  0
    1.5383    6.3663   -0.4184 C   0  0  0  0  0  0  0  0  0  0  0  0
    0.0643    4.0763    0.1018 H   0  0  0  0  0  0  0  0  0  0  0  0
    4.2473    1.0217   -1.0273 H   0  0  0  0  0  0  0  0  0  0  0  0
    2.7144    0.9117   -1.8558 H   0  0  0  0  0  0  0  0  0  0  0  0
    1.3982    5.4675    1.5701 H   0  0  0  0  0  0  0  0  0  0  0  0
    2.8274    5.0934    0.6597 H   0  0  0  0  0  0  0  0  0  0  0  0
    3.1819    0.2151    1.1258 H   0  0  0  0  0  0  0  0  0  0  0  0
    3.3247   -0.9497   -0.2034 H   0  0  0  0  0  0  0  0  0  0  0  0
    2.2224    7.1886   -0.1930 H   0  0  0  0  0  0  0  0  0  0  0  0
    1.7054    6.0426   -1.4511 H   0  0  0  0  0  0  0  0  0  0  0  0
  1 11  1  0  0  0  0
  2 12  1  0  0  0  0
  3 10  2  0  0  0  0
  4  7  2  0  0  0  0
  5  7  1  0  0  0  0
  5  8  1  0  0  0  0
  5 10  1  0  0  0  0
  6  9  1  0  0  0  0
  6 10  1  0  0  0  0
  6 13  1  0  0  0  0
  8 11  1  0  0  0  0
  8 14  1  0  0  0  0
  8 15  1  0  0  0  0
  9 12  1  0  0  0  0
  9 16  1  0  0  0  0
  9 17  1  0  0  0  0
 11 18  1  0  0  0  0
 11 19  1  0  0  0  0
 12 20  1  0  0  0  0
 12 21  1  0  0  0  0
M  END
>  <DRUGBANK_ID>
DB00262

>  <SECONDARY_ACCESSION_NUMBERS>
APRD00006

>  <COMMON_NAME>
Carmustine

>  <CAS_NUMBER>
154-93-8

>  <UNII>
U68WG3173Y

>  <SYNONYMS>
BCNU; bis-chloroethylnitrosourea; Bischloroethyl nitrosourea; Carmustina; Carmustine; Carmustinum; N,N'-Bis(2-chloroethyl)-N-nitrosourea

$$$$
