
 OpenBabel10282417193D

 52 56  0  0  1  0  0  0  0  0999 V2000
    0.9900   -0.0424   -0.0395 C   0  0  0  0  0  0  0  0  0  0  0  0
    2.2680    6.1706    5.9314 C   0  0  0  0  0  0  0  0  0  0  0  0
    0.5389    0.8449    1.1199 C   0  0  0  0  0  0  0  0  0  0  0  0
    1.0368    5.2592    5.8420 C   0  0  0  0  0  0  0  0  0  0  0  0
    1.0790    9.2973   -0.2214 C   0  0  0  0  0  0  0  0  0  0  0  0
    1.0795    9.0675    1.1259 C   0  0  0  0  0  0  0  0  0  0  0  0
    2.1443    2.9286   -1.5476 C   0  0  0  0  0  0  0  0  0  0  0  0
    1.0506    8.2093   -1.0951 C   0  0  0  0  0  0  0  0  0  0  0  0
    1.0251    7.7749    1.6039 C   0  0  0  0  0  0  0  0  0  0  0  0
    2.3558    5.2980   -1.9747 C   0  0  0  0  0  0  0  0  0  0  0  0
    2.3782    2.5620    0.5297 C   0  0  0  0  0  0  0  0  0  0  0  0
    2.3014    1.8684   -2.5393 C   0  0  0  0  0  0  0  0  0  0  0  0
    3.4998    4.1189   -1.0356 C   0  0  0  0  0  0  0  0  0  0  0  0
    0.8086    3.1365    2.2517 C   0  0  0  0  0  0  0  0  0  0  0  0
    0.9083    6.8873   -0.5819 C   0  0  0  0  0  0  0  0  0  0  0  0
    1.1942    5.6083   -1.0554 C   0  0  0  0  0  0  0  0  0  0  0  0
    0.8472    6.6498    0.7936 C   0  0  0  0  0  0  0  0  0  0  0  0
    0.7737    4.4923    2.2572 C   0  0  0  0  0  0  0  0  0  0  0  0
    0.6301    4.6210   -0.1967 C   0  0  0  0  0  0  0  0  0  0  0  0
    0.7598    2.8698   -0.3085 C   0  0  2  0  0  0  0  0  0  0  0  0
    0.8763    5.1447    3.5728 C   0  0  0  0  0  0  0  0  0  0  0  0
    0.9921    2.3034    1.0151 C   0  0  2  0  0  0  0  0  0  0  0  0
    2.5013    2.4188   -1.1707 N   0  0  3  0  0  0  0  0  0  0  0  0
    0.7078    5.2510    1.0525 N   0  0  0  0  0  0  0  0  0  0  0  0
    0.7144    6.3384    3.7077 O   0  0  0  0  0  0  0  0  0  0  0  0
    1.0835    4.3946    4.6803 O   0  0  0  0  0  0  0  0  0  0  0  0
   -0.0587    2.4405   -0.9542 H   0  0  0  0  0  0  0  0  0  0  0  0
    0.6359    0.3443   -0.9993 H   0  0  0  0  0  0  0  0  0  0  0  0
    0.6009   -1.0550    0.0617 H   0  0  0  0  0  0  0  0  0  0  0  0
    2.0807   -0.1142   -0.0824 H   0  0  0  0  0  0  0  0  0  0  0  0
    2.3488    6.8975    5.1124 H   0  0  0  0  0  0  0  0  0  0  0  0
    2.2452    6.7601    6.8501 H   0  0  0  0  0  0  0  0  0  0  0  0
    3.1782    5.5705    5.8798 H   0  0  0  0  0  0  0  0  0  0  0  0
   -0.5596    0.8181    1.1659 H   0  0  0  0  0  0  0  0  0  0  0  0
    0.9054    0.4132    2.0581 H   0  0  0  0  0  0  0  0  0  0  0  0
    0.1119    5.8629    5.8345 H   0  0  0  0  0  0  0  0  0  0  0  0
    0.9768    4.6193    6.7209 H   0  0  0  0  0  0  0  0  0  0  0  0
    1.1245   10.3212   -0.5704 H   0  0  0  0  0  0  0  0  0  0  0  0
    1.1007    9.8546    1.8712 H   0  0  0  0  0  0  0  0  0  0  0  0
    2.8751    3.5248   -2.5146 H   0  0  0  0  0  0  0  0  0  0  0  0
    1.2763    3.6115   -1.8213 H   0  0  0  0  0  0  0  0  0  0  0  0
    1.1267    8.4017   -2.1636 H   0  0  0  0  0  0  0  0  0  0  0  0
    1.1059    7.7720    2.6637 H   0  0  0  0  0  0  0  0  0  0  0  0
    2.7368    5.9353   -2.7844 H   0  0  0  0  0  0  0  0  0  0  0  0
    1.7273    4.8061   -2.7837 H   0  0  0  0  0  0  0  0  0  0  0  0
    3.0076    1.6388    0.6899 H   0  0  0  0  0  0  0  0  0  0  0  0
    2.8736    3.3256    1.1719 H   0  0  0  0  0  0  0  0  0  0  0  0
    3.2920    1.9723   -3.0677 H   0  0  0  0  0  0  0  0  0  0  0  0
    1.5745    2.2796   -3.2741 H   0  0  0  0  0  0  0  0  0  0  0  0
    3.7094    4.2929    0.0236 H   0  0  0  0  0  0  0  0  0  0  0  0
    4.4286    3.7322   -1.5007 H   0  0  0  0  0  0  0  0  0  0  0  0
    0.9425    2.5932    3.1838 H   0  0  0  0  0  0  0  0  0  0  0  0
  1 28  1  0  0  0  0
  1 29  1  0  0  0  0
  1 30  1  0  0  0  0
  2 31  1  0  0  0  0
  2 32  1  0  0  0  0
  2 33  1  0  0  0  0
  3  1  1  0  0  0  0
  3 34  1  0  0  0  0
  3 35  1  0  0  0  0
  4  2  1  0  0  0  0
  4 36  1  0  0  0  0
  4 37  1  0  0  0  0
  5 38  1  0  0  0  0
  6  5  2  0  0  0  0
  6 39  1  0  0  0  0
  7 40  1  0  0  0  0
  7 41  1  0  0  0  0
  8  5  1  0  0  0  0
  8 42  1  0  0  0  0
  9  6  1  0  0  0  0
  9 43  1  0  0  0  0
 10 44  1  0  0  0  0
 10 45  1  0  0  0  0
 11  7  1  0  0  0  0
 11 46  1  0  0  0  0
 11 47  1  0  0  0  0
 12  7  1  0  0  0  0
 12 48  1  0  0  0  0
 12 49  1  0  0  0  0
 13 10  1  0  0  0  0
 13 50  1  0  0  0  0
 13 51  1  0  0  0  0
 14 52  1  0  0  0  0
 15  8  2  0  0  0  0
 16 10  1  0  0  0  0
 16 15  1  0  0  0  0
 17  9  2  0  0  0  0
 17 15  1  0  0  0  0
 18 14  2  0  0  0  0
 19 16  2  0  0  0  0
 20 19  1  0  0  0  0
 20 27  1  6  0  0  0
 21 18  1  0  0  0  0
 22  3  1  1  0  0  0
 22 11  1  0  0  0  0
 22 14  1  0  0  0  0
 22 20  1  0  0  0  0
 23 12  1  0  0  0  0
 23 13  1  0  0  0  0
 23 20  1  0  0  0  0
 24 17  1  0  0  0  0
 24 18  1  0  0  0  0
 24 19  1  0  0  0  0
 25 21  2  0  0  0  0
 26  4  1  0  0  0  0
 26 21  1  0  0  0  0
M  END
>  <DRUGBANK_ID>
DB12131

>  <COMMON_NAME>
Vinpocetine

>  <CAS_NUMBER>
42971-09-5

>  <UNII>
543512OBTC

>  <SYNONYMS>
CERACTIN; ETHYL APOVINCAMIN-22-OATE; Vinpocetina; Vinpocetine

$$$$
