CRJ
 OpenBabel10282417163D

 55 57  0  0  0  0  0  0  0  0999 V2000
    3.0628   -0.0307   -3.8531 C   0  0  0  0  0  0  0  0  0  0  0  0
    1.3896   -0.9612   -2.6124 C   0  0  0  0  0  0  0  0  0  0  0  0
    1.5853   -0.1819   -1.4079 C   0  0  0  0  0  0  0  0  0  0  0  0
    2.7255    0.5851   -1.4826 C   0  0  0  0  0  0  0  0  0  0  0  0
    3.4741    0.6056   -2.6753 C   0  0  0  0  0  0  0  0  0  0  0  0
    1.9534   -0.7853   -3.8561 C   0  0  0  0  0  0  0  0  0  0  0  0
    0.6747   -0.0213   -0.1021 C   0  0  2  0  0  0  0  0  0  0  0  0
    3.7807    0.0191   -4.9735 F   0  0  0  0  0  0  0  0  0  0  0  0
   -0.0906    1.2651   -0.0802 N   0  0  0  0  0  0  0  0  0  0  0  0
    1.4390   -0.3166    1.2230 C   0  0  0  0  0  0  0  0  0  0  0  0
   -1.6070    1.2149   -0.0917 C   0  0  2  0  0  0  0  0  0  0  0  0
   -2.3706   -0.1931    0.2183 C   0  0  0  0  0  0  0  0  0  0  0  0
   -2.1069    1.9572   -1.3199 C   0  0  0  0  0  0  0  0  0  0  0  0
   -3.9003    2.1083   -1.3423 S   0  0  0  0  0  0  0  0  0  0  0  0
   -4.3792    2.9793    0.1605 C   0  0  0  0  0  0  0  0  0  0  0  0
   -2.7300   -1.0660   -0.8196 N   0  0  0  0  0  0  0  0  0  0  0  0
   -2.6531   -0.4953    1.3759 O   0  0  0  0  0  0  0  0  0  0  0  0
   -3.9083    4.4206    0.2208 C   0  0  2  0  0  0  0  0  0  0  0  0
   -4.6634    5.3109   -0.7624 C   0  0  0  0  0  0  0  0  0  0  0  0
   -3.6251    6.3031   -1.2596 C   0  0  0  0  0  0  0  0  0  0  0  0
   -2.3438    5.5362   -1.1191 C   0  0  0  0  0  0  0  0  0  0  0  0
   -2.5274    4.6073   -0.1137 N   0  0  0  0  0  0  0  0  0  0  0  0
   -1.3027    5.7026   -1.7256 O   0  0  0  0  0  0  0  0  0  0  0  0
   -2.0778   -2.4107   -0.9245 C   0  0  0  0  0  0  0  0  0  0  0  0
   -2.0531   -3.5405    0.0122 C   0  0  0  0  0  0  0  0  0  0  0  0
   -2.4535   -3.7876   -1.4328 C   0  0  0  0  0  0  0  0  0  0  0  0
   -4.2331    2.8968   -2.5102 O   0  0  0  0  0  0  0  0  0  0  0  0
   -4.4869    0.7902   -1.2394 O   0  0  0  0  0  0  0  0  0  0  0  0
    0.6203   -0.1946    2.2992 F   0  0  0  0  0  0  0  0  0  0  0  0
    1.8639   -1.6039    1.2027 F   0  0  0  0  0  0  0  0  0  0  0  0
    2.4994    0.4855    1.4298 F   0  0  0  0  0  0  0  0  0  0  0  0
   -0.9193   -1.0552   -2.2341 N   0  0  0  0  0  0  0  0  0  0  0  0
   -0.9603   -2.0229   -1.6553 C   0  0  0  0  0  0  0  0  0  0  0  0
   -0.0709   -0.7886    0.0123 H   0  0  0  0  0  0  0  0  0  0  0  0
   -1.8649    1.8353    0.7874 H   0  0  0  0  0  0  0  0  0  0  0  0
   -4.0250    4.8018    1.2413 H   0  0  0  0  0  0  0  0  0  0  0  0
    0.7287   -1.7832   -2.8393 H   0  0  0  0  0  0  0  0  0  0  0  0
    3.0619    1.1560   -0.6231 H   0  0  0  0  0  0  0  0  0  0  0  0
    4.4022    1.1488   -2.6953 H   0  0  0  0  0  0  0  0  0  0  0  0
    1.5305   -1.3028   -4.7200 H   0  0  0  0  0  0  0  0  0  0  0  0
    0.2840    1.8954   -0.7967 H   0  0  0  0  0  0  0  0  0  0  0  0
   -1.6576    2.9508   -1.4163 H   0  0  0  0  0  0  0  0  0  0  0  0
   -1.7833    1.4724   -2.2404 H   0  0  0  0  0  0  0  0  0  0  0  0
   -5.4750    2.9372    0.2068 H   0  0  0  0  0  0  0  0  0  0  0  0
   -4.0150    2.4067    1.0212 H   0  0  0  0  0  0  0  0  0  0  0  0
   -2.4046   -0.5577   -1.6743 H   0  0  0  0  0  0  0  0  0  0  0  0
   -5.5364    5.7815   -0.3046 H   0  0  0  0  0  0  0  0  0  0  0  0
   -5.0524    4.7550   -1.6165 H   0  0  0  0  0  0  0  0  0  0  0  0
   -3.5682    7.1744   -0.6022 H   0  0  0  0  0  0  0  0  0  0  0  0
   -3.8051    6.6028   -2.2927 H   0  0  0  0  0  0  0  0  0  0  0  0
   -1.7349    4.0778    0.2351 H   0  0  0  0  0  0  0  0  0  0  0  0
   -1.0586   -3.8081    0.3584 H   0  0  0  0  0  0  0  0  0  0  0  0
   -2.8188   -3.6070    0.7677 H   0  0  0  0  0  0  0  0  0  0  0  0
   -3.4374   -4.1649   -1.6577 H   0  0  0  0  0  0  0  0  0  0  0  0
   -1.7182   -4.2851   -2.0913 H   0  0  0  0  0  0  0  0  0  0  0  0
  1  5  1  0  0  0  0
  1  6  2  0  0  0  0
  1  8  1  0  0  0  0
  2  3  2  0  0  0  0
  2  6  1  0  0  0  0
  2 37  1  0  0  0  0
  3  4  1  0  0  0  0
  4  5  2  0  0  0  0
  4 38  1  0  0  0  0
  5 39  1  0  0  0  0
  6 40  1  0  0  0  0
  7 10  1  0  0  0  0
  7 34  1  6  0  0  0
  7  9  1  0  0  0  0
  7  3  1  0  0  0  0
  9 41  1  0  0  0  0
 10 29  1  0  0  0  0
 10 30  1  0  0  0  0
 10 31  1  0  0  0  0
 11 13  1  0  0  0  0
 11 35  1  1  0  0  0
 11 12  1  0  0  0  0
 11  9  1  0  0  0  0
 12 16  1  0  0  0  0
 12 17  2  0  0  0  0
 13 14  1  0  0  0  0
 13 42  1  0  0  0  0
 13 43  1  0  0  0  0
 14 15  1  0  0  0  0
 14 27  2  0  0  0  0
 14 28  2  0  0  0  0
 15 44  1  0  0  0  0
 15 45  1  0  0  0  0
 16 24  1  0  0  0  0
 16 46  1  0  0  0  0
 18 15  1  0  0  0  0
 18 19  1  0  0  0  0
 18 22  1  0  0  0  0
 18 36  1  1  0  0  0
 19 20  1  0  0  0  0
 19 47  1  0  0  0  0
 19 48  1  0  0  0  0
 20 21  1  0  0  0  0
 20 49  1  0  0  0  0
 20 50  1  0  0  0  0
 21 22  1  0  0  0  0
 21 23  2  0  0  0  0
 22 51  1  0  0  0  0
 24 25  1  0  0  0  0
 24 26  1  0  0  0  0
 24 33  1  0  0  0  0
 25 26  1  0  0  0  0
 25 52  1  0  0  0  0
 25 53  1  0  0  0  0
 26 54  1  0  0  0  0
 26 55  1  0  0  0  0
 32 33  3  0  0  0  0
M  END
>  <DRUGBANK_ID>
DB07587

>  <COMMON_NAME>
N-(1-CYANOCYCLOPROPYL)-3-({[(2S)-5-OXOPYRROLIDIN-2-YL]METHYL}SULFONYL)-N~2~-[(1S)-2,2,2-TRIFLUORO-1-(4-FLUOROPHENYL)ETHYL]-L-ALANINAMIDE

$$$$
