
 OpenBabel10282417173D

 49 49  0  0  0  0  0  0  0  0999 V2000
   -0.1017    1.6591   -0.0536 C   0  0  0  0  0  0  0  0  0  0  0  0
    1.2093    1.3368   -0.0703 C   0  0  0  0  0  0  0  0  0  0  0  0
   -0.7171   -0.8386   -0.0517 C   0  0  0  0  0  0  0  0  0  0  0  0
    0.5933   -1.1443   -0.0309 C   0  0  0  0  0  0  0  0  0  0  0  0
    1.6335   -0.0923   -0.0024 C   0  0  0  0  0  0  0  0  0  0  0  0
   -1.1489    0.5841   -0.0035 C   0  0  0  0  0  0  0  0  0  0  0  0
    1.1341   -2.5443   -0.0079 C   0  0  0  0  0  0  0  0  0  0  0  0
    2.8108   -0.4185    0.0752 O   0  0  0  0  0  0  0  0  0  0  0  0
    2.1511    2.3499   -0.1384 O   0  0  0  0  0  0  0  0  0  0  0  0
   -2.3399    0.8665    0.0742 O   0  0  0  0  0  0  0  0  0  0  0  0
   -0.6295    2.9471   -0.0781 O   0  0  0  0  0  0  0  0  0  0  0  0
    3.5382    2.0785   -0.1751 C   0  0  0  0  0  0  0  0  0  0  0  0
    0.2584    4.0578   -0.1123 C   0  0  0  0  0  0  0  0  0  0  0  0
    0.4465   -6.5589   -1.2877 C   0  0  0  0  0  0  0  0  0  0  0  0
    0.5662   -7.8927   -1.3793 C   0  0  0  0  0  0  0  0  0  0  0  0
    0.6750   -8.7474   -0.1474 C   0  0  0  0  0  0  0  0  0  0  0  0
    0.6102   -8.5699   -2.7124 C   0  0  0  0  0  0  0  0  0  0  0  0
    0.1496   -5.6076   -2.4171 C   0  0  0  0  0  0  0  0  0  0  0  0
   -1.7365   -2.8036   -1.2441 C   0  0  0  0  0  0  0  0  0  0  0  0
   -1.5441   -4.1349   -1.1371 C   0  0  0  0  0  0  0  0  0  0  0  0
   -1.2672   -4.9934   -2.3575 C   0  0  0  0  0  0  0  0  0  0  0  0
   -1.5438   -4.8086    0.2125 C   0  0  0  0  0  0  0  0  0  0  0  0
   -1.8316   -1.8651   -0.0641 C   0  0  0  0  0  0  0  0  0  0  0  0
    0.7883   -3.0550    0.8924 H   0  0  0  0  0  0  0  0  0  0  0  0
    0.8361   -3.0808   -0.9071 H   0  0  0  0  0  0  0  0  0  0  0  0
    2.2238   -2.6119    0.0047 H   0  0  0  0  0  0  0  0  0  0  0  0
    3.8661    1.6065    0.7546 H   0  0  0  0  0  0  0  0  0  0  0  0
    3.8008    1.4956   -1.0620 H   0  0  0  0  0  0  0  0  0  0  0  0
    4.0488    3.0426   -0.2496 H   0  0  0  0  0  0  0  0  0  0  0  0
    0.8909    4.0780    0.7829 H   0  0  0  0  0  0  0  0  0  0  0  0
    0.8494    4.0498   -1.0351 H   0  0  0  0  0  0  0  0  0  0  0  0
   -0.3240    4.9810   -0.1136 H   0  0  0  0  0  0  0  0  0  0  0  0
    0.5442   -6.1144   -0.3017 H   0  0  0  0  0  0  0  0  0  0  0  0
   -0.1105   -9.5114   -0.1408 H   0  0  0  0  0  0  0  0  0  0  0  0
    1.6501   -9.2385   -0.1056 H   0  0  0  0  0  0  0  0  0  0  0  0
    0.5530   -8.1615    0.7723 H   0  0  0  0  0  0  0  0  0  0  0  0
   -0.3276   -8.4232   -3.2574 H   0  0  0  0  0  0  0  0  0  0  0  0
    1.4321   -8.1433   -3.3004 H   0  0  0  0  0  0  0  0  0  0  0  0
    0.7969   -9.6416   -2.6207 H   0  0  0  0  0  0  0  0  0  0  0  0
    0.2427   -6.1121   -3.3851 H   0  0  0  0  0  0  0  0  0  0  0  0
    0.9116   -4.8218   -2.4175 H   0  0  0  0  0  0  0  0  0  0  0  0
   -1.7575   -2.3352   -2.2283 H   0  0  0  0  0  0  0  0  0  0  0  0
   -2.0277   -5.7816   -2.4178 H   0  0  0  0  0  0  0  0  0  0  0  0
   -1.3904   -4.3923   -3.2701 H   0  0  0  0  0  0  0  0  0  0  0  0
   -0.6547   -4.5226    0.7816 H   0  0  0  0  0  0  0  0  0  0  0  0
   -2.4265   -4.5410    0.7955 H   0  0  0  0  0  0  0  0  0  0  0  0
   -1.5518   -5.8967    0.1420 H   0  0  0  0  0  0  0  0  0  0  0  0
   -1.7744   -2.4023    0.8893 H   0  0  0  0  0  0  0  0  0  0  0  0
   -2.8317   -1.4217   -0.0786 H   0  0  0  0  0  0  0  0  0  0  0  0
  1 11  1  0  0  0  0
  2  1  2  0  0  0  0
  2  9  1  0  0  0  0
  3 23  1  0  0  0  0
  3  6  1  0  0  0  0
  4  3  2  0  0  0  0
  4  7  1  0  0  0  0
  4  5  1  0  0  0  0
  5  2  1  0  0  0  0
  5  8  2  0  0  0  0
  6  1  1  0  0  0  0
  6 10  2  0  0  0  0
  7 24  1  0  0  0  0
  7 25  1  0  0  0  0
  7 26  1  0  0  0  0
  9 12  1  0  0  0  0
 11 13  1  0  0  0  0
 12 27  1  0  0  0  0
 12 28  1  0  0  0  0
 12 29  1  0  0  0  0
 13 30  1  0  0  0  0
 13 31  1  0  0  0  0
 13 32  1  0  0  0  0
 14 15  2  0  0  0  0
 14 33  1  0  0  0  0
 15 16  1  0  0  0  0
 15 17  1  0  0  0  0
 16 34  1  0  0  0  0
 16 35  1  0  0  0  0
 16 36  1  0  0  0  0
 17 37  1  0  0  0  0
 17 38  1  0  0  0  0
 17 39  1  0  0  0  0
 18 14  1  0  0  0  0
 18 40  1  0  0  0  0
 18 41  1  0  0  0  0
 19 20  2  0  0  0  0
 19 42  1  0  0  0  0
 20 21  1  0  0  0  0
 20 22  1  0  0  0  0
 21 18  1  0  0  0  0
 21 43  1  0  0  0  0
 21 44  1  0  0  0  0
 22 45  1  0  0  0  0
 22 46  1  0  0  0  0
 22 47  1  0  0  0  0
 23 19  1  0  0  0  0
 23 48  1  0  0  0  0
 23 49  1  0  0  0  0
M  END
>  <DRUGBANK_ID>
DB08690

>  <COMMON_NAME>
Ubiquinone Q2

>  <CAS_NUMBER>
606-06-4

>  <UNII>
I7T5V2W47R

>  <SYNONYMS>
Coenzyme Q2; Ubiquinone 10; Ubiquinone-2

$$$$
