
 OpenBabel10282417153D

 53 53  0  0  0  0  0  0  0  0999 V2000
    0.7656    0.6239    0.8524 C   0  0  0  0  0  0  0  0  0  0  0  0
   -0.4302    1.8057   -0.7189 S   0  0  0  0  0  0  0  0  0  0  0  0
   -0.0280    1.2002   -1.9206 O   0  0  0  0  0  0  0  0  0  0  0  0
   -1.7739    1.5222   -1.1854 O   0  0  0  0  0  0  0  0  0  0  0  0
    0.4188    3.5929   -1.1004 O   0  0  0  0  0  0  0  0  0  0  0  0
    1.3208    3.9270   -2.8014 C   0  0  0  0  0  0  0  0  0  0  0  0
    2.0169    2.5084   -4.0793 C   0  0  0  0  0  0  0  0  0  0  0  0
    1.1223    0.7638   -4.1715 N   0  0  0  0  0  0  0  0  0  0  0  0
   -0.3762    0.5512   -5.1277 C   0  0  0  0  0  0  0  0  0  0  0  0
   -0.1602   -0.5606   -6.0891 C   0  0  0  0  0  0  0  0  0  0  0  0
   -0.9113   -2.1930   -5.3489 Br  0  0  0  0  0  0  0  0  0  0  0  0
    1.1155   -0.3213   -2.9847 C   0  0  0  0  0  0  0  0  0  0  0  0
    1.3301   -0.2016   -1.5355 C   0  0  0  0  0  0  0  0  0  0  0  0
    0.2766   -0.9970   -0.8315 C   0  0  0  0  0  0  0  0  0  0  0  0
    0.6468   -2.2557   -0.9231 C   0  0  0  0  0  0  0  0  0  0  0  0
    1.0856   -2.5931   -2.2108 C   0  0  0  0  0  0  0  0  0  0  0  0
    1.2532   -1.6284   -3.2643 C   0  0  0  0  0  0  0  0  0  0  0  0
    2.0608   -1.8648   -4.4441 N   0  3  0  0  0  0  0  0  0  0  0  0
    2.2101   -3.0386   -4.7620 O   0  0  0  0  0  0  0  0  0  0  0  0
    2.5699   -0.9161   -5.0658 O   0  5  0  0  0  0  0  0  0  0  0  0
    0.9832   -3.0324    0.2800 N   0  3  0  0  0  0  0  0  0  0  0  0
    1.2810   -4.2028    0.0629 O   0  0  0  0  0  0  0  0  0  0  0  0
    1.0212   -2.4971    1.4032 O   0  5  0  0  0  0  0  0  0  0  0  0
    1.9859    1.4501   -1.0886 C   0  0  0  0  0  0  0  0  0  0  0  0
    1.9184    2.1709   -0.0248 O   0  0  0  0  0  0  0  0  0  0  0  0
    1.5934    2.2322   -2.2472 N   0  0  0  0  0  0  0  0  0  0  0  0
    0.1917    2.4449   -3.6031 C   0  0  0  0  0  0  0  0  0  0  0  0
   -0.9900    3.2525   -4.3796 C   0  0  0  0  0  0  0  0  0  0  0  0
   -0.6391    4.5812   -4.3565 O   0  0  0  0  0  0  0  0  0  0  0  0
   -0.7489    5.0879   -2.7060 P   0  0  0  0  0  0  0  0  0  0  0  0
   -0.1204    6.4376   -3.0488 O   0  0  0  0  0  0  0  0  0  0  0  0
   -2.3597    5.2669   -2.8649 O   0  0  0  0  0  0  0  0  0  0  0  0
   -0.8587    5.5946   -1.0555 O   0  0  0  0  0  0  0  0  0  0  0  0
    0.6443   -0.4404    1.1017 H   0  0  0  0  0  0  0  0  0  0  0  0
    0.5880    1.0816    1.7796 H   0  0  0  0  0  0  0  0  0  0  0  0
    1.9145    0.3412    0.6476 H   0  0  0  0  0  0  0  0  0  0  0  0
    0.2211    3.6873   -2.5656 H   0  0  0  0  0  0  0  0  0  0  0  0
    1.7018    4.9999   -2.6663 H   0  0  0  0  0  0  0  0  0  0  0  0
    1.8318    2.7125   -5.1967 H   0  0  0  0  0  0  0  0  0  0  0  0
    3.0235    2.1941   -3.8233 H   0  0  0  0  0  0  0  0  0  0  0  0
   -1.3540    0.4430   -4.5586 H   0  0  0  0  0  0  0  0  0  0  0  0
   -0.5717    1.3889   -5.8147 H   0  0  0  0  0  0  0  0  0  0  0  0
   -0.7128   -0.5641   -7.0196 H   0  0  0  0  0  0  0  0  0  0  0  0
    0.8612   -0.3490   -6.4091 H   0  0  0  0  0  0  0  0  0  0  0  0
   -0.5548   -0.7532   -0.0765 H   0  0  0  0  0  0  0  0  0  0  0  0
    1.0546   -3.6310   -2.4558 H   0  0  0  0  0  0  0  0  0  0  0  0
    1.2295    2.8428   -1.5538 H   0  0  0  0  0  0  0  0  0  0  0  0
    0.5711    3.3017   -4.3845 H   0  0  0  0  0  0  0  0  0  0  0  0
   -0.5862    1.7509   -3.4477 H   0  0  0  0  0  0  0  0  0  0  0  0
   -0.9469    3.0746   -5.4725 H   0  0  0  0  0  0  0  0  0  0  0  0
   -1.9747    2.9412   -4.0230 H   0  0  0  0  0  0  0  0  0  0  0  0
   -2.6466    5.2207   -3.7956 H   0  0  0  0  0  0  0  0  0  0  0  0
   -0.8226    6.5703   -1.0808 H   0  0  0  0  0  0  0  0  0  0  0  0
  1  2  1  0  0  0  0
  1 34  1  0  0  0  0
  1 35  1  0  0  0  0
  1 36  1  0  0  0  0
  2  3  2  0  0  0  0
  2  4  2  0  0  0  0
  2  5  1  0  0  0  0
  5  6  1  0  0  0  0
  6  7  1  0  0  0  0
  6 37  1  0  0  0  0
  6 38  1  0  0  0  0
  7  8  1  0  0  0  0
  7 39  1  0  0  0  0
  7 40  1  0  0  0  0
  8  9  1  0  0  0  0
  8 12  1  0  0  0  0
  9 10  1  0  0  0  0
  9 41  1  0  0  0  0
  9 42  1  0  0  0  0
 10 11  1  0  0  0  0
 10 43  1  0  0  0  0
 10 44  1  0  0  0  0
 12 13  2  0  0  0  0
 12 17  1  0  0  0  0
 13 14  1  0  0  0  0
 13 24  1  0  0  0  0
 14 15  2  0  0  0  0
 14 45  1  0  0  0  0
 15 16  1  0  0  0  0
 15 21  1  0  0  0  0
 16 17  2  0  0  0  0
 16 46  1  0  0  0  0
 17 18  1  0  0  0  0
 18 19  2  0  0  0  0
 18 20  1  0  0  0  0
 21 22  2  0  0  0  0
 21 23  1  0  0  0  0
 24 25  2  0  0  0  0
 24 26  1  0  0  0  0
 26 27  1  0  0  0  0
 26 47  1  0  0  0  0
 27 28  1  0  0  0  0
 27 48  1  0  0  0  0
 27 49  1  0  0  0  0
 28 29  1  0  0  0  0
 28 50  1  0  0  0  0
 28 51  1  0  0  0  0
 29 30  1  0  0  0  0
 30 31  2  0  0  0  0
 30 32  1  0  0  0  0
 30 33  1  0  0  0  0
 32 52  1  0  0  0  0
 33 53  1  0  0  0  0
M  CHG  4  18   1  20  -1  21   1  23  -1
M  END
>  <DRUGBANK_ID>
DB05968

>  <COMMON_NAME>
PR-104

>  <CAS_NUMBER>
851627-62-8

>  <UNII>
V16D2ZT7DT

$$$$
