
 OpenBabel10282417103D

 53 55  0  0  1  0  0  0  0  0999 V2000
    1.1216   -1.6027    0.0161 C   0  0  1  0  0  0  0  0  0  0  0  0
   -0.0024   -0.6980    0.1778 C   0  0  0  0  0  0  0  0  0  0  0  0
    2.5219   -1.2441   -0.3342 C   0  0  2  0  0  0  0  0  0  0  0  0
    1.1401   -2.7342    0.9827 C   0  0  0  0  0  0  0  0  0  0  0  0
    0.1697    0.6611    0.1033 C   0  0  0  0  0  0  0  0  0  0  0  0
   -1.2553   -1.2983    0.1413 C   0  0  0  0  0  0  0  0  0  0  0  0
    2.4260    0.2875   -0.8469 C   0  0  0  0  0  0  0  0  0  0  0  0
    2.8356   -2.6554   -1.2399 C   0  0  0  0  0  0  0  0  0  0  0  0
    1.3204   -3.9525    0.4140 C   0  0  0  0  0  0  0  0  0  0  0  0
    1.4629    1.1416   -0.0328 O   0  0  0  0  0  0  0  0  0  0  0  0
   -1.0040    1.4507    0.1047 C   0  0  0  0  0  0  0  0  0  0  0  0
   -2.3695   -0.5454    0.2529 C   0  0  0  0  0  0  0  0  0  0  0  0
   -1.3990   -2.6377   -0.1003 O   0  0  0  0  0  0  0  0  0  0  0  0
    1.7058   -3.8742   -1.0490 C   0  0  0  0  0  0  0  0  0  0  0  0
    1.1127   -5.1922    1.2017 C   0  0  0  0  0  0  0  0  0  0  0  0
   -2.2944    0.8345    0.1410 C   0  0  0  0  0  0  0  0  0  0  0  0
   -3.6290    1.5454    0.0420 C   0  0  0  0  0  0  0  0  0  0  0  0
   -4.5343    1.0795   -1.1417 C   0  0  0  0  0  0  0  0  0  0  0  0
   -5.0425   -0.3820   -1.1244 C   0  0  0  0  0  0  0  0  0  0  0  0
   -5.7330   -0.7703    0.1924 C   0  0  0  0  0  0  0  0  0  0  0  0
   -7.0412   -0.0230    0.3417 C   0  0  0  0  0  0  0  0  0  0  0  0
    0.7798   -1.8856   -0.9887 H   0  0  0  0  0  0  0  0  0  0  0  0
    3.1568   -1.2667    0.5689 H   0  0  0  0  0  0  0  0  0  0  0  0
    3.7943    1.0522   -0.8327 C   0  0  0  0  0  0  0  0  0  0  0  0
    1.9419    0.4129   -2.2896 C   0  0  0  0  0  0  0  0  0  0  0  0
    0.9011   -2.5795    2.0186 H   0  0  0  0  0  0  0  0  0  0  0  0
    3.7755   -3.1200   -0.9102 H   0  0  0  0  0  0  0  0  0  0  0  0
    2.9177   -2.4277   -2.3057 H   0  0  0  0  0  0  0  0  0  0  0  0
   -0.9410    2.5338    0.0535 H   0  0  0  0  0  0  0  0  0  0  0  0
   -3.2799   -1.0964    0.3823 H   0  0  0  0  0  0  0  0  0  0  0  0
   -2.2595   -2.8075   -0.5137 H   0  0  0  0  0  0  0  0  0  0  0  0
    2.0070   -4.8479   -1.4510 H   0  0  0  0  0  0  0  0  0  0  0  0
    0.7960   -3.6435   -1.6412 H   0  0  0  0  0  0  0  0  0  0  0  0
    0.2366   -5.7516    0.8545 H   0  0  0  0  0  0  0  0  0  0  0  0
    1.9969   -5.8302    1.1595 H   0  0  0  0  0  0  0  0  0  0  0  0
    0.9313   -4.9556    2.2601 H   0  0  0  0  0  0  0  0  0  0  0  0
   -4.1628    1.4011    0.9903 H   0  0  0  0  0  0  0  0  0  0  0  0
   -3.4701    2.6234   -0.0490 H   0  0  0  0  0  0  0  0  0  0  0  0
   -5.4175    1.7299   -1.1671 H   0  0  0  0  0  0  0  0  0  0  0  0
   -4.0130    1.2499   -2.0908 H   0  0  0  0  0  0  0  0  0  0  0  0
   -5.7402   -0.5460   -1.9549 H   0  0  0  0  0  0  0  0  0  0  0  0
   -4.2234   -1.0712   -1.3607 H   0  0  0  0  0  0  0  0  0  0  0  0
   -5.9080   -1.8525    0.2170 H   0  0  0  0  0  0  0  0  0  0  0  0
   -5.1150   -0.5527    1.0702 H   0  0  0  0  0  0  0  0  0  0  0  0
   -7.7033   -0.2640   -0.4938 H   0  0  0  0  0  0  0  0  0  0  0  0
   -7.5339   -0.2915    1.2784 H   0  0  0  0  0  0  0  0  0  0  0  0
   -6.8762    1.0583    0.3528 H   0  0  0  0  0  0  0  0  0  0  0  0
    3.8673    1.8386   -0.0697 H   0  0  0  0  0  0  0  0  0  0  0  0
    4.6505    0.3778   -0.7460 H   0  0  0  0  0  0  0  0  0  0  0  0
    3.9529    1.5931   -1.7814 H   0  0  0  0  0  0  0  0  0  0  0  0
    2.7283    0.1148   -2.9859 H   0  0  0  0  0  0  0  0  0  0  0  0
    1.0540   -0.1886   -2.4750 H   0  0  0  0  0  0  0  0  0  0  0  0
    1.6670    1.4582   -2.4893 H   0  0  0  0  0  0  0  0  0  0  0  0
  1  2  1  0  0  0  0
  1  3  1  0  0  0  0
  1  4  1  0  0  0  0
  1 22  1  6  0  0  0
  2  5  2  0  0  0  0
  2  6  1  0  0  0  0
  3  7  1  0  0  0  0
  3  8  1  0  0  0  0
  3 23  1  1  0  0  0
  4  9  2  0  0  0  0
  4 26  1  0  0  0  0
  5 10  1  0  0  0  0
  5 11  1  0  0  0  0
  6 12  2  0  0  0  0
  6 13  1  0  0  0  0
  7 10  1  0  0  0  0
  7 24  1  0  0  0  0
  7 25  1  0  0  0  0
  8 14  1  0  0  0  0
  8 27  1  0  0  0  0
  8 28  1  0  0  0  0
  9 14  1  0  0  0  0
  9 15  1  0  0  0  0
 11 16  2  0  0  0  0
 11 29  1  0  0  0  0
 12 16  1  0  0  0  0
 12 30  1  0  0  0  0
 13 31  1  0  0  0  0
 14 32  1  0  0  0  0
 14 33  1  0  0  0  0
 15 34  1  0  0  0  0
 15 35  1  0  0  0  0
 15 36  1  0  0  0  0
 16 17  1  0  0  0  0
 17 18  1  0  0  0  0
 17 37  1  0  0  0  0
 17 38  1  0  0  0  0
 18 19  1  0  0  0  0
 18 39  1  0  0  0  0
 18 40  1  0  0  0  0
 19 20  1  0  0  0  0
 19 41  1  0  0  0  0
 19 42  1  0  0  0  0
 20 21  1  0  0  0  0
 20 43  1  0  0  0  0
 20 44  1  0  0  0  0
 21 45  1  0  0  0  0
 21 46  1  0  0  0  0
 21 47  1  0  0  0  0
 24 48  1  0  0  0  0
 24 49  1  0  0  0  0
 24 50  1  0  0  0  0
 25 51  1  0  0  0  0
 25 52  1  0  0  0  0
 25 53  1  0  0  0  0
M  END
>  <DRUGBANK_ID>
DB00470

>  <SECONDARY_ACCESSION_NUMBERS>
APRD00571

>  <COMMON_NAME>
Dronabinol

>  <CAS_NUMBER>
1972-08-3

>  <UNII>
7J8897W37S

>  <SYNONYMS>
.DELTA.1-THC; (-)-delta9-trans-Tetrahydrocannabinol; 1-trans-delta-9-Tetrahydrocannabinol; 3-Pentyl-6,6,9-trimethyl-6a,7,8,10a-tetrahydro-6H-dibenzo(b,d)pyran-1-ol; 6,6,9-Trimethyl-3-pentyl-6a,7,8,10a-tetrahydro-6H-benzo[c]chromen-1-ol; delta-9-tetrahydrocannabinol; delta-9-THC; delta(1)-tetrahydrocannabinol; delta(9)-THC; delta9-tetrahydrocannabinol; Dronabinol; Dronabinolum; Tetrahydrocannabinol; THC; Î”9-tetrahydrocannabinol

$$$$
