TF5
 OpenBabel10282417173D

 30 31  0  0  0  0  0  0  0  0999 V2000
   -1.2184   -1.5004   -0.0284 C   0  0  0  0  0  0  0  0  0  0  0  0
    3.5696   -3.7949   -3.8118 C   0  0  0  0  0  0  0  0  0  0  0  0
    2.5034   -4.3792   -2.8666 C   0  0  0  0  0  0  0  0  0  0  0  0
    0.0005    0.5776   -0.0024 C   0  0  0  0  0  0  0  0  0  0  0  0
    1.2017   -0.1295    0.0304 C   0  0  0  0  0  0  0  0  0  0  0  0
    5.0319   -3.5088    0.3618 C   0  0  0  0  0  0  0  0  0  0  0  0
    4.1044   -3.9493   -0.5746 C   0  0  0  0  0  0  0  0  0  0  0  0
    2.8854   -3.2796   -0.7525 C   0  0  0  0  0  0  0  0  0  0  0  0
    2.4991   -2.2809    0.1659 C   0  0  0  0  0  0  0  0  0  0  0  0
    2.0715   -3.4745   -1.8426 O   0  0  0  0  0  0  0  0  0  0  0  0
    4.6758   -2.5193    1.2609 C   0  0  0  0  0  0  0  0  0  0  0  0
    0.0096    1.9170   -0.0052 F   0  0  0  0  0  0  0  0  0  0  0  0
    2.3517    0.5636    0.0325 F   0  0  0  0  0  0  0  0  0  0  0  0
   -1.2006   -0.1124   -0.0231 C   0  0  0  0  0  0  0  0  0  0  0  0
   -2.3626    0.5594   -0.0342 F   0  0  0  0  0  0  0  0  0  0  0  0
   -0.0108   -2.2095    0.0173 C   0  0  0  0  0  0  0  0  0  0  0  0
    1.2243   -1.5359    0.0612 C   0  0  0  0  0  0  0  0  0  0  0  0
    3.3953   -1.9664    1.2083 C   0  0  0  0  0  0  0  0  0  0  0  0
    4.8108   -3.4582   -3.2028 O   0  0  0  0  0  0  0  0  0  0  0  0
   -2.1672   -2.0275   -0.0609 H   0  0  0  0  0  0  0  0  0  0  0  0
    3.8010   -4.5360   -4.5813 H   0  0  0  0  0  0  0  0  0  0  0  0
    3.1963   -2.8881   -4.2921 H   0  0  0  0  0  0  0  0  0  0  0  0
    2.7838   -5.3473   -2.4365 H   0  0  0  0  0  0  0  0  0  0  0  0
    1.6149   -4.5784   -3.4789 H   0  0  0  0  0  0  0  0  0  0  0  0
    6.0328   -3.9330    0.3645 H   0  0  0  0  0  0  0  0  0  0  0  0
    4.4218   -4.7547   -1.2300 H   0  0  0  0  0  0  0  0  0  0  0  0
    5.3921   -2.1767    2.0016 H   0  0  0  0  0  0  0  0  0  0  0  0
   -0.0372   -3.2976    0.0246 H   0  0  0  0  0  0  0  0  0  0  0  0
    3.1102   -1.2506    1.9768 H   0  0  0  0  0  0  0  0  0  0  0  0
    4.6364   -2.7153   -2.5934 H   0  0  0  0  0  0  0  0  0  0  0  0
  1 16  2  0  0  0  0
  1 14  1  0  0  0  0
  1 20  1  0  0  0  0
  2  3  1  0  0  0  0
  2 19  1  0  0  0  0
  2 21  1  0  0  0  0
  2 22  1  0  0  0  0
  3 10  1  0  0  0  0
  3 23  1  0  0  0  0
  3 24  1  0  0  0  0
  4 14  2  0  0  0  0
  4  5  1  0  0  0  0
  4 12  1  0  0  0  0
  5 17  2  0  0  0  0
  5 13  1  0  0  0  0
  6  7  2  0  0  0  0
  6 11  1  0  0  0  0
  6 25  1  0  0  0  0
  7  8  1  0  0  0  0
  7 26  1  0  0  0  0
  8 10  1  0  0  0  0
  8  9  2  0  0  0  0
  9 18  1  0  0  0  0
  9 17  1  0  0  0  0
 11 18  2  0  0  0  0
 11 27  1  0  0  0  0
 14 15  1  0  0  0  0
 16 17  1  0  0  0  0
 16 28  1  0  0  0  0
 18 29  1  0  0  0  0
 19 30  1  0  0  0  0
M  END
>  <DRUGBANK_ID>
DB08611

>  <COMMON_NAME>
2-[(2',3',4'-TRIFLUOROBIPHENYL-2-YL)OXY]ETHANOL

$$$$
