
 OpenBabel10282417133D

 15 16  0  0  0  0  0  0  0  0999 V2000
    2.1239    0.7660   -0.0121 C   0  0  0  0  0  0  0  0  0  0  0  0
    2.2199   -0.6286    0.0006 C   0  0  0  0  0  0  0  0  0  0  0  0
    0.8796    1.4062   -0.0046 C   0  0  0  0  0  0  0  0  0  0  0  0
   -0.2428    0.5814   -0.0004 C   0  0  0  0  0  0  0  0  0  0  0  0
   -0.1884   -0.8083    0.0084 C   0  0  0  0  0  0  0  0  0  0  0  0
    1.0709   -1.4320    0.0156 C   0  0  0  0  0  0  0  0  0  0  0  0
   -1.5390    1.0018   -0.0123 O   0  0  0  0  0  0  0  0  0  0  0  0
   -2.3161   -0.1133   -0.0194 C   0  0  0  0  0  0  0  0  0  0  0  0
   -1.5378   -1.2477    0.0011 C   0  0  0  0  0  0  0  0  0  0  0  0
    3.0320    1.3650   -0.0306 H   0  0  0  0  0  0  0  0  0  0  0  0
    3.2004   -1.1000   -0.0037 H   0  0  0  0  0  0  0  0  0  0  0  0
    0.7872    2.4854   -0.0102 H   0  0  0  0  0  0  0  0  0  0  0  0
    1.1554   -2.5144    0.0242 H   0  0  0  0  0  0  0  0  0  0  0  0
   -3.3826    0.0615   -0.0415 H   0  0  0  0  0  0  0  0  0  0  0  0
   -1.8959   -2.2670    0.0008 H   0  0  0  0  0  0  0  0  0  0  0  0
  1 10  1  0  0  0  0
  2  1  2  0  0  0  0
  2 11  1  0  0  0  0
  3  1  1  0  0  0  0
  3 12  1  0  0  0  0
  4  3  2  0  0  0  0
  5  4  1  0  0  0  0
  6  2  1  0  0  0  0
  6  5  2  0  0  0  0
  6 13  1  0  0  0  0
  7  4  1  0  0  0  0
  8  7  1  0  0  0  0
  8 14  1  0  0  0  0
  9  5  1  0  0  0  0
  9  8  2  0  0  0  0
  9 15  1  0  0  0  0
M  END
>  <DRUGBANK_ID>
DB04179

>  <SECONDARY_ACCESSION_NUMBERS>
EXPT00790

>  <COMMON_NAME>
Benzofuran

>  <CAS_NUMBER>
271-89-6

>  <UNII>
LK6946W774

>  <SYNONYMS>
1-benzofuran; Coumaron; Coumarone; Cumarone

$$$$
