
 OpenBabel10282417173D

 62 64  0  0  0  0  0  0  0  0999 V2000
   -1.1926   -8.6407   -4.1463 N   0  0  0  0  0  0  0  0  0  0  0  0
   -0.1446   -7.7597   -4.3739 C   0  0  0  0  0  0  0  0  0  0  0  0
   -2.0712   -8.4669   -2.9660 C   0  0  2  0  0  0  0  0  0  0  0  0
   -2.0950   -7.0608   -2.2830 C   0  0  0  0  0  0  0  0  0  0  0  0
    0.7028   -7.8541   -5.6851 C   0  0  1  0  0  0  0  0  0  0  0  0
   -1.9007   -6.9427   -0.9380 N   0  0  0  0  0  0  0  0  0  0  0  0
    0.1505   -6.8876   -3.5340 O   0  0  0  0  0  0  0  0  0  0  0  0
    0.1890   -6.9745   -6.8824 C   0  0  0  0  0  0  0  0  0  0  0  0
   -2.3298   -6.0420   -2.9535 O   0  0  0  0  0  0  0  0  0  0  0  0
    2.0734   -7.4901   -5.2472 N   0  0  0  0  0  0  0  0  0  0  0  0
   -1.0463  -10.0593   -4.4498 C   0  0  0  0  0  0  0  0  0  0  0  0
   -1.9366   -5.6075   -0.2859 C   0  0  0  0  0  0  0  0  0  0  0  0
    0.1955   -5.4733   -6.6431 C   0  0  0  0  0  0  0  0  0  0  0  0
   -7.1359   -5.9884    2.2663 N   0  0  0  0  0  0  0  0  0  0  0  0
   -6.0634   -5.9178    1.2781 C   0  0  2  0  0  0  0  0  0  0  0  0
   -3.2425   -5.2959    0.5118 C   0  0  2  0  0  0  0  0  0  0  0  0
   -4.9107   -6.7403    1.8194 C   0  0  0  0  0  0  0  0  0  0  0  0
   -5.6107   -4.4792    0.9773 C   0  0  0  0  0  0  0  0  0  0  0  0
   -1.9203   -9.7790   -2.1940 C   0  0  0  0  0  0  0  0  0  0  0  0
   -3.7649   -6.6758    0.8745 C   0  0  0  0  0  0  0  0  0  0  0  0
   -4.4174   -4.4353   -0.0327 C   0  0  0  0  0  0  0  0  0  0  0  0
   -1.7538  -10.8135   -3.3197 C   0  0  0  0  0  0  0  0  0  0  0  0
    3.0838   -7.6523   -6.2595 C   0  0  0  0  0  0  0  0  0  0  0  0
   -0.5456   -4.9552   -5.5804 C   0  0  0  0  0  0  0  0  0  0  0  0
    0.9792   -4.5813   -7.3872 C   0  0  0  0  0  0  0  0  0  0  0  0
   -0.3451   -3.6628   -5.1109 C   0  0  0  0  0  0  0  0  0  0  0  0
    1.1271   -3.2519   -6.9635 C   0  0  0  0  0  0  0  0  0  0  0  0
    0.4850   -2.8011   -5.8098 C   0  0  0  0  0  0  0  0  0  0  0  0
   -3.0868   -8.5109   -3.3904 H   0  0  0  0  0  0  0  0  0  0  0  0
    0.7127   -8.8996   -6.0092 H   0  0  0  0  0  0  0  0  0  0  0  0
   -1.9856   -7.7793   -0.3689 H   0  0  0  0  0  0  0  0  0  0  0  0
    0.8289   -7.1851   -7.7524 H   0  0  0  0  0  0  0  0  0  0  0  0
   -0.8164   -7.2841   -7.1883 H   0  0  0  0  0  0  0  0  0  0  0  0
    2.0217   -6.5157   -4.9209 H   0  0  0  0  0  0  0  0  0  0  0  0
    0.0086  -10.3476   -4.5002 H   0  0  0  0  0  0  0  0  0  0  0  0
   -1.5207  -10.2572   -5.4158 H   0  0  0  0  0  0  0  0  0  0  0  0
   -1.1331   -5.6662    0.4629 H   0  0  0  0  0  0  0  0  0  0  0  0
   -1.6582   -4.8220   -0.9917 H   0  0  0  0  0  0  0  0  0  0  0  0
   -7.3520   -6.9732    2.4372 H   0  0  0  0  0  0  0  0  0  0  0  0
   -6.7902   -5.6372    3.1599 H   0  0  0  0  0  0  0  0  0  0  0  0
   -6.4255   -6.3655    0.3437 H   0  0  0  0  0  0  0  0  0  0  0  0
   -2.9121   -4.7347    1.3988 H   0  0  0  0  0  0  0  0  0  0  0  0
   -4.5738   -6.4053    2.8062 H   0  0  0  0  0  0  0  0  0  0  0  0
   -5.1870   -7.7987    1.8980 H   0  0  0  0  0  0  0  0  0  0  0  0
   -6.4608   -3.9014    0.5929 H   0  0  0  0  0  0  0  0  0  0  0  0
   -5.3011   -3.9929    1.9134 H   0  0  0  0  0  0  0  0  0  0  0  0
   -1.0388   -9.7817   -1.5455 H   0  0  0  0  0  0  0  0  0  0  0  0
   -2.7952  -10.0186   -1.5770 H   0  0  0  0  0  0  0  0  0  0  0  0
   -4.1026   -7.1518   -0.0572 H   0  0  0  0  0  0  0  0  0  0  0  0
   -2.9537   -7.2570    1.3189 H   0  0  0  0  0  0  0  0  0  0  0  0
   -4.7623   -4.7779   -1.0154 H   0  0  0  0  0  0  0  0  0  0  0  0
   -4.1233   -3.3819   -0.1513 H   0  0  0  0  0  0  0  0  0  0  0  0
   -1.1904  -11.6976   -2.9977 H   0  0  0  0  0  0  0  0  0  0  0  0
   -2.7316  -11.1716   -3.6676 H   0  0  0  0  0  0  0  0  0  0  0  0
    2.9040   -7.0328   -7.1396 H   0  0  0  0  0  0  0  0  0  0  0  0
    4.0534   -7.3610   -5.8479 H   0  0  0  0  0  0  0  0  0  0  0  0
    3.1405   -8.7024   -6.5552 H   0  0  0  0  0  0  0  0  0  0  0  0
   -1.2545   -5.5800   -5.0494 H   0  0  0  0  0  0  0  0  0  0  0  0
    1.4924   -4.9042   -8.2898 H   0  0  0  0  0  0  0  0  0  0  0  0
   -0.8291   -3.3632   -4.1849 H   0  0  0  0  0  0  0  0  0  0  0  0
    1.7679   -2.5689   -7.5148 H   0  0  0  0  0  0  0  0  0  0  0  0
    0.6092   -1.7799   -5.4632 H   0  0  0  0  0  0  0  0  0  0  0  0
  2  1  1  0  0  0  0
  3  1  1  0  0  0  0
  3 29  1  6  0  0  0
  3  4  1  0  0  0  0
  5  2  1  0  0  0  0
  5  8  1  0  0  0  0
  5 30  1  6  0  0  0
  6  4  1  0  0  0  0
  6 31  1  0  0  0  0
  7  2  2  0  0  0  0
  8 32  1  0  0  0  0
  8 33  1  0  0  0  0
  9  4  2  0  0  0  0
 10  5  1  0  0  0  0
 10 34  1  0  0  0  0
 11  1  1  0  0  0  0
 11 35  1  0  0  0  0
 11 36  1  0  0  0  0
 12  6  1  0  0  0  0
 12 37  1  0  0  0  0
 12 38  1  0  0  0  0
 13  8  1  0  0  0  0
 14 39  1  0  0  0  0
 14 40  1  0  0  0  0
 15 14  1  0  0  0  0
 15 18  1  0  0  0  0
 15 41  1  6  0  0  0
 16 42  1  1  0  0  0
 16 12  1  0  0  0  0
 17 20  1  0  0  0  0
 17 15  1  0  0  0  0
 17 43  1  0  0  0  0
 17 44  1  0  0  0  0
 18 21  1  0  0  0  0
 18 45  1  0  0  0  0
 18 46  1  0  0  0  0
 19  3  1  0  0  0  0
 19 47  1  0  0  0  0
 19 48  1  0  0  0  0
 20 16  1  0  0  0  0
 20 49  1  0  0  0  0
 20 50  1  0  0  0  0
 21 16  1  0  0  0  0
 21 51  1  0  0  0  0
 21 52  1  0  0  0  0
 22 11  1  0  0  0  0
 22 19  1  0  0  0  0
 22 53  1  0  0  0  0
 22 54  1  0  0  0  0
 23 10  1  0  0  0  0
 23 55  1  0  0  0  0
 23 56  1  0  0  0  0
 23 57  1  0  0  0  0
 24 13  2  0  0  0  0
 24 58  1  0  0  0  0
 25 13  1  0  0  0  0
 25 59  1  0  0  0  0
 26 24  1  0  0  0  0
 26 60  1  0  0  0  0
 27 25  2  0  0  0  0
 27 61  1  0  0  0  0
 28 27  1  0  0  0  0
 28 26  2  0  0  0  0
 28 62  1  0  0  0  0
M  END
>  <DRUGBANK_ID>
DB08187

>  <COMMON_NAME>
N-Methylphenylalanyl-N-[(trans-4-aminocyclohexyl)methyl]-L-prolinamide

$$$$
