
 OpenBabel10282417123D

 24 23  0  0  0  0  0  0  0  0999 V2000
    0.7302    0.0893    0.2343 O   0  0  0  0  0  0  0  0  0  0  0  0
    0.5666   -0.3271    1.5975 C   0  0  0  0  0  0  0  0  0  0  0  0
    1.3795   -1.5621    2.0712 C   0  0  0  0  0  0  0  0  0  0  0  0
    2.7414   -1.5985    1.6982 O   0  0  0  0  0  0  0  0  0  0  0  0
    3.0482   -1.4303    0.3075 C   0  0  0  0  0  0  0  0  0  0  0  0
    2.4323   -2.1975   -0.9402 C   0  0  0  0  0  0  0  0  0  0  0  0
    1.0545   -2.4741   -1.2259 O   0  0  0  0  0  0  0  0  0  0  0  0
    0.2871   -3.0727   -0.2022 C   0  0  0  0  0  0  0  0  0  0  0  0
    0.8653   -4.3697    0.4255 C   0  0  0  0  0  0  0  0  0  0  0  0
    2.2586   -4.3750    0.7673 O   0  0  0  0  0  0  0  0  0  0  0  0
    1.5179    0.6204    0.1628 H   0  0  0  0  0  0  0  0  0  0  0  0
    0.8214    0.5274    2.2240 H   0  0  0  0  0  0  0  0  0  0  0  0
   -0.5024   -0.5261    1.7017 H   0  0  0  0  0  0  0  0  0  0  0  0
    1.1865   -1.7254    3.1407 H   0  0  0  0  0  0  0  0  0  0  0  0
    1.0441   -2.5351    1.7846 H   0  0  0  0  0  0  0  0  0  0  0  0
    3.0447   -0.3587    0.1220 H   0  0  0  0  0  0  0  0  0  0  0  0
    4.1235   -1.6515    0.2590 H   0  0  0  0  0  0  0  0  0  0  0  0
    2.7553   -1.6071   -1.8090 H   0  0  0  0  0  0  0  0  0  0  0  0
    2.9706   -3.1279   -1.1056 H   0  0  0  0  0  0  0  0  0  0  0  0
    0.0834   -2.2420    0.4380 H   0  0  0  0  0  0  0  0  0  0  0  0
   -0.7701   -3.2395   -0.4516 H   0  0  0  0  0  0  0  0  0  0  0  0
    0.3477   -4.5896    1.3620 H   0  0  0  0  0  0  0  0  0  0  0  0
    0.7030   -5.1997   -0.2617 H   0  0  0  0  0  0  0  0  0  0  0  0
    2.7707   -4.5629   -0.0137 H   0  0  0  0  0  0  0  0  0  0  0  0
  1  2  1  0  0  0  0
  1 11  1  0  0  0  0
  2  3  1  0  0  0  0
  2 12  1  0  0  0  0
  2 13  1  0  0  0  0
  3  4  1  0  0  0  0
  3 14  1  0  0  0  0
  3 15  1  0  0  0  0
  4  5  1  0  0  0  0
  5  6  1  0  0  0  0
  5 16  1  0  0  0  0
  5 17  1  0  0  0  0
  6  7  1  0  0  0  0
  6 18  1  0  0  0  0
  6 19  1  0  0  0  0
  7  8  1  0  0  0  0
  8  9  1  0  0  0  0
  8 20  1  0  0  0  0
  8 21  1  0  0  0  0
  9 10  1  0  0  0  0
  9 22  1  0  0  0  0
  9 23  1  0  0  0  0
 10 24  1  0  0  0  0
M  END
>  <DRUGBANK_ID>
DB02327

>  <SECONDARY_ACCESSION_NUMBERS>
EXPT02598

>  <COMMON_NAME>
Triethylene glycol

>  <CAS_NUMBER>
112-27-6

>  <UNII>
3P5SU53360

$$$$
