
 OpenBabel10282417213D

 43 44  0  0  0  0  0  0  0  0999 V2000
   -1.4064    1.1331   -0.4255 N   0  0  0  0  0  0  0  0  0  0  0  0
   -0.1755   -0.7212   -0.3670 C   0  0  0  0  0  0  0  0  0  0  0  0
   -1.5704   -1.1036   -0.4985 C   0  0  0  0  0  0  0  0  0  0  0  0
   -2.1616    0.0894   -0.9237 C   0  0  0  0  0  0  0  0  0  0  0  0
   -0.1176    0.6729   -0.2878 C   0  0  0  0  0  0  0  0  0  0  0  0
    1.0336   -1.4219   -0.1680 C   0  0  0  0  0  0  0  0  0  0  0  0
   -2.2230   -2.5173   -0.2522 C   0  0  0  0  0  0  0  0  0  0  0  0
   -4.2460   -1.9492    1.4175 N   0  0  0  0  0  0  0  0  0  0  0  0
   -3.1733   -2.8793    1.0230 C   0  0  0  0  0  0  0  0  0  0  0  0
    1.0211   -2.7895   -0.0935 O   0  0  0  0  0  0  0  0  0  0  0  0
    2.2320    0.6870    0.0102 C   0  0  0  0  0  0  0  0  0  0  0  0
    1.0422    1.4121   -0.0573 C   0  0  0  0  0  0  0  0  0  0  0  0
    2.2287   -0.7076   -0.0274 C   0  0  0  0  0  0  0  0  0  0  0  0
   -5.0232   -2.1492    2.6472 C   0  0  0  0  0  0  0  0  0  0  0  0
   -3.7451   -0.6069    1.3490 C   0  0  0  0  0  0  0  0  0  0  0  0
   -4.3805   -1.8190    4.0228 C   0  0  0  0  0  0  0  0  0  0  0  0
   -2.4315   -0.3132    2.1396 C   0  0  0  0  0  0  0  0  0  0  0  0
   -4.2294   -0.3257    4.4895 C   0  0  0  0  0  0  0  0  0  0  0  0
   -1.1883   -1.0905    2.5781 C   0  0  0  0  0  0  0  0  0  0  0  0
   -1.7238    2.0562   -0.2188 H   0  0  0  0  0  0  0  0  0  0  0  0
   -3.1711    0.3385   -1.2375 H   0  0  0  0  0  0  0  0  0  0  0  0
   -2.7864   -2.7707   -1.1541 H   0  0  0  0  0  0  0  0  0  0  0  0
   -1.4010   -3.2394   -0.1758 H   0  0  0  0  0  0  0  0  0  0  0  0
   -3.6306   -3.8556    0.8075 H   0  0  0  0  0  0  0  0  0  0  0  0
   -2.5552   -3.1103    1.8884 H   0  0  0  0  0  0  0  0  0  0  0  0
    1.9303   -3.1046    0.0173 H   0  0  0  0  0  0  0  0  0  0  0  0
    3.1688    1.2299    0.0959 H   0  0  0  0  0  0  0  0  0  0  0  0
    1.0283    2.4935    0.0168 H   0  0  0  0  0  0  0  0  0  0  0  0
    3.1750   -1.2322    0.0620 H   0  0  0  0  0  0  0  0  0  0  0  0
   -5.9340   -1.5356    2.5646 H   0  0  0  0  0  0  0  0  0  0  0  0
   -5.3929   -3.1825    2.6535 H   0  0  0  0  0  0  0  0  0  0  0  0
   -3.7602   -0.4799    0.2931 H   0  0  0  0  0  0  0  0  0  0  0  0
   -4.5163    0.1351    1.6058 H   0  0  0  0  0  0  0  0  0  0  0  0
   -5.0056   -2.2857    4.7895 H   0  0  0  0  0  0  0  0  0  0  0  0
   -3.4249   -2.3591    4.0773 H   0  0  0  0  0  0  0  0  0  0  0  0
   -2.2736    0.7674    2.1993 H   0  0  0  0  0  0  0  0  0  0  0  0
   -2.8160   -0.6204    3.0583 H   0  0  0  0  0  0  0  0  0  0  0  0
   -5.1932    0.1663    4.5427 H   0  0  0  0  0  0  0  0  0  0  0  0
   -3.6441   -0.3265    5.4148 H   0  0  0  0  0  0  0  0  0  0  0  0
   -3.6892    0.4438    3.9202 H   0  0  0  0  0  0  0  0  0  0  0  0
   -0.3716   -1.1427    1.8916 H   0  0  0  0  0  0  0  0  0  0  0  0
   -0.7916   -0.5976    3.4777 H   0  0  0  0  0  0  0  0  0  0  0  0
   -1.3983   -2.1027    2.9290 H   0  0  0  0  0  0  0  0  0  0  0  0
  1  4  1  0  0  0  0
  1  5  1  0  0  0  0
  1 20  1  0  0  0  0
  2  5  2  0  0  0  0
  2  6  1  0  0  0  0
  2  3  1  0  0  0  0
  3  4  2  0  0  0  0
  3  7  1  0  0  0  0
  4 21  1  0  0  0  0
  5 12  1  0  0  0  0
  6 10  1  0  0  0  0
  6 13  2  0  0  0  0
  7  9  1  0  0  0  0
  7 22  1  0  0  0  0
  7 23  1  0  0  0  0
  8  9  1  0  0  0  0
  8 14  1  0  0  0  0
  8 15  1  0  0  0  0
  9 24  1  0  0  0  0
  9 25  1  0  0  0  0
 10 26  1  0  0  0  0
 11 12  2  0  0  0  0
 11 13  1  0  0  0  0
 11 27  1  0  0  0  0
 12 28  1  0  0  0  0
 13 29  1  0  0  0  0
 14 16  1  0  0  0  0
 14 30  1  0  0  0  0
 14 31  1  0  0  0  0
 15 17  1  0  0  0  0
 15 32  1  0  0  0  0
 15 33  1  0  0  0  0
 16 18  1  0  0  0  0
 16 34  1  0  0  0  0
 16 35  1  0  0  0  0
 17 19  1  0  0  0  0
 17 36  1  0  0  0  0
 17 37  1  0  0  0  0
 18 38  1  0  0  0  0
 18 39  1  0  0  0  0
 18 40  1  0  0  0  0
 19 41  1  0  0  0  0
 19 42  1  0  0  0  0
 19 43  1  0  0  0  0
M  END
>  <DRUGBANK_ID>
DB13990

>  <COMMON_NAME>
Dipropyl-4-hydroxytryptamine

>  <CAS_NUMBER>
63065-88-3

>  <UNII>
KS597YAU98

>  <SYNONYMS>
3-[2-(Dipropylamino)ethyl]-1H-indol-4-ol; 4-HO-DPT; 4-Hydroxy-N,N-dipropyltryptamine; 4-Hydroxydipropyltryptamine; Deprocin

$$$$
