
 OpenBabel10282417143D

 80 82  0  0  1  0  0  0  0  0999 V2000
    4.5432    1.9900    5.1991 C   0  0  0  0  0  0  0  0  0  0  0  0
    3.9942    3.0086    4.2162 C   0  0  0  0  0  0  0  0  0  0  0  0
    5.1267    3.6825    3.4421 C   0  0  0  0  0  0  0  0  0  0  0  0
    3.0544    2.2532    3.2607 C   0  0  0  0  0  0  0  0  0  0  0  0
    1.8131    1.5231    4.0556 C   0  0  1  0  0  0  0  0  0  0  0  0
    1.0137    2.6909    4.6863 C   0  0  0  0  0  0  0  0  0  0  0  0
    0.6021    3.8532    3.7225 C   0  0  2  0  0  0  0  0  0  0  0  0
    1.1641    5.0796    4.2239 O   0  0  0  0  0  0  0  0  0  0  0  0
   -0.9432    3.9391    3.5513 C   0  0  2  0  0  0  0  0  0  0  0  0
   -1.5537    3.3442    2.1716 C   0  0  0  0  0  0  0  0  0  0  0  0
   -0.4858    2.7992    1.2383 C   0  0  0  0  0  0  0  0  0  0  0  0
    0.2550    1.8689    1.8035 C   0  0  0  0  0  0  0  0  0  0  0  0
    1.5262    1.1971    1.3642 C   0  0  0  0  0  0  0  0  0  0  0  0
    2.1473    1.4768    0.2367 C   0  0  0  0  0  0  0  0  0  0  0  0
    1.3945    2.4024   -0.4247 C   0  0  0  0  0  0  0  0  0  0  0  0
    0.1600    3.0861    0.0811 C   0  0  0  0  0  0  0  0  0  0  0  0
   -1.2710    5.3265    3.7951 N   0  0  0  0  0  0  0  0  0  0  0  0
   -1.9164    5.8411    4.9111 C   0  0  0  0  0  0  0  0  0  0  0  0
   -2.0672    7.0595    5.0163 O   0  0  0  0  0  0  0  0  0  0  0  0
   -2.6927    4.8268    5.8237 C   0  0  0  0  0  0  0  0  0  0  0  0
   -3.4996    3.7432    5.3236 O   0  0  0  0  0  0  0  0  0  0  0  0
   -4.6883    3.9219    4.6357 C   0  0  0  0  0  0  0  0  0  0  0  0
   -4.9068    4.8155    3.5512 C   0  0  0  0  0  0  0  0  0  0  0  0
   -3.9478    5.8055    3.0644 C   0  0  0  0  0  0  0  0  0  0  0  0
   -6.0621    4.8517    2.7918 C   0  0  0  0  0  0  0  0  0  0  0  0
   -7.0533    3.9531    3.0548 C   0  0  0  0  0  0  0  0  0  0  0  0
   -6.8674    3.0127    4.0677 C   0  0  0  0  0  0  0  0  0  0  0  0
   -5.7243    3.0185    4.9056 C   0  0  0  0  0  0  0  0  0  0  0  0
   -5.7438    2.1319    6.1211 C   0  0  0  0  0  0  0  0  0  0  0  0
    0.7524    0.3395    3.5077 N   0  0  0  0  0  0  0  0  0  0  0  0
    0.6478   -0.9417    3.2516 C   0  0  0  0  0  0  0  0  0  0  0  0
    0.0270   -1.3703    2.2592 O   0  0  0  0  0  0  0  0  0  0  0  0
    1.3119   -1.6541    4.1941 C   0  0  0  0  0  0  0  0  0  0  0  0
    1.2073   -1.1080    5.4776 C   0  0  0  0  0  0  0  0  0  0  0  0
    1.8405   -1.7564    6.4550 C   0  0  0  0  0  0  0  0  0  0  0  0
    2.3791   -2.9881    6.0982 C   0  0  0  0  0  0  0  0  0  0  0  0
    2.3604   -3.5185    4.7750 C   0  0  0  0  0  0  0  0  0  0  0  0
    2.8456   -4.7842    4.4776 N   0  0  0  0  0  0  0  0  0  0  0  0
    1.9807   -2.7402    3.7443 C   0  0  0  0  0  0  0  0  0  0  0  0
    5.0457    1.1854    4.6497 H   0  0  0  0  0  0  0  0  0  0  0  0
    3.7529    1.5353    5.7985 H   0  0  0  0  0  0  0  0  0  0  0  0
    5.2227    2.4478    5.9110 H   0  0  0  0  0  0  0  0  0  0  0  0
    3.4587    3.8070    4.7411 H   0  0  0  0  0  0  0  0  0  0  0  0
    5.7018    2.9490    2.8686 H   0  0  0  0  0  0  0  0  0  0  0  0
    4.7405    4.4312    2.7400 H   0  0  0  0  0  0  0  0  0  0  0  0
    5.8032    4.1888    4.1375 H   0  0  0  0  0  0  0  0  0  0  0  0
    2.7435    3.0165    2.5307 H   0  0  0  0  0  0  0  0  0  0  0  0
    3.6885    1.5545    2.7054 H   0  0  0  0  0  0  0  0  0  0  0  0
    2.3271    0.9354    4.7944 H   0  0  0  0  0  0  0  0  0  0  0  0
    0.1479    2.2673    5.1970 H   0  0  0  0  0  0  0  0  0  0  0  0
    1.6275    3.1255    5.4810 H   0  0  0  0  0  0  0  0  0  0  0  0
    1.0482    3.8581    2.7355 H   0  0  0  0  0  0  0  0  0  0  0  0
    1.0170    5.0952    5.1784 H   0  0  0  0  0  0  0  0  0  0  0  0
   -1.3859    3.3511    4.3631 H   0  0  0  0  0  0  0  0  0  0  0  0
   -2.2299    2.5081    2.4992 H   0  0  0  0  0  0  0  0  0  0  0  0
   -2.2158    4.0105    1.6295 H   0  0  0  0  0  0  0  0  0  0  0  0
   -0.2515    1.7492    2.7871 H   0  0  0  0  0  0  0  0  0  0  0  0
    2.1297    0.4839    1.9561 H   0  0  0  0  0  0  0  0  0  0  0  0
    3.0993    0.9852    0.0352 H   0  0  0  0  0  0  0  0  0  0  0  0
    1.7653    2.6399   -1.3997 H   0  0  0  0  0  0  0  0  0  0  0  0
   -0.1985    3.9295   -0.4660 H   0  0  0  0  0  0  0  0  0  0  0  0
   -1.0733    5.9699    3.0367 H   0  0  0  0  0  0  0  0  0  0  0  0
   -1.8901    4.3677    6.4226 H   0  0  0  0  0  0  0  0  0  0  0  0
   -3.3014    5.3991    6.5292 H   0  0  0  0  0  0  0  0  0  0  0  0
   -3.5545    5.7544    2.0498 H   0  0  0  0  0  0  0  0  0  0  0  0
   -4.1068    6.8102    3.4508 H   0  0  0  0  0  0  0  0  0  0  0  0
   -3.1849    5.3114    3.5461 H   0  0  0  0  0  0  0  0  0  0  0  0
   -6.1288    5.5810    1.9877 H   0  0  0  0  0  0  0  0  0  0  0  0
   -7.9613    4.0123    2.4701 H   0  0  0  0  0  0  0  0  0  0  0  0
   -7.6469    2.2709    4.2083 H   0  0  0  0  0  0  0  0  0  0  0  0
   -6.5878    2.4312    6.7562 H   0  0  0  0  0  0  0  0  0  0  0  0
   -5.8672    1.0806    5.8453 H   0  0  0  0  0  0  0  0  0  0  0  0
   -4.8420    2.2271    6.7322 H   0  0  0  0  0  0  0  0  0  0  0  0
    0.2630    0.3200    2.6214 H   0  0  0  0  0  0  0  0  0  0  0  0
    0.7020   -0.1580    5.6620 H   0  0  0  0  0  0  0  0  0  0  0  0
    1.8148   -1.3174    7.4395 H   0  0  0  0  0  0  0  0  0  0  0  0
    2.7846   -3.5778    6.8977 H   0  0  0  0  0  0  0  0  0  0  0  0
    2.4514   -5.1372    3.6031 H   0  0  0  0  0  0  0  0  0  0  0  0
    2.6849   -5.4124    5.2540 H   0  0  0  0  0  0  0  0  0  0  0  0
    2.0465   -2.9647    2.6800 H   0  0  0  0  0  0  0  0  0  0  0  0
  1  2  1  0  0  0  0
  1 40  1  0  0  0  0
  1 41  1  0  0  0  0
  1 42  1  0  0  0  0
  2  3  1  0  0  0  0
  2  4  1  0  0  0  0
  2 43  1  0  0  0  0
  3 44  1  0  0  0  0
  3 45  1  0  0  0  0
  3 46  1  0  0  0  0
  4  5  1  0  0  0  0
  4 47  1  0  0  0  0
  4 48  1  0  0  0  0
  5  6  1  0  0  0  0
  5 30  1  0  0  0  0
  5 49  1  1  0  0  0
  6 50  1  0  0  0  0
  6 51  1  0  0  0  0
  7 52  1  6  0  0  0
  7  8  1  0  0  0  0
  7  6  1  0  0  0  0
  8 53  1  0  0  0  0
  9 17  1  0  0  0  0
  9 54  1  1  0  0  0
  9 10  1  0  0  0  0
  9  7  1  0  0  0  0
 10 11  1  0  0  0  0
 10 55  1  0  0  0  0
 10 56  1  0  0  0  0
 11 12  2  0  0  0  0
 11 16  1  0  0  0  0
 12 13  1  0  0  0  0
 12 57  1  0  0  0  0
 13 14  2  0  0  0  0
 13 58  1  0  0  0  0
 14 15  1  0  0  0  0
 14 59  1  0  0  0  0
 15 16  2  0  0  0  0
 15 60  1  0  0  0  0
 16 61  1  0  0  0  0
 17 18  1  0  0  0  0
 17 62  1  0  0  0  0
 18 19  2  0  0  0  0
 18 20  1  0  0  0  0
 20 21  1  0  0  0  0
 20 63  1  0  0  0  0
 20 64  1  0  0  0  0
 21 22  1  0  0  0  0
 22 23  2  0  0  0  0
 22 28  1  0  0  0  0
 23 24  1  0  0  0  0
 23 25  1  0  0  0  0
 24 65  1  0  0  0  0
 24 66  1  0  0  0  0
 24 67  1  0  0  0  0
 25 26  2  0  0  0  0
 25 68  1  0  0  0  0
 26 27  1  0  0  0  0
 26 69  1  0  0  0  0
 27 28  2  0  0  0  0
 27 70  1  0  0  0  0
 28 29  1  0  0  0  0
 29 71  1  0  0  0  0
 29 72  1  0  0  0  0
 29 73  1  0  0  0  0
 30 31  1  0  0  0  0
 30 74  1  0  0  0  0
 31 32  2  0  0  0  0
 31 33  1  0  0  0  0
 33 34  2  0  0  0  0
 33 39  1  0  0  0  0
 34 35  1  0  0  0  0
 34 75  1  0  0  0  0
 35 36  2  0  0  0  0
 35 76  1  0  0  0  0
 36 37  1  0  0  0  0
 36 77  1  0  0  0  0
 37 38  1  0  0  0  0
 37 39  2  0  0  0  0
 38 78  1  0  0  0  0
 38 79  1  0  0  0  0
 39 80  1  0  0  0  0
M  END
>  <DRUGBANK_ID>
DB04373

>  <SECONDARY_ACCESSION_NUMBERS>
EXPT02745

>  <COMMON_NAME>
4-Amino-N-{4-[2-(2,6-Dimethyl-Phenoxy)-Acetylamino]-3-Hydroxy-1-Isobutyl-5-Phenyl-Pentyl}-Benzamide

$$$$
