
 OpenBabel10282417193D

 21 20  0  0  0  0  0  0  0  0999 V2000
   -1.3087    1.5300    0.7946 C   0  0  0  0  0  0  0  0  0  0  0  0
    0.4816    1.7194    0.8285 S   0  0  2  0  0  0  0  0  0  0  0  0
    0.9469    0.1996   -0.0674 C   0  0  0  0  0  0  0  0  0  0  0  0
    2.3624    0.3666   -0.6401 C   0  0  0  0  0  0  0  0  0  0  0  0
    3.4659    0.4175    0.4261 C   0  0  0  0  0  0  0  0  0  0  0  0
    3.4678   -0.7879    1.3768 C   0  0  0  0  0  0  0  0  0  0  0  0
    3.8534   -2.0483    0.7130 N   0  0  0  0  0  0  0  0  0  0  0  0
    3.1153   -2.5480   -0.0639 C   0  0  0  0  0  0  0  0  0  0  0  0
    2.1993   -3.2333   -1.1735 S   0  0  0  0  0  0  0  0  0  0  0  0
    0.9362    1.5504    2.2481 O   0  0  0  0  0  0  0  0  0  0  0  0
   -1.6837    1.8780   -0.1706 H   0  0  0  0  0  0  0  0  0  0  0  0
   -1.7206    2.1713    1.5792 H   0  0  0  0  0  0  0  0  0  0  0  0
   -1.6177    0.4987    0.9745 H   0  0  0  0  0  0  0  0  0  0  0  0
    0.8725   -0.6433    0.6291 H   0  0  0  0  0  0  0  0  0  0  0  0
    0.2387    0.0035   -0.8769 H   0  0  0  0  0  0  0  0  0  0  0  0
    2.5897   -0.4448   -1.3320 H   0  0  0  0  0  0  0  0  0  0  0  0
    2.4132    1.2584   -1.2744 H   0  0  0  0  0  0  0  0  0  0  0  0
    4.4438    0.5017   -0.0643 H   0  0  0  0  0  0  0  0  0  0  0  0
    3.3519    1.3379    1.0127 H   0  0  0  0  0  0  0  0  0  0  0  0
    4.2262   -0.5961    2.1471 H   0  0  0  0  0  0  0  0  0  0  0  0
    2.5251   -0.8825    1.9280 H   0  0  0  0  0  0  0  0  0  0  0  0
  1 11  1  0  0  0  0
  1 12  1  0  0  0  0
  1 13  1  0  0  0  0
  2 10  2  1  0  0  0
  2  3  1  0  0  0  0
  2  1  1  0  0  0  0
  3  4  1  0  0  0  0
  3 14  1  0  0  0  0
  3 15  1  0  0  0  0
  4  5  1  0  0  0  0
  4 16  1  0  0  0  0
  4 17  1  0  0  0  0
  5  6  1  0  0  0  0
  5 18  1  0  0  0  0
  5 19  1  0  0  0  0
  6  7  1  0  0  0  0
  6 20  1  0  0  0  0
  6 21  1  0  0  0  0
  7  8  2  0  0  0  0
  8  9  2  0  0  0  0
M  END
>  <DRUGBANK_ID>
DB12422

>  <COMMON_NAME>
Sulforaphane

>  <CAS_NUMBER>
142825-10-3

>  <UNII>
GA49J4310U

>  <SYNONYMS>
(-)-sulforaphane; (R)-sulforaphane; 4-methylsulfinylbutyl isothiocyanate

$$$$
