
 OpenBabel10282417133D

 26 26  0  0  0  0  0  0  0  0999 V2000
   -2.6274    0.8716   -0.1661 O   0  0  0  0  0  0  0  0  0  0  0  0
   -1.2935    0.5071    0.2043 C   0  0  1  0  0  0  0  0  0  0  0  0
   -0.8229   -0.6839   -0.6332 C   0  0  2  0  0  0  0  0  0  0  0  0
   -1.6187   -1.8381   -0.3302 O   0  0  0  0  0  0  0  0  0  0  0  0
    0.6558   -0.9921   -0.3589 C   0  0  2  0  0  0  0  0  0  0  0  0
    0.7814   -1.4778    0.9912 O   0  0  0  0  0  0  0  0  0  0  0  0
    1.4931    0.2832   -0.5646 C   0  0  1  0  0  0  0  0  0  0  0  0
    1.0254    1.3057    0.3418 O   0  0  0  0  0  0  0  0  0  0  0  0
   -0.3219    1.6963    0.0422 C   0  0  2  0  0  0  0  0  0  0  0  0
   -0.7291    2.8360    0.8163 O   0  0  0  0  0  0  0  0  0  0  0  0
    2.9769    0.0464   -0.3021 C   0  0  0  0  0  0  0  0  0  0  0  0
   -1.1233    2.5682    2.1544 C   0  0  0  0  0  0  0  0  0  0  0  0
   -2.8153    1.7450    0.2320 H   0  0  0  0  0  0  0  0  0  0  0  0
   -1.3257    0.1851    1.2518 H   0  0  0  0  0  0  0  0  0  0  0  0
   -0.9747   -0.4640   -1.6955 H   0  0  0  0  0  0  0  0  0  0  0  0
   -1.4494   -2.0528    0.6068 H   0  0  0  0  0  0  0  0  0  0  0  0
    0.9923   -1.8000   -1.0176 H   0  0  0  0  0  0  0  0  0  0  0  0
    0.8683   -0.7032    1.5786 H   0  0  0  0  0  0  0  0  0  0  0  0
    1.3857    0.6398   -1.5978 H   0  0  0  0  0  0  0  0  0  0  0  0
   -0.3475    2.0535   -0.9959 H   0  0  0  0  0  0  0  0  0  0  0  0
    3.3668   -0.7611   -0.9312 H   0  0  0  0  0  0  0  0  0  0  0  0
    3.5493    0.9546   -0.5219 H   0  0  0  0  0  0  0  0  0  0  0  0
    3.1697   -0.1985    0.7471 H   0  0  0  0  0  0  0  0  0  0  0  0
   -2.0507    1.9880    2.1807 H   0  0  0  0  0  0  0  0  0  0  0  0
   -0.3381    2.0455    2.7051 H   0  0  0  0  0  0  0  0  0  0  0  0
   -1.3475    3.5180    2.6458 H   0  0  0  0  0  0  0  0  0  0  0  0
  1 13  1  0  0  0  0
  2  1  1  0  0  0  0
  2  3  1  0  0  0  0
  2  9  1  0  0  0  0
  2 14  1  1  0  0  0
  3  4  1  0  0  0  0
  3  5  1  0  0  0  0
  3 15  1  6  0  0  0
  4 16  1  0  0  0  0
  5  6  1  0  0  0  0
  5  7  1  0  0  0  0
  5 17  1  6  0  0  0
  6 18  1  0  0  0  0
  7 11  1  0  0  0  0
  7 19  1  6  0  0  0
  8  7  1  0  0  0  0
  9  8  1  0  0  0  0
  9 20  1  6  0  0  0
  9 10  1  0  0  0  0
 10 12  1  0  0  0  0
 11 21  1  0  0  0  0
 11 22  1  0  0  0  0
 11 23  1  0  0  0  0
 12 24  1  0  0  0  0
 12 25  1  0  0  0  0
 12 26  1  0  0  0  0
M  END
>  <DRUGBANK_ID>
DB03194

>  <SECONDARY_ACCESSION_NUMBERS>
EXPT02161

>  <COMMON_NAME>
Methyl beta-L-fucopyranoside

>  <CAS_NUMBER>
24332-98-7

>  <UNII>
WW71PB1NF3

>  <SYNONYMS>
Methyl 6-deoxy-beta-L-galactopyranoside

$$$$
