
 OpenBabel10282417143D

 18 18  0  0  0  0  0  0  0  0999 V2000
    1.3616   -0.2209    0.0579 C   0  0  0  0  0  0  0  0  0  0  0  0
    0.4694   -1.3013    0.0378 C   0  0  0  0  0  0  0  0  0  0  0  0
    0.8592    1.0855    0.0180 C   0  0  0  0  0  0  0  0  0  0  0  0
    2.8438   -0.4827    0.1139 C   0  0  0  0  0  0  0  0  0  0  0  0
   -0.9043   -1.0813   -0.0016 C   0  0  0  0  0  0  0  0  0  0  0  0
   -0.5179    1.3034    0.0355 C   0  0  0  0  0  0  0  0  0  0  0  0
    3.5374    0.0668   -1.0124 O   0  0  0  0  0  0  0  0  0  0  0  0
   -1.3975    0.2212    0.0027 C   0  0  0  0  0  0  0  0  0  0  0  0
    3.2376   -0.4921   -2.2096 C   0  0  0  0  0  0  0  0  0  0  0  0
    2.4671   -1.4171   -2.4284 O   0  0  0  0  0  0  0  0  0  0  0  0
    0.8476   -2.3214    0.0200 H   0  0  0  0  0  0  0  0  0  0  0  0
    1.5374    1.9346   -0.0329 H   0  0  0  0  0  0  0  0  0  0  0  0
    3.2407   -0.0011    1.0164 H   0  0  0  0  0  0  0  0  0  0  0  0
    3.0740   -1.5512    0.2122 H   0  0  0  0  0  0  0  0  0  0  0  0
   -1.5845   -1.9277   -0.0326 H   0  0  0  0  0  0  0  0  0  0  0  0
   -0.9068    2.3169    0.0768 H   0  0  0  0  0  0  0  0  0  0  0  0
   -2.4694    0.3929   -0.0306 H   0  0  0  0  0  0  0  0  0  0  0  0
    3.8156    0.0180   -2.9919 H   0  0  0  0  0  0  0  0  0  0  0  0
  1  2  2  0  0  0  0
  1  3  1  0  0  0  0
  1  4  1  0  0  0  0
  2  5  1  0  0  0  0
  2 11  1  0  0  0  0
  3  6  2  0  0  0  0
  3 12  1  0  0  0  0
  4  7  1  0  0  0  0
  4 13  1  0  0  0  0
  4 14  1  0  0  0  0
  5  8  2  0  0  0  0
  5 15  1  0  0  0  0
  6  8  1  0  0  0  0
  6 16  1  0  0  0  0
  7  9  1  0  0  0  0
  8 17  1  0  0  0  0
  9 10  2  0  0  0  0
  9 18  1  0  0  0  0
M  END
>  <DRUGBANK_ID>
DB04569

>  <SECONDARY_ACCESSION_NUMBERS>
EXPT02593

>  <COMMON_NAME>
Benzyl formate

>  <CAS_NUMBER>
104-57-4

>  <UNII>
79GJF97O0Y

>  <SYNONYMS>
Phenylmethyl formate

$$$$
