N4D
 OpenBabel10282417173D

 45 48  0  0  0  0  0  0  0  0999 V2000
   -1.8050   -0.0400    0.0051 C   0  0  0  0  0  0  0  0  0  0  0  0
    2.5262    0.0214   -0.0158 C   0  0  0  0  0  0  0  0  0  0  0  0
   -1.1563   -3.7743    0.0726 C   0  0  0  0  0  0  0  0  0  0  0  0
   -0.6427   -5.8961   -0.9131 C   0  0  0  0  0  0  0  0  0  0  0  0
   -1.0969   -1.2590    0.0197 C   0  0  0  0  0  0  0  0  0  0  0  0
   -3.3091    0.0075   -0.0310 C   0  0  0  0  0  0  0  0  0  0  0  0
    4.6662   -1.2202   -0.0735 C   0  0  0  0  0  0  0  0  0  0  0  0
   -1.3498   -4.7016   -0.9601 C   0  0  0  0  0  0  0  0  0  0  0  0
    1.0291   -0.0195    0.0006 C   0  0  0  0  0  0  0  0  0  0  0  0
    0.5712  -10.2611   -3.4454 C   0  0  0  0  0  0  0  0  0  0  0  0
   -0.1131  -10.2030   -2.2292 C   0  0  0  0  0  0  0  0  0  0  0  0
    0.7167   -9.1089   -4.2171 C   0  0  0  0  0  0  0  0  0  0  0  0
    0.3117    1.1799    0.0028 C   0  0  0  0  0  0  0  0  0  0  0  0
   -1.0880    1.1712    0.0012 C   0  0  0  0  0  0  0  0  0  0  0  0
   -0.6171   -8.9837   -1.7567 C   0  0  0  0  0  0  0  0  0  0  0  0
    0.1743   -7.8981   -3.7782 C   0  0  0  0  0  0  0  0  0  0  0  0
    0.3113   -1.2161    0.0128 C   0  0  0  0  0  0  0  0  0  0  0  0
   -2.0411   -4.7456   -2.1813 C   0  0  0  0  0  0  0  0  0  0  0  0
    0.3679   -5.2885    0.9804 C   0  0  0  0  0  0  0  0  0  0  0  0
   -0.4633   -7.8287   -2.5319 C   0  0  0  0  0  0  0  0  0  0  0  0
   -1.7696   -5.8381   -2.8980 N   0  0  0  0  0  0  0  0  0  0  0  0
    0.2389   -6.2470    0.0477 N   0  0  0  0  0  0  0  0  0  0  0  0
   -0.2591   -4.0992    1.0379 N   0  0  0  0  0  0  0  0  0  0  0  0
   -0.9585   -6.5778   -2.0858 N   0  0  0  0  0  0  0  0  0  0  0  0
   -1.7606   -2.5069    0.0874 N   0  0  0  0  0  0  0  0  0  0  0  0
    3.2227   -1.1736   -0.0476 N   0  0  0  0  0  0  0  0  0  0  0  0
    3.0949    1.1145   -0.0069 O   0  0  0  0  0  0  0  0  0  0  0  0
   -3.6792   -0.4842   -0.9372 H   0  0  0  0  0  0  0  0  0  0  0  0
   -3.7283   -0.4869    0.8503 H   0  0  0  0  0  0  0  0  0  0  0  0
   -3.6854    1.0368   -0.0440 H   0  0  0  0  0  0  0  0  0  0  0  0
    5.0093   -1.7800    0.8007 H   0  0  0  0  0  0  0  0  0  0  0  0
    4.9776   -1.7498   -0.9780 H   0  0  0  0  0  0  0  0  0  0  0  0
    5.1055   -0.2208   -0.0647 H   0  0  0  0  0  0  0  0  0  0  0  0
    0.9891  -11.2037   -3.7938 H   0  0  0  0  0  0  0  0  0  0  0  0
   -0.2499  -11.1140   -1.6502 H   0  0  0  0  0  0  0  0  0  0  0  0
    1.2591   -9.1524   -5.1586 H   0  0  0  0  0  0  0  0  0  0  0  0
    0.8398    2.1322    0.0021 H   0  0  0  0  0  0  0  0  0  0  0  0
   -1.6144    2.1250   -0.0029 H   0  0  0  0  0  0  0  0  0  0  0  0
   -1.1679   -8.9665   -0.8198 H   0  0  0  0  0  0  0  0  0  0  0  0
    0.2990   -7.0066   -4.3885 H   0  0  0  0  0  0  0  0  0  0  0  0
    0.8447   -2.1545    0.0103 H   0  0  0  0  0  0  0  0  0  0  0  0
   -2.6941   -3.9905   -2.6000 H   0  0  0  0  0  0  0  0  0  0  0  0
    1.0694   -5.4832    1.7872 H   0  0  0  0  0  0  0  0  0  0  0  0
   -2.7448   -2.5004   -0.1363 H   0  0  0  0  0  0  0  0  0  0  0  0
    2.7463   -2.0624   -0.0495 H   0  0  0  0  0  0  0  0  0  0  0  0
  1  5  2  0  0  0  0
  1  6  1  0  0  0  0
  1 14  1  0  0  0  0
  2  9  1  0  0  0  0
  2 26  1  0  0  0  0
  2 27  2  0  0  0  0
  3  8  2  0  0  0  0
  3 23  1  0  0  0  0
  3 25  1  0  0  0  0
  4  8  1  0  0  0  0
  4 22  2  0  0  0  0
  4 24  1  0  0  0  0
  5 17  1  0  0  0  0
  5 25  1  0  0  0  0
  6 28  1  0  0  0  0
  6 29  1  0  0  0  0
  6 30  1  0  0  0  0
  7 26  1  0  0  0  0
  7 31  1  0  0  0  0
  7 32  1  0  0  0  0
  7 33  1  0  0  0  0
  8 18  1  0  0  0  0
  9 13  1  0  0  0  0
  9 17  2  0  0  0  0
 10 11  2  0  0  0  0
 10 12  1  0  0  0  0
 10 34  1  0  0  0  0
 11 15  1  0  0  0  0
 11 35  1  0  0  0  0
 12 16  2  0  0  0  0
 12 36  1  0  0  0  0
 13 14  2  0  0  0  0
 13 37  1  0  0  0  0
 14 38  1  0  0  0  0
 15 20  2  0  0  0  0
 15 39  1  0  0  0  0
 16 20  1  0  0  0  0
 16 40  1  0  0  0  0
 17 41  1  0  0  0  0
 18 21  2  0  0  0  0
 18 42  1  0  0  0  0
 19 22  1  0  0  0  0
 19 23  2  0  0  0  0
 19 43  1  0  0  0  0
 20 24  1  0  0  0  0
 21 24  1  0  0  0  0
 25 44  1  0  0  0  0
 26 45  1  0  0  0  0
M  END
>  <DRUGBANK_ID>
DB08242

>  <COMMON_NAME>
N,4-dimethyl-3-[(1-phenyl-1H-pyrazolo[3,4-d]pyrimidin-4-yl)amino]benzamide

$$$$
