
 OpenBabel10282417243D

 64 68  0  0  1  0  0  0  0  0999 V2000
    0.9266   -0.1123    0.0099 C   0  0  0  0  0  0  0  0  0  0  0  0
    0.2561   -1.7637   -0.1176 S   0  0  0  0  0  0  0  0  0  0  0  0
    0.9072   -2.5897    0.8855 O   0  0  0  0  0  0  0  0  0  0  0  0
   -1.1816   -1.6672   -0.1777 O   0  0  0  0  0  0  0  0  0  0  0  0
    0.7792   -2.3205   -1.6640 N   0  0  0  0  0  0  0  0  0  0  0  0
    0.3970   -3.7630   -1.8432 C   0  0  0  0  0  0  0  0  0  0  0  0
    0.8766   -4.3263   -3.1763 C   0  0  0  0  0  0  0  0  0  0  0  0
    0.3892   -3.4902   -4.3648 C   0  0  0  0  0  0  0  0  0  0  0  0
    0.7189   -2.0110   -4.1139 C   0  0  0  0  0  0  0  0  0  0  0  0
    0.2301   -1.5011   -2.7771 C   0  0  0  0  0  0  0  0  0  0  0  0
    0.9690   -4.0004   -5.6822 C   0  0  0  0  0  0  0  0  0  0  0  0
    0.7056   -5.3033   -6.1311 C   0  0  0  0  0  0  0  0  0  0  0  0
    1.2374   -5.7726   -7.3488 C   0  0  0  0  0  0  0  0  0  0  0  0
    2.0310   -4.9494   -8.1627 C   0  0  0  0  0  0  0  0  0  0  0  0
    2.2378   -3.6319   -7.7303 C   0  0  0  0  0  0  0  0  0  0  0  0
    1.7594   -3.1845   -6.5005 C   0  0  0  0  0  0  0  0  0  0  0  0
    2.7389   -5.4357   -9.3658 C   0  0  0  0  0  0  0  0  0  0  0  0
    4.1249   -5.3078   -9.4428 C   0  0  0  0  0  0  0  0  0  0  0  0
    4.8056   -5.6900  -10.5827 C   0  0  0  0  0  0  0  0  0  0  0  0
    6.1541   -5.5487  -10.6573 N   0  0  0  0  0  0  0  0  0  0  0  0
    6.7564   -5.9336  -11.8098 C   0  0  0  0  0  0  0  0  0  0  0  0
    6.0528   -6.4406  -12.8634 C   0  0  0  0  0  0  0  0  0  0  0  0
    4.7299   -6.5635  -12.7862 N   0  0  0  0  0  0  0  0  0  0  0  0
    4.0755   -6.2030  -11.6581 C   0  0  0  0  0  0  0  0  0  0  0  0
    2.6790   -6.3051  -11.5291 C   0  0  0  0  0  0  0  0  0  0  0  0
    1.8724   -6.7244  -12.5777 N   0  0  0  0  0  0  0  0  0  0  0  0
    2.3111   -7.3059  -13.8574 C   0  0  0  0  0  0  0  0  0  0  0  0
    2.0191   -8.8091  -14.0311 C   0  0  2  0  0  0  0  0  0  0  0  0
    0.9901   -9.2884  -13.0013 C   0  0  0  0  0  0  0  0  0  0  0  0
    0.6240  -10.7002  -13.1789 N   0  0  0  0  0  0  0  0  0  0  0  0
    1.8657  -11.4920  -13.1269 C   0  0  0  0  0  0  0  0  0  0  0  0
    2.8888  -11.0061  -14.1641 C   0  0  0  0  0  0  0  0  0  0  0  0
    3.2185   -9.6203  -13.9484 O   0  0  0  0  0  0  0  0  0  0  0  0
    2.0124   -5.9440  -10.3915 N   0  0  0  0  0  0  0  0  0  0  0  0
    0.5869    0.2941    0.9668 H   0  0  0  0  0  0  0  0  0  0  0  0
    0.5319    0.5180   -0.7873 H   0  0  0  0  0  0  0  0  0  0  0  0
    2.0159   -0.1490   -0.0082 H   0  0  0  0  0  0  0  0  0  0  0  0
   -0.6943   -3.8515   -1.7861 H   0  0  0  0  0  0  0  0  0  0  0  0
    0.8369   -4.3660   -1.0416 H   0  0  0  0  0  0  0  0  0  0  0  0
    0.5033   -5.3551   -3.2627 H   0  0  0  0  0  0  0  0  0  0  0  0
    1.9716   -4.3875   -3.1882 H   0  0  0  0  0  0  0  0  0  0  0  0
   -0.7058   -3.5799   -4.4343 H   0  0  0  0  0  0  0  0  0  0  0  0
    1.8053   -1.8599   -4.1469 H   0  0  0  0  0  0  0  0  0  0  0  0
    0.2709   -1.3940   -4.9040 H   0  0  0  0  0  0  0  0  0  0  0  0
    0.5890   -0.4721   -2.6845 H   0  0  0  0  0  0  0  0  0  0  0  0
   -0.8625   -1.5029   -2.7526 H   0  0  0  0  0  0  0  0  0  0  0  0
    0.0999   -5.9783   -5.5278 H   0  0  0  0  0  0  0  0  0  0  0  0
    1.0429   -6.8014   -7.6440 H   0  0  0  0  0  0  0  0  0  0  0  0
    2.7960   -2.9274   -8.3434 H   0  0  0  0  0  0  0  0  0  0  0  0
    2.0422   -2.1776   -6.2086 H   0  0  0  0  0  0  0  0  0  0  0  0
    4.6882   -4.8980   -8.6097 H   0  0  0  0  0  0  0  0  0  0  0  0
    7.8303   -5.8235  -11.8712 H   0  0  0  0  0  0  0  0  0  0  0  0
    6.4926   -6.7643  -13.7978 H   0  0  0  0  0  0  0  0  0  0  0  0
    0.8931   -6.7684  -12.3213 H   0  0  0  0  0  0  0  0  0  0  0  0
    1.7803   -6.7523  -14.6390 H   0  0  0  0  0  0  0  0  0  0  0  0
    3.3484   -7.1581  -14.1307 H   0  0  0  0  0  0  0  0  0  0  0  0
    1.6481   -8.9381  -15.0570 H   0  0  0  0  0  0  0  0  0  0  0  0
    1.3977   -9.1657  -11.9892 H   0  0  0  0  0  0  0  0  0  0  0  0
    0.0870   -8.6773  -13.0847 H   0  0  0  0  0  0  0  0  0  0  0  0
    0.2126  -10.7984  -14.1061 H   0  0  0  0  0  0  0  0  0  0  0  0
    2.2972  -11.4176  -12.1207 H   0  0  0  0  0  0  0  0  0  0  0  0
    1.6132  -12.5412  -13.3021 H   0  0  0  0  0  0  0  0  0  0  0  0
    3.8058  -11.6007  -14.0941 H   0  0  0  0  0  0  0  0  0  0  0  0
    2.4960  -11.1260  -15.1818 H   0  0  0  0  0  0  0  0  0  0  0  0
  1  2  1  0  0  0  0
  1 35  1  0  0  0  0
  1 36  1  0  0  0  0
  1 37  1  0  0  0  0
  2  3  2  0  0  0  0
  2  4  2  0  0  0  0
  2  5  1  0  0  0  0
  5  6  1  0  0  0  0
  5 10  1  0  0  0  0
  6  7  1  0  0  0  0
  6 38  1  0  0  0  0
  6 39  1  0  0  0  0
  7  8  1  0  0  0  0
  7 40  1  0  0  0  0
  7 41  1  0  0  0  0
  8  9  1  0  0  0  0
  8 11  1  0  0  0  0
  8 42  1  0  0  0  0
  9 10  1  0  0  0  0
  9 43  1  0  0  0  0
  9 44  1  0  0  0  0
 10 45  1  0  0  0  0
 10 46  1  0  0  0  0
 11 12  2  0  0  0  0
 11 16  1  0  0  0  0
 12 13  1  0  0  0  0
 12 47  1  0  0  0  0
 13 14  2  0  0  0  0
 13 48  1  0  0  0  0
 14 15  1  0  0  0  0
 14 17  1  0  0  0  0
 15 16  2  0  0  0  0
 15 49  1  0  0  0  0
 16 50  1  0  0  0  0
 17 18  2  0  0  0  0
 17 34  1  0  0  0  0
 18 19  1  0  0  0  0
 18 51  1  0  0  0  0
 19 20  2  0  0  0  0
 19 24  1  0  0  0  0
 20 21  1  0  0  0  0
 21 22  2  0  0  0  0
 21 52  1  0  0  0  0
 22 23  1  0  0  0  0
 22 53  1  0  0  0  0
 23 24  2  0  0  0  0
 24 25  1  0  0  0  0
 25 26  1  0  0  0  0
 25 34  2  0  0  0  0
 26 27  1  0  0  0  0
 26 54  1  0  0  0  0
 27 55  1  0  0  0  0
 27 56  1  0  0  0  0
 28 27  1  0  0  0  0
 28 29  1  0  0  0  0
 28 33  1  0  0  0  0
 28 57  1  6  0  0  0
 29 30  1  0  0  0  0
 29 58  1  0  0  0  0
 29 59  1  0  0  0  0
 30 31  1  0  0  0  0
 30 60  1  0  0  0  0
 31 32  1  0  0  0  0
 31 61  1  0  0  0  0
 31 62  1  0  0  0  0
 32 33  1  0  0  0  0
 32 63  1  0  0  0  0
 32 64  1  0  0  0  0
M  END
>  <DRUGBANK_ID>
DB17557

>  <COMMON_NAME>
Sovleplenib

>  <CAS_NUMBER>
1415792-84-5

>  <UNII>
9CL6353KHO

$$$$
