
 OpenBabel10282417193D

 55 58  0  0  0  0  0  0  0  0999 V2000
    1.1615    0.0300    0.1181 C   0  0  0  0  0  0  0  0  0  0  0  0
    0.5781    1.3939   -0.1897 C   0  0  0  0  0  0  0  0  0  0  0  0
    1.1918    2.4314    0.2829 N   0  0  0  0  0  0  0  0  0  0  0  0
    0.7671    3.7016   -0.1235 C   0  0  0  0  0  0  0  0  0  0  0  0
    1.4134    4.8130    0.4097 C   0  0  0  0  0  0  0  0  0  0  0  0
    1.2357    6.0671   -0.1676 C   0  0  0  0  0  0  0  0  0  0  0  0
    0.2274    6.2615   -1.1094 C   0  0  0  0  0  0  0  0  0  0  0  0
   -0.5374    5.1799   -1.5680 C   0  0  0  0  0  0  0  0  0  0  0  0
   -0.1940    3.8912   -1.1206 C   0  0  0  0  0  0  0  0  0  0  0  0
   -0.8247    2.6749   -1.6382 C   0  0  0  0  0  0  0  0  0  0  0  0
   -1.5490    2.7744   -2.6550 O   0  0  0  0  0  0  0  0  0  0  0  0
   -0.5508    1.4794   -0.9850 N   0  0  0  0  0  0  0  0  0  0  0  0
   -1.1826    0.2945   -1.4488 C   0  0  0  0  0  0  0  0  0  0  0  0
   -1.7485   -0.7206   -0.6825 C   0  0  0  0  0  0  0  0  0  0  0  0
   -2.0511   -2.0444   -1.2065 C   0  0  0  0  0  0  0  0  0  0  0  0
   -1.8794   -2.3628   -2.5308 C   0  0  0  0  0  0  0  0  0  0  0  0
   -1.3622   -1.2957   -3.1715 C   0  0  0  0  0  0  0  0  0  0  0  0
   -1.0107   -0.0048   -2.7422 C   0  0  0  0  0  0  0  0  0  0  0  0
   -2.0985   -3.5736   -3.1408 O   0  0  0  0  0  0  0  0  0  0  0  0
   -1.9262   -3.9395   -4.5744 C   0  0  0  0  0  0  0  0  0  0  0  0
   -2.5208   -3.0692   -5.7136 C   0  0  0  0  0  0  0  0  0  0  0  0
   -1.9838   -1.6110   -5.9034 C   0  0  0  0  0  0  0  0  0  0  0  0
   -0.4610   -1.4086   -6.1921 N   0  0  0  0  0  0  0  0  0  0  0  0
    0.3477   -2.6292   -6.1965 C   0  0  0  0  0  0  0  0  0  0  0  0
    0.9001   -2.8965   -4.7823 C   0  0  0  0  0  0  0  0  0  0  0  0
    1.2155   -1.5089   -4.2744 C   0  0  0  0  0  0  0  0  0  0  0  0
    0.3665   -0.5614   -5.2659 C   0  0  0  0  0  0  0  0  0  0  0  0
   -1.7213    5.4235   -2.4724 C   0  0  0  0  0  0  0  0  0  0  0  0
   -1.5725    4.9443   -3.7342 F   0  0  0  0  0  0  0  0  0  0  0  0
   -2.8773    4.9167   -1.9597 F   0  0  0  0  0  0  0  0  0  0  0  0
   -1.9747    6.7568   -2.6408 F   0  0  0  0  0  0  0  0  0  0  0  0
    0.9003   -0.7344   -0.6173 H   0  0  0  0  0  0  0  0  0  0  0  0
    0.8013   -0.2738    1.1010 H   0  0  0  0  0  0  0  0  0  0  0  0
    2.2545    0.0786    0.1170 H   0  0  0  0  0  0  0  0  0  0  0  0
    2.0859    4.6898    1.2550 H   0  0  0  0  0  0  0  0  0  0  0  0
    1.8838    6.8913    0.1179 H   0  0  0  0  0  0  0  0  0  0  0  0
    0.0198    7.2703   -1.4646 H   0  0  0  0  0  0  0  0  0  0  0  0
   -1.9686   -0.4810    0.3460 H   0  0  0  0  0  0  0  0  0  0  0  0
   -2.3802   -2.8160   -0.5292 H   0  0  0  0  0  0  0  0  0  0  0  0
   -1.0305   -1.6225   -4.0992 H   0  0  0  0  0  0  0  0  0  0  0  0
   -0.4383    0.7133   -3.3265 H   0  0  0  0  0  0  0  0  0  0  0  0
   -0.9192   -4.2507   -4.8528 H   0  0  0  0  0  0  0  0  0  0  0  0
   -2.3458   -4.9537   -4.6650 H   0  0  0  0  0  0  0  0  0  0  0  0
   -2.3738   -3.5625   -6.6872 H   0  0  0  0  0  0  0  0  0  0  0  0
   -3.6051   -3.0744   -5.5497 H   0  0  0  0  0  0  0  0  0  0  0  0
   -2.5553   -1.1077   -6.6970 H   0  0  0  0  0  0  0  0  0  0  0  0
   -2.4355   -1.0324   -5.0785 H   0  0  0  0  0  0  0  0  0  0  0  0
    1.2211   -2.4042   -6.8151 H   0  0  0  0  0  0  0  0  0  0  0  0
   -0.1672   -3.4460   -6.6941 H   0  0  0  0  0  0  0  0  0  0  0  0
    0.2413   -3.2930   -4.0100 H   0  0  0  0  0  0  0  0  0  0  0  0
    1.6980   -3.6401   -4.7741 H   0  0  0  0  0  0  0  0  0  0  0  0
    0.9850   -1.4888   -3.1921 H   0  0  0  0  0  0  0  0  0  0  0  0
    2.2931   -1.3511   -4.2922 H   0  0  0  0  0  0  0  0  0  0  0  0
   -0.3734    0.1531   -4.9370 H   0  0  0  0  0  0  0  0  0  0  0  0
    1.0975    0.1448   -5.6694 H   0  0  0  0  0  0  0  0  0  0  0  0
  1  2  1  0  0  0  0
  1 32  1  0  0  0  0
  1 33  1  0  0  0  0
  1 34  1  0  0  0  0
  2  3  2  0  0  0  0
  2 12  1  0  0  0  0
  3  4  1  0  0  0  0
  4  5  2  0  0  0  0
  4  9  1  0  0  0  0
  5  6  1  0  0  0  0
  5 35  1  0  0  0  0
  6  7  2  0  0  0  0
  6 36  1  0  0  0  0
  7  8  1  0  0  0  0
  7 37  1  0  0  0  0
  8  9  2  0  0  0  0
  8 28  1  0  0  0  0
  9 10  1  0  0  0  0
 10 11  2  0  0  0  0
 10 12  1  0  0  0  0
 12 13  1  0  0  0  0
 13 14  2  0  0  0  0
 13 18  1  0  0  0  0
 14 15  1  0  0  0  0
 14 38  1  0  0  0  0
 15 16  2  0  0  0  0
 15 39  1  0  0  0  0
 16 17  1  0  0  0  0
 16 19  1  0  0  0  0
 17 18  2  0  0  0  0
 17 40  1  0  0  0  0
 18 41  1  0  0  0  0
 19 20  1  0  0  0  0
 20 21  1  0  0  0  0
 20 42  1  0  0  0  0
 20 43  1  0  0  0  0
 21 22  1  0  0  0  0
 21 44  1  0  0  0  0
 21 45  1  0  0  0  0
 22 23  1  0  0  0  0
 22 46  1  0  0  0  0
 22 47  1  0  0  0  0
 23 24  1  0  0  0  0
 23 27  1  0  0  0  0
 24 25  1  0  0  0  0
 24 48  1  0  0  0  0
 24 49  1  0  0  0  0
 25 26  1  0  0  0  0
 25 50  1  0  0  0  0
 25 51  1  0  0  0  0
 26 27  1  0  0  0  0
 26 52  1  0  0  0  0
 26 53  1  0  0  0  0
 27 54  1  0  0  0  0
 27 55  1  0  0  0  0
 28 29  1  0  0  0  0
 28 30  1  0  0  0  0
 28 31  1  0  0  0  0
M  END
>  <DRUGBANK_ID>
DB11910

>  <COMMON_NAME>
MK-0249

>  <CAS_NUMBER>
1167574-41-5

>  <UNII>
KF50235Q04

$$$$
