1454
 OpenBabel10282417113D

 29 30  0  0  1  0  0  0  0  0999 V2000
   -1.4772   -1.1501   -0.0737 O   0  0  0  0  0  0  0  0  0  0  0  0
   -1.4649    1.2597    0.0308 O   0  0  0  0  0  0  0  0  0  0  0  0
    2.5420   -3.4101    1.2969 N   0  0  0  0  0  0  0  0  0  0  0  0
    3.6224   -2.4078    1.2151 C   0  0  3  0  0  0  0  0  0  0  0  0
    3.4562   -1.4853   -0.0344 C   0  0  0  0  0  0  0  0  0  0  0  0
    2.1644   -0.6903   -0.0780 C   0  0  0  0  0  0  0  0  0  0  0  0
    4.9908   -3.0919    1.1430 C   0  0  0  0  0  0  0  0  0  0  0  0
    0.9343   -1.3557   -0.2052 C   0  0  0  0  0  0  0  0  0  0  0  0
   -0.2262   -0.6262   -0.1031 C   0  0  0  0  0  0  0  0  0  0  0  0
    2.1748    0.7180    0.0043 C   0  0  0  0  0  0  0  0  0  0  0  0
   -0.2084    0.7388   -0.0140 C   0  0  0  0  0  0  0  0  0  0  0  0
    0.9750    1.4455    0.0116 C   0  0  0  0  0  0  0  0  0  0  0  0
    2.5939   -4.2734    2.4633 C   0  0  0  0  0  0  0  0  0  0  0  0
   -2.2565    0.0515    0.0743 C   0  0  0  0  0  0  0  0  0  0  0  0
    1.6661   -2.8970    1.3926 H   0  0  0  0  0  0  0  0  0  0  0  0
    3.5833   -1.7748    2.1113 H   0  0  0  0  0  0  0  0  0  0  0  0
    3.5317   -2.0712   -0.9598 H   0  0  0  0  0  0  0  0  0  0  0  0
    4.3027   -0.7839   -0.0577 H   0  0  0  0  0  0  0  0  0  0  0  0
    5.7955   -2.3519    1.0949 H   0  0  0  0  0  0  0  0  0  0  0  0
    5.1847   -3.7074    2.0265 H   0  0  0  0  0  0  0  0  0  0  0  0
    5.0624   -3.7345    0.2583 H   0  0  0  0  0  0  0  0  0  0  0  0
    0.8692   -2.4275   -0.3505 H   0  0  0  0  0  0  0  0  0  0  0  0
    3.1186    1.2578    0.0558 H   0  0  0  0  0  0  0  0  0  0  0  0
    0.9781    2.5280    0.0516 H   0  0  0  0  0  0  0  0  0  0  0  0
    2.5517   -3.6844    3.3835 H   0  0  0  0  0  0  0  0  0  0  0  0
    1.7179   -4.9300    2.4423 H   0  0  0  0  0  0  0  0  0  0  0  0
    3.4733   -4.9186    2.4653 H   0  0  0  0  0  0  0  0  0  0  0  0
   -2.9983    0.0752   -0.7308 H   0  0  0  0  0  0  0  0  0  0  0  0
   -2.7798    0.0158    1.0375 H   0  0  0  0  0  0  0  0  0  0  0  0
  1  9  1  0  0  0  0
  1 14  1  0  0  0  0
  2 11  1  0  0  0  0
  2 14  1  0  0  0  0
  3  4  1  0  0  0  0
  3 13  1  0  0  0  0
  3 15  1  0  0  0  0
  4  5  1  0  0  0  0
  4  7  1  0  0  0  0
  4 16  1  0  0  0  0
  5  6  1  0  0  0  0
  5 17  1  0  0  0  0
  5 18  1  0  0  0  0
  6  8  2  0  0  0  0
  6 10  1  0  0  0  0
  7 19  1  0  0  0  0
  7 20  1  0  0  0  0
  7 21  1  0  0  0  0
  8  9  1  0  0  0  0
  8 22  1  0  0  0  0
  9 11  2  0  0  0  0
 10 12  2  0  0  0  0
 10 23  1  0  0  0  0
 11 12  1  0  0  0  0
 12 24  1  0  0  0  0
 13 25  1  0  0  0  0
 13 26  1  0  0  0  0
 13 27  1  0  0  0  0
 14 28  1  0  0  0  0
 14 29  1  0  0  0  0
M  END
>  <DRUGBANK_ID>
DB01454

>  <COMMON_NAME>
Midomafetamine

>  <CAS_NUMBER>
42542-10-9

>  <UNII>
KE1SEN21RM

>  <SYNONYMS>
3,4-Methylenedioxymethamphetamine; Ecstasy; MDMA; Methylenedioxymethamphetamine; Midomafetamine

$$$$
