B77
 OpenBabel10282417163D

 32 33  0  0  0  0  0  0  0  0999 V2000
    2.4859   -0.0609   -0.0835 C   0  0  0  0  0  0  0  0  0  0  0  0
    0.9894   -0.0613   -0.2038 C   0  0  0  0  0  0  0  0  0  0  0  0
    0.3154    1.1459   -0.4109 C   0  0  0  0  0  0  0  0  0  0  0  0
   -1.0836    1.2308   -0.3045 C   0  0  0  0  0  0  0  0  0  0  0  0
   -1.8364    0.0549   -0.1589 C   0  0  0  0  0  0  0  0  0  0  0  0
   -1.1583   -1.1713   -0.0665 C   0  0  0  0  0  0  0  0  0  0  0  0
    0.2418   -1.2294   -0.0635 C   0  0  0  0  0  0  0  0  0  0  0  0
   -3.2010   -0.0551   -0.0369 O   0  0  0  0  0  0  0  0  0  0  0  0
   -3.9724    1.1431   -0.0615 C   0  0  0  0  0  0  0  0  0  0  0  0
   -1.7331    2.4295   -0.1673 O   0  0  0  0  0  0  0  0  0  0  0  0
   -1.0063    3.6347    0.0924 C   0  0  0  0  0  0  0  0  0  0  0  0
   -0.2678    3.7322    1.4248 C   0  0  0  0  0  0  0  0  0  0  0  0
    0.1387    4.9628    1.8122 N   0  0  0  0  0  0  0  0  0  0  0  0
    0.9082    5.0425    2.9286 C   0  0  0  0  0  0  0  0  0  0  0  0
    1.3755    3.9437    3.6335 C   0  0  0  0  0  0  0  0  0  0  0  0
    0.9772    2.6949    3.2223 C   0  0  0  0  0  0  0  0  0  0  0  0
    0.0848    2.6000    2.1658 C   0  0  0  0  0  0  0  0  0  0  0  0
    2.8033   -0.5727    0.8321 H   0  0  0  0  0  0  0  0  0  0  0  0
    2.9351   -0.5436   -0.9534 H   0  0  0  0  0  0  0  0  0  0  0  0
    2.8767    0.9625   -0.0194 H   0  0  0  0  0  0  0  0  0  0  0  0
    0.9187    2.0452   -0.4977 H   0  0  0  0  0  0  0  0  0  0  0  0
   -1.7277   -2.0916    0.0488 H   0  0  0  0  0  0  0  0  0  0  0  0
    0.7391   -2.1880    0.0677 H   0  0  0  0  0  0  0  0  0  0  0  0
   -3.7937    1.7392    0.8414 H   0  0  0  0  0  0  0  0  0  0  0  0
   -3.7942    1.7182   -0.9768 H   0  0  0  0  0  0  0  0  0  0  0  0
   -5.0330    0.8775   -0.0631 H   0  0  0  0  0  0  0  0  0  0  0  0
   -0.3360    3.8377   -0.7521 H   0  0  0  0  0  0  0  0  0  0  0  0
   -1.7559    4.4367    0.0737 H   0  0  0  0  0  0  0  0  0  0  0  0
    1.1510    6.0478    3.2510 H   0  0  0  0  0  0  0  0  0  0  0  0
    2.0166    4.0572    4.5001 H   0  0  0  0  0  0  0  0  0  0  0  0
    1.3257    1.7847    3.7030 H   0  0  0  0  0  0  0  0  0  0  0  0
   -0.2800    1.6133    1.9343 H   0  0  0  0  0  0  0  0  0  0  0  0
  1  2  1  0  0  0  0
  1 18  1  0  0  0  0
  1 19  1  0  0  0  0
  1 20  1  0  0  0  0
  2  3  2  0  0  0  0
  2  7  1  0  0  0  0
  3  4  1  0  0  0  0
  3 21  1  0  0  0  0
  4  5  2  0  0  0  0
  4 10  1  0  0  0  0
  5  6  1  0  0  0  0
  5  8  1  0  0  0  0
  6  7  2  0  0  0  0
  6 22  1  0  0  0  0
  7 23  1  0  0  0  0
  8  9  1  0  0  0  0
  9 24  1  0  0  0  0
  9 25  1  0  0  0  0
  9 26  1  0  0  0  0
 10 11  1  0  0  0  0
 11 12  1  0  0  0  0
 11 27  1  0  0  0  0
 11 28  1  0  0  0  0
 12 13  2  0  0  0  0
 12 17  1  0  0  0  0
 13 14  1  0  0  0  0
 14 15  2  0  0  0  0
 14 29  1  0  0  0  0
 15 16  1  0  0  0  0
 15 30  1  0  0  0  0
 16 17  2  0  0  0  0
 16 31  1  0  0  0  0
 17 32  1  0  0  0  0
M  END
>  <DRUGBANK_ID>
DB07427

>  <COMMON_NAME>
2-[(2-methoxy-5-methylphenoxy)methyl]pyridine

$$$$
