
 OpenBabel10282417123D

 39 39  0  0  0  0  0  0  0  0999 V2000
    0.6943    1.3170   -0.1853 C   0  0  2  0  0  0  0  0  0  0  0  0
    1.4174    0.0564    0.2941 C   0  0  2  0  0  0  0  0  0  0  0  0
    2.7682    0.0940   -0.1777 O   0  0  0  0  0  0  0  0  0  0  0  0
    0.6499   -1.1721   -0.2270 C   0  0  1  0  0  0  0  0  0  0  0  0
   -1.7616    0.0574    0.2931 C   0  0  1  0  0  0  0  0  0  0  0  0
   -2.8955   -0.0069   -0.5768 O   0  0  0  0  0  0  0  0  0  0  0  0
   -0.8174   -1.1451    0.2653 C   0  0  2  0  0  0  0  0  0  0  0  0
   -0.8498    1.3382    0.4102 C   0  0  1  0  0  0  0  0  0  0  0  0
   -0.6513    1.5429    1.8349 O   0  0  0  0  0  0  0  0  0  0  0  0
    0.7121    1.2809   -1.6746 O   0  0  0  0  0  0  0  0  0  0  0  0
    0.7136   -1.2863   -1.6744 O   0  0  0  0  0  0  0  0  0  0  0  0
   -0.7519   -1.2196    1.6668 O   0  0  0  0  0  0  0  0  0  0  0  0
    2.3275   -0.3281   -2.7515 O   0  0  0  0  0  0  0  0  0  0  0  0
    1.2164    1.7445   -4.0170 O   0  0  0  0  0  0  0  0  0  0  0  0
    2.0504    1.1633   -2.7646 P   0  0  0  0  0  0  0  0  0  0  0  0
    3.3887    1.0457   -3.8545 O   0  0  0  0  0  0  0  0  0  0  0  0
   -1.4126   -0.5680   -2.1709 O   0  0  0  0  0  0  0  0  0  0  0  0
    0.2236   -0.4016   -3.8531 O   0  0  0  0  0  0  0  0  0  0  0  0
   -0.0643    0.1284   -2.2959 P   0  0  0  0  0  0  0  0  0  0  0  0
   -0.8422    1.5432   -2.9173 O   0  0  0  0  0  0  0  0  0  0  0  0
   -2.1707   -2.0390    3.3751 O   0  0  0  0  0  0  0  0  0  0  0  0
   -2.3891   -2.9270    1.0606 O   0  0  0  0  0  0  0  0  0  0  0  0
   -1.3564   -2.7604    2.1701 P   0  0  0  0  0  0  0  0  0  0  0  0
   -1.9608   -4.3013    2.6734 O   0  0  0  0  0  0  0  0  0  0  0  0
    1.2199    2.2192    0.1344 H   0  0  0  0  0  0  0  0  0  0  0  0
    1.4729    0.0320    1.3879 H   0  0  0  0  0  0  0  0  0  0  0  0
    2.8525   -0.5074   -0.9497 H   0  0  0  0  0  0  0  0  0  0  0  0
    1.1558   -2.0692    0.1510 H   0  0  0  0  0  0  0  0  0  0  0  0
   -2.3546    0.0194    1.2284 H   0  0  0  0  0  0  0  0  0  0  0  0
   -2.6670   -0.6069   -1.3206 H   0  0  0  0  0  0  0  0  0  0  0  0
   -1.2477   -1.9993   -0.2589 H   0  0  0  0  0  0  0  0  0  0  0  0
   -1.4052    2.1952    0.0214 H   0  0  0  0  0  0  0  0  0  0  0  0
   -0.6077    0.6587    2.2593 H   0  0  0  0  0  0  0  0  0  0  0  0
    0.5410    1.1339   -4.4238 H   0  0  0  0  0  0  0  0  0  0  0  0
    3.6175    0.0955   -3.8799 H   0  0  0  0  0  0  0  0  0  0  0  0
    1.0295   -0.9463   -3.8166 H   0  0  0  0  0  0  0  0  0  0  0  0
   -0.4856    2.3379   -2.4872 H   0  0  0  0  0  0  0  0  0  0  0  0
   -1.7292   -2.0630    4.2460 H   0  0  0  0  0  0  0  0  0  0  0  0
   -2.2825   -4.7206    1.8484 H   0  0  0  0  0  0  0  0  0  0  0  0
  1  2  1  0  0  0  0
  1  8  1  0  0  0  0
  1 25  1  1  0  0  0
  1 10  1  0  0  0  0
  2  4  1  0  0  0  0
  2  3  1  0  0  0  0
  2 26  1  1  0  0  0
  3 27  1  0  0  0  0
  4  7  1  0  0  0  0
  4 11  1  0  0  0  0
  4 28  1  1  0  0  0
  5  8  1  0  0  0  0
  5  6  1  0  0  0  0
  5 29  1  1  0  0  0
  6 30  1  0  0  0  0
  7  5  1  0  0  0  0
  7 31  1  6  0  0  0
  7 12  1  0  0  0  0
  8  9  1  0  0  0  0
  8 32  1  6  0  0  0
  9 33  1  0  0  0  0
 10 15  1  0  0  0  0
 11 19  1  0  0  0  0
 12 23  1  0  0  0  0
 14 34  1  0  0  0  0
 15 13  2  0  0  0  0
 15 14  1  0  0  0  0
 15 16  1  0  0  0  0
 16 35  1  0  0  0  0
 18 36  1  0  0  0  0
 19 17  2  0  0  0  0
 19 18  1  0  0  0  0
 19 20  1  0  0  0  0
 20 37  1  0  0  0  0
 21 38  1  0  0  0  0
 23 21  1  0  0  0  0
 23 22  2  0  0  0  0
 23 24  1  0  0  0  0
 24 39  1  0  0  0  0
M  END
>  <DRUGBANK_ID>
DB01729

>  <SECONDARY_ACCESSION_NUMBERS>
EXPT01812

>  <COMMON_NAME>
1D-myo-inositol 1,3,4-trisphosphate

>  <SYNONYMS>
(1S,3S,4S)-1,3,4-triphospho-myo-inositol; 1D-myo-inositol 1,3,4-trisphosphate; D-myo-Inositol 1,3,4-trisphosphate; Inositol 1,3,4-trisphosphate

$$$$
