
 OpenBabel10282417143D

 57 59  0  0  0  0  0  0  0  0999 V2000
    1.0088    0.2075    0.0731 O   0  0  0  0  0  0  0  0  0  0  0  0
    3.1119   -2.7781    6.9293 O   0  0  0  0  0  0  0  0  0  0  0  0
    5.4068   -0.2546    2.7689 O   0  0  0  0  0  0  0  0  0  0  0  0
    5.9557    0.3371    4.8246 O   0  0  0  0  0  0  0  0  0  0  0  0
    3.9016    3.9827    4.6034 O   0  0  0  0  0  0  0  0  0  0  0  0
    4.9616    2.4131    5.7699 O   0  0  0  0  0  0  0  0  0  0  0  0
    4.9816   -2.3148   -0.0662 N   0  0  0  0  0  0  0  0  0  0  0  0
    4.9452    0.0957   -0.0227 N   0  0  0  0  0  0  0  0  0  0  0  0
    2.9725    1.3670    0.0475 N   0  0  0  0  0  0  0  0  0  0  0  0
    5.0085    2.3871    0.0331 N   0  0  0  0  0  0  0  0  0  0  0  0
    3.3742   -0.9779    5.6023 N   0  0  0  0  0  0  0  0  0  0  0  0
    2.9540   -3.6333   -0.4719 C   0  0  2  0  0  0  0  0  0  0  0  0
    2.1051   -2.2946   -0.3124 C   0  0  0  0  0  0  0  0  0  0  0  0
    2.0130   -4.8569   -0.1838 C   0  0  0  0  0  0  0  0  0  0  0  0
    4.3530   -3.5966    0.2338 C   0  0  0  0  0  0  0  0  0  0  0  0
    2.9611   -1.0842   -0.1581 C   0  0  0  0  0  0  0  0  0  0  0  0
    2.0074   -5.7082    1.1479 C   0  0  0  0  0  0  0  0  0  0  0  0
    4.3055   -1.1116   -0.0917 C   0  0  0  0  0  0  0  0  0  0  0  0
    2.1664   -5.0138    2.4678 C   0  0  0  0  0  0  0  0  0  0  0  0
    2.2328    0.2146   -0.0187 C   0  0  0  0  0  0  0  0  0  0  0  0
    4.2603    1.2686    0.0274 C   0  0  0  0  0  0  0  0  0  0  0  0
    2.3407   -3.6833    2.4237 C   0  0  0  0  0  0  0  0  0  0  0  0
    2.2201   -5.5064    3.7511 C   0  0  0  0  0  0  0  0  0  0  0  0
    2.7512   -3.2535    4.6855 C   0  0  0  0  0  0  0  0  0  0  0  0
    2.6566   -2.8278    3.4141 C   0  0  0  0  0  0  0  0  0  0  0  0
    2.5034   -4.6301    4.8542 C   0  0  0  0  0  0  0  0  0  0  0  0
    3.5714   -0.1173    4.4191 C   0  0  1  0  0  0  0  0  0  0  0  0
    2.4998    0.9693    4.3060 C   0  0  0  0  0  0  0  0  0  0  0  0
    3.0939   -2.3216    5.7876 C   0  0  0  0  0  0  0  0  0  0  0  0
    2.6366    2.0602    5.3380 C   0  0  0  0  0  0  0  0  0  0  0  0
    5.0664    0.0671    4.0437 C   0  0  0  0  0  0  0  0  0  0  0  0
    3.9463    2.8081    5.2624 C   0  0  0  0  0  0  0  0  0  0  0  0
    5.9932   -2.3084   -0.1616 H   0  0  0  0  0  0  0  0  0  0  0  0
    5.9496    0.0924    0.0739 H   0  0  0  0  0  0  0  0  0  0  0  0
    3.6499   -0.5433    6.4789 H   0  0  0  0  0  0  0  0  0  0  0  0
    4.5170    3.2724    0.0761 H   0  0  0  0  0  0  0  0  0  0  0  0
    6.0129    2.4058    0.1060 H   0  0  0  0  0  0  0  0  0  0  0  0
    4.8481   -0.8991    2.2963 H   0  0  0  0  0  0  0  0  0  0  0  0
    3.0276    4.4052    4.6169 H   0  0  0  0  0  0  0  0  0  0  0  0
    3.1911   -3.6458   -1.5446 H   0  0  0  0  0  0  0  0  0  0  0  0
    1.4057   -2.2029   -1.1463 H   0  0  0  0  0  0  0  0  0  0  0  0
    1.3891   -2.2961    0.5291 H   0  0  0  0  0  0  0  0  0  0  0  0
    0.9920   -4.4615   -0.2734 H   0  0  0  0  0  0  0  0  0  0  0  0
    2.1068   -5.5546   -1.0258 H   0  0  0  0  0  0  0  0  0  0  0  0
    4.3690   -3.6665    1.3238 H   0  0  0  0  0  0  0  0  0  0  0  0
    4.9701   -4.4531   -0.0606 H   0  0  0  0  0  0  0  0  0  0  0  0
    1.0171   -6.1793    1.1756 H   0  0  0  0  0  0  0  0  0  0  0  0
    2.7563   -6.5009    1.0716 H   0  0  0  0  0  0  0  0  0  0  0  0
    2.4380   -3.1912    1.5194 H   0  0  0  0  0  0  0  0  0  0  0  0
    2.0673   -6.5648    3.9184 H   0  0  0  0  0  0  0  0  0  0  0  0
    2.8302   -1.9124    2.9228 H   0  0  0  0  0  0  0  0  0  0  0  0
    2.5465   -5.0481    5.8537 H   0  0  0  0  0  0  0  0  0  0  0  0
    3.2531   -0.6119    3.5574 H   0  0  0  0  0  0  0  0  0  0  0  0
    2.4599    1.3688    3.2820 H   0  0  0  0  0  0  0  0  0  0  0  0
    1.5116    0.4850    4.4465 H   0  0  0  0  0  0  0  0  0  0  0  0
    1.7927    2.7494    5.2671 H   0  0  0  0  0  0  0  0  0  0  0  0
    2.5874    1.6021    6.3300 H   0  0  0  0  0  0  0  0  0  0  0  0
  1 20  2  0  0  0  0
  2 29  2  0  0  0  0
  3 31  1  0  0  0  0
  3 38  1  0  0  0  0
  4 31  2  0  0  0  0
  5 32  1  0  0  0  0
  5 39  1  0  0  0  0
  6 32  2  0  0  0  0
  7 15  1  0  0  0  0
  7 18  1  0  0  0  0
  7 33  1  0  0  0  0
  8 18  1  0  0  0  0
  8 21  1  0  0  0  0
  8 34  1  0  0  0  0
  9 20  1  0  0  0  0
  9 21  2  0  0  0  0
 10 21  1  0  0  0  0
 10 36  1  0  0  0  0
 10 37  1  0  0  0  0
 11 29  1  0  0  0  0
 11 35  1  0  0  0  0
 12 13  1  0  0  0  0
 12 15  1  0  0  0  0
 12 40  1  6  0  0  0
 12 14  1  0  0  0  0
 13 16  1  0  0  0  0
 13 41  1  0  0  0  0
 13 42  1  0  0  0  0
 14 17  1  0  0  0  0
 14 43  1  0  0  0  0
 14 44  1  0  0  0  0
 15 45  1  0  0  0  0
 15 46  1  0  0  0  0
 16 18  2  0  0  0  0
 16 20  1  0  0  0  0
 17 19  1  0  0  0  0
 17 47  1  0  0  0  0
 17 48  1  0  0  0  0
 19 22  2  0  0  0  0
 19 23  1  0  0  0  0
 22 25  1  0  0  0  0
 22 49  1  0  0  0  0
 23 26  2  0  0  0  0
 23 50  1  0  0  0  0
 24 25  2  0  0  0  0
 24 26  1  0  0  0  0
 24 29  1  0  0  0  0
 25 51  1  0  0  0  0
 26 52  1  0  0  0  0
 27 11  1  0  0  0  0
 27 28  1  0  0  0  0
 27 31  1  0  0  0  0
 27 53  1  6  0  0  0
 28 30  1  0  0  0  0
 28 54  1  0  0  0  0
 28 55  1  0  0  0  0
 30 32  1  0  0  0  0
 30 56  1  0  0  0  0
 30 57  1  0  0  0  0
M  END
>  <DRUGBANK_ID>
DB04322

>  <SECONDARY_ACCESSION_NUMBERS>
EXPT01990

>  <COMMON_NAME>
LY249543

$$$$
