
 OpenBabel10282417193D

 33 33  0  0  0  0  0  0  0  0999 V2000
    0.9837    0.2089    0.1458 C   0  0  0  0  0  0  0  0  0  0  0  0
    0.7965   -1.9446    1.3956 C   0  0  0  0  0  0  0  0  0  0  0  0
   -1.0285   -1.2952   -0.0939 C   0  0  0  0  0  0  0  0  0  0  0  0
    0.8272   -5.9737   -0.5520 C   0  0  0  0  0  0  0  0  0  0  0  0
    1.6812   -7.0239   -0.3595 C   0  0  0  0  0  0  0  0  0  0  0  0
    1.3286   -4.6721   -0.4794 C   0  0  0  0  0  0  0  0  0  0  0  0
    3.0153   -6.7708   -0.0337 C   0  0  0  0  0  0  0  0  0  0  0  0
    2.5113   -1.9813   -1.2938 C   0  0  0  0  0  0  0  0  0  0  0  0
    2.7021   -4.3655   -0.2672 C   0  0  0  0  0  0  0  0  0  0  0  0
    3.5129   -5.4556    0.0366 C   0  0  0  0  0  0  0  0  0  0  0  0
    3.2077   -2.9131   -0.2702 C   0  0  3  0  0  0  0  0  0  0  0  0
    0.5034   -1.2402    0.0475 C   0  0  0  0  0  0  0  0  0  0  0  0
    5.1522   -5.2995    0.5599 Cl  0  0  0  0  0  0  0  0  0  0  0  0
    1.0734   -1.7477   -1.2084 N   0  0  0  0  0  0  0  0  0  0  0  0
    4.6066   -2.7206   -0.5349 O   0  0  0  0  0  0  0  0  0  0  0  0
    0.5811    0.6972    1.0350 H   0  0  0  0  0  0  0  0  0  0  0  0
    0.6809    0.7828   -0.7371 H   0  0  0  0  0  0  0  0  0  0  0  0
    2.0774    0.2596    0.2167 H   0  0  0  0  0  0  0  0  0  0  0  0
    0.1652   -1.5328    2.1904 H   0  0  0  0  0  0  0  0  0  0  0  0
    0.5817   -3.0159    1.3840 H   0  0  0  0  0  0  0  0  0  0  0  0
    1.8071   -1.7796    1.7648 H   0  0  0  0  0  0  0  0  0  0  0  0
   -1.3871   -0.7552   -0.9742 H   0  0  0  0  0  0  0  0  0  0  0  0
   -1.3827   -2.3332   -0.1621 H   0  0  0  0  0  0  0  0  0  0  0  0
   -1.5060   -0.8516    0.7875 H   0  0  0  0  0  0  0  0  0  0  0  0
   -0.2353   -6.1289   -0.7477 H   0  0  0  0  0  0  0  0  0  0  0  0
    1.3129   -8.0453   -0.4249 H   0  0  0  0  0  0  0  0  0  0  0  0
    0.5590   -3.9258   -0.5469 H   0  0  0  0  0  0  0  0  0  0  0  0
    3.6721   -7.6035    0.1744 H   0  0  0  0  0  0  0  0  0  0  0  0
    2.7299   -2.3801   -2.2966 H   0  0  0  0  0  0  0  0  0  0  0  0
    3.0251   -1.0105   -1.3049 H   0  0  0  0  0  0  0  0  0  0  0  0
    3.1163   -2.5299    0.7379 H   0  0  0  0  0  0  0  0  0  0  0  0
    0.5420   -2.4832   -1.6631 H   0  0  0  0  0  0  0  0  0  0  0  0
    4.9317   -3.4785   -1.0413 H   0  0  0  0  0  0  0  0  0  0  0  0
  1 16  1  0  0  0  0
  1 17  1  0  0  0  0
  1 18  1  0  0  0  0
  2 19  1  0  0  0  0
  2 20  1  0  0  0  0
  2 21  1  0  0  0  0
  3 22  1  0  0  0  0
  3 23  1  0  0  0  0
  3 24  1  0  0  0  0
  4 25  1  0  0  0  0
  5  4  2  0  0  0  0
  5 26  1  0  0  0  0
  6  4  1  0  0  0  0
  6 27  1  0  0  0  0
  7  5  1  0  0  0  0
  7 28  1  0  0  0  0
  8 29  1  0  0  0  0
  8 30  1  0  0  0  0
  9  6  2  0  0  0  0
 10  7  2  0  0  0  0
 10  9  1  0  0  0  0
 11  8  1  0  0  0  0
 11  9  1  0  0  0  0
 11 31  1  0  0  0  0
 12  1  1  0  0  0  0
 12  2  1  0  0  0  0
 12  3  1  0  0  0  0
 13 10  1  0  0  0  0
 14  8  1  0  0  0  0
 14 12  1  0  0  0  0
 14 32  1  0  0  0  0
 15 11  1  0  0  0  0
 15 33  1  0  0  0  0
M  END
>  <DRUGBANK_ID>
DB12248

>  <COMMON_NAME>
Tulobuterol

>  <CAS_NUMBER>
41570-61-0

>  <UNII>
591I9SU0F7

>  <SYNONYMS>
Tulobuterol

$$$$
