471
 OpenBabel10282417103D

 77 81  0  0  1  0  0  0  0  0999 V2000
    3.2285    0.4123    0.0031 Cl  0  0  0  0  0  0  0  0  0  0  0  0
   -5.3771    7.5224   -1.6867 S   0  0  0  0  0  0  0  0  0  0  0  0
   -7.3810    7.2128    0.1151 O   0  0  0  0  0  0  0  0  0  0  0  0
   -7.4934    6.2177    2.0387 O   0  0  0  0  0  0  0  0  0  0  0  0
   -9.5002   10.4499   -4.8493 O   0  0  0  0  0  0  0  0  0  0  0  0
   -1.7306    1.4971    0.0114 N   0  0  0  0  0  0  0  0  0  0  0  0
   -4.6187    6.7167    1.1531 C   0  0  0  0  0  0  0  0  0  0  0  0
   -4.7822    6.6183    2.6816 C   0  0  0  0  0  0  0  0  0  0  0  0
   -3.4426    6.4831    2.0544 C   0  0  0  0  0  0  0  0  0  0  0  0
   -4.6535    7.9043    0.2279 C   0  0  0  0  0  0  0  0  0  0  0  0
   -5.4927    5.7208    0.6319 C   0  0  0  0  0  0  0  0  0  0  0  0
   -6.8706    6.3483    0.9603 C   0  0  0  0  0  0  0  0  0  0  0  0
   -6.7557    5.9389   -2.0094 C   0  0  2  0  0  0  0  0  0  0  0  0
   -8.0254    6.4945   -2.6245 C   0  0  0  0  0  0  0  0  0  0  0  0
   -7.1985    4.7099   -1.1465 C   0  0  0  0  0  0  0  0  0  0  0  0
   -8.9179    7.6398   -1.9260 C   0  0  0  0  0  0  0  0  0  0  0  0
   -6.3288    3.6369   -1.0954 C   0  0  0  0  0  0  0  0  0  0  0  0
   -8.3622    4.6227   -0.3107 C   0  0  0  0  0  0  0  0  0  0  0  0
   -8.3502    9.0619   -1.8817 C   0  0  0  0  0  0  0  0  0  0  0  0
   -8.1327    9.8101   -3.0427 C   0  0  0  0  0  0  0  0  0  0  0  0
   -6.4363    2.7094   -0.0574 C   0  0  0  0  0  0  0  0  0  0  0  0
   -8.4450    3.7020    0.7519 C   0  0  0  0  0  0  0  0  0  0  0  0
   -8.6103    9.4079   -4.4440 C   0  0  0  0  0  0  0  0  0  0  0  0
   -7.9297    9.6329   -0.6388 C   0  0  0  0  0  0  0  0  0  0  0  0
   -7.4823    2.7218    0.8681 C   0  0  0  0  0  0  0  0  0  0  0  0
   -7.4080   11.0358   -2.9050 C   0  0  0  0  0  0  0  0  0  0  0  0
   -7.1310   10.7720   -0.5464 C   0  0  0  0  0  0  0  0  0  0  0  0
   -5.3521    1.7750    0.0902 C   0  0  0  0  0  0  0  0  0  0  0  0
   -7.3938    9.3067   -5.3714 C   0  0  0  0  0  0  0  0  0  0  0  0
   -9.4506    8.1485   -4.6802 C   0  0  0  0  0  0  0  0  0  0  0  0
   -6.8621   11.4790   -1.6942 C   0  0  0  0  0  0  0  0  0  0  0  0
   -4.0489    2.1080    0.0728 C   0  0  0  0  0  0  0  0  0  0  0  0
   -3.0153    1.0766    0.0431 C   0  0  0  0  0  0  0  0  0  0  0  0
   -3.3726   -0.2649    0.0203 C   0  0  0  0  0  0  0  0  0  0  0  0
   -0.7677    0.5528   -0.0077 C   0  0  0  0  0  0  0  0  0  0  0  0
   -2.3955   -1.2282    0.0001 C   0  0  0  0  0  0  0  0  0  0  0  0
   -1.0713   -0.8309   -0.0064 C   0  0  0  0  0  0  0  0  0  0  0  0
    0.5717    0.9123   -0.0170 C   0  0  0  0  0  0  0  0  0  0  0  0
   -0.0728   -1.8039   -0.0037 C   0  0  0  0  0  0  0  0  0  0  0  0
    1.5744   -0.0607   -0.0067 C   0  0  0  0  0  0  0  0  0  0  0  0
    1.2579   -1.4161    0.0023 C   0  0  0  0  0  0  0  0  0  0  0  0
   -6.8347    7.5319   -0.6469 H   0  0  0  0  0  0  0  0  0  0  0  0
  -10.2046   10.4446   -4.1709 H   0  0  0  0  0  0  0  0  0  0  0  0
   -5.1781    7.4672    3.2143 H   0  0  0  0  0  0  0  0  0  0  0  0
   -5.2542    5.6901    3.0577 H   0  0  0  0  0  0  0  0  0  0  0  0
   -2.9872    5.5011    2.0208 H   0  0  0  0  0  0  0  0  0  0  0  0
   -2.7672    7.3109    2.1993 H   0  0  0  0  0  0  0  0  0  0  0  0
   -3.6274    8.1581   -0.0392 H   0  0  0  0  0  0  0  0  0  0  0  0
   -5.1098    8.7922    0.6916 H   0  0  0  0  0  0  0  0  0  0  0  0
   -5.1086    5.5785   -0.3821 H   0  0  0  0  0  0  0  0  0  0  0  0
   -5.3725    4.7339    1.0572 H   0  0  0  0  0  0  0  0  0  0  0  0
   -6.1098    5.4882   -2.7831 H   0  0  0  0  0  0  0  0  0  0  0  0
   -7.5855    6.7655   -3.5828 H   0  0  0  0  0  0  0  0  0  0  0  0
   -8.7068    5.6492   -2.8341 H   0  0  0  0  0  0  0  0  0  0  0  0
   -9.9093    7.6876   -2.3834 H   0  0  0  0  0  0  0  0  0  0  0  0
   -9.2708    7.3530   -0.9309 H   0  0  0  0  0  0  0  0  0  0  0  0
   -5.4365    3.6424   -1.7180 H   0  0  0  0  0  0  0  0  0  0  0  0
   -9.1152    5.4091   -0.2732 H   0  0  0  0  0  0  0  0  0  0  0  0
   -9.1531    3.8616    1.5705 H   0  0  0  0  0  0  0  0  0  0  0  0
   -8.1132    9.1357    0.3136 H   0  0  0  0  0  0  0  0  0  0  0  0
   -7.5126    2.0273    1.7054 H   0  0  0  0  0  0  0  0  0  0  0  0
   -7.2399   11.6638   -3.7787 H   0  0  0  0  0  0  0  0  0  0  0  0
   -6.7123   11.0744    0.4125 H   0  0  0  0  0  0  0  0  0  0  0  0
   -5.7288    0.7661    0.1376 H   0  0  0  0  0  0  0  0  0  0  0  0
   -6.6597    8.5880   -4.9824 H   0  0  0  0  0  0  0  0  0  0  0  0
   -7.6979    8.9702   -6.3666 H   0  0  0  0  0  0  0  0  0  0  0  0
   -6.8894   10.2666   -5.5088 H   0  0  0  0  0  0  0  0  0  0  0  0
   -8.9168    7.2534   -4.4618 H   0  0  0  0  0  0  0  0  0  0  0  0
  -10.3919    8.1568   -4.1286 H   0  0  0  0  0  0  0  0  0  0  0  0
   -9.7064    7.9620   -5.7214 H   0  0  0  0  0  0  0  0  0  0  0  0
   -6.2450   12.3729   -1.6494 H   0  0  0  0  0  0  0  0  0  0  0  0
   -3.6957    3.1380    0.0325 H   0  0  0  0  0  0  0  0  0  0  0  0
   -4.3989   -0.6004    0.0218 H   0  0  0  0  0  0  0  0  0  0  0  0
   -2.6987   -2.2691   -0.0007 H   0  0  0  0  0  0  0  0  0  0  0  0
    0.8346    1.9666   -0.0233 H   0  0  0  0  0  0  0  0  0  0  0  0
   -0.3297   -2.8606    0.0020 H   0  0  0  0  0  0  0  0  0  0  0  0
    2.0354   -2.1736    0.0160 H   0  0  0  0  0  0  0  0  0  0  0  0
  1 40  1  0  0  0  0
  2 10  1  0  0  0  0
  3 12  1  0  0  0  0
  3 42  1  0  0  0  0
  4 12  2  0  0  0  0
  5 23  1  0  0  0  0
  5 43  1  0  0  0  0
  6 33  2  0  0  0  0
  6 35  1  0  0  0  0
  7  8  1  0  0  0  0
  7  9  1  0  0  0  0
  7 10  1  0  0  0  0
  7 11  1  0  0  0  0
  8  9  1  0  0  0  0
  8 44  1  0  0  0  0
  8 45  1  0  0  0  0
  9 46  1  0  0  0  0
  9 47  1  0  0  0  0
 10 48  1  0  0  0  0
 10 49  1  0  0  0  0
 11 12  1  0  0  0  0
 11 50  1  0  0  0  0
 11 51  1  0  0  0  0
 13 15  1  0  0  0  0
 13 52  1  6  0  0  0
 13 14  1  0  0  0  0
 13  2  1  0  0  0  0
 14 16  1  0  0  0  0
 14 53  1  0  0  0  0
 14 54  1  0  0  0  0
 15 17  1  0  0  0  0
 15 18  2  0  0  0  0
 16 19  1  0  0  0  0
 16 55  1  0  0  0  0
 16 56  1  0  0  0  0
 17 21  2  0  0  0  0
 17 57  1  0  0  0  0
 18 22  1  0  0  0  0
 18 58  1  0  0  0  0
 19 20  1  0  0  0  0
 19 24  2  0  0  0  0
 20 23  1  0  0  0  0
 20 26  2  0  0  0  0
 21 25  1  0  0  0  0
 21 28  1  0  0  0  0
 22 25  2  0  0  0  0
 22 59  1  0  0  0  0
 23 29  1  0  0  0  0
 23 30  1  0  0  0  0
 24 27  1  0  0  0  0
 24 60  1  0  0  0  0
 25 61  1  0  0  0  0
 26 31  1  0  0  0  0
 26 62  1  0  0  0  0
 27 31  2  0  0  0  0
 27 63  1  0  0  0  0
 28 32  2  0  0  0  0
 28 64  1  0  0  0  0
 29 65  1  0  0  0  0
 29 66  1  0  0  0  0
 29 67  1  0  0  0  0
 30 68  1  0  0  0  0
 30 69  1  0  0  0  0
 30 70  1  0  0  0  0
 31 71  1  0  0  0  0
 32 33  1  0  0  0  0
 32 72  1  0  0  0  0
 33 34  1  0  0  0  0
 34 36  2  0  0  0  0
 34 73  1  0  0  0  0
 35 37  2  0  0  0  0
 35 38  1  0  0  0  0
 36 37  1  0  0  0  0
 36 74  1  0  0  0  0
 37 39  1  0  0  0  0
 38 40  2  0  0  0  0
 38 75  1  0  0  0  0
 39 41  2  0  0  0  0
 39 76  1  0  0  0  0
 40 41  1  0  0  0  0
 41 77  1  0  0  0  0
M  END
>  <DRUGBANK_ID>
DB00471

>  <SECONDARY_ACCESSION_NUMBERS>
APRD00434

>  <COMMON_NAME>
Montelukast

>  <CAS_NUMBER>
158966-92-8

>  <UNII>
MHM278SD3E

>  <SYNONYMS>
(R-(E))-1-(((1-(3-(2-(7-Chloro-2-quinolinyl)ethenyl)phenyl)-3-(2-(1-hydroxy-1-methylethyl)phenyl)propyl)thio)methyl)cyclopropaneacetic acid; 1-[[[(1 R)-1-[3-[(1E)-2-(7-chloro-2-quinolinyl)ethenyl] phenyl]-3-[2-(1-hydroxy-1-methylethyl)phenyl]propyl]sulfanyl]methyl]cyclopropaneacetic acid; Montelukast; Mont√©lukast; Montelukastum

$$$$
