824
 OpenBabel10282417113D

 24 25  0  0  0  0  0  0  0  0999 V2000
    1.1018    0.0337    0.0328 O   0  0  0  0  0  0  0  0  0  0  0  0
    4.9761   -2.3296    0.0189 O   0  0  0  0  0  0  0  0  0  0  0  0
    3.0572    1.2842   -0.0936 N   0  0  0  0  0  0  0  0  0  0  0  0
    3.0501   -1.0898   -0.0108 N   0  0  0  0  0  0  0  0  0  0  0  0
    6.4205    0.2985   -0.0750 N   0  0  0  0  0  0  0  0  0  0  0  0
    5.3359    2.2059   -0.3764 N   0  0  0  0  0  0  0  0  0  0  0  0
    2.3454    2.5648   -0.0176 C   0  0  0  0  0  0  0  0  0  0  0  0
    4.4382    1.1927   -0.2089 C   0  0  0  0  0  0  0  0  0  0  0  0
    2.6133    3.3806    1.2616 C   0  0  0  0  0  0  0  0  0  0  0  0
    5.0890   -0.0003   -0.1036 C   0  0  0  0  0  0  0  0  0  0  0  0
    2.3305    0.0932   -0.0204 C   0  0  0  0  0  0  0  0  0  0  0  0
    4.4157   -1.2375   -0.0208 C   0  0  0  0  0  0  0  0  0  0  0  0
    4.0612    3.8015    1.4184 C   0  0  0  0  0  0  0  0  0  0  0  0
    6.5185    1.6588   -0.1799 C   0  0  0  0  0  0  0  0  0  0  0  0
    2.5016   -1.9339    0.0230 H   0  0  0  0  0  0  0  0  0  0  0  0
    7.1847   -0.3571    0.0248 H   0  0  0  0  0  0  0  0  0  0  0  0
    2.5773    3.1446   -0.9172 H   0  0  0  0  0  0  0  0  0  0  0  0
    1.2627    2.3786   -0.0459 H   0  0  0  0  0  0  0  0  0  0  0  0
    1.9955    4.2866    1.2413 H   0  0  0  0  0  0  0  0  0  0  0  0
    2.3165    2.8035    2.1445 H   0  0  0  0  0  0  0  0  0  0  0  0
    4.4199    4.2769    0.4977 H   0  0  0  0  0  0  0  0  0  0  0  0
    4.2241    4.4910    2.2455 H   0  0  0  0  0  0  0  0  0  0  0  0
    4.6650    2.9268    1.6668 H   0  0  0  0  0  0  0  0  0  0  0  0
    7.4598    2.1903   -0.1008 H   0  0  0  0  0  0  0  0  0  0  0  0
  1 11  2  0  0  0  0
  2 12  2  0  0  0  0
  3  7  1  0  0  0  0
  3  8  1  0  0  0  0
  3 11  1  0  0  0  0
  4 11  1  0  0  0  0
  4 12  1  0  0  0  0
  4 15  1  0  0  0  0
  5 10  1  0  0  0  0
  5 14  1  0  0  0  0
  5 16  1  0  0  0  0
  6  8  1  0  0  0  0
  6 14  2  0  0  0  0
  7  9  1  0  0  0  0
  7 17  1  0  0  0  0
  7 18  1  0  0  0  0
  8 10  2  0  0  0  0
  9 13  1  0  0  0  0
  9 19  1  0  0  0  0
  9 20  1  0  0  0  0
 10 12  1  0  0  0  0
 13 21  1  0  0  0  0
 13 22  1  0  0  0  0
 13 23  1  0  0  0  0
 14 24  1  0  0  0  0
M  END
>  <DRUGBANK_ID>
DB00824

>  <SECONDARY_ACCESSION_NUMBERS>
APRD00273

>  <COMMON_NAME>
Enprofylline

>  <CAS_NUMBER>
41078-02-8

>  <UNII>
DT7DT5E518

>  <SYNONYMS>
3-n-propylxanthine; 3-Propyl-3,7-dihydro-purine-2,6-dione; 3-propylxanthine; 3,7-dihydro-3-propyl-1H-purine-2,6-dione; Enprofilina; Enprofylline; Enprofyllinum

$$$$
