
 OpenBabel10282417133D

 21 20  0  0  0  0  0  0  0  0999 V2000
    0.8361   -0.1564   -0.1924 S   0  0  0  0  0  0  0  0  0  0  0  0
    1.0816    2.6678    0.5115 C   0  0  0  0  0  0  0  0  0  0  0  0
    0.5963    1.6437   -0.5177 C   0  0  0  0  0  0  0  0  0  0  0  0
    2.8281    3.1007    0.5228 S   0  0  0  0  0  0  0  0  0  0  0  0
    3.3750    2.9183   -0.8100 O   0  0  0  0  0  0  0  0  0  0  0  0
    3.0303    4.3073    1.2740 O   0  0  0  0  0  0  0  0  0  0  0  0
    2.6236   -0.2918   -0.3129 C   0  0  0  0  0  0  0  0  0  0  0  0
    3.2479   -1.5688    0.1768 C   0  0  0  0  0  0  0  0  0  0  0  0
    4.1226   -2.1371   -0.4796 O   0  0  0  0  0  0  0  0  0  0  0  0
    2.9651   -1.9672    1.6108 C   0  0  0  0  0  0  0  0  0  0  0  0
    3.4814    1.9374    1.4287 O   0  0  0  0  0  0  0  0  0  0  0  0
    0.6173    3.6248    0.2229 H   0  0  0  0  0  0  0  0  0  0  0  0
    0.7342    2.4590    1.5259 H   0  0  0  0  0  0  0  0  0  0  0  0
    0.9263    1.8830   -1.5341 H   0  0  0  0  0  0  0  0  0  0  0  0
   -0.5005    1.7385   -0.5491 H   0  0  0  0  0  0  0  0  0  0  0  0
    3.0505    0.0669   -1.2541 H   0  0  0  0  0  0  0  0  0  0  0  0
    2.9727    0.3459    0.4561 H   0  0  0  0  0  0  0  0  0  0  0  0
    3.3813   -1.2248    2.3025 H   0  0  0  0  0  0  0  0  0  0  0  0
    1.8903   -2.0507    1.7766 H   0  0  0  0  0  0  0  0  0  0  0  0
    3.4275   -2.9342    1.8157 H   0  0  0  0  0  0  0  0  0  0  0  0
    4.3233    1.6504    0.9991 H   0  0  0  0  0  0  0  0  0  0  0  0
  1  3  1  0  0  0  0
  2 12  1  0  0  0  0
  2 13  1  0  0  0  0
  3  2  1  0  0  0  0
  3 14  1  0  0  0  0
  3 15  1  0  0  0  0
  4  2  1  0  0  0  0
  4 11  1  0  0  0  0
  5  4  2  0  0  0  0
  6  4  2  0  0  0  0
  7  1  1  0  0  0  0
  7 16  1  0  0  0  0
  7 17  1  0  0  0  0
  8  7  1  0  0  0  0
  8  9  2  0  0  0  0
  8 10  1  0  0  0  0
 10 18  1  0  0  0  0
 10 19  1  0  0  0  0
 10 20  1  0  0  0  0
 11 21  1  0  0  0  0
M  END
>  <DRUGBANK_ID>
DB03163

>  <SECONDARY_ACCESSION_NUMBERS>
EXPT01980

>  <COMMON_NAME>
2-oxopropyl-CoM

>  <SYNONYMS>
2-(2-Oxopropylthio)ethanesulfonate; 2-[(2-Oxopropyl)sulfanyl]ethanesulfonic acid; 2-ketopropyl-CoM

$$$$
