
 OpenBabel10282417223D

 26 27  0  0  0  0  0  0  0  0999 V2000
    0.8988    1.3015   -0.0634 C   0  0  0  0  0  0  0  0  0  0  0  0
   -0.6161    1.0370    0.0622 C   0  0  3  0  0  0  0  0  0  0  0  0
   -0.5496   -1.0745    0.0041 C   0  0  3  0  0  0  0  0  0  0  0  0
   -0.9938   -0.0563    1.1602 C   0  0  0  0  0  0  0  0  0  0  0  0
    0.9555   -1.1897   -0.1002 C   0  0  0  0  0  0  0  0  0  0  0  0
    1.6297   -0.0253   -0.1208 C   0  0  0  0  0  0  0  0  0  0  0  0
    1.5913   -2.5391   -0.0483 C   0  0  0  0  0  0  0  0  0  0  0  0
   -2.4652   -0.0841    1.6064 C   0  0  0  0  0  0  0  0  0  0  0  0
   -0.1592   -0.0526    2.4512 C   0  0  0  0  0  0  0  0  0  0  0  0
   -1.0967   -0.0020   -1.0015 C   0  0  0  0  0  0  0  0  0  0  0  0
    1.2428    1.8798    0.8009 H   0  0  0  0  0  0  0  0  0  0  0  0
    1.1193    1.8792   -0.9663 H   0  0  0  0  0  0  0  0  0  0  0  0
   -1.1969    1.9649    0.0866 H   0  0  0  0  0  0  0  0  0  0  0  0
   -1.0674   -2.0376   -0.0279 H   0  0  0  0  0  0  0  0  0  0  0  0
    2.7167   -0.0049   -0.0941 H   0  0  0  0  0  0  0  0  0  0  0  0
    1.2675   -3.0794    0.8469 H   0  0  0  0  0  0  0  0  0  0  0  0
    1.3187   -3.1251   -0.9302 H   0  0  0  0  0  0  0  0  0  0  0  0
    2.6834   -2.4642   -0.0139 H   0  0  0  0  0  0  0  0  0  0  0  0
   -2.6605   -0.9836    2.2034 H   0  0  0  0  0  0  0  0  0  0  0  0
   -2.6765    0.7802    2.2487 H   0  0  0  0  0  0  0  0  0  0  0  0
   -3.1847   -0.0700    0.7857 H   0  0  0  0  0  0  0  0  0  0  0  0
    0.9110   -0.1983    2.2994 H   0  0  0  0  0  0  0  0  0  0  0  0
   -0.2811    0.9024    2.9718 H   0  0  0  0  0  0  0  0  0  0  0  0
   -0.4838   -0.8574    3.1188 H   0  0  0  0  0  0  0  0  0  0  0  0
   -0.6190    0.0457   -1.9877 H   0  0  0  0  0  0  0  0  0  0  0  0
   -2.1788   -0.0307   -1.1742 H   0  0  0  0  0  0  0  0  0  0  0  0
  1  2  1  0  0  0  0
  1  6  1  0  0  0  0
  1 11  1  0  0  0  0
  1 12  1  0  0  0  0
  2  4  1  0  0  0  0
  2 10  1  0  0  0  0
  2 13  1  0  0  0  0
  3 10  1  0  0  0  0
  3 14  1  0  0  0  0
  4  3  1  0  0  0  0
  4  8  1  0  0  0  0
  4  9  1  0  0  0  0
  5  3  1  0  0  0  0
  6  5  2  0  0  0  0
  6 15  1  0  0  0  0
  7  5  1  0  0  0  0
  7 16  1  0  0  0  0
  7 17  1  0  0  0  0
  7 18  1  0  0  0  0
  8 19  1  0  0  0  0
  8 20  1  0  0  0  0
  8 21  1  0  0  0  0
  9 22  1  0  0  0  0
  9 23  1  0  0  0  0
  9 24  1  0  0  0  0
 10 25  1  0  0  0  0
 10 26  1  0  0  0  0
M  END
>  <DRUGBANK_ID>
DB15573

>  <COMMON_NAME>
alpha-Pinene

>  <CAS_NUMBER>
80-56-8

>  <UNII>
JPF3YI7O34

>  <SYNONYMS>
(±)-2-pinene; (±)-α-pinene; 2-pinene; Acintene A; alpha-Pinene; pin-2(3)-ene; α-pinene

$$$$
