
 OpenBabel10282417133D

 48 49  0  0  0  0  0  0  0  0999 V2000
    3.0017    3.2443    1.5744 O   0  0  0  0  0  0  0  0  0  0  0  0
    3.0017    5.5451    2.4148 O   0  0  0  0  0  0  0  0  0  0  0  0
    3.0017    5.1225    0.0020 O   0  0  0  0  0  0  0  0  0  0  0  0
   -0.8571    1.8245   -0.3120 O   0  0  0  0  0  0  0  0  0  0  0  0
   -0.3147    4.5040    1.0421 O   0  0  0  0  0  0  0  0  0  0  0  0
    0.8087    4.2473   -0.9848 O   0  0  0  0  0  0  0  0  0  0  0  0
    0.4117    3.7477    0.2677 N   0  0  0  0  0  0  0  0  0  0  0  0
    0.5184    1.3851   -0.4118 N   0  0  0  0  0  0  0  0  0  0  0  0
    0.9017    4.6373    1.3304 C   0  0  1  0  0  0  0  0  0  0  0  0
    0.3950    4.1457    2.6765 C   0  0  0  0  0  0  0  0  0  0  0  0
    0.9017    5.0656    3.7754 C   0  0  0  0  0  0  0  0  0  0  0  0
    0.0502    5.9859    4.4335 C   0  0  0  0  0  0  0  0  0  0  0  0
    2.2151    4.9192    4.1450 C   0  0  0  0  0  0  0  0  0  0  0  0
    0.5835    6.7484    5.5233 C   0  0  0  0  0  0  0  0  0  0  0  0
    2.5284    2.3849    0.5479 C   0  0  0  0  0  0  0  0  0  0  0  0
   -1.3090    6.2136    4.0667 C   0  0  0  0  0  0  0  0  0  0  0  0
    2.7384    5.6595    5.2288 C   0  0  0  0  0  0  0  0  0  0  0  0
    1.9277    6.5207    5.9145 C   0  0  0  0  0  0  0  0  0  0  0  0
   -0.4334    2.5937    0.6068 C   0  0  0  0  0  0  0  0  0  0  0  0
    1.0084    2.3849    0.5479 C   0  0  1  0  0  0  0  0  0  0  0  0
   -0.2325    7.6896    6.1613 C   0  0  0  0  0  0  0  0  0  0  0  0
   -2.0605    7.1383    4.7172 C   0  0  0  0  0  0  0  0  0  0  0  0
   -1.5509    7.8905    5.7878 C   0  0  0  0  0  0  0  0  0  0  0  0
   -0.8006    2.3203    2.0562 C   0  0  0  0  0  0  0  0  0  0  0  0
    0.5017    3.7613    0.1487 C   0  0  0  0  0  0  0  0  0  0  0  0
    2.5017    4.6373    1.3304 B   0  5  0  0  0  0  0  0  0  0  0  0
    2.6684    5.2217    3.3004 H   0  0  0  0  0  0  0  0  0  0  0  0
    4.0017    5.1225    0.0020 H   0  0  0  0  0  0  0  0  0  0  0  0
   -0.5563    4.1216    1.9340 H   0  0  0  0  0  0  0  0  0  0  0  0
    0.6581    3.9311   -0.7049 H   0  0  0  0  0  0  0  0  0  0  0  0
    0.1481    1.8824   -1.2217 H   0  0  0  0  0  0  0  0  0  0  0  0
   -0.2411    0.8995    0.0654 H   0  0  0  0  0  0  0  0  0  0  0  0
    0.5450    5.6310    1.1564 H   0  0  0  0  0  0  0  0  0  0  0  0
   -0.6750    4.1456    2.6765 H   0  0  0  0  0  0  0  0  0  0  0  0
    0.7517    3.1520    2.8506 H   0  0  0  0  0  0  0  0  0  0  0  0
    2.8463    4.2409    3.6097 H   0  0  0  0  0  0  0  0  0  0  0  0
    2.8850    2.7311   -0.3997 H   0  0  0  0  0  0  0  0  0  0  0  0
    2.8850    1.3913    0.7219 H   0  0  0  0  0  0  0  0  0  0  0  0
   -1.7423    5.6481    3.2683 H   0  0  0  0  0  0  0  0  0  0  0  0
    3.7642    5.5467    5.5115 H   0  0  0  0  0  0  0  0  0  0  0  0
    2.3170    7.0358    6.7677 H   0  0  0  0  0  0  0  0  0  0  0  0
    0.6517    2.1439    1.5274 H   0  0  0  0  0  0  0  0  0  0  0  0
    0.1745    8.2714    6.9617 H   0  0  0  0  0  0  0  0  0  0  0  0
   -3.0712    7.2987    4.4048 H   0  0  0  0  0  0  0  0  0  0  0  0
   -2.1651    8.6003    6.3015 H   0  0  0  0  0  0  0  0  0  0  0  0
    0.0910    2.1642    2.6267 H   0  0  0  0  0  0  0  0  0  0  0  0
   -1.3356    3.1579    2.4527 H   0  0  0  0  0  0  0  0  0  0  0  0
   -1.4158    1.4465    2.1096 H   0  0  0  0  0  0  0  0  0  0  0  0
  1 15  1  0  0  0  0
  1 26  1  0  0  0  0
  2 26  1  0  0  0  0
  2 27  1  0  0  0  0
  3 26  1  0  0  0  0
  3 28  1  0  0  0  0
  4 19  2  0  0  0  0
  5 25  1  0  0  0  0
  5 29  1  0  0  0  0
  6 25  2  0  0  0  0
  7 19  1  0  0  0  0
  7 30  1  0  0  0  0
  8 31  1  0  0  0  0
  8 32  1  0  0  0  0
  9  7  1  0  0  0  0
  9 10  1  0  0  0  0
  9 26  1  0  0  0  0
  9 33  1  6  0  0  0
 10 11  1  0  0  0  0
 10 34  1  0  0  0  0
 10 35  1  0  0  0  0
 11 12  1  0  0  0  0
 11 13  2  0  0  0  0
 12 14  1  0  0  0  0
 12 16  2  0  0  0  0
 13 17  1  0  0  0  0
 13 36  1  0  0  0  0
 14 18  1  0  0  0  0
 14 21  2  0  0  0  0
 15 37  1  0  0  0  0
 15 38  1  0  0  0  0
 16 22  1  0  0  0  0
 16 39  1  0  0  0  0
 17 18  2  0  0  0  0
 17 40  1  0  0  0  0
 18 41  1  0  0  0  0
 19 24  1  0  0  0  0
 20 25  1  0  0  0  0
 20 42  1  1  0  0  0
 20 15  1  0  0  0  0
 20  8  1  0  0  0  0
 21 23  1  0  0  0  0
 21 43  1  0  0  0  0
 22 23  2  0  0  0  0
 22 44  1  0  0  0  0
 23 45  1  0  0  0  0
 24 46  1  0  0  0  0
 24 47  1  0  0  0  0
 24 48  1  0  0  0  0
M  CHG  1  26  -1
M  END
>  <DRUGBANK_ID>
DB03290

>  <SECONDARY_ACCESSION_NUMBERS>
EXPT02856

>  <COMMON_NAME>
L-naphthyl-1-acetamido boronic acid alanine

$$$$
