
 OpenBabel10282417193D

 38 41  0  0  1  0  0  0  0  0999 V2000
    4.4350    7.3865   -0.0378 C   0  0  0  0  0  0  0  0  0  0  0  0
    4.0187    8.2865    0.9099 C   0  0  0  0  0  0  0  0  0  0  0  0
    3.4965    7.5519    2.3900 S   0  0  0  0  0  0  0  0  0  0  0  0
    4.0433    6.0421    1.8860 C   0  0  0  0  0  0  0  0  0  0  0  0
    4.6328    6.2005    0.6625 C   0  0  0  0  0  0  0  0  0  0  0  0
    5.4670    5.2610    0.2754 N   0  0  0  0  0  0  0  0  0  0  0  0
    5.5774    4.1465    1.1273 C   0  0  0  0  0  0  0  0  0  0  0  0
    4.8480    3.6211    2.1765 C   0  0  0  0  0  0  0  0  0  0  0  0
    4.0269    4.7971    2.7198 C   0  0  0  0  0  0  0  0  0  0  0  0
    3.3832    4.6513    3.7011 O   0  0  0  0  0  0  0  0  0  0  0  0
    4.1656    1.9890    2.4991 C   0  0  0  0  0  0  0  0  0  0  0  0
    3.7082    1.7618    3.6242 O   0  0  0  0  0  0  0  0  0  0  0  0
    4.0078    0.8045    1.5199 N   0  0  0  0  0  0  0  0  0  0  0  0
    4.6641    0.5537    0.1137 C   0  0  1  0  0  0  0  0  0  0  0  0
    4.2161    0.8561   -1.4373 C   0  0  0  0  0  0  0  0  0  0  0  0
    4.5756    2.2271   -2.0421 N   0  0  3  0  0  0  0  0  0  0  0  0
    6.0498    2.5148   -1.8596 C   0  0  0  0  0  0  0  0  0  0  0  0
    6.6165    2.0238   -0.5508 C   0  0  0  0  0  0  0  0  0  0  0  0
    5.3785    1.7808    0.2993 C   0  0  3  0  0  0  0  0  0  0  0  0
    3.7971    2.7657    0.0380 C   0  0  0  0  0  0  0  0  0  0  0  0
    3.6374    3.1241   -1.3855 C   0  0  0  0  0  0  0  0  0  0  0  0
    4.8040    7.6241   -1.0351 H   0  0  0  0  0  0  0  0  0  0  0  0
    4.0217    9.3560    0.8295 H   0  0  0  0  0  0  0  0  0  0  0  0
    5.5045    5.0698   -0.7442 H   0  0  0  0  0  0  0  0  0  0  0  0
    5.8886    3.6217    0.3051 H   0  0  0  0  0  0  0  0  0  0  0  0
    3.8034   -0.0580    2.0176 H   0  0  0  0  0  0  0  0  0  0  0  0
    5.1755   -0.4098    0.1377 H   0  0  0  0  0  0  0  0  0  0  0  0
    4.7779    0.1957   -2.0992 H   0  0  0  0  0  0  0  0  0  0  0  0
    3.1476    0.6885   -1.5938 H   0  0  0  0  0  0  0  0  0  0  0  0
    6.6200    1.9856   -2.6202 H   0  0  0  0  0  0  0  0  0  0  0  0
    6.3189    3.5769   -1.9966 H   0  0  0  0  0  0  0  0  0  0  0  0
    7.3113    1.1782   -0.5499 H   0  0  0  0  0  0  0  0  0  0  0  0
    7.2949    2.7761   -0.0748 H   0  0  0  0  0  0  0  0  0  0  0  0
    5.8655    1.7047    1.2958 H   0  0  0  0  0  0  0  0  0  0  0  0
    2.8875    2.2646    0.4460 H   0  0  0  0  0  0  0  0  0  0  0  0
    3.5770    3.7165    0.5108 H   0  0  0  0  0  0  0  0  0  0  0  0
    3.7459    4.2041   -1.5480 H   0  0  0  0  0  0  0  0  0  0  0  0
    2.5767    2.9324   -1.6177 H   0  0  0  0  0  0  0  0  0  0  0  0
  1  2  2  0  0  0  0
  1  5  1  0  0  0  0
  1 22  1  0  0  0  0
  2  3  1  0  0  0  0
  2 23  1  0  0  0  0
  3  4  1  0  0  0  0
  4  5  2  0  0  0  0
  4  9  1  0  0  0  0
  5  6  1  0  0  0  0
  6  7  1  0  0  0  0
  6 24  1  0  0  0  0
  7  8  2  0  0  0  0
  7 25  1  0  0  0  0
  8  9  1  0  0  0  0
  8 11  1  0  0  0  0
  9 10  2  0  0  0  0
 11 12  2  0  0  0  0
 11 13  1  0  0  0  0
 13 26  1  0  0  0  0
 14 15  1  0  0  0  0
 14 19  1  0  0  0  0
 14 27  1  1  0  0  0
 14 13  1  0  0  0  0
 15 16  1  0  0  0  0
 15 28  1  0  0  0  0
 15 29  1  0  0  0  0
 16 17  1  0  0  0  0
 16 21  1  0  0  0  0
 17 18  1  0  0  0  0
 17 30  1  0  0  0  0
 17 31  1  0  0  0  0
 18 19  1  0  0  0  0
 18 32  1  0  0  0  0
 18 33  1  0  0  0  0
 19 20  1  0  0  0  0
 19 34  1  0  0  0  0
 20 21  1  0  0  0  0
 20 35  1  0  0  0  0
 20 36  1  0  0  0  0
 21 37  1  0  0  0  0
 21 38  1  0  0  0  0
M  END
>  <DRUGBANK_ID>
DB12402

>  <COMMON_NAME>
Pumosetrag

>  <CAS_NUMBER>
153062-94-3

>  <UNII>
1G26B32139

>  <SYNONYMS>
Pumosetrag

$$$$
