
 OpenBabel10282417133D

 41 40  0  0  1  0  0  0  0  0999 V2000
    1.0454    2.4240   -0.9476 C   0  0  0  0  0  0  0  0  0  0  0  0
    0.5647    1.4551    0.1243 C   0  0  2  0  0  0  0  0  0  0  0  0
    1.2032    0.1501   -0.0678 N   0  0  0  0  0  0  0  0  0  0  0  0
   -0.9882    1.3823    0.1275 C   0  0  1  0  0  0  0  0  0  0  0  0
   -1.4986    0.5070    1.2865 C   0  0  0  0  0  0  0  0  0  0  0  0
   -1.0118    0.9641    2.6763 C   0  0  0  0  0  0  0  0  0  0  0  0
   -1.5116    2.3521    3.0937 C   0  0  0  0  0  0  0  0  0  0  0  0
   -3.0434    2.4356    3.0877 C   0  0  0  0  0  0  0  0  0  0  0  0
   -3.6301    1.5020    4.1445 C   0  0  0  0  0  0  0  0  0  0  0  0
   -3.1153    1.8508    5.5295 C   0  0  0  0  0  0  0  0  0  0  0  0
   -4.0696    2.2277    6.3985 O   0  0  0  0  0  0  0  0  0  0  0  0
   -1.9429    1.7989    5.8694 O   0  0  0  0  0  0  0  0  0  0  0  0
   -1.5370    2.7147    0.2261 N   0  0  0  0  0  0  0  0  0  0  0  0
   -2.3523    3.4396   -0.5444 C   0  0  0  0  0  0  0  0  0  0  0  0
   -2.5691    4.5736   -0.1515 O   0  0  0  0  0  0  0  0  0  0  0  0
   -2.7020    2.8817   -1.7112 O   0  0  0  0  0  0  0  0  0  0  0  0
   -3.6966    3.6921   -2.8717 P   0  0  0  0  0  0  0  0  0  0  0  0
   -4.8929    2.7296   -2.2964 O   0  0  0  0  0  0  0  0  0  0  0  0
   -3.9562    4.9534   -1.8696 O   0  0  0  0  0  0  0  0  0  0  0  0
   -4.5868    4.4174   -3.9104 O   0  0  0  0  0  0  0  0  0  0  0  0
    0.7580    2.0760   -1.9427 H   0  0  0  0  0  0  0  0  0  0  0  0
    2.1301    2.5473   -0.8990 H   0  0  0  0  0  0  0  0  0  0  0  0
    0.6119    3.4192   -0.7956 H   0  0  0  0  0  0  0  0  0  0  0  0
    0.9220    1.8637    1.0770 H   0  0  0  0  0  0  0  0  0  0  0  0
    0.7588   -0.3538   -0.8343 H   0  0  0  0  0  0  0  0  0  0  0  0
    1.0745   -0.4300    0.7629 H   0  0  0  0  0  0  0  0  0  0  0  0
   -1.3482    0.9572   -0.8152 H   0  0  0  0  0  0  0  0  0  0  0  0
   -2.5941    0.4572    1.2594 H   0  0  0  0  0  0  0  0  0  0  0  0
   -1.1704   -0.5260    1.1261 H   0  0  0  0  0  0  0  0  0  0  0  0
   -1.3230    0.2190    3.4160 H   0  0  0  0  0  0  0  0  0  0  0  0
    0.0802    0.9500    2.7325 H   0  0  0  0  0  0  0  0  0  0  0  0
   -1.0990    2.6205    4.0636 H   0  0  0  0  0  0  0  0  0  0  0  0
   -1.0585    3.1490    2.5173 H   0  0  0  0  0  0  0  0  0  0  0  0
   -3.3666    3.4685    3.2554 H   0  0  0  0  0  0  0  0  0  0  0  0
   -3.4566    2.1683    2.1052 H   0  0  0  0  0  0  0  0  0  0  0  0
   -4.7225    1.5343    4.1028 H   0  0  0  0  0  0  0  0  0  0  0  0
   -3.3657    0.4579    3.9405 H   0  0  0  0  0  0  0  0  0  0  0  0
   -4.9764    2.1815    6.0509 H   0  0  0  0  0  0  0  0  0  0  0  0
   -1.1505    3.3698    0.8845 H   0  0  0  0  0  0  0  0  0  0  0  0
   -5.1165    2.0480   -2.9495 H   0  0  0  0  0  0  0  0  0  0  0  0
   -3.1708    5.3202   -1.4090 H   0  0  0  0  0  0  0  0  0  0  0  0
  1 21  1  0  0  0  0
  1 22  1  0  0  0  0
  1 23  1  0  0  0  0
  2  4  1  0  0  0  0
  2 24  1  1  0  0  0
  2  3  1  0  0  0  0
  2  1  1  0  0  0  0
  3 25  1  0  0  0  0
  3 26  1  0  0  0  0
  4  5  1  0  0  0  0
  4 13  1  0  0  0  0
  4 27  1  6  0  0  0
  5  6  1  0  0  0  0
  5 28  1  0  0  0  0
  5 29  1  0  0  0  0
  6  7  1  0  0  0  0
  6 30  1  0  0  0  0
  6 31  1  0  0  0  0
  7  8  1  0  0  0  0
  7 32  1  0  0  0  0
  7 33  1  0  0  0  0
  8  9  1  0  0  0  0
  8 34  1  0  0  0  0
  8 35  1  0  0  0  0
  9 10  1  0  0  0  0
  9 36  1  0  0  0  0
  9 37  1  0  0  0  0
 10 11  1  0  0  0  0
 10 12  2  0  0  0  0
 11 38  1  0  0  0  0
 13 14  1  0  0  0  0
 13 39  1  0  0  0  0
 14 15  2  0  0  0  0
 14 16  1  0  0  0  0
 16 17  1  0  0  0  0
 17 18  1  0  0  0  0
 17 19  1  0  0  0  0
 17 20  2  0  0  0  0
 18 40  1  0  0  0  0
 19 41  1  0  0  0  0
M  END
>  <DRUGBANK_ID>
DB02927

>  <SECONDARY_ACCESSION_NUMBERS>
EXPT01262

>  <COMMON_NAME>
Mixed Carbamic Phosphoric Acid Anhydride of 7,8-Diaminononanic Acid

$$$$
