HSG
 OpenBabel10282417163D

 48 48  0  0  0  0  0  0  0  0999 V2000
   -2.1311   10.3650    0.7596 C   0  0  0  0  0  0  0  0  0  0  0  0
   -2.0351    9.8836   -0.6795 C   0  0  0  0  0  0  0  0  0  0  0  0
   -1.0307    8.7376   -0.8028 C   0  0  0  0  0  0  0  0  0  0  0  0
   -1.4294    7.5436    0.0701 C   0  0  0  0  0  0  0  0  0  0  0  0
   -2.8163    7.0109   -0.3170 C   0  0  0  0  0  0  0  0  0  0  0  0
   -2.8207    6.4891   -1.7560 C   0  0  0  0  0  0  0  0  0  0  0  0
   -1.7540    5.4069   -1.9120 C   0  0  0  0  0  0  0  0  0  0  0  0
   -2.1222    4.2225   -1.0078 C   0  0  0  0  0  0  0  0  0  0  0  0
   -3.3582    3.6193   -1.4101 O   0  0  0  0  0  0  0  0  0  0  0  0
   -3.2943    3.0984   -2.7349 C   0  0  2  0  0  0  0  0  0  0  0  0
   -4.5990    2.9096   -3.2796 O   0  0  0  0  0  0  0  0  0  0  0  0
   -4.5442    2.5538   -4.6874 C   0  0  1  0  0  0  0  0  0  0  0  0
   -3.9472    3.6861   -5.5729 C   0  0  0  0  0  0  0  0  0  0  0  0
   -2.5544    3.5538   -5.8418 O   0  0  0  0  0  0  0  0  0  0  0  0
   -3.8596    1.1760   -4.7722 C   0  0  2  0  0  0  0  0  0  0  0  0
   -4.6369    0.2325   -4.0004 O   0  0  0  0  0  0  0  0  0  0  0  0
   -2.4501    1.2000   -4.1746 C   0  0  2  0  0  0  0  0  0  0  0  0
   -1.8704   -0.1064   -4.1340 O   0  0  0  0  0  0  0  0  0  0  0  0
   -2.4394    1.8168   -2.7796 C   0  0  1  0  0  0  0  0  0  0  0  0
   -1.0624    2.0390   -2.4319 O   0  0  0  0  0  0  0  0  0  0  0  0
   -2.8655    3.8645   -3.3569 H   0  0  0  0  0  0  0  0  0  0  0  0
   -5.5975    2.4516   -4.9754 H   0  0  0  0  0  0  0  0  0  0  0  0
   -3.8308    0.8040   -5.7998 H   0  0  0  0  0  0  0  0  0  0  0  0
   -1.7641    1.7635   -4.8094 H   0  0  0  0  0  0  0  0  0  0  0  0
   -2.8311    1.1156   -2.0339 H   0  0  0  0  0  0  0  0  0  0  0  0
   -2.4674    9.5735    1.4375 H   0  0  0  0  0  0  0  0  0  0  0  0
   -2.8497   11.1809    0.8465 H   0  0  0  0  0  0  0  0  0  0  0  0
   -1.1514   10.7090    1.1040 H   0  0  0  0  0  0  0  0  0  0  0  0
   -3.0264    9.5758   -1.0325 H   0  0  0  0  0  0  0  0  0  0  0  0
   -1.7330   10.7065   -1.3332 H   0  0  0  0  0  0  0  0  0  0  0  0
   -0.9475    8.4388   -1.8555 H   0  0  0  0  0  0  0  0  0  0  0  0
   -0.0302    9.0790   -0.5177 H   0  0  0  0  0  0  0  0  0  0  0  0
   -0.6585    6.7693   -0.0032 H   0  0  0  0  0  0  0  0  0  0  0  0
   -1.4195    7.8017    1.1316 H   0  0  0  0  0  0  0  0  0  0  0  0
   -3.1138    6.2304    0.3890 H   0  0  0  0  0  0  0  0  0  0  0  0
   -3.5954    7.7675   -0.1983 H   0  0  0  0  0  0  0  0  0  0  0  0
   -3.8141    6.0978   -2.0074 H   0  0  0  0  0  0  0  0  0  0  0  0
   -2.6407    7.2959   -2.4748 H   0  0  0  0  0  0  0  0  0  0  0  0
   -1.6620    5.1575   -2.9716 H   0  0  0  0  0  0  0  0  0  0  0  0
   -0.7480    5.7608   -1.6778 H   0  0  0  0  0  0  0  0  0  0  0  0
   -1.3105    3.5046   -0.9448 H   0  0  0  0  0  0  0  0  0  0  0  0
   -2.2344    4.5216    0.0358 H   0  0  0  0  0  0  0  0  0  0  0  0
   -4.4321    3.6746   -6.5523 H   0  0  0  0  0  0  0  0  0  0  0  0
   -4.1146    4.6749   -5.1292 H   0  0  0  0  0  0  0  0  0  0  0  0
   -2.0329    3.9700   -5.1376 H   0  0  0  0  0  0  0  0  0  0  0  0
   -4.9110    0.6835   -3.1772 H   0  0  0  0  0  0  0  0  0  0  0  0
   -2.3900   -0.6240   -3.4809 H   0  0  0  0  0  0  0  0  0  0  0  0
   -0.6944    2.7189   -3.0216 H   0  0  0  0  0  0  0  0  0  0  0  0
  1  2  1  0  0  0  0
  1 26  1  0  0  0  0
  1 27  1  0  0  0  0
  1 28  1  0  0  0  0
  2  3  1  0  0  0  0
  2 29  1  0  0  0  0
  2 30  1  0  0  0  0
  3  4  1  0  0  0  0
  3 31  1  0  0  0  0
  3 32  1  0  0  0  0
  4  5  1  0  0  0  0
  4 33  1  0  0  0  0
  4 34  1  0  0  0  0
  5  6  1  0  0  0  0
  5 35  1  0  0  0  0
  5 36  1  0  0  0  0
  6  7  1  0  0  0  0
  6 37  1  0  0  0  0
  6 38  1  0  0  0  0
  7  8  1  0  0  0  0
  7 39  1  0  0  0  0
  7 40  1  0  0  0  0
  8  9  1  0  0  0  0
  8 41  1  0  0  0  0
  8 42  1  0  0  0  0
 10 11  1  0  0  0  0
 10 19  1  0  0  0  0
 10 21  1  6  0  0  0
 10  9  1  0  0  0  0
 11 12  1  0  0  0  0
 12 15  1  0  0  0  0
 12 22  1  6  0  0  0
 12 13  1  0  0  0  0
 13 14  1  0  0  0  0
 13 43  1  0  0  0  0
 13 44  1  0  0  0  0
 14 45  1  0  0  0  0
 15 16  1  0  0  0  0
 15 17  1  0  0  0  0
 15 23  1  6  0  0  0
 16 46  1  0  0  0  0
 17 18  1  0  0  0  0
 17 19  1  0  0  0  0
 17 24  1  6  0  0  0
 18 47  1  0  0  0  0
 19 20  1  0  0  0  0
 19 25  1  1  0  0  0
 20 48  1  0  0  0  0
M  END
>  <DRUGBANK_ID>
DB07923

>  <COMMON_NAME>
octyl alpha-L-altropyranoside

$$$$
