325
 OpenBabel10282417163D

 47 50  0  0  0  0  0  0  0  0999 V2000
    0.9868   -0.0697   -0.0182 O   0  0  0  0  0  0  0  0  0  0  0  0
    2.2120   -0.0328    0.0303 C   0  0  0  0  0  0  0  0  0  0  0  0
    2.9206    1.0959   -0.6328 C   0  0  0  0  0  0  0  0  0  0  0  0
    2.5059    2.4360   -0.4775 C   0  0  0  0  0  0  0  0  0  0  0  0
    1.5040    2.7258    0.3707 F   0  0  0  0  0  0  0  0  0  0  0  0
    3.1359    3.4999   -1.1769 C   0  0  0  0  0  0  0  0  0  0  0  0
    2.6034    4.8490   -1.0994 N   0  0  0  0  0  0  0  0  0  0  0  0
    3.3861    6.2383   -1.6989 S   0  0  0  0  0  0  0  0  0  0  0  0
    2.0827    7.0217   -2.6335 C   0  0  0  0  0  0  0  0  0  0  0  0
    0.9722    7.5526   -1.7611 C   0  0  0  0  0  0  0  0  0  0  0  0
    3.7108    7.0759   -0.5704 O   0  0  0  0  0  0  0  0  0  0  0  0
    4.3993    5.9165   -2.6845 O   0  0  0  0  0  0  0  0  0  0  0  0
    4.1635    3.1572   -2.0517 C   0  0  0  0  0  0  0  0  0  0  0  0
    4.5757    1.8394   -2.2244 C   0  0  0  0  0  0  0  0  0  0  0  0
    3.9580    0.8186   -1.5205 C   0  0  0  0  0  0  0  0  0  0  0  0
    4.3714   -0.4338   -1.7529 F   0  0  0  0  0  0  0  0  0  0  0  0
    2.9969   -1.0829    0.6932 C   0  0  0  0  0  0  0  0  0  0  0  0
    2.7797   -2.5113    0.7194 C   0  0  0  0  0  0  0  0  0  0  0  0
    1.8591   -3.4257    0.1613 C   0  0  0  0  0  0  0  0  0  0  0  0
    3.8020   -3.0648    1.4869 C   0  0  0  0  0  0  0  0  0  0  0  0
    4.5963   -2.0497    1.9320 N   0  0  0  0  0  0  0  0  0  0  0  0
    4.1302   -0.8506    1.4611 C   0  0  0  0  0  0  0  0  0  0  0  0
    4.0269   -4.3606    1.7675 N   0  0  0  0  0  0  0  0  0  0  0  0
    3.1247   -5.1870    1.1903 C   0  0  0  0  0  0  0  0  0  0  0  0
    2.0431   -4.8044    0.3911 C   0  0  0  0  0  0  0  0  0  0  0  0
    1.1468   -5.8153   -0.1737 C   0  0  0  0  0  0  0  0  0  0  0  0
    0.9871   -5.9839   -1.5492 C   0  0  0  0  0  0  0  0  0  0  0  0
    0.1872   -6.9168   -2.1224 N   0  0  0  0  0  0  0  0  0  0  0  0
   -0.4925   -7.7287   -1.2855 C   0  0  0  0  0  0  0  0  0  0  0  0
   -0.4041   -7.6571    0.0936 C   0  0  0  0  0  0  0  0  0  0  0  0
    0.4266   -6.6887    0.6510 C   0  0  0  0  0  0  0  0  0  0  0  0
    2.0370    5.0396   -0.2649 H   0  0  0  0  0  0  0  0  0  0  0  0
    2.5521    7.8476   -3.1816 H   0  0  0  0  0  0  0  0  0  0  0  0
    1.7151    6.3038   -3.3735 H   0  0  0  0  0  0  0  0  0  0  0  0
    1.3609    8.2670   -1.0289 H   0  0  0  0  0  0  0  0  0  0  0  0
    0.2236    8.0665   -2.3711 H   0  0  0  0  0  0  0  0  0  0  0  0
    0.4803    6.7416   -1.2184 H   0  0  0  0  0  0  0  0  0  0  0  0
    4.6990    3.8791   -2.6475 H   0  0  0  0  0  0  0  0  0  0  0  0
    5.3694    1.6264   -2.9351 H   0  0  0  0  0  0  0  0  0  0  0  0
    1.0255   -3.0672   -0.4362 H   0  0  0  0  0  0  0  0  0  0  0  0
    5.4101   -2.1977    2.5112 H   0  0  0  0  0  0  0  0  0  0  0  0
    4.6370    0.0673    1.7236 H   0  0  0  0  0  0  0  0  0  0  0  0
    3.3082   -6.2431    1.3920 H   0  0  0  0  0  0  0  0  0  0  0  0
    1.5287   -5.3624   -2.2589 H   0  0  0  0  0  0  0  0  0  0  0  0
   -1.1323   -8.4628   -1.7667 H   0  0  0  0  0  0  0  0  0  0  0  0
   -0.9695   -8.3352    0.7226 H   0  0  0  0  0  0  0  0  0  0  0  0
    0.5036   -6.6117    1.7333 H   0  0  0  0  0  0  0  0  0  0  0  0
  1  2  2  0  0  0  0
  2  3  1  0  0  0  0
  2 17  1  0  0  0  0
  3  4  2  0  0  0  0
  3 15  1  0  0  0  0
  4  5  1  0  0  0  0
  4  6  1  0  0  0  0
  6  7  1  0  0  0  0
  6 13  2  0  0  0  0
  7  8  1  0  0  0  0
  7 32  1  0  0  0  0
  8  9  1  0  0  0  0
  8 11  2  0  0  0  0
  8 12  2  0  0  0  0
  9 10  1  0  0  0  0
  9 33  1  0  0  0  0
  9 34  1  0  0  0  0
 10 35  1  0  0  0  0
 10 36  1  0  0  0  0
 10 37  1  0  0  0  0
 13 14  1  0  0  0  0
 13 38  1  0  0  0  0
 14 15  2  0  0  0  0
 14 39  1  0  0  0  0
 15 16  1  0  0  0  0
 17 18  1  0  0  0  0
 17 22  2  0  0  0  0
 18 19  2  0  0  0  0
 18 20  1  0  0  0  0
 19 25  1  0  0  0  0
 19 40  1  0  0  0  0
 20 21  1  0  0  0  0
 20 23  2  0  0  0  0
 21 22  1  0  0  0  0
 21 41  1  0  0  0  0
 22 42  1  0  0  0  0
 23 24  1  0  0  0  0
 24 25  2  0  0  0  0
 24 43  1  0  0  0  0
 25 26  1  0  0  0  0
 26 27  2  0  0  0  0
 26 31  1  0  0  0  0
 27 28  1  0  0  0  0
 27 44  1  0  0  0  0
 28 29  2  0  0  0  0
 29 30  1  0  0  0  0
 29 45  1  0  0  0  0
 30 31  2  0  0  0  0
 30 46  1  0  0  0  0
 31 47  1  0  0  0  0
M  END
>  <DRUGBANK_ID>
DB07000

>  <COMMON_NAME>
N-{2,4-difluoro-3-[(5-pyridin-3-yl-1H-pyrrolo[2,3-b]pyridin-3-yl)carbonyl]phenyl}ethanesulfonamide

$$$$
