
 OpenBabel10282417223D

 55 59  0  0  1  0  0  0  0  0999 V2000
    1.0202    0.0921   -0.0152 C   0  0  0  0  0  0  0  0  0  0  0  0
    0.4700    0.0170   -1.3329 O   0  0  0  0  0  0  0  0  0  0  0  0
    0.9635    0.9313   -2.2268 C   0  0  0  0  0  0  0  0  0  0  0  0
    2.3186    1.2538   -2.3114 C   0  0  0  0  0  0  0  0  0  0  0  0
    2.8381    2.1327   -3.2787 C   0  0  0  0  0  0  0  0  0  0  0  0
    4.2969    2.5368   -3.2189 C   0  0  0  0  0  0  0  0  0  0  0  0
    4.6847    3.4947   -3.8449 O   0  0  0  0  0  0  0  0  0  0  0  0
    5.1528    1.8897   -2.3391 N   0  0  0  0  0  0  0  0  0  0  0  0
    5.3959    0.4383   -2.3174 C   0  0  0  0  0  0  0  0  0  0  0  0
    6.7438    0.2461   -1.6367 C   0  0  0  0  0  0  0  0  0  0  0  0
    7.2909    1.6606   -1.4038 C   0  0  0  0  0  0  0  0  0  0  0  0
    6.0727    2.6155   -1.4284 C   0  0  2  0  0  0  0  0  0  0  0  0
    5.3855    2.5104   -0.0179 C   0  0  0  0  0  0  0  0  0  0  0  0
    6.5510    4.1211   -1.7538 C   0  0  0  0  0  0  0  0  0  0  0  0
    7.1689    4.7354   -2.7918 N   0  0  0  0  0  0  0  0  0  0  0  0
    7.8814    5.8632   -2.2724 C   0  0  0  0  0  0  0  0  0  0  0  0
    7.6838    5.8423   -0.8984 C   0  0  0  0  0  0  0  0  0  0  0  0
    6.5722    5.0523   -0.7333 N   0  0  0  0  0  0  0  0  0  0  0  0
    8.4478    6.5374    0.0362 C   0  0  0  0  0  0  0  0  0  0  0  0
    9.4522    7.3598   -0.4522 C   0  0  0  0  0  0  0  0  0  0  0  0
    9.6093    7.5345   -1.8249 C   0  0  0  0  0  0  0  0  0  0  0  0
   10.9530    8.5396   -2.3007 Cl  0  0  0  0  0  0  0  0  0  0  0  0
    8.7681    6.8846   -2.7868 C   0  0  0  0  0  0  0  0  0  0  0  0
    8.8621    7.4106   -4.2066 C   0  0  0  0  0  0  0  0  0  0  0  0
    1.9126    2.7524   -4.1430 C   0  0  0  0  0  0  0  0  0  0  0  0
    0.5430    2.4136   -4.0877 C   0  0  0  0  0  0  0  0  0  0  0  0
    0.0758    1.4969   -3.1353 C   0  0  0  0  0  0  0  0  0  0  0  0
    2.3094    3.8020   -5.0043 N   0  0  0  0  0  0  0  0  0  0  0  0
    3.1530    3.6096   -6.0512 N   0  0  0  0  0  0  0  0  0  0  0  0
    3.4505    4.8711   -6.3811 C   0  0  0  0  0  0  0  0  0  0  0  0
    2.6101    5.7529   -5.6909 C   0  0  0  0  0  0  0  0  0  0  0  0
    1.7884    5.0621   -4.8895 N   0  0  0  0  0  0  0  0  0  0  0  0
    0.6282   -0.7449    0.5714 H   0  0  0  0  0  0  0  0  0  0  0  0
    0.7079    1.0255    0.4623 H   0  0  0  0  0  0  0  0  0  0  0  0
    2.1101   -0.0027    0.0151 H   0  0  0  0  0  0  0  0  0  0  0  0
    2.9762    0.8253   -1.5788 H   0  0  0  0  0  0  0  0  0  0  0  0
    4.6524   -0.0872   -1.7075 H   0  0  0  0  0  0  0  0  0  0  0  0
    5.3487    0.0098   -3.3227 H   0  0  0  0  0  0  0  0  0  0  0  0
    6.6232   -0.3019   -0.6910 H   0  0  0  0  0  0  0  0  0  0  0  0
    7.4190   -0.3555   -2.2538 H   0  0  0  0  0  0  0  0  0  0  0  0
    7.8432    1.7102   -0.4585 H   0  0  0  0  0  0  0  0  0  0  0  0
    7.9858    1.9007   -2.2134 H   0  0  0  0  0  0  0  0  0  0  0  0
    5.2780    1.4626    0.3031 H   0  0  0  0  0  0  0  0  0  0  0  0
    5.9551    3.0003    0.7768 H   0  0  0  0  0  0  0  0  0  0  0  0
    4.3657    2.9147   -0.0255 H   0  0  0  0  0  0  0  0  0  0  0  0
    6.0270    5.0239    0.1117 H   0  0  0  0  0  0  0  0  0  0  0  0
    8.3167    6.3856    1.0998 H   0  0  0  0  0  0  0  0  0  0  0  0
   10.0953    7.8895    0.2484 H   0  0  0  0  0  0  0  0  0  0  0  0
    8.6699    8.4994   -4.2017 H   0  0  0  0  0  0  0  0  0  0  0  0
    9.8646    7.2749   -4.6294 H   0  0  0  0  0  0  0  0  0  0  0  0
    8.1232    6.9675   -4.8721 H   0  0  0  0  0  0  0  0  0  0  0  0
   -0.1577    2.8342   -4.8083 H   0  0  0  0  0  0  0  0  0  0  0  0
   -0.9829    1.2486   -3.0882 H   0  0  0  0  0  0  0  0  0  0  0  0
    4.2327    5.0783   -7.0975 H   0  0  0  0  0  0  0  0  0  0  0  0
    2.5565    6.8326   -5.7486 H   0  0  0  0  0  0  0  0  0  0  0  0
  1  2  1  0  0  0  0
  1 33  1  0  0  0  0
  1 34  1  0  0  0  0
  1 35  1  0  0  0  0
  2  3  1  0  0  0  0
  3  4  2  0  0  0  0
  3 27  1  0  0  0  0
  4  5  1  0  0  0  0
  4 36  1  0  0  0  0
  5  6  1  0  0  0  0
  5 25  2  0  0  0  0
  6  7  2  0  0  0  0
  6  8  1  0  0  0  0
  8  9  1  0  0  0  0
  9 10  1  0  0  0  0
  9 37  1  0  0  0  0
  9 38  1  0  0  0  0
 10 11  1  0  0  0  0
 10 39  1  0  0  0  0
 10 40  1  0  0  0  0
 11 41  1  0  0  0  0
 11 42  1  0  0  0  0
 12 11  1  0  0  0  0
 12  8  1  0  0  0  0
 12 14  1  0  0  0  0
 12 13  1  1  0  0  0
 13 43  1  0  0  0  0
 13 44  1  0  0  0  0
 13 45  1  0  0  0  0
 14 15  2  0  0  0  0
 14 18  1  0  0  0  0
 15 16  1  0  0  0  0
 16 17  2  0  0  0  0
 16 23  1  0  0  0  0
 17 18  1  0  0  0  0
 17 19  1  0  0  0  0
 18 46  1  0  0  0  0
 19 20  2  0  0  0  0
 19 47  1  0  0  0  0
 20 21  1  0  0  0  0
 20 48  1  0  0  0  0
 21 22  1  0  0  0  0
 21 23  2  0  0  0  0
 23 24  1  0  0  0  0
 24 49  1  0  0  0  0
 24 50  1  0  0  0  0
 24 51  1  0  0  0  0
 25 26  1  0  0  0  0
 25 28  1  0  0  0  0
 26 27  2  0  0  0  0
 26 52  1  0  0  0  0
 27 53  1  0  0  0  0
 28 29  1  0  0  0  0
 28 32  1  0  0  0  0
 29 30  2  0  0  0  0
 30 31  1  0  0  0  0
 30 54  1  0  0  0  0
 31 32  2  0  0  0  0
 31 55  1  0  0  0  0
M  END
>  <DRUGBANK_ID>
DB15031

>  <COMMON_NAME>
Daridorexant

>  <CAS_NUMBER>
1505484-82-1

>  <UNII>
LMQ24G57E9

>  <SYNONYMS>
ACT-541468; Nemorexant

$$$$
