
 OpenBabel10282417183D

141144  0  0  0  0  0  0  0  0999 V2000
  -12.4958    7.5863   -0.4095 O   0  0  0  0  0  0  0  0  0  0  0  0
  -11.1398    7.3069   -0.1910 C   0  0  2  0  0  0  0  0  0  0  0  0
  -10.0853    8.2340   -0.6389 C   0  0  1  0  0  0  0  0  0  0  0  0
  -10.4612    9.4184   -1.4183 C   0  0  2  0  0  0  0  0  0  0  0  0
  -11.9671    9.3796   -1.9642 C   0  0  1  0  0  0  0  0  0  0  0  0
  -12.8550    8.9301   -0.7874 C   0  0  1  0  0  0  0  0  0  0  0  0
  -14.3177    8.7681   -1.1897 C   0  0  0  0  0  0  0  0  0  0  0  0
   -9.3725    9.2934   -2.4231 N   0  0  0  0  0  0  0  0  0  0  0  0
   -7.9972    9.5252   -2.0433 C   0  0  0  0  0  0  0  0  0  0  0  0
   -9.6448    8.2259   -3.3708 C   0  0  0  0  0  0  0  0  0  0  0  0
   -8.9134    8.3485    0.1800 O   0  0  0  0  0  0  0  0  0  0  0  0
  -10.6054    4.9758   -1.8841 C   0  0  1  0  0  0  0  0  0  0  0  0
  -10.0122    4.3236   -3.7026 C   0  0  2  0  0  0  0  0  0  0  0  0
  -10.5399    4.1232   -0.3102 C   0  0  2  0  0  0  0  0  0  0  0  0
   -9.2437    4.2879    0.4939 C   0  0  1  0  0  0  0  0  0  0  0  0
   -8.7727    5.6088    1.2361 C   0  0  0  0  0  0  0  0  0  0  0  0
   -8.6493    5.5316    2.7105 C   0  0  0  0  0  0  0  0  0  0  0  0
   -6.3055    4.4740    0.5986 C   0  0  0  0  0  0  0  0  0  0  0  0
   -6.0781    4.6830   -0.6974 C   0  0  0  0  0  0  0  0  0  0  0  0
   -6.9712    4.6823   -1.8296 C   0  0  0  0  0  0  0  0  0  0  0  0
   -6.5812    4.9672   -3.0706 C   0  0  0  0  0  0  0  0  0  0  0  0
   -7.6444    5.5812   -3.8424 C   0  0  0  0  0  0  0  0  0  0  0  0
   -7.7296    5.3179   -5.2826 C   0  0  1  0  0  0  0  0  0  0  0  0
   -8.6676    4.1397   -5.0784 C   0  0  0  0  0  0  0  0  0  0  0  0
   -8.5168    6.0601   -3.2776 O   0  0  0  0  0  0  0  0  0  0  0  0
   -8.8286    3.0200    0.9917 O   0  0  0  0  0  0  0  0  0  0  0  0
   -7.4320    5.5572    3.3044 O   0  0  0  0  0  0  0  0  0  0  0  0
   -8.4392    6.4252   -6.0375 C   0  0  0  0  0  0  0  0  0  0  0  0
  -10.9044    3.0498   -3.7791 C   0  0  0  0  0  0  0  0  0  0  0  0
   -5.5454    4.6271    1.8672 C   0  0  1  0  0  0  0  0  0  0  0  0
  -11.1943    2.7898   -0.2444 C   0  0  0  0  0  0  0  0  0  0  0  0
   -6.0941    5.7944    2.7351 C   0  0  1  0  0  0  0  0  0  0  0  0
   -4.6962    5.0283   -0.9860 C   0  0  0  0  0  0  0  0  0  0  0  0
  -12.4431   10.6395   -2.5146 O   0  0  0  0  0  0  0  0  0  0  0  0
   -9.6906    2.1440   -3.8027 C   0  0  0  0  0  0  0  0  0  0  0  0
   -5.9845    7.1837    2.0965 C   0  0  0  0  0  0  0  0  0  0  0  0
   -6.3204    8.2845    3.0836 C   0  0  0  0  0  0  0  0  0  0  0  0
   -9.6716    5.4140    3.3838 O   0  0  0  0  0  0  0  0  0  0  0  0
   -5.7088    3.3085    2.6310 C   0  0  0  0  0  0  0  0  0  0  0  0
   -8.7237    2.2734   -3.0453 O   0  0  0  0  0  0  0  0  0  0  0  0
   -4.2185    0.7904    2.9533 O   0  0  0  0  0  0  0  0  0  0  0  0
   -4.1878   -0.3770    3.7616 C   0  0  1  0  0  0  0  0  0  0  0  0
   -4.4454   -1.6183    2.8941 C   0  0  2  0  0  0  0  0  0  0  0  0
   -5.7926   -1.5049    2.1726 C   0  0  2  0  0  0  0  0  0  0  0  0
   -5.9415   -0.1397    1.4726 C   0  0  2  0  0  0  0  0  0  0  0  0
   -5.5117    0.9946    2.4204 C   0  0  2  0  0  0  0  0  0  0  0  0
   -6.7813   -1.7172    3.2093 O   0  0  0  0  0  0  0  0  0  0  0  0
   -4.4551   -2.8027    3.7014 O   0  0  0  0  0  0  0  0  0  0  0  0
   -2.8067   -0.3934    4.3791 C   0  0  0  0  0  0  0  0  0  0  0  0
   -7.2678    0.0322    0.9328 O   0  0  0  0  0  0  0  0  0  0  0  0
  -10.4922    6.1040   -0.8501 O   0  0  0  0  0  0  0  0  0  0  0  0
   -5.4780    2.2268    1.7324 O   0  0  0  0  0  0  0  0  0  0  0  0
  -12.2164   10.3375   -4.9241 O   0  0  0  0  0  0  0  0  0  0  0  0
  -11.4255   10.6068   -6.1293 C   0  0  2  0  0  0  0  0  0  0  0  0
   -9.9179   10.3835   -5.9848 C   0  0  1  0  0  0  0  0  0  0  0  0
   -9.3952   11.1858   -4.7771 C   0  0  1  0  0  0  0  0  0  0  0  0
  -10.3755   11.0589   -3.6523 C   0  0  0  0  0  0  0  0  0  0  0  0
  -11.8484   11.1194   -3.7591 C   0  0  2  0  0  0  0  0  0  0  0  0
   -9.7387    8.9664   -5.9409 O   0  0  0  0  0  0  0  0  0  0  0  0
  -11.6563   12.0135   -6.5990 C   0  0  0  0  0  0  0  0  0  0  0  0
   -8.0453   10.7909   -4.5379 O   0  0  0  0  0  0  0  0  0  0  0  0
   -9.3037   12.6767   -4.8544 C   0  0  0  0  0  0  0  0  0  0  0  0
   -8.2808    0.3147    1.8893 C   0  0  0  0  0  0  0  0  0  0  0  0
   -7.7682   -2.6729    2.8139 C   0  0  0  0  0  0  0  0  0  0  0  0
  -10.9867    7.5131    0.9072 H   0  0  0  0  0  0  0  0  0  0  0  0
   -9.6537    7.5758   -1.3446 H   0  0  0  0  0  0  0  0  0  0  0  0
  -10.3379   10.3292   -0.8226 H   0  0  0  0  0  0  0  0  0  0  0  0
  -12.1395    8.6015   -2.7119 H   0  0  0  0  0  0  0  0  0  0  0  0
  -12.8020    9.6696    0.0318 H   0  0  0  0  0  0  0  0  0  0  0  0
  -14.9242    8.5233   -0.3086 H   0  0  0  0  0  0  0  0  0  0  0  0
  -14.7361    9.6516   -1.6735 H   0  0  0  0  0  0  0  0  0  0  0  0
  -14.4099    7.9106   -1.8676 H   0  0  0  0  0  0  0  0  0  0  0  0
   -7.5445    8.6773   -1.5423 H   0  0  0  0  0  0  0  0  0  0  0  0
   -7.3111    9.6752   -2.8717 H   0  0  0  0  0  0  0  0  0  0  0  0
   -7.9604   10.4581   -1.4726 H   0  0  0  0  0  0  0  0  0  0  0  0
   -9.7462    7.2863   -2.9303 H   0  0  0  0  0  0  0  0  0  0  0  0
  -10.6543    8.1810   -3.7915 H   0  0  0  0  0  0  0  0  0  0  0  0
   -8.8954    8.2281   -4.1330 H   0  0  0  0  0  0  0  0  0  0  0  0
   -8.8463    9.2519    0.4947 H   0  0  0  0  0  0  0  0  0  0  0  0
  -11.6571    5.0960   -2.1377 H   0  0  0  0  0  0  0  0  0  0  0  0
  -10.4656    4.9162   -4.5478 H   0  0  0  0  0  0  0  0  0  0  0  0
  -11.1181    4.6545    0.4894 H   0  0  0  0  0  0  0  0  0  0  0  0
   -8.6517    4.4033   -0.3497 H   0  0  0  0  0  0  0  0  0  0  0  0
   -7.8746    6.0168    0.7761 H   0  0  0  0  0  0  0  0  0  0  0  0
   -9.3765    6.4736    1.0817 H   0  0  0  0  0  0  0  0  0  0  0  0
   -7.2089    4.1013    0.9482 H   0  0  0  0  0  0  0  0  0  0  0  0
   -8.0459    4.6079   -1.7787 H   0  0  0  0  0  0  0  0  0  0  0  0
   -5.6182    5.0656   -3.4860 H   0  0  0  0  0  0  0  0  0  0  0  0
   -6.7255    5.1565   -5.6932 H   0  0  0  0  0  0  0  0  0  0  0  0
   -9.0896    4.0647   -6.1209 H   0  0  0  0  0  0  0  0  0  0  0  0
   -8.0641    3.2029   -5.1180 H   0  0  0  0  0  0  0  0  0  0  0  0
   -8.4953    3.0783    1.8933 H   0  0  0  0  0  0  0  0  0  0  0  0
   -8.1207    7.3765   -5.6308 H   0  0  0  0  0  0  0  0  0  0  0  0
   -8.2008    6.4406   -7.1050 H   0  0  0  0  0  0  0  0  0  0  0  0
   -9.5334    6.3404   -5.9683 H   0  0  0  0  0  0  0  0  0  0  0  0
  -11.6586    3.8031   -4.0488 H   0  0  0  0  0  0  0  0  0  0  0  0
  -11.3714    2.6136   -4.6935 H   0  0  0  0  0  0  0  0  0  0  0  0
   -4.4987    4.7915    1.6124 H   0  0  0  0  0  0  0  0  0  0  0  0
  -10.6782    2.0296    0.3488 H   0  0  0  0  0  0  0  0  0  0  0  0
  -12.1651    2.9459    0.2418 H   0  0  0  0  0  0  0  0  0  0  0  0
  -11.2939    2.4715   -1.2641 H   0  0  0  0  0  0  0  0  0  0  0  0
   -5.4412    5.8072    3.6212 H   0  0  0  0  0  0  0  0  0  0  0  0
   -4.4649    5.9509   -0.4597 H   0  0  0  0  0  0  0  0  0  0  0  0
   -4.1304    4.1575   -0.6647 H   0  0  0  0  0  0  0  0  0  0  0  0
   -4.4954    5.1829   -2.0320 H   0  0  0  0  0  0  0  0  0  0  0  0
   -9.6027    1.3906   -4.6039 H   0  0  0  0  0  0  0  0  0  0  0  0
   -4.9818    7.3224    1.6815 H   0  0  0  0  0  0  0  0  0  0  0  0
   -6.6680    7.3302    1.2649 H   0  0  0  0  0  0  0  0  0  0  0  0
   -5.5883    8.3087    3.8939 H   0  0  0  0  0  0  0  0  0  0  0  0
   -6.3141    9.2468    2.5648 H   0  0  0  0  0  0  0  0  0  0  0  0
   -7.3182    8.1462    3.5131 H   0  0  0  0  0  0  0  0  0  0  0  0
   -5.0084    3.2780    3.4668 H   0  0  0  0  0  0  0  0  0  0  0  0
   -6.7250    3.1946    3.0376 H   0  0  0  0  0  0  0  0  0  0  0  0
   -4.9289   -0.2911    4.5696 H   0  0  0  0  0  0  0  0  0  0  0  0
   -3.6545   -1.7147    2.1447 H   0  0  0  0  0  0  0  0  0  0  0  0
   -5.8872   -2.3082    1.4328 H   0  0  0  0  0  0  0  0  0  0  0  0
   -5.2572   -0.1389    0.6083 H   0  0  0  0  0  0  0  0  0  0  0  0
   -6.2135    1.0585    3.2557 H   0  0  0  0  0  0  0  0  0  0  0  0
   -5.3858   -2.9162    3.9855 H   0  0  0  0  0  0  0  0  0  0  0  0
   -2.6590    0.5077    4.9853 H   0  0  0  0  0  0  0  0  0  0  0  0
   -2.6608   -1.2748    5.0037 H   0  0  0  0  0  0  0  0  0  0  0  0
   -2.0454   -0.3684    3.5919 H   0  0  0  0  0  0  0  0  0  0  0  0
  -11.7749    9.8835   -6.8747 H   0  0  0  0  0  0  0  0  0  0  0  0
   -9.2962   10.6462   -6.8407 H   0  0  0  0  0  0  0  0  0  0  0  0
  -10.4769   10.0212   -3.7415 H   0  0  0  0  0  0  0  0  0  0  0  0
  -10.0038   11.4369   -2.6937 H   0  0  0  0  0  0  0  0  0  0  0  0
  -12.1447   12.1598   -3.8512 H   0  0  0  0  0  0  0  0  0  0  0  0
  -10.5263    8.5683   -5.5241 H   0  0  0  0  0  0  0  0  0  0  0  0
  -10.7166   12.5099   -6.8623 H   0  0  0  0  0  0  0  0  0  0  0  0
  -12.2525   12.0021   -7.5001 H   0  0  0  0  0  0  0  0  0  0  0  0
  -12.1746   12.5925   -5.8375 H   0  0  0  0  0  0  0  0  0  0  0  0
   -8.0217    9.8161   -4.5785 H   0  0  0  0  0  0  0  0  0  0  0  0
  -10.2928   13.1186   -4.9244 H   0  0  0  0  0  0  0  0  0  0  0  0
   -8.8870   13.0742   -3.9190 H   0  0  0  0  0  0  0  0  0  0  0  0
   -8.6688   12.9490   -5.6878 H   0  0  0  0  0  0  0  0  0  0  0  0
   -8.4652   -0.5125    2.5527 H   0  0  0  0  0  0  0  0  0  0  0  0
   -8.0450    1.1609    2.5312 H   0  0  0  0  0  0  0  0  0  0  0  0
   -9.2302    0.4823    1.3872 H   0  0  0  0  0  0  0  0  0  0  0  0
   -8.1781   -2.4442    1.8231 H   0  0  0  0  0  0  0  0  0  0  0  0
   -7.3184   -3.6634    2.8038 H   0  0  0  0  0  0  0  0  0  0  0  0
   -8.5814   -2.6344    3.5447 H   0  0  0  0  0  0  0  0  0  0  0  0
  1  2  1  0  0  0  0
  1  6  1  0  0  0  0
  2  3  1  0  0  0  0
  2 51  1  0  0  0  0
  2 65  1  1  0  0  0
  3  4  1  0  0  0  0
  3 11  1  0  0  0  0
  3 66  1  6  0  0  0
  4  5  1  0  0  0  0
  4  8  1  0  0  0  0
  4 67  1  1  0  0  0
  5  6  1  0  0  0  0
  5 68  1  6  0  0  0
  5 34  1  0  0  0  0
  6  7  1  0  0  0  0
  6 69  1  1  0  0  0
  7 70  1  0  0  0  0
  7 71  1  0  0  0  0
  7 72  1  0  0  0  0
  8  9  1  0  0  0  0
  8 10  1  0  0  0  0
  9 73  1  0  0  0  0
  9 74  1  0  0  0  0
  9 75  1  0  0  0  0
 10 76  1  0  0  0  0
 10 77  1  0  0  0  0
 10 78  1  0  0  0  0
 11 79  1  0  0  0  0
 12 13  1  0  0  0  0
 12 14  1  0  0  0  0
 12 80  1  6  0  0  0
 12 51  1  0  0  0  0
 13 81  1  1  0  0  0
 13 29  1  0  0  0  0
 14 15  1  0  0  0  0
 14 82  1  1  0  0  0
 14 31  1  0  0  0  0
 15 16  1  0  0  0  0
 15 26  1  0  0  0  0
 15 83  1  6  0  0  0
 16 17  1  0  0  0  0
 16 84  1  0  0  0  0
 16 85  1  0  0  0  0
 17 27  1  0  0  0  0
 17 38  2  0  0  0  0
 18 19  2  0  0  0  0
 18 30  1  0  0  0  0
 18 86  1  0  0  0  0
 19 20  1  0  0  0  0
 19 33  1  0  0  0  0
 20 21  2  0  0  0  0
 20 87  1  0  0  0  0
 21 22  1  0  0  0  0
 21 88  1  0  0  0  0
 22 23  1  0  0  0  0
 22 25  2  0  0  0  0
 23 24  1  0  0  0  0
 23 28  1  0  0  0  0
 23 89  1  6  0  0  0
 24 13  1  0  0  0  0
 24 90  1  0  0  0  0
 24 91  1  0  0  0  0
 26 92  1  0  0  0  0
 27 32  1  0  0  0  0
 28 93  1  0  0  0  0
 28 94  1  0  0  0  0
 28 95  1  0  0  0  0
 29 35  1  0  0  0  0
 29 96  1  0  0  0  0
 29 97  1  0  0  0  0
 30 32  1  0  0  0  0
 30 98  1  6  0  0  0
 30 39  1  0  0  0  0
 31 99  1  0  0  0  0
 31100  1  0  0  0  0
 31101  1  0  0  0  0
 32 36  1  0  0  0  0
 32102  1  1  0  0  0
 33103  1  0  0  0  0
 33104  1  0  0  0  0
 33105  1  0  0  0  0
 35 40  2  0  0  0  0
 35106  1  0  0  0  0
 36 37  1  0  0  0  0
 36107  1  0  0  0  0
 36108  1  0  0  0  0
 37109  1  0  0  0  0
 37110  1  0  0  0  0
 37111  1  0  0  0  0
 39 52  1  0  0  0  0
 39112  1  0  0  0  0
 39113  1  0  0  0  0
 41 42  1  0  0  0  0
 41 46  1  0  0  0  0
 42 43  1  0  0  0  0
 42 49  1  0  0  0  0
 42114  1  1  0  0  0
 43 44  1  0  0  0  0
 43115  1  6  0  0  0
 43 48  1  0  0  0  0
 44 45  1  0  0  0  0
 44116  1  6  0  0  0
 44 47  1  0  0  0  0
 45 46  1  0  0  0  0
 45 50  1  0  0  0  0
 45117  1  6  0  0  0
 46118  1  1  0  0  0
 46 52  1  0  0  0  0
 47 64  1  0  0  0  0
 48119  1  0  0  0  0
 49120  1  0  0  0  0
 49121  1  0  0  0  0
 49122  1  0  0  0  0
 50 63  1  0  0  0  0
 53 54  1  0  0  0  0
 53 58  1  0  0  0  0
 54 55  1  0  0  0  0
 54123  1  6  0  0  0
 54 60  1  0  0  0  0
 55 56  1  0  0  0  0
 55 59  1  0  0  0  0
 55124  1  6  0  0  0
 56 57  1  0  0  0  0
 56 61  1  1  0  0  0
 56 62  1  0  0  0  0
 57 58  1  0  0  0  0
 57125  1  0  0  0  0
 57126  1  0  0  0  0
 58 34  1  0  0  0  0
 58127  1  6  0  0  0
 59128  1  0  0  0  0
 60129  1  0  0  0  0
 60130  1  0  0  0  0
 60131  1  0  0  0  0
 61132  1  0  0  0  0
 62133  1  0  0  0  0
 62134  1  0  0  0  0
 62135  1  0  0  0  0
 63136  1  0  0  0  0
 63137  1  0  0  0  0
 63138  1  0  0  0  0
 64139  1  0  0  0  0
 64140  1  0  0  0  0
 64141  1  0  0  0  0
M  END
>  <DRUGBANK_ID>
DB11475

>  <COMMON_NAME>
Tylosin

>  <CAS_NUMBER>
1401-69-0

>  <UNII>
YEF4JXN031

>  <SYNONYMS>
Tilosina; Tylocine; Tylosin; Tylosin A; Tylosine; Tylosinum

$$$$
