
 OpenBabel10282417193D

 41 41  0  0  0  0  0  0  0  0999 V2000
    1.0738   -0.2887   -0.2542 C   0  0  0  0  0  0  0  0  0  0  0  0
    3.5138    3.3512    2.4339 C   0  0  0  0  0  0  0  0  0  0  0  0
   -0.1152    2.7312    6.9132 C   0  0  0  0  0  0  0  0  0  0  0  0
    2.8091    3.0770    7.4228 C   0  0  0  0  0  0  0  0  0  0  0  0
    0.5760   -0.7231    1.1156 C   0  0  0  0  0  0  0  0  0  0  0  0
    1.0143    0.2915    2.1184 C   0  0  0  0  0  0  0  0  0  0  0  0
    0.4392    1.6313    1.7336 C   0  0  0  0  0  0  0  0  0  0  0  0
   -1.0318    1.9345    1.9381 C   0  0  0  0  0  0  0  0  0  0  0  0
   -1.3879    1.8434    3.4267 C   0  0  0  0  0  0  0  0  0  0  0  0
    1.2704    3.7222    3.5669 C   0  0  0  0  0  0  0  0  0  0  0  0
    2.6544    3.4572    3.6761 C   0  0  0  0  0  0  0  0  0  0  0  0
    0.8653    2.9528    5.7932 C   0  0  0  0  0  0  0  0  0  0  0  0
    2.2693    3.0508    6.0267 C   0  0  0  0  0  0  0  0  0  0  0  0
    0.3808    3.1729    4.5137 C   0  0  0  0  0  0  0  0  0  0  0  0
    3.1477    3.2034    4.9349 C   0  0  0  0  0  0  0  0  0  0  0  0
    4.4982    3.1370    5.1653 O   0  0  0  0  0  0  0  0  0  0  0  0
   -0.9594    3.0011    4.2147 O   0  0  0  0  0  0  0  0  0  0  0  0
    0.6578    0.6780   -0.5611 H   0  0  0  0  0  0  0  0  0  0  0  0
    0.7771   -1.0074   -1.0114 H   0  0  0  0  0  0  0  0  0  0  0  0
    2.1641   -0.1754   -0.2418 H   0  0  0  0  0  0  0  0  0  0  0  0
    4.1251    4.2440    2.3037 H   0  0  0  0  0  0  0  0  0  0  0  0
    4.1750    2.4717    2.4953 H   0  0  0  0  0  0  0  0  0  0  0  0
    2.9212    3.1915    1.5266 H   0  0  0  0  0  0  0  0  0  0  0  0
   -0.8696    3.5248    6.8845 H   0  0  0  0  0  0  0  0  0  0  0  0
   -0.6036    1.7571    6.8215 H   0  0  0  0  0  0  0  0  0  0  0  0
    0.3481    2.7843    7.8998 H   0  0  0  0  0  0  0  0  0  0  0  0
    2.3649    3.9324    7.9442 H   0  0  0  0  0  0  0  0  0  0  0  0
    2.5712    2.1482    7.9458 H   0  0  0  0  0  0  0  0  0  0  0  0
    3.8925    3.2206    7.4586 H   0  0  0  0  0  0  0  0  0  0  0  0
   -0.5163   -0.7852    1.1351 H   0  0  0  0  0  0  0  0  0  0  0  0
    0.9799   -1.6957    1.4018 H   0  0  0  0  0  0  0  0  0  0  0  0
    0.7387    0.0162    3.1439 H   0  0  0  0  0  0  0  0  0  0  0  0
    2.1125    0.3843    2.1429 H   0  0  0  0  0  0  0  0  0  0  0  0
    0.9470    2.1247    2.4921 H   0  0  0  0  0  0  0  0  0  0  0  0
    0.8417    2.1037    0.8332 H   0  0  0  0  0  0  0  0  0  0  0  0
   -1.2388    2.9605    1.6053 H   0  0  0  0  0  0  0  0  0  0  0  0
   -1.6424    1.2730    1.3101 H   0  0  0  0  0  0  0  0  0  0  0  0
   -2.4864    1.8266    3.4813 H   0  0  0  0  0  0  0  0  0  0  0  0
   -1.0747    0.8866    3.8660 H   0  0  0  0  0  0  0  0  0  0  0  0
    0.8744    4.0639    2.6168 H   0  0  0  0  0  0  0  0  0  0  0  0
    4.9739    3.3807    4.3565 H   0  0  0  0  0  0  0  0  0  0  0  0
  1 18  1  0  0  0  0
  1 19  1  0  0  0  0
  1 20  1  0  0  0  0
  2 21  1  0  0  0  0
  2 22  1  0  0  0  0
  2 23  1  0  0  0  0
  3 24  1  0  0  0  0
  3 25  1  0  0  0  0
  3 26  1  0  0  0  0
  4 27  1  0  0  0  0
  4 28  1  0  0  0  0
  4 29  1  0  0  0  0
  5  1  1  0  0  0  0
  5 30  1  0  0  0  0
  5 31  1  0  0  0  0
  6  5  1  0  0  0  0
  6 32  1  0  0  0  0
  6 33  1  0  0  0  0
  7  6  1  0  0  0  0
  7 34  1  0  0  0  0
  7 35  1  0  0  0  0
  8  7  1  0  0  0  0
  8 36  1  0  0  0  0
  8 37  1  0  0  0  0
  9  8  1  0  0  0  0
  9 38  1  0  0  0  0
  9 39  1  0  0  0  0
 10 40  1  0  0  0  0
 11  2  1  0  0  0  0
 11 10  1  0  0  0  0
 12  3  1  0  0  0  0
 13  4  1  0  0  0  0
 13 12  2  0  0  0  0
 14 10  2  0  0  0  0
 14 12  1  0  0  0  0
 15 11  2  0  0  0  0
 15 13  1  0  0  0  0
 16 15  1  0  0  0  0
 16 41  1  0  0  0  0
 17  9  1  0  0  0  0
 17 14  1  0  0  0  0
M  END
>  <DRUGBANK_ID>
DB12162

>  <COMMON_NAME>
HX-1171

>  <CAS_NUMBER>
148081-72-5

>  <UNII>
70BK60I8RP

$$$$
