SB7
 OpenBabel10282417173D

 28 28  0  0  0  0  0  0  0  0999 V2000
    1.5828   -0.1996   -0.0154 C   0  0  0  0  0  0  0  0  0  0  0  0
    0.7117   -1.2892    0.0418 C   0  0  0  0  0  0  0  0  0  0  0  0
   -0.6611   -1.0795    0.1519 C   0  0  0  0  0  0  0  0  0  0  0  0
   -1.0865    0.2552    0.1452 C   0  0  0  0  0  0  0  0  0  0  0  0
   -0.2418    1.3471    0.0825 C   0  0  0  0  0  0  0  0  0  0  0  0
    1.1167    1.1139   -0.0088 C   0  0  0  0  0  0  0  0  0  0  0  0
   -1.5775   -2.2782    0.2472 C   0  0  0  0  0  0  0  0  0  0  0  0
   -2.6832   -2.1704    1.2994 C   0  0  0  0  0  0  0  0  0  0  0  0
   -3.6359   -0.9737    1.2177 C   0  0  0  0  0  0  0  0  0  0  0  0
   -4.4621   -0.7839    0.0151 N   0  0  0  0  0  0  0  0  0  0  0  0
   -5.0392    0.5450    0.1536 O   0  0  0  0  0  0  0  0  0  0  0  0
   -3.9407   -0.8719   -1.3506 C   0  0  0  0  0  0  0  0  0  0  0  0
   -3.1453    0.2159   -1.7770 O   0  0  0  0  0  0  0  0  0  0  0  0
    2.6524   -0.3829   -0.0569 H   0  0  0  0  0  0  0  0  0  0  0  0
    1.1012   -2.3011    0.0110 H   0  0  0  0  0  0  0  0  0  0  0  0
   -2.1244    0.5410    0.1598 H   0  0  0  0  0  0  0  0  0  0  0  0
   -0.6594    2.3481    0.1002 H   0  0  0  0  0  0  0  0  0  0  0  0
    1.7893    1.9563   -0.0817 H   0  0  0  0  0  0  0  0  0  0  0  0
   -1.9603   -2.5548   -0.7352 H   0  0  0  0  0  0  0  0  0  0  0  0
   -0.9848   -3.1648    0.5149 H   0  0  0  0  0  0  0  0  0  0  0  0
   -3.2793   -3.0914    1.3055 H   0  0  0  0  0  0  0  0  0  0  0  0
   -2.1863   -2.1347    2.2809 H   0  0  0  0  0  0  0  0  0  0  0  0
   -4.3401   -1.0973    2.0535 H   0  0  0  0  0  0  0  0  0  0  0  0
   -3.1258   -0.0628    1.5496 H   0  0  0  0  0  0  0  0  0  0  0  0
   -5.7722    0.3632    0.7732 H   0  0  0  0  0  0  0  0  0  0  0  0
   -3.4202   -1.8005   -1.5641 H   0  0  0  0  0  0  0  0  0  0  0  0
   -4.7841   -0.8936   -2.0432 H   0  0  0  0  0  0  0  0  0  0  0  0
   -3.5073    0.9886   -1.3160 H   0  0  0  0  0  0  0  0  0  0  0  0
  1  2  2  0  0  0  0
  1  6  1  0  0  0  0
  1 14  1  0  0  0  0
  2  3  1  0  0  0  0
  2 15  1  0  0  0  0
  3  4  2  0  0  0  0
  3  7  1  0  0  0  0
  4  5  1  0  0  0  0
  4 16  1  0  0  0  0
  5  6  2  0  0  0  0
  5 17  1  0  0  0  0
  6 18  1  0  0  0  0
  7  8  1  0  0  0  0
  7 19  1  0  0  0  0
  7 20  1  0  0  0  0
  8  9  1  0  0  0  0
  8 21  1  0  0  0  0
  8 22  1  0  0  0  0
  9 10  1  0  0  0  0
  9 23  1  0  0  0  0
  9 24  1  0  0  0  0
 10 11  1  0  0  0  0
 10 12  1  0  0  0  0
 11 25  1  0  0  0  0
 12 13  1  0  0  0  0
 12 26  1  0  0  0  0
 12 27  1  0  0  0  0
 13 28  1  0  0  0  0
M  END
>  <DRUGBANK_ID>
DB08523

>  <COMMON_NAME>
[HYDROXY(3-PHENYLPROPYL)AMINO]METHANOL

$$$$
