
 OpenBabel10282417203D

 53 54  0  0  0  0  0  0  0  0999 V2000
    0.9542   -0.6606   -0.2553 C   0  0  0  0  0  0  0  0  0  0  0  0
    0.3846    0.2649   -1.2933 C   0  0  0  0  0  0  0  0  0  0  0  0
    1.0425    0.4180   -2.6170 N   0  3  0  0  0  0  0  0  0  0  0  0
    0.5918   -0.9285   -3.1658 C   0  0  0  0  0  0  0  0  0  0  0  0
    0.4490    1.5890   -3.5208 C   0  0  0  0  0  0  0  0  0  0  0  0
    0.9602    3.0605   -3.4972 C   0  0  0  0  0  0  0  0  0  0  0  0
    2.5601    0.5822   -2.4464 C   0  0  0  0  0  0  0  0  0  0  0  0
    3.0082    1.9005   -1.7113 C   0  0  0  0  0  0  0  0  0  0  0  0
    2.3599    2.2316   -0.4004 O   0  0  0  0  0  0  0  0  0  0  0  0
    1.0696    2.6976   -0.1493 C   0  0  0  0  0  0  0  0  0  0  0  0
    0.1978    2.9243   -1.0342 O   0  0  0  0  0  0  0  0  0  0  0  0
    0.6550    2.8762    1.2792 C   0  0  3  0  0  0  0  0  0  0  0  0
    1.0812    1.8367    2.3115 C   0  0  0  0  0  0  0  0  0  0  0  0
    1.9601    1.9864    3.3717 C   0  0  0  0  0  0  0  0  0  0  0  0
    2.1287    0.8065    4.1534 C   0  0  0  0  0  0  0  0  0  0  0  0
    1.4405   -0.2572    3.6198 C   0  0  0  0  0  0  0  0  0  0  0  0
    0.1297    0.4190    2.7428 S   0  0  0  0  0  0  0  0  0  0  0  0
    1.1880    4.3023    1.4818 C   0  0  0  0  0  0  0  0  0  0  0  0
    0.2103    5.4021    1.0939 C   0  0  0  0  0  0  0  0  0  0  0  0
    1.1055    6.6323    0.9377 C   0  0  0  0  0  0  0  0  0  0  0  0
    2.5424    6.1582    0.7234 C   0  0  0  0  0  0  0  0  0  0  0  0
    2.4191    4.6760    0.6005 C   0  0  0  0  0  0  0  0  0  0  0  0
   -0.7863    2.8074    1.2611 O   0  0  0  0  0  0  0  0  0  0  0  0
    0.6947   -1.7066   -0.3022 H   0  0  0  0  0  0  0  0  0  0  0  0
    0.4504   -0.2864    0.6072 H   0  0  0  0  0  0  0  0  0  0  0  0
    2.0186   -0.4975   -0.0241 H   0  0  0  0  0  0  0  0  0  0  0  0
   -0.6861    0.4915   -1.2828 H   0  0  0  0  0  0  0  0  0  0  0  0
    0.8207    1.0555   -0.8547 H   0  0  0  0  0  0  0  0  0  0  0  0
   -0.5093   -0.9408   -3.1171 H   0  0  0  0  0  0  0  0  0  0  0  0
    0.9586   -1.0687   -4.1722 H   0  0  0  0  0  0  0  0  0  0  0  0
    0.9703   -1.7161   -2.5017 H   0  0  0  0  0  0  0  0  0  0  0  0
    0.6982    1.2622   -4.5331 H   0  0  0  0  0  0  0  0  0  0  0  0
   -0.6362    1.5575   -3.3930 H   0  0  0  0  0  0  0  0  0  0  0  0
    1.9641    3.1639   -3.9076 H   0  0  0  0  0  0  0  0  0  0  0  0
    0.3112    3.6693   -4.1365 H   0  0  0  0  0  0  0  0  0  0  0  0
    0.9820    3.6598   -2.5914 H   0  0  0  0  0  0  0  0  0  0  0  0
    2.9166   -0.2749   -1.8651 H   0  0  0  0  0  0  0  0  0  0  0  0
    3.0052    0.4778   -3.4438 H   0  0  0  0  0  0  0  0  0  0  0  0
    4.0725    1.7536   -1.4719 H   0  0  0  0  0  0  0  0  0  0  0  0
    3.0652    2.7738   -2.3642 H   0  0  0  0  0  0  0  0  0  0  0  0
    2.4351    2.9253    3.6051 H   0  0  0  0  0  0  0  0  0  0  0  0
    2.7446    0.7386    5.0382 H   0  0  0  0  0  0  0  0  0  0  0  0
    1.4790   -1.3019    3.9145 H   0  0  0  0  0  0  0  0  0  0  0  0
    1.4428    4.4520    2.5305 H   0  0  0  0  0  0  0  0  0  0  0  0
   -0.3126    5.1866    0.1517 H   0  0  0  0  0  0  0  0  0  0  0  0
   -0.5534    5.5347    1.8657 H   0  0  0  0  0  0  0  0  0  0  0  0
    0.7616    7.2414    0.0979 H   0  0  0  0  0  0  0  0  0  0  0  0
    1.0702    7.2321    1.8480 H   0  0  0  0  0  0  0  0  0  0  0  0
    2.9880    6.5729   -0.1880 H   0  0  0  0  0  0  0  0  0  0  0  0
    3.1931    6.3850    1.5687 H   0  0  0  0  0  0  0  0  0  0  0  0
    3.3241    4.1187    0.8614 H   0  0  0  0  0  0  0  0  0  0  0  0
    2.2450    4.5429   -0.4802 H   0  0  0  0  0  0  0  0  0  0  0  0
   -1.1246    3.0655    2.1298 H   0  0  0  0  0  0  0  0  0  0  0  0
  1  2  1  0  0  0  0
  1 24  1  0  0  0  0
  1 25  1  0  0  0  0
  1 26  1  0  0  0  0
  2  3  1  0  0  0  0
  2 27  1  0  0  0  0
  2 28  1  0  0  0  0
  3  4  1  0  0  0  0
  3  5  1  0  0  0  0
  3  7  1  0  0  0  0
  4 29  1  0  0  0  0
  4 30  1  0  0  0  0
  4 31  1  0  0  0  0
  5  6  1  0  0  0  0
  5 32  1  0  0  0  0
  5 33  1  0  0  0  0
  6 34  1  0  0  0  0
  6 35  1  0  0  0  0
  6 36  1  0  0  0  0
  7  8  1  0  0  0  0
  7 37  1  0  0  0  0
  7 38  1  0  0  0  0
  8  9  1  0  0  0  0
  8 39  1  0  0  0  0
  8 40  1  0  0  0  0
  9 10  1  0  0  0  0
 10 11  2  0  0  0  0
 10 12  1  0  0  0  0
 12 13  1  0  0  0  0
 12 18  1  0  0  0  0
 12 23  1  0  0  0  0
 13 14  2  0  0  0  0
 13 17  1  0  0  0  0
 14 15  1  0  0  0  0
 14 41  1  0  0  0  0
 15 16  2  0  0  0  0
 15 42  1  0  0  0  0
 16 17  1  0  0  0  0
 16 43  1  0  0  0  0
 18 19  1  0  0  0  0
 18 22  1  0  0  0  0
 18 44  1  0  0  0  0
 19 20  1  0  0  0  0
 19 45  1  0  0  0  0
 19 46  1  0  0  0  0
 20 21  1  0  0  0  0
 20 47  1  0  0  0  0
 20 48  1  0  0  0  0
 21 22  1  0  0  0  0
 21 49  1  0  0  0  0
 21 50  1  0  0  0  0
 22 51  1  0  0  0  0
 22 52  1  0  0  0  0
 23 53  1  0  0  0  0
M  CHG  1   3   1
M  END
>  <DRUGBANK_ID>
DB13695

>  <COMMON_NAME>
Penthienate

>  <CAS_NUMBER>
22064-27-3

>  <UNII>
6LCT38OJV9

$$$$
