
 OpenBabel10282417193D

 77 77  0  0  0  0  0  0  0  0999 V2000
    0.9701    0.1064    0.1437 C   0  0  0  0  0  0  0  0  0  0  0  0
    0.5176    0.6081   -1.2176 C   0  0  0  0  0  0  0  0  0  0  0  0
    1.0184   -0.3278   -2.3181 C   0  0  0  0  0  0  0  0  0  0  0  0
    0.4709   -1.7460   -2.1250 C   0  0  0  0  0  0  0  0  0  0  0  0
   -1.0609   -1.7334   -2.1399 C   0  0  0  0  0  0  0  0  0  0  0  0
   -1.5592   -1.2015   -3.4870 C   0  0  0  0  0  0  0  0  0  0  0  0
   -1.0472   -2.1062   -4.6121 C   0  0  0  0  0  0  0  0  0  0  0  0
   -1.5724   -3.5225   -4.3830 C   0  0  0  0  0  0  0  0  0  0  0  0
   -3.1048   -3.4675   -4.3326 C   0  0  0  0  0  0  0  0  0  0  0  0
   -3.6456   -2.8767   -5.6440 C   0  0  0  0  0  0  0  0  0  0  0  0
   -3.2170   -3.7938   -6.7488 C   0  0  0  0  0  0  0  0  0  0  0  0
   -3.8680   -5.1075   -6.3656 C   0  0  0  0  0  0  0  0  0  0  0  0
   -5.3342   -5.2677   -6.6055 C   0  0  0  0  0  0  0  0  0  0  0  0
   -5.5895   -4.9013   -8.0910 C   0  0  0  0  0  0  0  0  0  0  0  0
   -4.9911   -5.7507   -9.1479 O   0  0  0  0  0  0  0  0  0  0  0  0
   -3.6541   -5.9885   -9.2651 C   0  0  0  0  0  0  0  0  0  0  0  0
   -2.6544   -6.6300   -8.5239 C   0  0  0  0  0  0  0  0  0  0  0  0
   -1.4251   -6.2103   -9.0263 C   0  0  0  0  0  0  0  0  0  0  0  0
   -1.7017   -5.8890  -10.3330 C   0  0  0  0  0  0  0  0  0  0  0  0
   -3.0680   -5.6835  -10.4832 O   0  0  0  0  0  0  0  0  0  0  0  0
   -0.7668   -5.8150  -11.4163 C   0  0  0  0  0  0  0  0  0  0  0  0
   -1.0295   -5.6293  -12.6066 O   0  0  0  0  0  0  0  0  0  0  0  0
    0.4911   -6.0478  -10.9280 O   0  0  0  0  0  0  0  0  0  0  0  0
    1.5319   -6.1322  -11.8965 C   0  0  0  0  0  0  0  0  0  0  0  0
    1.3616   -7.2816  -12.8910 C   0  0  0  0  0  0  0  0  0  0  0  0
    1.3200   -7.0525  -14.1002 O   0  0  0  0  0  0  0  0  0  0  0  0
    1.2422   -8.5731  -12.3856 N   0  0  0  0  0  0  0  0  0  0  0  0
    1.4882   -8.9595  -11.0056 C   0  0  0  0  0  0  0  0  0  0  0  0
    1.0049   -9.6419  -13.3625 C   0  0  0  0  0  0  0  0  0  0  0  0
   -0.3214   -9.5076  -14.1106 C   0  0  0  0  0  0  0  0  0  0  0  0
   -0.4143   -9.6026  -15.3294 O   0  0  0  0  0  0  0  0  0  0  0  0
   -1.3811   -9.3905  -13.2543 O   0  0  0  0  0  0  0  0  0  0  0  0
   -2.6657   -9.2232  -13.8863 C   0  0  0  0  0  0  0  0  0  0  0  0
   -2.7612   -7.8822  -14.5935 C   0  0  0  0  0  0  0  0  0  0  0  0
    0.5803   -0.8923    0.3665 H   0  0  0  0  0  0  0  0  0  0  0  0
    0.6152    0.7642    0.9368 H   0  0  0  0  0  0  0  0  0  0  0  0
    2.0623    0.0540    0.1727 H   0  0  0  0  0  0  0  0  0  0  0  0
   -0.5757    0.6937   -1.2342 H   0  0  0  0  0  0  0  0  0  0  0  0
    0.8903    1.6199   -1.3962 H   0  0  0  0  0  0  0  0  0  0  0  0
    0.7317    0.0750   -3.2975 H   0  0  0  0  0  0  0  0  0  0  0  0
    2.1115   -0.3545   -2.3319 H   0  0  0  0  0  0  0  0  0  0  0  0
    0.8797   -2.4058   -2.8973 H   0  0  0  0  0  0  0  0  0  0  0  0
    0.8275   -2.1957   -1.1959 H   0  0  0  0  0  0  0  0  0  0  0  0
   -1.4385   -2.7388   -1.9257 H   0  0  0  0  0  0  0  0  0  0  0  0
   -1.4813   -1.1347   -1.3285 H   0  0  0  0  0  0  0  0  0  0  0  0
   -2.6513   -1.1304   -3.4721 H   0  0  0  0  0  0  0  0  0  0  0  0
   -1.2519   -0.1705   -3.6715 H   0  0  0  0  0  0  0  0  0  0  0  0
   -1.3514   -1.7040   -5.5825 H   0  0  0  0  0  0  0  0  0  0  0  0
    0.0424   -2.1177   -4.6827 H   0  0  0  0  0  0  0  0  0  0  0  0
   -1.1835   -4.1935   -5.1561 H   0  0  0  0  0  0  0  0  0  0  0  0
   -1.1910   -3.9749   -3.4637 H   0  0  0  0  0  0  0  0  0  0  0  0
   -3.4826   -4.4687   -4.1104 H   0  0  0  0  0  0  0  0  0  0  0  0
   -3.4985   -2.8950   -3.4946 H   0  0  0  0  0  0  0  0  0  0  0  0
   -4.7359   -2.8187   -5.6172 H   0  0  0  0  0  0  0  0  0  0  0  0
   -3.3135   -1.8581   -5.8507 H   0  0  0  0  0  0  0  0  0  0  0  0
   -3.4935   -3.4108   -7.7351 H   0  0  0  0  0  0  0  0  0  0  0  0
   -2.1292   -3.9132   -6.8525 H   0  0  0  0  0  0  0  0  0  0  0  0
   -3.5891   -5.7127   -7.1282 H   0  0  0  0  0  0  0  0  0  0  0  0
   -3.4099   -5.6759   -5.5515 H   0  0  0  0  0  0  0  0  0  0  0  0
   -5.5946   -6.3197   -6.4407 H   0  0  0  0  0  0  0  0  0  0  0  0
   -5.8962   -4.6727   -5.8751 H   0  0  0  0  0  0  0  0  0  0  0  0
   -6.6802   -4.9428   -8.2161 H   0  0  0  0  0  0  0  0  0  0  0  0
   -5.3504   -3.8455   -8.2777 H   0  0  0  0  0  0  0  0  0  0  0  0
   -2.7158   -7.1085   -7.5524 H   0  0  0  0  0  0  0  0  0  0  0  0
   -0.4574   -6.3229   -8.5567 H   0  0  0  0  0  0  0  0  0  0  0  0
    1.6055   -5.1774  -12.4261 H   0  0  0  0  0  0  0  0  0  0  0  0
    2.4892   -6.2717  -11.3780 H   0  0  0  0  0  0  0  0  0  0  0  0
    0.6003   -9.4690  -10.6250 H   0  0  0  0  0  0  0  0  0  0  0  0
    2.3494   -9.6349  -10.9674 H   0  0  0  0  0  0  0  0  0  0  0  0
    1.7100   -8.1077  -10.3632 H   0  0  0  0  0  0  0  0  0  0  0  0
    1.8185   -9.6408  -14.0964 H   0  0  0  0  0  0  0  0  0  0  0  0
    1.0089  -10.6165  -12.8592 H   0  0  0  0  0  0  0  0  0  0  0  0
   -2.8725  -10.0570  -14.5684 H   0  0  0  0  0  0  0  0  0  0  0  0
   -3.4248   -9.2634  -13.0958 H   0  0  0  0  0  0  0  0  0  0  0  0
   -2.0137   -7.7875  -15.3857 H   0  0  0  0  0  0  0  0  0  0  0  0
   -3.7466   -7.7396  -15.0428 H   0  0  0  0  0  0  0  0  0  0  0  0
   -2.5745   -7.0723  -13.8866 H   0  0  0  0  0  0  0  0  0  0  0  0
  1  2  1  0  0  0  0
  1 35  1  0  0  0  0
  1 36  1  0  0  0  0
  1 37  1  0  0  0  0
  2  3  1  0  0  0  0
  2 38  1  0  0  0  0
  2 39  1  0  0  0  0
  3  4  1  0  0  0  0
  3 40  1  0  0  0  0
  3 41  1  0  0  0  0
  4  5  1  0  0  0  0
  4 42  1  0  0  0  0
  4 43  1  0  0  0  0
  5  6  1  0  0  0  0
  5 44  1  0  0  0  0
  5 45  1  0  0  0  0
  6  7  1  0  0  0  0
  6 46  1  0  0  0  0
  6 47  1  0  0  0  0
  7  8  1  0  0  0  0
  7 48  1  0  0  0  0
  7 49  1  0  0  0  0
  8  9  1  0  0  0  0
  8 50  1  0  0  0  0
  8 51  1  0  0  0  0
  9 10  1  0  0  0  0
  9 52  1  0  0  0  0
  9 53  1  0  0  0  0
 10 11  1  0  0  0  0
 10 54  1  0  0  0  0
 10 55  1  0  0  0  0
 11 12  1  0  0  0  0
 11 56  1  0  0  0  0
 11 57  1  0  0  0  0
 12 13  1  0  0  0  0
 12 58  1  0  0  0  0
 12 59  1  0  0  0  0
 13 14  1  0  0  0  0
 13 60  1  0  0  0  0
 13 61  1  0  0  0  0
 14 15  1  0  0  0  0
 14 62  1  0  0  0  0
 14 63  1  0  0  0  0
 15 16  1  0  0  0  0
 16 17  2  0  0  0  0
 16 20  1  0  0  0  0
 17 18  1  0  0  0  0
 17 64  1  0  0  0  0
 18 19  2  0  0  0  0
 18 65  1  0  0  0  0
 19 20  1  0  0  0  0
 19 21  1  0  0  0  0
 21 22  2  0  0  0  0
 21 23  1  0  0  0  0
 23 24  1  0  0  0  0
 24 25  1  0  0  0  0
 24 66  1  0  0  0  0
 24 67  1  0  0  0  0
 25 26  2  0  0  0  0
 25 27  1  0  0  0  0
 27 28  1  0  0  0  0
 27 29  1  0  0  0  0
 28 68  1  0  0  0  0
 28 69  1  0  0  0  0
 28 70  1  0  0  0  0
 29 30  1  0  0  0  0
 29 71  1  0  0  0  0
 29 72  1  0  0  0  0
 30 31  2  0  0  0  0
 30 32  1  0  0  0  0
 32 33  1  0  0  0  0
 33 34  1  0  0  0  0
 33 73  1  0  0  0  0
 33 74  1  0  0  0  0
 34 75  1  0  0  0  0
 34 76  1  0  0  0  0
 34 77  1  0  0  0  0
M  END
>  <DRUGBANK_ID>
DB12642

>  <COMMON_NAME>
Olumacostat glasaretil

>  <CAS_NUMBER>
1261491-89-7

>  <UNII>
4W6JDK2PLY

>  <SYNONYMS>
Olumacostat glasaretil

$$$$
