902
 OpenBabel10282417113D

 41 44  0  0  1  0  0  0  0  0999 V2000
    0.0275    1.7261    0.1502 S   0  0  0  0  0  0  0  0  0  0  0  0
   -2.2405    0.0973    2.6269 N   0  0  0  0  0  0  0  0  0  0  0  0
    0.0243   -1.3168    0.6793 N   0  0  0  0  0  0  0  0  0  0  0  0
   -0.7420   -1.5690    3.1606 C   0  0  3  0  0  0  0  0  0  0  0  0
   -0.1578   -0.2225    3.6206 C   0  0  0  0  0  0  0  0  0  0  0  0
   -2.2383   -1.2967    3.0135 C   0  0  0  0  0  0  0  0  0  0  0  0
   -1.2908    0.7914    3.4697 C   0  0  0  0  0  0  0  0  0  0  0  0
   -0.0506   -2.1670    1.8991 C   0  0  0  0  0  0  0  0  0  0  0  0
   -3.5214    0.7237    2.4366 C   0  0  0  0  0  0  0  0  0  0  0  0
    1.2764   -0.7641    0.3412 C   0  0  0  0  0  0  0  0  0  0  0  0
   -1.1581   -0.8145    0.0911 C   0  0  0  0  0  0  0  0  0  0  0  0
    1.4086    0.6065    0.0277 C   0  0  0  0  0  0  0  0  0  0  0  0
   -1.2826    0.5628   -0.2136 C   0  0  0  0  0  0  0  0  0  0  0  0
    2.3773   -1.6036    0.1092 C   0  0  0  0  0  0  0  0  0  0  0  0
   -2.2409   -1.6558   -0.1988 C   0  0  0  0  0  0  0  0  0  0  0  0
    2.6040    1.1191   -0.4693 C   0  0  0  0  0  0  0  0  0  0  0  0
   -2.4892    1.0831   -0.6995 C   0  0  0  0  0  0  0  0  0  0  0  0
    3.5527   -1.0962   -0.4403 C   0  0  0  0  0  0  0  0  0  0  0  0
   -3.4436   -1.1317   -0.6889 C   0  0  0  0  0  0  0  0  0  0  0  0
    3.6719    0.2625   -0.7260 C   0  0  0  0  0  0  0  0  0  0  0  0
   -3.5681    0.2349   -0.9290 C   0  0  0  0  0  0  0  0  0  0  0  0
   -0.6129   -2.3014    3.9703 H   0  0  0  0  0  0  0  0  0  0  0  0
    0.1555   -0.2695    4.6699 H   0  0  0  0  0  0  0  0  0  0  0  0
    0.7238    0.0600    3.0385 H   0  0  0  0  0  0  0  0  0  0  0  0
   -2.7666   -1.4338    3.9628 H   0  0  0  0  0  0  0  0  0  0  0  0
   -2.7047   -1.9680    2.2894 H   0  0  0  0  0  0  0  0  0  0  0  0
   -0.9295    1.7225    3.0231 H   0  0  0  0  0  0  0  0  0  0  0  0
   -1.7317    1.0252    4.4437 H   0  0  0  0  0  0  0  0  0  0  0  0
   -0.5300   -3.1220    1.6492 H   0  0  0  0  0  0  0  0  0  0  0  0
    0.9636   -2.4447    2.2229 H   0  0  0  0  0  0  0  0  0  0  0  0
   -4.0978    0.8028    3.3572 H   0  0  0  0  0  0  0  0  0  0  0  0
   -3.3916    1.7243    2.0067 H   0  0  0  0  0  0  0  0  0  0  0  0
   -4.1207    0.1543    1.7200 H   0  0  0  0  0  0  0  0  0  0  0  0
    2.2808   -2.6754    0.2617 H   0  0  0  0  0  0  0  0  0  0  0  0
   -2.1752   -2.7190    0.0073 H   0  0  0  0  0  0  0  0  0  0  0  0
    2.6866    2.1752   -0.7128 H   0  0  0  0  0  0  0  0  0  0  0  0
   -2.6067    2.1556   -0.8235 H   0  0  0  0  0  0  0  0  0  0  0  0
    4.3684   -1.7728   -0.6868 H   0  0  0  0  0  0  0  0  0  0  0  0
   -4.2989   -1.7866   -0.8228 H   0  0  0  0  0  0  0  0  0  0  0  0
    4.5742    0.6546   -1.1793 H   0  0  0  0  0  0  0  0  0  0  0  0
   -4.5230    0.6529   -1.2375 H   0  0  0  0  0  0  0  0  0  0  0  0
  1 12  1  0  0  0  0
  1 13  1  0  0  0  0
  2  6  1  0  0  0  0
  2  7  1  0  0  0  0
  2  9  1  0  0  0  0
  3  8  1  0  0  0  0
  3 10  1  0  0  0  0
  3 11  1  0  0  0  0
  4  5  1  0  0  0  0
  4  6  1  0  0  0  0
  4  8  1  0  0  0  0
  4 22  1  0  0  0  0
  5  7  1  0  0  0  0
  5 23  1  0  0  0  0
  5 24  1  0  0  0  0
  6 25  1  0  0  0  0
  6 26  1  0  0  0  0
  7 27  1  0  0  0  0
  7 28  1  0  0  0  0
  8 29  1  0  0  0  0
  8 30  1  0  0  0  0
  9 31  1  0  0  0  0
  9 32  1  0  0  0  0
  9 33  1  0  0  0  0
 10 12  1  0  0  0  0
 10 14  2  0  0  0  0
 11 13  1  0  0  0  0
 11 15  2  0  0  0  0
 12 16  2  0  0  0  0
 13 17  2  0  0  0  0
 14 18  1  0  0  0  0
 14 34  1  0  0  0  0
 15 19  1  0  0  0  0
 15 35  1  0  0  0  0
 16 20  1  0  0  0  0
 16 36  1  0  0  0  0
 17 21  1  0  0  0  0
 17 37  1  0  0  0  0
 18 20  2  0  0  0  0
 18 38  1  0  0  0  0
 19 21  2  0  0  0  0
 19 39  1  0  0  0  0
 20 40  1  0  0  0  0
 21 41  1  0  0  0  0
M  END
>  <DRUGBANK_ID>
DB00902

>  <SECONDARY_ACCESSION_NUMBERS>
APRD00713

>  <COMMON_NAME>
Methdilazine

>  <CAS_NUMBER>
1982-37-2

>  <UNII>
4Q13LY9Z8X

>  <SYNONYMS>
Methdilazine; Methdilazinum; Metodilazina

$$$$
