
 OpenBabel10282417133D

 15 15  0  0  1  0  0  0  0  0999 V2000
    0.7506    0.2324    0.0501 O   0  0  0  0  0  0  0  0  0  0  0  0
    0.4439    1.7462   -0.3846 S   0  0  1  0  0  0  0  0  0  0  0  0
    0.8626    1.8669   -1.8125 O   0  0  0  0  0  0  0  0  0  0  0  0
   -1.3651    1.5985   -0.3899 C   0  0  0  0  0  0  0  0  0  0  0  0
   -2.0539    0.3819   -0.3519 C   0  0  0  0  0  0  0  0  0  0  0  0
   -3.4496    0.3602   -0.2394 C   0  0  0  0  0  0  0  0  0  0  0  0
   -4.1645    1.5557   -0.1527 C   0  0  0  0  0  0  0  0  0  0  0  0
   -3.4901    2.7707   -0.2062 C   0  0  0  0  0  0  0  0  0  0  0  0
   -2.1015    2.7930   -0.3558 C   0  0  0  0  0  0  0  0  0  0  0  0
    1.7055    0.0698   -0.1262 H   0  0  0  0  0  0  0  0  0  0  0  0
   -1.5180   -0.5634   -0.3984 H   0  0  0  0  0  0  0  0  0  0  0  0
   -3.9785   -0.5882   -0.2022 H   0  0  0  0  0  0  0  0  0  0  0  0
   -5.2467    1.5379   -0.0473 H   0  0  0  0  0  0  0  0  0  0  0  0
   -4.0408    3.7048   -0.1206 H   0  0  0  0  0  0  0  0  0  0  0  0
   -1.5931    3.7506   -0.4297 H   0  0  0  0  0  0  0  0  0  0  0  0
  1 10  1  0  0  0  0
  2  1  1  0  0  0  0
  2  3  2  6  0  0  0
  2  4  1  0  0  0  0
  4  5  2  0  0  0  0
  4  9  1  0  0  0  0
  5  6  1  0  0  0  0
  5 11  1  0  0  0  0
  6  7  2  0  0  0  0
  6 12  1  0  0  0  0
  7  8  1  0  0  0  0
  7 13  1  0  0  0  0
  8  9  2  0  0  0  0
  8 14  1  0  0  0  0
  9 15  1  0  0  0  0
M  END
>  <DRUGBANK_ID>
DB03848

>  <SECONDARY_ACCESSION_NUMBERS>
EXPT00732

>  <COMMON_NAME>
Benzenesulfinic acid

>  <CAS_NUMBER>
618-41-7

>  <UNII>
G9560D97PI

>  <SYNONYMS>
benzenesulphinic acid

$$$$
