RDA
 OpenBabel10282417173D

 46 47  0  0  0  0  0  0  0  0999 V2000
    1.1678   -0.0938    0.2395 C   0  0  0  0  0  0  0  0  0  0  0  0
    1.2020    0.5196    1.6171 O   0  0  0  0  0  0  0  0  0  0  0  0
    1.3489   -0.2242    2.8230 C   0  0  0  0  0  0  0  0  0  0  0  0
    1.9810   -1.3152    2.6875 O   0  0  0  0  0  0  0  0  0  0  0  0
    0.6010    0.1912    4.4146 C   0  0  0  0  0  0  0  0  0  0  0  0
   -0.8895    0.4378    4.7397 C   0  0  0  0  0  0  0  0  0  0  0  0
   -1.9304   -0.1226    4.0250 O   0  0  0  0  0  0  0  0  0  0  0  0
   -1.4284    1.4721    5.5985 C   0  0  0  0  0  0  0  0  0  0  0  0
   -0.5789    2.0624    6.5007 C   0  0  0  0  0  0  0  0  0  0  0  0
   -1.0748    3.2060    7.1005 O   0  0  0  0  0  0  0  0  0  0  0  0
    0.7884    1.6123    6.5310 C   0  0  0  0  0  0  0  0  0  0  0  0
    1.6802    2.2263    7.8882 Cl  0  0  0  0  0  0  0  0  0  0  0  0
    1.4441    0.8199    5.3996 C   0  0  0  0  0  0  0  0  0  0  0  0
    2.9406    0.9959    5.0144 C   0  0  0  0  0  0  0  0  0  0  0  0
    3.5398    2.3690    4.6022 C   0  0  0  0  0  0  0  0  0  0  0  0
    3.1639    3.4627    5.5345 C   0  0  0  0  0  0  0  0  0  0  0  0
    3.8961    3.7475    6.4870 O   0  0  0  0  0  0  0  0  0  0  0  0
    1.9430    4.0999    5.3304 N   0  0  0  0  0  0  0  0  0  0  0  0
    0.9632    3.9875    4.2248 C   0  0  0  0  0  0  0  0  0  0  0  0
    0.7034    2.7912    3.5144 C   0  0  0  0  0  0  0  0  0  0  0  0
   -0.3813    2.3512    2.6322 C   0  0  0  0  0  0  0  0  0  0  0  0
   -0.7796    1.0664    2.3030 O   0  0  0  0  0  0  0  0  0  0  0  0
   -1.4614    3.1552    2.5578 C   0  0  0  0  0  0  0  0  0  0  0  0
   -2.6556    2.7422    1.9696 O   0  0  0  0  0  0  0  0  0  0  0  0
   -2.8605    1.4227    1.3313 C   0  0  0  0  0  0  0  0  0  0  0  0
   -1.3228    4.3695    3.3085 C   0  0  0  0  0  0  0  0  0  0  0  0
   -0.1672    4.7649    4.1445 C   0  0  0  0  0  0  0  0  0  0  0  0
   -0.2520    5.8852    4.9326 O   0  0  0  0  0  0  0  0  0  0  0  0
    0.6341    0.5161   -0.5321 H   0  0  0  0  0  0  0  0  0  0  0  0
    0.6301   -1.0481    0.2608 H   0  0  0  0  0  0  0  0  0  0  0  0
    2.1856   -0.2169   -0.1361 H   0  0  0  0  0  0  0  0  0  0  0  0
   -1.9898    0.4061    3.2107 H   0  0  0  0  0  0  0  0  0  0  0  0
   -2.3930    1.9714    5.3675 H   0  0  0  0  0  0  0  0  0  0  0  0
   -0.3884    3.7162    7.5637 H   0  0  0  0  0  0  0  0  0  0  0  0
    3.5187    0.5349    5.8140 H   0  0  0  0  0  0  0  0  0  0  0  0
    3.1762    0.3846    4.1344 H   0  0  0  0  0  0  0  0  0  0  0  0
    4.6387    2.2935    4.5745 H   0  0  0  0  0  0  0  0  0  0  0  0
    3.2798    2.7110    3.5949 H   0  0  0  0  0  0  0  0  0  0  0  0
    1.7187    4.6135    6.1836 H   0  0  0  0  0  0  0  0  0  0  0  0
    0.4056    2.3023    4.4174 H   0  0  0  0  0  0  0  0  0  0  0  0
   -0.4732    0.1832    2.5772 H   0  0  0  0  0  0  0  0  0  0  0  0
   -2.0071    1.0235    0.7542 H   0  0  0  0  0  0  0  0  0  0  0  0
   -3.2249    0.6625    2.0433 H   0  0  0  0  0  0  0  0  0  0  0  0
   -3.6685    1.4591    0.6074 H   0  0  0  0  0  0  0  0  0  0  0  0
   -2.1650    5.0429    3.2966 H   0  0  0  0  0  0  0  0  0  0  0  0
    0.5866    5.9841    5.4217 H   0  0  0  0  0  0  0  0  0  0  0  0
  1  2  1  0  0  0  0
  1 29  1  0  0  0  0
  1 30  1  0  0  0  0
  1 31  1  0  0  0  0
  2  3  1  0  0  0  0
  3  4  2  0  0  0  0
  3  5  1  0  0  0  0
  5  6  1  0  0  0  0
  5 13  2  0  0  0  0
  6  7  1  0  0  0  0
  6  8  2  0  0  0  0
  7 32  1  0  0  0  0
  8  9  1  0  0  0  0
  8 33  1  0  0  0  0
  9 10  1  0  0  0  0
  9 11  2  0  0  0  0
 10 34  1  0  0  0  0
 11 12  1  0  0  0  0
 11 13  1  0  0  0  0
 13 14  1  0  0  0  0
 14 15  1  0  0  0  0
 14 35  1  0  0  0  0
 14 36  1  0  0  0  0
 15 16  1  0  0  0  0
 15 37  1  0  0  0  0
 15 38  1  0  0  0  0
 16 17  2  0  0  0  0
 16 18  1  0  0  0  0
 18 19  1  0  0  0  0
 18 39  1  0  0  0  0
 19 20  1  0  0  0  0
 19 27  2  0  0  0  0
 20 21  2  0  0  0  0
 20 40  1  0  0  0  0
 21 22  1  0  0  0  0
 21 23  1  0  0  0  0
 22 41  1  0  0  0  0
 23 24  1  0  0  0  0
 23 26  2  0  0  0  0
 24 25  1  0  0  0  0
 25 42  1  0  0  0  0
 25 43  1  0  0  0  0
 25 44  1  0  0  0  0
 26 27  1  0  0  0  0
 26 45  1  0  0  0  0
 27 28  1  0  0  0  0
 28 46  1  0  0  0  0
M  END
>  <DRUGBANK_ID>
DB08464

>  <COMMON_NAME>
METHYL 3-CHLORO-2-{3-[(2,5-DIHYDROXY-4-METHOXYPHENYL)AMINO]-3-OXOPROPYL}-4,6-DIHYDROXYBENZOATE

$$$$
