
 OpenBabel10282417113D

 47 50  0  0  1  0  0  0  0  0999 V2000
   -0.1031    0.6109    0.2178 C   0  0  2  0  0  0  0  0  0  0  0  0
   -0.1733   -0.8380   -0.5790 C   0  0  1  0  0  0  0  0  0  0  0  0
    1.1470    1.4593   -0.1372 C   0  0  1  0  0  0  0  0  0  0  0  0
   -1.3056    1.4729   -0.1639 C   0  0  0  0  0  0  0  0  0  0  0  0
   -1.5847   -1.6984   -0.2027 C   0  0  2  0  0  0  0  0  0  0  0  0
    1.2519   -1.4662   -0.2303 C   0  0  0  0  0  0  0  0  0  0  0  0
    2.5447    0.8111    0.0490 C   0  0  2  0  0  0  0  0  0  0  0  0
    1.2060    1.7483   -1.7274 C   0  0  0  0  0  0  0  0  0  0  0  0
   -2.5276    0.6934   -0.0488 C   0  0  0  0  0  0  0  0  0  0  0  0
   -2.6649   -0.6334    0.0513 C   0  0  0  0  0  0  0  0  0  0  0  0
   -2.5235   -2.5769   -1.4003 C   0  0  0  0  0  0  0  0  0  0  0  0
   -1.2380   -2.3811    1.1681 C   0  0  0  0  0  0  0  0  0  0  0  0
    2.4586   -0.5799   -0.6994 C   0  0  0  0  0  0  0  0  0  0  0  0
    3.1703    2.0099   -0.7273 C   0  0  0  0  0  0  0  0  0  0  0  0
    3.1982    0.5079    1.4108 C   0  0  0  0  0  0  0  0  0  0  0  0
    2.6606    2.0077   -2.1118 C   0  0  0  0  0  0  0  0  0  0  0  0
   -4.1172   -1.0691    0.2603 C   0  0  0  0  0  0  0  0  0  0  0  0
   -3.4103   -1.5759   -2.2369 C   0  0  0  0  0  0  0  0  0  0  0  0
    3.6132    3.0883   -0.2128 O   0  0  0  0  0  0  0  0  0  0  0  0
   -4.3640   -0.8896   -1.2374 C   0  0  0  0  0  0  0  0  0  0  0  0
   -5.2293   -0.1002   -1.6214 O   0  0  0  0  0  0  0  0  0  0  0  0
   -0.0715    0.4004    1.3004 H   0  0  0  0  0  0  0  0  0  0  0  0
   -0.2297   -0.6916   -1.6644 H   0  0  0  0  0  0  0  0  0  0  0  0
    1.0928    2.3985    0.4506 H   0  0  0  0  0  0  0  0  0  0  0  0
   -1.6544    2.4868    0.0967 H   0  0  0  0  0  0  0  0  0  0  0  0
   -0.9844    1.8599   -1.1087 H   0  0  0  0  0  0  0  0  0  0  0  0
    1.3741   -2.4781   -0.6300 H   0  0  0  0  0  0  0  0  0  0  0  0
    1.3665   -1.5595    0.8556 H   0  0  0  0  0  0  0  0  0  0  0  0
    0.4891    2.4129   -2.2231 H   0  0  0  0  0  0  0  0  0  0  0  0
    0.9324    0.8051   -2.1866 H   0  0  0  0  0  0  0  0  0  0  0  0
   -3.4354    1.2901   -0.0104 H   0  0  0  0  0  0  0  0  0  0  0  0
   -3.3090   -3.2284   -0.9494 H   0  0  0  0  0  0  0  0  0  0  0  0
   -1.9973   -3.2850   -2.0590 H   0  0  0  0  0  0  0  0  0  0  0  0
   -1.9692   -2.2285    1.9683 H   0  0  0  0  0  0  0  0  0  0  0  0
   -0.9134   -3.4260    1.1330 H   0  0  0  0  0  0  0  0  0  0  0  0
   -0.3871   -1.8582    1.6219 H   0  0  0  0  0  0  0  0  0  0  0  0
    3.4148   -1.1020   -0.5714 H   0  0  0  0  0  0  0  0  0  0  0  0
    2.3736   -0.5089   -1.7823 H   0  0  0  0  0  0  0  0  0  0  0  0
    3.4063   -0.5720    1.4866 H   0  0  0  0  0  0  0  0  0  0  0  0
    4.1961    0.9530    1.5329 H   0  0  0  0  0  0  0  0  0  0  0  0
    2.5814    0.7269    2.2835 H   0  0  0  0  0  0  0  0  0  0  0  0
    2.8911    2.8718   -2.7379 H   0  0  0  0  0  0  0  0  0  0  0  0
    3.0893    1.1336   -2.6032 H   0  0  0  0  0  0  0  0  0  0  0  0
   -4.5728   -2.0813    0.2198 H   0  0  0  0  0  0  0  0  0  0  0  0
   -3.7488   -1.4835    1.1985 H   0  0  0  0  0  0  0  0  0  0  0  0
   -4.0430   -1.9981   -3.0371 H   0  0  0  0  0  0  0  0  0  0  0  0
   -2.7600   -0.8292   -2.7059 H   0  0  0  0  0  0  0  0  0  0  0  0
  1  2  1  0  0  0  0
  1  3  1  0  0  0  0
  1  4  1  0  0  0  0
  1 22  1  6  0  0  0
  2  5  1  0  0  0  0
  2  6  1  0  0  0  0
  2 23  1  1  0  0  0
  3  7  1  0  0  0  0
  3  8  1  0  0  0  0
  3 24  1  1  0  0  0
  4  9  1  0  0  0  0
  4 25  1  0  0  0  0
  4 26  1  0  0  0  0
  5 10  1  0  0  0  0
  5 11  1  0  0  0  0
  5 12  1  6  0  0  0
  6 13  1  0  0  0  0
  6 27  1  0  0  0  0
  6 28  1  0  0  0  0
  7 14  1  0  0  0  0
  7 13  1  0  0  0  0
  7 15  1  6  0  0  0
  8 16  1  0  0  0  0
  8 29  1  0  0  0  0
  8 30  1  0  0  0  0
  9 10  2  0  0  0  0
  9 31  1  0  0  0  0
 10 17  1  0  0  0  0
 11 18  1  0  0  0  0
 11 32  1  0  0  0  0
 11 33  1  0  0  0  0
 12 34  1  0  0  0  0
 12 35  1  0  0  0  0
 12 36  1  0  0  0  0
 13 37  1  0  0  0  0
 13 38  1  0  0  0  0
 14 16  1  0  0  0  0
 14 19  2  0  0  0  0
 15 39  1  0  0  0  0
 15 40  1  0  0  0  0
 15 41  1  0  0  0  0
 16 42  1  0  0  0  0
 16 43  1  0  0  0  0
 17 20  1  0  0  0  0
 17 44  1  0  0  0  0
 17 45  1  0  0  0  0
 18 20  1  0  0  0  0
 18 46  1  0  0  0  0
 18 47  1  0  0  0  0
 20 21  2  0  0  0  0
M  END
>  <DRUGBANK_ID>
DB01456

>  <COMMON_NAME>
5-androstenedione

>  <CAS_NUMBER>
571-36-8

>  <UNII>
HEE11L5C3G

>  <SYNONYMS>
5-Androstene-3,17-dione; androst-5-ene-3,17-dione; delta5-Androstene-3,17-dione

$$$$
