
 OpenBabel10282417133D

 23 23  0  0  1  0  0  0  0  0999 V2000
    1.2181    0.0928    0.2401 C   0  0  0  0  0  0  0  0  0  0  0  0
    0.2406    1.2623    0.0399 C   0  0  2  0  0  0  0  0  0  0  0  0
   -0.7874    0.7996   -0.8448 O   0  0  0  0  0  0  0  0  0  0  0  0
   -0.3932    0.7781   -2.2360 C   0  0  2  0  0  0  0  0  0  0  0  0
    0.6831   -0.0999   -2.5257 O   0  0  0  0  0  0  0  0  0  0  0  0
   -0.1294    2.2137   -2.7213 C   0  0  1  0  0  0  0  0  0  0  0  0
   -1.3171    3.0082   -2.6082 O   0  0  0  0  0  0  0  0  0  0  0  0
    0.9968    2.8208   -1.8712 C   0  0  2  0  0  0  0  0  0  0  0  0
    2.2203    2.1252   -2.1451 O   0  0  0  0  0  0  0  0  0  0  0  0
    0.6461    2.7005   -0.3788 C   0  0  2  0  0  0  0  0  0  0  0  0
    1.6839    3.2405    0.4388 O   0  0  0  0  0  0  0  0  0  0  0  0
    1.0401   -0.7265   -0.4645 H   0  0  0  0  0  0  0  0  0  0  0  0
    0.9864   -0.3997    1.1928 H   0  0  0  0  0  0  0  0  0  0  0  0
    2.2788    0.3435    0.2284 H   0  0  0  0  0  0  0  0  0  0  0  0
   -0.1960    1.4033    1.0383 H   0  0  0  0  0  0  0  0  0  0  0  0
   -1.2611    0.3671   -2.7574 H   0  0  0  0  0  0  0  0  0  0  0  0
    1.5231    0.4093   -2.4337 H   0  0  0  0  0  0  0  0  0  0  0  0
    0.1733    2.1910   -3.7751 H   0  0  0  0  0  0  0  0  0  0  0  0
   -1.7186    2.8092   -1.7382 H   0  0  0  0  0  0  0  0  0  0  0  0
    1.1350    3.8801   -2.1375 H   0  0  0  0  0  0  0  0  0  0  0  0
    2.6663    1.9983   -1.2777 H   0  0  0  0  0  0  0  0  0  0  0  0
   -0.2343    3.3425   -0.2247 H   0  0  0  0  0  0  0  0  0  0  0  0
    1.2704    3.5304    1.2630 H   0  0  0  0  0  0  0  0  0  0  0  0
  1 12  1  0  0  0  0
  1 13  1  0  0  0  0
  1 14  1  0  0  0  0
  2  1  1  0  0  0  0
  2  3  1  0  0  0  0
  2 10  1  0  0  0  0
  2 15  1  1  0  0  0
  3  4  1  0  0  0  0
  4  5  1  0  0  0  0
  4  6  1  0  0  0  0
  4 16  1  6  0  0  0
  5 17  1  0  0  0  0
  6  8  1  0  0  0  0
  6 18  1  6  0  0  0
  6  7  1  0  0  0  0
  7 19  1  0  0  0  0
  8  9  1  0  0  0  0
  8 10  1  0  0  0  0
  8 20  1  6  0  0  0
  9 21  1  0  0  0  0
 10 22  1  1  0  0  0
 10 11  1  0  0  0  0
 11 23  1  0  0  0  0
M  END
>  <DRUGBANK_ID>
DB03283

>  <SECONDARY_ACCESSION_NUMBERS>
EXPT01510

>  <COMMON_NAME>
beta-L-fucose

>  <CAS_NUMBER>
13224-93-6

>  <UNII>
3MLV1G4S4M

>  <SYNONYMS>
6-deoxy-beta-L-galactopyranose; beta-L-fucopyranose

$$$$
