
 OpenBabel10282417123D

 43 44  0  0  0  0  0  0  0  0999 V2000
    1.1010    0.0769   -0.0857 C   0  0  0  0  0  0  0  0  0  0  0  0
    0.5453   -0.9166    0.9387 C   0  0  0  0  0  0  0  0  0  0  0  0
    1.0598   -0.6008    2.3435 C   0  0  0  0  0  0  0  0  0  0  0  0
   -0.9741   -0.9577    0.9377 C   0  0  0  0  0  0  0  0  0  0  0  0
   -1.7274    0.2339    0.9616 C   0  0  0  0  0  0  0  0  0  0  0  0
   -3.1306    0.2251    0.9699 C   0  0  0  0  0  0  0  0  0  0  0  0
   -3.9449    1.8159    0.9946 S   0  0  0  0  0  0  0  0  0  0  0  0
   -5.6897    1.4781    1.0255 C   0  0  0  0  0  0  0  0  0  0  0  0
   -6.2962    0.8208    2.0972 C   0  0  0  0  0  0  0  0  0  0  0  0
   -7.6731    0.5826    2.0975 C   0  0  0  0  0  0  0  0  0  0  0  0
   -8.4551    1.0377    1.0359 C   0  0  0  0  0  0  0  0  0  0  0  0
   -9.8045    0.8240    1.0403 O   0  0  0  0  0  0  0  0  0  0  0  0
   -7.8797    1.7186   -0.0412 C   0  0  0  0  0  0  0  0  0  0  0  0
   -6.4874    1.9329   -0.0289 C   0  0  0  0  0  0  0  0  0  0  0  0
   -8.7180    2.2180   -1.2055 C   0  0  0  0  0  0  0  0  0  0  0  0
   -8.6401    3.7417   -1.3240 C   0  0  0  0  0  0  0  0  0  0  0  0
   -8.2898    1.5401   -2.5090 C   0  0  0  0  0  0  0  0  0  0  0  0
   -3.7795   -1.0092    0.9609 C   0  0  0  0  0  0  0  0  0  0  0  0
   -3.0548   -2.2049    0.9699 C   0  0  0  0  0  0  0  0  0  0  0  0
   -1.6625   -2.1725    0.9536 C   0  0  0  0  0  0  0  0  0  0  0  0
   -0.9539   -3.3405    0.9542 O   0  0  0  0  0  0  0  0  0  0  0  0
    0.8190    1.1096    0.1433 H   0  0  0  0  0  0  0  0  0  0  0  0
    0.7317   -0.1565   -1.0907 H   0  0  0  0  0  0  0  0  0  0  0  0
    2.1946    0.0373   -0.1078 H   0  0  0  0  0  0  0  0  0  0  0  0
    0.9385   -1.9001    0.6520 H   0  0  0  0  0  0  0  0  0  0  0  0
    0.7243    0.3856    2.6824 H   0  0  0  0  0  0  0  0  0  0  0  0
    0.7010   -1.3405    3.0684 H   0  0  0  0  0  0  0  0  0  0  0  0
    2.1543   -0.6118    2.3670 H   0  0  0  0  0  0  0  0  0  0  0  0
   -1.2105    1.1911    0.9769 H   0  0  0  0  0  0  0  0  0  0  0  0
   -5.6941    0.4712    2.9328 H   0  0  0  0  0  0  0  0  0  0  0  0
   -8.1134    0.0442    2.9299 H   0  0  0  0  0  0  0  0  0  0  0  0
  -10.0598    0.3832    1.8657 H   0  0  0  0  0  0  0  0  0  0  0  0
   -6.0198    2.4662   -0.8544 H   0  0  0  0  0  0  0  0  0  0  0  0
   -9.7729    1.9642   -1.0448 H   0  0  0  0  0  0  0  0  0  0  0  0
   -7.6208    4.0850   -1.5308 H   0  0  0  0  0  0  0  0  0  0  0  0
   -9.2815    4.0992   -2.1359 H   0  0  0  0  0  0  0  0  0  0  0  0
   -8.9702    4.2214   -0.3956 H   0  0  0  0  0  0  0  0  0  0  0  0
   -8.3694    0.4502   -2.4241 H   0  0  0  0  0  0  0  0  0  0  0  0
   -8.9253    1.8624   -3.3398 H   0  0  0  0  0  0  0  0  0  0  0  0
   -7.2533    1.7771   -2.7720 H   0  0  0  0  0  0  0  0  0  0  0  0
   -4.8618   -1.0786    0.9494 H   0  0  0  0  0  0  0  0  0  0  0  0
   -3.5964   -3.1442    0.9897 H   0  0  0  0  0  0  0  0  0  0  0  0
   -1.5699   -4.0890    0.9203 H   0  0  0  0  0  0  0  0  0  0  0  0
  1  2  1  0  0  0  0
  1 22  1  0  0  0  0
  1 23  1  0  0  0  0
  1 24  1  0  0  0  0
  2  3  1  0  0  0  0
  2  4  1  0  0  0  0
  2 25  1  0  0  0  0
  3 26  1  0  0  0  0
  3 27  1  0  0  0  0
  3 28  1  0  0  0  0
  4  5  2  0  0  0  0
  4 20  1  0  0  0  0
  5  6  1  0  0  0  0
  5 29  1  0  0  0  0
  6  7  1  0  0  0  0
  6 18  2  0  0  0  0
  7  8  1  0  0  0  0
  8  9  2  0  0  0  0
  8 14  1  0  0  0  0
  9 10  1  0  0  0  0
  9 30  1  0  0  0  0
 10 11  2  0  0  0  0
 10 31  1  0  0  0  0
 11 12  1  0  0  0  0
 11 13  1  0  0  0  0
 12 32  1  0  0  0  0
 13 14  2  0  0  0  0
 13 15  1  0  0  0  0
 14 33  1  0  0  0  0
 15 16  1  0  0  0  0
 15 17  1  0  0  0  0
 15 34  1  0  0  0  0
 16 35  1  0  0  0  0
 16 36  1  0  0  0  0
 16 37  1  0  0  0  0
 17 38  1  0  0  0  0
 17 39  1  0  0  0  0
 17 40  1  0  0  0  0
 18 19  1  0  0  0  0
 18 41  1  0  0  0  0
 19 20  2  0  0  0  0
 19 42  1  0  0  0  0
 20 21  1  0  0  0  0
 21 43  1  0  0  0  0
M  END
>  <DRUGBANK_ID>
DB02881

>  <SECONDARY_ACCESSION_NUMBERS>
EXPT00056

>  <COMMON_NAME>
4-(4-Hydroxy-3-Isopropylphenylthio)-2-Isopropylphenol

$$$$
