
 OpenBabel10282417233D

 46 46  0  0  0  0  0  0  0  0999 V2000
   -4.0217   -1.0634   -4.8988 C   0  0  1  0  0  0  0  0  0  0  0  0
   -4.9249   -0.2468   -5.6833 O   0  0  0  0  0  0  0  0  0  0  0  0
   -2.9024   -1.4647   -5.8787 C   0  0  1  0  0  0  0  0  0  0  0  0
   -3.3255   -0.4550   -3.6517 C   0  0  1  0  0  0  0  0  0  0  0  0
   -6.0922    0.3084   -5.0434 C   0  0  2  0  0  0  0  0  0  0  0  0
   -2.0433   -0.2338   -6.3459 C   0  0  2  0  0  0  0  0  0  0  0  0
   -2.1762   -2.6108   -5.4154 O   0  0  0  0  0  0  0  0  0  0  0  0
   -3.9946    0.2733   -2.5510 C   0  0  0  0  0  0  0  0  0  0  0  0
   -2.3816   -1.3585   -3.1134 O   0  0  0  0  0  0  0  0  0  0  0  0
   -5.6907    1.6081   -4.6293 O   0  0  0  0  0  0  0  0  0  0  0  0
   -6.6323   -0.6272   -3.9482 C   0  0  1  0  0  0  0  0  0  0  0  0
   -1.7792    1.0333   -5.4672 C   0  0  0  0  0  0  0  0  0  0  0  0
   -2.7239    0.3153   -7.4949 O   0  0  0  0  0  0  0  0  0  0  0  0
   -4.5287   -0.5780   -1.5551 O   0  0  0  0  0  0  0  0  0  0  0  0
   -6.5071    2.2979   -3.6548 C   0  0  1  0  0  0  0  0  0  0  0  0
   -7.4462    0.0743   -2.8634 C   0  0  2  0  0  0  0  0  0  0  0  0
   -7.2558   -1.7986   -4.4894 O   0  0  0  0  0  0  0  0  0  0  0  0
   -2.7675    1.9946   -5.5218 O   0  0  0  0  0  0  0  0  0  0  0  0
   -0.9001    1.1235   -4.6415 O   0  0  0  0  0  0  0  0  0  0  0  0
   -6.9369    1.4621   -2.4107 C   0  0  1  0  0  0  0  0  0  0  0  0
   -5.7260    3.5532   -3.2150 C   0  0  0  0  0  0  0  0  0  0  0  0
   -7.6582   -0.8136   -1.7621 O   0  0  0  0  0  0  0  0  0  0  0  0
   -6.0034    1.5175   -1.3196 O   0  0  0  0  0  0  0  0  0  0  0  0
   -5.3293    4.3146   -4.3539 O   0  0  0  0  0  0  0  0  0  0  0  0
   -4.5099   -2.0054   -4.6145 H   0  0  0  0  0  0  0  0  0  0  0  0
   -3.3981   -1.8485   -6.7840 H   0  0  0  0  0  0  0  0  0  0  0  0
   -2.8547    0.4280   -3.9724 H   0  0  0  0  0  0  0  0  0  0  0  0
   -6.8546    0.4220   -5.8262 H   0  0  0  0  0  0  0  0  0  0  0  0
   -1.0449   -0.5849   -6.6198 H   0  0  0  0  0  0  0  0  0  0  0  0
   -2.0878   -2.5565   -4.4404 H   0  0  0  0  0  0  0  0  0  0  0  0
   -3.3688    1.0502   -2.0921 H   0  0  0  0  0  0  0  0  0  0  0  0
   -4.7554    0.8408   -3.0171 H   0  0  0  0  0  0  0  0  0  0  0  0
   -2.6902   -1.5632   -2.2106 H   0  0  0  0  0  0  0  0  0  0  0  0
   -5.8127   -1.0980   -3.4530 H   0  0  0  0  0  0  0  0  0  0  0  0
   -3.6789    0.2760   -7.2898 H   0  0  0  0  0  0  0  0  0  0  0  0
   -4.9170   -1.3638   -1.9762 H   0  0  0  0  0  0  0  0  0  0  0  0
   -7.4089    2.5979   -4.1939 H   0  0  0  0  0  0  0  0  0  0  0  0
   -8.4272    0.2454   -3.3084 H   0  0  0  0  0  0  0  0  0  0  0  0
   -8.1031   -1.5644   -4.8978 H   0  0  0  0  0  0  0  0  0  0  0  0
   -3.5420    1.7815   -6.0762 H   0  0  0  0  0  0  0  0  0  0  0  0
   -7.7787    1.9752   -1.9486 H   0  0  0  0  0  0  0  0  0  0  0  0
   -6.3578    4.1801   -2.5808 H   0  0  0  0  0  0  0  0  0  0  0  0
   -4.8125    3.3132   -2.6559 H   0  0  0  0  0  0  0  0  0  0  0  0
   -6.8513   -0.8933   -1.2239 H   0  0  0  0  0  0  0  0  0  0  0  0
   -5.5278    0.6806   -1.1447 H   0  0  0  0  0  0  0  0  0  0  0  0
   -4.6386    3.7882   -4.8000 H   0  0  0  0  0  0  0  0  0  0  0  0
  1  4  1  0  0  0  0
  1 25  1  1  0  0  0
  1  3  1  0  0  0  0
  1  2  1  0  0  0  0
  3  7  1  0  0  0  0
  3 26  1  6  0  0  0
  4  8  1  0  0  0  0
  4  9  1  0  0  0  0
  4 27  1  6  0  0  0
  5 10  1  0  0  0  0
  5 11  1  0  0  0  0
  5 28  1  6  0  0  0
  5  2  1  0  0  0  0
  6 13  1  0  0  0  0
  6 29  1  6  0  0  0
  6 12  1  0  0  0  0
  6  3  1  0  0  0  0
  7 30  1  0  0  0  0
  8 14  1  0  0  0  0
  8 31  1  0  0  0  0
  8 32  1  0  0  0  0
  9 33  1  0  0  0  0
 10 15  1  0  0  0  0
 11 16  1  0  0  0  0
 11 17  1  0  0  0  0
 11 34  1  1  0  0  0
 12 18  1  0  0  0  0
 12 19  2  0  0  0  0
 13 35  1  0  0  0  0
 14 36  1  0  0  0  0
 15 20  1  0  0  0  0
 15 21  1  0  0  0  0
 15 37  1  6  0  0  0
 16 22  1  0  0  0  0
 16 20  1  0  0  0  0
 16 38  1  6  0  0  0
 17 39  1  0  0  0  0
 18 40  1  0  0  0  0
 20 23  1  0  0  0  0
 20 41  1  1  0  0  0
 21 24  1  0  0  0  0
 21 42  1  0  0  0  0
 21 43  1  0  0  0  0
 22 44  1  0  0  0  0
 23 45  1  0  0  0  0
 24 46  1  0  0  0  0
M  END
>  <DRUGBANK_ID>
DB16621

>  <COMMON_NAME>
Lactobionic acid

>  <CAS_NUMBER>
96-82-2

>  <UNII>
65R938S4DV

>  <SYNONYMS>
Lactobionate

$$$$
