
 OpenBabel10282417173D

 62 64  0  0  0  0  0  0  0  0999 V2000
   -1.0645   -0.5117   -1.3445 O   0  0  0  0  0  0  0  0  0  0  0  0
   -3.0965   -0.9682   -0.5394 O   0  0  0  0  0  0  0  0  0  0  0  0
    1.0067   -1.1473   -1.2324 O   0  0  0  0  0  0  0  0  0  0  0  0
   -3.7357    0.2819    2.6857 N   0  0  0  0  0  0  0  0  0  0  0  0
    0.5941   -0.6734    1.0285 N   0  0  0  0  0  0  0  0  0  0  0  0
   -1.2326   -0.2109    0.9642 C   0  0  2  0  0  0  0  0  0  0  0  0
   -1.7812    1.7310    1.2181 C   0  0  1  0  0  0  0  0  0  0  0  0
   -1.8360   -1.2683    2.0095 C   0  0  0  0  0  0  0  0  0  0  0  0
   -3.4392    1.2656    1.5575 C   0  0  0  0  0  0  0  0  0  0  0  0
   -3.3099   -1.0755    2.3365 C   0  0  0  0  0  0  0  0  0  0  0  0
   -0.4743    3.0015    2.5495 C   0  0  0  0  0  0  0  0  0  0  0  0
   -1.9288   -0.6573   -0.3511 C   0  0  0  0  0  0  0  0  0  0  0  0
   -3.2521    0.6405    4.0805 C   0  0  0  0  0  0  0  0  0  0  0  0
    1.6055   -0.2743    2.3898 C   0  0  0  0  0  0  0  0  0  0  0  0
    1.3647   -0.7821   -0.1210 C   0  0  0  0  0  0  0  0  0  0  0  0
   -1.7571    0.6761    4.2905 C   0  0  0  0  0  0  0  0  0  0  0  0
    2.8372   -0.6229   -0.0306 C   0  0  0  0  0  0  0  0  0  0  0  0
    1.2717   -0.7435    3.6577 C   0  0  0  0  0  0  0  0  0  0  0  0
    2.2397    1.0470    2.5160 C   0  0  0  0  0  0  0  0  0  0  0  0
   -1.5408    1.5092    3.1451 C   0  0  0  0  0  0  0  0  0  0  0  0
   -1.2910   -1.2232   -2.5483 C   0  0  0  0  0  0  0  0  0  0  0  0
    3.3619    0.7821   -0.0394 C   0  0  0  0  0  0  0  0  0  0  0  0
    1.7663   -0.1209    4.8285 C   0  0  0  0  0  0  0  0  0  0  0  0
    2.8963    1.5871    3.6058 C   0  0  0  0  0  0  0  0  0  0  0  0
   -2.4501    3.0318    2.8736 C   0  0  0  0  0  0  0  0  0  0  0  0
   -0.1682    1.2531    1.9969 C   0  0  0  0  0  0  0  0  0  0  0  0
    2.6374    0.9784    4.7935 C   0  0  0  0  0  0  0  0  0  0  0  0
   -1.9897    4.0585    1.5333 C   0  0  0  0  0  0  0  0  0  0  0  0
    0.2088    2.3225    0.6144 C   0  0  0  0  0  0  0  0  0  0  0  0
   -0.6853    3.6977    0.4604 C   0  0  0  0  0  0  0  0  0  0  0  0
   -1.8627    2.0008    0.1381 H   0  0  0  0  0  0  0  0  0  0  0  0
   -1.6044   -2.3075    1.7219 H   0  0  0  0  0  0  0  0  0  0  0  0
   -1.2930   -1.3028    2.9350 H   0  0  0  0  0  0  0  0  0  0  0  0
   -4.0575    2.1686    1.6442 H   0  0  0  0  0  0  0  0  0  0  0  0
   -3.8392    0.8634    0.6138 H   0  0  0  0  0  0  0  0  0  0  0  0
   -3.8921   -1.4249    1.4888 H   0  0  0  0  0  0  0  0  0  0  0  0
   -3.5848   -1.7385    3.1674 H   0  0  0  0  0  0  0  0  0  0  0  0
    0.5436    2.6342    2.9162 H   0  0  0  0  0  0  0  0  0  0  0  0
   -0.2985    4.0787    2.6018 H   0  0  0  0  0  0  0  0  0  0  0  0
   -0.6372    2.9598    3.7443 H   0  0  0  0  0  0  0  0  0  0  0  0
   -3.6443    1.6345    4.3299 H   0  0  0  0  0  0  0  0  0  0  0  0
   -3.6628   -0.0085    4.8468 H   0  0  0  0  0  0  0  0  0  0  0  0
   -1.3166    1.2020    5.1294 H   0  0  0  0  0  0  0  0  0  0  0  0
   -1.2240   -0.2618    4.2729 H   0  0  0  0  0  0  0  0  0  0  0  0
    3.1755   -1.2466    0.7968 H   0  0  0  0  0  0  0  0  0  0  0  0
    3.1940   -1.0518   -0.9644 H   0  0  0  0  0  0  0  0  0  0  0  0
    0.4811   -1.4720    3.7633 H   0  0  0  0  0  0  0  0  0  0  0  0
    2.0623    1.8848    1.8097 H   0  0  0  0  0  0  0  0  0  0  0  0
   -0.3300   -1.3335   -3.0646 H   0  0  0  0  0  0  0  0  0  0  0  0
   -1.6897   -2.2292   -2.3778 H   0  0  0  0  0  0  0  0  0  0  0  0
   -1.9330   -0.5812   -3.1345 H   0  0  0  0  0  0  0  0  0  0  0  0
    3.2907    1.2230    0.9040 H   0  0  0  0  0  0  0  0  0  0  0  0
    4.4404    0.8254   -0.0659 H   0  0  0  0  0  0  0  0  0  0  0  0
    2.8449    1.4844   -0.6945 H   0  0  0  0  0  0  0  0  0  0  0  0
    1.4887   -0.5481    5.7834 H   0  0  0  0  0  0  0  0  0  0  0  0
    3.5237    2.4668    3.4679 H   0  0  0  0  0  0  0  0  0  0  0  0
   -2.6978    3.5064    3.8237 H   0  0  0  0  0  0  0  0  0  0  0  0
   -0.0402    0.3473    2.4076 H   0  0  0  0  0  0  0  0  0  0  0  0
    3.1019    1.3734    5.6846 H   0  0  0  0  0  0  0  0  0  0  0  0
   -1.9220    5.1231    1.8279 H   0  0  0  0  0  0  0  0  0  0  0  0
    0.9491    2.1295   -0.1644 H   0  0  0  0  0  0  0  0  0  0  0  0
   -0.2722    4.4781   -0.1800 H   0  0  0  0  0  0  0  0  0  0  0  0
  1 12  1  0  0  0  0
  1 21  1  0  0  0  0
  2 12  2  0  0  0  0
  3 15  2  0  0  0  0
  4  9  1  0  0  0  0
  4 10  1  0  0  0  0
  4 13  1  0  0  0  0
  5 14  1  0  0  0  0
  5 15  1  0  0  0  0
  6  7  1  0  0  0  0
  6  8  1  0  0  0  0
  6 12  1  6  0  0  0
  6  5  1  0  0  0  0
  7  9  1  0  0  0  0
  7 11  1  0  0  0  0
  7 31  1  6  0  0  0
  8 10  1  0  0  0  0
  8 32  1  0  0  0  0
  8 33  1  0  0  0  0
  9 34  1  0  0  0  0
  9 35  1  0  0  0  0
 10 36  1  0  0  0  0
 10 37  1  0  0  0  0
 11 38  1  0  0  0  0
 11 39  1  0  0  0  0
 11 40  1  0  0  0  0
 13 16  1  0  0  0  0
 13 41  1  0  0  0  0
 13 42  1  0  0  0  0
 14 18  2  0  0  0  0
 14 19  1  0  0  0  0
 15 17  1  0  0  0  0
 16 20  1  0  0  0  0
 16 43  1  0  0  0  0
 16 44  1  0  0  0  0
 17 22  1  0  0  0  0
 17 45  1  0  0  0  0
 17 46  1  0  0  0  0
 18 23  1  0  0  0  0
 18 47  1  0  0  0  0
 19 24  2  0  0  0  0
 19 48  1  0  0  0  0
 20 25  2  0  0  0  0
 20 26  1  0  0  0  0
 21 49  1  0  0  0  0
 21 50  1  0  0  0  0
 21 51  1  0  0  0  0
 22 52  1  0  0  0  0
 22 53  1  0  0  0  0
 22 54  1  0  0  0  0
 23 27  2  0  0  0  0
 23 55  1  0  0  0  0
 24 27  1  0  0  0  0
 24 56  1  0  0  0  0
 25 28  1  0  0  0  0
 25 57  1  0  0  0  0
 26 29  2  0  0  0  0
 26 58  1  0  0  0  0
 27 59  1  0  0  0  0
 28 30  2  0  0  0  0
 28 60  1  0  0  0  0
 29 30  1  0  0  0  0
 29 61  1  0  0  0  0
 30 62  1  0  0  0  0
M  END
>  <DRUGBANK_ID>
DB09174

>  <COMMON_NAME>
Lofentanil

>  <CAS_NUMBER>
61380-40-3

>  <UNII>
7H7YQ564XV

>  <SYNONYMS>
Lofentanil

$$$$
