K88
 OpenBabel10282417173D

 47 50  0  0  0  0  0  0  0  0999 V2000
    0.9752   -0.0801    0.0461 C   0  0  0  0  0  0  0  0  0  0  0  0
    0.4587   -1.4178   -0.3683 N   0  0  0  0  0  0  0  0  0  0  0  0
   -1.0200   -1.4268   -0.2850 C   0  0  0  0  0  0  0  0  0  0  0  0
    1.0898   -1.8788   -1.8984 S   0  0  0  0  0  0  0  0  0  0  0  0
    0.4767   -1.0086   -2.8825 O   0  0  0  0  0  0  0  0  0  0  0  0
    2.5299   -1.9627   -1.7836 O   0  0  0  0  0  0  0  0  0  0  0  0
    0.4824   -3.5423   -2.1765 C   0  0  0  0  0  0  0  0  0  0  0  0
    1.1553   -4.6472   -1.5992 C   0  0  0  0  0  0  0  0  0  0  0  0
    0.7432   -5.9288   -1.9552 C   0  0  0  0  0  0  0  0  0  0  0  0
   -0.5801   -3.7211   -3.0912 C   0  0  0  0  0  0  0  0  0  0  0  0
   -0.9805   -5.0050   -3.4525 C   0  0  0  0  0  0  0  0  0  0  0  0
   -0.3022   -6.0677   -2.8846 C   0  0  0  0  0  0  0  0  0  0  0  0
   -0.5411   -7.4013   -3.1718 N   0  0  0  0  0  0  0  0  0  0  0  0
    0.3011   -8.2341   -2.4739 C   0  0  0  0  0  0  0  0  0  0  0  0
    0.3118   -9.4468   -2.5779 O   0  0  0  0  0  0  0  0  0  0  0  0
    1.1675   -7.3198   -1.6325 C   0  0  0  0  0  0  0  0  0  0  0  0
    2.0857   -7.7600   -0.7498 C   0  0  0  0  0  0  0  0  0  0  0  0
    2.3794   -9.1426   -0.5333 C   0  0  0  0  0  0  0  0  0  0  0  0
    2.3168   -9.9667    0.5806 C   0  0  0  0  0  0  0  0  0  0  0  0
    2.7167  -11.2733    0.1894 C   0  0  0  0  0  0  0  0  0  0  0  0
    2.7670  -12.5494    0.9655 C   0  0  0  0  0  0  0  0  0  0  0  0
    3.5376  -13.6465    0.2011 C   0  0  0  0  0  0  0  0  0  0  0  0
    3.1793  -13.6716   -1.2965 C   0  0  0  0  0  0  0  0  0  0  0  0
    3.5369  -12.3398   -1.9843 C   0  0  0  0  0  0  0  0  0  0  0  0
    3.0465  -11.2075   -1.1473 C   0  0  0  0  0  0  0  0  0  0  0  0
    2.8339   -9.9258   -1.5809 N   0  0  0  0  0  0  0  0  0  0  0  0
    0.6082    0.1763    1.0459 H   0  0  0  0  0  0  0  0  0  0  0  0
    0.6314    0.6941   -0.6489 H   0  0  0  0  0  0  0  0  0  0  0  0
    2.0678   -0.0746    0.0873 H   0  0  0  0  0  0  0  0  0  0  0  0
   -1.4531   -0.7181   -0.9969 H   0  0  0  0  0  0  0  0  0  0  0  0
   -1.4121   -2.4288   -0.4696 H   0  0  0  0  0  0  0  0  0  0  0  0
   -1.3396   -1.1386    0.7225 H   0  0  0  0  0  0  0  0  0  0  0  0
    1.9872   -4.4814   -0.9216 H   0  0  0  0  0  0  0  0  0  0  0  0
   -1.0812   -2.8657   -3.5439 H   0  0  0  0  0  0  0  0  0  0  0  0
   -1.7800   -5.1643   -4.1687 H   0  0  0  0  0  0  0  0  0  0  0  0
   -1.2172   -7.7684   -3.8224 H   0  0  0  0  0  0  0  0  0  0  0  0
    2.6124   -7.0521   -0.1145 H   0  0  0  0  0  0  0  0  0  0  0  0
    1.9783   -9.6736    1.5651 H   0  0  0  0  0  0  0  0  0  0  0  0
    1.7429  -12.8984    1.1484 H   0  0  0  0  0  0  0  0  0  0  0  0
    3.2385  -12.3843    1.9398 H   0  0  0  0  0  0  0  0  0  0  0  0
    3.3286  -14.6239    0.6511 H   0  0  0  0  0  0  0  0  0  0  0  0
    4.6166  -13.4721    0.3039 H   0  0  0  0  0  0  0  0  0  0  0  0
    3.7011  -14.4982   -1.7923 H   0  0  0  0  0  0  0  0  0  0  0  0
    2.1030  -13.8613   -1.4013 H   0  0  0  0  0  0  0  0  0  0  0  0
    4.6275  -12.2648   -2.0770 H   0  0  0  0  0  0  0  0  0  0  0  0
    3.1141  -12.3158   -2.9941 H   0  0  0  0  0  0  0  0  0  0  0  0
    2.9027   -9.6238   -2.5430 H   0  0  0  0  0  0  0  0  0  0  0  0
  1  2  1  0  0  0  0
  1 27  1  0  0  0  0
  1 28  1  0  0  0  0
  1 29  1  0  0  0  0
  2  3  1  0  0  0  0
  2  4  1  0  0  0  0
  3 30  1  0  0  0  0
  3 31  1  0  0  0  0
  3 32  1  0  0  0  0
  4  5  2  0  0  0  0
  4  6  2  0  0  0  0
  4  7  1  0  0  0  0
  7  8  1  0  0  0  0
  7 10  2  0  0  0  0
  8  9  2  0  0  0  0
  8 33  1  0  0  0  0
  9 12  1  0  0  0  0
  9 16  1  0  0  0  0
 10 11  1  0  0  0  0
 10 34  1  0  0  0  0
 11 12  2  0  0  0  0
 11 35  1  0  0  0  0
 12 13  1  0  0  0  0
 13 14  1  0  0  0  0
 13 36  1  0  0  0  0
 14 15  2  0  0  0  0
 14 16  1  0  0  0  0
 16 17  2  0  0  0  0
 17 18  1  0  0  0  0
 17 37  1  0  0  0  0
 18 19  2  0  0  0  0
 18 26  1  0  0  0  0
 19 20  1  0  0  0  0
 19 38  1  0  0  0  0
 20 21  1  0  0  0  0
 20 25  2  0  0  0  0
 21 22  1  0  0  0  0
 21 39  1  0  0  0  0
 21 40  1  0  0  0  0
 22 23  1  0  0  0  0
 22 41  1  0  0  0  0
 22 42  1  0  0  0  0
 23 24  1  0  0  0  0
 23 43  1  0  0  0  0
 23 44  1  0  0  0  0
 24 25  1  0  0  0  0
 24 45  1  0  0  0  0
 24 46  1  0  0  0  0
 25 26  1  0  0  0  0
 26 47  1  0  0  0  0
M  END
>  <DRUGBANK_ID>
DB08039

>  <COMMON_NAME>
(3Z)-N,N-DIMETHYL-2-OXO-3-(4,5,6,7-TETRAHYDRO-1H-INDOL-2-YLMETHYLIDENE)-2,3-DIHYDRO-1H-INDOLE-5-SULFONAMIDE

$$$$
