
 OpenBabel10282417133D

 12 11  0  0  0  0  0  0  0  0999 V2000
    1.0713    0.1064   -0.0352 Br  0  0  0  0  0  0  0  0  0  0  0  0
    3.0979   -0.8437    2.2423 O   0  0  0  0  0  0  0  0  0  0  0  0
    3.5318    0.2377    1.4168 C   0  0  2  0  0  0  0  0  0  0  0  0
    3.0241    0.0640   -0.0099 C   0  0  0  0  0  0  0  0  0  0  0  0
    5.0538    0.2444    1.4362 C   0  0  0  0  0  0  0  0  0  0  0  0
    2.1220   -0.8496    2.2103 H   0  0  0  0  0  0  0  0  0  0  0  0
    3.1573    1.1684    1.8584 H   0  0  0  0  0  0  0  0  0  0  0  0
    3.3066   -0.9038   -0.4336 H   0  0  0  0  0  0  0  0  0  0  0  0
    3.3578    0.8737   -0.6643 H   0  0  0  0  0  0  0  0  0  0  0  0
    5.4557    1.0641    0.8330 H   0  0  0  0  0  0  0  0  0  0  0  0
    5.4261    0.3471    2.4610 H   0  0  0  0  0  0  0  0  0  0  0  0
    5.4521   -0.7014    1.0513 H   0  0  0  0  0  0  0  0  0  0  0  0
  1  4  1  0  0  0  0
  2  6  1  0  0  0  0
  3  2  1  0  0  0  0
  3  4  1  0  0  0  0
  3  5  1  0  0  0  0
  3  7  1  1  0  0  0
  4  8  1  0  0  0  0
  4  9  1  0  0  0  0
  5 10  1  0  0  0  0
  5 11  1  0  0  0  0
  5 12  1  0  0  0  0
M  END
>  <DRUGBANK_ID>
DB03335

>  <SECONDARY_ACCESSION_NUMBERS>
EXPT00069

>  <COMMON_NAME>
(+)-1-bromo-2-propanol

>  <CAS_NUMBER>
16088-60-1

>  <UNII>
S33341KT5O

>  <SYNONYMS>
(S)-(+)-1-Bromo-2-propanol

$$$$
