1416
 OpenBabel10282417113D

 45 47  0  0  1  0  0  0  0  0999 V2000
    1.5399    0.9478    0.5984 S   0  0  0  0  0  0  0  0  0  0  0  0
   -5.0426    6.5501   -3.3113 S   0  0  0  0  0  0  0  0  0  0  0  0
   -2.7147   -0.4143    0.6689 O   0  0  0  0  0  0  0  0  0  0  0  0
    1.6410   -3.6639    1.4810 O   0  0  0  0  0  0  0  0  0  0  0  0
   -2.1784   -2.8387   -0.3672 O   0  0  0  0  0  0  0  0  0  0  0  0
   -0.4200   -4.1200    0.0018 O   0  0  0  0  0  0  0  0  0  0  0  0
   -2.1983    4.8438    0.4859 O   0  0  0  0  0  0  0  0  0  0  0  0
   -2.1791    1.6170   -2.3520 O   0  0  0  0  0  0  0  0  0  0  0  0
   -0.5753   -0.4757   -0.2293 N   0  0  0  0  0  0  0  0  0  0  0  0
   -1.3391    2.7855    0.5329 N   0  0  0  0  0  0  0  0  0  0  0  0
   -2.8497    2.7747   -2.6183 N   0  0  0  0  0  0  0  0  0  0  0  0
   -2.8571    6.2433   -1.9968 N   0  0  0  0  0  0  0  0  0  0  0  0
   -3.3110    8.4510   -2.6334 N   0  0  0  0  0  0  0  0  0  0  0  0
    0.1385    0.7850   -0.4827 C   0  0  1  0  0  0  0  0  0  0  0  0
   -1.1125    1.4609    0.0267 C   0  0  1  0  0  0  0  0  0  0  0  0
   -1.6892    0.0902    0.3161 C   0  0  0  0  0  0  0  0  0  0  0  0
   -0.0098   -1.7134   -0.1316 C   0  0  0  0  0  0  0  0  0  0  0  0
    1.3437   -1.7792   -0.0209 C   0  0  0  0  0  0  0  0  0  0  0  0
    2.2781   -0.5813   -0.0023 C   0  0  0  0  0  0  0  0  0  0  0  0
    2.0820   -3.0677    0.2639 C   0  0  0  0  0  0  0  0  0  0  0  0
   -0.8640   -2.9869   -0.1025 C   0  0  0  0  0  0  0  0  0  0  0  0
   -2.0570    3.8060   -0.1679 C   0  0  0  0  0  0  0  0  0  0  0  0
   -2.7425    3.7244   -1.6816 C   0  0  0  0  0  0  0  0  0  0  0  0
   -3.4205    4.9713   -2.1313 C   0  0  0  0  0  0  0  0  0  0  0  0
    1.7644   -2.8412    2.6263 C   0  0  0  0  0  0  0  0  0  0  0  0
   -4.6277    4.9699   -2.8117 C   0  0  0  0  0  0  0  0  0  0  0  0
   -3.6111    7.1481   -2.5770 C   0  0  0  0  0  0  0  0  0  0  0  0
   -2.1667    0.4487   -3.1146 C   0  0  0  0  0  0  0  0  0  0  0  0
    0.3471    0.9346   -1.5575 H   0  0  0  0  0  0  0  0  0  0  0  0
   -2.5558   -1.9420   -0.3007 H   0  0  0  0  0  0  0  0  0  0  0  0
   -1.0168    3.0465    1.4592 H   0  0  0  0  0  0  0  0  0  0  0  0
   -3.9187    9.1244   -3.0810 H   0  0  0  0  0  0  0  0  0  0  0  0
   -2.4895    8.8026   -2.1598 H   0  0  0  0  0  0  0  0  0  0  0  0
   -1.6313    1.7249   -0.8018 H   0  0  0  0  0  0  0  0  0  0  0  0
    2.6948   -0.4264   -1.0028 H   0  0  0  0  0  0  0  0  0  0  0  0
    3.1012   -0.7430    0.6958 H   0  0  0  0  0  0  0  0  0  0  0  0
    1.9362   -3.7697   -0.5649 H   0  0  0  0  0  0  0  0  0  0  0  0
    3.1630   -2.9143    0.3386 H   0  0  0  0  0  0  0  0  0  0  0  0
    2.8202   -2.6502    2.8204 H   0  0  0  0  0  0  0  0  0  0  0  0
    1.2235   -1.8976    2.5085 H   0  0  0  0  0  0  0  0  0  0  0  0
    1.3177   -3.3636    3.4752 H   0  0  0  0  0  0  0  0  0  0  0  0
   -5.2532    4.1226   -3.0517 H   0  0  0  0  0  0  0  0  0  0  0  0
   -3.1408   -0.0182   -3.2243 H   0  0  0  0  0  0  0  0  0  0  0  0
   -1.5453    0.5702   -3.9959 H   0  0  0  0  0  0  0  0  0  0  0  0
   -1.6015   -0.2716   -2.5007 H   0  0  0  0  0  0  0  0  0  0  0  0
  1 14  1  0  0  0  0
  1 19  1  0  0  0  0
  2 26  1  0  0  0  0
  2 27  1  0  0  0  0
  3 16  2  0  0  0  0
  4 20  1  0  0  0  0
  4 25  1  0  0  0  0
  5 21  1  0  0  0  0
  5 30  1  0  0  0  0
  6 21  2  0  0  0  0
  7 22  2  0  0  0  0
  8 11  1  0  0  0  0
  8 28  1  0  0  0  0
  9 14  1  0  0  0  0
  9 16  1  0  0  0  0
  9 17  1  0  0  0  0
 10 22  1  0  0  0  0
 10 31  1  0  0  0  0
 11 23  2  0  0  0  0
 12 24  1  0  0  0  0
 12 27  2  0  0  0  0
 13 27  1  0  0  0  0
 13 32  1  0  0  0  0
 13 33  1  0  0  0  0
 14 15  1  0  0  0  0
 14 29  1  6  0  0  0
 15 10  1  0  0  0  0
 15 16  1  0  0  0  0
 15 34  1  6  0  0  0
 17 18  2  0  0  0  0
 17 21  1  0  0  0  0
 18 19  1  0  0  0  0
 18 20  1  0  0  0  0
 19 35  1  0  0  0  0
 19 36  1  0  0  0  0
 20 37  1  0  0  0  0
 20 38  1  0  0  0  0
 22 23  1  0  0  0  0
 23 24  1  0  0  0  0
 24 26  2  0  0  0  0
 25 39  1  0  0  0  0
 25 40  1  0  0  0  0
 25 41  1  0  0  0  0
 26 42  1  0  0  0  0
 28 43  1  0  0  0  0
 28 44  1  0  0  0  0
 28 45  1  0  0  0  0
M  END
>  <DRUGBANK_ID>
DB01416

>  <COMMON_NAME>
Cefpodoxime

>  <CAS_NUMBER>
80210-62-4

>  <UNII>
7R4F94TVGY

>  <SYNONYMS>
Cefpodoxima; Cefpodoxime; Cefpodoximum

$$$$
