202
 OpenBabel10282417103D

 50 49  0  0  0  0  0  0  0  0999 V2000
    1.1073   -0.3117    0.0491 O   0  0  0  0  0  0  0  0  0  0  0  0
    1.0017    1.9538   -3.7865 O   0  0  0  0  0  0  0  0  0  0  0  0
    2.8534   -1.5884    0.7388 O   0  0  0  0  0  0  0  0  0  0  0  0
    0.2500   -0.1861   -3.0927 O   0  0  0  0  0  0  0  0  0  0  0  0
    1.6680    2.9673    0.7809 N   0  3  0  0  0  0  0  0  0  0  0  0
    3.6041    2.9850   -2.1687 N   0  3  0  0  0  0  0  0  0  0  0  0
    0.2320    2.3324    0.6996 C   0  0  0  0  0  0  0  0  0  0  0  0
    2.8099    4.1233   -3.0525 C   0  0  0  0  0  0  0  0  0  0  0  0
    1.8573    3.8803   -0.4130 C   0  0  0  0  0  0  0  0  0  0  0  0
    2.0887    4.2284    1.5250 C   0  0  0  0  0  0  0  0  0  0  0  0
    2.6347    1.8689    1.4604 C   0  0  0  0  0  0  0  0  0  0  0  0
    4.6645    2.3930   -3.1410 C   0  0  0  0  0  0  0  0  0  0  0  0
    4.6792    3.6801   -1.0491 C   0  0  0  0  0  0  0  0  0  0  0  0
    2.4014    1.8803   -1.5898 C   0  0  0  0  0  0  0  0  0  0  0  0
    0.0533    0.8996   -0.1416 C   0  0  0  0  0  0  0  0  0  0  0  0
    1.7875    3.3515   -4.0322 C   0  0  0  0  0  0  0  0  0  0  0  0
    3.5188   -0.2117   -1.1756 C   0  0  0  0  0  0  0  0  0  0  0  0
    2.8463   -0.0174   -2.8348 C   0  0  0  0  0  0  0  0  0  0  0  0
    2.4359   -0.8631   -0.1011 C   0  0  0  0  0  0  0  0  0  0  0  0
    1.2608    0.4906   -3.4266 C   0  0  0  0  0  0  0  0  0  0  0  0
   -0.3694    3.0748    0.1516 H   0  0  0  0  0  0  0  0  0  0  0  0
   -0.0846    2.2645    1.7264 H   0  0  0  0  0  0  0  0  0  0  0  0
    3.5621    4.8160   -3.4710 H   0  0  0  0  0  0  0  0  0  0  0  0
    2.3033    4.8815   -2.3993 H   0  0  0  0  0  0  0  0  0  0  0  0
    0.8615    4.1109   -0.7597 H   0  0  0  0  0  0  0  0  0  0  0  0
    2.8039    3.4293   -0.4656 H   0  0  0  0  0  0  0  0  0  0  0  0
    1.6886    3.6251   -1.4585 H   0  0  0  0  0  0  0  0  0  0  0  0
    1.7438    4.1474    2.5184 H   0  0  0  0  0  0  0  0  0  0  0  0
    3.2008    4.2573    1.4326 H   0  0  0  0  0  0  0  0  0  0  0  0
    1.7257    5.1439    0.9993 H   0  0  0  0  0  0  0  0  0  0  0  0
    2.2926    1.6594    2.4731 H   0  0  0  0  0  0  0  0  0  0  0  0
    2.4538    0.9455    0.9864 H   0  0  0  0  0  0  0  0  0  0  0  0
    3.7184    2.0298    1.3453 H   0  0  0  0  0  0  0  0  0  0  0  0
    5.3662    3.1863   -3.3880 H   0  0  0  0  0  0  0  0  0  0  0  0
    5.1578    1.5762   -2.6084 H   0  0  0  0  0  0  0  0  0  0  0  0
    4.1991    2.0898   -4.0821 H   0  0  0  0  0  0  0  0  0  0  0  0
    4.1596    4.4352   -0.4564 H   0  0  0  0  0  0  0  0  0  0  0  0
    5.0666    2.8721   -0.4144 H   0  0  0  0  0  0  0  0  0  0  0  0
    5.4308    4.2746   -1.5688 H   0  0  0  0  0  0  0  0  0  0  0  0
    1.5110    2.1646   -1.0754 H   0  0  0  0  0  0  0  0  0  0  0  0
    1.6305    1.7732   -2.2341 H   0  0  0  0  0  0  0  0  0  0  0  0
    2.3715    1.1497   -0.8584 H   0  0  0  0  0  0  0  0  0  0  0  0
   -0.0630    1.1257   -1.2077 H   0  0  0  0  0  0  0  0  0  0  0  0
   -0.9628    0.4987    0.0346 H   0  0  0  0  0  0  0  0  0  0  0  0
    2.3784    3.0411   -4.8661 H   0  0  0  0  0  0  0  0  0  0  0  0
    1.0105    4.0927   -4.3171 H   0  0  0  0  0  0  0  0  0  0  0  0
    3.8247    0.7586   -0.6335 H   0  0  0  0  0  0  0  0  0  0  0  0
    4.6379   -0.3040   -1.0541 H   0  0  0  0  0  0  0  0  0  0  0  0
    3.3186    0.8398   -3.2333 H   0  0  0  0  0  0  0  0  0  0  0  0
    3.2705   -0.8136   -3.4283 H   0  0  0  0  0  0  0  0  0  0  0  0
  1 15  1  0  0  0  0
  1 19  1  0  0  0  0
  2 16  1  0  0  0  0
  2 20  1  0  0  0  0
  3 19  2  0  0  0  0
  4 20  2  0  0  0  0
  5  7  1  0  0  0  0
  5  9  1  0  0  0  0
  5 10  1  0  0  0  0
  5 11  1  0  0  0  0
  6  8  1  0  0  0  0
  6 12  1  0  0  0  0
  6 13  1  0  0  0  0
  6 14  1  0  0  0  0
  7 15  1  0  0  0  0
  7 21  1  0  0  0  0
  7 22  1  0  0  0  0
  8 16  1  0  0  0  0
  8 23  1  0  0  0  0
  8 24  1  0  0  0  0
  9 25  1  0  0  0  0
  9 26  1  0  0  0  0
  9 27  1  0  0  0  0
 10 28  1  0  0  0  0
 10 29  1  0  0  0  0
 10 30  1  0  0  0  0
 11 31  1  0  0  0  0
 11 32  1  0  0  0  0
 11 33  1  0  0  0  0
 12 34  1  0  0  0  0
 12 35  1  0  0  0  0
 12 36  1  0  0  0  0
 13 37  1  0  0  0  0
 13 38  1  0  0  0  0
 13 39  1  0  0  0  0
 14 40  1  0  0  0  0
 14 41  1  0  0  0  0
 14 42  1  0  0  0  0
 15 43  1  0  0  0  0
 15 44  1  0  0  0  0
 16 45  1  0  0  0  0
 16 46  1  0  0  0  0
 17 18  1  0  0  0  0
 17 19  1  0  0  0  0
 17 47  1  0  0  0  0
 17 48  1  0  0  0  0
 18 20  1  0  0  0  0
 18 49  1  0  0  0  0
 18 50  1  0  0  0  0
M  CHG  2   5   1   6   1
M  END
>  <DRUGBANK_ID>
DB00202

>  <SECONDARY_ACCESSION_NUMBERS>
APRD00159

>  <COMMON_NAME>
Succinylcholine

>  <CAS_NUMBER>
306-40-1

>  <UNII>
J2R869A8YF

>  <SYNONYMS>
2,2'-[(1,4-dioxobutane-1,4-diyl)bis(oxy)]bis(N,N,N-trimethylethanaminium); Dicholine succinate; Succinocholine; Succinoylcholine; Succinylbischoline; Succinyldicholine; Suxamethonium

$$$$
