ANS
 OpenBabel10282417163D

 30 31  0  0  0  0  0  0  0  0999 V2000
    1.2454   -1.4760    0.0040 C   0  0  0  0  0  0  0  0  0  0  0  0
    2.4920   -0.8436   -0.0308 C   0  0  0  0  0  0  0  0  0  0  0  0
    2.5405    0.5235   -0.0143 C   0  0  0  0  0  0  0  0  0  0  0  0
    1.3510    1.2357    0.0327 C   0  0  0  0  0  0  0  0  0  0  0  0
    0.0410    0.6810    0.0138 C   0  0  0  0  0  0  0  0  0  0  0  0
   -1.1993    1.4521   -0.0068 C   0  0  0  0  0  0  0  0  0  0  0  0
   -2.3962    0.6974   -0.0109 C   0  0  0  0  0  0  0  0  0  0  0  0
   -2.4254   -0.6916   -0.0016 C   0  0  0  0  0  0  0  0  0  0  0  0
   -1.2403   -1.4012    0.0144 C   0  0  0  0  0  0  0  0  0  0  0  0
    0.0117   -0.7520    0.0129 C   0  0  0  0  0  0  0  0  0  0  0  0
   -1.2783    2.8539   -0.0378 N   0  0  0  0  0  0  0  0  0  0  0  0
   -2.5299    3.6077   -0.0756 C   0  0  0  0  0  0  0  0  0  0  0  0
   -0.1192    3.7354   -0.0503 C   0  0  0  0  0  0  0  0  0  0  0  0
    1.2570   -3.2493    0.0484 S   0  0  0  0  0  0  0  0  0  0  0  0
    0.7427   -3.6740    1.3290 O   0  0  0  0  0  0  0  0  0  0  0  0
    0.6966   -3.7375   -1.1954 O   0  0  0  0  0  0  0  0  0  0  0  0
    2.8103   -3.6915    0.0300 O   0  0  0  0  0  0  0  0  0  0  0  0
    3.4271   -1.3917   -0.0591 H   0  0  0  0  0  0  0  0  0  0  0  0
    3.4785    1.0713   -0.0297 H   0  0  0  0  0  0  0  0  0  0  0  0
    1.5440    2.2879    0.0903 H   0  0  0  0  0  0  0  0  0  0  0  0
   -3.3753    1.1595   -0.0247 H   0  0  0  0  0  0  0  0  0  0  0  0
   -3.3774   -1.2179   -0.0131 H   0  0  0  0  0  0  0  0  0  0  0  0
   -1.3317   -2.4854    0.0208 H   0  0  0  0  0  0  0  0  0  0  0  0
   -2.5754    4.2707    0.7959 H   0  0  0  0  0  0  0  0  0  0  0  0
   -2.5491    4.2293   -0.9784 H   0  0  0  0  0  0  0  0  0  0  0  0
   -3.4506    3.0309   -0.0768 H   0  0  0  0  0  0  0  0  0  0  0  0
    0.4394    3.6359    0.8875 H   0  0  0  0  0  0  0  0  0  0  0  0
    0.4899    3.5559   -0.9440 H   0  0  0  0  0  0  0  0  0  0  0  0
   -0.3845    4.7962   -0.1023 H   0  0  0  0  0  0  0  0  0  0  0  0
    2.8404   -4.6697    0.0555 H   0  0  0  0  0  0  0  0  0  0  0  0
  1  2  2  0  0  0  0
  1 10  1  0  0  0  0
  1 14  1  0  0  0  0
  2  3  1  0  0  0  0
  2 18  1  0  0  0  0
  3  4  2  0  0  0  0
  3 19  1  0  0  0  0
  4  5  1  0  0  0  0
  4 20  1  0  0  0  0
  5  6  2  0  0  0  0
  5 10  1  0  0  0  0
  6  7  1  0  0  0  0
  6 11  1  0  0  0  0
  7  8  2  0  0  0  0
  7 21  1  0  0  0  0
  8  9  1  0  0  0  0
  8 22  1  0  0  0  0
  9 10  2  0  0  0  0
  9 23  1  0  0  0  0
 11 12  1  0  0  0  0
 11 13  1  0  0  0  0
 12 24  1  0  0  0  0
 12 25  1  0  0  0  0
 12 26  1  0  0  0  0
 13 27  1  0  0  0  0
 13 28  1  0  0  0  0
 13 29  1  0  0  0  0
 14 15  2  0  0  0  0
 14 16  2  0  0  0  0
 14 17  1  0  0  0  0
 17 30  1  0  0  0  0
M  END
>  <DRUGBANK_ID>
DB07376

>  <COMMON_NAME>
5-(DIMETHYLAMINO)-1-NAPHTHALENESULFONIC ACID(DANSYL ACID)

$$$$
