
 OpenBabel10282417193D

 64 68  0  0  1  0  0  0  0  0999 V2000
   -0.0724    0.1546    0.6054 C   0  0  0  0  0  0  0  0  0  0  0  0
   -1.2590    0.9545    0.1575 C   0  0  0  0  0  0  0  0  0  0  0  0
   -1.6628    1.3840   -1.1335 C   0  0  0  0  0  0  0  0  0  0  0  0
   -2.7793    2.1918   -1.3742 C   0  0  0  0  0  0  0  0  0  0  0  0
   -3.5486    2.5924   -0.3140 C   0  0  0  0  0  0  0  0  0  0  0  0
   -3.1477    2.1770    0.9507 C   0  0  0  0  0  0  0  0  0  0  0  0
   -2.0392    1.3995    1.1692 C   0  0  0  0  0  0  0  0  0  0  0  0
   -1.8133    1.1238    2.5860 C   0  0  0  0  0  0  0  0  0  0  0  0
   -2.9434    1.7515    3.1863 O   0  0  0  0  0  0  0  0  0  0  0  0
   -3.7258    2.3658    2.2528 C   0  0  0  0  0  0  0  0  0  0  0  0
   -4.7956    2.9561    2.4843 O   0  0  0  0  0  0  0  0  0  0  0  0
   -0.7444    1.4424   -2.2667 C   0  0  2  0  0  0  0  0  0  0  0  0
   -0.0866    0.1308   -2.5495 C   0  0  0  0  0  0  0  0  0  0  0  0
    1.2399    0.6039   -2.4031 N   0  0  0  0  0  0  0  0  0  0  0  0
    1.9214    1.6021   -3.1507 C   0  0  0  0  0  0  0  0  0  0  0  0
    2.7125    0.9328   -4.2361 C   0  0  0  0  0  0  0  0  0  0  0  0
    3.8689    0.0939   -3.8834 N   0  0  0  0  0  0  0  0  0  0  0  0
    3.2775   -0.9581   -3.1802 C   0  0  0  0  0  0  0  0  0  0  0  0
    2.1373   -0.2817   -1.8972 C   0  0  0  0  0  0  0  0  0  0  0  0
    4.8982    0.4036   -2.9094 C   0  0  0  0  0  0  0  0  0  0  0  0
    4.5635    0.4060   -1.3734 C   0  0  1  0  0  0  0  0  0  0  0  0
    3.9902   -1.0933   -0.5682 C   0  0  0  0  0  0  0  0  0  0  0  0
    4.0023   -0.8641    0.8453 C   0  0  0  0  0  0  0  0  0  0  0  0
    3.2278   -1.6934    1.7043 C   0  0  0  0  0  0  0  0  0  0  0  0
    2.3707   -2.6973    1.1915 C   0  0  0  0  0  0  0  0  0  0  0  0
    2.2371   -2.9520   -0.1387 C   0  0  0  0  0  0  0  0  0  0  0  0
    2.9759   -2.2941   -1.0855 C   0  0  0  0  0  0  0  0  0  0  0  0
    1.8581   -2.5858   -2.5090 C   0  0  0  0  0  0  0  0  0  0  0  0
    0.9699   -3.6592   -0.4244 C   0  0  0  0  0  0  0  0  0  0  0  0
    0.6518   -4.2286    0.8070 O   0  0  0  0  0  0  0  0  0  0  0  0
    1.4155   -3.6417    1.7687 C   0  0  0  0  0  0  0  0  0  0  0  0
    1.3344   -3.9674    2.9705 O   0  0  0  0  0  0  0  0  0  0  0  0
    5.6366    1.0754   -0.7080 O   0  0  0  0  0  0  0  0  0  0  0  0
    0.0834    2.4924   -1.6585 O   0  0  0  0  0  0  0  0  0  0  0  0
    0.4787    0.5819    1.4543 H   0  0  0  0  0  0  0  0  0  0  0  0
    0.6879    0.1576   -0.1236 H   0  0  0  0  0  0  0  0  0  0  0  0
   -0.3546   -0.8798    0.8222 H   0  0  0  0  0  0  0  0  0  0  0  0
   -2.9236    2.5828   -2.3846 H   0  0  0  0  0  0  0  0  0  0  0  0
   -4.3979    3.2293   -0.5055 H   0  0  0  0  0  0  0  0  0  0  0  0
   -1.8093    0.0382    2.7379 H   0  0  0  0  0  0  0  0  0  0  0  0
   -0.8693    1.5640    2.9346 H   0  0  0  0  0  0  0  0  0  0  0  0
   -1.0738    1.8157   -3.2364 H   0  0  0  0  0  0  0  0  0  0  0  0
   -0.4434   -0.6616   -1.8462 H   0  0  0  0  0  0  0  0  0  0  0  0
   -0.2664   -0.3262   -3.5235 H   0  0  0  0  0  0  0  0  0  0  0  0
    1.2254    2.3133   -3.5728 H   0  0  0  0  0  0  0  0  0  0  0  0
    2.5557    2.1626   -2.4556 H   0  0  0  0  0  0  0  0  0  0  0  0
    1.9503    0.3074   -4.7603 H   0  0  0  0  0  0  0  0  0  0  0  0
    3.0126    1.7048   -4.9168 H   0  0  0  0  0  0  0  0  0  0  0  0
    2.8605   -1.5086   -4.0414 H   0  0  0  0  0  0  0  0  0  0  0  0
    4.0213   -1.7372   -2.8673 H   0  0  0  0  0  0  0  0  0  0  0  0
    2.4820    0.2853   -1.0274 H   0  0  0  0  0  0  0  0  0  0  0  0
    1.5151   -0.9471   -1.2931 H   0  0  0  0  0  0  0  0  0  0  0  0
    5.6406   -0.4091   -2.9682 H   0  0  0  0  0  0  0  0  0  0  0  0
    5.3875    1.2967   -3.2785 H   0  0  0  0  0  0  0  0  0  0  0  0
    3.8344    1.2178   -1.2445 H   0  0  0  0  0  0  0  0  0  0  0  0
    4.4774    0.0335    1.2746 H   0  0  0  0  0  0  0  0  0  0  0  0
    3.2606   -1.5072    2.7776 H   0  0  0  0  0  0  0  0  0  0  0  0
    2.2135   -3.3899   -3.1292 H   0  0  0  0  0  0  0  0  0  0  0  0
    0.7793   -2.6112   -2.2807 H   0  0  0  0  0  0  0  0  0  0  0  0
    1.5014   -1.7727   -3.1697 H   0  0  0  0  0  0  0  0  0  0  0  0
    0.1590   -2.9484   -0.6767 H   0  0  0  0  0  0  0  0  0  0  0  0
    1.1253   -4.3754   -1.2447 H   0  0  0  0  0  0  0  0  0  0  0  0
    6.2860    0.4028   -0.4894 H   0  0  0  0  0  0  0  0  0  0  0  0
    0.7692    1.9749   -1.1833 H   0  0  0  0  0  0  0  0  0  0  0  0
  1  2  1  0  0  0  0
  1 35  1  0  0  0  0
  1 36  1  0  0  0  0
  1 37  1  0  0  0  0
  2  3  2  0  0  0  0
  2  7  1  0  0  0  0
  3  4  1  0  0  0  0
  4  5  2  0  0  0  0
  4 38  1  0  0  0  0
  5  6  1  0  0  0  0
  5 39  1  0  0  0  0
  6  7  2  0  0  0  0
  6 10  1  0  0  0  0
  7  8  1  0  0  0  0
  8  9  1  0  0  0  0
  8 40  1  0  0  0  0
  8 41  1  0  0  0  0
  9 10  1  0  0  0  0
 10 11  2  0  0  0  0
 12 34  1  0  0  0  0
 12 42  1  6  0  0  0
 12 13  1  0  0  0  0
 12  3  1  0  0  0  0
 13 14  1  0  0  0  0
 13 43  1  0  0  0  0
 13 44  1  0  0  0  0
 14 15  1  0  0  0  0
 14 19  1  0  0  0  0
 15 16  1  0  0  0  0
 15 45  1  0  0  0  0
 15 46  1  0  0  0  0
 16 17  1  0  0  0  0
 16 47  1  0  0  0  0
 16 48  1  0  0  0  0
 17 18  1  0  0  0  0
 17 20  1  0  0  0  0
 18 19  1  0  0  0  0
 18 49  1  0  0  0  0
 18 50  1  0  0  0  0
 19 51  1  0  0  0  0
 19 52  1  0  0  0  0
 20 21  1  0  0  0  0
 20 53  1  0  0  0  0
 20 54  1  0  0  0  0
 21 22  1  0  0  0  0
 21 33  1  0  0  0  0
 21 55  1  1  0  0  0
 22 23  2  0  0  0  0
 22 27  1  0  0  0  0
 23 24  1  0  0  0  0
 23 56  1  0  0  0  0
 24 25  2  0  0  0  0
 24 57  1  0  0  0  0
 25 26  1  0  0  0  0
 25 31  1  0  0  0  0
 26 27  2  0  0  0  0
 26 29  1  0  0  0  0
 27 28  1  0  0  0  0
 28 58  1  0  0  0  0
 28 59  1  0  0  0  0
 28 60  1  0  0  0  0
 29 30  1  0  0  0  0
 29 61  1  0  0  0  0
 29 62  1  0  0  0  0
 30 31  1  0  0  0  0
 31 32  2  0  0  0  0
 33 63  1  0  0  0  0
 34 64  1  0  0  0  0
M  END
>  <DRUGBANK_ID>
DB11968

>  <COMMON_NAME>
MK-7145

>  <CAS_NUMBER>
1255204-84-2

>  <UNII>
M371870BYL

$$$$
