
 OpenBabel10282417193D

 77 81  0  0  1  0  0  0  0  0999 V2000
   -2.8415   -0.3691   -7.8415 C   0  0  0  0  0  0  0  0  0  0  0  0
   -2.5289   -0.1523   -6.3535 C   0  0  1  0  0  0  0  0  0  0  0  0
   -1.5543   -1.3200   -5.8756 C   0  0  0  0  0  0  0  0  0  0  0  0
   -2.3203   -2.5942   -5.8093 C   0  0  0  0  0  0  0  0  0  0  0  0
   -3.6508   -2.4166   -4.9937 C   0  0  1  0  0  0  0  0  0  0  0  0
   -4.0931   -3.8571   -4.7905 C   0  0  0  0  0  0  0  0  0  0  0  0
   -5.5588   -4.1177   -4.5635 C   0  0  0  0  0  0  0  0  0  0  0  0
   -6.5668   -3.0475   -5.0274 C   0  0  0  0  0  0  0  0  0  0  0  0
   -6.0031   -1.6329   -4.9003 C   0  0  0  0  0  0  0  0  0  0  0  0
   -4.6179   -1.4136   -5.5898 C   0  0  1  0  0  0  0  0  0  0  0  0
   -3.8321   -0.0248   -5.5408 C   0  0  1  0  0  0  0  0  0  0  0  0
   -3.3467    0.8448   -4.2789 C   0  0  0  0  0  0  0  0  0  0  0  0
   -4.0704    1.7424   -3.8401 O   0  0  0  0  0  0  0  0  0  0  0  0
   -1.9040    0.8330   -3.8231 C   0  0  0  0  0  0  0  0  0  0  0  0
   -1.1605    1.2836   -4.8684 C   0  0  0  0  0  0  0  0  0  0  0  0
   -1.8381    1.2021   -6.2097 C   0  0  1  0  0  0  0  0  0  0  0  0
   -0.7038    1.0817   -7.1355 C   0  0  0  0  0  0  0  0  0  0  0  0
   -0.2838    2.4578   -7.5582 C   0  0  0  0  0  0  0  0  0  0  0  0
    0.9255    2.2237   -6.8483 C   0  0  2  0  0  0  0  0  0  0  0  0
    0.0980    2.1606   -5.0160 C   0  0  2  0  0  0  0  0  0  0  0  0
    1.4067    1.9288   -4.4301 C   0  0  0  0  0  0  0  0  0  0  0  0
    1.6973    3.0409   -5.1386 C   0  0  0  0  0  0  0  0  0  0  0  0
    2.8706    2.9264   -5.9688 C   0  0  0  0  0  0  0  0  0  0  0  0
    3.9382    2.4718   -5.6392 O   0  0  0  0  0  0  0  0  0  0  0  0
    2.2740    3.1378   -7.2929 C   0  0  0  0  0  0  0  0  0  0  0  0
    3.4217    2.7977   -8.2916 C   0  0  0  0  0  0  0  0  0  0  0  0
    1.8535    4.5643   -7.6189 C   0  0  0  0  0  0  0  0  0  0  0  0
    1.4352    4.4709   -4.6951 C   0  0  0  0  0  0  0  0  0  0  0  0
    1.2177    5.6573   -4.3273 N   0  0  0  0  0  0  0  0  0  0  0  0
   -0.5064    3.1840   -3.6353 C   0  0  0  0  0  0  0  0  0  0  0  0
   -2.6568    2.5099   -6.4548 C   0  0  0  0  0  0  0  0  0  0  0  0
   -7.7522   -3.1258   -4.0301 C   0  0  0  0  0  0  0  0  0  0  0  0
   -7.0033   -3.2007   -6.4725 C   0  0  0  0  0  0  0  0  0  0  0  0
   -3.4307   -1.8082   -3.5760 C   0  0  0  0  0  0  0  0  0  0  0  0
   -2.3616   -1.9920   -2.9574 O   0  0  0  0  0  0  0  0  0  0  0  0
   -4.3169   -0.9507   -3.0002 O   0  0  0  0  0  0  0  0  0  0  0  0
   -3.5944   -1.1185   -8.0204 H   0  0  0  0  0  0  0  0  0  0  0  0
   -1.9715   -0.7419   -8.3914 H   0  0  0  0  0  0  0  0  0  0  0  0
   -3.1588    0.5752   -8.2874 H   0  0  0  0  0  0  0  0  0  0  0  0
   -0.6789   -1.4560   -6.5313 H   0  0  0  0  0  0  0  0  0  0  0  0
   -1.0706   -1.1876   -4.8965 H   0  0  0  0  0  0  0  0  0  0  0  0
   -2.4476   -2.9466   -6.8482 H   0  0  0  0  0  0  0  0  0  0  0  0
   -1.6804   -3.3551   -5.3390 H   0  0  0  0  0  0  0  0  0  0  0  0
   -3.5609   -4.1768   -3.8835 H   0  0  0  0  0  0  0  0  0  0  0  0
   -3.7177   -4.5509   -5.5581 H   0  0  0  0  0  0  0  0  0  0  0  0
   -5.6362   -4.2470   -3.4753 H   0  0  0  0  0  0  0  0  0  0  0  0
   -5.8110   -5.0945   -4.9926 H   0  0  0  0  0  0  0  0  0  0  0  0
   -5.9796   -1.6386   -3.8226 H   0  0  0  0  0  0  0  0  0  0  0  0
   -6.7198   -0.8452   -5.1518 H   0  0  0  0  0  0  0  0  0  0  0  0
   -4.8450   -1.5786   -6.6554 H   0  0  0  0  0  0  0  0  0  0  0  0
   -4.5320    0.6681   -6.0184 H   0  0  0  0  0  0  0  0  0  0  0  0
   -1.7265    0.8565   -2.7439 H   0  0  0  0  0  0  0  0  0  0  0  0
   -0.6984    0.4678   -8.0138 H   0  0  0  0  0  0  0  0  0  0  0  0
    0.0164    0.4330   -6.5420 H   0  0  0  0  0  0  0  0  0  0  0  0
   -0.3659    2.6059   -8.6196 H   0  0  0  0  0  0  0  0  0  0  0  0
   -0.6058    3.3719   -7.0498 H   0  0  0  0  0  0  0  0  0  0  0  0
    1.3852    1.2526   -7.1556 H   0  0  0  0  0  0  0  0  0  0  0  0
    1.2205    1.7435   -3.3746 H   0  0  0  0  0  0  0  0  0  0  0  0
    3.1635    2.9827   -9.3384 H   0  0  0  0  0  0  0  0  0  0  0  0
    4.2688    3.4909   -8.0952 H   0  0  0  0  0  0  0  0  0  0  0  0
    3.8728    1.8027   -8.2025 H   0  0  0  0  0  0  0  0  0  0  0  0
    0.9522    4.8602   -7.0841 H   0  0  0  0  0  0  0  0  0  0  0  0
    2.6421    5.2779   -7.3644 H   0  0  0  0  0  0  0  0  0  0  0  0
    1.6080    4.6415   -8.6812 H   0  0  0  0  0  0  0  0  0  0  0  0
   -1.5121    3.6178   -3.7180 H   0  0  0  0  0  0  0  0  0  0  0  0
   -0.6027    2.5264   -2.7337 H   0  0  0  0  0  0  0  0  0  0  0  0
    0.1502    3.8856   -3.0940 H   0  0  0  0  0  0  0  0  0  0  0  0
   -2.8369    2.6078   -7.5229 H   0  0  0  0  0  0  0  0  0  0  0  0
   -3.6146    2.6252   -5.9577 H   0  0  0  0  0  0  0  0  0  0  0  0
   -2.1298    3.4043   -6.0899 H   0  0  0  0  0  0  0  0  0  0  0  0
   -8.4629   -2.3119   -4.1962 H   0  0  0  0  0  0  0  0  0  0  0  0
   -8.2631   -4.0891   -4.0740 H   0  0  0  0  0  0  0  0  0  0  0  0
   -7.3927   -3.0050   -2.9931 H   0  0  0  0  0  0  0  0  0  0  0  0
   -6.1463   -3.1309   -7.1500 H   0  0  0  0  0  0  0  0  0  0  0  0
   -7.4968   -4.1543   -6.6525 H   0  0  0  0  0  0  0  0  0  0  0  0
   -7.6882   -2.3831   -6.7295 H   0  0  0  0  0  0  0  0  0  0  0  0
   -4.9786   -0.3739   -3.4766 H   0  0  0  0  0  0  0  0  0  0  0  0
  1 37  1  0  0  0  0
  1 38  1  0  0  0  0
  1 39  1  0  0  0  0
  2  1  1  1  0  0  0
  2  3  1  0  0  0  0
  2 11  1  0  0  0  0
  2 16  1  0  0  0  0
  3  4  1  0  0  0  0
  3 40  1  0  0  0  0
  3 41  1  0  0  0  0
  4  5  1  0  0  0  0
  4 42  1  0  0  0  0
  4 43  1  0  0  0  0
  5  6  1  0  0  0  0
  5 10  1  0  0  0  0
  5 34  1  6  0  0  0
  6  7  1  0  0  0  0
  6 44  1  0  0  0  0
  6 45  1  0  0  0  0
  7  8  1  0  0  0  0
  7 46  1  0  0  0  0
  7 47  1  0  0  0  0
  8  9  1  0  0  0  0
  8 32  1  0  0  0  0
  8 33  1  0  0  0  0
  9 48  1  0  0  0  0
  9 49  1  0  0  0  0
 10  9  1  0  0  0  0
 10 11  1  0  0  0  0
 10 50  1  6  0  0  0
 11 12  1  0  0  0  0
 11 51  1  6  0  0  0
 12 13  2  0  0  0  0
 12 14  1  0  0  0  0
 14 15  2  0  0  0  0
 14 52  1  0  0  0  0
 15 16  1  0  0  0  0
 15 20  1  0  0  0  0
 16 17  1  0  0  0  0
 16 31  1  6  0  0  0
 17 18  1  0  0  0  0
 17 53  1  0  0  0  0
 17 54  1  0  0  0  0
 18 55  1  0  0  0  0
 18 56  1  0  0  0  0
 19 18  1  0  0  0  0
 19 20  1  0  0  0  0
 19 25  1  0  0  0  0
 19 57  1  6  0  0  0
 20 21  1  0  0  0  0
 20 30  1  1  0  0  0
 21 22  2  0  0  0  0
 21 58  1  0  0  0  0
 22 23  1  0  0  0  0
 22 28  1  0  0  0  0
 23 24  2  0  0  0  0
 23 25  1  0  0  0  0
 25 26  1  0  0  0  0
 25 27  1  0  0  0  0
 26 59  1  0  0  0  0
 26 60  1  0  0  0  0
 26 61  1  0  0  0  0
 27 62  1  0  0  0  0
 27 63  1  0  0  0  0
 27 64  1  0  0  0  0
 28 29  3  0  0  0  0
 30 65  1  0  0  0  0
 30 66  1  0  0  0  0
 30 67  1  0  0  0  0
 31 68  1  0  0  0  0
 31 69  1  0  0  0  0
 31 70  1  0  0  0  0
 32 71  1  0  0  0  0
 32 72  1  0  0  0  0
 32 73  1  0  0  0  0
 33 74  1  0  0  0  0
 33 75  1  0  0  0  0
 33 76  1  0  0  0  0
 34 35  2  0  0  0  0
 34 36  1  0  0  0  0
 36 77  1  0  0  0  0
M  END
>  <DRUGBANK_ID>
DB12651

>  <SECONDARY_ACCESSION_NUMBERS>
DB06120

>  <COMMON_NAME>
Bardoxolone

>  <CAS_NUMBER>
218600-44-3

>  <UNII>
7HT68L8941

>  <SYNONYMS>
Bardoxolone

$$$$
