
 OpenBabel10282417193D

 61 65  0  0  1  0  0  0  0  0999 V2000
   -1.4148    0.7912   -0.8745 C   0  0  0  0  0  0  0  0  0  0  0  0
   -0.0812    1.5682   -0.6302 C   0  0  2  0  0  0  0  0  0  0  0  0
    0.5690    2.5421   -2.1953 C   0  0  0  0  0  0  0  0  0  0  0  0
    1.0456    4.3079   -1.7341 C   0  0  0  0  0  0  0  0  0  0  0  0
    2.1988    4.3282   -0.6317 C   0  0  1  0  0  0  0  0  0  0  0  0
    1.6107    3.0362   -0.2196 C   0  0  0  0  0  0  0  0  0  0  0  0
   -0.0545    2.9711   -0.1977 C   0  0  1  0  0  0  0  0  0  0  0  0
   -0.6657    3.7108    0.9435 C   0  0  0  0  0  0  0  0  0  0  0  0
   -0.0964    3.2366    2.2717 C   0  0  0  0  0  0  0  0  0  0  0  0
   -0.6428    1.8014    2.5167 C   0  0  2  0  0  0  0  0  0  0  0  0
    0.1637    1.0225    1.1390 C   0  0  2  0  0  0  0  0  0  0  0  0
   -0.0708   -0.4585    1.3532 C   0  0  0  0  0  0  0  0  0  0  0  0
    0.5606   -0.7693    2.6610 C   0  0  0  0  0  0  0  0  0  0  0  0
   -0.2687   -0.1919    3.7812 C   0  0  1  0  0  0  0  0  0  0  0  0
   -0.6113    1.1590    4.2794 C   0  0  2  0  0  0  0  0  0  0  0  0
   -1.1489   -0.4141    5.4659 C   0  0  0  0  0  0  0  0  0  0  0  0
   -0.0083   -1.5416    5.5814 C   0  0  0  0  0  0  0  0  0  0  0  0
    0.8004   -0.4016    5.2328 C   0  0  2  0  0  0  0  0  0  0  0  0
    1.0045    0.2016    6.6776 C   0  0  0  0  0  0  0  0  0  0  0  0
    2.0196   -0.4275    7.4738 C   0  0  0  0  0  0  0  0  0  0  0  0
    2.2039    0.3508    8.5768 C   0  0  0  0  0  0  0  0  0  0  0  0
    1.2710    1.3328    8.6115 O   0  0  0  0  0  0  0  0  0  0  0  0
    0.5176    1.2230    7.4735 C   0  0  0  0  0  0  0  0  0  0  0  0
    2.1293   -0.3880    4.7549 O   0  0  0  0  0  0  0  0  0  0  0  0
    0.4667    1.8777    4.8235 O   0  0  0  0  0  0  0  0  0  0  0  0
   -2.1150   -0.1944    3.4688 C   0  0  0  0  0  0  0  0  0  0  0  0
    2.5712    4.4383    0.7505 O   0  0  0  0  0  0  0  0  0  0  0  0
   -1.6801    0.2383    0.0255 H   0  0  0  0  0  0  0  0  0  0  0  0
   -1.3284   -0.0693   -1.5540 H   0  0  0  0  0  0  0  0  0  0  0  0
   -2.3408    1.3600   -0.9243 H   0  0  0  0  0  0  0  0  0  0  0  0
    1.3910    2.8536   -2.9172 H   0  0  0  0  0  0  0  0  0  0  0  0
    1.2991    1.7188   -2.4323 H   0  0  0  0  0  0  0  0  0  0  0  0
    1.3960    4.8918   -2.6053 H   0  0  0  0  0  0  0  0  0  0  0  0
    0.1289    4.8818   -1.4900 H   0  0  0  0  0  0  0  0  0  0  0  0
    2.1109    5.4132   -0.5814 H   0  0  0  0  0  0  0  0  0  0  0  0
    2.2391    2.5061   -0.9678 H   0  0  0  0  0  0  0  0  0  0  0  0
    2.0154    2.2457    0.4054 H   0  0  0  0  0  0  0  0  0  0  0  0
   -0.7298    3.3800   -0.9822 H   0  0  0  0  0  0  0  0  0  0  0  0
   -0.4627    4.7810    0.7912 H   0  0  0  0  0  0  0  0  0  0  0  0
   -1.7594    3.6274    0.8325 H   0  0  0  0  0  0  0  0  0  0  0  0
   -0.2719    4.0113    3.0144 H   0  0  0  0  0  0  0  0  0  0  0  0
    0.9916    3.1595    2.1899 H   0  0  0  0  0  0  0  0  0  0  0  0
   -1.6965    1.9333    2.2593 H   0  0  0  0  0  0  0  0  0  0  0  0
    1.2261    1.0919    1.3694 H   0  0  0  0  0  0  0  0  0  0  0  0
   -1.1111   -0.8078    1.4347 H   0  0  0  0  0  0  0  0  0  0  0  0
    0.3797   -0.9930    0.5179 H   0  0  0  0  0  0  0  0  0  0  0  0
    1.1510   -1.4709    3.2576 H   0  0  0  0  0  0  0  0  0  0  0  0
    0.5160   -1.8097    2.2790 H   0  0  0  0  0  0  0  0  0  0  0  0
   -1.6142   -0.1591    6.4134 H   0  0  0  0  0  0  0  0  0  0  0  0
   -1.8901   -1.1711    5.1359 H   0  0  0  0  0  0  0  0  0  0  0  0
    0.0633   -2.0222    6.5696 H   0  0  0  0  0  0  0  0  0  0  0  0
    0.0669   -2.3482    4.8388 H   0  0  0  0  0  0  0  0  0  0  0  0
    2.5964   -1.2828    7.1507 H   0  0  0  0  0  0  0  0  0  0  0  0
    2.9410    0.3275    9.3605 H   0  0  0  0  0  0  0  0  0  0  0  0
   -0.2488    1.9823    7.3713 H   0  0  0  0  0  0  0  0  0  0  0  0
    2.3948    0.5275    5.0171 H   0  0  0  0  0  0  0  0  0  0  0  0
    0.4797    2.7992    4.4475 H   0  0  0  0  0  0  0  0  0  0  0  0
   -2.7093    0.2736    4.3238 H   0  0  0  0  0  0  0  0  0  0  0  0
   -2.5125    0.4765    2.7151 H   0  0  0  0  0  0  0  0  0  0  0  0
   -2.5143   -1.1886    3.3016 H   0  0  0  0  0  0  0  0  0  0  0  0
    3.3970    3.9121    0.8202 H   0  0  0  0  0  0  0  0  0  0  0  0
  1 28  1  0  0  0  0
  1 29  1  0  0  0  0
  1 30  1  0  0  0  0
  2  3  1  0  0  0  0
  2  7  1  0  0  0  0
  2 11  1  0  0  0  0
  2  1  1  1  0  0  0
  3  4  1  0  0  0  0
  3 31  1  0  0  0  0
  3 32  1  0  0  0  0
  4  5  1  0  0  0  0
  4 33  1  0  0  0  0
  4 34  1  0  0  0  0
  5  6  1  0  0  0  0
  5 35  1  1  0  0  0
  5 27  1  0  0  0  0
  6 36  1  0  0  0  0
  6 37  1  0  0  0  0
  7  6  1  0  0  0  0
  7  8  1  0  0  0  0
  7 38  1  1  0  0  0
  8  9  1  0  0  0  0
  8 39  1  0  0  0  0
  8 40  1  0  0  0  0
  9 41  1  0  0  0  0
  9 42  1  0  0  0  0
 10  9  1  0  0  0  0
 10 11  1  0  0  0  0
 10 15  1  0  0  0  0
 10 43  1  1  0  0  0
 11 12  1  0  0  0  0
 11 44  1  6  0  0  0
 12 13  1  0  0  0  0
 12 45  1  0  0  0  0
 12 46  1  0  0  0  0
 13 14  1  0  0  0  0
 13 47  1  0  0  0  0
 13 48  1  0  0  0  0
 14 15  1  0  0  0  0
 14 18  1  0  0  0  0
 14 26  1  6  0  0  0
 15 16  1  0  0  0  0
 15 25  1  1  0  0  0
 16 17  1  0  0  0  0
 16 49  1  0  0  0  0
 16 50  1  0  0  0  0
 17 18  1  0  0  0  0
 17 51  1  0  0  0  0
 17 52  1  0  0  0  0
 18 19  1  0  0  0  0
 18 24  1  6  0  0  0
 19 20  1  0  0  0  0
 19 23  2  0  0  0  0
 20 21  2  0  0  0  0
 20 53  1  0  0  0  0
 21 22  1  0  0  0  0
 21 54  1  0  0  0  0
 22 23  1  0  0  0  0
 23 55  1  0  0  0  0
 24 56  1  0  0  0  0
 25 57  1  0  0  0  0
 26 58  1  0  0  0  0
 26 59  1  0  0  0  0
 26 60  1  0  0  0  0
 27 61  1  0  0  0  0
M  END
>  <DRUGBANK_ID>
DB12350

>  <COMMON_NAME>
Rostafuroxin

>  <CAS_NUMBER>
156722-18-8

>  <UNII>
P848LCX62B

>  <SYNONYMS>
Rostafuroxin

$$$$
