
 OpenBabel10282417243D

 39 39  0  0  1  0  0  0  0  0999 V2000
    1.0546   -0.1086    0.3487 C   0  0  0  0  0  0  0  0  0  0  0  0
    0.8570    0.9198   -0.7209 C   0  0  0  0  0  0  0  0  0  0  0  0
    1.5807    0.3696   -1.9587 C   0  0  0  0  0  0  0  0  0  0  0  0
    0.6493   -0.6029   -2.7522 C   0  0  0  0  0  0  0  0  0  0  0  0
   -0.9123   -0.3115   -2.8768 C   0  0  0  0  0  0  0  0  0  0  0  0
   -1.4573    0.7778   -3.7634 N   0  0  0  0  0  0  0  0  0  0  0  0
   -0.9704    0.5683   -5.1319 C   0  0  0  0  0  0  0  0  0  0  0  0
   -1.4839    1.6096   -6.1360 C   0  0  2  0  0  0  0  0  0  0  0  0
   -0.8994    1.3294   -7.4117 O   0  0  0  0  0  0  0  0  0  0  0  0
   -1.1329    3.0314   -5.6658 C   0  0  1  0  0  0  0  0  0  0  0  0
   -1.5440    4.0406   -6.5811 O   0  0  0  0  0  0  0  0  0  0  0  0
   -1.7541    3.2881   -4.2651 C   0  0  2  0  0  0  0  0  0  0  0  0
   -1.3650    4.5874   -3.7540 O   0  0  0  0  0  0  0  0  0  0  0  0
   -1.2653    2.2012   -3.2919 C   0  0  2  0  0  0  0  0  0  0  0  0
    0.2051    2.5717   -3.1850 C   0  0  0  0  0  0  0  0  0  0  0  0
    0.6119    3.3311   -2.0613 O   0  0  0  0  0  0  0  0  0  0  0  0
    0.6300   -1.0619    0.0236 H   0  0  0  0  0  0  0  0  0  0  0  0
    0.5908    0.2013    1.2816 H   0  0  0  0  0  0  0  0  0  0  0  0
    2.1316   -0.2270    0.4929 H   0  0  0  0  0  0  0  0  0  0  0  0
   -0.2155    1.1002   -0.8715 H   0  0  0  0  0  0  0  0  0  0  0  0
    1.2614    1.8783   -0.3790 H   0  0  0  0  0  0  0  0  0  0  0  0
    2.0365    1.1515   -2.5878 H   0  0  0  0  0  0  0  0  0  0  0  0
    2.5210   -0.1115   -1.6825 H   0  0  0  0  0  0  0  0  0  0  0  0
    1.0687   -0.7519   -3.7537 H   0  0  0  0  0  0  0  0  0  0  0  0
    0.7558   -1.5765   -2.2583 H   0  0  0  0  0  0  0  0  0  0  0  0
   -1.3415   -1.2534   -3.2630 H   0  0  0  0  0  0  0  0  0  0  0  0
   -1.3784   -0.2418   -1.8861 H   0  0  0  0  0  0  0  0  0  0  0  0
   -1.2397   -0.4354   -5.4897 H   0  0  0  0  0  0  0  0  0  0  0  0
    0.1261    0.5906   -5.1518 H   0  0  0  0  0  0  0  0  0  0  0  0
   -2.5681    1.5257   -6.2516 H   0  0  0  0  0  0  0  0  0  0  0  0
    0.0689    1.3753   -7.3256 H   0  0  0  0  0  0  0  0  0  0  0  0
   -0.0440    3.1328   -5.6829 H   0  0  0  0  0  0  0  0  0  0  0  0
   -2.5093    4.1053   -6.5208 H   0  0  0  0  0  0  0  0  0  0  0  0
   -2.8449    3.3094   -4.3207 H   0  0  0  0  0  0  0  0  0  0  0  0
   -0.4124    4.7212   -3.9212 H   0  0  0  0  0  0  0  0  0  0  0  0
   -1.7718    2.3118   -2.3228 H   0  0  0  0  0  0  0  0  0  0  0  0
    0.5870    1.6181   -3.1951 H   0  0  0  0  0  0  0  0  0  0  0  0
    0.7533    2.9435   -4.0436 H   0  0  0  0  0  0  0  0  0  0  0  0
    0.1245    4.1444   -2.0142 H   0  0  0  0  0  0  0  0  0  0  0  0
  1  2  1  0  0  0  0
  1 17  1  0  0  0  0
  1 18  1  0  0  0  0
  1 19  1  0  0  0  0
  2  3  1  0  0  0  0
  2 20  1  0  0  0  0
  2 21  1  0  0  0  0
  3  4  1  0  0  0  0
  3 22  1  0  0  0  0
  3 23  1  0  0  0  0
  4  5  1  0  0  0  0
  4 24  1  0  0  0  0
  4 25  1  0  0  0  0
  5  6  1  0  0  0  0
  5 26  1  0  0  0  0
  5 27  1  0  0  0  0
  6  7  1  0  0  0  0
  7 28  1  0  0  0  0
  7 29  1  0  0  0  0
  8  7  1  0  0  0  0
  8  9  1  0  0  0  0
  8 30  1  6  0  0  0
  9 31  1  0  0  0  0
 10  8  1  0  0  0  0
 10 11  1  0  0  0  0
 10 12  1  0  0  0  0
 10 32  1  1  0  0  0
 11 33  1  0  0  0  0
 12 13  1  0  0  0  0
 12 14  1  0  0  0  0
 12 34  1  6  0  0  0
 13 35  1  0  0  0  0
 14  6  1  0  0  0  0
 14 36  1  1  0  0  0
 14 15  1  0  0  0  0
 15 16  1  0  0  0  0
 15 37  1  0  0  0  0
 15 38  1  0  0  0  0
 16 39  1  0  0  0  0
M  END
>  <DRUGBANK_ID>
DB17619

>  <COMMON_NAME>
Sinbaglustat

>  <CAS_NUMBER>
441061-33-2

>  <UNII>
T5Y7NB5M2U

>  <SYNONYMS>
(2s,3r,4r,5s)-2-(hydroxymethyl)-1-pentyl-3,4,5-piperidinetriol; (2S,3R,4R,5S)-2-(Hydroxymethyl)-1-Pentylpiperidine-3,4,5-Triol; 3,4,5-piperidinetriol, 2-(hydroxymethyl)-1-pentyl-, (2s,3r,4r,5s)-; ACT-519276; OGT-2378; OGT2378; Sinbaglustat

$$$$
