
 OpenBabel10282417223D

 95100  0  0  0  0  0  0  0  0999 V2000
   -0.6568    7.4907   -6.8825 O   0  0  0  0  0  0  0  0  0  0  0  0
    0.4984    6.9031   -7.2527 C   0  0  0  0  0  0  0  0  0  0  0  0
    1.1960    8.1637   -7.2398 C   0  0  0  0  0  0  0  0  0  0  0  0
    1.4296    8.7236   -5.8507 C   0  0  0  0  0  0  0  0  0  0  0  0
    2.0737    7.6998   -4.9488 C   0  0  0  0  0  0  0  0  0  0  0  0
    3.3758    7.2496   -5.5685 C   0  0  0  0  0  0  0  0  0  0  0  0
    4.2986    8.4300   -5.7305 C   0  0  0  0  0  0  0  0  0  0  0  0
   -2.2357    5.5847   -7.8082 C   0  0  0  0  0  0  0  0  0  0  0  0
   -2.7768    4.3299   -7.5087 C   0  0  0  0  0  0  0  0  0  0  0  0
   -1.1658    4.4000   -6.8339 C   0  0  0  0  0  0  0  0  0  0  0  0
   -1.9788    4.9737   -8.6925 N   0  0  0  0  0  0  0  0  0  0  0  0
   -2.4164    6.4317   -8.7942 C   0  0  0  0  0  0  0  0  0  0  0  0
   -2.1203    6.3960   -6.8276 C   0  0  3  0  0  0  0  0  0  0  0  0
   -1.5577    5.2987   -5.3881 C   0  0  0  0  0  0  0  0  0  0  0  0
   -2.5754    2.8745   -6.8311 C   0  0  0  0  0  0  0  0  0  0  0  0
    0.4031    4.8165   -1.0782 N   0  0  0  0  0  0  0  0  0  0  0  0
   -0.0267    5.1032   -2.7956 C   0  0  0  0  0  0  0  0  0  0  0  0
    0.0882    6.2336   -0.7427 C   0  0  2  0  0  0  0  0  0  0  0  0
   -1.2535    6.4097    0.7997 C   0  0  1  0  0  0  0  0  0  0  0  0
   -0.7193    5.1740   -0.0589 C   0  0  0  0  0  0  0  0  0  0  0  0
   -1.9000   10.0947   -7.9098 C   0  0  0  0  0  0  0  0  0  0  0  0
   -2.0996    8.7520   -8.0474 C   0  0  0  0  0  0  0  0  0  0  0  0
   -2.1958    8.6712   -6.7504 N   0  0  0  0  0  0  0  0  0  0  0  0
   -1.5964    9.3919   -5.8402 C   0  0  0  0  0  0  0  0  0  0  0  0
   -1.5915   10.5073   -6.6556 C   0  0  0  0  0  0  0  0  0  0  0  0
   -1.1236    8.1796   -3.5041 C   0  0  0  0  0  0  0  0  0  0  0  0
   -0.8764    7.7970   -2.2632 N   0  0  0  0  0  0  0  0  0  0  0  0
   -1.4420    6.5233   -1.9963 C   0  0  0  0  0  0  0  0  0  0  0  0
   -1.9804    5.9883   -3.1110 C   0  0  0  0  0  0  0  0  0  0  0  0
   -1.6253    7.0177   -3.8559 C   0  0  0  0  0  0  0  0  0  0  0  0
   -1.6059    5.3270   -1.2105 C   0  0  0  0  0  0  0  0  0  0  0  0
   -1.3800    3.8405   -1.6944 C   0  0  0  0  0  0  0  0  0  0  0  0
   -1.9878    4.1162   -2.9968 C   0  0  0  0  0  0  0  0  0  0  0  0
   -1.8493    3.1137   -3.7355 O   0  0  0  0  0  0  0  0  0  0  0  0
   -1.7513    6.9702   -5.1250 C   0  0  0  0  0  0  0  0  0  0  0  0
   -1.2525    9.2183   -4.3177 C   0  0  0  0  0  0  0  0  0  0  0  0
   -2.1171   10.8525   -9.0918 C   0  0  0  0  0  0  0  0  0  0  0  0
   -1.4403   11.8296   -6.1728 C   0  0  0  0  0  0  0  0  0  0  0  0
   -2.4620   12.1487   -5.1225 C   0  0  0  0  0  0  0  0  0  0  0  0
   -2.2643    7.8147   -9.0059 C   0  0  0  0  0  0  0  0  0  0  0  0
    0.4554    7.5721    1.0287 C   0  0  0  0  0  0  0  0  0  0  0  0
   -2.4718    5.9044    1.7330 C   0  0  0  0  0  0  0  0  0  0  0  0
   -3.1438    6.9370    2.6940 C   0  0  0  0  0  0  0  0  0  0  0  0
   -3.5369    8.2252    1.9630 C   0  0  0  0  0  0  0  0  0  0  0  0
   -0.4162    4.2406   -4.7594 C   0  0  0  0  0  0  0  0  0  0  0  0
   -4.7001    8.5840    1.8667 O   0  0  0  0  0  0  0  0  0  0  0  0
   -2.5141    8.9497    1.4230 O   0  0  0  0  0  0  0  0  0  0  0  0
    0.8384    6.2168   -6.4973 H   0  0  0  0  0  0  0  0  0  0  0  0
    0.0884    6.4778   -8.1168 H   0  0  0  0  0  0  0  0  0  0  0  0
    2.0890    7.8506   -7.6972 H   0  0  0  0  0  0  0  0  0  0  0  0
    0.6702    8.8917   -7.8491 H   0  0  0  0  0  0  0  0  0  0  0  0
    2.0416    9.6086   -5.9417 H   0  0  0  0  0  0  0  0  0  0  0  0
    0.5311    9.0643   -5.3964 H   0  0  0  0  0  0  0  0  0  0  0  0
    2.2532    8.1247   -3.9654 H   0  0  0  0  0  0  0  0  0  0  0  0
    1.4130    6.8441   -4.8144 H   0  0  0  0  0  0  0  0  0  0  0  0
    3.8406    6.4949   -4.9447 H   0  0  0  0  0  0  0  0  0  0  0  0
    3.1914    6.7971   -6.5442 H   0  0  0  0  0  0  0  0  0  0  0  0
    4.4971    8.8769   -4.7573 H   0  0  0  0  0  0  0  0  0  0  0  0
    5.2330    8.1223   -6.1850 H   0  0  0  0  0  0  0  0  0  0  0  0
    3.8504    9.1882   -6.3727 H   0  0  0  0  0  0  0  0  0  0  0  0
   -2.4641    5.2604  -10.0800 H   0  0  0  0  0  0  0  0  0  0  0  0
   -3.2264    6.8466   -6.3348 H   0  0  0  0  0  0  0  0  0  0  0  0
   -0.7288    5.7252   -4.5537 H   0  0  0  0  0  0  0  0  0  0  0  0
   -2.3593    4.5680   -5.0244 H   0  0  0  0  0  0  0  0  0  0  0  0
   -0.0790    5.0621   -5.9787 H   0  0  0  0  0  0  0  0  0  0  0  0
   -1.2821    2.6018   -6.4443 H   0  0  0  0  0  0  0  0  0  0  0  0
   -3.0398    3.2909   -5.9674 H   0  0  0  0  0  0  0  0  0  0  0  0
   -2.3408    2.1407   -7.5577 H   0  0  0  0  0  0  0  0  0  0  0  0
   -0.1297    6.3337    0.9037 H   0  0  0  0  0  0  0  0  0  0  0  0
   -1.5472    7.4577    0.6422 H   0  0  0  0  0  0  0  0  0  0  0  0
   -0.6794    8.4795   -1.5992 H   0  0  0  0  0  0  0  0  0  0  0  0
   -2.0566    3.3992   -1.1041 H   0  0  0  0  0  0  0  0  0  0  0  0
   -0.2557    3.3471   -1.6829 H   0  0  0  0  0  0  0  0  0  0  0  0
   -0.6796    6.3236   -6.0032 H   0  0  0  0  0  0  0  0  0  0  0  0
   -2.9192    5.9958   -5.2576 H   0  0  0  0  0  0  0  0  0  0  0  0
   -2.1041    7.6171   -5.6647 H   0  0  0  0  0  0  0  0  0  0  0  0
   -1.0223   10.0568   -3.7571 H   0  0  0  0  0  0  0  0  0  0  0  0
   -1.3869   10.5742   -9.8438 H   0  0  0  0  0  0  0  0  0  0  0  0
   -3.1212   10.6882   -9.4759 H   0  0  0  0  0  0  0  0  0  0  0  0
   -1.9961   11.8827   -8.8263 H   0  0  0  0  0  0  0  0  0  0  0  0
   -0.4368   11.9394   -5.7869 H   0  0  0  0  0  0  0  0  0  0  0  0
   -1.5694   12.4903   -7.0176 H   0  0  0  0  0  0  0  0  0  0  0  0
   -2.3465   11.4976   -4.2598 H   0  0  0  0  0  0  0  0  0  0  0  0
   -2.3331   13.1746   -4.7925 H   0  0  0  0  0  0  0  0  0  0  0  0
   -3.4722   12.0217   -5.5117 H   0  0  0  0  0  0  0  0  0  0  0  0
   -2.4234    8.2752   -9.9454 H   0  0  0  0  0  0  0  0  0  0  0  0
    1.4427    7.4300    1.4450 H   0  0  0  0  0  0  0  0  0  0  0  0
    0.3035    8.8919    1.3001 H   0  0  0  0  0  0  0  0  0  0  0  0
    0.7307    8.0629    2.5249 H   0  0  0  0  0  0  0  0  0  0  0  0
   -3.1913    5.6733    0.9741 H   0  0  0  0  0  0  0  0  0  0  0  0
   -2.2426    5.0212    2.3367 H   0  0  0  0  0  0  0  0  0  0  0  0
   -4.0704    6.4838    3.1166 H   0  0  0  0  0  0  0  0  0  0  0  0
   -2.5086    7.1630    3.5556 H   0  0  0  0  0  0  0  0  0  0  0  0
   -1.1591    3.9431   -6.0743 H   0  0  0  0  0  0  0  0  0  0  0  0
   -2.7377    9.7546    0.8975 H   0  0  0  0  0  0  0  0  0  0  0  0
  1  2  1  0  0  0  0
  2  3  1  0  0  0  0
  2 48  1  0  0  0  0
  2 49  1  0  0  0  0
  3  4  1  0  0  0  0
  3 50  1  0  0  0  0
  3 51  1  0  0  0  0
  4  5  1  0  0  0  0
  4 52  1  0  0  0  0
  4 53  1  0  0  0  0
  5  6  1  0  0  0  0
  5 54  1  0  0  0  0
  5 55  1  0  0  0  0
  6  7  1  0  0  0  0
  6 56  1  0  0  0  0
  6 57  1  0  0  0  0
  7 58  1  0  0  0  0
  7 59  1  0  0  0  0
  7 60  1  0  0  0  0
  8 13  1  0  0  0  0
  8  9  1  0  0  0  0
  9 15  1  0  0  0  0
  9 10  2  0  0  0  0
 10 11  1  0  0  0  0
 10 45  1  0  0  0  0
 11 12  1  0  0  0  0
 11 61  1  0  0  0  0
 12  8  2  0  0  0  0
 13 14  1  0  0  0  0
 13  1  1  0  0  0  0
 13 62  1  0  0  0  0
 14 63  1  0  0  0  0
 14 64  1  0  0  0  0
 14 65  1  0  0  0  0
 15 66  1  0  0  0  0
 15 67  1  0  0  0  0
 15 68  1  0  0  0  0
 16 17  1  0  0  0  0
 17 18  1  0  0  0  0
 17 45  2  0  0  0  0
 18 19  1  0  0  0  0
 18 69  1  1  0  0  0
 18 41  1  0  0  0  0
 19 20  1  0  0  0  0
 19 42  1  0  0  0  0
 19 70  1  6  0  0  0
 20 16  2  0  0  0  0
 21 37  1  0  0  0  0
 21 22  1  0  0  0  0
 22 23  1  0  0  0  0
 22 40  2  0  0  0  0
 23 24  2  0  0  0  0
 24 25  1  0  0  0  0
 25 21  2  0  0  0  0
 25 38  1  0  0  0  0
 26 27  1  0  0  0  0
 26 36  2  0  0  0  0
 27 28  1  0  0  0  0
 27 71  1  0  0  0  0
 28 29  1  0  0  0  0
 28 31  2  0  0  0  0
 29 30  2  0  0  0  0
 30 26  1  0  0  0  0
 30 35  1  0  0  0  0
 31 32  1  0  0  0  0
 31 20  1  0  0  0  0
 32 33  1  0  0  0  0
 32 72  1  0  0  0  0
 32 73  1  0  0  0  0
 33 29  1  0  0  0  0
 33 34  2  0  0  0  0
 35 74  1  0  0  0  0
 35 75  1  0  0  0  0
 35 76  1  0  0  0  0
 36 24  1  0  0  0  0
 36 77  1  0  0  0  0
 37 78  1  0  0  0  0
 37 79  1  0  0  0  0
 37 80  1  0  0  0  0
 38 39  1  0  0  0  0
 38 81  1  0  0  0  0
 38 82  1  0  0  0  0
 39 83  1  0  0  0  0
 39 84  1  0  0  0  0
 39 85  1  0  0  0  0
 40 12  1  0  0  0  0
 40 86  1  0  0  0  0
 41 87  1  0  0  0  0
 41 88  1  0  0  0  0
 41 89  1  0  0  0  0
 42 43  1  0  0  0  0
 42 90  1  0  0  0  0
 42 91  1  0  0  0  0
 43 44  1  0  0  0  0
 43 92  1  0  0  0  0
 43 93  1  0  0  0  0
 44 46  2  0  0  0  0
 44 47  1  0  0  0  0
 45 94  1  0  0  0  0
 47 95  1  0  0  0  0
M  END
>  <DRUGBANK_ID>
DB15243

>  <COMMON_NAME>
2-(1-Hexyloxyethyl)-2-devinyl pyropheophorbide-a

>  <CAS_NUMBER>
149402-51-7

>  <UNII>
DOB7Y3RSX0

>  <SYNONYMS>
3-PHORBINEPROPANOIC ACID, 14-ETHYL-9-(1-(HEXYLOXY)ETHYL)-4,8,13,18-TETRAMETHYL-20-OXO-, (3S,4S)-; HPPH; PHOTOCHLOR

$$$$
