
 OpenBabel10282417123D

 50 50  0  0  0  0  0  0  0  0999 V2000
   -0.8472   -0.2620    0.8960 C   0  0  2  0  0  0  0  0  0  0  0  0
    0.3359   -0.0697    0.0119 C   0  0  0  0  0  0  0  0  0  0  0  0
   -0.9928   -0.1896   -0.6578 C   0  0  0  0  0  0  0  0  0  0  0  0
   -1.5701    0.7867    1.6307 C   0  0  0  0  0  0  0  0  0  0  0  0
   -0.9865    1.3188    2.8478 N   0  0  0  0  0  0  0  0  0  0  0  0
   -1.3916    2.3498    3.7792 C   0  0  0  0  0  0  0  0  0  0  0  0
   -0.5283    2.6868    4.9877 C   0  0  0  0  0  0  0  0  0  0  0  0
   -2.6939    4.1866    0.1446 C   0  0  0  0  0  0  0  0  0  0  0  0
   -3.7682    3.6190   -0.8049 C   0  0  1  0  0  0  0  0  0  0  0  0
   -2.6169    0.9518    1.0600 O   0  0  0  0  0  0  0  0  0  0  0  0
   -0.9013    3.7187    5.7944 O   0  0  0  0  0  0  0  0  0  0  0  0
    0.4709    2.0322    5.2637 O   0  0  0  0  0  0  0  0  0  0  0  0
   -1.6150    3.6705    0.4124 O   0  0  0  0  0  0  0  0  0  0  0  0
   -2.5135    3.0797    3.7203 C   0  0  0  0  0  0  0  0  0  0  0  0
   -3.2039    2.3736   -1.3991 N   0  0  0  0  0  0  0  0  0  0  0  0
   -3.0180    5.3579    0.7223 O   0  0  0  0  0  0  0  0  0  0  0  0
    1.2134   -1.2674   -0.0810 C   0  0  0  0  0  0  0  0  0  0  0  0
    1.0049    1.2792   -0.0066 C   0  0  0  0  0  0  0  0  0  0  0  0
   -6.3025    4.5254    0.4530 S   0  0  0  0  0  0  0  0  0  0  0  0
   -5.2104    3.2773   -0.3606 C   0  0  0  0  0  0  0  0  0  0  0  0
   -3.4754    2.9317    2.6628 C   0  0  0  0  0  0  0  0  0  0  0  0
   -5.6447    4.8242    2.1376 C   0  0  0  0  0  0  0  0  0  0  0  0
   -4.8615    2.4365    2.8039 C   0  0  0  0  0  0  0  0  0  0  0  0
   -5.6560    3.6681    3.1644 C   0  0  0  0  0  0  0  0  0  0  0  0
   -1.1479   -1.2390    1.2586 H   0  0  0  0  0  0  0  0  0  0  0  0
   -1.3462    0.6898   -1.1821 H   0  0  0  0  0  0  0  0  0  0  0  0
   -1.2967   -1.0873   -1.1889 H   0  0  0  0  0  0  0  0  0  0  0  0
   -0.0972    0.9017    3.1143 H   0  0  0  0  0  0  0  0  0  0  0  0
   -3.8334    4.3620   -1.5993 H   0  0  0  0  0  0  0  0  0  0  0  0
   -1.6936    4.2582    5.6307 H   0  0  0  0  0  0  0  0  0  0  0  0
   -2.7669    3.9365    4.3242 H   0  0  0  0  0  0  0  0  0  0  0  0
   -2.1992    2.5435   -1.5089 H   0  0  0  0  0  0  0  0  0  0  0  0
   -3.2064    1.6536   -0.6518 H   0  0  0  0  0  0  0  0  0  0  0  0
   -2.5007    5.3872    1.5580 H   0  0  0  0  0  0  0  0  0  0  0  0
    0.6827   -2.1552    0.2886 H   0  0  0  0  0  0  0  0  0  0  0  0
    1.4944   -1.4552   -1.1185 H   0  0  0  0  0  0  0  0  0  0  0  0
    2.0947   -1.1263    0.5429 H   0  0  0  0  0  0  0  0  0  0  0  0
    1.2328    1.5954   -1.0290 H   0  0  0  0  0  0  0  0  0  0  0  0
    0.3872    2.0666    0.4385 H   0  0  0  0  0  0  0  0  0  0  0  0
    1.9291    1.2422    0.5737 H   0  0  0  0  0  0  0  0  0  0  0  0
   -5.3150    2.2817    0.0808 H   0  0  0  0  0  0  0  0  0  0  0  0
   -5.7535    3.0906   -1.3026 H   0  0  0  0  0  0  0  0  0  0  0  0
   -3.4862    3.8691    2.1829 H   0  0  0  0  0  0  0  0  0  0  0  0
   -3.0190    2.3664    1.9483 H   0  0  0  0  0  0  0  0  0  0  0  0
   -6.2617    5.6193    2.5663 H   0  0  0  0  0  0  0  0  0  0  0  0
   -4.6859    5.3385    2.0893 H   0  0  0  0  0  0  0  0  0  0  0  0
   -5.1856    2.0302    1.8532 H   0  0  0  0  0  0  0  0  0  0  0  0
   -4.9320    1.5837    3.4823 H   0  0  0  0  0  0  0  0  0  0  0  0
   -6.6766    3.3783    3.3888 H   0  0  0  0  0  0  0  0  0  0  0  0
   -5.1999    4.0620    4.0838 H   0  0  0  0  0  0  0  0  0  0  0  0
  1 25  1  1  0  0  0
  1  4  1  0  0  0  0
  2  1  1  0  0  0  0
  3  1  1  0  0  0  0
  3  2  1  0  0  0  0
  3 26  1  0  0  0  0
  3 27  1  0  0  0  0
  5  4  1  0  0  0  0
  5 28  1  0  0  0  0
  6  5  1  0  0  0  0
  7  6  1  0  0  0  0
  8  9  1  0  0  0  0
  9 20  1  0  0  0  0
  9 29  1  6  0  0  0
 10  4  2  0  0  0  0
 11  7  1  0  0  0  0
 11 30  1  0  0  0  0
 12  7  2  0  0  0  0
 13  8  2  0  0  0  0
 14  6  2  0  0  0  0
 14 31  1  0  0  0  0
 15  9  1  0  0  0  0
 15 32  1  0  0  0  0
 15 33  1  0  0  0  0
 16  8  1  0  0  0  0
 16 34  1  0  0  0  0
 17  2  1  0  0  0  0
 17 35  1  0  0  0  0
 17 36  1  0  0  0  0
 17 37  1  0  0  0  0
 18  2  1  0  0  0  0
 18 38  1  0  0  0  0
 18 39  1  0  0  0  0
 18 40  1  0  0  0  0
 19 22  1  0  0  0  0
 20 19  1  0  0  0  0
 20 41  1  0  0  0  0
 20 42  1  0  0  0  0
 21 14  1  0  0  0  0
 21 43  1  0  0  0  0
 21 44  1  0  0  0  0
 22 24  1  0  0  0  0
 22 45  1  0  0  0  0
 22 46  1  0  0  0  0
 23 21  1  0  0  0  0
 23 47  1  0  0  0  0
 23 48  1  0  0  0  0
 24 23  1  0  0  0  0
 24 49  1  0  0  0  0
 24 50  1  0  0  0  0
M  END
>  <DRUGBANK_ID>
DB01597

>  <SECONDARY_ACCESSION_NUMBERS>
EXPT00918

>  <COMMON_NAME>
Cilastatin

>  <CAS_NUMBER>
82009-34-5

>  <UNII>
141A6AMN38

>  <SYNONYMS>
(L)-7-(2-Amino-2-carboxy-ethylsulfanyl)-2-[(2,2-dimethyl-cyclopropanecarbonyl)-amino]-hept-2-enoic acid; (Z)-(S)-6-carboxy-6-[(S)-2,2-dimethylcyclopropanecarboxamido]hex-5-enyl-L-cysteine; (Z)-7-((R)-2-Amino-2-carboxy-ethylsulfanyl)-2-[((S)-2,2-dimethyl-cyclopropanecarbonyl)-amino]-hept-2-enoic acid; Cilastatin; Cilastatina; Cilastatine; Cilastatinum

$$$$
