
 OpenBabel10282417153D

 27 28  0  0  1  0  0  0  0  0999 V2000
   -0.6148    1.1821   -0.0092 C   0  0  0  0  0  0  0  0  0  0  0  0
   -1.4356   -0.0371   -0.0271 C   0  0  0  0  0  0  0  0  0  0  0  0
   -0.7135   -1.1566   -0.0415 C   0  0  0  0  0  0  0  0  0  0  0  0
    0.6704   -1.1503   -0.0200 N   0  0  0  0  0  0  0  0  0  0  0  0
    1.3851    0.0518   -0.0085 C   0  0  0  0  0  0  0  0  0  0  0  0
    2.6161    0.0663    0.0210 O   0  0  0  0  0  0  0  0  0  0  0  0
    0.6760    1.2306   -0.0028 N   0  0  0  0  0  0  0  0  0  0  0  0
    1.4236   -2.3984    0.0360 C   0  0  1  0  0  0  0  0  0  0  0  0
    1.1407   -3.2387    1.2770 C   0  0  0  0  0  0  0  0  0  0  0  0
    1.3862   -4.6446    0.7818 C   0  0  1  0  0  0  0  0  0  0  0  0
    0.9996   -4.5913   -0.6955 C   0  0  2  0  0  0  0  0  0  0  0  0
    1.1259   -3.2133   -1.1109 O   0  0  0  0  0  0  0  0  0  0  0  0
   -0.4402   -5.0570   -0.9576 C   0  0  0  0  0  0  0  0  0  0  0  0
   -1.4097   -4.3360   -0.2024 O   0  0  0  0  0  0  0  0  0  0  0  0
    2.7640   -4.9748    0.9497 O   0  0  0  0  0  0  0  0  0  0  0  0
   -3.4491    0.0490   -0.0106 I   0  0  0  0  0  0  0  0  0  0  0  0
   -1.1681    2.1355    0.0016 H   0  0  0  0  0  0  0  0  0  0  0  0
   -1.2034   -2.1182   -0.0590 H   0  0  0  0  0  0  0  0  0  0  0  0
    2.5009   -2.2026   -0.0075 H   0  0  0  0  0  0  0  0  0  0  0  0
    0.1029   -3.1280    1.6046 H   0  0  0  0  0  0  0  0  0  0  0  0
    1.7746   -2.9463    2.1185 H   0  0  0  0  0  0  0  0  0  0  0  0
    0.8163   -5.3958    1.3372 H   0  0  0  0  0  0  0  0  0  0  0  0
    1.6821   -5.1923   -1.3095 H   0  0  0  0  0  0  0  0  0  0  0  0
   -0.6914   -4.9161   -2.0136 H   0  0  0  0  0  0  0  0  0  0  0  0
   -0.5541   -6.1159   -0.7100 H   0  0  0  0  0  0  0  0  0  0  0  0
   -1.2301   -4.4702    0.7417 H   0  0  0  0  0  0  0  0  0  0  0  0
    3.3104   -4.3593    0.4291 H   0  0  0  0  0  0  0  0  0  0  0  0
  1  2  1  0  0  0  0
  1  7  2  0  0  0  0
  1 17  1  0  0  0  0
  2  3  2  0  0  0  0
  2 16  1  0  0  0  0
  3  4  1  0  0  0  0
  3 18  1  0  0  0  0
  4  5  1  0  0  0  0
  5  6  2  0  0  0  0
  5  7  1  0  0  0  0
  8  4  1  0  0  0  0
  8  9  1  0  0  0  0
  8 12  1  0  0  0  0
  8 19  1  6  0  0  0
  9 10  1  0  0  0  0
  9 20  1  0  0  0  0
  9 21  1  0  0  0  0
 10 11  1  0  0  0  0
 10 15  1  0  0  0  0
 10 22  1  1  0  0  0
 11 12  1  0  0  0  0
 11 23  1  6  0  0  0
 11 13  1  0  0  0  0
 13 14  1  0  0  0  0
 13 24  1  0  0  0  0
 13 25  1  0  0  0  0
 14 26  1  0  0  0  0
 15 27  1  0  0  0  0
M  END
>  <DRUGBANK_ID>
DB06485

>  <COMMON_NAME>
Ropidoxuridine

>  <CAS_NUMBER>
93265-81-7

>  <UNII>
3HX21A3SQF

>  <SYNONYMS>
1-(2-DEOXY-.BETA.-D-ERYTHRO-PENTOFURANOSYL)-5-IODOPYRIMIDIN-2(1H)-ONE; 2(1H)-PYRIMIDINONE, 1-(2-DEOXY-.BETA.-D-ERYTHRO-PENTOFURANOSYL)-5-IODO-; 5-iodo-2-pyrimidinone-2'-deoxyribose; Ropidoxuridine

$$$$
