
 OpenBabel10282417233D

 41 42  0  0  0  0  0  0  0  0999 V2000
    2.1823    0.0456   -0.0445 C   0  0  0  0  0  0  0  0  0  0  0  0
    0.7296    0.0250   -0.0782 N   0  0  0  0  0  0  0  0  0  0  0  0
   -0.0596   -1.1155   -0.0464 C   0  0  0  0  0  0  0  0  0  0  0  0
    0.4514   -2.5242    0.0517 C   0  0  0  0  0  0  0  0  0  0  0  0
   -0.0589   -3.2210    1.3098 C   0  0  0  0  0  0  0  0  0  0  0  0
   -0.7409   -4.2459    1.2402 O   0  0  0  0  0  0  0  0  0  0  0  0
    0.3255   -2.7773    2.5475 N   0  0  0  0  0  0  0  0  0  0  0  0
    1.0642   -1.5734    2.8852 C   0  0  0  0  0  0  0  0  0  0  0  0
    0.2214   -0.4938    3.5628 C   0  0  0  0  0  0  0  0  0  0  0  0
    0.7702    0.0063    4.6936 O   0  0  0  0  0  0  0  0  0  0  0  0
   -0.8646   -0.0975    3.1559 O   0  0  0  0  0  0  0  0  0  0  0  0
   -1.3799   -0.7066   -0.0669 C   0  0  0  0  0  0  0  0  0  0  0  0
   -1.3954    0.7007   -0.0318 C   0  0  0  0  0  0  0  0  0  0  0  0
   -0.0852    1.1533   -0.0422 C   0  0  0  0  0  0  0  0  0  0  0  0
    0.3216    2.5552   -0.0068 C   0  0  0  0  0  0  0  0  0  0  0  0
   -0.0320    3.3250    0.8839 O   0  0  0  0  0  0  0  0  0  0  0  0
    1.1470    3.1052   -1.1285 C   0  0  0  0  0  0  0  0  0  0  0  0
    1.4825    2.3121   -2.2302 C   0  0  0  0  0  0  0  0  0  0  0  0
    2.3000    2.7959   -3.2442 C   0  0  0  0  0  0  0  0  0  0  0  0
    2.7260    4.1219   -3.2259 C   0  0  0  0  0  0  0  0  0  0  0  0
    3.5403    4.6580   -4.3633 C   0  0  0  0  0  0  0  0  0  0  0  0
    2.3505    4.9462   -2.1568 C   0  0  0  0  0  0  0  0  0  0  0  0
    1.5742    4.4396   -1.1061 C   0  0  0  0  0  0  0  0  0  0  0  0
    2.5731    0.4468   -0.9741 H   0  0  0  0  0  0  0  0  0  0  0  0
    2.5142    0.6357    0.8126 H   0  0  0  0  0  0  0  0  0  0  0  0
    2.5866   -0.9612    0.0439 H   0  0  0  0  0  0  0  0  0  0  0  0
    0.1000   -3.0821   -0.8251 H   0  0  0  0  0  0  0  0  0  0  0  0
    1.5380   -2.6148    0.0504 H   0  0  0  0  0  0  0  0  0  0  0  0
   -0.1338   -3.2773    3.3001 H   0  0  0  0  0  0  0  0  0  0  0  0
    1.9059   -1.8703    3.5150 H   0  0  0  0  0  0  0  0  0  0  0  0
    1.5094   -1.1424    2.0026 H   0  0  0  0  0  0  0  0  0  0  0  0
    1.6101   -0.3945    4.9816 H   0  0  0  0  0  0  0  0  0  0  0  0
   -2.2438   -1.3615   -0.0399 H   0  0  0  0  0  0  0  0  0  0  0  0
   -2.2769    1.3300    0.0085 H   0  0  0  0  0  0  0  0  0  0  0  0
    1.1232    1.2929   -2.3246 H   0  0  0  0  0  0  0  0  0  0  0  0
    2.5799    2.1274   -4.0544 H   0  0  0  0  0  0  0  0  0  0  0  0
    2.9961    5.4635   -4.8651 H   0  0  0  0  0  0  0  0  0  0  0  0
    4.5020    5.0301   -4.0000 H   0  0  0  0  0  0  0  0  0  0  0  0
    3.7405    3.8784   -5.1071 H   0  0  0  0  0  0  0  0  0  0  0  0
    2.6553    5.9909   -2.1411 H   0  0  0  0  0  0  0  0  0  0  0  0
    1.2895    5.0994   -0.2872 H   0  0  0  0  0  0  0  0  0  0  0  0
  1  2  1  0  0  0  0
  1 24  1  0  0  0  0
  1 25  1  0  0  0  0
  1 26  1  0  0  0  0
  2  3  1  0  0  0  0
  2 14  1  0  0  0  0
  3  4  1  0  0  0  0
  3 12  2  0  0  0  0
  4  5  1  0  0  0  0
  4 27  1  0  0  0  0
  4 28  1  0  0  0  0
  5  6  2  0  0  0  0
  5  7  1  0  0  0  0
  7  8  1  0  0  0  0
  7 29  1  0  0  0  0
  8  9  1  0  0  0  0
  8 30  1  0  0  0  0
  8 31  1  0  0  0  0
  9 10  1  0  0  0  0
  9 11  2  0  0  0  0
 10 32  1  0  0  0  0
 12 13  1  0  0  0  0
 12 33  1  0  0  0  0
 13 14  2  0  0  0  0
 13 34  1  0  0  0  0
 14 15  1  0  0  0  0
 15 16  2  0  0  0  0
 15 17  1  0  0  0  0
 17 18  2  0  0  0  0
 17 23  1  0  0  0  0
 18 19  1  0  0  0  0
 18 35  1  0  0  0  0
 19 20  2  0  0  0  0
 19 36  1  0  0  0  0
 20 21  1  0  0  0  0
 20 22  1  0  0  0  0
 21 37  1  0  0  0  0
 21 38  1  0  0  0  0
 21 39  1  0  0  0  0
 22 23  2  0  0  0  0
 22 40  1  0  0  0  0
 23 41  1  0  0  0  0
M  END
>  <DRUGBANK_ID>
DB16088

>  <COMMON_NAME>
Amtolmetin guacil

>  <CAS_NUMBER>
87344-05-6

>  <UNII>
3RS348SV6U

>  <SYNONYMS>
Amtolmetin; Tolmetin glycine amide

$$$$
