
 OpenBabel10282417183D

 19 16  0  0  0  0  0  0  0  0999 V2000
    2.0324   -0.7853    0.0731 C   0  0  0  0  0  0  0  0  0  0  0  0
    1.1487   -0.9955    1.6305 C   0  0  0  0  0  0  0  0  0  0  0  0
    0.1369   -0.3266    2.0543 O   0  0  0  0  0  0  0  0  0  0  0  0
    1.2799   -2.1473    2.1291 O   0  5  0  0  0  0  0  0  0  0  0  0
    1.7910    0.1196   -1.3149 N   0  0  0  0  0  0  0  0  0  0  0  0
    0.1008    1.1513    0.2125 C   0  0  0  0  0  0  0  0  0  0  0  0
   -0.2477    2.2836   -0.6842 C   0  0  0  0  0  0  0  0  0  0  0  0
   -1.0788    1.9506   -1.5298 O   0  0  0  0  0  0  0  0  0  0  0  0
    0.3889    3.3632   -0.3997 O   0  5  0  0  0  0  0  0  0  0  0  0
   -0.5690   -0.3482   -0.3547 N   0  0  0  0  0  0  0  0  0  0  0  0
   -1.5254   -0.6302    1.3195 Fe  0  2  0  0  0  0  0  0  0  0  0  0
    1.8791   -1.7728   -0.3671 H   0  0  0  0  0  0  0  0  0  0  0  0
    3.0838   -0.6120    0.2723 H   0  0  0  0  0  0  0  0  0  0  0  0
    0.8416    0.3813   -1.6573 H   0  0  0  0  0  0  0  0  0  0  0  0
    2.1296    1.0990   -1.1965 H   0  0  0  0  0  0  0  0  0  0  0  0
   -0.0245    1.4322    1.2631 H   0  0  0  0  0  0  0  0  0  0  0  0
    1.1931    1.1627    0.3183 H   0  0  0  0  0  0  0  0  0  0  0  0
   -1.1049   -0.1701   -1.2360 H   0  0  0  0  0  0  0  0  0  0  0  0
    0.2292   -0.8081   -0.9126 H   0  0  0  0  0  0  0  0  0  0  0  0
  1  2  1  0  0  0  0
  1  5  1  0  0  0  0
  1 12  1  0  0  0  0
  1 13  1  0  0  0  0
  2  3  2  0  0  0  0
  2  4  1  0  0  0  0
  5 14  1  0  0  0  0
  5 15  1  0  0  0  0
  6  7  1  0  0  0  0
  6 10  1  0  0  0  0
  6 16  1  0  0  0  0
  6 17  1  0  0  0  0
  7  8  2  0  0  0  0
  7  9  1  0  0  0  0
 10 18  1  0  0  0  0
 10 19  1  0  0  0  0
M  CHG  3   4  -1   9  -1  11   2
M  END
>  <DRUGBANK_ID>
DB11210

>  <COMMON_NAME>
Ferrous bisglycinate

>  <CAS_NUMBER>
20150-34-9

>  <UNII>
SFW1D987QV

$$$$
