
 OpenBabel10282417183D

 40 41  0  0  0  0  0  0  0  0999 V2000
    1.7044    0.8159   -0.6594 C   0  0  0  0  0  0  0  0  0  0  0  0
   -0.6963    1.7656   -0.5815 C   0  0  0  0  0  0  0  0  0  0  0  0
   -3.8681   -3.6341    4.1216 C   0  0  0  0  0  0  0  0  0  0  0  0
   -2.8627   -4.3588    3.5067 C   0  0  0  0  0  0  0  0  0  0  0  0
   -3.6307   -2.3211    4.5343 C   0  0  0  0  0  0  0  0  0  0  0  0
    0.7621   -3.2251    0.2211 C   0  0  0  0  0  0  0  0  0  0  0  0
    0.3846   -2.1099   -0.4134 C   0  0  0  0  0  0  0  0  0  0  0  0
   -1.6039   -3.7974    3.3929 C   0  0  0  0  0  0  0  0  0  0  0  0
   -2.3832   -1.7257    4.3301 C   0  0  0  0  0  0  0  0  0  0  0  0
    0.8238   -3.1740    1.6168 C   0  0  0  0  0  0  0  0  0  0  0  0
   -0.0149   -0.9926    0.3344 C   0  0  0  0  0  0  0  0  0  0  0  0
    1.0928    2.5166    0.7984 C   0  0  0  0  0  0  0  0  0  0  0  0
    0.4680    1.7867    2.0379 C   0  0  0  0  0  0  0  0  0  0  0  0
    0.0927   -1.9524    3.7623 C   0  0  0  0  0  0  0  0  0  0  0  0
   -1.3269   -2.4929    3.8313 C   0  0  0  0  0  0  0  0  0  0  0  0
    0.5761   -1.9503    2.3272 C   0  0  0  0  0  0  0  0  0  0  0  0
    0.3583   -0.7801    1.6606 C   0  0  0  0  0  0  0  0  0  0  0  0
    0.7812    1.9609   -0.5241 N   0  0  0  0  0  0  0  0  0  0  0  0
    0.6664    0.3809    2.3219 O   0  0  0  0  0  0  0  0  0  0  0  0
    1.4649    0.1470   -1.4880 H   0  0  0  0  0  0  0  0  0  0  0  0
    1.7539    0.2805    0.2752 H   0  0  0  0  0  0  0  0  0  0  0  0
    2.7826    1.0193   -0.6959 H   0  0  0  0  0  0  0  0  0  0  0  0
   -1.1491    1.3483    0.3358 H   0  0  0  0  0  0  0  0  0  0  0  0
   -1.2255    2.7138   -0.6927 H   0  0  0  0  0  0  0  0  0  0  0  0
   -1.0424    1.1248   -1.4044 H   0  0  0  0  0  0  0  0  0  0  0  0
   -4.8355   -4.0983    4.2759 H   0  0  0  0  0  0  0  0  0  0  0  0
   -3.0218   -5.3691    3.1439 H   0  0  0  0  0  0  0  0  0  0  0  0
   -4.4180   -1.7666    5.0356 H   0  0  0  0  0  0  0  0  0  0  0  0
    0.8775   -4.1461   -0.3494 H   0  0  0  0  0  0  0  0  0  0  0  0
    0.3879   -2.0194   -1.5071 H   0  0  0  0  0  0  0  0  0  0  0  0
   -0.8432   -4.4168    2.9421 H   0  0  0  0  0  0  0  0  0  0  0  0
   -2.2439   -0.6757    4.5794 H   0  0  0  0  0  0  0  0  0  0  0  0
    0.9587   -4.1077    2.1330 H   0  0  0  0  0  0  0  0  0  0  0  0
   -0.4454   -0.2784   -0.2750 H   0  0  0  0  0  0  0  0  0  0  0  0
    2.1851    2.5835    0.9008 H   0  0  0  0  0  0  0  0  0  0  0  0
    0.7526    3.5608    0.7752 H   0  0  0  0  0  0  0  0  0  0  0  0
    0.9228    2.3216    2.8881 H   0  0  0  0  0  0  0  0  0  0  0  0
   -0.5969    2.0079    2.1411 H   0  0  0  0  0  0  0  0  0  0  0  0
    0.7697   -2.5160    4.4047 H   0  0  0  0  0  0  0  0  0  0  0  0
    0.0862   -0.9277    4.1643 H   0  0  0  0  0  0  0  0  0  0  0  0
  1 20  1  0  0  0  0
  1 21  1  0  0  0  0
  1 22  1  0  0  0  0
  2 23  1  0  0  0  0
  2 24  1  0  0  0  0
  2 25  1  0  0  0  0
  3 26  1  0  0  0  0
  4  3  2  0  0  0  0
  4 27  1  0  0  0  0
  5  3  1  0  0  0  0
  5 28  1  0  0  0  0
  6 29  1  0  0  0  0
  7  6  2  0  0  0  0
  7 30  1  0  0  0  0
  8  4  1  0  0  0  0
  8 31  1  0  0  0  0
  9  5  2  0  0  0  0
  9 32  1  0  0  0  0
 10  6  1  0  0  0  0
 10 33  1  0  0  0  0
 11  7  1  0  0  0  0
 11 34  1  0  0  0  0
 12 35  1  0  0  0  0
 12 36  1  0  0  0  0
 13 12  1  0  0  0  0
 13 37  1  0  0  0  0
 13 38  1  0  0  0  0
 14 39  1  0  0  0  0
 14 40  1  0  0  0  0
 15  8  2  0  0  0  0
 15  9  1  0  0  0  0
 15 14  1  0  0  0  0
 16 10  2  0  0  0  0
 16 14  1  0  0  0  0
 17 11  2  0  0  0  0
 17 16  1  0  0  0  0
 18  1  1  0  0  0  0
 18  2  1  0  0  0  0
 18 12  1  0  0  0  0
 19 13  1  0  0  0  0
 19 17  1  0  0  0  0
M  END
>  <DRUGBANK_ID>
DB11160

>  <COMMON_NAME>
Phenyltoloxamine

>  <CAS_NUMBER>
92-12-6

>  <UNII>
K65LB6598J

>  <SYNONYMS>
Feniltoloxamina; Phenyltoloxamine; Phenyltoloxaminum

$$$$
