PIC
 OpenBabel10282417173D

 29 30  0  0  0  0  0  0  0  0999 V2000
    0.9134    0.0345   -0.0362 C   0  0  0  0  0  0  0  0  0  0  0  0
    0.3391   -1.3200    0.4842 C   0  0  0  0  0  0  0  0  0  0  0  0
   -0.6930   -1.3964    1.4114 C   0  0  0  0  0  0  0  0  0  0  0  0
   -0.1404   -6.2933    1.5615 C   0  0  0  0  0  0  0  0  0  0  0  0
    0.9151   -6.1874    0.6451 C   0  0  0  0  0  0  0  0  0  0  0  0
    1.2939   -4.9391    0.1883 C   0  0  0  0  0  0  0  0  0  0  0  0
    0.5967   -3.8005    0.6269 C   0  0  0  0  0  0  0  0  0  0  0  0
    0.9599   -2.5576    0.1522 C   0  0  0  0  0  0  0  0  0  0  0  0
   -0.4985   -7.6617    2.0156 C   0  0  0  0  0  0  0  0  0  0  0  0
   -1.0659   -2.6494    1.9428 C   0  0  0  0  0  0  0  0  0  0  0  0
   -0.4450   -3.8593    1.5389 C   0  0  0  0  0  0  0  0  0  0  0  0
   -0.8047   -5.1300    2.0057 C   0  0  0  0  0  0  0  0  0  0  0  0
   -1.5093   -7.7609    2.8957 O   0  0  0  0  0  0  0  0  0  0  0  0
    0.0959   -8.6565    1.6060 O   0  0  0  0  0  0  0  0  0  0  0  0
    0.6062    1.1390    0.6884 F   0  0  0  0  0  0  0  0  0  0  0  0
    0.6280    0.2847   -1.3413 F   0  0  0  0  0  0  0  0  0  0  0  0
    2.7434    0.0345   -0.0362 P   0  0  0  0  0  0  0  0  0  0  0  0
    2.6796   -0.5269    1.5056 O   0  0  0  0  0  0  0  0  0  0  0  0
    2.7875   -1.1858   -1.1277 O   0  0  0  0  0  0  0  0  0  0  0  0
    4.2918    0.0345   -0.0362 O   0  0  0  0  0  0  0  0  0  0  0  0
   -1.1855   -0.4960    1.7689 H   0  0  0  0  0  0  0  0  0  0  0  0
    1.4475   -7.0654    0.2793 H   0  0  0  0  0  0  0  0  0  0  0  0
    2.1267   -4.8595   -0.5145 H   0  0  0  0  0  0  0  0  0  0  0  0
    1.8559   -2.6594   -0.4328 H   0  0  0  0  0  0  0  0  0  0  0  0
   -1.8456   -2.6827    2.6994 H   0  0  0  0  0  0  0  0  0  0  0  0
   -1.6214   -5.1662    2.7104 H   0  0  0  0  0  0  0  0  0  0  0  0
   -1.9422   -6.9450    3.1925 H   0  0  0  0  0  0  0  0  0  0  0  0
    2.9262    0.2168    2.1007 H   0  0  0  0  0  0  0  0  0  0  0  0
    2.0428   -1.2104   -1.7637 H   0  0  0  0  0  0  0  0  0  0  0  0
  1  2  1  0  0  0  0
  1 15  1  0  0  0  0
  1 16  1  0  0  0  0
  1 17  1  0  0  0  0
  2  3  1  0  0  0  0
  2  8  2  0  0  0  0
  3 10  2  0  0  0  0
  3 21  1  0  0  0  0
  4  5  1  0  0  0  0
  4  9  1  0  0  0  0
  4 12  2  0  0  0  0
  5  6  2  0  0  0  0
  5 22  1  0  0  0  0
  6  7  1  0  0  0  0
  6 23  1  0  0  0  0
  7  8  1  0  0  0  0
  7 11  2  0  0  0  0
  8 24  1  0  0  0  0
  9 13  1  0  0  0  0
  9 14  2  0  0  0  0
 10 11  1  0  0  0  0
 10 25  1  0  0  0  0
 11 12  1  0  0  0  0
 12 26  1  0  0  0  0
 13 27  1  0  0  0  0
 17 18  1  0  0  0  0
 17 19  1  0  0  0  0
 17 20  2  0  0  0  0
 18 28  1  0  0  0  0
 19 29  1  0  0  0  0
M  END
>  <DRUGBANK_ID>
DB08397

>  <COMMON_NAME>
6-(DIFLUORO-PHOSPHONO-METHYL)-NAPHTHALENE-2-CARBOXYLIC ACID

$$$$
