
 OpenBabel10282417133D

 28 28  0  0  0  0  0  0  0  0999 V2000
    0.9012    0.0098   -0.0122 O   0  0  0  0  0  0  0  0  0  0  0  0
    3.1478    1.1496   -0.0583 O   0  0  0  0  0  0  0  0  0  0  0  0
    3.1508   -1.1345    0.0341 O   0  0  0  0  0  0  0  0  0  0  0  0
    2.9446    2.7575   -0.0824 N   0  3  0  0  0  0  0  0  0  0  0  0
    4.1910    4.4751   -1.2323 N   0  0  0  0  0  0  0  0  0  0  0  0
    4.0561    4.3870    1.3087 N   0  0  0  0  0  0  0  0  0  0  0  0
    0.9346    2.1136    1.1448 C   0  0  0  0  0  0  0  0  0  0  0  0
    2.4546    2.1136    1.1448 C   0  0  0  0  0  0  0  0  0  0  0  0
    0.4279    1.3475   -0.0663 C   0  0  0  0  0  0  0  0  0  0  0  0
    4.5231    0.7803    0.1879 C   0  0  0  0  0  0  0  0  0  0  0  0
    4.5504   -0.7527    0.0063 C   0  0  0  0  0  0  0  0  0  0  0  0
    3.7010    3.8312   -0.0050 C   0  0  0  0  0  0  0  0  0  0  0  0
    2.4012    0.0098   -0.0122 B   0  0  0  0  0  0  0  0  0  0  0  0
    2.6982    2.3719   -0.9940 H   0  0  0  0  0  0  0  0  0  0  0  0
    4.7774    5.3076   -1.1723 H   0  0  0  0  0  0  0  0  0  0  0  0
    3.9446    4.0895   -2.1439 H   0  0  0  0  0  0  0  0  0  0  0  0
    3.7161    3.9402    2.1603 H   0  0  0  0  0  0  0  0  0  0  0  0
    4.6425    5.2194    1.3687 H   0  0  0  0  0  0  0  0  0  0  0  0
    0.5779    3.1216    1.1041 H   0  0  0  0  0  0  0  0  0  0  0  0
    0.5779    1.6449    2.0381 H   0  0  0  0  0  0  0  0  0  0  0  0
    2.8112    2.6529    1.9974 H   0  0  0  0  0  0  0  0  0  0  0  0
    2.8112    1.1057    1.1856 H   0  0  0  0  0  0  0  0  0  0  0  0
    0.7846    1.8162   -0.9596 H   0  0  0  0  0  0  0  0  0  0  0  0
   -0.6421    1.3475   -0.0663 H   0  0  0  0  0  0  0  0  0  0  0  0
    5.2027    1.2801   -0.4703 H   0  0  0  0  0  0  0  0  0  0  0  0
    4.8146    1.0485    1.1819 H   0  0  0  0  0  0  0  0  0  0  0  0
    5.0409   -1.0517   -0.8964 H   0  0  0  0  0  0  0  0  0  0  0  0
    5.0882   -1.2207    0.8041 H   0  0  0  0  0  0  0  0  0  0  0  0
  1  9  1  0  0  0  0
  1 13  1  0  0  0  0
  2 10  1  0  0  0  0
  2 13  1  0  0  0  0
  3 11  1  0  0  0  0
  3 13  1  0  0  0  0
  4  8  1  0  0  0  0
  4 12  2  0  0  0  0
  4 14  1  0  0  0  0
  5 12  1  0  0  0  0
  5 15  1  0  0  0  0
  5 16  1  0  0  0  0
  6 12  1  0  0  0  0
  6 17  1  0  0  0  0
  6 18  1  0  0  0  0
  7  8  1  0  0  0  0
  7  9  1  0  0  0  0
  7 19  1  0  0  0  0
  7 20  1  0  0  0  0
  8 21  1  0  0  0  0
  8 22  1  0  0  0  0
  9 23  1  0  0  0  0
  9 24  1  0  0  0  0
 10 11  1  0  0  0  0
 10 25  1  0  0  0  0
 10 26  1  0  0  0  0
 11 27  1  0  0  0  0
 11 28  1  0  0  0  0
M  CHG  1   4   1
M  END
>  <DRUGBANK_ID>
DB03129

>  <SECONDARY_ACCESSION_NUMBERS>
EXPT02858

>  <COMMON_NAME>
Diamino-N-[3-(1,3,2-dioxaborolan-2-yloxy)propyl]methaniminium

>  <SYNONYMS>
[3-(1,3,2-dioxaborolan-2-yloxy)propyl]guanidine

$$$$
