
 OpenBabel10282417193D

 40 40  0  0  0  0  0  0  0  0999 V2000
   -3.6764   -0.7371    2.9922 C   0  0  0  0  0  0  0  0  0  0  0  0
   -4.1044   -1.9068    3.6192 C   0  0  0  0  0  0  0  0  0  0  0  0
   -3.6307   -3.1312    3.1361 C   0  0  0  0  0  0  0  0  0  0  0  0
   -2.9871   -3.2110    1.9076 C   0  0  0  0  0  0  0  0  0  0  0  0
   -2.5987   -2.0394    1.2494 C   0  0  0  0  0  0  0  0  0  0  0  0
   -2.9284   -0.8044    1.8178 C   0  0  0  0  0  0  0  0  0  0  0  0
   -5.1392   -1.8574    4.7209 C   0  0  0  0  0  0  0  0  0  0  0  0
   -6.4868   -2.5170    4.3136 C   0  0  0  0  0  0  0  0  0  0  0  0
   -7.5072   -2.3744    5.4422 C   0  0  0  0  0  0  0  0  0  0  0  0
   -6.3637   -4.0092    3.9902 C   0  0  0  0  0  0  0  0  0  0  0  0
   -1.7881   -2.1251   -0.0279 C   0  0  2  0  0  0  0  0  0  0  0  0
   -0.5593   -1.2045   -0.0138 C   0  0  0  0  0  0  0  0  0  0  0  0
   -0.5033    0.0153   -0.7530 N   0  0  0  0  0  0  0  0  0  0  0  0
    0.8809    1.0005   -0.7158 S   0  0  0  0  0  0  0  0  0  0  0  0
    1.3596    1.1033   -2.4291 C   0  0  0  0  0  0  0  0  0  0  0  0
    0.4662    2.3185   -0.3047 O   0  0  0  0  0  0  0  0  0  0  0  0
    1.9819    0.3216   -0.0598 O   0  0  0  0  0  0  0  0  0  0  0  0
   -2.6853   -2.1542   -1.2502 C   0  0  0  0  0  0  0  0  0  0  0  0
    0.3717   -1.5434    0.7130 O   0  0  0  0  0  0  0  0  0  0  0  0
   -3.9214    0.2371    3.4069 H   0  0  0  0  0  0  0  0  0  0  0  0
   -3.8243   -4.0543    3.6768 H   0  0  0  0  0  0  0  0  0  0  0  0
   -2.7987   -4.1968    1.4847 H   0  0  0  0  0  0  0  0  0  0  0  0
   -2.6134    0.1229    1.3510 H   0  0  0  0  0  0  0  0  0  0  0  0
   -4.7336   -2.3185    5.6281 H   0  0  0  0  0  0  0  0  0  0  0  0
   -5.3391   -0.8055    4.9735 H   0  0  0  0  0  0  0  0  0  0  0  0
   -6.8802   -2.0062    3.4236 H   0  0  0  0  0  0  0  0  0  0  0  0
   -7.7073   -1.3240    5.6697 H   0  0  0  0  0  0  0  0  0  0  0  0
   -8.4559   -2.8463    5.1620 H   0  0  0  0  0  0  0  0  0  0  0  0
   -7.1464   -2.8646    6.3530 H   0  0  0  0  0  0  0  0  0  0  0  0
   -5.8793   -4.5398    4.8180 H   0  0  0  0  0  0  0  0  0  0  0  0
   -7.3347   -4.4695    3.7973 H   0  0  0  0  0  0  0  0  0  0  0  0
   -5.7984   -4.1802    3.0732 H   0  0  0  0  0  0  0  0  0  0  0  0
   -1.3107   -3.1193   -0.0101 H   0  0  0  0  0  0  0  0  0  0  0  0
   -1.3446    0.4704   -1.1059 H   0  0  0  0  0  0  0  0  0  0  0  0
    0.6340    1.6976   -2.9851 H   0  0  0  0  0  0  0  0  0  0  0  0
    2.3330    1.6068   -2.4609 H   0  0  0  0  0  0  0  0  0  0  0  0
    1.4698    0.1015   -2.8451 H   0  0  0  0  0  0  0  0  0  0  0  0
   -2.0945   -2.2537   -2.1641 H   0  0  0  0  0  0  0  0  0  0  0  0
   -3.3592   -3.0234   -1.1996 H   0  0  0  0  0  0  0  0  0  0  0  0
   -3.3126   -1.2626   -1.3214 H   0  0  0  0  0  0  0  0  0  0  0  0
  1  2  2  0  0  0  0
  1 20  1  0  0  0  0
  2  3  1  0  0  0  0
  2  7  1  0  0  0  0
  3  4  2  0  0  0  0
  3 21  1  0  0  0  0
  4  5  1  0  0  0  0
  4 22  1  0  0  0  0
  5  6  2  0  0  0  0
  6  1  1  0  0  0  0
  6 23  1  0  0  0  0
  7  8  1  0  0  0  0
  7 24  1  0  0  0  0
  7 25  1  0  0  0  0
  8 10  1  0  0  0  0
  8  9  1  0  0  0  0
  8 26  1  0  0  0  0
  9 27  1  0  0  0  0
  9 28  1  0  0  0  0
  9 29  1  0  0  0  0
 10 30  1  0  0  0  0
 10 31  1  0  0  0  0
 10 32  1  0  0  0  0
 11 18  1  0  0  0  0
 11 33  1  1  0  0  0
 11 12  1  0  0  0  0
 11  5  1  0  0  0  0
 12 13  1  0  0  0  0
 12 19  2  0  0  0  0
 13 14  1  0  0  0  0
 13 34  1  0  0  0  0
 14 15  1  0  0  0  0
 14 16  2  0  0  0  0
 14 17  2  0  0  0  0
 15 35  1  0  0  0  0
 15 36  1  0  0  0  0
 15 37  1  0  0  0  0
 18 38  1  0  0  0  0
 18 39  1  0  0  0  0
 18 40  1  0  0  0  0
M  END
>  <DRUGBANK_ID>
DB12614

>  <COMMON_NAME>
Reparixin

>  <CAS_NUMBER>
266359-83-5

>  <UNII>
U604E1NB3K

>  <SYNONYMS>
Reparixin; Reparixina; RÃ©parixine; Reparixinum

$$$$
