
 OpenBabel10282417133D

 61 63  0  0  0  0  0  0  0  0999 V2000
    1.5677   -0.7329   -0.1641 C   0  0  2  0  0  0  0  0  0  0  0  0
    2.0477    0.5743    0.1203 O   0  0  0  0  0  0  0  0  0  0  0  0
    0.4730   -1.0489    0.8084 C   0  0  0  0  0  0  0  0  0  0  0  0
   -0.1168    0.2932    0.9275 C   0  0  2  0  0  0  0  0  0  0  0  0
   -1.0246    0.6249    0.0169 O   0  0  0  0  0  0  0  0  0  0  0  0
    0.9580    1.2866    0.6421 C   0  0  1  0  0  0  0  0  0  0  0  0
    1.1094    1.9501    1.9605 C   0  0  0  0  0  0  0  0  0  0  0  0
    0.2884    3.0702    1.8051 O   0  0  0  0  0  0  0  0  0  0  0  0
   -0.7780    5.0299    1.0435 O   0  0  0  0  0  0  0  0  0  0  0  0
   -2.7308    3.4247    0.9032 O   0  0  0  0  0  0  0  0  0  0  0  0
   -2.2308    2.1471    0.5332 C   0  0  1  0  0  0  0  0  0  0  0  0
   -3.0858    0.7328    0.8685 O   0  0  0  0  0  0  0  0  0  0  0  0
   -2.4169   -0.8273    0.6356 C   0  0  2  0  0  0  0  0  0  0  0  0
   -0.7869    0.5110   -1.8872 C   0  0  1  0  0  0  0  0  0  0  0  0
   -0.7584    0.5048   -3.2852 O   0  0  0  0  0  0  0  0  0  0  0  0
   -1.5228    2.0709   -1.2425 C   0  0  1  0  0  0  0  0  0  0  0  0
   -1.6387   -1.0271   -1.1221 C   0  0  1  0  0  0  0  0  0  0  0  0
   -0.9873   -2.2785   -1.4284 O   0  0  0  0  0  0  0  0  0  0  0  0
   -2.6824    5.8986    0.0624 O   0  0  0  0  0  0  0  0  0  0  0  0
   -2.0084    4.5375   -0.0686 P   0  0  3  0  0  0  0  0  0  0  0  0
   -3.2387    4.0452   -1.1808 O   0  0  0  0  0  0  0  0  0  0  0  0
    1.6992    5.2106    2.0425 O   0  0  0  0  0  0  0  0  0  0  0  0
    0.6844    4.4845    1.2376 P   0  0  3  0  0  0  0  0  0  0  0  0
    1.0121    4.5794   -0.3203 O   0  0  0  0  0  0  0  0  0  0  0  0
   -2.6675    2.0643   -2.0824 O   0  0  0  0  0  0  0  0  0  0  0  0
   -3.2083   -1.9035    1.3159 C   0  0  0  0  0  0  0  0  0  0  0  0
    2.7979   -2.4710   -1.2142 C   0  0  0  0  0  0  0  0  0  0  0  0
    4.3036   -2.6773    1.0297 N   0  0  0  0  0  0  0  0  0  0  0  0
    2.6148   -1.6516   -0.1298 N   0  0  0  0  0  0  0  0  0  0  0  0
    4.4303   -3.6954    0.0918 C   0  0  0  0  0  0  0  0  0  0  0  0
    5.1225   -4.6288    0.2552 O   0  0  0  0  0  0  0  0  0  0  0  0
    3.3074   -1.7679    1.0549 C   0  0  0  0  0  0  0  0  0  0  0  0
    3.0486   -1.1422    2.0800 O   0  0  0  0  0  0  0  0  0  0  0  0
    3.6001   -3.5135   -1.1468 C   0  0  0  0  0  0  0  0  0  0  0  0
    3.6854   -4.5265   -2.2278 C   0  0  0  0  0  0  0  0  0  0  0  0
    1.2131   -0.7527   -1.1929 H   0  0  0  0  0  0  0  0  0  0  0  0
    0.7713   -1.2487    1.8247 H   0  0  0  0  0  0  0  0  0  0  0  0
   -0.1239   -1.9327    0.5665 H   0  0  0  0  0  0  0  0  0  0  0  0
   -0.6445    0.4599    1.8437 H   0  0  0  0  0  0  0  0  0  0  0  0
   -2.0026    0.5173   -0.2958 H   0  0  0  0  0  0  0  0  0  0  0  0
    0.6964    2.0534   -0.1100 H   0  0  0  0  0  0  0  0  0  0  0  0
    0.6513    1.3570    2.7740 H   0  0  0  0  0  0  0  0  0  0  0  0
    2.1328    2.1265    2.2275 H   0  0  0  0  0  0  0  0  0  0  0  0
   -1.4885    2.1255    1.3252 H   0  0  0  0  0  0  0  0  0  0  0  0
   -1.6800   -0.9135    1.4529 H   0  0  0  0  0  0  0  0  0  0  0  0
    0.2852    0.6571   -1.6432 H   0  0  0  0  0  0  0  0  0  0  0  0
   -1.5924    0.9530   -3.4900 H   0  0  0  0  0  0  0  0  0  0  0  0
   -0.8307    2.9270   -1.4379 H   0  0  0  0  0  0  0  0  0  0  0  0
   -2.5429   -1.0793   -1.7032 H   0  0  0  0  0  0  0  0  0  0  0  0
   -0.0244   -2.3020   -1.2987 H   0  0  0  0  0  0  0  0  0  0  0  0
   -2.9894    3.4905   -1.9453 H   0  0  0  0  0  0  0  0  0  0  0  0
    1.0851    5.5647   -0.4398 H   0  0  0  0  0  0  0  0  0  0  0  0
   -3.3779    1.7220   -1.4911 H   0  0  0  0  0  0  0  0  0  0  0  0
   -2.6623   -2.8523    1.2333 H   0  0  0  0  0  0  0  0  0  0  0  0
   -3.2679   -1.6835    2.4055 H   0  0  0  0  0  0  0  0  0  0  0  0
   -4.2018   -1.8999    0.9084 H   0  0  0  0  0  0  0  0  0  0  0  0
    2.2098   -2.2705   -2.1158 H   0  0  0  0  0  0  0  0  0  0  0  0
    4.8273   -2.7705    1.8794 H   0  0  0  0  0  0  0  0  0  0  0  0
    4.7018   -4.5764   -2.6183 H   0  0  0  0  0  0  0  0  0  0  0  0
    3.3820   -5.5046   -1.8452 H   0  0  0  0  0  0  0  0  0  0  0  0
    3.0109   -4.2816   -3.0598 H   0  0  0  0  0  0  0  0  0  0  0  0
  1 36  1  6  0  0  0
  1 29  1  0  0  0  0
  2  1  1  0  0  0  0
  2  6  1  0  0  0  0
  3  1  1  0  0  0  0
  3 37  1  0  0  0  0
  3 38  1  0  0  0  0
  4  3  1  0  0  0  0
  4  5  1  0  0  0  0
  4 39  1  1  0  0  0
  5 40  1  0  0  0  0
  6  4  1  0  0  0  0
  6 41  1  6  0  0  0
  6  7  1  0  0  0  0
  7  8  1  0  0  0  0
  7 42  1  0  0  0  0
  7 43  1  0  0  0  0
  8 23  1  0  0  0  0
  9 20  1  0  0  0  0
 11 10  1  0  0  0  0
 11 44  1  1  0  0  0
 12 11  1  0  0  0  0
 12 13  1  0  0  0  0
 13 17  1  0  0  0  0
 13 26  1  0  0  0  0
 13 45  1  1  0  0  0
 14 16  1  0  0  0  0
 14 15  1  0  0  0  0
 14 46  1  1  0  0  0
 15 47  1  0  0  0  0
 16 11  1  0  0  0  0
 16 25  1  0  0  0  0
 16 48  1  6  0  0  0
 17 14  1  0  0  0  0
 17 18  1  0  0  0  0
 17 49  1  6  0  0  0
 18 50  1  0  0  0  0
 20 10  1  0  0  0  0
 20 19  2  0  0  0  0
 20 21  1  0  0  0  0
 21 51  1  0  0  0  0
 23  9  1  0  0  0  0
 23 22  2  0  0  0  0
 23 24  1  0  0  0  0
 24 52  1  0  0  0  0
 25 53  1  0  0  0  0
 26 54  1  0  0  0  0
 26 55  1  0  0  0  0
 26 56  1  0  0  0  0
 27 34  2  0  0  0  0
 27 57  1  0  0  0  0
 28 32  1  0  0  0  0
 28 58  1  0  0  0  0
 29 27  1  0  0  0  0
 30 28  1  0  0  0  0
 30 34  1  0  0  0  0
 30 31  2  0  0  0  0
 32 29  1  0  0  0  0
 32 33  2  0  0  0  0
 34 35  1  0  0  0  0
 35 59  1  0  0  0  0
 35 60  1  0  0  0  0
 35 61  1  0  0  0  0
M  END
>  <DRUGBANK_ID>
DB03723

>  <SECONDARY_ACCESSION_NUMBERS>
EXPT03108

>  <COMMON_NAME>
2'-Deoxy-thymidine-beta-L-rhamnose

>  <CAS_NUMBER>
2147-59-3

>  <SYNONYMS>
dTDP-6-deoxy-L-mannose; dTDP-6-deoxy-β-L-mannose; dTDP-L-rhamnose; dTDP-β-L-rhamnose; Thymidine diphosphate-L-rhamnose

$$$$
