
 OpenBabel10282417163D

 20 19  0  0  0  0  0  0  0  0999 V2000
    1.0527    0.0545   -0.0652 P   0  0  0  0  0  0  0  0  0  0  0  0
    0.8558   -1.5904   -0.0137 O   0  0  0  0  0  0  0  0  0  0  0  0
    0.9366    0.4054    1.5920 O   0  0  0  0  0  0  0  0  0  0  0  0
   -0.6773    0.0545   -0.0652 O   0  0  0  0  0  0  0  0  0  0  0  0
    2.9501    0.0545   -0.0652 S   0  0  0  0  0  0  0  0  0  0  0  0
    0.9769   -2.2895   -1.2537 C   0  0  0  0  0  0  0  0  0  0  0  0
    2.0026    1.0638    2.3511 C   0  0  0  0  0  0  0  0  0  0  0  0
   -0.1760   -1.9491   -2.1790 C   0  0  0  0  0  0  0  0  0  0  0  0
    2.9698    0.0163    2.9447 C   0  0  0  0  0  0  0  0  0  0  0  0
   -0.9680   -0.8665    0.0735 H   0  0  0  0  0  0  0  0  0  0  0  0
    1.9274   -2.0445   -1.7359 H   0  0  0  0  0  0  0  0  0  0  0  0
    0.9885   -3.3601   -1.0323 H   0  0  0  0  0  0  0  0  0  0  0  0
    2.5464    1.8022    1.7158 H   0  0  0  0  0  0  0  0  0  0  0  0
    1.5951    1.6818    3.1372 H   0  0  0  0  0  0  0  0  0  0  0  0
   -0.2187   -0.8720   -2.3738 H   0  0  0  0  0  0  0  0  0  0  0  0
   -0.0761   -2.4593   -3.1384 H   0  0  0  0  0  0  0  0  0  0  0  0
   -1.1291   -2.2314   -1.7206 H   0  0  0  0  0  0  0  0  0  0  0  0
    3.0527   -0.8985    2.3518 H   0  0  0  0  0  0  0  0  0  0  0  0
    3.9769    0.4134    3.0829 H   0  0  0  0  0  0  0  0  0  0  0  0
    2.5820   -0.3346    3.9119 H   0  0  0  0  0  0  0  0  0  0  0  0
  1  2  1  0  0  0  0
  1  3  1  0  0  0  0
  1  4  1  0  0  0  0
  1  5  2  0  0  0  0
  2  6  1  0  0  0  0
  3  7  1  0  0  0  0
  4 10  1  0  0  0  0
  6  8  1  0  0  0  0
  6 11  1  0  0  0  0
  6 12  1  0  0  0  0
  7  9  1  0  0  0  0
  7 13  1  0  0  0  0
  7 14  1  0  0  0  0
  8 15  1  0  0  0  0
  8 16  1  0  0  0  0
  8 17  1  0  0  0  0
  9 18  1  0  0  0  0
  9 19  1  0  0  0  0
  9 20  1  0  0  0  0
M  END
>  <DRUGBANK_ID>
DB07674

>  <COMMON_NAME>
O,O-DIETHYL HYDROGEN THIOPHOSPHATE

>  <UNII>
FND2ADQ374

$$$$
