
 OpenBabel10282417213D

 49 52  0  0  0  0  0  0  0  0999 V2000
    1.4116   -0.2036   -0.1073 C   0  0  0  0  0  0  0  0  0  0  0  0
    0.9740    1.1125   -0.1087 C   0  0  0  0  0  0  0  0  0  0  0  0
   -0.3881    1.3510   -0.0507 C   0  0  0  0  0  0  0  0  0  0  0  0
   -1.2805    0.2733   -0.0791 C   0  0  0  0  0  0  0  0  0  0  0  0
   -0.8418   -1.0671   -0.0023 C   0  0  0  0  0  0  0  0  0  0  0  0
    0.5337   -1.2671   -0.0093 C   0  0  0  0  0  0  0  0  0  0  0  0
    1.7891    2.2056   -0.1867 O   0  0  0  0  0  0  0  0  0  0  0  0
   -1.7947   -2.2785    0.0618 C   0  0  0  0  0  0  0  0  0  0  0  0
   -2.7010   -2.2463    1.3085 C   0  0  0  0  0  0  0  0  0  0  0  0
   -2.6876   -2.2759   -1.2069 C   0  0  0  0  0  0  0  0  0  0  0  0
   -1.0107   -3.6226    0.0225 C   0  0  0  0  0  0  0  0  0  0  0  0
   -3.6883   -1.2595    1.3879 C   0  0  0  0  0  0  0  0  0  0  0  0
   -4.6548   -1.2959    2.3710 C   0  0  0  0  0  0  0  0  0  0  0  0
   -4.5789   -2.1603    3.4338 C   0  0  0  0  0  0  0  0  0  0  0  0
   -3.6366   -3.1879    3.3740 C   0  0  0  0  0  0  0  0  0  0  0  0
   -2.7037   -3.2180    2.3217 C   0  0  0  0  0  0  0  0  0  0  0  0
   -5.3625   -2.0403    4.5501 O   0  0  0  0  0  0  0  0  0  0  0  0
    3.1900    1.9422   -0.3840 C   0  0  0  0  0  0  0  0  0  0  0  0
   -5.9915   -0.7408    4.7530 C   0  0  0  0  0  0  0  0  0  0  0  0
    3.8238    1.4730    0.8941 C   0  0  3  0  0  0  0  0  0  0  0  0
   -4.9721    0.3435    4.9520 C   0  0  3  0  0  0  0  0  0  0  0  0
    5.2603    1.0082    0.9774 C   0  0  0  0  0  0  0  0  0  0  0  0
    4.1859    0.0780    0.9405 O   0  0  0  0  0  0  0  0  0  0  0  0
   -5.3556    1.7169    4.8232 O   0  0  0  0  0  0  0  0  0  0  0  0
   -4.5016    1.2194    3.7946 C   0  0  0  0  0  0  0  0  0  0  0  0
    2.4472   -0.4838   -0.1800 H   0  0  0  0  0  0  0  0  0  0  0  0
   -0.7732    2.3673   -0.0110 H   0  0  0  0  0  0  0  0  0  0  0  0
   -2.3264    0.5311   -0.1778 H   0  0  0  0  0  0  0  0  0  0  0  0
    0.9916   -2.2497    0.0275 H   0  0  0  0  0  0  0  0  0  0  0  0
   -2.0847   -2.3427   -2.1190 H   0  0  0  0  0  0  0  0  0  0  0  0
   -3.3833   -3.1235   -1.1934 H   0  0  0  0  0  0  0  0  0  0  0  0
   -3.2960   -1.3691   -1.3016 H   0  0  0  0  0  0  0  0  0  0  0  0
   -0.4047   -3.7159   -0.8868 H   0  0  0  0  0  0  0  0  0  0  0  0
   -0.3313   -3.7151    0.8815 H   0  0  0  0  0  0  0  0  0  0  0  0
   -1.6819   -4.4871    0.0474 H   0  0  0  0  0  0  0  0  0  0  0  0
   -3.7683   -0.4576    0.6734 H   0  0  0  0  0  0  0  0  0  0  0  0
   -5.4611   -0.5780    2.2770 H   0  0  0  0  0  0  0  0  0  0  0  0
   -3.6313   -3.9748    4.1177 H   0  0  0  0  0  0  0  0  0  0  0  0
   -1.9910   -4.0429    2.3189 H   0  0  0  0  0  0  0  0  0  0  0  0
    3.3457    1.2777   -1.2460 H   0  0  0  0  0  0  0  0  0  0  0  0
    3.6365    2.9023   -0.6621 H   0  0  0  0  0  0  0  0  0  0  0  0
   -6.7192   -0.5431    3.9571 H   0  0  0  0  0  0  0  0  0  0  0  0
   -6.5742   -0.8389    5.6753 H   0  0  0  0  0  0  0  0  0  0  0  0
    3.3473    1.8905    1.7700 H   0  0  0  0  0  0  0  0  0  0  0  0
   -4.3404    0.1469    5.8062 H   0  0  0  0  0  0  0  0  0  0  0  0
    5.8964    1.0362    0.1044 H   0  0  0  0  0  0  0  0  0  0  0  0
    5.7721    1.0858    1.9267 H   0  0  0  0  0  0  0  0  0  0  0  0
   -3.4189    1.2966    3.7477 H   0  0  0  0  0  0  0  0  0  0  0  0
   -4.9595    1.2794    2.8152 H   0  0  0  0  0  0  0  0  0  0  0  0
  1  2  2  0  0  0  0
  1 26  1  0  0  0  0
  2  3  1  0  0  0  0
  2  7  1  0  0  0  0
  3  4  2  0  0  0  0
  3 27  1  0  0  0  0
  4  5  1  0  0  0  0
  4 28  1  0  0  0  0
  5  6  2  0  0  0  0
  5  8  1  0  0  0  0
  6  1  1  0  0  0  0
  6 29  1  0  0  0  0
  7 18  1  0  0  0  0
  8  9  1  0  0  0  0
  8 10  1  0  0  0  0
  8 11  1  0  0  0  0
  9 12  2  0  0  0  0
 10 30  1  0  0  0  0
 10 31  1  0  0  0  0
 10 32  1  0  0  0  0
 11 33  1  0  0  0  0
 11 34  1  0  0  0  0
 11 35  1  0  0  0  0
 12 13  1  0  0  0  0
 12 36  1  0  0  0  0
 13 14  2  0  0  0  0
 13 37  1  0  0  0  0
 14 15  1  0  0  0  0
 14 17  1  0  0  0  0
 15 16  2  0  0  0  0
 15 38  1  0  0  0  0
 16  9  1  0  0  0  0
 16 39  1  0  0  0  0
 17 19  1  0  0  0  0
 18 20  1  0  0  0  0
 18 40  1  0  0  0  0
 18 41  1  0  0  0  0
 19 21  1  0  0  0  0
 19 42  1  0  0  0  0
 19 43  1  0  0  0  0
 20 22  1  0  0  0  0
 20 23  1  0  0  0  0
 20 44  1  0  0  0  0
 21 24  1  0  0  0  0
 21 25  1  0  0  0  0
 21 45  1  0  0  0  0
 22 46  1  0  0  0  0
 22 47  1  0  0  0  0
 23 22  1  0  0  0  0
 25 24  1  0  0  0  0
 25 48  1  0  0  0  0
 25 49  1  0  0  0  0
M  END
>  <DRUGBANK_ID>
DB14083

>  <COMMON_NAME>
Bisphenol A diglycidyl ether

>  <CAS_NUMBER>
1675-54-3

>  <UNII>
F3XRM1NX4H

>  <SYNONYMS>
2,2-Bis(4-glycidyloxyphenyl)propane; 2,2-bis(4'-glycidyloxyphenyl)propane; 4,4'-isopropylidenediphenol diglycidyl ether; Bisphenol diglycidyl ether; DGEBPA; Diglycidyl bisphenol A ether

$$$$
