
 OpenBabel10282417143D

 77 80  0  0  0  0  0  0  0  0999 V2000
    6.3164   -2.5488  -13.8980 C   0  0  0  0  0  0  0  0  0  0  0  0
    4.7998   -3.0168   -4.6663 C   0  0  0  0  0  0  0  0  0  0  0  0
    6.2483   -0.6180  -12.1089 C   0  0  0  0  0  0  0  0  0  0  0  0
    5.3905   -5.3716   -4.0540 C   0  0  0  0  0  0  0  0  0  0  0  0
    4.5120   -0.8613  -10.2192 C   0  0  0  0  0  0  0  0  0  0  0  0
    3.6718   -2.3347   -3.5402 C   0  0  0  0  0  0  0  0  0  0  0  0
    5.7404   -1.6372  -14.7851 C   0  0  0  0  0  0  0  0  0  0  0  0
    4.4500   -4.0258   -3.8964 C   0  0  0  0  0  0  0  0  0  0  0  0
    5.3543   -1.2937   -8.2571 C   0  0  0  0  0  0  0  0  0  0  0  0
    2.4826   -0.7779   -4.9052 C   0  0  0  0  0  0  0  0  0  0  0  0
    6.7018   -1.0123   -7.5920 C   0  0  0  0  0  0  0  0  0  0  0  0
    2.3426    0.5240   -4.2503 C   0  0  0  0  0  0  0  0  0  0  0  0
    3.9203    1.8995  -11.4975 C   0  0  0  0  0  0  0  0  0  0  0  0
    5.3358   -2.3247  -10.5073 C   0  0  0  0  0  0  0  0  0  0  0  0
    7.4049   -2.5220   -4.6911 C   0  0  0  0  0  0  0  0  0  0  0  0
    3.9901    0.7233   -7.0130 C   0  0  0  0  0  0  0  0  0  0  0  0
    5.3903    0.4714  -12.8714 C   0  0  0  0  0  0  0  0  0  0  0  0
    5.5478   -4.2376   -6.2482 C   0  0  0  0  0  0  0  0  0  0  0  0
    4.5009    0.3141   -9.8292 C   0  0  0  0  0  0  0  0  0  0  0  0
    4.7903   -1.2712   -4.9931 C   0  0  0  0  0  0  0  0  0  0  0  0
    5.3460   -0.6149  -14.0116 C   0  0  0  0  0  0  0  0  0  0  0  0
    5.9444   -4.3469   -4.2571 C   0  0  0  0  0  0  0  0  0  0  0  0
    4.8468   -0.1165   -8.7178 C   0  0  0  0  0  0  0  0  0  0  0  0
    3.7536   -0.7285   -5.3220 C   0  0  0  0  0  0  0  0  0  0  0  0
    4.3514    1.3569  -12.6776 C   0  0  0  0  0  0  0  0  0  0  0  0
    4.1241    1.4632  -10.2850 C   0  0  0  0  0  0  0  0  0  0  0  0
    5.6161   -3.3197   -8.1491 C   0  0  0  0  0  0  0  0  0  0  0  0
    6.3640   -1.6601   -5.2727 C   0  0  0  0  0  0  0  0  0  0  0  0
    4.6172   -1.2200  -12.1667 C   0  0  0  0  0  0  0  0  0  0  0  0
    7.0990   -3.7781   -4.8456 C   0  0  0  0  0  0  0  0  0  0  0  0
    4.2739    0.9369   -8.2209 C   0  0  0  0  0  0  0  0  0  0  0  0
    4.5428   -0.2874   -6.1210 C   0  0  0  0  0  0  0  0  0  0  0  0
    6.6637    0.3283   -6.2720 C   0  0  0  0  0  0  0  0  0  0  0  0
    2.7722    1.6866   -5.1044 C   0  0  0  0  0  0  0  0  0  0  0  0
    4.1925    0.3292  -13.3966 N   0  5  0  0  0  0  0  0  0  0  0  0
    6.7673   -3.6795   -6.6654 N   0  5  0  0  0  0  0  0  0  0  0  0
    3.9365    1.8983   -9.0777 N   0  5  0  0  0  0  0  0  0  0  0  0
    5.4961   -1.3100   -6.1510 N   0  5  0  0  0  0  0  0  0  0  0  0
    6.6421    0.1753   -4.9297 O   0  0  0  0  0  0  0  0  0  0  0  0
    5.9682    1.4134   -6.6037 O   0  0  0  0  0  0  0  0  0  0  0  0
    1.9844    2.4854   -5.5805 O   0  0  0  0  0  0  0  0  0  0  0  0
    4.1874    1.9087   -5.1711 O   0  0  0  0  0  0  0  0  0  0  0  0
    1.0015    0.0872   -0.0639 Zn  0  0  0  0  0  0  0  0  0  0  0  0
    5.6886   -1.5455  -15.8550 H   0  0  0  0  0  0  0  0  0  0  0  0
    3.7650   -4.0873   -3.0429 H   0  0  0  0  0  0  0  0  0  0  0  0
    3.4772    2.8531  -11.5595 H   0  0  0  0  0  0  0  0  0  0  0  0
    4.9422   -1.2600  -11.8445 H   0  0  0  0  0  0  0  0  0  0  0  0
    8.2721   -2.4794   -5.2558 H   0  0  0  0  0  0  0  0  0  0  0  0
    3.6161    1.6865   -6.8072 H   0  0  0  0  0  0  0  0  0  0  0  0
    6.2570   -2.3264  -12.9194 H   0  0  0  0  0  0  0  0  0  0  0  0
    7.3544   -2.5386  -14.0284 H   0  0  0  0  0  0  0  0  0  0  0  0
    5.7989   -3.4489  -13.9874 H   0  0  0  0  0  0  0  0  0  0  0  0
    4.0013   -2.7296   -5.4318 H   0  0  0  0  0  0  0  0  0  0  0  0
    4.8875   -1.6440   -3.6648 H   0  0  0  0  0  0  0  0  0  0  0  0
    5.5486   -2.5414   -4.2200 H   0  0  0  0  0  0  0  0  0  0  0  0
    5.4372   -2.2623  -12.0873 H   0  0  0  0  0  0  0  0  0  0  0  0
    6.9183   -1.2457  -11.9743 H   0  0  0  0  0  0  0  0  0  0  0  0
    5.6983    0.0683  -11.2278 H   0  0  0  0  0  0  0  0  0  0  0  0
    4.8886   -5.1606   -2.3586 H   0  0  0  0  0  0  0  0  0  0  0  0
    4.3049   -6.1011   -3.0864 H   0  0  0  0  0  0  0  0  0  0  0  0
    5.4755   -6.1889   -2.5343 H   0  0  0  0  0  0  0  0  0  0  0  0
    6.1373   -0.8652  -10.3916 H   0  0  0  0  0  0  0  0  0  0  0  0
    3.8810   -1.8152  -10.8127 H   0  0  0  0  0  0  0  0  0  0  0  0
    4.1663   -0.4282  -11.0112 H   0  0  0  0  0  0  0  0  0  0  0  0
    3.8663   -2.4362   -2.5368 H   0  0  0  0  0  0  0  0  0  0  0  0
    3.0537   -3.4174   -4.4117 H   0  0  0  0  0  0  0  0  0  0  0  0
    5.0674   -2.9463   -2.8735 H   0  0  0  0  0  0  0  0  0  0  0  0
    4.5376   -1.8883   -7.7169 H   0  0  0  0  0  0  0  0  0  0  0  0
    5.6734   -1.8852   -9.0412 H   0  0  0  0  0  0  0  0  0  0  0  0
    1.9927   -0.9018   -5.8355 H   0  0  0  0  0  0  0  0  0  0  0  0
    2.1993   -1.5962   -4.2583 H   0  0  0  0  0  0  0  0  0  0  0  0
    7.0580   -1.9550   -7.1069 H   0  0  0  0  0  0  0  0  0  0  0  0
    7.4396   -0.6195   -8.0974 H   0  0  0  0  0  0  0  0  0  0  0  0
    1.2941    0.6369   -4.0346 H   0  0  0  0  0  0  0  0  0  0  0  0
    2.9094    0.5751   -3.3233 H   0  0  0  0  0  0  0  0  0  0  0  0
    5.4446    1.5963   -5.7841 H   0  0  0  0  0  0  0  0  0  0  0  0
    4.4864    2.5517   -6.0838 H   0  0  0  0  0  0  0  0  0  0  0  0
  1 50  1  0  0  0  0
  1 51  1  0  0  0  0
  1 52  1  0  0  0  0
  2 53  1  0  0  0  0
  2 54  1  0  0  0  0
  2 55  1  0  0  0  0
  3 56  1  0  0  0  0
  3 57  1  0  0  0  0
  3 58  1  0  0  0  0
  4 59  1  0  0  0  0
  4 60  1  0  0  0  0
  4 61  1  0  0  0  0
  5 62  1  0  0  0  0
  5 63  1  0  0  0  0
  5 64  1  0  0  0  0
  6 65  1  0  0  0  0
  6 66  1  0  0  0  0
  6 67  1  0  0  0  0
  7  1  1  0  0  0  0
  8  2  1  0  0  0  0
  9 68  1  0  0  0  0
  9 69  1  0  0  0  0
 10 70  1  0  0  0  0
 10 71  1  0  0  0  0
 11  9  1  0  0  0  0
 11 72  1  0  0  0  0
 11 73  1  0  0  0  0
 12 10  1  0  0  0  0
 12 74  1  0  0  0  0
 12 75  1  0  0  0  0
 17  3  1  0  0  0  0
 18  4  1  0  0  0  0
 19  5  1  0  0  0  0
 20  6  1  0  0  0  0
 21  7  2  0  0  0  0
 21 17  1  0  0  0  0
 22  8  2  3  0  0  0
 22 18  1  0  0  0  0
 23  9  1  0  0  0  0
 23 19  2  0  0  0  0
 24 10  1  0  0  0  0
 24 20  1  0  0  0  0
 25 13  1  0  0  0  0
 25 17  2  0  0  0  0
 26 13  2  0  0  0  0
 26 19  1  0  0  0  0
 27 14  1  0  0  0  0
 27 18  2  0  0  0  0
 28 15  1  0  0  0  0
 28 20  2  0  0  0  0
 29 14  2  0  0  0  0
 29 21  1  0  0  0  0
 30 15  2  0  0  0  0
 30 22  1  0  0  0  0
 31 16  2  0  0  0  0
 31 23  1  0  0  0  0
 32 16  1  0  0  0  0
 32 24  2  0  0  0  0
 33 11  1  0  0  0  0
 34 12  1  0  0  0  0
 35 25  1  0  0  0  0
 35 29  1  0  0  0  0
 36 27  1  0  0  0  0
 36 30  1  0  0  0  0
 37 26  1  0  0  0  0
 37 31  1  0  0  0  0
 38 28  1  0  0  0  0
 38 32  1  0  0  0  0
 39 33  2  0  0  0  0
 40 33  1  0  0  0  0
 40 76  1  0  0  0  0
 41 34  2  0  0  0  0
 42 34  1  0  0  0  0
 42 77  1  0  0  0  0
 44  7  1  0  0  0  0
 45  8  1  0  0  0  0
 46 13  1  0  0  0  0
 47 14  1  0  0  0  0
 48 15  1  0  0  0  0
 49 16  1  0  0  0  0
M  CHG  5  35  -1  36  -1  37  -1  38  -1  43   4
M  END
>  <DRUGBANK_ID>
DB04249

>  <SECONDARY_ACCESSION_NUMBERS>
EXPT01728

>  <COMMON_NAME>
Zinc Substituted Heme C

$$$$
