204
 OpenBabel10282417103D

 56 57  0  0  1  0  0  0  0  0999 V2000
    1.1388   -0.8332    0.1487 S   0  0  0  0  0  0  0  0  0  0  0  0
    0.7430    2.5410   -0.6024 S   0  0  0  0  0  0  0  0  0  0  0  0
    0.0209    6.0205    5.3545 O   0  0  0  0  0  0  0  0  0  0  0  0
    0.6160   -0.3633   -1.1155 O   0  0  0  0  0  0  0  0  0  0  0  0
    0.8664   -2.2049    0.4974 O   0  0  0  0  0  0  0  0  0  0  0  0
    1.9710    2.4711   -1.2883 O   0  0  0  0  0  0  0  0  0  0  0  0
   -0.3978    1.6106   -0.7248 O   0  0  0  0  0  0  0  0  0  0  0  0
    2.1087    4.0474    7.0435 N   0  0  0  0  0  0  0  0  0  0  0  0
    0.8369    0.1553    1.6531 N   0  0  0  0  0  0  0  0  0  0  0  0
    1.0539    2.5744    0.9930 N   0  0  0  0  0  0  0  0  0  0  0  0
    3.3164    4.4509    6.1874 C   0  0  0  0  0  0  0  0  0  0  0  0
    4.1803    3.3525    5.4410 C   0  0  0  0  0  0  0  0  0  0  0  0
    1.4730    5.3028    7.5224 C   0  0  0  0  0  0  0  0  0  0  0  0
    3.6086    2.2109    4.5667 C   0  0  0  0  0  0  0  0  0  0  0  0
    0.9727    6.3359    6.4149 C   0  0  0  0  0  0  0  0  0  0  0  0
    0.8837    3.3024    6.5881 C   0  0  0  0  0  0  0  0  0  0  0  0
    3.8771    2.2887    3.1966 C   0  0  0  0  0  0  0  0  0  0  0  0
    2.6083    1.2392    4.9965 C   0  0  0  0  0  0  0  0  0  0  0  0
    2.0135    0.5024    2.6921 C   0  0  0  0  0  0  0  0  0  0  0  0
    3.1587    1.4197    2.3175 C   0  0  0  0  0  0  0  0  0  0  0  0
    1.7196    0.5086    4.0735 C   0  0  0  0  0  0  0  0  0  0  0  0
    0.3618    5.3765    4.2065 C   0  0  0  0  0  0  0  0  0  0  0  0
    0.5813    3.4119    2.0268 C   0  0  0  0  0  0  0  0  0  0  0  0
    1.2808    4.4227    4.1043 C   0  0  0  0  0  0  0  0  0  0  0  0
   -0.4244    5.3775    3.0893 C   0  0  0  0  0  0  0  0  0  0  0  0
    1.2583    3.4439    3.1583 C   0  0  0  0  0  0  0  0  0  0  0  0
   -0.3688    4.3664    2.0850 C   0  0  0  0  0  0  0  0  0  0  0  0
    2.8509   -0.4776    0.0290 C   0  0  0  0  0  0  0  0  0  0  0  0
   -0.0398    4.0344   -0.7219 C   0  0  0  0  0  0  0  0  0  0  0  0
   -0.0153    0.7669    1.5701 H   0  0  0  0  0  0  0  0  0  0  0  0
    1.4182    1.6507    1.1757 H   0  0  0  0  0  0  0  0  0  0  0  0
    4.0255    5.0282    6.8084 H   0  0  0  0  0  0  0  0  0  0  0  0
    3.1002    5.2669    5.4597 H   0  0  0  0  0  0  0  0  0  0  0  0
    4.8056    2.8689    6.1821 H   0  0  0  0  0  0  0  0  0  0  0  0
    4.8767    3.9438    4.8012 H   0  0  0  0  0  0  0  0  0  0  0  0
    0.6342    4.9982    8.1689 H   0  0  0  0  0  0  0  0  0  0  0  0
    2.1728    5.7943    8.2102 H   0  0  0  0  0  0  0  0  0  0  0  0
    0.4384    7.0917    7.0032 H   0  0  0  0  0  0  0  0  0  0  0  0
    1.8204    6.8425    5.9569 H   0  0  0  0  0  0  0  0  0  0  0  0
    0.1141    4.0090    6.2856 H   0  0  0  0  0  0  0  0  0  0  0  0
    0.8919    2.6349    5.7330 H   0  0  0  0  0  0  0  0  0  0  0  0
    0.3525    2.7640    7.3771 H   0  0  0  0  0  0  0  0  0  0  0  0
    4.3177    3.2151    2.7641 H   0  0  0  0  0  0  0  0  0  0  0  0
    2.2942    1.2784    6.0441 H   0  0  0  0  0  0  0  0  0  0  0  0
    3.2785    1.8514    1.3113 H   0  0  0  0  0  0  0  0  0  0  0  0
    0.6866    0.2889    4.4174 H   0  0  0  0  0  0  0  0  0  0  0  0
    1.9121    4.1016    4.8580 H   0  0  0  0  0  0  0  0  0  0  0  0
   -1.0878    6.1948    2.9066 H   0  0  0  0  0  0  0  0  0  0  0  0
    1.6700    2.5691    3.5271 H   0  0  0  0  0  0  0  0  0  0  0  0
   -1.1713    4.3586    1.3939 H   0  0  0  0  0  0  0  0  0  0  0  0
    3.2563   -0.9645   -0.8443 H   0  0  0  0  0  0  0  0  0  0  0  0
    3.0136    0.5907   -0.1265 H   0  0  0  0  0  0  0  0  0  0  0  0
    3.2924   -0.8114    0.9590 H   0  0  0  0  0  0  0  0  0  0  0  0
   -0.9666    3.7476   -0.2191 H   0  0  0  0  0  0  0  0  0  0  0  0
    0.6089    4.7452   -0.2106 H   0  0  0  0  0  0  0  0  0  0  0  0
   -0.2481    4.1798   -1.7564 H   0  0  0  0  0  0  0  0  0  0  0  0
  1  4  2  0  0  0  0
  1  5  2  0  0  0  0
  1  9  1  0  0  0  0
  1 28  1  0  0  0  0
  2  6  2  0  0  0  0
  2  7  2  0  0  0  0
  2 10  1  0  0  0  0
  2 29  1  0  0  0  0
  3 15  1  0  0  0  0
  3 22  1  0  0  0  0
  8 11  1  0  0  0  0
  8 13  1  0  0  0  0
  8 16  1  0  0  0  0
  9 19  1  0  0  0  0
  9 30  1  0  0  0  0
 10 23  1  0  0  0  0
 10 31  1  0  0  0  0
 11 12  1  0  0  0  0
 11 32  1  0  0  0  0
 11 33  1  0  0  0  0
 12 14  1  0  0  0  0
 12 34  1  0  0  0  0
 12 35  1  0  0  0  0
 13 15  1  0  0  0  0
 13 36  1  0  0  0  0
 13 37  1  0  0  0  0
 14 17  2  0  0  0  0
 14 18  1  0  0  0  0
 15 38  1  0  0  0  0
 15 39  1  0  0  0  0
 16 40  1  0  0  0  0
 16 41  1  0  0  0  0
 16 42  1  0  0  0  0
 17 20  1  0  0  0  0
 17 43  1  0  0  0  0
 18 21  2  0  0  0  0
 18 44  1  0  0  0  0
 19 20  2  0  0  0  0
 19 21  1  0  0  0  0
 20 45  1  0  0  0  0
 21 46  1  0  0  0  0
 22 24  2  0  0  0  0
 22 25  1  0  0  0  0
 23 26  2  0  0  0  0
 23 27  1  0  0  0  0
 24 26  1  0  0  0  0
 24 47  1  0  0  0  0
 25 27  2  0  0  0  0
 25 48  1  0  0  0  0
 26 49  1  0  0  0  0
 27 50  1  0  0  0  0
 28 51  1  0  0  0  0
 28 52  1  0  0  0  0
 28 53  1  0  0  0  0
 29 54  1  0  0  0  0
 29 55  1  0  0  0  0
 29 56  1  0  0  0  0
M  END
>  <DRUGBANK_ID>
DB00204

>  <SECONDARY_ACCESSION_NUMBERS>
APRD00367

>  <COMMON_NAME>
Dofetilide

>  <CAS_NUMBER>
115256-11-6

>  <UNII>
R4Z9X1N2ND

>  <SYNONYMS>
beta-((p-Methanesulfonamidophenethyl)methylamino)methanesulfono-p-phenetidide; Dofetilida; Dofetilide; Dofetilidum

$$$$
