
 OpenBabel10282417173D

 35 36  0  0  0  0  0  0  0  0999 V2000
    8.4466    4.1251   -2.0054 C   0  0  0  0  0  0  0  0  0  0  0  0
    8.7566    4.5074   -3.3110 C   0  0  0  0  0  0  0  0  0  0  0  0
    9.0224    5.8421   -3.5953 C   0  0  0  0  0  0  0  0  0  0  0  0
    8.9188    6.8021   -2.5890 C   0  0  0  0  0  0  0  0  0  0  0  0
    8.6042    6.4230   -1.2815 C   0  0  0  0  0  0  0  0  0  0  0  0
    8.3751    5.0791   -0.9740 C   0  0  0  0  0  0  0  0  0  0  0  0
    7.8733    5.5822    1.3082 O   0  0  0  0  0  0  0  0  0  0  0  0
    8.0090    4.7275    0.4378 C   0  0  0  0  0  0  0  0  0  0  0  0
    6.1865    1.5447    1.1882 C   0  0  0  0  0  0  0  0  0  0  0  0
    6.4818    2.9083    1.1638 C   0  0  0  0  0  0  0  0  0  0  0  0
    7.7607    3.3217    0.7846 C   0  0  0  0  0  0  0  0  0  0  0  0
    8.7840    2.4041    0.5892 C   0  0  0  0  0  0  0  0  0  0  0  0
    8.4922    1.0558    0.6557 C   0  0  0  0  0  0  0  0  0  0  0  0
    7.1884    0.6056    0.9063 C   0  0  0  0  0  0  0  0  0  0  0  0
    6.8842   -0.8723    0.9193 C   0  0  0  0  0  0  0  0  0  0  0  0
    6.5828   -2.9286   -0.4184 N   0  0  0  0  0  0  0  0  0  0  0  0
    7.2232   -1.5920   -0.4024 C   0  0  2  0  0  0  0  0  0  0  0  0
    9.3904   -1.1746   -1.4999 O   0  0  0  0  0  0  0  0  0  0  0  0
    8.7427   -1.6945   -0.5958 C   0  0  0  0  0  0  0  0  0  0  0  0
    9.3853   -2.3353    0.4028 O   0  0  0  0  0  0  0  0  0  0  0  0
    8.2647    3.0685   -1.8333 H   0  0  0  0  0  0  0  0  0  0  0  0
    8.7788    3.7616   -4.1025 H   0  0  0  0  0  0  0  0  0  0  0  0
    9.3061    6.1349   -4.6027 H   0  0  0  0  0  0  0  0  0  0  0  0
    9.0734    7.8515   -2.8247 H   0  0  0  0  0  0  0  0  0  0  0  0
    8.5320    7.1806   -0.5040 H   0  0  0  0  0  0  0  0  0  0  0  0
    5.1693    1.2234    1.4079 H   0  0  0  0  0  0  0  0  0  0  0  0
    5.7146    3.6404    1.4014 H   0  0  0  0  0  0  0  0  0  0  0  0
    9.7890    2.7207    0.3241 H   0  0  0  0  0  0  0  0  0  0  0  0
    9.3148    0.3780    0.4713 H   0  0  0  0  0  0  0  0  0  0  0  0
    7.4299   -1.3173    1.7614 H   0  0  0  0  0  0  0  0  0  0  0  0
    5.8177   -1.0156    1.1417 H   0  0  0  0  0  0  0  0  0  0  0  0
    6.4409   -3.2530    0.5373 H   0  0  0  0  0  0  0  0  0  0  0  0
    7.1971   -3.6092   -0.8636 H   0  0  0  0  0  0  0  0  0  0  0  0
    6.8297   -1.0225   -1.2533 H   0  0  0  0  0  0  0  0  0  0  0  0
   10.3389   -2.1747    0.2297 H   0  0  0  0  0  0  0  0  0  0  0  0
  1  2  2  0  0  0  0
  1 21  1  0  0  0  0
  2  3  1  0  0  0  0
  2 22  1  0  0  0  0
  3 23  1  0  0  0  0
  4  3  2  0  0  0  0
  4 24  1  0  0  0  0
  5  4  1  0  0  0  0
  5 25  1  0  0  0  0
  6  1  1  0  0  0  0
  6  5  2  0  0  0  0
  8  6  1  0  0  0  0
  8  7  2  0  0  0  0
  9 10  2  0  0  0  0
  9 26  1  0  0  0  0
 10 11  1  0  0  0  0
 10 27  1  0  0  0  0
 11  8  1  0  0  0  0
 12 11  2  0  0  0  0
 12 28  1  0  0  0  0
 13 12  1  0  0  0  0
 13 29  1  0  0  0  0
 14  9  1  0  0  0  0
 14 13  2  0  0  0  0
 15 14  1  0  0  0  0
 15 30  1  0  0  0  0
 15 31  1  0  0  0  0
 16 32  1  0  0  0  0
 16 33  1  0  0  0  0
 17 34  1  6  0  0  0
 17 16  1  0  0  0  0
 17 15  1  0  0  0  0
 19 17  1  0  0  0  0
 19 18  2  0  0  0  0
 20 19  1  0  0  0  0
 20 35  1  0  0  0  0
M  END
>  <DRUGBANK_ID>
DB08371

>  <COMMON_NAME>
p-Benzoyl-L-phenylalanine

>  <CAS_NUMBER>
104504-45-2

>  <UNII>
9RU6KQ9WYD

>  <SYNONYMS>
4-Benzoyl-L-phenylalanine; Para-(benzoyl)-phenylalanine

$$$$
