
 OpenBabel10282417123D

 63 67  0  0  1  0  0  0  0  0999 V2000
    0.2997    0.0127    0.0381 O   0  0  0  0  0  0  0  0  0  0  0  0
   -0.0522   -0.9309    0.9660 C   0  0  0  0  0  0  0  0  0  0  0  0
    0.3938   -1.0095    2.2270 C   0  0  0  0  0  0  0  0  0  0  0  0
    1.6407   -0.3474    2.6085 C   0  0  1  0  0  0  0  0  0  0  0  0
    2.7153   -0.9778    1.7731 C   0  0  0  0  0  0  0  0  0  0  0  0
    2.7863   -0.9005    0.2514 C   0  0  0  0  0  0  0  0  0  0  0  0
    2.7070   -2.2339    0.9055 C   0  0  0  0  0  0  0  0  0  0  0  0
    1.5552    1.1727    2.5447 C   0  0  0  0  0  0  0  0  0  0  0  0
    0.6134    1.8595    3.2993 C   0  0  0  0  0  0  0  0  0  0  0  0
    0.4668    3.2360    3.1194 C   0  0  0  0  0  0  0  0  0  0  0  0
    1.3290    3.9530    2.2585 C   0  0  0  0  0  0  0  0  0  0  0  0
    2.3311    3.2883    1.5518 C   0  0  0  0  0  0  0  0  0  0  0  0
    3.1968    3.9326    0.6144 N   0  0  0  0  0  0  0  0  0  0  0  0
    4.5900    3.3536   -0.1975 S   0  0  0  0  0  0  0  0  0  0  0  0
    4.2419    3.3915   -1.5869 O   0  0  0  0  0  0  0  0  0  0  0  0
    5.6981    4.1773    0.2981 O   0  0  0  0  0  0  0  0  0  0  0  0
    5.1193    1.6678    0.1603 C   0  0  0  0  0  0  0  0  0  0  0  0
    5.2661    0.7259   -0.8954 C   0  0  0  0  0  0  0  0  0  0  0  0
    5.5140   -0.6381   -0.5964 C   0  0  0  0  0  0  0  0  0  0  0  0
    5.6889   -1.0364    0.7400 C   0  0  0  0  0  0  0  0  0  0  0  0
    5.6156   -0.0869    1.7717 C   0  0  0  0  0  0  0  0  0  0  0  0
    5.2995    1.2500    1.4871 C   0  0  0  0  0  0  0  0  0  0  0  0
    2.3284    1.9225    1.6566 C   0  0  0  0  0  0  0  0  0  0  0  0
   -0.0765   -2.0400    3.1615 C   0  0  0  0  0  0  0  0  0  0  0  0
    0.4059   -2.1733    4.2845 O   0  0  0  0  0  0  0  0  0  0  0  0
   -1.1040   -2.8034    2.7083 O   0  0  0  0  0  0  0  0  0  0  0  0
   -1.4955   -2.7253    1.3526 C   0  0  0  0  0  0  0  0  0  0  0  0
   -0.9216   -1.9183    0.4460 C   0  0  0  0  0  0  0  0  0  0  0  0
   -1.3671   -1.7790   -0.9924 C   0  0  0  0  0  0  0  0  0  0  0  0
   -2.0233   -0.4348   -1.3605 C   0  0  0  0  0  0  0  0  0  0  0  0
   -3.0533    0.1595   -0.3714 C   0  0  0  0  0  0  0  0  0  0  0  0
   -3.3665   -0.6332    0.9096 C   0  0  0  0  0  0  0  0  0  0  0  0
   -3.8112   -2.0976    0.6246 C   0  0  0  0  0  0  0  0  0  0  0  0
   -2.8545   -3.2419    1.0732 C   0  0  0  0  0  0  0  0  0  0  0  0
    1.0217    0.5636    0.3605 H   0  0  0  0  0  0  0  0  0  0  0  0
    1.9355   -0.5531    3.6475 H   0  0  0  0  0  0  0  0  0  0  0  0
    3.5922   -0.8809    2.3788 H   0  0  0  0  0  0  0  0  0  0  0  0
    2.1650   -0.7395   -0.6164 H   0  0  0  0  0  0  0  0  0  0  0  0
    3.5011   -0.1523    0.0772 H   0  0  0  0  0  0  0  0  0  0  0  0
    3.5701   -2.8724    0.7839 H   0  0  0  0  0  0  0  0  0  0  0  0
    1.7995   -2.7977    0.7266 H   0  0  0  0  0  0  0  0  0  0  0  0
   -0.0482    1.3117    3.9695 H   0  0  0  0  0  0  0  0  0  0  0  0
   -0.3415    3.7411    3.6445 H   0  0  0  0  0  0  0  0  0  0  0  0
    1.1671    5.0214    2.1454 H   0  0  0  0  0  0  0  0  0  0  0  0
    3.2000    4.9536    0.6372 H   0  0  0  0  0  0  0  0  0  0  0  0
    4.9673    0.9801   -1.9139 H   0  0  0  0  0  0  0  0  0  0  0  0
    5.2544   -1.4056   -1.3374 H   0  0  0  0  0  0  0  0  0  0  0  0
    5.5808   -2.0930    1.0086 H   0  0  0  0  0  0  0  0  0  0  0  0
    5.5304   -0.4396    2.8044 H   0  0  0  0  0  0  0  0  0  0  0  0
    4.9947    1.8972    2.3090 H   0  0  0  0  0  0  0  0  0  0  0  0
    2.9157    1.4134    0.9360 H   0  0  0  0  0  0  0  0  0  0  0  0
   -0.5237   -1.9976   -1.6603 H   0  0  0  0  0  0  0  0  0  0  0  0
   -2.0826   -2.5653   -1.2369 H   0  0  0  0  0  0  0  0  0  0  0  0
   -2.5081   -0.5656   -2.3344 H   0  0  0  0  0  0  0  0  0  0  0  0
   -1.2543    0.3233   -1.5667 H   0  0  0  0  0  0  0  0  0  0  0  0
   -3.9930    0.3195   -0.9117 H   0  0  0  0  0  0  0  0  0  0  0  0
   -2.7089    1.1633   -0.0811 H   0  0  0  0  0  0  0  0  0  0  0  0
   -2.5092   -0.5422    1.5808 H   0  0  0  0  0  0  0  0  0  0  0  0
   -4.1373   -0.1237    1.4938 H   0  0  0  0  0  0  0  0  0  0  0  0
   -4.7826   -2.2680    1.0918 H   0  0  0  0  0  0  0  0  0  0  0  0
   -4.0065   -2.2120   -0.4498 H   0  0  0  0  0  0  0  0  0  0  0  0
   -3.2565   -3.7258    1.9669 H   0  0  0  0  0  0  0  0  0  0  0  0
   -2.7625   -4.0164    0.3034 H   0  0  0  0  0  0  0  0  0  0  0  0
  1  2  1  0  0  0  0
  1 35  1  0  0  0  0
  2  3  2  0  0  0  0
  2 28  1  0  0  0  0
  3  4  1  0  0  0  0
  3 24  1  0  0  0  0
  4  5  1  0  0  0  0
  4  8  1  0  0  0  0
  4 36  1  1  0  0  0
  5  6  1  0  0  0  0
  5  7  1  0  0  0  0
  5 37  1  0  0  0  0
  6  7  1  0  0  0  0
  6 38  1  0  0  0  0
  6 39  1  0  0  0  0
  7 40  1  0  0  0  0
  7 41  1  0  0  0  0
  8  9  2  0  0  0  0
  8 23  1  0  0  0  0
  9 10  1  0  0  0  0
  9 42  1  0  0  0  0
 10 11  2  0  0  0  0
 10 43  1  0  0  0  0
 11 12  1  0  0  0  0
 11 44  1  0  0  0  0
 12 13  1  0  0  0  0
 12 23  2  0  0  0  0
 13 14  1  0  0  0  0
 13 45  1  0  0  0  0
 14 15  2  0  0  0  0
 14 16  2  0  0  0  0
 14 17  1  0  0  0  0
 17 18  2  0  0  0  0
 17 22  1  0  0  0  0
 18 19  1  0  0  0  0
 18 46  1  0  0  0  0
 19 20  2  0  0  0  0
 19 47  1  0  0  0  0
 20 21  1  0  0  0  0
 20 48  1  0  0  0  0
 21 22  2  0  0  0  0
 21 49  1  0  0  0  0
 22 50  1  0  0  0  0
 23 51  1  0  0  0  0
 24 25  2  0  0  0  0
 24 26  1  0  0  0  0
 26 27  1  0  0  0  0
 27 28  2  0  0  0  0
 27 34  1  0  0  0  0
 28 29  1  0  0  0  0
 29 30  1  0  0  0  0
 29 52  1  0  0  0  0
 29 53  1  0  0  0  0
 30 31  1  0  0  0  0
 30 54  1  0  0  0  0
 30 55  1  0  0  0  0
 31 32  1  0  0  0  0
 31 56  1  0  0  0  0
 31 57  1  0  0  0  0
 32 33  1  0  0  0  0
 32 58  1  0  0  0  0
 32 59  1  0  0  0  0
 33 34  1  0  0  0  0
 33 60  1  0  0  0  0
 33 61  1  0  0  0  0
 34 62  1  0  0  0  0
 34 63  1  0  0  0  0
M  END
>  <DRUGBANK_ID>
DB02033

>  <SECONDARY_ACCESSION_NUMBERS>
EXPT01894

>  <COMMON_NAME>
N-(3-Cyclopropyl(5,6,7,8,9,10-Hexahydro-2-Oxo-2h-Cycloocta[B]Pyran-3-Yl)Methyl)Phenylbenzensulfonamide

$$$$
