
 OpenBabel10282417233D

 56 57  0  0  0  0  0  0  0  0999 V2000
    1.3791   -2.2976    0.0839 C   0  0  0  0  0  0  0  0  0  0  0  0
    0.6859   -1.1570    0.4771 N   0  0  0  0  0  0  0  0  0  0  0  0
    1.6690    0.0906    0.0483 C   0  0  0  0  0  0  0  0  0  0  0  0
    2.8811    0.1914   -0.0778 O   0  0  0  0  0  0  0  0  0  0  0  0
    0.7716    1.4199   -0.1499 C   0  0  0  0  0  0  0  0  0  0  0  0
   -1.0525    1.7049    0.1158 C   0  0  0  0  0  0  0  0  0  0  0  0
   -1.7331    3.2036    0.7271 N   0  0  0  0  0  0  0  0  0  0  0  0
   -0.8793    4.8600    0.5919 C   0  0  0  0  0  0  0  0  0  0  0  0
   -1.0115    5.5516   -0.8998 C   0  0  0  0  0  0  0  0  0  0  0  0
   -2.3910    5.5614   -1.3472 N   0  0  0  0  0  0  0  0  0  0  0  0
   -2.5855    6.4484   -2.4850 C   0  0  0  0  0  0  0  0  0  0  0  0
   -2.1243    5.9234   -3.8537 C   0  0  0  0  0  0  0  0  0  0  0  0
   -2.9429    4.8506   -4.1880 O   0  0  0  0  0  0  0  0  0  0  0  0
   -3.2046    4.3240   -1.3477 C   0  0  0  0  0  0  0  0  0  0  0  0
   -2.8049    3.0129   -2.2569 C   0  0  0  0  0  0  0  0  0  0  0  0
   -1.2762    2.9146   -2.7746 C   0  0  0  0  0  0  0  0  0  0  0  0
   -0.2038    2.3180   -1.8765 C   0  0  0  0  0  0  0  0  0  0  0  0
    0.1903    3.2187   -0.3501 C   0  0  0  0  0  0  0  0  0  0  0  0
    0.2346    2.4401    1.4328 C   0  0  0  0  0  0  0  0  0  0  0  0
   -0.1064    0.6092    1.3017 C   0  0  0  0  0  0  0  0  0  0  0  0
   -0.4347    0.0337   -0.6098 C   0  0  0  0  0  0  0  0  0  0  0  0
   -0.3668    0.8161   -1.9979 C   0  0  0  0  0  0  0  0  0  0  0  0
   -0.5083   -0.0843    2.6965 N   0  3  0  0  0  0  0  0  0  0  0  0
   -0.5825   -1.3238    2.7967 O   0  5  0  0  0  0  0  0  0  0  0  0
   -0.6841    0.6612    3.6598 O   0  0  0  0  0  0  0  0  0  0  0  0
   -1.9681    0.2554    0.5891 N   0  0  0  0  0  0  0  0  0  0  0  0
   -3.2974    0.3908    0.0672 C   0  0  0  0  0  0  0  0  0  0  0  0
   -1.1289   -1.4045    0.6291 C   0  0  0  0  0  0  0  0  0  0  0  0
   -1.6545   -2.4575    0.2646 O   0  0  0  0  0  0  0  0  0  0  0  0
    1.1229   -2.9167    0.9153 H   0  0  0  0  0  0  0  0  0  0  0  0
    0.9769   -2.6023   -0.8831 H   0  0  0  0  0  0  0  0  0  0  0  0
    2.4509   -2.0783   -0.0040 H   0  0  0  0  0  0  0  0  0  0  0  0
    1.6520    2.1590   -0.0303 H   0  0  0  0  0  0  0  0  0  0  0  0
   -2.5709    3.0725    0.2157 H   0  0  0  0  0  0  0  0  0  0  0  0
   -1.0220    5.4101    1.5051 H   0  0  0  0  0  0  0  0  0  0  0  0
    0.2932    4.8307    0.6387 H   0  0  0  0  0  0  0  0  0  0  0  0
   -0.3882    6.4610   -0.9882 H   0  0  0  0  0  0  0  0  0  0  0  0
   -0.4256    5.0556   -1.6989 H   0  0  0  0  0  0  0  0  0  0  0  0
   -3.6619    6.6292   -2.4729 H   0  0  0  0  0  0  0  0  0  0  0  0
   -2.0459    7.3742   -2.3004 H   0  0  0  0  0  0  0  0  0  0  0  0
   -2.2910    6.5735   -4.6833 H   0  0  0  0  0  0  0  0  0  0  0  0
   -1.1013    5.5300   -3.8144 H   0  0  0  0  0  0  0  0  0  0  0  0
   -2.6958    4.4579   -3.3605 H   0  0  0  0  0  0  0  0  0  0  0  0
   -3.4221    4.1415   -0.3079 H   0  0  0  0  0  0  0  0  0  0  0  0
   -4.2575    4.5638   -1.5255 H   0  0  0  0  0  0  0  0  0  0  0  0
   -3.3217    2.0754   -2.0304 H   0  0  0  0  0  0  0  0  0  0  0  0
   -3.4263    3.0910   -3.1686 H   0  0  0  0  0  0  0  0  0  0  0  0
   -1.2182    2.3839   -3.7261 H   0  0  0  0  0  0  0  0  0  0  0  0
   -0.7770    3.8391   -2.9830 H   0  0  0  0  0  0  0  0  0  0  0  0
   -0.7565    3.6410   -0.7513 H   0  0  0  0  0  0  0  0  0  0  0  0
   -0.5158    2.7708    2.2685 H   0  0  0  0  0  0  0  0  0  0  0  0
   -1.1586   -0.7292   -1.0715 H   0  0  0  0  0  0  0  0  0  0  0  0
   -0.6858    0.2820   -2.8825 H   0  0  0  0  0  0  0  0  0  0  0  0
   -3.3322   -0.0165   -0.9486 H   0  0  0  0  0  0  0  0  0  0  0  0
   -3.8647   -0.0849    0.8388 H   0  0  0  0  0  0  0  0  0  0  0  0
   -3.5415    1.4581   -0.0096 H   0  0  0  0  0  0  0  0  0  0  0  0
  1  2  1  0  0  0  0
  1 30  1  0  0  0  0
  1 31  1  0  0  0  0
  1 32  1  0  0  0  0
  2  3  1  0  0  0  0
  2 28  1  0  0  0  0
  3  4  2  0  0  0  0
  3  5  1  0  0  0  0
  5  6  2  0  0  0  0
  5 33  1  0  0  0  0
  6  7  1  0  0  0  0
  6 26  1  0  0  0  0
  7  8  1  0  0  0  0
  7 34  1  0  0  0  0
  8  9  1  0  0  0  0
  8 35  1  0  0  0  0
  8 36  1  0  0  0  0
  9 10  1  0  0  0  0
  9 37  1  0  0  0  0
  9 38  1  0  0  0  0
 10 11  1  0  0  0  0
 10 14  1  0  0  0  0
 11 12  1  0  0  0  0
 11 39  1  0  0  0  0
 11 40  1  0  0  0  0
 12 13  1  0  0  0  0
 12 41  1  0  0  0  0
 12 42  1  0  0  0  0
 13 43  1  0  0  0  0
 14 15  1  0  0  0  0
 14 44  1  0  0  0  0
 14 45  1  0  0  0  0
 15 16  1  0  0  0  0
 15 46  1  0  0  0  0
 15 47  1  0  0  0  0
 16 17  1  0  0  0  0
 16 48  1  0  0  0  0
 16 49  1  0  0  0  0
 17 18  2  0  0  0  0
 17 22  1  0  0  0  0
 18 19  1  0  0  0  0
 18 50  1  0  0  0  0
 19 20  2  0  0  0  0
 19 51  1  0  0  0  0
 20 21  1  0  0  0  0
 20 23  1  0  0  0  0
 21 22  2  0  0  0  0
 21 52  1  0  0  0  0
 22 53  1  0  0  0  0
 23 24  1  0  0  0  0
 23 25  2  0  0  0  0
 26 27  1  0  0  0  0
 26 28  1  0  0  0  0
 27 54  1  0  0  0  0
 27 55  1  0  0  0  0
 27 56  1  0  0  0  0
 28 29  2  0  0  0  0
M  CHG  2  23   1  24  -1
M  END
>  <DRUGBANK_ID>
DB16008

>  <COMMON_NAME>
Nifekalant

>  <CAS_NUMBER>
130636-43-0

>  <UNII>
5VZ7GZM43E

>  <SYNONYMS>
6-((2-((2-Hydroxyethyl)(3-(p-nitrophenyl)propyl)amino)ethyl)amino)-1,3-dimethyluracil; Nifekalant

$$$$
