
 OpenBabel10282417243D

 54 57  0  0  0  0  0  0  0  0999 V2000
    0.8359   -2.1275   -0.0084 C   0  0  0  0  0  0  0  0  0  0  0  0
   -0.1198   -0.9544   -0.0016 C   0  0  0  0  0  0  0  0  0  0  0  0
   -1.5228   -1.1820   -0.0023 C   0  0  0  0  0  0  0  0  0  0  0  0
   -2.3842   -0.0689   -0.0146 C   0  0  0  0  0  0  0  0  0  0  0  0
   -1.8818    1.2353   -0.0006 C   0  0  0  0  0  0  0  0  0  0  0  0
   -0.5044    1.4534    0.0007 C   0  0  0  0  0  0  0  0  0  0  0  0
    0.3779    0.3671   -0.0049 C   0  0  0  0  0  0  0  0  0  0  0  0
    1.7981    0.6012   -0.0056 C   0  0  0  0  0  0  0  0  0  0  0  0
    2.9523    0.6964    0.0017 N   0  0  0  0  0  0  0  0  0  0  0  0
   -2.0835   -2.5455    0.0491 C   0  0  0  0  0  0  0  0  0  0  0  0
   -2.8466   -2.9277   -0.9919 N   0  0  0  0  0  0  0  0  0  0  0  0
   -3.2896   -4.1899   -0.9856 C   0  0  0  0  0  0  0  0  0  0  0  0
   -4.0769   -4.5825   -2.0279 N   0  0  0  0  0  0  0  0  0  0  0  0
   -3.0359   -5.0872   -0.0293 N   0  0  0  0  0  0  0  0  0  0  0  0
   -2.2950   -4.6688    1.0138 C   0  0  0  0  0  0  0  0  0  0  0  0
   -1.8019   -3.3903    1.1025 C   0  0  0  0  0  0  0  0  0  0  0  0
   -2.0496   -5.6196    2.0814 C   0  0  0  0  0  0  0  0  0  0  0  0
   -2.2924   -5.4136    3.4253 C   0  0  0  0  0  0  0  0  0  0  0  0
   -1.9856   -6.6137    4.0046 N   0  0  0  0  0  0  0  0  0  0  0  0
   -2.1422   -7.0087    5.3977 C   0  0  0  0  0  0  0  0  0  0  0  0
   -3.0852   -8.1776    5.5524 C   0  0  0  0  0  0  0  0  0  0  0  0
   -4.2232   -7.9851    6.2692 N   0  0  0  0  0  0  0  0  0  0  0  0
   -5.0963   -9.0294    6.3791 C   0  0  0  0  0  0  0  0  0  0  0  0
   -4.8528  -10.2633    5.7792 C   0  0  0  0  0  0  0  0  0  0  0  0
   -3.6757  -10.4545    5.0769 C   0  0  0  0  0  0  0  0  0  0  0  0
   -2.7731   -9.4093    4.9807 C   0  0  0  0  0  0  0  0  0  0  0  0
   -6.3729   -8.8095    7.1880 C   0  0  0  0  0  0  0  0  0  0  0  0
   -6.0187   -8.4719    8.6369 C   0  0  0  0  0  0  0  0  0  0  0  0
   -7.1911   -7.6763    6.5691 C   0  0  0  0  0  0  0  0  0  0  0  0
   -7.1833   -9.9966    7.1936 O   0  0  0  0  0  0  0  0  0  0  0  0
   -1.4297   -7.4464    3.0992 N   0  0  0  0  0  0  0  0  0  0  0  0
   -1.5239   -6.8708    1.9067 N   0  0  0  0  0  0  0  0  0  0  0  0
    0.7236   -2.7132    0.9062 H   0  0  0  0  0  0  0  0  0  0  0  0
    0.6545   -2.7520   -0.8876 H   0  0  0  0  0  0  0  0  0  0  0  0
    1.8865   -1.8363   -0.0327 H   0  0  0  0  0  0  0  0  0  0  0  0
   -3.4641   -0.2196   -0.0208 H   0  0  0  0  0  0  0  0  0  0  0  0
   -2.5673    2.0805    0.0110 H   0  0  0  0  0  0  0  0  0  0  0  0
   -0.1264    2.4748    0.0026 H   0  0  0  0  0  0  0  0  0  0  0  0
   -4.3779   -5.5414   -2.0554 H   0  0  0  0  0  0  0  0  0  0  0  0
   -4.2304   -3.9309   -2.7770 H   0  0  0  0  0  0  0  0  0  0  0  0
   -1.1896   -3.0714    1.9348 H   0  0  0  0  0  0  0  0  0  0  0  0
   -2.6918   -4.5816    3.9838 H   0  0  0  0  0  0  0  0  0  0  0  0
   -1.1538   -7.2610    5.7970 H   0  0  0  0  0  0  0  0  0  0  0  0
   -2.5193   -6.1398    5.9509 H   0  0  0  0  0  0  0  0  0  0  0  0
   -5.5704  -11.0737    5.8562 H   0  0  0  0  0  0  0  0  0  0  0  0
   -3.4673  -11.4059    4.5986 H   0  0  0  0  0  0  0  0  0  0  0  0
   -1.8494   -9.5537    4.4295 H   0  0  0  0  0  0  0  0  0  0  0  0
   -5.4285   -7.5514    8.7049 H   0  0  0  0  0  0  0  0  0  0  0  0
   -6.9256   -8.3421    9.2380 H   0  0  0  0  0  0  0  0  0  0  0  0
   -5.4438   -9.2823    9.0995 H   0  0  0  0  0  0  0  0  0  0  0  0
   -7.4639   -7.9103    5.5339 H   0  0  0  0  0  0  0  0  0  0  0  0
   -8.1263   -7.5272    7.1197 H   0  0  0  0  0  0  0  0  0  0  0  0
   -6.6377   -6.7307    6.5721 H   0  0  0  0  0  0  0  0  0  0  0  0
   -7.9831   -9.8152    7.7125 H   0  0  0  0  0  0  0  0  0  0  0  0
  1  2  1  0  0  0  0
  1 33  1  0  0  0  0
  1 34  1  0  0  0  0
  1 35  1  0  0  0  0
  2  3  2  0  0  0  0
  2  7  1  0  0  0  0
  3  4  1  0  0  0  0
  3 10  1  0  0  0  0
  4  5  2  0  0  0  0
  4 36  1  0  0  0  0
  5  6  1  0  0  0  0
  5 37  1  0  0  0  0
  6  7  2  0  0  0  0
  6 38  1  0  0  0  0
  7  8  1  0  0  0  0
  8  9  3  0  0  0  0
 10 11  2  0  0  0  0
 10 16  1  0  0  0  0
 11 12  1  0  0  0  0
 12 13  1  0  0  0  0
 12 14  2  0  0  0  0
 13 39  1  0  0  0  0
 13 40  1  0  0  0  0
 14 15  1  0  0  0  0
 15 16  2  0  0  0  0
 15 17  1  0  0  0  0
 16 41  1  0  0  0  0
 17 18  2  0  0  0  0
 17 32  1  0  0  0  0
 18 19  1  0  0  0  0
 18 42  1  0  0  0  0
 19 20  1  0  0  0  0
 19 31  1  0  0  0  0
 20 21  1  0  0  0  0
 20 43  1  0  0  0  0
 20 44  1  0  0  0  0
 21 22  2  0  0  0  0
 21 26  1  0  0  0  0
 22 23  1  0  0  0  0
 23 24  2  0  0  0  0
 23 27  1  0  0  0  0
 24 25  1  0  0  0  0
 24 45  1  0  0  0  0
 25 26  2  0  0  0  0
 25 46  1  0  0  0  0
 26 47  1  0  0  0  0
 27 28  1  0  0  0  0
 27 29  1  0  0  0  0
 27 30  1  0  0  0  0
 28 48  1  0  0  0  0
 28 49  1  0  0  0  0
 28 50  1  0  0  0  0
 29 51  1  0  0  0  0
 29 52  1  0  0  0  0
 29 53  1  0  0  0  0
 30 54  1  0  0  0  0
 31 32  2  0  0  0  0
M  END
>  <DRUGBANK_ID>
DB17506

>  <COMMON_NAME>
Etrumadenant

>  <CAS_NUMBER>
2239273-34-6

>  <UNII>
W0ZE0NT8IF

$$$$
