964
 OpenBabel10282417113D

 25 26  0  0  0  0  0  0  0  0999 V2000
    1.0696    0.1656   -0.1083 Cl  0  0  0  0  0  0  0  0  0  0  0  0
    6.1136    2.4651    0.1478 Cl  0  0  0  0  0  0  0  0  0  0  0  0
    4.1636    4.3057   -1.1966 N   0  0  0  0  0  0  0  0  0  0  0  0
    2.8479    2.6089   -0.2897 N   0  0  0  0  0  0  0  0  0  0  0  0
    3.2479    4.6580    0.8515 N   0  0  0  0  0  0  0  0  0  0  0  0
    5.4869   -2.4205   -0.1640 N   0  0  0  0  0  0  0  0  0  0  0  0
    4.9763    5.3852   -0.6784 C   0  0  0  0  0  0  0  0  0  0  0  0
    4.0916    5.8456    0.4803 C   0  0  0  0  0  0  0  0  0  0  0  0
    3.4101    3.8474   -0.1533 C   0  0  0  0  0  0  0  0  0  0  0  0
    3.5453    1.3680   -0.1017 C   0  0  0  0  0  0  0  0  0  0  0  0
    2.8065    0.1535   -0.1028 C   0  0  0  0  0  0  0  0  0  0  0  0
    4.9449    1.2154   -0.0437 C   0  0  0  0  0  0  0  0  0  0  0  0
    4.8161   -1.2169   -0.0577 C   0  0  0  0  0  0  0  0  0  0  0  0
    3.4316   -1.1128   -0.0767 C   0  0  0  0  0  0  0  0  0  0  0  0
    5.5506   -0.0454   -0.0594 C   0  0  0  0  0  0  0  0  0  0  0  0
    4.6052    3.6085   -1.7764 H   0  0  0  0  0  0  0  0  0  0  0  0
    1.9517    2.5560    0.1908 H   0  0  0  0  0  0  0  0  0  0  0  0
    6.4950   -2.4260   -0.0440 H   0  0  0  0  0  0  0  0  0  0  0  0
    5.0085   -3.3006   -0.0317 H   0  0  0  0  0  0  0  0  0  0  0  0
    5.1842    6.1596   -1.4185 H   0  0  0  0  0  0  0  0  0  0  0  0
    5.9374    5.0295   -0.2914 H   0  0  0  0  0  0  0  0  0  0  0  0
    4.6889    6.1888    1.3320 H   0  0  0  0  0  0  0  0  0  0  0  0
    3.4363    6.6592    0.1547 H   0  0  0  0  0  0  0  0  0  0  0  0
    2.8286   -2.0181   -0.0774 H   0  0  0  0  0  0  0  0  0  0  0  0
    6.6370   -0.1020   -0.0562 H   0  0  0  0  0  0  0  0  0  0  0  0
  1 11  1  0  0  0  0
  2 12  1  0  0  0  0
  3  7  1  0  0  0  0
  3  9  1  0  0  0  0
  3 16  1  0  0  0  0
  4  9  1  0  0  0  0
  4 10  1  0  0  0  0
  4 17  1  0  0  0  0
  5  8  1  0  0  0  0
  5  9  2  0  0  0  0
  6 13  1  0  0  0  0
  6 18  1  0  0  0  0
  6 19  1  0  0  0  0
  7  8  1  0  0  0  0
  7 20  1  0  0  0  0
  7 21  1  0  0  0  0
  8 22  1  0  0  0  0
  8 23  1  0  0  0  0
 10 11  2  0  0  0  0
 10 12  1  0  0  0  0
 11 14  1  0  0  0  0
 12 15  2  0  0  0  0
 13 14  2  0  0  0  0
 13 15  1  0  0  0  0
 14 24  1  0  0  0  0
 15 25  1  0  0  0  0
M  END
>  <DRUGBANK_ID>
DB00964

>  <SECONDARY_ACCESSION_NUMBERS>
APRD00012

>  <COMMON_NAME>
Apraclonidine

>  <CAS_NUMBER>
66711-21-5

>  <UNII>
843CEN85DI

>  <SYNONYMS>
4-Aminoclonidine; Apraclonidina; Apraclonidine; Apraclonidinum

$$$$
