
 OpenBabel10282417203D

 45 43  0  0  0  0  0  0  0  0999 V2000
   -0.7465   -1.7761   -1.0903 C   0  0  0  0  0  0  0  0  0  0  0  0
    0.2131   -1.8978   -2.3407 C   0  0  0  0  0  0  0  0  0  0  0  0
   -0.1119   -2.2461    0.2585 C   0  0  0  0  0  0  0  0  0  0  0  0
    0.8950   -0.6527   -2.9165 C   0  0  1  0  0  0  0  0  0  0  0  0
   -1.0084   -1.9466    1.4247 N   0  0  0  0  0  0  0  0  0  0  0  0
    0.4023   -0.0470   -4.2377 C   0  0  0  0  0  0  0  0  0  0  0  0
    0.5464    0.4166   -2.0614 N   0  0  0  0  0  0  0  0  0  0  0  0
   -0.9008   -2.3979    2.6965 C   0  0  0  0  0  0  0  0  0  0  0  0
    1.3826    0.5178   -4.9781 O   0  0  0  0  0  0  0  0  0  0  0  0
   -0.7844    0.2168   -4.4166 O   0  0  0  0  0  0  0  0  0  0  0  0
   -1.5527   -1.5704    3.5749 N   0  0  0  0  0  0  0  0  0  0  0  0
   -0.1533   -3.3802    3.0006 N   0  0  0  0  0  0  0  0  0  0  0  0
    1.3278    0.7957    0.3393 C   0  0  0  0  0  0  0  0  0  0  0  0
    0.5482    0.3430    1.5309 C   0  0  1  0  0  0  0  0  0  0  0  0
    0.7311    2.1478   -0.0707 C   0  0  0  0  0  0  0  0  0  0  0  0
    1.1642    0.8215    2.8147 C   0  0  0  0  0  0  0  0  0  0  0  0
   -1.0537    0.5502    1.5438 N   0  0  0  0  0  0  0  0  0  0  0  0
    1.2269    2.7907   -1.3410 C   0  0  0  0  0  0  0  0  0  0  0  0
    0.1437    1.1452    3.6597 O   0  0  0  0  0  0  0  0  0  0  0  0
    2.3233    0.7910    3.0597 O   0  0  0  0  0  0  0  0  0  0  0  0
    0.2599    3.1222   -2.2417 O   0  0  0  0  0  0  0  0  0  0  0  0
    2.3971    2.7283   -1.6919 O   0  0  0  0  0  0  0  0  0  0  0  0
   -1.6090   -2.4228   -1.2510 H   0  0  0  0  0  0  0  0  0  0  0  0
   -1.1853   -0.7660   -1.0379 H   0  0  0  0  0  0  0  0  0  0  0  0
    1.0023   -2.6108   -2.0751 H   0  0  0  0  0  0  0  0  0  0  0  0
   -0.3648   -2.3084   -3.1657 H   0  0  0  0  0  0  0  0  0  0  0  0
    0.2020   -3.2831    0.2707 H   0  0  0  0  0  0  0  0  0  0  0  0
    0.8705   -1.7734    0.3019 H   0  0  0  0  0  0  0  0  0  0  0  0
    1.9937   -0.7231   -2.8643 H   0  0  0  0  0  0  0  0  0  0  0  0
   -0.8564   -1.0039    1.7171 H   0  0  0  0  0  0  0  0  0  0  0  0
   -0.2764    0.9231   -2.3777 H   0  0  0  0  0  0  0  0  0  0  0  0
    1.3870    0.9914   -2.0770 H   0  0  0  0  0  0  0  0  0  0  0  0
    2.2656    0.5013   -4.5576 H   0  0  0  0  0  0  0  0  0  0  0  0
   -1.8146   -1.9051    4.4955 H   0  0  0  0  0  0  0  0  0  0  0  0
   -2.1568   -0.8071    3.2727 H   0  0  0  0  0  0  0  0  0  0  0  0
   -0.1673   -3.5298    4.0053 H   0  0  0  0  0  0  0  0  0  0  0  0
    1.2125   -0.0495   -0.3186 H   0  0  0  0  0  0  0  0  0  0  0  0
    2.4259    0.7512    0.3967 H   0  0  0  0  0  0  0  0  0  0  0  0
    0.8624   -0.6915    1.7133 H   0  0  0  0  0  0  0  0  0  0  0  0
   -0.3376    2.0098   -0.2431 H   0  0  0  0  0  0  0  0  0  0  0  0
    0.8741    2.8150    0.7732 H   0  0  0  0  0  0  0  0  0  0  0  0
   -1.6727   -0.1113    0.9929 H   0  0  0  0  0  0  0  0  0  0  0  0
   -1.3484    1.3790    1.0227 H   0  0  0  0  0  0  0  0  0  0  0  0
   -0.6851    0.9194    3.1612 H   0  0  0  0  0  0  0  0  0  0  0  0
   -0.6607    2.8057   -2.1244 H   0  0  0  0  0  0  0  0  0  0  0  0
  1  2  1  0  0  0  0
  1  3  1  0  0  0  0
  1 23  1  0  0  0  0
  1 24  1  0  0  0  0
  2 25  1  0  0  0  0
  2 26  1  0  0  0  0
  3  5  1  0  0  0  0
  3 27  1  0  0  0  0
  3 28  1  0  0  0  0
  4  6  1  0  0  0  0
  4 29  1  6  0  0  0
  4  2  1  0  0  0  0
  4  7  1  0  0  0  0
  5  8  1  0  0  0  0
  5 30  1  0  0  0  0
  6  9  1  0  0  0  0
  6 10  2  0  0  0  0
  7 31  1  0  0  0  0
  7 32  1  0  0  0  0
  8 11  1  0  0  0  0
  8 12  2  0  0  0  0
  9 33  1  0  0  0  0
 11 34  1  0  0  0  0
 11 35  1  0  0  0  0
 12 36  1  0  0  0  0
 13 14  1  0  0  0  0
 13 15  1  0  0  0  0
 13 37  1  0  0  0  0
 13 38  1  0  0  0  0
 14 16  1  0  0  0  0
 14 17  1  0  0  0  0
 14 39  1  1  0  0  0
 15 18  1  0  0  0  0
 15 40  1  0  0  0  0
 15 41  1  0  0  0  0
 16 19  1  0  0  0  0
 16 20  2  0  0  0  0
 17 42  1  0  0  0  0
 17 43  1  0  0  0  0
 18 21  1  0  0  0  0
 18 22  2  0  0  0  0
 19 44  1  0  0  0  0
 21 45  1  0  0  0  0
M  END
>  <DRUGBANK_ID>
DB13207

>  <COMMON_NAME>
Arginine glutamate

>  <CAS_NUMBER>
4320-30-3

>  <UNII>
TU1X77K34Q

>  <SYNONYMS>
2-amino-5-(diaminomethylideneamino)pentanoic acid; 2-amino-5-guanidino-pentanoic acid; 2-aminoglutaric acid; Arginine glutamate; L-Arginine L-glutamate

$$$$
