446816
 OpenBabel10282417123D

 40 41  0  0  0  0  0  0  0  0999 V2000
   -2.0757    0.6277   -0.1979 Cl  0  0  0  0  0  0  0  0  0  0  0  0
    5.6778   -1.1575    0.0946 O   0  0  0  0  0  0  0  0  0  0  0  0
    1.7386   -2.3426   -1.2860 N   0  0  0  0  0  0  0  0  0  0  0  0
    0.4535   -2.8080   -1.1376 N   0  0  0  0  0  0  0  0  0  0  0  0
    3.8761   -2.4502   -0.0161 N   0  0  0  0  0  0  0  0  0  0  0  0
    3.7545   -0.0124    0.2289 N   0  0  0  0  0  0  0  0  0  0  0  0
   -0.8990   -3.8104    0.8351 C   0  0  0  0  0  0  0  0  0  0  0  0
    0.4442   -3.4546    0.0541 C   0  0  0  0  0  0  0  0  0  0  0  0
   -1.7616   -2.7051    1.5619 C   0  0  0  0  0  0  0  0  0  0  0  0
   -1.8451   -4.4260   -0.1958 C   0  0  0  0  0  0  0  0  0  0  0  0
   -0.5908   -4.7828    1.9883 C   0  0  0  0  0  0  0  0  0  0  0  0
    1.7983   -3.7017    0.4533 C   0  0  0  0  0  0  0  0  0  0  0  0
    2.5880   -2.8673   -0.3312 C   0  0  0  0  0  0  0  0  0  0  0  0
    1.9881   -1.1756   -2.1149 C   0  0  0  0  0  0  0  0  0  0  0  0
    4.4240   -1.2071    0.0990 C   0  0  0  0  0  0  0  0  0  0  0  0
    2.4064    0.3504    0.5231 C   0  0  0  0  0  0  0  0  0  0  0  0
    1.8241    1.5887    0.1851 C   0  0  0  0  0  0  0  0  0  0  0  0
    1.5437   -0.5761    1.0209 C   0  0  0  0  0  0  0  0  0  0  0  0
    0.4062    1.7394    0.0728 C   0  0  0  0  0  0  0  0  0  0  0  0
    0.1888   -0.4733    0.7090 C   0  0  0  0  0  0  0  0  0  0  0  0
   -0.4124    0.6530    0.2318 C   0  0  0  0  0  0  0  0  0  0  0  0
    4.5370   -3.1962    0.1897 H   0  0  0  0  0  0  0  0  0  0  0  0
    4.3933    0.7599    0.0830 H   0  0  0  0  0  0  0  0  0  0  0  0
   -2.2140   -1.9848    0.8723 H   0  0  0  0  0  0  0  0  0  0  0  0
   -2.6313   -3.1431    2.0747 H   0  0  0  0  0  0  0  0  0  0  0  0
   -1.2156   -2.1611    2.3477 H   0  0  0  0  0  0  0  0  0  0  0  0
   -1.3399   -5.2312   -0.7317 H   0  0  0  0  0  0  0  0  0  0  0  0
   -2.7571   -4.8124    0.2664 H   0  0  0  0  0  0  0  0  0  0  0  0
   -2.1419   -3.6628   -0.9291 H   0  0  0  0  0  0  0  0  0  0  0  0
    0.0107   -5.6263    1.6505 H   0  0  0  0  0  0  0  0  0  0  0  0
   -0.0404   -4.2672    2.7902 H   0  0  0  0  0  0  0  0  0  0  0  0
   -1.5121   -5.1697    2.4397 H   0  0  0  0  0  0  0  0  0  0  0  0
    2.1057   -4.1385    1.3945 H   0  0  0  0  0  0  0  0  0  0  0  0
    1.6215   -1.3033   -3.1281 H   0  0  0  0  0  0  0  0  0  0  0  0
    1.4428   -0.3309   -1.6996 H   0  0  0  0  0  0  0  0  0  0  0  0
    3.0526   -0.9258   -2.1264 H   0  0  0  0  0  0  0  0  0  0  0  0
    2.4284    2.4438   -0.0873 H   0  0  0  0  0  0  0  0  0  0  0  0
    1.9355   -1.4966    1.4182 H   0  0  0  0  0  0  0  0  0  0  0  0
   -0.0631    2.6665   -0.2296 H   0  0  0  0  0  0  0  0  0  0  0  0
   -0.3739   -1.3674    0.6247 H   0  0  0  0  0  0  0  0  0  0  0  0
  1 21  1  0  0  0  0
  2 15  2  0  0  0  0
  3  4  1  0  0  0  0
  3 13  1  0  0  0  0
  3 14  1  0  0  0  0
  4  8  2  0  0  0  0
  5 13  1  0  0  0  0
  5 15  1  0  0  0  0
  5 22  1  0  0  0  0
  6 15  1  0  0  0  0
  6 16  1  0  0  0  0
  6 23  1  0  0  0  0
  7  8  1  0  0  0  0
  7  9  1  0  0  0  0
  7 10  1  0  0  0  0
  7 11  1  0  0  0  0
  8 12  1  0  0  0  0
  9 24  1  0  0  0  0
  9 25  1  0  0  0  0
  9 26  1  0  0  0  0
 10 27  1  0  0  0  0
 10 28  1  0  0  0  0
 10 29  1  0  0  0  0
 11 30  1  0  0  0  0
 11 31  1  0  0  0  0
 11 32  1  0  0  0  0
 12 13  2  0  0  0  0
 12 33  1  0  0  0  0
 14 34  1  0  0  0  0
 14 35  1  0  0  0  0
 14 36  1  0  0  0  0
 16 17  2  0  0  0  0
 16 18  1  0  0  0  0
 17 19  1  0  0  0  0
 17 37  1  0  0  0  0
 18 20  2  0  0  0  0
 18 38  1  0  0  0  0
 19 21  2  0  0  0  0
 19 39  1  0  0  0  0
 20 21  1  0  0  0  0
 20 40  1  0  0  0  0
M  END
>  <DRUGBANK_ID>
DB02277

>  <SECONDARY_ACCESSION_NUMBERS>
EXPT00726

>  <COMMON_NAME>
1-(5-Tert-Butyl-2-Methyl-2h-Pyrazol-3-Yl)-3-(4-Chloro-Phenyl)-Urea

$$$$
