
 OpenBabel10282417213D

 12 12  0  0  0  0  0  0  0  0999 V2000
    1.1106   -0.1300   -0.0911 C   0  0  0  0  0  0  0  0  0  0  0  0
    0.6240    1.0474    0.5763 N   0  0  0  0  0  0  0  0  0  0  0  0
   -0.3765    0.9317    1.9385 S   0  0  0  0  0  0  0  0  0  0  0  0
   -0.2956    2.6412    2.1404 C   0  0  0  0  0  0  0  0  0  0  0  0
    0.4341    3.2870    1.2286 C   0  0  0  0  0  0  0  0  0  0  0  0
    1.0131    2.3327    0.2598 C   0  0  0  0  0  0  0  0  0  0  0  0
    1.7402    2.6858   -0.6576 O   0  0  0  0  0  0  0  0  0  0  0  0
   -1.0995    3.4040    3.4384 Cl  0  0  0  0  0  0  0  0  0  0  0  0
    0.7508   -0.1256   -1.1236 H   0  0  0  0  0  0  0  0  0  0  0  0
    0.7647   -1.0357    0.4153 H   0  0  0  0  0  0  0  0  0  0  0  0
    2.2043   -0.1090   -0.0956 H   0  0  0  0  0  0  0  0  0  0  0  0
    0.6268    4.3441    1.1666 H   0  0  0  0  0  0  0  0  0  0  0  0
  1  2  1  0  0  0  0
  1  9  1  0  0  0  0
  1 10  1  0  0  0  0
  1 11  1  0  0  0  0
  2  3  1  0  0  0  0
  2  6  1  0  0  0  0
  3  4  1  0  0  0  0
  4  5  2  0  0  0  0
  4  8  1  0  0  0  0
  5  6  1  0  0  0  0
  5 12  1  0  0  0  0
  6  7  2  0  0  0  0
M  END
>  <DRUGBANK_ID>
DB14197

>  <COMMON_NAME>
Methylchloroisothiazolinone

>  <CAS_NUMBER>
26172-55-4

>  <UNII>
DEL7T5QRPN

>  <SYNONYMS>
4-Isothiazolin-3-one, 5-chloro-2-methyl-; 5-Chloro-2-methyl-3(2H)-isothiazolone; 5-Chloro-N-methylisothiazolin-3-one

$$$$
