
 OpenBabel10282417233D

 22 22  0  0  0  0  0  0  0  0999 V2000
    0.5610    0.0648   -0.1606 O   0  0  0  0  0  0  0  0  0  0  0  0
    0.4286   -0.7745   -1.2698 N   0  0  0  0  0  0  0  0  0  0  0  0
   -0.2504   -2.0406   -1.0754 C   0  0  0  0  0  0  0  0  0  0  0  0
    0.5131   -3.1043   -1.8612 C   0  0  0  0  0  0  0  0  0  0  0  0
    0.7941   -2.6157   -3.2882 C   0  0  0  0  0  0  0  0  0  0  0  0
    1.4689   -1.2512   -3.2720 C   0  0  3  0  0  0  0  0  0  0  0  0
    0.5969   -0.2777   -2.5386 C   0  0  0  0  0  0  0  0  0  0  0  0
    0.4428    0.8856   -2.9045 O   0  0  0  0  0  0  0  0  0  0  0  0
    3.0882   -1.1488   -2.4678 P   0  0  0  0  0  0  0  0  0  0  0  0
    4.0192   -0.7700   -3.7133 O   0  0  0  0  0  0  0  0  0  0  0  0
    3.1089    0.1833   -1.5675 O   0  0  0  0  0  0  0  0  0  0  0  0
    3.6090   -2.3388   -1.7307 O   0  0  0  0  0  0  0  0  0  0  0  0
    1.4669   -0.1652    0.1547 H   0  0  0  0  0  0  0  0  0  0  0  0
   -0.3194   -2.2763   -0.0108 H   0  0  0  0  0  0  0  0  0  0  0  0
   -1.2602   -1.9354   -1.4900 H   0  0  0  0  0  0  0  0  0  0  0  0
    1.4632   -3.2988   -1.3567 H   0  0  0  0  0  0  0  0  0  0  0  0
   -0.0388   -4.0461   -1.8835 H   0  0  0  0  0  0  0  0  0  0  0  0
    1.4117   -3.3377   -3.8313 H   0  0  0  0  0  0  0  0  0  0  0  0
   -0.1575   -2.5205   -3.8285 H   0  0  0  0  0  0  0  0  0  0  0  0
    1.5900   -0.8996   -4.3001 H   0  0  0  0  0  0  0  0  0  0  0  0
    4.3255   -1.5786   -4.1668 H   0  0  0  0  0  0  0  0  0  0  0  0
    2.2615    0.6760   -1.4852 H   0  0  0  0  0  0  0  0  0  0  0  0
  1  2  1  0  0  0  0
  1 13  1  0  0  0  0
  2  3  1  0  0  0  0
  2  7  1  0  0  0  0
  3  4  1  0  0  0  0
  3 14  1  0  0  0  0
  3 15  1  0  0  0  0
  4  5  1  0  0  0  0
  4 16  1  0  0  0  0
  4 17  1  0  0  0  0
  5  6  1  0  0  0  0
  5 18  1  0  0  0  0
  5 19  1  0  0  0  0
  6  7  1  0  0  0  0
  6  9  1  0  0  0  0
  6 20  1  0  0  0  0
  7  8  2  0  0  0  0
  9 10  1  0  0  0  0
  9 11  1  0  0  0  0
  9 12  2  0  0  0  0
 10 21  1  0  0  0  0
 11 22  1  0  0  0  0
M  END
>  <DRUGBANK_ID>
DB17108

>  <COMMON_NAME>
(1-Hydroxy-2-oxopiperidin-3-yl)phosphonic acid

>  <CAS_NUMBER>
2004714-32-1

>  <UNII>
64T5RTG4MY

>  <SYNONYMS>
Phosphonic acid, p-(1-hydroxy-2-oxo-3-piperidinyl)-

$$$$
