
 OpenBabel10282417173D

 35 36  0  0  0  0  0  0  0  0999 V2000
   -2.0930    0.2479    3.1093 Cl  0  0  0  0  0  0  0  0  0  0  0  0
   -0.3338    5.4344    2.4437 Cl  0  0  0  0  0  0  0  0  0  0  0  0
    1.8396    3.4611   -1.7861 S   0  0  0  0  0  0  0  0  0  0  0  0
    3.4149    4.6588   -0.1576 N   0  0  0  0  0  0  0  0  0  0  0  0
    1.7826    3.4000    1.0091 N   0  0  0  0  0  0  0  0  0  0  0  0
   -0.0019    2.1102    0.1237 N   0  0  0  0  0  0  0  0  0  0  0  0
    7.2631    6.6165    5.0896 N   0  0  0  0  0  0  0  0  0  0  0  0
    0.1915    2.3677    2.5637 C   0  0  0  0  0  0  0  0  0  0  0  0
   -1.2396    2.8491    2.7575 C   0  0  0  0  0  0  0  0  0  0  0  0
    0.7175    2.6647    1.1416 C   0  0  0  0  0  0  0  0  0  0  0  0
   -2.3102    1.9607    2.9905 C   0  0  0  0  0  0  0  0  0  0  0  0
   -1.5457    4.2233    2.6817 C   0  0  0  0  0  0  0  0  0  0  0  0
   -3.6255    2.4284    3.1238 C   0  0  0  0  0  0  0  0  0  0  0  0
   -2.8617    4.6824    2.8027 C   0  0  0  0  0  0  0  0  0  0  0  0
   -3.9017    3.7879    3.0255 C   0  0  0  0  0  0  0  0  0  0  0  0
    4.1387    5.1063    0.9574 C   0  0  0  0  0  0  0  0  0  0  0  0
    4.3805    4.2525    2.0295 C   0  0  0  0  0  0  0  0  0  0  0  0
    4.6841    6.3979    0.9712 C   0  0  0  0  0  0  0  0  0  0  0  0
    2.3343    3.7913   -0.1991 C   0  0  0  0  0  0  0  0  0  0  0  0
    5.1512    4.6702    3.1125 C   0  0  0  0  0  0  0  0  0  0  0  0
    5.4401    6.8299    2.0729 C   0  0  0  0  0  0  0  0  0  0  0  0
    5.6948    5.9549    3.1341 C   0  0  0  0  0  0  0  0  0  0  0  0
    6.5504    6.3396    4.2222 C   0  0  0  0  0  0  0  0  0  0  0  0
    3.6762    5.0241   -1.0663 H   0  0  0  0  0  0  0  0  0  0  0  0
   -0.8634    1.5996    0.2534 H   0  0  0  0  0  0  0  0  0  0  0  0
    0.2509    2.3635   -0.8266 H   0  0  0  0  0  0  0  0  0  0  0  0
    0.8319    2.8085    3.3363 H   0  0  0  0  0  0  0  0  0  0  0  0
    0.2710    1.2837    2.7000 H   0  0  0  0  0  0  0  0  0  0  0  0
   -4.4440    1.7324    3.2997 H   0  0  0  0  0  0  0  0  0  0  0  0
   -3.0768    5.7458    2.7232 H   0  0  0  0  0  0  0  0  0  0  0  0
   -4.9212    4.1513    3.1252 H   0  0  0  0  0  0  0  0  0  0  0  0
    4.0180    3.2297    2.0070 H   0  0  0  0  0  0  0  0  0  0  0  0
    4.4912    7.1013    0.1631 H   0  0  0  0  0  0  0  0  0  0  0  0
    5.3326    3.9712    3.9246 H   0  0  0  0  0  0  0  0  0  0  0  0
    5.8307    7.8465    2.0971 H   0  0  0  0  0  0  0  0  0  0  0  0
  1 11  1  0  0  0  0
  2 12  1  0  0  0  0
  3 19  2  0  0  0  0
  4 16  1  0  0  0  0
  4 19  1  0  0  0  0
  4 24  1  0  0  0  0
  5 10  2  0  0  0  0
  5 19  1  0  0  0  0
  6 10  1  0  0  0  0
  6 25  1  0  0  0  0
  6 26  1  0  0  0  0
  7 23  3  0  0  0  0
  8  9  1  0  0  0  0
  8 10  1  0  0  0  0
  8 27  1  0  0  0  0
  8 28  1  0  0  0  0
  9 11  2  0  0  0  0
  9 12  1  0  0  0  0
 11 13  1  0  0  0  0
 12 14  2  0  0  0  0
 13 15  2  0  0  0  0
 13 29  1  0  0  0  0
 14 15  1  0  0  0  0
 14 30  1  0  0  0  0
 15 31  1  0  0  0  0
 16 17  2  0  0  0  0
 16 18  1  0  0  0  0
 17 20  1  0  0  0  0
 17 32  1  0  0  0  0
 18 21  2  0  0  0  0
 18 33  1  0  0  0  0
 20 22  2  0  0  0  0
 20 34  1  0  0  0  0
 21 22  1  0  0  0  0
 21 35  1  0  0  0  0
 22 23  1  0  0  0  0
M  END
>  <DRUGBANK_ID>
DB07961

>  <COMMON_NAME>
1-(4-Cyano-phenyl)-3-[2-(2,6-dichloro-phenyl)-1-imino-ethyl]-thiourea

$$$$
