
 OpenBabel10282417213D

  1  0  0  0  0  0  0  0  0  0999 V2000
    1.0366    0.0843    0.0395 Tl  0  3  0  0  0  0  0  0  0  0  0  0
M  ISO  1   1 201
M  CHG  1   1   1
M  END
>  <DRUGBANK_ID>
DB14576

>  <COMMON_NAME>
Thallous cation Tl-201

>  <UNII>
4877X14G4C

>  <SYNONYMS>
Thallium cation Tl-201; Thallium cation Tl-201 (1+); Thallous ion Tl-201

$$$$
