
 OpenBabel10282417143D

 89 92  0  0  1  0  0  0  0  0999 V2000
    4.9542   -5.6494   -3.8466 C   0  0  0  0  0  0  0  0  0  0  0  0
    2.6950   -1.3611   -1.1095 C   0  0  0  0  0  0  0  0  0  0  0  0
    1.1987   -0.3172   -2.6551 C   0  0  0  0  0  0  0  0  0  0  0  0
    7.5150   -0.8353    1.1089 C   0  0  0  0  0  0  0  0  0  0  0  0
    3.1665   -6.9946    0.1047 C   0  0  0  0  0  0  0  0  0  0  0  0
    4.3355   -5.4928   -2.4859 C   0  0  2  0  0  0  0  0  0  0  0  0
    1.3142   -1.4719   -1.7112 C   0  0  2  0  0  0  0  0  0  0  0  0
    2.8338   -2.5464   -0.2407 C   0  0  1  0  0  0  0  0  0  0  0  0
    6.4036   -1.8283    1.3556 C   0  0  2  0  0  0  0  0  0  0  0  0
    4.2183   -6.1043    0.6629 C   0  0  2  0  0  0  0  0  0  0  0  0
    4.0297   -3.9979   -2.0660 C   0  0  2  0  0  0  0  0  0  0  0  0
    0.2140   -1.4699   -0.6277 C   0  0  2  0  0  0  0  0  0  0  0  0
    1.7301   -2.3707    0.9289 C   0  0  1  0  0  0  0  0  0  0  0  0
    5.4333   -3.3858   -1.7673 C   0  0  1  0  0  0  0  0  0  0  0  0
    0.3741   -2.5724    0.3597 C   0  0  1  0  0  0  0  0  0  0  0  0
    6.0792   -2.2009    3.9515 C   0  0  2  0  0  0  0  0  0  0  0  0
    4.6400   -6.2035    2.7319 C   0  0  2  0  0  0  0  0  0  0  0  0
    6.9857   -3.7848    4.0369 C   0  0  2  0  0  0  0  0  0  0  0  0
    6.3365   -4.2035   -0.8531 C   0  0  2  0  0  0  0  0  0  0  0  0
    4.2814   -4.7472    3.0411 C   0  0  2  0  0  0  0  0  0  0  0  0
    5.3089   -1.7064    2.4479 C   0  0  2  0  0  0  0  0  0  0  0  0
    5.4466   -6.5579    1.3303 C   0  0  2  0  0  0  0  0  0  0  0  0
    7.7261   -3.7826    2.6385 C   0  0  1  0  0  0  0  0  0  0  0  0
    6.4181   -5.7023   -1.0475 C   0  0  2  0  0  0  0  0  0  0  0  0
    3.7552   -4.0523    1.9560 C   0  0  2  0  0  0  0  0  0  0  0  0
    2.8983   -3.7770   -1.0707 N   0  0  0  0  0  0  0  0  0  0  0  0
    2.1839   -0.4120   -3.6746 O   0  0  0  0  0  0  0  0  0  0  0  0
    8.6675   -1.5314    0.5827 O   0  0  0  0  0  0  0  0  0  0  0  0
    1.9188   -6.3230    0.1724 O   0  0  0  0  0  0  0  0  0  0  0  0
   -1.0809   -1.6649   -1.1410 O   0  0  0  0  0  0  0  0  0  0  0  0
    1.5549   -3.2870    1.9811 O   0  0  0  0  0  0  0  0  0  0  0  0
    6.2031   -3.1438   -2.9256 O   0  0  0  0  0  0  0  0  0  0  0  0
   -0.6008   -2.5060    1.4232 O   0  0  0  0  0  0  0  0  0  0  0  0
    7.1644   -1.2986    4.1353 O   0  0  0  0  0  0  0  0  0  0  0  0
    3.3508   -6.9095    2.8388 O   0  0  0  0  0  0  0  0  0  0  0  0
    6.4057   -5.1629    4.2282 O   0  0  0  0  0  0  0  0  0  0  0  0
    5.8278   -4.0665    0.4110 O   0  0  0  0  0  0  0  0  0  0  0  0
    5.2557   -3.9082    3.0327 O   0  0  0  0  0  0  0  0  0  0  0  0
    8.0194   -5.0861    2.1414 O   0  0  0  0  0  0  0  0  0  0  0  0
    5.3278   -6.2977   -1.7858 O   0  0  0  0  0  0  0  0  0  0  0  0
    7.1668   -3.0460    1.5474 O   0  0  0  0  0  0  0  0  0  0  0  0
    3.8636   -4.7228    0.7342 O   0  0  0  0  0  0  0  0  0  0  0  0
    6.6059   -6.3318    0.3641 O   0  0  0  0  0  0  0  0  0  0  0  0
    3.9871   -2.4812    2.0711 O   0  0  0  0  0  0  0  0  0  0  0  0
    3.3702   -6.0232   -2.4986 H   0  0  0  0  0  0  0  0  0  0  0  0
    1.2464   -2.4041   -2.2892 H   0  0  0  0  0  0  0  0  0  0  0  0
    3.8247   -2.3602    0.1218 H   0  0  0  0  0  0  0  0  0  0  0  0
    5.8736   -1.7838    0.3798 H   0  0  0  0  0  0  0  0  0  0  0  0
    4.6629   -6.0155   -0.2230 H   0  0  0  0  0  0  0  0  0  0  0  0
    3.6190   -3.5064   -2.9532 H   0  0  0  0  0  0  0  0  0  0  0  0
    0.2629   -0.5352   -0.0565 H   0  0  0  0  0  0  0  0  0  0  0  0
    1.8701   -1.4119    1.4502 H   0  0  0  0  0  0  0  0  0  0  0  0
    5.2587   -2.3963   -1.3540 H   0  0  0  0  0  0  0  0  0  0  0  0
    0.2921   -3.5914   -0.0556 H   0  0  0  0  0  0  0  0  0  0  0  0
    5.2928   -2.1045    4.7178 H   0  0  0  0  0  0  0  0  0  0  0  0
    5.1332   -6.7260    3.5372 H   0  0  0  0  0  0  0  0  0  0  0  0
    7.5591   -3.8782    4.9327 H   0  0  0  0  0  0  0  0  0  0  0  0
    7.3418   -3.7818   -0.7944 H   0  0  0  0  0  0  0  0  0  0  0  0
    3.6455   -4.5123    3.9208 H   0  0  0  0  0  0  0  0  0  0  0  0
    4.9737   -0.6354    2.4381 H   0  0  0  0  0  0  0  0  0  0  0  0
    6.0081   -7.2967    1.9208 H   0  0  0  0  0  0  0  0  0  0  0  0
    8.6881   -3.3422    2.7700 H   0  0  0  0  0  0  0  0  0  0  0  0
    7.3047   -5.8843   -1.6720 H   0  0  0  0  0  0  0  0  0  0  0  0
    2.8270   -4.4208    2.2095 H   0  0  0  0  0  0  0  0  0  0  0  0
    4.2115   -5.8685   -4.6000 H   0  0  0  0  0  0  0  0  0  0  0  0
    5.6964   -6.4610   -3.8220 H   0  0  0  0  0  0  0  0  0  0  0  0
    5.4882   -4.7630   -4.1421 H   0  0  0  0  0  0  0  0  0  0  0  0
    3.5021   -1.3865   -1.8440 H   0  0  0  0  0  0  0  0  0  0  0  0
    2.8679   -0.4445   -0.5245 H   0  0  0  0  0  0  0  0  0  0  0  0
    0.2256   -0.3539   -3.1315 H   0  0  0  0  0  0  0  0  0  0  0  0
    1.3226    0.6160   -2.0989 H   0  0  0  0  0  0  0  0  0  0  0  0
    7.2684   -0.0419    0.3976 H   0  0  0  0  0  0  0  0  0  0  0  0
    7.7756   -0.4046    2.0561 H   0  0  0  0  0  0  0  0  0  0  0  0
    3.3671   -7.2469   -0.9333 H   0  0  0  0  0  0  0  0  0  0  0  0
    3.1895   -7.9085    0.6717 H   0  0  0  0  0  0  0  0  0  0  0  0
    1.9960   -4.1857   -1.3186 H   0  0  0  0  0  0  0  0  0  0  0  0
    3.0725   -0.3256   -3.2865 H   0  0  0  0  0  0  0  0  0  0  0  0
    8.5277   -2.4919    0.7690 H   0  0  0  0  0  0  0  0  0  0  0  0
    2.0798   -5.5343    0.7070 H   0  0  0  0  0  0  0  0  0  0  0  0
   -1.1233   -1.3138   -2.0336 H   0  0  0  0  0  0  0  0  0  0  0  0
    1.4279   -4.1123    1.4794 H   0  0  0  0  0  0  0  0  0  0  0  0
    6.7632   -3.9376   -3.0174 H   0  0  0  0  0  0  0  0  0  0  0  0
   -0.2302   -1.9122    2.1029 H   0  0  0  0  0  0  0  0  0  0  0  0
    7.8157   -1.6280    3.4845 H   0  0  0  0  0  0  0  0  0  0  0  0
    2.6790   -6.5137    2.2504 H   0  0  0  0  0  0  0  0  0  0  0  0
    5.5315   -5.0789    4.6515 H   0  0  0  0  0  0  0  0  0  0  0  0
    4.9331   -3.7443    0.2859 H   0  0  0  0  0  0  0  0  0  0  0  0
    5.6670   -3.7524    2.0902 H   0  0  0  0  0  0  0  0  0  0  0  0
    7.3530   -5.7007    2.4960 H   0  0  0  0  0  0  0  0  0  0  0  0
  1 65  1  0  0  0  0
  1 66  1  0  0  0  0
  1 67  1  0  0  0  0
  2 68  1  0  0  0  0
  2 69  1  0  0  0  0
  3 70  1  0  0  0  0
  3 71  1  0  0  0  0
  4 72  1  0  0  0  0
  4 73  1  0  0  0  0
  5 74  1  0  0  0  0
  5 75  1  0  0  0  0
  6  1  1  0  0  0  0
  6 45  1  1  0  0  0
  7  2  1  0  0  0  0
  7  3  1  0  0  0  0
  7 46  1  6  0  0  0
  8  2  1  0  0  0  0
  8 47  1  1  0  0  0
  8 26  1  0  0  0  0
  9 48  1  6  0  0  0
  9  4  1  0  0  0  0
 10 49  1  6  0  0  0
 10  5  1  0  0  0  0
 11  6  1  0  0  0  0
 11 50  1  6  0  0  0
 11 26  1  0  0  0  0
 12  7  1  0  0  0  0
 12 51  1  1  0  0  0
 12 30  1  0  0  0  0
 13  8  1  0  0  0  0
 13 52  1  1  0  0  0
 13 31  1  0  0  0  0
 14 11  1  0  0  0  0
 14 32  1  0  0  0  0
 14 53  1  1  0  0  0
 15 12  1  0  0  0  0
 15 13  1  0  0  0  0
 15 33  1  0  0  0  0
 15 54  1  6  0  0  0
 16 34  1  0  0  0  0
 16 55  1  1  0  0  0
 17 35  1  0  0  0  0
 17 56  1  1  0  0  0
 18 16  1  0  0  0  0
 18 57  1  1  0  0  0
 18 36  1  0  0  0  0
 19 14  1  0  0  0  0
 19 58  1  6  0  0  0
 19 37  1  0  0  0  0
 20 17  1  0  0  0  0
 20 59  1  1  0  0  0
 20 38  1  0  0  0  0
 21  9  1  0  0  0  0
 21 16  1  0  0  0  0
 21 44  1  0  0  0  0
 21 60  1  1  0  0  0
 22 10  1  0  0  0  0
 22 17  1  0  0  0  0
 22 43  1  0  0  0  0
 22 61  1  6  0  0  0
 23 18  1  0  0  0  0
 23 62  1  1  0  0  0
 23 39  1  0  0  0  0
 24 19  1  0  0  0  0
 24 63  1  6  0  0  0
 24 43  1  0  0  0  0
 25 20  1  0  0  0  0
 25 64  1  1  0  0  0
 25 44  1  0  0  0  0
 26 76  1  0  0  0  0
 27  3  1  0  0  0  0
 27 77  1  0  0  0  0
 28  4  1  0  0  0  0
 28 78  1  0  0  0  0
 29  5  1  0  0  0  0
 29 79  1  0  0  0  0
 30 80  1  0  0  0  0
 31 81  1  0  0  0  0
 32 82  1  0  0  0  0
 33 83  1  0  0  0  0
 34 84  1  0  0  0  0
 35 85  1  0  0  0  0
 36 86  1  0  0  0  0
 37 87  1  0  0  0  0
 38 88  1  0  0  0  0
 39 89  1  0  0  0  0
 40  6  1  0  0  0  0
 40 24  1  0  0  0  0
 41  9  1  0  0  0  0
 41 23  1  0  0  0  0
 42 10  1  0  0  0  0
 42 25  1  0  0  0  0
M  END
>  <DRUGBANK_ID>
DB04226

>  <SECONDARY_ACCESSION_NUMBERS>
EXPT01543

>  <COMMON_NAME>
Dihydro-Acarbose

$$$$
