
 OpenBabel10282417193D

 52 55  0  0  0  0  0  0  0  0999 V2000
   -4.7313   -6.5652   -0.6670 C   0  0  0  0  0  0  0  0  0  0  0  0
   -5.6674   -5.7590   -1.3141 C   0  0  0  0  0  0  0  0  0  0  0  0
   -5.6414   -4.3778   -1.1164 C   0  0  0  0  0  0  0  0  0  0  0  0
   -4.6869   -3.8160   -0.3444 N   0  0  0  0  0  0  0  0  0  0  0  0
   -3.7239   -4.5858    0.2040 C   0  0  0  0  0  0  0  0  0  0  0  0
   -3.7651   -5.9722    0.1285 C   0  0  0  0  0  0  0  0  0  0  0  0
   -2.8193   -3.9477    1.2155 C   0  0  0  0  0  0  0  0  0  0  0  0
   -2.1446   -2.5628    1.2006 C   0  0  1  0  0  0  0  0  0  0  0  0
   -3.1730   -1.3984    1.2349 C   0  0  0  0  0  0  0  0  0  0  0  0
   -4.0182   -1.3249    2.5161 C   0  0  0  0  0  0  0  0  0  0  0  0
   -3.1788   -1.3731    3.8082 C   0  0  2  0  0  0  0  0  0  0  0  0
   -1.9911   -2.3543    3.8115 C   0  0  0  0  0  0  0  0  0  0  0  0
   -1.2419   -2.4160    2.4779 C   0  0  0  0  0  0  0  0  0  0  0  0
   -3.9866   -1.4530    5.0132 O   0  0  0  0  0  0  0  0  0  0  0  0
   -4.7494   -2.5583    5.2879 C   0  0  0  0  0  0  0  0  0  0  0  0
   -4.8146   -3.7238    4.5395 C   0  0  0  0  0  0  0  0  0  0  0  0
   -5.5951   -4.8278    4.8106 C   0  0  0  0  0  0  0  0  0  0  0  0
   -6.3428   -4.8216    5.9539 C   0  0  0  0  0  0  0  0  0  0  0  0
   -6.3011   -3.6846    6.7707 C   0  0  0  0  0  0  0  0  0  0  0  0
   -5.5220   -2.5537    6.4380 C   0  0  0  0  0  0  0  0  0  0  0  0
   -5.5579   -6.1759    3.7351 Cl  0  0  0  0  0  0  0  0  0  0  0  0
   -4.0182   -3.8880    3.5220 F   0  0  0  0  0  0  0  0  0  0  0  0
   -1.2908   -2.4789   -0.0472 C   0  0  0  0  0  0  0  0  0  0  0  0
   -1.5829   -1.9472   -1.1136 O   0  0  0  0  0  0  0  0  0  0  0  0
   -0.0887   -3.0754    0.0812 O   0  0  0  0  0  0  0  0  0  0  0  0
   -6.6509   -3.5739   -1.6657 N   0  0  0  0  0  0  0  0  0  0  0  0
   -6.6827   -2.2279   -1.5339 C   0  0  0  0  0  0  0  0  0  0  0  0
   -8.1160   -1.4268   -0.9796 S   0  0  0  0  0  0  0  0  0  0  0  0
   -7.2992    0.0805   -1.0328 C   0  0  0  0  0  0  0  0  0  0  0  0
   -6.0316   -0.1056   -1.5322 C   0  0  0  0  0  0  0  0  0  0  0  0
   -5.6978   -1.4075   -1.8303 N   0  0  0  0  0  0  0  0  0  0  0  0
   -4.7538   -7.6457   -0.7718 H   0  0  0  0  0  0  0  0  0  0  0  0
   -6.4079   -6.2235   -1.9548 H   0  0  0  0  0  0  0  0  0  0  0  0
   -3.0811   -6.5816    0.7118 H   0  0  0  0  0  0  0  0  0  0  0  0
   -3.6115   -3.7671    1.8879 H   0  0  0  0  0  0  0  0  0  0  0  0
   -2.1652   -4.6972    1.6778 H   0  0  0  0  0  0  0  0  0  0  0  0
   -2.6473   -0.4431    1.1128 H   0  0  0  0  0  0  0  0  0  0  0  0
   -3.8534   -1.4744    0.3808 H   0  0  0  0  0  0  0  0  0  0  0  0
   -4.6267   -0.4110    2.5133 H   0  0  0  0  0  0  0  0  0  0  0  0
   -4.7778   -2.1093    2.4899 H   0  0  0  0  0  0  0  0  0  0  0  0
   -2.7059   -0.3794    3.8628 H   0  0  0  0  0  0  0  0  0  0  0  0
   -1.3099   -2.0925    4.6309 H   0  0  0  0  0  0  0  0  0  0  0  0
   -2.2597   -3.3717    4.0925 H   0  0  0  0  0  0  0  0  0  0  0  0
   -0.5418   -3.2612    2.5428 H   0  0  0  0  0  0  0  0  0  0  0  0
   -0.6212   -1.5163    2.3928 H   0  0  0  0  0  0  0  0  0  0  0  0
   -6.9287   -5.6970    6.2025 H   0  0  0  0  0  0  0  0  0  0  0  0
   -6.8863   -3.6831    7.6836 H   0  0  0  0  0  0  0  0  0  0  0  0
   -5.5150   -1.6863    7.0931 H   0  0  0  0  0  0  0  0  0  0  0  0
    0.3423   -2.9269   -0.7869 H   0  0  0  0  0  0  0  0  0  0  0  0
   -7.3480   -4.0341   -2.2257 H   0  0  0  0  0  0  0  0  0  0  0  0
   -7.7666    1.0044   -0.7235 H   0  0  0  0  0  0  0  0  0  0  0  0
   -5.2996    0.6747   -1.6987 H   0  0  0  0  0  0  0  0  0  0  0  0
  1  2  2  0  0  0  0
  1  6  1  0  0  0  0
  1 32  1  0  0  0  0
  2  3  1  0  0  0  0
  2 33  1  0  0  0  0
  3  4  2  0  0  0  0
  3 26  1  0  0  0  0
  4  5  1  0  0  0  0
  5  6  2  0  0  0  0
  5  7  1  0  0  0  0
  6 34  1  0  0  0  0
  7 35  1  0  0  0  0
  7 36  1  0  0  0  0
  8  9  1  0  0  0  0
  8 13  1  0  0  0  0
  8 23  1  6  0  0  0
  8  7  1  0  0  0  0
  9 10  1  0  0  0  0
  9 37  1  0  0  0  0
  9 38  1  0  0  0  0
 10 11  1  0  0  0  0
 10 39  1  0  0  0  0
 10 40  1  0  0  0  0
 11 12  1  0  0  0  0
 11 41  1  1  0  0  0
 11 14  1  0  0  0  0
 12 13  1  0  0  0  0
 12 42  1  0  0  0  0
 12 43  1  0  0  0  0
 13 44  1  0  0  0  0
 13 45  1  0  0  0  0
 14 15  1  0  0  0  0
 15 16  2  0  0  0  0
 15 20  1  0  0  0  0
 16 17  1  0  0  0  0
 16 22  1  0  0  0  0
 17 18  2  0  0  0  0
 17 21  1  0  0  0  0
 18 19  1  0  0  0  0
 18 46  1  0  0  0  0
 19 20  2  0  0  0  0
 19 47  1  0  0  0  0
 20 48  1  0  0  0  0
 23 24  2  0  0  0  0
 23 25  1  0  0  0  0
 25 49  1  0  0  0  0
 26 27  1  0  0  0  0
 26 50  1  0  0  0  0
 27 28  1  0  0  0  0
 27 31  2  0  0  0  0
 28 29  1  0  0  0  0
 29 30  2  0  0  0  0
 29 51  1  0  0  0  0
 30 31  1  0  0  0  0
 30 52  1  0  0  0  0
M  END
>  <DRUGBANK_ID>
DB12556

>  <COMMON_NAME>
MK-5108

>  <CAS_NUMBER>
1010085-13-8

>  <UNII>
H8J407531S

$$$$
