342
 OpenBabel10282417163D

 51 55  0  0  0  0  0  0  0  0999 V2000
    0.9071   -1.3229   -0.3185 C   0  0  0  0  0  0  0  0  0  0  0  0
   -0.2404   -0.6089   -0.1598 C   0  0  0  0  0  0  0  0  0  0  0  0
   -1.4893   -1.1381   -0.0785 O   0  0  0  0  0  0  0  0  0  0  0  0
   -2.2701    0.0590    0.0818 C   0  0  0  0  0  0  0  0  0  0  0  0
   -1.4821    1.2712    0.0504 O   0  0  0  0  0  0  0  0  0  0  0  0
   -0.2290    0.7611   -0.0423 C   0  0  0  0  0  0  0  0  0  0  0  0
    0.9555    1.4698   -0.0264 C   0  0  0  0  0  0  0  0  0  0  0  0
    2.1504    0.7526   -0.0860 C   0  0  0  0  0  0  0  0  0  0  0  0
    2.1385   -0.6551   -0.2212 C   0  0  0  0  0  0  0  0  0  0  0  0
    3.4219   -1.4437   -0.0877 C   0  0  0  0  0  0  0  0  0  0  0  0
    3.5186   -2.1903    1.1769 N   0  0  0  0  0  0  0  0  0  0  0  0
    2.6051   -3.3399    1.2412 C   0  0  0  0  0  0  0  0  0  0  0  0
    3.3609   -1.3065    2.3403 C   0  0  0  0  0  0  0  0  0  0  0  0
    3.4891   -2.0383    3.6663 C   0  0  0  0  0  0  0  0  0  0  0  0
    2.7128   -3.3621    3.7283 C   0  0  0  0  0  0  0  0  0  0  0  0
    2.8508   -4.2271    2.4614 C   0  0  2  0  0  0  0  0  0  0  0  0
    3.9952   -5.1032    2.3393 O   0  0  0  0  0  0  0  0  0  0  0  0
    5.2297   -4.5224    2.3232 C   0  0  0  0  0  0  0  0  0  0  0  0
    5.7719   -3.9893    3.4880 C   0  0  0  0  0  0  0  0  0  0  0  0
    6.9268   -3.2118    3.4364 C   0  0  0  0  0  0  0  0  0  0  0  0
    5.9894   -4.5256    1.1570 C   0  0  0  0  0  0  0  0  0  0  0  0
    7.2363   -3.8868    1.1351 C   0  0  0  0  0  0  0  0  0  0  0  0
    7.6652   -3.1728    2.2610 C   0  0  0  0  0  0  0  0  0  0  0  0
    8.8603   -2.4330    2.2243 N   0  0  0  0  0  0  0  0  0  0  0  0
    9.8332   -2.4111    3.1965 C   0  0  0  0  0  0  0  0  0  0  0  0
   10.8301   -1.6044    2.6987 C   0  0  0  0  0  0  0  0  0  0  0  0
   10.4675   -1.0752    1.4874 N   0  0  0  0  0  0  0  0  0  0  0  0
    9.2865   -1.5879    1.2302 C   0  0  0  0  0  0  0  0  0  0  0  0
    2.0045   -4.9310    2.4863 H   0  0  0  0  0  0  0  0  0  0  0  0
    0.8442   -2.4019   -0.4332 H   0  0  0  0  0  0  0  0  0  0  0  0
   -3.0095    0.0854   -0.7249 H   0  0  0  0  0  0  0  0  0  0  0  0
   -2.7920    0.0139    1.0444 H   0  0  0  0  0  0  0  0  0  0  0  0
    0.9581    2.5508    0.0633 H   0  0  0  0  0  0  0  0  0  0  0  0
    3.0996    1.2788    0.0104 H   0  0  0  0  0  0  0  0  0  0  0  0
    3.5371   -2.1130   -0.9501 H   0  0  0  0  0  0  0  0  0  0  0  0
    4.2852   -0.7664   -0.1432 H   0  0  0  0  0  0  0  0  0  0  0  0
    2.6551   -3.9385    0.3239 H   0  0  0  0  0  0  0  0  0  0  0  0
    1.5747   -2.9902    1.3664 H   0  0  0  0  0  0  0  0  0  0  0  0
    2.3969   -0.7899    2.3454 H   0  0  0  0  0  0  0  0  0  0  0  0
    4.1491   -0.5432    2.3027 H   0  0  0  0  0  0  0  0  0  0  0  0
    3.2017   -1.3966    4.5044 H   0  0  0  0  0  0  0  0  0  0  0  0
    4.5496   -2.1610    3.8193 H   0  0  0  0  0  0  0  0  0  0  0  0
    2.9749   -3.9418    4.6171 H   0  0  0  0  0  0  0  0  0  0  0  0
    1.6518   -3.0900    3.8352 H   0  0  0  0  0  0  0  0  0  0  0  0
    5.2175   -4.0488    4.4181 H   0  0  0  0  0  0  0  0  0  0  0  0
    7.1738   -2.5787    4.2879 H   0  0  0  0  0  0  0  0  0  0  0  0
    5.6163   -5.0170    0.2625 H   0  0  0  0  0  0  0  0  0  0  0  0
    7.8767   -3.9929    0.2648 H   0  0  0  0  0  0  0  0  0  0  0  0
    9.7729   -3.0194    4.0869 H   0  0  0  0  0  0  0  0  0  0  0  0
   11.7907   -1.3870    3.1457 H   0  0  0  0  0  0  0  0  0  0  0  0
    8.6691   -1.3453    0.3721 H   0  0  0  0  0  0  0  0  0  0  0  0
  1  9  2  0  0  0  0
  1  2  1  0  0  0  0
  1 30  1  0  0  0  0
  2  3  1  0  0  0  0
  2  6  2  0  0  0  0
  3  4  1  0  0  0  0
  4  5  1  0  0  0  0
  4 31  1  0  0  0  0
  4 32  1  0  0  0  0
  5  6  1  0  0  0  0
  6  7  1  0  0  0  0
  7  8  2  0  0  0  0
  7 33  1  0  0  0  0
  8  9  1  0  0  0  0
  8 34  1  0  0  0  0
  9 10  1  0  0  0  0
 10 11  1  0  0  0  0
 10 35  1  0  0  0  0
 10 36  1  0  0  0  0
 11 13  1  0  0  0  0
 11 12  1  0  0  0  0
 12 16  1  0  0  0  0
 12 37  1  0  0  0  0
 12 38  1  0  0  0  0
 13 14  1  0  0  0  0
 13 39  1  0  0  0  0
 13 40  1  0  0  0  0
 14 15  1  0  0  0  0
 14 41  1  0  0  0  0
 14 42  1  0  0  0  0
 15 16  1  0  0  0  0
 15 43  1  0  0  0  0
 15 44  1  0  0  0  0
 16 17  1  0  0  0  0
 16 29  1  1  0  0  0
 17 18  1  0  0  0  0
 18 19  2  0  0  0  0
 18 21  1  0  0  0  0
 19 20  1  0  0  0  0
 19 45  1  0  0  0  0
 20 23  2  0  0  0  0
 20 46  1  0  0  0  0
 21 22  2  0  0  0  0
 21 47  1  0  0  0  0
 22 23  1  0  0  0  0
 22 48  1  0  0  0  0
 23 24  1  0  0  0  0
 24 25  1  0  0  0  0
 24 28  1  0  0  0  0
 25 26  2  0  0  0  0
 25 49  1  0  0  0  0
 26 27  1  0  0  0  0
 26 50  1  0  0  0  0
 27 28  2  0  0  0  0
 28 51  1  0  0  0  0
M  END
>  <DRUGBANK_ID>
DB07011

>  <COMMON_NAME>
(3S)-1-(1,3-BENZODIOXOL-5-YLMETHYL)-3-[4-(1H-IMIDAZOL-1-YL)PHENOXY]PIPERIDINE

$$$$
