
 OpenBabel10282417113D

 45 47  0  0  1  0  0  0  0  0999 V2000
    0.1785    0.7335   -0.6129 C   0  0  2  0  0  0  0  0  0  0  0  0
   -0.5551   -0.5165   -0.3979 N   0  0  0  0  0  0  0  0  0  0  0  0
    0.0301   -1.7355   -0.1579 C   0  0  0  0  0  0  0  0  0  0  0  0
    1.3810   -1.7773   -0.0052 C   0  0  0  0  0  0  0  0  0  0  0  0
    2.2831   -0.5507   -0.0837 C   0  0  0  0  0  0  0  0  0  0  0  0
    1.4829    0.9346    0.5728 S   0  0  0  0  0  0  0  0  0  0  0  0
   -1.1206    1.4566   -0.3988 C   0  0  1  0  0  0  0  0  0  0  0  0
   -1.6586    0.0784    0.1118 C   0  0  0  0  0  0  0  0  0  0  0  0
   -1.3842    2.7011    0.3109 N   0  0  0  0  0  0  0  0  0  0  0  0
   -2.1215    3.7940   -0.1817 C   0  0  0  0  0  0  0  0  0  0  0  0
   -2.1593    4.7689    0.5680 O   0  0  0  0  0  0  0  0  0  0  0  0
   -2.6138   -0.3219    0.7457 O   0  0  0  0  0  0  0  0  0  0  0  0
   -2.8334    3.8205   -1.6276 C   0  0  0  0  0  0  0  0  0  0  0  0
    2.1432   -3.0343    0.3294 C   0  0  0  0  0  0  0  0  0  0  0  0
   -0.8882   -2.9561   -0.1019 C   0  0  0  0  0  0  0  0  0  0  0  0
   -2.0936   -2.9613   -0.2792 O   0  0  0  0  0  0  0  0  0  0  0  0
   -0.2390   -4.1229    0.0590 O   0  0  0  0  0  0  0  0  0  0  0  0
   -2.9142    2.6014   -2.4356 C   0  0  0  0  0  0  0  0  0  0  0  0
    0.5030    0.8329   -1.6621 H   0  0  0  0  0  0  0  0  0  0  0  0
   -2.3174    2.5500   -3.6831 O   0  0  0  0  0  0  0  0  0  0  0  0
   -2.2734    1.2396   -4.0712 C   0  0  0  0  0  0  0  0  0  0  0  0
   -2.7922    0.4346   -3.0870 C   0  0  0  0  0  0  0  0  0  0  0  0
   -3.3499    1.3192   -2.1216 C   0  0  0  0  0  0  0  0  0  0  0  0
   -3.3953    4.8869   -2.1389 N   0  0  0  0  0  0  0  0  0  0  0  0
    1.7201   -3.6418    1.5708 O   0  0  0  0  0  0  0  0  0  0  0  0
    1.6415   -3.0400    2.7782 C   0  0  0  0  0  0  0  0  0  0  0  0
    2.2336   -1.8296    2.8962 N   0  0  0  0  0  0  0  0  0  0  0  0
    1.0919   -3.5653    3.7360 O   0  0  0  0  0  0  0  0  0  0  0  0
   -3.3817    5.9834   -1.2668 O   0  0  0  0  0  0  0  0  0  0  0  0
   -4.1103    7.0689   -1.8302 C   0  0  0  0  0  0  0  0  0  0  0  0
    2.6216   -0.3960   -1.1130 H   0  0  0  0  0  0  0  0  0  0  0  0
    3.1842   -0.6529    0.5187 H   0  0  0  0  0  0  0  0  0  0  0  0
   -1.2723    1.7080   -1.4221 H   0  0  0  0  0  0  0  0  0  0  0  0
   -1.0397    2.8565    1.2568 H   0  0  0  0  0  0  0  0  0  0  0  0
    1.9980   -3.7571   -0.4842 H   0  0  0  0  0  0  0  0  0  0  0  0
    3.2227   -2.8793    0.3805 H   0  0  0  0  0  0  0  0  0  0  0  0
   -0.8958   -4.8286    0.2310 H   0  0  0  0  0  0  0  0  0  0  0  0
   -1.8024    1.0309   -5.0248 H   0  0  0  0  0  0  0  0  0  0  0  0
   -2.7489   -0.6487   -3.0426 H   0  0  0  0  0  0  0  0  0  0  0  0
   -3.7808    1.0382   -1.1696 H   0  0  0  0  0  0  0  0  0  0  0  0
    2.2024   -1.3679    3.7925 H   0  0  0  0  0  0  0  0  0  0  0  0
    2.7264   -1.3724    2.1616 H   0  0  0  0  0  0  0  0  0  0  0  0
   -3.6334    7.4106   -2.7531 H   0  0  0  0  0  0  0  0  0  0  0  0
   -5.1528    6.7925   -2.0201 H   0  0  0  0  0  0  0  0  0  0  0  0
   -4.1020    7.8944   -1.1110 H   0  0  0  0  0  0  0  0  0  0  0  0
  1  2  1  0  0  0  0
  1  6  1  0  0  0  0
  1  7  1  0  0  0  0
  1 19  1  6  0  0  0
  2  3  1  0  0  0  0
  2  8  1  0  0  0  0
  3  4  2  0  0  0  0
  3 15  1  0  0  0  0
  4  5  1  0  0  0  0
  4 14  1  0  0  0  0
  5  6  1  0  0  0  0
  5 31  1  0  0  0  0
  5 32  1  0  0  0  0
  7  8  1  0  0  0  0
  7  9  1  0  0  0  0
  7 33  1  6  0  0  0
  8 12  2  0  0  0  0
  9 10  1  0  0  0  0
  9 34  1  0  0  0  0
 10 11  2  0  0  0  0
 10 13  1  0  0  0  0
 13 18  1  0  0  0  0
 13 24  2  0  0  0  0
 14 25  1  0  0  0  0
 14 35  1  0  0  0  0
 14 36  1  0  0  0  0
 15 16  2  0  0  0  0
 15 17  1  0  0  0  0
 17 37  1  0  0  0  0
 18 20  1  0  0  0  0
 18 23  2  0  0  0  0
 20 21  1  0  0  0  0
 21 22  2  0  0  0  0
 21 38  1  0  0  0  0
 22 23  1  0  0  0  0
 22 39  1  0  0  0  0
 23 40  1  0  0  0  0
 24 29  1  0  0  0  0
 25 26  1  0  0  0  0
 26 27  1  0  0  0  0
 26 28  2  0  0  0  0
 27 41  1  0  0  0  0
 27 42  1  0  0  0  0
 29 30  1  0  0  0  0
 30 43  1  0  0  0  0
 30 44  1  0  0  0  0
 30 45  1  0  0  0  0
M  END
>  <DRUGBANK_ID>
DB01112

>  <SECONDARY_ACCESSION_NUMBERS>
APRD00285

>  <COMMON_NAME>
Cefuroxime

>  <CAS_NUMBER>
55268-75-2

>  <UNII>
O1R9FJ93ED

>  <SYNONYMS>
(6R,7R)-3-[(carbamoyloxy)methyl]-7-{[(2Z)-2-furan-2-yl-2-(methoxyimino)acetyl]amino}-8-oxo-5-thia-1-azabicyclo[4.2.0]oct-2-ene-2-carboxylic acid; Cefuroxim; Cefuroxima; Cefuroxime; Cefuroximo; Cefuroximum; Cephuroxime

$$$$
