
 OpenBabel10282417113D

 80 85  0  0  0  0  0  0  0  0999 V2000
    0.0422    1.7318   -0.0119 C   0  0  0  0  0  0  0  0  0  0  0  0
    0.0199    9.7603   -0.9951 C   0  0  0  0  0  0  0  0  0  0  0  0
    1.2150    0.7831    0.0521 C   0  0  0  0  0  0  0  0  0  0  0  0
   -1.1648    0.7972    0.0904 C   0  0  0  0  0  0  0  0  0  0  0  0
   -1.2083   10.6717   -1.0892 C   0  0  0  0  0  0  0  0  0  0  0  0
    1.1748   10.7331   -1.0552 C   0  0  0  0  0  0  0  0  0  0  0  0
   -0.7807   12.0097   -1.0580 C   0  0  0  0  0  0  0  0  0  0  0  0
    0.7450   -0.5409    0.0184 C   0  0  0  0  0  0  0  0  0  0  0  0
   -0.7129   -0.5322    0.0296 C   0  0  0  0  0  0  0  0  0  0  0  0
    0.6765   12.0470   -1.0487 C   0  0  0  0  0  0  0  0  0  0  0  0
    0.0297    8.8578    0.2779 N   0  3  0  0  0  0  0  0  0  0  0  0
    0.0277    2.6233   -1.2951 N   0  3  0  0  0  0  0  0  0  0  0  0
   -2.5744   10.3614   -1.1472 C   0  0  0  0  0  0  0  0  0  0  0  0
    2.5760    1.0821    0.1342 C   0  0  0  0  0  0  0  0  0  0  0  0
   -2.5332    1.0848    0.1780 C   0  0  0  0  0  0  0  0  0  0  0  0
    2.5441   10.4644   -1.1049 C   0  0  0  0  0  0  0  0  0  0  0  0
    1.6452   -1.5777    0.0010 C   0  0  0  0  0  0  0  0  0  0  0  0
   -1.6228   -1.5692   -0.0034 C   0  0  0  0  0  0  0  0  0  0  0  0
    1.5546   13.1036   -1.0434 C   0  0  0  0  0  0  0  0  0  0  0  0
   -1.7099   13.0310   -1.0384 C   0  0  0  0  0  0  0  0  0  0  0  0
   -1.2182    3.5051   -1.2311 C   0  0  0  0  0  0  0  0  0  0  0  0
   -1.2101    7.9688    0.2264 C   0  0  0  0  0  0  0  0  0  0  0  0
    1.3562    3.3611   -1.4769 C   0  0  0  0  0  0  0  0  0  0  0  0
   -0.0808    1.7777   -2.5700 C   0  0  0  0  0  0  0  0  0  0  0  0
   -0.0619    9.6986    1.5563 C   0  0  0  0  0  0  0  0  0  0  0  0
    1.3610    8.1197    0.4312 C   0  0  0  0  0  0  0  0  0  0  0  0
   -1.2913    7.1510   -1.0688 C   0  0  0  0  0  0  0  0  0  0  0  0
   -1.2840    4.3330    0.0566 C   0  0  0  0  0  0  0  0  0  0  0  0
   -3.5059   11.3864   -1.0536 C   0  0  0  0  0  0  0  0  0  0  0  0
    3.4787    0.0377    0.0750 C   0  0  0  0  0  0  0  0  0  0  0  0
    3.4234   11.5288   -1.0485 C   0  0  0  0  0  0  0  0  0  0  0  0
   -3.4469    0.0443    0.0802 C   0  0  0  0  0  0  0  0  0  0  0  0
   -0.1512    5.3266    0.1270 C   0  0  0  0  0  0  0  0  0  0  0  0
   -0.1610    6.1553   -1.1603 C   0  0  0  0  0  0  0  0  0  0  0  0
   -2.9959   -1.2745   -0.0028 C   0  0  0  0  0  0  0  0  0  0  0  0
   -3.0777   12.7136   -1.0139 C   0  0  0  0  0  0  0  0  0  0  0  0
    3.0195   -1.2835    0.0116 C   0  0  0  0  0  0  0  0  0  0  0  0
    2.9350   12.8400   -1.0285 C   0  0  0  0  0  0  0  0  0  0  0  0
    0.1087    2.3740    0.8722 H   0  0  0  0  0  0  0  0  0  0  0  0
    0.0952    9.1264   -1.8852 H   0  0  0  0  0  0  0  0  0  0  0  0
   -2.9665    9.3547   -1.2342 H   0  0  0  0  0  0  0  0  0  0  0  0
    2.9562    2.0933    0.2250 H   0  0  0  0  0  0  0  0  0  0  0  0
   -2.9354    2.0851    0.2914 H   0  0  0  0  0  0  0  0  0  0  0  0
    2.9521    9.4622   -1.1674 H   0  0  0  0  0  0  0  0  0  0  0  0
    1.3161   -2.6121   -0.0176 H   0  0  0  0  0  0  0  0  0  0  0  0
   -1.2992   -2.6043   -0.0354 H   0  0  0  0  0  0  0  0  0  0  0  0
    1.2031   14.1306   -1.0506 H   0  0  0  0  0  0  0  0  0  0  0  0
   -1.4049   14.0722   -1.0336 H   0  0  0  0  0  0  0  0  0  0  0  0
   -1.2651    4.0902   -2.1496 H   0  0  0  0  0  0  0  0  0  0  0  0
   -2.1079    2.8909   -1.3429 H   0  0  0  0  0  0  0  0  0  0  0  0
   -2.1012    8.5747    0.3644 H   0  0  0  0  0  0  0  0  0  0  0  0
   -1.2389    7.3775    1.1411 H   0  0  0  0  0  0  0  0  0  0  0  0
    2.1163    2.6820   -1.8653 H   0  0  0  0  0  0  0  0  0  0  0  0
    1.2363    4.1702   -2.1975 H   0  0  0  0  0  0  0  0  0  0  0  0
    1.7288    3.7101   -0.5195 H   0  0  0  0  0  0  0  0  0  0  0  0
    0.7980    1.1321   -2.6351 H   0  0  0  0  0  0  0  0  0  0  0  0
   -1.0043    1.2019   -2.5526 H   0  0  0  0  0  0  0  0  0  0  0  0
   -0.0851    2.4744   -3.4170 H   0  0  0  0  0  0  0  0  0  0  0  0
   -0.0540    9.0001    2.4011 H   0  0  0  0  0  0  0  0  0  0  0  0
    0.8171   10.3450    1.6108 H   0  0  0  0  0  0  0  0  0  0  0  0
   -0.9850   10.2754    1.5508 H   0  0  0  0  0  0  0  0  0  0  0  0
    1.2517    7.2996    1.1406 H   0  0  0  0  0  0  0  0  0  0  0  0
    1.7216    7.7879   -0.5376 H   0  0  0  0  0  0  0  0  0  0  0  0
    2.1239    8.7910    0.8266 H   0  0  0  0  0  0  0  0  0  0  0  0
   -1.3162    7.7472   -1.9848 H   0  0  0  0  0  0  0  0  0  0  0  0
   -2.2473    6.6147   -1.0997 H   0  0  0  0  0  0  0  0  0  0  0  0
   -2.2390    4.8703    0.0942 H   0  0  0  0  0  0  0  0  0  0  0  0
   -1.3000    3.7438    0.9772 H   0  0  0  0  0  0  0  0  0  0  0  0
   -4.5722   11.1559   -1.0202 H   0  0  0  0  0  0  0  0  0  0  0  0
    4.5494    0.2438    0.0857 H   0  0  0  0  0  0  0  0  0  0  0  0
    4.4980   11.3451   -1.0289 H   0  0  0  0  0  0  0  0  0  0  0  0
   -4.5178    0.2548    0.0755 H   0  0  0  0  0  0  0  0  0  0  0  0
   -0.2785    5.8833    1.0511 H   0  0  0  0  0  0  0  0  0  0  0  0
    0.8245    4.9170    0.3523 H   0  0  0  0  0  0  0  0  0  0  0  0
    0.8111    6.5672   -1.3991 H   0  0  0  0  0  0  0  0  0  0  0  0
   -0.3037    5.5962   -2.0815 H   0  0  0  0  0  0  0  0  0  0  0  0
   -3.7236   -2.0809   -0.0477 H   0  0  0  0  0  0  0  0  0  0  0  0
   -3.8193   13.5078   -0.9818 H   0  0  0  0  0  0  0  0  0  0  0  0
    3.7432   -2.0921   -0.0095 H   0  0  0  0  0  0  0  0  0  0  0  0
    3.6409   13.6646   -1.0191 H   0  0  0  0  0  0  0  0  0  0  0  0
  1 39  1  0  0  0  0
  2 11  1  0  0  0  0
  2 40  1  0  0  0  0
  3  1  1  0  0  0  0
  4  1  1  0  0  0  0
  5  2  1  0  0  0  0
  6  2  1  0  0  0  0
  7  5  2  0  0  0  0
  8  3  2  0  0  0  0
  8  9  1  0  0  0  0
  9  4  2  0  0  0  0
 10  6  2  0  0  0  0
 10  7  1  0  0  0  0
 11 22  1  0  0  0  0
 12  1  1  0  0  0  0
 13  5  1  0  0  0  0
 13 41  1  0  0  0  0
 14  3  1  0  0  0  0
 14 42  1  0  0  0  0
 15  4  1  0  0  0  0
 15 43  1  0  0  0  0
 16  6  1  0  0  0  0
 16 44  1  0  0  0  0
 17  8  1  0  0  0  0
 17 45  1  0  0  0  0
 18  9  1  0  0  0  0
 18 35  2  0  0  0  0
 18 46  1  0  0  0  0
 19 10  1  0  0  0  0
 19 47  1  0  0  0  0
 20  7  1  0  0  0  0
 20 48  1  0  0  0  0
 21 12  1  0  0  0  0
 21 49  1  0  0  0  0
 21 50  1  0  0  0  0
 22 27  1  0  0  0  0
 22 51  1  0  0  0  0
 22 52  1  0  0  0  0
 23 12  1  0  0  0  0
 23 53  1  0  0  0  0
 23 54  1  0  0  0  0
 23 55  1  0  0  0  0
 24 12  1  0  0  0  0
 24 56  1  0  0  0  0
 24 57  1  0  0  0  0
 24 58  1  0  0  0  0
 25 11  1  0  0  0  0
 25 59  1  0  0  0  0
 25 60  1  0  0  0  0
 25 61  1  0  0  0  0
 26 11  1  0  0  0  0
 26 62  1  0  0  0  0
 26 63  1  0  0  0  0
 26 64  1  0  0  0  0
 27 34  1  0  0  0  0
 27 65  1  0  0  0  0
 27 66  1  0  0  0  0
 28 21  1  0  0  0  0
 28 67  1  0  0  0  0
 28 68  1  0  0  0  0
 29 13  2  0  0  0  0
 29 69  1  0  0  0  0
 30 14  2  0  0  0  0
 30 70  1  0  0  0  0
 31 16  2  0  0  0  0
 31 71  1  0  0  0  0
 32 15  2  0  0  0  0
 32 72  1  0  0  0  0
 33 28  1  0  0  0  0
 33 73  1  0  0  0  0
 33 74  1  0  0  0  0
 34 33  1  0  0  0  0
 34 75  1  0  0  0  0
 34 76  1  0  0  0  0
 35 32  1  0  0  0  0
 35 77  1  0  0  0  0
 36 29  1  0  0  0  0
 36 20  2  0  0  0  0
 36 78  1  0  0  0  0
 37 30  1  0  0  0  0
 37 17  2  0  0  0  0
 37 79  1  0  0  0  0
 38 31  1  0  0  0  0
 38 19  2  0  0  0  0
 38 80  1  0  0  0  0
M  CHG  2  11   1  12   1
M  END
>  <DRUGBANK_ID>
DB00941

>  <SECONDARY_ACCESSION_NUMBERS>
APRD01013

>  <COMMON_NAME>
Hexafluronium

>  <CAS_NUMBER>
4844-10-4

>  <UNII>
55W5L6G81R

>  <SYNONYMS>
Hexafluorenium; Hexafluorenium cation; Hexafluorenium ion; Hexamethylenebis(fluoren-9-yldimethylammonium)

$$$$
