
 OpenBabel10282417163D

 22 23  0  0  0  0  0  0  0  0999 V2000
    1.4177   -0.2262    0.0385 C   0  0  0  0  0  0  0  0  0  0  0  0
    0.5246   -1.3049    0.0038 C   0  0  0  0  0  0  0  0  0  0  0  0
    0.9004    1.0769    0.0153 C   0  0  0  0  0  0  0  0  0  0  0  0
   -0.8573   -1.0881   -0.0185 C   0  0  0  0  0  0  0  0  0  0  0  0
   -0.4827    1.2929    0.0348 C   0  0  0  0  0  0  0  0  0  0  0  0
   -1.3605    0.2110   -0.0013 C   0  0  0  0  0  0  0  0  0  0  0  0
    2.8554   -0.4751    0.1526 C   0  0  0  0  0  0  0  0  0  0  0  0
    6.0206   -1.9077   -0.7614 C   0  0  0  0  0  0  0  0  0  0  0  0
    4.8954   -0.4723    1.0580 C   0  0  0  0  0  0  0  0  0  0  0  0
    4.8968   -1.2093   -0.1141 C   0  0  0  0  0  0  0  0  0  0  0  0
    3.6108   -0.0110    1.2041 N   0  0  0  0  0  0  0  0  0  0  0  0
    3.6070   -1.2148   -0.6377 N   0  0  0  0  0  0  0  0  0  0  0  0
    7.2249   -1.8236   -0.1262 O   0  0  0  0  0  0  0  0  0  0  0  0
    5.9214   -2.5341   -1.8119 O   0  0  0  0  0  0  0  0  0  0  0  0
    0.9054   -2.3242    0.0006 H   0  0  0  0  0  0  0  0  0  0  0  0
    1.5653    1.9353   -0.0398 H   0  0  0  0  0  0  0  0  0  0  0  0
   -1.5395   -1.9345   -0.0392 H   0  0  0  0  0  0  0  0  0  0  0  0
   -0.8779    2.3051    0.0780 H   0  0  0  0  0  0  0  0  0  0  0  0
   -2.4348    0.3799   -0.0288 H   0  0  0  0  0  0  0  0  0  0  0  0
    5.6562   -0.2331    1.7860 H   0  0  0  0  0  0  0  0  0  0  0  0
    3.2517    0.5395    1.9722 H   0  0  0  0  0  0  0  0  0  0  0  0
    7.2067   -1.3075    0.6963 H   0  0  0  0  0  0  0  0  0  0  0  0
  1  2  2  0  0  0  0
  1  3  1  0  0  0  0
  1  7  1  0  0  0  0
  2  4  1  0  0  0  0
  2 15  1  0  0  0  0
  3  5  2  0  0  0  0
  3 16  1  0  0  0  0
  4  6  2  0  0  0  0
  4 17  1  0  0  0  0
  5  6  1  0  0  0  0
  5 18  1  0  0  0  0
  6 19  1  0  0  0  0
  7 12  2  0  0  0  0
  7 11  1  0  0  0  0
  8 10  1  0  0  0  0
  8 13  1  0  0  0  0
  8 14  2  0  0  0  0
  9 10  2  0  0  0  0
  9 11  1  0  0  0  0
  9 20  1  0  0  0  0
 10 12  1  0  0  0  0
 11 21  1  0  0  0  0
 13 22  1  0  0  0  0
M  END
>  <DRUGBANK_ID>
DB07803

>  <COMMON_NAME>
2-phenyl-1H-imidazole-4-carboxylic acid

>  <CAS_NUMBER>
77498-98-7

>  <UNII>
HGH57KDY8T

$$$$
