D15
 OpenBabel10282417163D

 54 57  0  0  0  0  0  0  0  0999 V2000
    3.6866    1.6190    2.1461 C   0  0  0  0  0  0  0  0  0  0  0  0
    4.5326    1.7616    3.2439 C   0  0  0  0  0  0  0  0  0  0  0  0
    4.9632    0.4284    4.2298 Cl  0  0  0  0  0  0  0  0  0  0  0  0
    4.9664    3.0127    3.6195 C   0  0  0  0  0  0  0  0  0  0  0  0
    4.4871    4.1232    2.9351 C   0  0  0  0  0  0  0  0  0  0  0  0
    3.6688    3.9730    1.8060 C   0  0  0  0  0  0  0  0  0  0  0  0
    3.2920    2.7017    1.3556 C   0  0  0  0  0  0  0  0  0  0  0  0
    2.5425    2.5348    0.0322 C   0  0  2  0  0  0  0  0  0  0  0  0
    1.4222    1.4759   -0.0570 C   0  0  0  0  0  0  0  0  0  0  0  0
    0.9577    1.1849   -1.5174 C   0  0  0  0  0  0  0  0  0  0  0  0
    1.8355    0.4417   -2.4264 N   0  0  0  0  0  0  0  0  0  0  0  0
    3.5015    2.5318   -1.1783 C   0  0  0  0  0  0  0  0  0  0  0  0
    3.4182    3.4370   -2.0199 O   0  0  0  0  0  0  0  0  0  0  0  0
    4.4270    1.5294   -1.4072 N   0  0  0  0  0  0  0  0  0  0  0  0
    4.6762    0.3811   -0.6280 C   0  0  0  0  0  0  0  0  0  0  0  0
    5.9442    0.1677   -0.0992 C   0  0  0  0  0  0  0  0  0  0  0  0
    6.0390   -0.7751    0.9494 C   0  0  0  0  0  0  0  0  0  0  0  0
    3.6521   -0.5110   -0.2985 C   0  0  0  0  0  0  0  0  0  0  0  0
    3.6946   -1.4228    0.7369 C   0  0  0  0  0  0  0  0  0  0  0  0
    4.9142   -1.4990    1.3447 C   0  0  0  0  0  0  0  0  0  0  0  0
    5.2651   -2.1914    2.4529 N   0  0  0  0  0  0  0  0  0  0  0  0
    6.5058   -1.9460    2.8278 N   0  0  0  0  0  0  0  0  0  0  0  0
    7.0375   -1.2162    1.8494 C   0  0  0  0  0  0  0  0  0  0  0  0
    8.3808   -0.9301    1.7704 N   0  0  0  0  0  0  0  0  0  0  0  0
    9.3889   -1.4793    2.5276 C   0  0  0  0  0  0  0  0  0  0  0  0
   10.5470   -1.0469    2.3958 O   0  0  0  0  0  0  0  0  0  0  0  0
    9.1654   -2.6276    3.4486 C   0  0  0  0  0  0  0  0  0  0  0  0
    8.3894   -3.7268    3.0474 C   0  0  0  0  0  0  0  0  0  0  0  0
    8.0923   -4.7582    3.9291 C   0  0  0  0  0  0  0  0  0  0  0  0
    8.7428   -4.8053    5.1528 C   0  0  0  0  0  0  0  0  0  0  0  0
    9.6289   -3.7854    5.5130 C   0  0  0  0  0  0  0  0  0  0  0  0
    9.7895   -2.6609    4.6962 C   0  0  0  0  0  0  0  0  0  0  0  0
    1.9750    3.4748   -0.0751 H   0  0  0  0  0  0  0  0  0  0  0  0
    3.3324    0.6342    1.9122 H   0  0  0  0  0  0  0  0  0  0  0  0
    5.6237    3.1131    4.4767 H   0  0  0  0  0  0  0  0  0  0  0  0
    4.7459    5.1120    3.2977 H   0  0  0  0  0  0  0  0  0  0  0  0
    3.3199    4.8648    1.2890 H   0  0  0  0  0  0  0  0  0  0  0  0
    1.6242    0.5653    0.5136 H   0  0  0  0  0  0  0  0  0  0  0  0
    0.5590    1.8673    0.5001 H   0  0  0  0  0  0  0  0  0  0  0  0
    0.0366    0.6015   -1.4552 H   0  0  0  0  0  0  0  0  0  0  0  0
    0.7373    2.1431   -1.9884 H   0  0  0  0  0  0  0  0  0  0  0  0
    1.5024    0.4496   -3.3862 H   0  0  0  0  0  0  0  0  0  0  0  0
    2.7796    0.8325   -2.4758 H   0  0  0  0  0  0  0  0  0  0  0  0
    5.1177    1.7957   -2.1012 H   0  0  0  0  0  0  0  0  0  0  0  0
    6.7812    0.8117   -0.3479 H   0  0  0  0  0  0  0  0  0  0  0  0
    2.6946   -0.4976   -0.7697 H   0  0  0  0  0  0  0  0  0  0  0  0
    2.7904   -1.8819    1.1249 H   0  0  0  0  0  0  0  0  0  0  0  0
    4.6795   -2.7743    3.0407 H   0  0  0  0  0  0  0  0  0  0  0  0
    8.6757   -0.2695    1.0670 H   0  0  0  0  0  0  0  0  0  0  0  0
    7.9163   -3.7324    2.0697 H   0  0  0  0  0  0  0  0  0  0  0  0
    7.3683   -5.5145    3.6422 H   0  0  0  0  0  0  0  0  0  0  0  0
    8.5716   -5.6473    5.8164 H   0  0  0  0  0  0  0  0  0  0  0  0
   10.2007   -3.8735    6.4320 H   0  0  0  0  0  0  0  0  0  0  0  0
   10.4086   -1.8299    5.0260 H   0  0  0  0  0  0  0  0  0  0  0  0
  1  2  1  0  0  0  0
  1  7  2  0  0  0  0
  1 34  1  0  0  0  0
  2  3  1  0  0  0  0
  2  4  2  0  0  0  0
  4  5  1  0  0  0  0
  4 35  1  0  0  0  0
  5  6  2  0  0  0  0
  5 36  1  0  0  0  0
  6  7  1  0  0  0  0
  6 37  1  0  0  0  0
  8 12  1  0  0  0  0
  8 33  1  6  0  0  0
  8  9  1  0  0  0  0
  8  7  1  0  0  0  0
  9 10  1  0  0  0  0
  9 38  1  0  0  0  0
  9 39  1  0  0  0  0
 10 11  1  0  0  0  0
 10 40  1  0  0  0  0
 10 41  1  0  0  0  0
 11 42  1  0  0  0  0
 11 43  1  0  0  0  0
 12 13  2  0  0  0  0
 12 14  1  0  0  0  0
 14 15  1  0  0  0  0
 14 44  1  0  0  0  0
 15 16  1  0  0  0  0
 15 18  2  0  0  0  0
 16 17  2  0  0  0  0
 16 45  1  0  0  0  0
 17 20  1  0  0  0  0
 17 23  1  0  0  0  0
 18 19  1  0  0  0  0
 18 46  1  0  0  0  0
 19 20  2  0  0  0  0
 19 47  1  0  0  0  0
 20 21  1  0  0  0  0
 21 22  1  0  0  0  0
 21 48  1  0  0  0  0
 22 23  2  0  0  0  0
 23 24  1  0  0  0  0
 24 25  1  0  0  0  0
 24 49  1  0  0  0  0
 25 26  2  0  0  0  0
 25 27  1  0  0  0  0
 27 28  1  0  0  0  0
 27 32  2  0  0  0  0
 28 29  2  0  0  0  0
 28 50  1  0  0  0  0
 29 30  1  0  0  0  0
 29 51  1  0  0  0  0
 30 31  2  0  0  0  0
 30 52  1  0  0  0  0
 31 32  1  0  0  0  0
 31 53  1  0  0  0  0
 32 54  1  0  0  0  0
M  END
>  <DRUGBANK_ID>
DB07608

>  <COMMON_NAME>
N-(5-{[(2S)-4-amino-2-(3-chlorophenyl)butanoyl]amino}-1H-indazol-3-yl)benzamide

$$$$
