
 OpenBabel10282417143D

 85 86  0  0  1  0  0  0  0  0999 V2000
   -1.0665   -5.8425    3.6988 C   0  0  0  0  0  0  0  0  0  0  0  0
    0.6584    1.1399   -1.0932 C   0  0  0  0  0  0  0  0  0  0  0  0
    0.6251   -0.0716   -4.3303 C   0  0  0  0  0  0  0  0  0  0  0  0
   -0.3857   -0.6860    0.4986 C   0  0  0  0  0  0  0  0  0  0  0  0
    1.1654   -2.1890    3.1110 C   0  0  0  0  0  0  0  0  0  0  0  0
   -1.2076   -5.7448   -0.3954 C   0  0  0  0  0  0  0  0  0  0  0  0
   -1.1006   -0.6224    3.5905 C   0  0  0  0  0  0  0  0  0  0  0  0
   -0.8368   -5.5989    2.4280 C   0  0  0  0  0  0  0  0  0  0  0  0
   -0.8842   -2.6391   -2.9969 C   0  0  0  0  0  0  0  0  0  0  0  0
   -1.0460   -0.6546   -2.5706 C   0  0  0  0  0  0  0  0  0  0  0  0
   -0.2944   -4.0491   -2.1149 C   0  0  0  0  0  0  0  0  0  0  0  0
   -1.5755   -4.3767    1.7490 C   0  0  0  0  0  0  0  0  0  0  0  0
    2.3502   -2.0706   -0.4425 C   0  0  0  0  0  0  0  0  0  0  0  0
    1.3110    0.6460    1.3339 C   0  0  0  0  0  0  0  0  0  0  0  0
   -1.3133   -2.1485    1.8177 C   0  0  0  0  0  0  0  0  0  0  0  0
    0.7993   -1.3759   -2.1821 C   0  0  0  0  0  0  0  0  0  0  0  0
    1.8349   -0.1009   -0.1529 C   0  0  2  0  0  0  0  0  0  0  0  0
   -0.7416    0.0709   -3.6804 C   0  0  0  0  0  0  0  0  0  0  0  0
   -1.6894   -0.9566    0.8291 C   0  0  1  0  0  0  0  0  0  0  0  0
    0.1336   -2.8270    2.3572 C   0  0  0  0  0  0  0  0  0  0  0  0
    1.3936   -2.8646   -0.9760 C   0  0  0  0  0  0  0  0  0  0  0  0
    1.8956   -1.5669   -2.8913 C   0  0  0  0  0  0  0  0  0  0  0  0
   -0.6109   -2.1719   -1.1025 C   0  0  0  0  0  0  0  0  0  0  0  0
    0.8665   -4.7064   -0.5883 C   0  0  1  0  0  0  0  0  0  0  0  0
   -0.3222    0.9762    2.0186 C   0  0  1  0  0  0  0  0  0  0  0  0
    0.1291   -2.8682   -0.2355 C   0  0  0  0  0  0  0  0  0  0  0  0
   -1.7201    0.5136    1.1765 C   0  0  2  0  0  0  0  0  0  0  0  0
    2.2596   -2.8046   -2.4086 C   0  0  0  0  0  0  0  0  0  0  0  0
    1.6112   -3.5349    1.1936 C   0  0  1  0  0  0  0  0  0  0  0  0
    0.6251   -0.0716   -4.3303 C   0  0  0  0  0  0  0  0  0  0  0  0
    4.0882   -1.2784    0.3205 C   0  0  0  0  0  0  0  0  0  0  0  0
    4.3944   -1.5135   -0.9597 N   0  0  0  0  0  0  0  0  0  0  0  0
   -0.4962   -3.8704    0.7866 N   0  0  0  0  0  0  0  0  0  0  0  0
    2.0701   -0.9497   -4.0438 N   0  0  0  0  0  0  0  0  0  0  0  0
   -1.8478   -2.3323   -1.1407 O   0  0  0  0  0  0  0  0  0  0  0  0
   -3.0134    0.6328    1.7139 O   0  0  0  0  0  0  0  0  0  0  0  0
    3.2618   -3.4229   -2.7162 O   0  0  0  0  0  0  0  0  0  0  0  0
    1.1728    0.8051   -5.8170 O   0  0  0  0  0  0  0  0  0  0  0  0
    4.1740    0.0547    0.4860 O   0  0  0  0  0  0  0  0  0  0  0  0
    0.1958   -5.9690   -0.6196 O   0  0  0  0  0  0  0  0  0  0  0  0
   -0.3112    0.5165    3.4548 O   0  0  0  0  0  0  0  0  0  0  0  0
    3.0190   -2.2307    1.3392 O   0  0  0  0  0  0  0  0  0  0  0  0
    0.1577   -2.8008   -3.0258 H   0  0  0  0  0  0  0  0  0  0  0  0
   -2.0861   -0.5087   -2.2270 H   0  0  0  0  0  0  0  0  0  0  0  0
    0.6450   -4.3608   -2.5441 H   0  0  0  0  0  0  0  0  0  0  0  0
   -2.3736   -2.3377    2.1577 H   0  0  0  0  0  0  0  0  0  0  0  0
    2.5837    0.5099   -0.5876 H   0  0  0  0  0  0  0  0  0  0  0  0
   -2.4780   -1.0726    0.0670 H   0  0  0  0  0  0  0  0  0  0  0  0
    1.8040   -4.8776   -1.0950 H   0  0  0  0  0  0  0  0  0  0  0  0
   -0.4612    2.0204    2.1565 H   0  0  0  0  0  0  0  0  0  0  0  0
   -1.7351    1.1297    0.2610 H   0  0  0  0  0  0  0  0  0  0  0  0
    2.2333   -4.2363    1.7219 H   0  0  0  0  0  0  0  0  0  0  0  0
   -1.6929   -5.1180    4.1933 H   0  0  0  0  0  0  0  0  0  0  0  0
   -0.7227   -6.7861    4.0725 H   0  0  0  0  0  0  0  0  0  0  0  0
    0.2745    2.1371   -0.9296 H   0  0  0  0  0  0  0  0  0  0  0  0
    0.8418    1.0628   -2.1283 H   0  0  0  0  0  0  0  0  0  0  0  0
   -0.4510    0.9496   -1.1288 H   0  0  0  0  0  0  0  0  0  0  0  0
    1.6365    0.8230   -3.5770 H   0  0  0  0  0  0  0  0  0  0  0  0
    0.5029   -1.3955   -5.1193 H   0  0  0  0  0  0  0  0  0  0  0  0
   -0.3687    0.9252   -4.9953 H   0  0  0  0  0  0  0  0  0  0  0  0
    0.2697   -1.2361    1.0387 H   0  0  0  0  0  0  0  0  0  0  0  0
    0.3219   -1.0717   -0.1112 H   0  0  0  0  0  0  0  0  0  0  0  0
   -0.3115   -0.2235   -0.3651 H   0  0  0  0  0  0  0  0  0  0  0  0
    1.6668   -1.9558    2.2310 H   0  0  0  0  0  0  0  0  0  0  0  0
    0.8739   -1.4234    2.5111 H   0  0  0  0  0  0  0  0  0  0  0  0
    1.9571   -2.9108    3.2564 H   0  0  0  0  0  0  0  0  0  0  0  0
   -0.7251   -5.5723    0.4885 H   0  0  0  0  0  0  0  0  0  0  0  0
   -1.7468   -4.7563   -0.6073 H   0  0  0  0  0  0  0  0  0  0  0  0
   -1.8307   -6.3333    0.2772 H   0  0  0  0  0  0  0  0  0  0  0  0
   -2.0947   -0.6125    3.1721 H   0  0  0  0  0  0  0  0  0  0  0  0
   -0.5376   -0.8807    2.7705 H   0  0  0  0  0  0  0  0  0  0  0  0
   -1.0066   -1.6023    4.1217 H   0  0  0  0  0  0  0  0  0  0  0  0
   -0.0413   -6.2114    1.9372 H   0  0  0  0  0  0  0  0  0  0  0  0
   -2.4228   -4.2740    1.1024 H   0  0  0  0  0  0  0  0  0  0  0  0
   -1.9048   -3.8812    2.6840 H   0  0  0  0  0  0  0  0  0  0  0  0
    2.6973   -3.3772   -0.1522 H   0  0  0  0  0  0  0  0  0  0  0  0
    3.5034   -2.8953   -0.1163 H   0  0  0  0  0  0  0  0  0  0  0  0
    2.0576    0.9863    2.0267 H   0  0  0  0  0  0  0  0  0  0  0  0
    1.4580   -0.2811    1.7335 H   0  0  0  0  0  0  0  0  0  0  0  0
    0.7864   -0.4780   -1.7926 H   0  0  0  0  0  0  0  0  0  0  0  0
    4.1214   -2.4477   -1.4105 H   0  0  0  0  0  0  0  0  0  0  0  0
    0.1614   -4.3241    1.4253 H   0  0  0  0  0  0  0  0  0  0  0  0
   -3.3386   -0.2929    1.7834 H   0  0  0  0  0  0  0  0  0  0  0  0
    0.5231    1.4293   -6.1918 H   0  0  0  0  0  0  0  0  0  0  0  0
    4.2624    0.3420   -0.4764 H   0  0  0  0  0  0  0  0  0  0  0  0
  1 53  1  0  0  0  0
  1 54  1  0  0  0  0
  2 55  1  0  0  0  0
  2 56  1  0  0  0  0
  2 57  1  0  0  0  0
  3 58  1  0  0  0  0
  3 59  1  0  0  0  0
  3 60  1  0  0  0  0
  4 61  1  0  0  0  0
  4 62  1  0  0  0  0
  4 63  1  0  0  0  0
  5 64  1  0  0  0  0
  5 65  1  0  0  0  0
  5 66  1  0  0  0  0
  6 67  1  0  0  0  0
  6 68  1  0  0  0  0
  6 69  1  0  0  0  0
  7 70  1  0  0  0  0
  7 71  1  0  0  0  0
  7 72  1  0  0  0  0
  8  1  2  0  0  0  0
  8 73  1  0  0  0  0
 10  9  1  0  0  0  0
 11  9  2  0  0  0  0
 12  8  1  0  0  0  0
 12 74  1  0  0  0  0
 12 75  1  0  0  0  0
 13 76  1  0  0  0  0
 13 77  1  0  0  0  0
 14 78  1  0  0  0  0
 14 79  1  0  0  0  0
 16 80  1  0  0  0  0
 17 13  1  0  0  0  0
 17 14  1  0  0  0  0
 17 47  1  6  0  0  0
 17  2  1  0  0  0  0
 18  3  1  0  0  0  0
 18 10  2  0  0  0  0
 19 15  1  0  0  0  0
 19 48  1  6  0  0  0
 19  4  1  0  0  0  0
 20  5  1  0  0  0  0
 20 15  2  0  0  0  0
 21 13  1  0  0  0  0
 22 16  2  0  0  0  0
 23 16  1  0  0  0  0
 24 11  1  0  0  0  0
 24 40  1  0  0  0  0
 24 49  1  6  0  0  0
 25 14  1  0  0  0  0
 25 50  1  1  0  0  0
 25 41  1  0  0  0  0
 26 21  2  0  0  0  0
 26 23  1  0  0  0  0
 27 19  1  0  0  0  0
 27 25  1  0  0  0  0
 27 51  1  6  0  0  0
 27 36  1  0  0  0  0
 28 21  1  0  0  0  0
 28 22  1  0  0  0  0
 29 20  1  0  0  0  0
 29 24  1  0  0  0  0
 29 52  1  1  0  0  0
 29 42  1  0  0  0  0
 30 18  1  0  0  0  0
 32 31  2  0  0  0  0
 32 81  1  0  0  0  0
 33 12  1  0  0  0  0
 33 26  1  0  0  0  0
 33 82  1  0  0  0  0
 34 22  1  0  0  0  0
 34 30  2  3  0  0  0
 35 23  2  0  0  0  0
 36 83  1  0  0  0  0
 37 28  2  0  0  0  0
 38 30  1  0  0  0  0
 38 84  1  0  0  0  0
 39 31  1  0  0  0  0
 39 85  1  0  0  0  0
 40  6  1  0  0  0  0
 41  7  1  0  0  0  0
 42 31  1  0  0  0  0
 43  9  1  0  0  0  0
 44 10  1  0  0  0  0
 45 11  1  0  0  0  0
 46 15  1  0  0  0  0
M  END
>  <DRUGBANK_ID>
DB05134

>  <SECONDARY_ACCESSION_NUMBERS>
DB06398

>  <COMMON_NAME>
Tanespimycin

>  <CAS_NUMBER>
75747-14-7

>  <UNII>
4GY0AVT3L4

>  <SYNONYMS>
17-allylamino-17-demethoxygeldanamycin; 17-allylamino-17-demethoxygeldanamycin (17-AGG); 17AAG; Tanespimycin; tanespimycina

$$$$
