
 OpenBabel10282417203D

 22 22  0  0  0  0  0  0  0  0999 V2000
    0.2248   -1.2401    0.0154 C   0  0  0  0  0  0  0  0  0  0  0  0
    0.9582   -0.0551    0.0073 C   0  0  0  0  0  0  0  0  0  0  0  0
    0.3239    1.1699   -0.0638 C   0  0  0  0  0  0  0  0  0  0  0  0
   -1.0619    1.2157   -0.1588 C   0  0  0  0  0  0  0  0  0  0  0  0
   -1.8383    0.0447   -0.0820 C   0  0  0  0  0  0  0  0  0  0  0  0
   -1.1746   -1.1873   -0.0130 C   0  0  0  0  0  0  0  0  0  0  0  0
    2.3203   -0.0477    0.0498 O   0  0  0  0  0  0  0  0  0  0  0  0
   -3.5236    2.2630    1.3178 N   0  0  0  0  0  0  0  0  0  0  0  0
   -3.9228    0.8470    1.1964 C   0  0  0  0  0  0  0  0  0  0  0  0
   -3.3535    0.1171   -0.0562 C   0  0  3  0  0  0  0  0  0  0  0  0
   -3.8063    0.7584   -1.2484 O   0  0  0  0  0  0  0  0  0  0  0  0
    0.7186   -2.2045    0.0497 H   0  0  0  0  0  0  0  0  0  0  0  0
    0.8976    2.0926   -0.0604 H   0  0  0  0  0  0  0  0  0  0  0  0
   -1.5293    2.1878   -0.2828 H   0  0  0  0  0  0  0  0  0  0  0  0
   -1.7402   -2.1177    0.0088 H   0  0  0  0  0  0  0  0  0  0  0  0
    2.6376   -0.9606   -0.0197 H   0  0  0  0  0  0  0  0  0  0  0  0
   -3.9658    2.6647    2.1442 H   0  0  0  0  0  0  0  0  0  0  0  0
   -2.5257    2.2870    1.5394 H   0  0  0  0  0  0  0  0  0  0  0  0
   -5.0172    0.8306    1.1468 H   0  0  0  0  0  0  0  0  0  0  0  0
   -3.6161    0.3180    2.1057 H   0  0  0  0  0  0  0  0  0  0  0  0
   -3.7736   -0.8967   -0.0720 H   0  0  0  0  0  0  0  0  0  0  0  0
   -3.6043    1.7033   -1.1209 H   0  0  0  0  0  0  0  0  0  0  0  0
  1  2  2  0  0  0  0
  1  6  1  0  0  0  0
  1 12  1  0  0  0  0
  2  3  1  0  0  0  0
  2  7  1  0  0  0  0
  3  4  2  0  0  0  0
  3 13  1  0  0  0  0
  4  5  1  0  0  0  0
  4 14  1  0  0  0  0
  5  6  2  0  0  0  0
  5 10  1  0  0  0  0
  6 15  1  0  0  0  0
  7 16  1  0  0  0  0
  8  9  1  0  0  0  0
  8 17  1  0  0  0  0
  8 18  1  0  0  0  0
  9 10  1  0  0  0  0
  9 19  1  0  0  0  0
  9 20  1  0  0  0  0
 10 11  1  0  0  0  0
 10 21  1  0  0  0  0
 11 22  1  0  0  0  0
M  END
>  <DRUGBANK_ID>
DB13251

>  <COMMON_NAME>
Octopamine

>  <CAS_NUMBER>
104-14-3

>  <UNII>
14O50WS8JD

>  <SYNONYMS>
Octopamine

$$$$
