713
 OpenBabel10282417103D

 47 50  0  0  1  0  0  0  0  0999 V2000
    1.0045   -1.1131   -0.5485 S   0  0  0  0  0  0  0  0  0  0  0  0
   -2.6633    1.0750   -0.5011 O   0  0  0  0  0  0  0  0  0  0  0  0
   -0.4790    3.6116    0.9212 O   0  0  0  0  0  0  0  0  0  0  0  0
    1.1200    2.6385    2.1185 O   0  0  0  0  0  0  0  0  0  0  0  0
   -2.1995   -3.9247   -2.4271 O   0  0  0  0  0  0  0  0  0  0  0  0
   -3.2425   -4.9025    1.8599 O   0  0  0  0  0  0  0  0  0  0  0  0
   -0.7473    0.4151    0.6749 N   0  0  0  0  0  0  0  0  0  0  0  0
   -1.9730   -2.0485   -1.2176 N   0  0  0  0  0  0  0  0  0  0  0  0
   -2.4185   -5.8947    1.3827 N   0  0  0  0  0  0  0  0  0  0  0  0
   -0.4008   -1.0245    0.5745 C   0  0  1  0  0  0  0  0  0  0  0  0
    1.5602    0.5676    0.0120 C   0  0  0  0  0  0  0  0  0  0  0  0
    0.2444    1.3779    0.1972 C   0  0  2  0  0  0  0  0  0  0  0  0
   -1.7871   -1.2686    0.0196 C   0  0  1  0  0  0  0  0  0  0  0  0
   -1.9238    0.2601   -0.0142 C   0  0  0  0  0  0  0  0  0  0  0  0
    2.4417    1.1084   -1.1027 C   0  0  0  0  0  0  0  0  0  0  0  0
    2.3668    0.3585    1.3019 C   0  0  0  0  0  0  0  0  0  0  0  0
    0.3667    2.5827    1.1570 C   0  0  0  0  0  0  0  0  0  0  0  0
   -2.2273   -3.4008   -1.3165 C   0  0  0  0  0  0  0  0  0  0  0  0
   -2.4822   -4.1706   -0.1135 C   0  0  0  0  0  0  0  0  0  0  0  0
   -1.9706   -5.4690    0.1921 C   0  0  0  0  0  0  0  0  0  0  0  0
   -3.3141   -3.8912    0.9570 C   0  0  0  0  0  0  0  0  0  0  0  0
   -1.0171   -6.2628   -0.5679 C   0  0  0  0  0  0  0  0  0  0  0  0
   -4.2196   -2.7836    1.3412 C   0  0  0  0  0  0  0  0  0  0  0  0
    0.2505   -5.7367   -0.8471 C   0  0  0  0  0  0  0  0  0  0  0  0
   -1.3360   -7.5589   -0.9897 C   0  0  0  0  0  0  0  0  0  0  0  0
    1.1910   -6.4984   -1.5387 C   0  0  0  0  0  0  0  0  0  0  0  0
   -0.3735   -8.3375   -1.6360 C   0  0  0  0  0  0  0  0  0  0  0  0
    0.8779   -7.7974   -1.9342 C   0  0  0  0  0  0  0  0  0  0  0  0
   -0.2423   -1.4929    1.5515 H   0  0  0  0  0  0  0  0  0  0  0  0
   -1.1637    3.4866    0.2374 H   0  0  0  0  0  0  0  0  0  0  0  0
   -1.7926   -1.6298   -2.1268 H   0  0  0  0  0  0  0  0  0  0  0  0
   -0.0871    1.7619   -0.7794 H   0  0  0  0  0  0  0  0  0  0  0  0
   -2.3658   -1.6512    0.8374 H   0  0  0  0  0  0  0  0  0  0  0  0
    2.8002    2.1106   -0.8566 H   0  0  0  0  0  0  0  0  0  0  0  0
    3.3179    0.4663   -1.2563 H   0  0  0  0  0  0  0  0  0  0  0  0
    1.9008    1.1671   -2.0550 H   0  0  0  0  0  0  0  0  0  0  0  0
    3.1758   -0.3673    1.1800 H   0  0  0  0  0  0  0  0  0  0  0  0
    2.8562    1.2881    1.6068 H   0  0  0  0  0  0  0  0  0  0  0  0
    1.7322    0.0248    2.1332 H   0  0  0  0  0  0  0  0  0  0  0  0
   -5.2299   -3.1322    1.5441 H   0  0  0  0  0  0  0  0  0  0  0  0
   -3.8329   -2.2865    2.2421 H   0  0  0  0  0  0  0  0  0  0  0  0
   -4.3002   -2.0353    0.5454 H   0  0  0  0  0  0  0  0  0  0  0  0
    0.5162   -4.7337   -0.5249 H   0  0  0  0  0  0  0  0  0  0  0  0
   -2.3313   -7.9655   -0.8227 H   0  0  0  0  0  0  0  0  0  0  0  0
    2.1704   -6.0811   -1.7553 H   0  0  0  0  0  0  0  0  0  0  0  0
   -0.5962   -9.3675   -1.9022 H   0  0  0  0  0  0  0  0  0  0  0  0
    1.6089   -8.3890   -2.4788 H   0  0  0  0  0  0  0  0  0  0  0  0
  1 10  1  0  0  0  0
  1 11  1  0  0  0  0
  2 14  2  0  0  0  0
  3 17  1  0  0  0  0
  3 30  1  0  0  0  0
  4 17  2  0  0  0  0
  5 18  2  0  0  0  0
  6  9  1  0  0  0  0
  6 21  1  0  0  0  0
  7 10  1  0  0  0  0
  7 12  1  0  0  0  0
  7 14  1  0  0  0  0
  8 18  1  0  0  0  0
  8 31  1  0  0  0  0
  9 20  2  0  0  0  0
 10 13  1  0  0  0  0
 10 29  1  1  0  0  0
 11 12  1  0  0  0  0
 11 15  1  0  0  0  0
 11 16  1  0  0  0  0
 12 32  1  6  0  0  0
 12 17  1  0  0  0  0
 13 14  1  0  0  0  0
 13 33  1  1  0  0  0
 13  8  1  0  0  0  0
 15 34  1  0  0  0  0
 15 35  1  0  0  0  0
 15 36  1  0  0  0  0
 16 37  1  0  0  0  0
 16 38  1  0  0  0  0
 16 39  1  0  0  0  0
 18 19  1  0  0  0  0
 19 20  1  0  0  0  0
 19 21  2  0  0  0  0
 20 22  1  0  0  0  0
 21 23  1  0  0  0  0
 22 24  2  0  0  0  0
 22 25  1  0  0  0  0
 23 40  1  0  0  0  0
 23 41  1  0  0  0  0
 23 42  1  0  0  0  0
 24 26  1  0  0  0  0
 24 43  1  0  0  0  0
 25 27  2  0  0  0  0
 25 44  1  0  0  0  0
 26 28  2  0  0  0  0
 26 45  1  0  0  0  0
 27 28  1  0  0  0  0
 27 46  1  0  0  0  0
 28 47  1  0  0  0  0
M  END
>  <DRUGBANK_ID>
DB00713

>  <SECONDARY_ACCESSION_NUMBERS>
APRD01149

>  <COMMON_NAME>
Oxacillin

>  <CAS_NUMBER>
66-79-5

>  <UNII>
UH95VD7V76

>  <SYNONYMS>
(2S,5R,6R)-3,3-dimethyl-6-{[(5-methyl-3-phenylisoxazol-4-yl)carbonyl]amino}-7-oxo-4-thia-1-azabicyclo[3.2.0]heptane-2-carboxylic acid; (5-methyl-3-phenyl-4-isoxazolyl)penicillin; 5-methyl-3-phenyl-4-isoxazolyl-penicillin; 6Î²-(5-methyl-3-phenylisoxazol-4-yl)penicillanic acid; Ossacillina; Oxacilina; Oxacillin; Oxacilline; Oxacillinum; Oxazocillin; Oxazocilline

$$$$
