
 OpenBabel10282417183D

 48 50  0  0  0  0  0  0  0  0999 V2000
    1.3569    0.3869   -0.2036 C   0  0  0  0  0  0  0  0  0  0  0  0
    0.6134    1.5186    0.0355 C   0  0  0  0  0  0  0  0  0  0  0  0
   -0.7684    1.4133    0.0821 C   0  0  0  0  0  0  0  0  0  0  0  0
   -1.4339    0.2430    0.0954 N   0  0  0  0  0  0  0  0  0  0  0  0
   -0.7248   -0.8817   -0.1492 C   0  0  0  0  0  0  0  0  0  0  0  0
    0.6710   -0.7699   -0.4904 C   0  0  0  0  0  0  0  0  0  0  0  0
   -1.3663   -2.1146    0.2216 N   0  0  0  0  0  0  0  0  0  0  0  0
   -2.7768   -2.3343    0.1195 C   0  0  0  0  0  0  0  0  0  0  0  0
   -3.4934   -1.8885   -1.0001 C   0  0  0  0  0  0  0  0  0  0  0  0
   -4.8753   -2.0663   -1.1017 C   0  0  0  0  0  0  0  0  0  0  0  0
   -5.5546   -2.7783   -0.1203 C   0  0  0  0  0  0  0  0  0  0  0  0
   -4.8422   -3.3783    0.9276 C   0  0  0  0  0  0  0  0  0  0  0  0
   -3.4585   -3.1222    1.0602 C   0  0  0  0  0  0  0  0  0  0  0  0
   -5.5305   -4.3500    1.8512 C   0  0  0  0  0  0  0  0  0  0  0  0
   -4.9753   -5.5937    1.7808 F   0  0  0  0  0  0  0  0  0  0  0  0
   -5.4734   -3.9868    3.1603 F   0  0  0  0  0  0  0  0  0  0  0  0
   -6.8532   -4.5268    1.5676 F   0  0  0  0  0  0  0  0  0  0  0  0
    1.4576   -1.7800   -1.2524 C   0  0  0  0  0  0  0  0  0  0  0  0
    0.6484   -2.5557   -1.8515 O   0  0  0  0  0  0  0  0  0  0  0  0
    2.9546   -1.9920   -0.8834 O   0  0  0  0  0  0  0  0  0  0  0  0
    3.9794   -3.3806   -0.3789 C   0  0  0  0  0  0  0  0  0  0  0  0
    3.5818   -4.6118    0.9872 C   0  0  0  0  0  0  0  0  0  0  0  0
    2.1191   -5.1743    1.4302 N   0  0  0  0  0  0  0  0  0  0  0  0
    1.4258   -5.7579    0.2161 C   0  0  0  0  0  0  0  0  0  0  0  0
    1.7590   -4.9508   -0.9672 C   0  0  0  0  0  0  0  0  0  0  0  0
    1.7447   -3.6602   -0.3912 O   0  0  0  0  0  0  0  0  0  0  0  0
    1.8478   -3.0345    0.9443 C   0  0  0  0  0  0  0  0  0  0  0  0
    1.3349   -3.9893    1.8866 C   0  0  0  0  0  0  0  0  0  0  0  0
    2.4384    0.3837   -0.2375 H   0  0  0  0  0  0  0  0  0  0  0  0
    1.1144    2.4717    0.1067 H   0  0  0  0  0  0  0  0  0  0  0  0
   -1.3993    2.2937    0.1125 H   0  0  0  0  0  0  0  0  0  0  0  0
   -0.8728   -2.9115   -0.1769 H   0  0  0  0  0  0  0  0  0  0  0  0
   -2.9714   -1.3652   -1.7959 H   0  0  0  0  0  0  0  0  0  0  0  0
   -5.4145   -1.6527   -1.9503 H   0  0  0  0  0  0  0  0  0  0  0  0
   -6.6360   -2.8894   -0.1906 H   0  0  0  0  0  0  0  0  0  0  0  0
   -2.9256   -3.5269    1.9192 H   0  0  0  0  0  0  0  0  0  0  0  0
    4.1769   -3.9344   -1.2977 H   0  0  0  0  0  0  0  0  0  0  0  0
    4.9102   -2.8828   -0.0528 H   0  0  0  0  0  0  0  0  0  0  0  0
    4.1940   -5.5119    0.8751 H   0  0  0  0  0  0  0  0  0  0  0  0
    3.9424   -4.1574    1.9324 H   0  0  0  0  0  0  0  0  0  0  0  0
    0.3273   -5.7011    0.2798 H   0  0  0  0  0  0  0  0  0  0  0  0
    1.7252   -6.7846    0.0376 H   0  0  0  0  0  0  0  0  0  0  0  0
    2.6888   -5.2699   -1.4823 H   0  0  0  0  0  0  0  0  0  0  0  0
    1.0438   -4.9619   -1.8097 H   0  0  0  0  0  0  0  0  0  0  0  0
    1.4258   -2.0490    1.0423 H   0  0  0  0  0  0  0  0  0  0  0  0
    2.8515   -2.6677    1.2553 H   0  0  0  0  0  0  0  0  0  0  0  0
    0.2434   -3.9597    1.7509 H   0  0  0  0  0  0  0  0  0  0  0  0
    1.5930   -3.5840    2.8679 H   0  0  0  0  0  0  0  0  0  0  0  0
  1  2  2  0  0  0  0
  1  6  1  0  0  0  0
  1 29  1  0  0  0  0
  2  3  1  0  0  0  0
  2 30  1  0  0  0  0
  3  4  2  0  0  0  0
  3 31  1  0  0  0  0
  4  5  1  0  0  0  0
  5  6  2  0  0  0  0
  5  7  1  0  0  0  0
  6 18  1  0  0  0  0
  7  8  1  0  0  0  0
  7 32  1  0  0  0  0
  8  9  2  0  0  0  0
  8 13  1  0  0  0  0
  9 10  1  0  0  0  0
  9 33  1  0  0  0  0
 10 11  2  0  0  0  0
 10 34  1  0  0  0  0
 11 12  1  0  0  0  0
 11 35  1  0  0  0  0
 12 13  2  0  0  0  0
 12 14  1  0  0  0  0
 13 36  1  0  0  0  0
 14 15  1  0  0  0  0
 14 16  1  0  0  0  0
 14 17  1  0  0  0  0
 18 19  2  0  0  0  0
 18 20  1  0  0  0  0
 20 21  1  0  0  0  0
 21 22  1  0  0  0  0
 21 37  1  0  0  0  0
 21 38  1  0  0  0  0
 22 23  1  0  0  0  0
 22 39  1  0  0  0  0
 22 40  1  0  0  0  0
 23 24  1  0  0  0  0
 23 28  1  0  0  0  0
 24 25  1  0  0  0  0
 24 41  1  0  0  0  0
 24 42  1  0  0  0  0
 25 26  1  0  0  0  0
 25 43  1  0  0  0  0
 25 44  1  0  0  0  0
 26 27  1  0  0  0  0
 27 28  1  0  0  0  0
 27 45  1  0  0  0  0
 27 46  1  0  0  0  0
 28 47  1  0  0  0  0
 28 48  1  0  0  0  0
M  END
>  <DRUGBANK_ID>
DB09285

>  <COMMON_NAME>
Morniflumate

>  <CAS_NUMBER>
65847-85-0

>  <UNII>
R133MWH7X1

>  <SYNONYMS>
Morniflumate; Morniflumato

$$$$
