
 OpenBabel10282417173D

 47 49  0  0  1  0  0  0  0  0999 V2000
   -3.4936   -0.2229    1.6039 C   0  0  0  0  0  0  0  0  0  0  0  0
   -4.2113    0.1134    2.7543 C   0  0  0  0  0  0  0  0  0  0  0  0
   -4.8534   -0.8776    3.4873 C   0  0  0  0  0  0  0  0  0  0  0  0
   -4.7914   -2.2013    3.1015 C   0  0  0  0  0  0  0  0  0  0  0  0
   -4.0881   -2.5270    1.9548 C   0  0  0  0  0  0  0  0  0  0  0  0
   -3.4130   -1.5579    1.1773 C   0  0  0  0  0  0  0  0  0  0  0  0
   -5.5553   -0.5460    4.5766 F   0  0  0  0  0  0  0  0  0  0  0  0
   -4.1000   -3.8222    1.6008 F   0  0  0  0  0  0  0  0  0  0  0  0
   -2.6202   -1.9603   -0.0749 C   0  0  2  0  0  0  0  0  0  0  0  0
   -1.1420   -1.3351   -0.0915 C   0  0  2  0  0  0  0  0  0  0  0  0
   -3.4686   -1.7263   -1.3662 C   0  0  0  0  0  0  0  0  0  0  0  0
   -0.9612    0.1564   -0.3141 N   0  0  0  0  0  0  0  0  0  0  0  0
   -0.2852   -2.3275   -0.9187 C   0  0  0  0  0  0  0  0  0  0  0  0
   -2.8824   -2.0823   -2.6499 N   0  0  0  0  0  0  0  0  0  0  0  0
   -2.6411   -1.2787   -3.7274 C   0  0  0  0  0  0  0  0  0  0  0  0
   -1.8898   -1.9125   -4.5999 N   0  0  0  0  0  0  0  0  0  0  0  0
   -1.8256   -3.1701   -4.0798 C   0  0  0  0  0  0  0  0  0  0  0  0
   -2.4960   -3.3434   -2.9340 N   0  0  0  0  0  0  0  0  0  0  0  0
   -1.3387    0.7586   -1.6025 C   0  0  0  0  0  0  0  0  0  0  0  0
   -0.4222    0.3860   -2.7702 C   0  0  0  0  0  0  0  0  0  0  0  0
    1.0191    0.5948   -2.4693 C   0  0  0  0  0  0  0  0  0  0  0  0
    1.4544    0.2260   -1.0800 C   0  0  0  0  0  0  0  0  0  0  0  0
    0.4153    0.6468   -0.0256 C   0  0  0  0  0  0  0  0  0  0  0  0
    1.8457    0.9660   -3.4649 C   0  0  0  0  0  0  0  0  0  0  0  0
   -2.4168   -3.3819    0.1020 O   0  0  0  0  0  0  0  0  0  0  0  0
   -2.9929    0.5765    1.0635 H   0  0  0  0  0  0  0  0  0  0  0  0
   -4.2672    1.1461    3.0839 H   0  0  0  0  0  0  0  0  0  0  0  0
   -5.2833   -2.9811    3.6696 H   0  0  0  0  0  0  0  0  0  0  0  0
   -0.7844   -1.4738    0.9449 H   0  0  0  0  0  0  0  0  0  0  0  0
   -4.3936   -2.3088   -1.3137 H   0  0  0  0  0  0  0  0  0  0  0  0
   -3.7873   -0.6822   -1.4218 H   0  0  0  0  0  0  0  0  0  0  0  0
    0.7563   -2.3979   -0.6280 H   0  0  0  0  0  0  0  0  0  0  0  0
   -0.5996   -3.3704   -0.8585 H   0  0  0  0  0  0  0  0  0  0  0  0
   -0.3664   -2.1144   -1.9674 H   0  0  0  0  0  0  0  0  0  0  0  0
   -2.8954   -0.2291   -3.7776 H   0  0  0  0  0  0  0  0  0  0  0  0
   -1.2725   -3.9734   -4.5512 H   0  0  0  0  0  0  0  0  0  0  0  0
   -2.3887    0.5925   -1.8206 H   0  0  0  0  0  0  0  0  0  0  0  0
   -1.3151    1.8560   -1.5133 H   0  0  0  0  0  0  0  0  0  0  0  0
   -0.4745   -0.6654   -3.0028 H   0  0  0  0  0  0  0  0  0  0  0  0
   -0.7500    0.8870   -3.6872 H   0  0  0  0  0  0  0  0  0  0  0  0
    1.5759   -0.8483   -1.0529 H   0  0  0  0  0  0  0  0  0  0  0  0
    2.4514    0.5956   -0.8365 H   0  0  0  0  0  0  0  0  0  0  0  0
    0.3965    1.7496   -0.0020 H   0  0  0  0  0  0  0  0  0  0  0  0
    0.7205    0.3463    0.9811 H   0  0  0  0  0  0  0  0  0  0  0  0
    2.9073    1.0500   -3.3078 H   0  0  0  0  0  0  0  0  0  0  0  0
    1.4444    1.1102   -4.4628 H   0  0  0  0  0  0  0  0  0  0  0  0
   -3.2269   -3.8641   -0.1340 H   0  0  0  0  0  0  0  0  0  0  0  0
  1  2  2  0  0  0  0
  1  6  1  0  0  0  0
  1 26  1  0  0  0  0
  2  3  1  0  0  0  0
  2 27  1  0  0  0  0
  3  4  2  0  0  0  0
  3  7  1  0  0  0  0
  4  5  1  0  0  0  0
  4 28  1  0  0  0  0
  5  6  2  0  0  0  0
  5  8  1  0  0  0  0
  9 11  1  0  0  0  0
  9 25  1  1  0  0  0
  9 10  1  0  0  0  0
  9  6  1  0  0  0  0
 10 29  1  1  0  0  0
 10 13  1  0  0  0  0
 10 12  1  0  0  0  0
 11 14  1  0  0  0  0
 11 30  1  0  0  0  0
 11 31  1  0  0  0  0
 12 19  1  0  0  0  0
 12 23  1  0  0  0  0
 13 32  1  0  0  0  0
 13 33  1  0  0  0  0
 13 34  1  0  0  0  0
 14 15  1  0  0  0  0
 14 18  1  0  0  0  0
 15 16  2  0  0  0  0
 15 35  1  0  0  0  0
 16 17  1  0  0  0  0
 17 18  2  0  0  0  0
 17 36  1  0  0  0  0
 19 20  1  0  0  0  0
 19 37  1  0  0  0  0
 19 38  1  0  0  0  0
 20 21  1  0  0  0  0
 20 39  1  0  0  0  0
 20 40  1  0  0  0  0
 21 22  1  0  0  0  0
 21 24  2  0  0  0  0
 22 23  1  0  0  0  0
 22 41  1  0  0  0  0
 22 42  1  0  0  0  0
 23 43  1  0  0  0  0
 23 44  1  0  0  0  0
 24 45  1  0  0  0  0
 24 46  1  0  0  0  0
 25 47  1  0  0  0  0
M  END
>  <DRUGBANK_ID>
DB09040

>  <COMMON_NAME>
Efinaconazole

>  <CAS_NUMBER>
164650-44-6

>  <UNII>
J82SB7FXWB

>  <SYNONYMS>
(2R,3R)-2-(2,4-Difluorophenyl)-3-(4-methylene-1-piperidinyl)-1-(1H-1,2,4-triazol-1-yl)-2-butanol; efinaconazol; Efinaconazole

$$$$
