DFW
 OpenBabel10282417163D

 41 44  0  0  0  0  0  0  0  0999 V2000
   -1.8799    0.7273    0.0271 C   0  0  0  0  0  0  0  0  0  0  0  0
    2.4330   -0.1718   -0.0702 C   0  0  0  0  0  0  0  0  0  0  0  0
    3.8871   -0.0338   -0.0737 C   0  0  0  0  0  0  0  0  0  0  0  0
    4.5770    0.4907    1.0224 C   0  0  0  0  0  0  0  0  0  0  0  0
    5.9643    0.3177    1.1248 C   0  0  0  0  0  0  0  0  0  0  0  0
    6.6641   -0.4021    0.1537 C   0  0  0  0  0  0  0  0  0  0  0  0
    5.9827   -0.9507   -0.9255 C   0  0  0  0  0  0  0  0  0  0  0  0
    4.6152   -0.7220   -1.0630 C   0  0  0  0  0  0  0  0  0  0  0  0
    1.9682   -3.4721   -1.3213 C   0  0  0  0  0  0  0  0  0  0  0  0
    2.0966   -4.8638   -1.2002 C   0  0  0  0  0  0  0  0  0  0  0  0
    2.6386   -5.4252   -0.0433 C   0  0  0  0  0  0  0  0  0  0  0  0
    3.0903   -4.5977    0.9850 C   0  0  0  0  0  0  0  0  0  0  0  0
   -0.7037    1.3629    0.0307 N   0  0  0  0  0  0  0  0  0  0  0  0
    0.3318    0.5062   -0.0088 C   0  0  0  0  0  0  0  0  0  0  0  0
    1.6401    0.9320    0.0120 O   0  0  0  0  0  0  0  0  0  0  0  0
    0.2685   -0.8891   -0.0512 C   0  0  0  0  0  0  0  0  0  0  0  0
   -1.4399   -2.7698    0.1611 N   0  0  0  0  0  0  0  0  0  0  0  0
   -1.0496   -1.4486    0.0227 C   0  0  0  0  0  0  0  0  0  0  0  0
   -2.0997   -0.5957    0.0143 N   0  0  0  0  0  0  0  0  0  0  0  0
    2.9479   -3.2068    0.8844 C   0  0  0  0  0  0  0  0  0  0  0  0
    1.6640   -1.3159   -0.1390 C   0  0  0  0  0  0  0  0  0  0  0  0
    2.3042   -2.6425   -0.2365 C   0  0  0  0  0  0  0  0  0  0  0  0
   -0.3838   -4.7108    1.4227 C   0  0  0  0  0  0  0  0  0  0  0  0
   -0.4889   -3.8336    0.2098 C   0  0  0  0  0  0  0  0  0  0  0  0
   -0.2301   -5.9145    1.4153 O   0  0  0  0  0  0  0  0  0  0  0  0
   -0.2179   -3.9938    2.5620 O   0  0  0  0  0  0  0  0  0  0  0  0
   -2.7763    1.3429    0.0542 H   0  0  0  0  0  0  0  0  0  0  0  0
    4.0386    0.9774    1.8320 H   0  0  0  0  0  0  0  0  0  0  0  0
    6.4990    0.7080    1.9870 H   0  0  0  0  0  0  0  0  0  0  0  0
    7.7380   -0.5458    0.2413 H   0  0  0  0  0  0  0  0  0  0  0  0
    6.5008   -1.5841   -1.6411 H   0  0  0  0  0  0  0  0  0  0  0  0
    4.0984   -1.1617   -1.9143 H   0  0  0  0  0  0  0  0  0  0  0  0
    1.3749   -3.0697   -2.1417 H   0  0  0  0  0  0  0  0  0  0  0  0
    1.6109   -5.5126   -1.9279 H   0  0  0  0  0  0  0  0  0  0  0  0
    2.6293   -6.5064    0.0908 H   0  0  0  0  0  0  0  0  0  0  0  0
    3.4568   -5.0445    1.9077 H   0  0  0  0  0  0  0  0  0  0  0  0
   -2.4181   -2.9788    0.0266 H   0  0  0  0  0  0  0  0  0  0  0  0
    3.2322   -2.5928    1.7372 H   0  0  0  0  0  0  0  0  0  0  0  0
   -0.4564   -4.3988   -0.7232 H   0  0  0  0  0  0  0  0  0  0  0  0
    0.4259   -3.3354    0.3688 H   0  0  0  0  0  0  0  0  0  0  0  0
    0.0227   -4.6549    3.2387 H   0  0  0  0  0  0  0  0  0  0  0  0
  1 13  2  0  0  0  0
  1 19  1  0  0  0  0
  1 27  1  0  0  0  0
  2  3  1  0  0  0  0
  2 15  1  0  0  0  0
  2 21  2  0  0  0  0
  3  4  2  0  0  0  0
  3  8  1  0  0  0  0
  4  5  1  0  0  0  0
  4 28  1  0  0  0  0
  5  6  2  0  0  0  0
  5 29  1  0  0  0  0
  6  7  1  0  0  0  0
  6 30  1  0  0  0  0
  7  8  2  0  0  0  0
  7 31  1  0  0  0  0
  8 32  1  0  0  0  0
  9 10  2  0  0  0  0
  9 22  1  0  0  0  0
  9 33  1  0  0  0  0
 10 11  1  0  0  0  0
 10 34  1  0  0  0  0
 11 12  2  0  0  0  0
 11 35  1  0  0  0  0
 12 20  1  0  0  0  0
 12 36  1  0  0  0  0
 13 14  1  0  0  0  0
 14 15  1  0  0  0  0
 14 16  2  0  0  0  0
 16 18  1  0  0  0  0
 16 21  1  0  0  0  0
 17 18  1  0  0  0  0
 17 24  1  0  0  0  0
 17 37  1  0  0  0  0
 18 19  2  0  0  0  0
 20 22  2  0  0  0  0
 20 38  1  0  0  0  0
 21 22  1  0  0  0  0
 23 24  1  0  0  0  0
 23 25  2  0  0  0  0
 23 26  1  0  0  0  0
 24 39  1  0  0  0  0
 24 40  1  0  0  0  0
 26 41  1  0  0  0  0
M  END
>  <DRUGBANK_ID>
DB07653

>  <COMMON_NAME>
N-(5,6-DIPHENYLFURO[2,3-D]PYRIMIDIN-4-YL)GLYCINE

$$$$
