
 OpenBabel10282417133D

 14 14  0  0  0  0  0  0  0  0999 V2000
    1.0172   -0.2256   -0.1549 N   0  0  0  0  0  0  0  0  0  0  0  0
    0.4437    0.6938   -1.0259 C   0  0  0  0  0  0  0  0  0  0  0  0
    0.7851    0.8075   -2.3146 C   0  0  0  0  0  0  0  0  0  0  0  0
    0.2618    1.7733   -3.1271 N   0  0  0  0  0  0  0  0  0  0  0  0
   -0.7099    2.6472   -2.7319 C   0  0  0  0  0  0  0  0  0  0  0  0
   -1.0902    3.5655   -3.4556 O   0  0  0  0  0  0  0  0  0  0  0  0
   -1.2162    2.4390   -1.4826 N   0  0  0  0  0  0  0  0  0  0  0  0
   -0.6434    1.6272   -0.5384 C   0  0  0  0  0  0  0  0  0  0  0  0
   -0.9703    1.6589    0.6458 O   0  0  0  0  0  0  0  0  0  0  0  0
    0.5395   -0.2085    0.7494 H   0  0  0  0  0  0  0  0  0  0  0  0
    1.9991    0.0054    0.0034 H   0  0  0  0  0  0  0  0  0  0  0  0
    1.5058    0.1349   -2.7663 H   0  0  0  0  0  0  0  0  0  0  0  0
    0.6084    1.8889   -4.0723 H   0  0  0  0  0  0  0  0  0  0  0  0
   -1.9436    3.0669   -1.1790 H   0  0  0  0  0  0  0  0  0  0  0  0
  1  2  1  0  0  0  0
  1 10  1  0  0  0  0
  1 11  1  0  0  0  0
  2  3  2  0  0  0  0
  2  8  1  0  0  0  0
  3  4  1  0  0  0  0
  3 12  1  0  0  0  0
  4  5  1  0  0  0  0
  4 13  1  0  0  0  0
  5  6  2  0  0  0  0
  5  7  1  0  0  0  0
  7  8  1  0  0  0  0
  7 14  1  0  0  0  0
  8  9  2  0  0  0  0
M  END
>  <DRUGBANK_ID>
DB03792

>  <SECONDARY_ACCESSION_NUMBERS>
EXPT03241

>  <COMMON_NAME>
5-Aminouracil

>  <CAS_NUMBER>
932-52-5

>  <UNII>
R2O7EKY9G9

>  <SYNONYMS>
5-Amino-2,4-dihydroxypyrimidine; 5-aminopyrimidine-2,4(1H,3H)-dione

$$$$
