HM2
 OpenBabel10282417163D

 40 42  0  0  0  0  0  0  0  0999 V2000
   -1.3671   -0.0627   -0.0126 N   0  0  0  0  0  0  0  0  0  0  0  0
   -1.1245   -3.3180    1.0517 N   0  0  0  0  0  0  0  0  0  0  0  0
   -2.1992   -2.7674   -1.0032 N   0  0  0  0  0  0  0  0  0  0  0  0
   -1.4529   -5.4011    2.0845 N   0  0  0  0  0  0  0  0  0  0  0  0
   -0.6959    1.1093   -0.0071 C   0  0  0  0  0  0  0  0  0  0  0  0
    0.6845    1.2111    0.0016 C   0  0  0  0  0  0  0  0  0  0  0  0
    1.4282    0.0378    0.0061 C   0  0  0  0  0  0  0  0  0  0  0  0
    0.7652   -1.1877    0.0125 C   0  0  0  0  0  0  0  0  0  0  0  0
   -0.6316   -1.2114   -0.0012 C   0  0  0  0  0  0  0  0  0  0  0  0
   -1.3731   -2.4846    0.0205 C   0  0  0  0  0  0  0  0  0  0  0  0
   -1.7874   -4.4862    1.0824 C   0  0  0  0  0  0  0  0  0  0  0  0
   -2.8460   -3.9572   -0.9725 C   0  0  0  0  0  0  0  0  0  0  0  0
   -2.6743   -4.8578    0.0714 C   0  0  0  0  0  0  0  0  0  0  0  0
   -0.6858   -4.9605    3.2458 C   0  0  0  0  0  0  0  0  0  0  0  0
   -1.5102   -5.0141    4.5448 C   0  0  0  0  0  0  0  0  0  0  0  0
   -2.0724   -6.3769    4.8988 C   0  0  0  0  0  0  0  0  0  0  0  0
   -1.4805   -7.5567    4.4214 C   0  0  0  0  0  0  0  0  0  0  0  0
   -1.9680   -8.8075    4.7815 C   0  0  0  0  0  0  0  0  0  0  0  0
   -3.0325   -8.9022    5.6677 C   0  0  0  0  0  0  0  0  0  0  0  0
   -3.6198   -7.7439    6.1756 C   0  0  0  0  0  0  0  0  0  0  0  0
   -3.1612   -6.4852    5.7752 C   0  0  0  0  0  0  0  0  0  0  0  0
   -3.7300   -4.2204   -2.1532 C   0  0  0  0  0  0  0  0  0  0  0  0
   -3.5127   -6.3701    0.1473 Cl  0  0  0  0  0  0  0  0  0  0  0  0
   -2.1887   -6.0797    2.2720 H   0  0  0  0  0  0  0  0  0  0  0  0
   -1.3212    1.9979   -0.0104 H   0  0  0  0  0  0  0  0  0  0  0  0
    1.1679    2.1816    0.0032 H   0  0  0  0  0  0  0  0  0  0  0  0
    2.5138    0.0757    0.0047 H   0  0  0  0  0  0  0  0  0  0  0  0
    1.3300   -2.1159    0.0195 H   0  0  0  0  0  0  0  0  0  0  0  0
    0.1796   -5.6264    3.3309 H   0  0  0  0  0  0  0  0  0  0  0  0
   -0.2585   -3.9586    3.1373 H   0  0  0  0  0  0  0  0  0  0  0  0
   -0.8576   -4.7093    5.3744 H   0  0  0  0  0  0  0  0  0  0  0  0
   -2.3225   -4.2776    4.4891 H   0  0  0  0  0  0  0  0  0  0  0  0
   -0.6289   -7.5307    3.7475 H   0  0  0  0  0  0  0  0  0  0  0  0
   -1.4990   -9.6991    4.3756 H   0  0  0  0  0  0  0  0  0  0  0  0
   -3.3986   -9.8804    5.9638 H   0  0  0  0  0  0  0  0  0  0  0  0
   -4.4329   -7.8242    6.8924 H   0  0  0  0  0  0  0  0  0  0  0  0
   -3.6568   -5.5956    6.1599 H   0  0  0  0  0  0  0  0  0  0  0  0
   -4.4979   -3.4430   -2.2148 H   0  0  0  0  0  0  0  0  0  0  0  0
   -3.1315   -4.1984   -3.0702 H   0  0  0  0  0  0  0  0  0  0  0  0
   -4.2385   -5.1861   -2.1189 H   0  0  0  0  0  0  0  0  0  0  0  0
  1  5  1  0  0  0  0
  1  9  2  0  0  0  0
  2 10  1  0  0  0  0
  2 11  2  0  0  0  0
  3 10  2  0  0  0  0
  3 12  1  0  0  0  0
  4 11  1  0  0  0  0
  4 14  1  0  0  0  0
  4 24  1  0  0  0  0
  5  6  2  0  0  0  0
  5 25  1  0  0  0  0
  6  7  1  0  0  0  0
  6 26  1  0  0  0  0
  7  8  2  0  0  0  0
  7 27  1  0  0  0  0
  8  9  1  0  0  0  0
  8 28  1  0  0  0  0
  9 10  1  0  0  0  0
 11 13  1  0  0  0  0
 12 13  2  0  0  0  0
 12 22  1  0  0  0  0
 13 23  1  0  0  0  0
 14 15  1  0  0  0  0
 14 29  1  0  0  0  0
 14 30  1  0  0  0  0
 15 16  1  0  0  0  0
 15 31  1  0  0  0  0
 15 32  1  0  0  0  0
 16 17  1  0  0  0  0
 16 21  2  0  0  0  0
 17 18  2  0  0  0  0
 17 33  1  0  0  0  0
 18 19  1  0  0  0  0
 18 34  1  0  0  0  0
 19 20  2  0  0  0  0
 19 35  1  0  0  0  0
 20 21  1  0  0  0  0
 20 36  1  0  0  0  0
 21 37  1  0  0  0  0
 22 38  1  0  0  0  0
 22 39  1  0  0  0  0
 22 40  1  0  0  0  0
M  END
>  <DRUGBANK_ID>
DB07901

>  <COMMON_NAME>
5-CHLORO-6-METHYL-N-(2-PHENYLETHYL)-2-PYRIDIN-2-YLPYRIMIDIN-4-AMINE

$$$$
