
 OpenBabel10282417203D

  5  2  0  0  0  0  0  0  0  0999 V2000
    0.9853   -0.0241   -0.0959 N   0  5  0  0  0  0  0  0  0  0  0  0
    0.9293    0.0016   -0.0707 Cl  0  5  0  0  0  0  0  0  0  0  0  0
    0.9805   -0.0822    0.0535 Hg  0  2  0  0  0  0  0  0  0  0  0  0
    0.6453    0.1259   -1.0458 H   0  0  0  0  0  0  0  0  0  0  0  0
    2.0053   -0.0241   -0.0959 H   0  0  0  0  0  0  0  0  0  0  0  0
  1  4  1  0  0  0  0
  1  5  1  0  0  0  0
M  CHG  3   1  -1   2  -1   3   2
M  END
>  <DRUGBANK_ID>
DB13344

>  <COMMON_NAME>
Mercuric amidochloride

>  <CAS_NUMBER>
10124-48-8

>  <UNII>
JD546Z56F0

>  <SYNONYMS>
Mercuric chloride, ammoniated

$$$$
