
 OpenBabel10282417103D

 48 50  0  0  1  0  0  0  0  0999 V2000
    0.6540    0.6367   -1.3230 C   0  0  0  0  0  0  0  0  0  0  0  0
    1.4775    1.6087   -0.6561 C   0  0  0  0  0  0  0  0  0  0  0  0
    2.6363    1.3083    0.1414 C   0  0  0  0  0  0  0  0  0  0  0  0
    3.0097    0.0185    0.3873 C   0  0  0  0  0  0  0  0  0  0  0  0
    2.1600   -0.9326   -0.0849 C   0  0  0  0  0  0  0  0  0  0  0  0
    0.9481   -0.6661   -1.0192 C   0  0  0  0  0  0  0  0  0  0  0  0
   -0.8670    0.7696   -1.3803 C   0  0  0  0  0  0  0  0  0  0  0  0
   -0.8956    0.1736    0.0738 C   0  0  3  0  0  0  0  0  0  0  0  0
    0.0488   -1.6581    0.1862 C   0  0  3  0  0  0  0  0  0  0  0  0
   -0.6855   -1.6150   -1.0382 C   0  0  3  0  0  0  0  0  0  0  0  0
   -2.0545    0.3587    1.0392 N   0  0  0  0  0  0  0  0  0  0  0  0
   -1.6966   -0.8946    1.6134 C   0  0  0  0  0  0  0  0  0  0  0  0
   -1.9899   -1.8123    0.1176 C   0  0  0  0  0  0  0  0  0  0  0  0
    0.9025   -3.0654   -0.7148 C   0  0  0  0  0  0  0  0  0  0  0  0
   -0.8414   -1.8988   -2.5041 C   0  0  0  0  0  0  0  0  0  0  0  0
   -1.9017    1.5146    2.0317 C   0  0  0  0  0  0  0  0  0  0  0  0
   -0.5743    2.2716    2.0448 C   0  0  0  0  0  0  0  0  0  0  0  0
   -0.3550    3.5803    1.7943 C   0  0  0  0  0  0  0  0  0  0  0  0
    1.0393    4.1277    1.6118 C   0  0  0  0  0  0  0  0  0  0  0  0
   -1.4738    4.5645    1.6516 C   0  0  0  0  0  0  0  0  0  0  0  0
    4.0832   -0.3365    1.1375 O   0  0  0  0  0  0  0  0  0  0  0  0
    1.0610    2.6106   -0.5431 H   0  0  0  0  0  0  0  0  0  0  0  0
    3.2024    2.0910    0.6355 H   0  0  0  0  0  0  0  0  0  0  0  0
    2.2715   -1.8677    0.5005 H   0  0  0  0  0  0  0  0  0  0  0  0
   -1.0826    1.7423   -1.8195 H   0  0  0  0  0  0  0  0  0  0  0  0
   -1.6297    0.1806   -1.8849 H   0  0  0  0  0  0  0  0  0  0  0  0
   -0.4680    1.0741    0.3918 H   0  0  0  0  0  0  0  0  0  0  0  0
   -0.2084   -2.2821    1.0462 H   0  0  0  0  0  0  0  0  0  0  0  0
   -0.6187   -0.7032    1.9296 H   0  0  0  0  0  0  0  0  0  0  0  0
   -2.0662   -1.2998    2.5511 H   0  0  0  0  0  0  0  0  0  0  0  0
   -2.1358   -2.8570    0.4202 H   0  0  0  0  0  0  0  0  0  0  0  0
   -2.8966   -1.4422   -0.3777 H   0  0  0  0  0  0  0  0  0  0  0  0
    1.9545   -2.8845   -1.0055 H   0  0  0  0  0  0  0  0  0  0  0  0
    0.9460   -3.9709   -0.1009 H   0  0  0  0  0  0  0  0  0  0  0  0
    0.5168   -3.4155   -1.6812 H   0  0  0  0  0  0  0  0  0  0  0  0
   -1.1600   -1.0213   -3.0803 H   0  0  0  0  0  0  0  0  0  0  0  0
    0.0889   -2.1360   -3.0347 H   0  0  0  0  0  0  0  0  0  0  0  0
   -1.6076   -2.6523   -2.6688 H   0  0  0  0  0  0  0  0  0  0  0  0
   -2.7152    2.2331    1.8472 H   0  0  0  0  0  0  0  0  0  0  0  0
   -2.0777    1.1740    3.0622 H   0  0  0  0  0  0  0  0  0  0  0  0
    0.2944    1.6175    2.1376 H   0  0  0  0  0  0  0  0  0  0  0  0
    1.1577    4.5748    0.6152 H   0  0  0  0  0  0  0  0  0  0  0  0
    1.2764    4.8830    2.3617 H   0  0  0  0  0  0  0  0  0  0  0  0
    1.7944    3.3457    1.7085 H   0  0  0  0  0  0  0  0  0  0  0  0
   -2.1355    4.2983    0.8217 H   0  0  0  0  0  0  0  0  0  0  0  0
   -2.0495    4.5863    2.5820 H   0  0  0  0  0  0  0  0  0  0  0  0
   -1.1013    5.5775    1.4694 H   0  0  0  0  0  0  0  0  0  0  0  0
    4.2074   -1.3031    1.0523 H   0  0  0  0  0  0  0  0  0  0  0  0
  1  2  1  0  0  0  0
  1  7  1  0  0  0  0
  2  3  2  0  0  0  0
  2 22  1  0  0  0  0
  3  4  1  0  0  0  0
  3 23  1  0  0  0  0
  4  5  2  0  0  0  0
  4 21  1  0  0  0  0
  5  6  1  0  0  0  0
  5 24  1  0  0  0  0
  6  1  2  0  0  0  0
  7  8  1  0  0  0  0
  7 25  1  0  0  0  0
  7 26  1  0  0  0  0
  8  9  1  0  0  0  0
  8 11  1  0  0  0  0
  8 27  1  0  0  0  0
  9 10  1  0  0  0  0
  9 14  1  0  0  0  0
  9 28  1  0  0  0  0
 10  6  1  0  0  0  0
 10 13  1  0  0  0  0
 10 15  1  0  0  0  0
 11 16  1  0  0  0  0
 12 11  1  0  0  0  0
 12 29  1  0  0  0  0
 12 30  1  0  0  0  0
 13 12  1  0  0  0  0
 13 31  1  0  0  0  0
 13 32  1  0  0  0  0
 14 33  1  0  0  0  0
 14 34  1  0  0  0  0
 14 35  1  0  0  0  0
 15 36  1  0  0  0  0
 15 37  1  0  0  0  0
 15 38  1  0  0  0  0
 16 17  1  0  0  0  0
 16 39  1  0  0  0  0
 16 40  1  0  0  0  0
 17 18  2  0  0  0  0
 17 41  1  0  0  0  0
 18 19  1  0  0  0  0
 18 20  1  0  0  0  0
 19 42  1  0  0  0  0
 19 43  1  0  0  0  0
 19 44  1  0  0  0  0
 20 45  1  0  0  0  0
 20 46  1  0  0  0  0
 20 47  1  0  0  0  0
 21 48  1  0  0  0  0
M  END
>  <DRUGBANK_ID>
DB00652

>  <SECONDARY_ACCESSION_NUMBERS>
APRD01173

>  <COMMON_NAME>
Pentazocine

>  <CAS_NUMBER>
359-83-1

>  <UNII>
RP4A60D26L

>  <SYNONYMS>
Pentazocin; Pentazocina; Pentazocine; Pentazocinum

$$$$
