
 OpenBabel10282417143D

 37 37  0  0  1  0  0  0  0  0999 V2000
    1.9421   -0.0242    0.1796 C   0  0  0  0  0  0  0  0  0  0  0  0
   -0.0659   -2.8595    0.1349 C   0  0  0  0  0  0  0  0  0  0  0  0
    1.4391   -1.8459    0.5516 C   0  0  2  0  0  0  0  0  0  0  0  0
    1.2186   -2.6960   -1.2589 C   0  0  2  0  0  0  0  0  0  0  0  0
   -0.6331   -2.3851   -1.8361 C   0  0  2  0  0  0  0  0  0  0  0  0
   -1.7852   -2.2338   -0.1980 C   0  0  2  0  0  0  0  0  0  0  0  0
    1.3542   -4.2561   -1.0149 O   0  0  0  0  0  0  0  0  0  0  0  0
   -1.3539   -3.3711   -2.5308 O   0  0  0  0  0  0  0  0  0  0  0  0
   -1.9056   -0.5801    0.9085 O   0  0  0  0  0  0  0  0  0  0  0  0
    0.4495   -0.5769    1.8006 O   0  0  0  0  0  0  0  0  0  0  0  0
   -0.3336    0.4827   -0.2794 O   0  0  0  0  0  0  0  0  0  0  0  0
   -2.1950   -2.9329    2.6178 O   0  0  0  0  0  0  0  0  0  0  0  0
   -1.2340   -5.1675    1.3919 O   0  0  0  0  0  0  0  0  0  0  0  0
    2.5581   -0.3404    2.7598 O   0  0  0  0  0  0  0  0  0  0  0  0
    2.8533    2.2482    2.3073 O   0  0  0  0  0  0  0  0  0  0  0  0
    0.9536    1.2328    3.8101 O   0  0  0  0  0  0  0  0  0  0  0  0
    1.4074    1.0604    1.0725 O   0  0  0  0  0  0  0  0  0  0  0  0
   -0.4952   -2.0110    1.3971 O   0  0  0  0  0  0  0  0  0  0  0  0
   -2.6844   -3.2436    0.1013 O   0  0  0  0  0  0  0  0  0  0  0  0
   -0.2109   -1.0491   -0.0895 P   0  0  0  0  0  0  0  0  0  0  0  0
   -1.7973   -3.7936    1.3088 P   0  0  3  0  0  0  0  0  0  0  0  0
    1.8461    1.0845    2.6229 P   0  0  0  0  0  0  0  0  0  0  0  0
    2.1291   -2.4514    1.1252 H   0  0  0  0  0  0  0  0  0  0  0  0
    2.0408   -2.4613   -1.9320 H   0  0  0  0  0  0  0  0  0  0  0  0
   -0.6517   -1.4026   -2.3999 H   0  0  0  0  0  0  0  0  0  0  0  0
   -2.2257   -1.2679   -0.7966 H   0  0  0  0  0  0  0  0  0  0  0  0
    1.6065    0.2634   -0.8639 H   0  0  0  0  0  0  0  0  0  0  0  0
    2.9995    0.1528    0.1019 H   0  0  0  0  0  0  0  0  0  0  0  0
    0.5187   -3.4855    0.9325 H   0  0  0  0  0  0  0  0  0  0  0  0
   -0.5072   -3.6804   -0.4876 H   0  0  0  0  0  0  0  0  0  0  0  0
    0.7337   -4.7087   -0.3663 H   0  0  0  0  0  0  0  0  0  0  0  0
   -1.9118   -3.8053   -1.8445 H   0  0  0  0  0  0  0  0  0  0  0  0
   -2.8354   -0.6811    0.5492 H   0  0  0  0  0  0  0  0  0  0  0  0
    0.6593   -1.4631    2.2145 H   0  0  0  0  0  0  0  0  0  0  0  0
   -2.1973   -1.9429    2.5383 H   0  0  0  0  0  0  0  0  0  0  0  0
    1.7690   -0.6917    3.2464 H   0  0  0  0  0  0  0  0  0  0  0  0
    2.2964    2.6857    1.6128 H   0  0  0  0  0  0  0  0  0  0  0  0
  1 27  1  0  0  0  0
  1 28  1  0  0  0  0
  2 29  1  0  0  0  0
  2 30  1  0  0  0  0
  3  1  1  0  0  0  0
  3 23  1  1  0  0  0
  4  3  1  0  0  0  0
  4  7  1  0  0  0  0
  4 24  1  6  0  0  0
  5  4  1  0  0  0  0
  5  8  1  0  0  0  0
  5 25  1  6  0  0  0
  6  5  1  0  0  0  0
  6 19  1  0  0  0  0
  6 26  1  6  0  0  0
  7 31  1  0  0  0  0
  8 32  1  0  0  0  0
  9 33  1  0  0  0  0
 10 34  1  0  0  0  0
 12 35  1  0  0  0  0
 14 36  1  0  0  0  0
 15 37  1  0  0  0  0
 17  1  1  0  0  0  0
 18  3  1  0  0  0  0
 18  6  1  0  0  0  0
 20  2  1  0  0  0  0
 20  9  1  0  0  0  0
 20 10  1  0  0  0  0
 20 11  2  0  0  0  0
 21  2  1  0  0  0  0
 21 12  1  0  0  0  0
 21 13  2  0  0  0  0
 21 19  1  0  0  0  0
 22 14  1  0  0  0  0
 22 15  1  0  0  0  0
 22 16  2  0  0  0  0
 22 17  1  0  0  0  0
M  END
>  <DRUGBANK_ID>
DB04294

>  <SECONDARY_ACCESSION_NUMBERS>
EXPT02637

>  <COMMON_NAME>
5-Phosphoribosyl-1-(Beta-Methylene) Pyrophosphate

$$$$
