3B9
 OpenBabel10282417163D

 56 59  0  0  0  0  0  0  0  0999 V2000
    1.3712   -0.2754    0.0511 C   0  0  0  0  0  0  0  0  0  0  0  0
   -6.1280    2.8494    1.3153 C   0  0  0  0  0  0  0  0  0  0  0  0
   -8.0665    1.6832    1.5607 C   0  0  0  0  0  0  0  0  0  0  0  0
   -5.9704    0.5749    1.4182 C   0  0  0  0  0  0  0  0  0  0  0  0
   -5.0096   -3.0536    1.3469 C   0  0  0  0  0  0  0  0  0  0  0  0
   -7.3541    0.4948    1.5426 C   0  0  0  0  0  0  0  0  0  0  0  0
   -7.9770   -0.7531    1.5525 C   0  0  0  0  0  0  0  0  0  0  0  0
   -7.2375   -1.8686    1.2663 C   0  0  0  0  0  0  0  0  0  0  0  0
   -5.8592   -1.7722    1.3027 C   0  0  0  0  0  0  0  0  0  0  0  0
   -4.1308   -3.1571    0.0819 C   0  0  0  0  0  0  0  0  0  0  0  0
   -7.4580    2.8629    1.4389 N   0  0  0  0  0  0  0  0  0  0  0  0
   -5.3630    1.7541    1.3174 N   0  0  0  0  0  0  0  0  0  0  0  0
   -5.2369   -0.5560    1.3666 N   0  0  0  0  0  0  0  0  0  0  0  0
   -5.5155    4.0598    1.1503 N   0  0  0  0  0  0  0  0  0  0  0  0
   -9.4479    1.6960    1.6091 N   0  0  0  0  0  0  0  0  0  0  0  0
   -5.8995   -4.3246    1.4199 C   0  0  0  0  0  0  0  0  0  0  0  0
   -4.1343   -3.0556    2.6170 C   0  0  0  0  0  0  0  0  0  0  0  0
   -3.1766   -2.0695   -0.0446 N   0  0  0  0  0  0  0  0  0  0  0  0
   -1.8205   -2.2770    0.0068 C   0  0  0  0  0  0  0  0  0  0  0  0
   -1.3296   -3.4097    0.0737 O   0  0  0  0  0  0  0  0  0  0  0  0
   -0.9198   -1.0873   -0.0028 C   0  0  0  0  0  0  0  0  0  0  0  0
    0.4597   -1.3290    0.0301 C   0  0  0  0  0  0  0  0  0  0  0  0
    0.9291    1.0434   -0.0183 C   0  0  0  0  0  0  0  0  0  0  0  0
   -0.4470    1.2975    0.0124 C   0  0  0  0  0  0  0  0  0  0  0  0
   -1.3702    0.2392   -0.0071 C   0  0  0  0  0  0  0  0  0  0  0  0
    1.7655    2.1373   -0.0872 O   0  0  0  0  0  0  0  0  0  0  0  0
    3.1001    1.9602   -0.3931 C   0  0  0  0  0  0  0  0  0  0  0  0
    3.5627    1.2057   -1.4789 C   0  0  0  0  0  0  0  0  0  0  0  0
    4.9361    1.0682   -1.7032 C   0  0  0  0  0  0  0  0  0  0  0  0
    5.8457    1.7479   -0.8946 C   0  0  0  0  0  0  0  0  0  0  0  0
    5.3828    2.5646    0.1364 C   0  0  0  0  0  0  0  0  0  0  0  0
    4.0151    2.6432    0.4084 C   0  0  0  0  0  0  0  0  0  0  0  0
    2.4274   -0.5138    0.1187 H   0  0  0  0  0  0  0  0  0  0  0  0
   -9.0367   -0.8805    1.7302 H   0  0  0  0  0  0  0  0  0  0  0  0
   -7.7709   -2.7863    1.0594 H   0  0  0  0  0  0  0  0  0  0  0  0
   -4.7540   -3.1313   -0.8188 H   0  0  0  0  0  0  0  0  0  0  0  0
   -3.5979   -4.1151    0.0851 H   0  0  0  0  0  0  0  0  0  0  0  0
   -4.5126    4.0946    1.1057 H   0  0  0  0  0  0  0  0  0  0  0  0
   -6.0924    4.8835    1.1719 H   0  0  0  0  0  0  0  0  0  0  0  0
   -9.9964    0.8585    1.7053 H   0  0  0  0  0  0  0  0  0  0  0  0
   -9.9102    2.5908    1.5879 H   0  0  0  0  0  0  0  0  0  0  0  0
   -5.3064   -5.2404    1.4828 H   0  0  0  0  0  0  0  0  0  0  0  0
   -6.5534   -4.2983    2.3031 H   0  0  0  0  0  0  0  0  0  0  0  0
   -6.5382   -4.4203    0.5325 H   0  0  0  0  0  0  0  0  0  0  0  0
   -3.5396   -3.9752    2.6740 H   0  0  0  0  0  0  0  0  0  0  0  0
   -3.4385   -2.2107    2.6450 H   0  0  0  0  0  0  0  0  0  0  0  0
   -4.7479   -3.0005    3.5241 H   0  0  0  0  0  0  0  0  0  0  0  0
   -3.5640   -1.1369    0.0618 H   0  0  0  0  0  0  0  0  0  0  0  0
    0.8440   -2.3470    0.0414 H   0  0  0  0  0  0  0  0  0  0  0  0
   -0.8176    2.3193    0.0629 H   0  0  0  0  0  0  0  0  0  0  0  0
   -2.4272    0.4855   -0.0219 H   0  0  0  0  0  0  0  0  0  0  0  0
    2.8676    0.6896   -2.1356 H   0  0  0  0  0  0  0  0  0  0  0  0
    5.2967    0.4385   -2.5132 H   0  0  0  0  0  0  0  0  0  0  0  0
    6.9141    1.6458   -1.0696 H   0  0  0  0  0  0  0  0  0  0  0  0
    6.0880    3.1404    0.7297 H   0  0  0  0  0  0  0  0  0  0  0  0
    3.6630    3.2298    1.2521 H   0  0  0  0  0  0  0  0  0  0  0  0
  1 22  2  0  0  0  0
  1 23  1  0  0  0  0
  1 33  1  0  0  0  0
  2 11  2  0  0  0  0
  2 12  1  0  0  0  0
  2 14  1  0  0  0  0
  3  6  2  0  0  0  0
  3 11  1  0  0  0  0
  3 15  1  0  0  0  0
  4  6  1  0  0  0  0
  4 12  2  0  0  0  0
  4 13  1  0  0  0  0
  5  9  1  0  0  0  0
  5 10  1  0  0  0  0
  5 16  1  0  0  0  0
  5 17  1  0  0  0  0
  6  7  1  0  0  0  0
  7  8  2  0  0  0  0
  7 34  1  0  0  0  0
  8  9  1  0  0  0  0
  8 35  1  0  0  0  0
  9 13  2  0  0  0  0
 10 18  1  0  0  0  0
 10 36  1  0  0  0  0
 10 37  1  0  0  0  0
 14 38  1  0  0  0  0
 14 39  1  0  0  0  0
 15 40  1  0  0  0  0
 15 41  1  0  0  0  0
 16 42  1  0  0  0  0
 16 43  1  0  0  0  0
 16 44  1  0  0  0  0
 17 45  1  0  0  0  0
 17 46  1  0  0  0  0
 17 47  1  0  0  0  0
 18 19  1  0  0  0  0
 18 48  1  0  0  0  0
 19 20  2  0  0  0  0
 19 21  1  0  0  0  0
 21 22  1  0  0  0  0
 21 25  2  0  0  0  0
 22 49  1  0  0  0  0
 23 24  2  0  0  0  0
 23 26  1  0  0  0  0
 24 25  1  0  0  0  0
 24 50  1  0  0  0  0
 25 51  1  0  0  0  0
 26 27  1  0  0  0  0
 27 28  2  0  0  0  0
 27 32  1  0  0  0  0
 28 29  1  0  0  0  0
 28 52  1  0  0  0  0
 29 30  2  0  0  0  0
 29 53  1  0  0  0  0
 30 31  1  0  0  0  0
 30 54  1  0  0  0  0
 31 32  2  0  0  0  0
 31 55  1  0  0  0  0
 32 56  1  0  0  0  0
M  END
>  <DRUGBANK_ID>
DB07041

>  <COMMON_NAME>
N-[2-(2,4-diaminopyrido[2,3-d]pyrimidin-7-yl)-2-methylpropyl]-4-phenoxybenzamide

$$$$
