
 OpenBabel10282417143D

 20 20  0  0  1  0  0  0  0  0999 V2000
   -1.4149   -0.3946    0.0000 C   0  0  0  0  0  0  0  0  0  0  0  0
   -1.0705    1.0501    0.0056 C   0  0  0  0  0  0  0  0  0  0  0  0
   -0.5065   -1.3815    0.0101 C   0  0  0  0  0  0  0  0  0  0  0  0
   -2.8545   -0.7732    0.0057 C   0  0  0  0  0  0  0  0  0  0  0  0
    0.4011    1.4305    0.0955 C   0  0  2  0  0  0  0  0  0  0  0  0
    0.9464   -1.1065    0.0145 C   0  0  0  0  0  0  0  0  0  0  0  0
   -3.7277    0.2535    0.0089 O   0  0  0  0  0  0  0  0  0  0  0  0
   -3.2371   -1.9353    0.0113 O   0  0  0  0  0  0  0  0  0  0  0  0
    1.4469    0.3290   -0.0915 C   0  0  1  0  0  0  0  0  0  0  0  0
    0.5823    2.0583    1.3733 O   0  0  0  0  0  0  0  0  0  0  0  0
    1.7223   -2.0619    0.0352 O   0  0  0  0  0  0  0  0  0  0  0  0
    2.0987    0.5075   -1.3491 O   0  0  0  0  0  0  0  0  0  0  0  0
   -1.5866    1.4978    0.8650 H   0  0  0  0  0  0  0  0  0  0  0  0
   -1.4898    1.5032   -0.9009 H   0  0  0  0  0  0  0  0  0  0  0  0
   -0.7691   -2.4373    0.0081 H   0  0  0  0  0  0  0  0  0  0  0  0
    0.5782    2.2168   -0.6502 H   0  0  0  0  0  0  0  0  0  0  0  0
   -3.4148    1.1755    0.0127 H   0  0  0  0  0  0  0  0  0  0  0  0
    2.2108    0.4441    0.6895 H   0  0  0  0  0  0  0  0  0  0  0  0
    0.4422    1.3885    2.0658 H   0  0  0  0  0  0  0  0  0  0  0  0
    1.4556    0.3189   -2.0526 H   0  0  0  0  0  0  0  0  0  0  0  0
  1  2  1  0  0  0  0
  1  3  2  0  0  0  0
  1  4  1  0  0  0  0
  2  5  1  0  0  0  0
  2 13  1  0  0  0  0
  2 14  1  0  0  0  0
  3  6  1  0  0  0  0
  3 15  1  0  0  0  0
  4  7  1  0  0  0  0
  4  8  2  0  0  0  0
  5  9  1  0  0  0  0
  5 10  1  0  0  0  0
  5 16  1  6  0  0  0
  6 11  2  0  0  0  0
  6  9  1  0  0  0  0
  7 17  1  0  0  0  0
  9 12  1  0  0  0  0
  9 18  1  1  0  0  0
 10 19  1  0  0  0  0
 12 20  1  0  0  0  0
M  END
>  <DRUGBANK_ID>
DB04347

>  <SECONDARY_ACCESSION_NUMBERS>
EXPT01191

>  <COMMON_NAME>
3-Dehydroshikimate

$$$$
