
 OpenBabel10282417123D

 75 78  0  0  1  0  0  0  0  0999 V2000
   -2.4785    1.5642    0.9901 C   0  0  0  0  0  0  0  0  0  0  0  0
   -3.0915    1.5682   -0.4044 C   0  0  0  0  0  0  0  0  0  0  0  0
   -2.9659   -0.9369   -0.4586 C   0  0  0  0  0  0  0  0  0  0  0  0
   -1.3445   -2.2001    1.0361 C   0  0  0  0  0  0  0  0  0  0  0  0
   -1.5147    0.3727    1.2432 C   0  0  2  0  0  0  0  0  0  0  0  0
    0.5415    1.8287    0.5475 C   0  0  0  0  0  0  0  0  0  0  0  0
    2.9204   -1.7248   -0.3421 C   0  0  0  0  0  0  0  0  0  0  0  0
    4.0928   -1.0693   -1.0492 C   0  0  0  0  0  0  0  0  0  0  0  0
   -1.1662    0.4012    2.7562 C   0  0  0  0  0  0  0  0  0  0  0  0
   -0.2242    0.4800    0.3652 C   0  0  1  0  0  0  0  0  0  0  0  0
   -0.5313    0.4778   -0.6870 H   0  0  0  0  0  0  0  0  0  0  0  0
    0.6854   -0.7751    0.5516 C   0  0  2  0  0  0  0  0  0  0  0  0
    1.0048   -0.8350    1.5975 H   0  0  0  0  0  0  0  0  0  0  0  0
    1.9077   -0.6040   -0.3326 C   0  0  1  0  0  0  0  0  0  0  0  0
    2.7125    0.6532    0.0535 C   0  0  1  0  0  0  0  0  0  0  0  0
    3.0233    0.7193    1.5666 C   0  0  0  0  0  0  0  0  0  0  0  0
    1.5698   -0.5233   -1.3738 H   0  0  0  0  0  0  0  0  0  0  0  0
    3.7522    0.8594   -1.8346 H   0  0  0  0  0  0  0  0  0  0  0  0
   -3.8602    0.2776   -0.6565 C   0  0  2  0  0  0  0  0  0  0  0  0
   -4.3558    0.2763   -1.9926 O   0  0  0  0  0  0  0  0  0  0  0  0
   -0.0297   -2.1021    0.2721 C   0  0  2  0  0  0  0  0  0  0  0  0
   -0.2367   -2.3310   -1.1159 O   0  0  0  0  0  0  0  0  0  0  0  0
   -2.2586   -0.9627    0.9111 C   0  0  1  0  0  0  0  0  0  0  0  0
   -3.0540   -1.0902    1.6587 H   0  0  0  0  0  0  0  0  0  0  0  0
    6.1483   -0.6977    1.2617 C   0  0  0  0  0  0  0  0  0  0  0  0
    5.9100    0.7932    0.9985 C   0  0  0  0  0  0  0  0  0  0  0  0
    7.1843   -1.3502    0.3720 C   0  0  0  0  0  0  0  0  0  0  0  0
    7.0145   -1.6225   -0.8261 O   0  0  0  0  0  0  0  0  0  0  0  0
    3.9837    0.4655   -0.8312 C   0  0  1  0  0  0  0  0  0  0  0  0
    1.8616    1.9054   -0.2433 C   0  0  1  0  0  0  0  0  0  0  0  0
    1.5617    2.0836   -1.6235 O   0  0  0  0  0  0  0  0  0  0  0  0
    5.2716    1.2124   -0.3647 C   0  0  2  0  0  0  0  0  0  0  0  0
    6.3486    1.1515   -1.4537 C   0  0  0  0  0  0  0  0  0  0  0  0
    8.3432   -1.6856    0.9687 N   0  0  0  0  0  0  0  0  0  0  0  0
    9.5119   -1.9406    0.1316 C   0  0  0  0  0  0  0  0  0  0  0  0
   10.7535   -1.1431    0.5559 C   0  0  0  0  0  0  0  0  0  0  0  0
   10.6236    0.1162    0.5427 O   0  0  0  0  0  0  0  0  0  0  0  0
   11.7376   -1.8486    0.9164 O   0  5  0  0  0  0  0  0  0  0  0  0
   -1.9779    2.5212    1.1698 H   0  0  0  0  0  0  0  0  0  0  0  0
   -3.2967    1.5229    1.7206 H   0  0  0  0  0  0  0  0  0  0  0  0
   -2.3199    1.7112   -1.1714 H   0  0  0  0  0  0  0  0  0  0  0  0
   -3.7673    2.4237   -0.5135 H   0  0  0  0  0  0  0  0  0  0  0  0
   -3.5502   -1.8553   -0.5928 H   0  0  0  0  0  0  0  0  0  0  0  0
   -2.2593   -0.9320   -1.2863 H   0  0  0  0  0  0  0  0  0  0  0  0
   -1.1060   -2.3523    2.0960 H   0  0  0  0  0  0  0  0  0  0  0  0
   -1.8880   -3.0928    0.7078 H   0  0  0  0  0  0  0  0  0  0  0  0
   -0.0881    2.6629    0.2273 H   0  0  0  0  0  0  0  0  0  0  0  0
    0.7491    2.0031    1.6072 H   0  0  0  0  0  0  0  0  0  0  0  0
    3.1823   -2.0493    0.6726 H   0  0  0  0  0  0  0  0  0  0  0  0
    2.5913   -2.6114   -0.8909 H   0  0  0  0  0  0  0  0  0  0  0  0
    4.9722   -1.5385   -0.6700 H   0  0  0  0  0  0  0  0  0  0  0  0
    4.1164   -1.3152   -2.1161 H   0  0  0  0  0  0  0  0  0  0  0  0
   -0.5026   -0.4125    3.0596 H   0  0  0  0  0  0  0  0  0  0  0  0
   -0.6843    1.3396    3.0472 H   0  0  0  0  0  0  0  0  0  0  0  0
   -2.0737    0.3111    3.3635 H   0  0  0  0  0  0  0  0  0  0  0  0
    3.6146   -0.1278    1.9063 H   0  0  0  0  0  0  0  0  0  0  0  0
    3.5067    1.6763    1.7875 H   0  0  0  0  0  0  0  0  0  0  0  0
    2.1609    0.7199    2.2326 H   0  0  0  0  0  0  0  0  0  0  0  0
   -4.7226    0.2143    0.0150 H   0  0  0  0  0  0  0  0  0  0  0  0
   -3.5954    0.3226   -2.5985 H   0  0  0  0  0  0  0  0  0  0  0  0
    0.6148   -2.9251    0.6038 H   0  0  0  0  0  0  0  0  0  0  0  0
   -0.5555   -1.5172   -1.5290 H   0  0  0  0  0  0  0  0  0  0  0  0
    6.4287   -0.8252    2.3122 H   0  0  0  0  0  0  0  0  0  0  0  0
    5.2272   -1.2763    1.2072 H   0  0  0  0  0  0  0  0  0  0  0  0
    6.8296    1.3664    1.1604 H   0  0  0  0  0  0  0  0  0  0  0  0
    5.3072    1.1528    1.8322 H   0  0  0  0  0  0  0  0  0  0  0  0
    2.4074    2.8068    0.0602 H   0  0  0  0  0  0  0  0  0  0  0  0
    1.1370    1.2826   -1.9634 H   0  0  0  0  0  0  0  0  0  0  0  0
    5.0004    2.2784   -0.2802 H   0  0  0  0  0  0  0  0  0  0  0  0
    6.0847    1.7044   -2.3576 H   0  0  0  0  0  0  0  0  0  0  0  0
    7.3092    1.5222   -1.0792 H   0  0  0  0  0  0  0  0  0  0  0  0
    6.4802    0.1361   -1.8010 H   0  0  0  0  0  0  0  0  0  0  0  0
    8.4582   -1.6554    1.9714 H   0  0  0  0  0  0  0  0  0  0  0  0
    9.6738   -3.0210    0.1495 H   0  0  0  0  0  0  0  0  0  0  0  0
    9.3054   -1.6644   -0.9127 H   0  0  0  0  0  0  0  0  0  0  0  0
  1 39  1  0  0  0  0
  1 40  1  0  0  0  0
  2  1  1  0  0  0  0
  2 41  1  0  0  0  0
  2 42  1  0  0  0  0
  3 43  1  0  0  0  0
  3 44  1  0  0  0  0
  4 21  1  0  0  0  0
  4 45  1  0  0  0  0
  4 46  1  0  0  0  0
  5 10  1  0  0  0  0
  5  9  1  1  0  0  0
  5  1  1  0  0  0  0
  6 30  1  0  0  0  0
  6 47  1  0  0  0  0
  6 48  1  0  0  0  0
  7 49  1  0  0  0  0
  7 50  1  0  0  0  0
  8  7  1  0  0  0  0
  8 51  1  0  0  0  0
  8 52  1  0  0  0  0
  9 53  1  0  0  0  0
  9 54  1  0  0  0  0
  9 55  1  0  0  0  0
 10  6  1  0  0  0  0
 10 12  1  0  0  0  0
 10 11  1  6  0  0  0
 12 14  1  0  0  0  0
 12 21  1  0  0  0  0
 12 13  1  1  0  0  0
 14 15  1  0  0  0  0
 14  7  1  0  0  0  0
 14 17  1  6  0  0  0
 15 29  1  0  0  0  0
 15 30  1  0  0  0  0
 15 16  1  1  0  0  0
 16 56  1  0  0  0  0
 16 57  1  0  0  0  0
 16 58  1  0  0  0  0
 19  3  1  0  0  0  0
 19  2  1  0  0  0  0
 19 20  1  0  0  0  0
 19 59  1  1  0  0  0
 20 60  1  0  0  0  0
 21 22  1  0  0  0  0
 21 61  1  1  0  0  0
 22 62  1  0  0  0  0
 23  5  1  0  0  0  0
 23  3  1  0  0  0  0
 23  4  1  0  0  0  0
 23 24  1  1  0  0  0
 25 26  1  0  0  0  0
 25 27  1  0  0  0  0
 25 63  1  0  0  0  0
 25 64  1  0  0  0  0
 26 65  1  0  0  0  0
 26 66  1  0  0  0  0
 27 34  1  0  0  0  0
 27 28  2  0  0  0  0
 29  8  1  0  0  0  0
 29 18  1  6  0  0  0
 29 32  1  0  0  0  0
 30 31  1  0  0  0  0
 30 67  1  1  0  0  0
 31 68  1  0  0  0  0
 32 26  1  0  0  0  0
 32 33  1  0  0  0  0
 32 69  1  1  0  0  0
 33 70  1  0  0  0  0
 33 71  1  0  0  0  0
 33 72  1  0  0  0  0
 34 35  1  0  0  0  0
 34 73  1  0  0  0  0
 35 36  1  0  0  0  0
 35 74  1  0  0  0  0
 35 75  1  0  0  0  0
 36 38  1  0  0  0  0
 36 37  2  0  0  0  0
M  CHG  1  38  -1
M  END
>  <DRUGBANK_ID>
DB02691

>  <SECONDARY_ACCESSION_NUMBERS>
EXPT01558

>  <COMMON_NAME>
Glycocholic acid

>  <CAS_NUMBER>
475-31-0

>  <UNII>
G59NX3I3RT

>  <SYNONYMS>
N-choloylglycine

$$$$
