
 OpenBabel10282417103D

140142  0  0  0  0  0  0  0  0999 V2000
    0.7757    0.9137   -0.1105 C   0  0  1  0  0  0  0  0  0  0  0  0
    1.4690   -0.9478    0.7063 O   0  0  0  0  0  0  0  0  0  0  0  0
    1.4182   -3.0497    1.6190 C   0  0  2  0  0  0  0  0  0  0  0  0
   -0.2517   -1.7471    0.6119 C   0  0  2  0  0  0  0  0  0  0  0  0
   -1.2943   -0.0834   -0.1918 C   0  0  2  0  0  0  0  0  0  0  0  0
   -0.7181    1.2150    0.2704 C   0  0  2  0  0  0  0  0  0  0  0  0
    2.1198   -4.9956    3.1804 O   0  0  0  0  0  0  0  0  0  0  0  0
    2.6508   -6.8258    4.8704 C   0  0  2  0  0  0  0  0  0  0  0  0
    3.7055   -9.0959    6.5737 C   0  0  0  0  0  0  0  0  0  0  0  0
    1.2253   -5.1685    3.8635 C   0  0  0  0  0  0  0  0  0  0  0  0
   -0.0930   -3.9112    3.2190 C   0  0  0  0  0  0  0  0  0  0  0  0
   -1.9217   -3.4725    3.4413 C   0  0  0  0  0  0  0  0  0  0  0  0
   -2.3348   -4.2534    4.4486 C   0  0  0  0  0  0  0  0  0  0  0  0
   -3.7221   -4.5432    4.8402 C   0  0  0  0  0  0  0  0  0  0  0  0
   -4.0393   -5.3709    5.8582 C   0  0  0  0  0  0  0  0  0  0  0  0
   -5.4273   -5.6650    6.2578 C   0  0  0  0  0  0  0  0  0  0  0  0
   -5.7328   -6.4835    7.2773 C   0  0  0  0  0  0  0  0  0  0  0  0
   -7.1544   -6.7921    7.6749 C   0  0  0  0  0  0  0  0  0  0  0  0
   -7.4326   -8.2778    7.5599 C   0  0  0  0  0  0  0  0  0  0  0  0
   -6.5278   -9.0627    8.4760 C   0  0  0  0  0  0  0  0  0  0  0  0
   -6.9999   -9.8459    9.4570 C   0  0  0  0  0  0  0  0  0  0  0  0
   -6.1292  -10.5940   10.3548 C   0  0  0  0  0  0  0  0  0  0  0  0
   -6.5932  -11.3824   11.3405 C   0  0  0  0  0  0  0  0  0  0  0  0
   -5.6736  -12.1571   12.2476 C   0  0  2  0  0  0  0  0  0  0  0  0
   -4.2269  -11.8855   11.8900 C   0  0  0  0  0  0  0  0  0  0  0  0
   -5.9402  -13.6456   12.1274 C   0  0  1  0  0  0  0  0  0  0  0  0
   -5.7319  -14.0711   10.7827 O   0  0  0  0  0  0  0  0  0  0  0  0
   -5.0392  -14.4297   13.0645 C   0  0  1  0  0  0  0  0  0  0  0  0
   -5.2368  -13.9974   14.4928 C   0  0  0  0  0  0  0  0  0  0  0  0
   -5.2789  -15.9172   12.9269 C   0  0  2  0  0  0  0  0  0  0  0  0
   -6.7148  -16.2114   13.3083 C   0  0  0  0  0  0  0  0  0  0  0  0
   -4.3762  -16.6434   13.7777 O   0  0  0  0  0  0  0  0  0  0  0  0
   -3.0156  -16.5546   13.6254 C   0  0  0  0  0  0  0  0  0  0  0  0
   -2.4368  -15.6641   12.5336 C   0  0  0  0  0  0  0  0  0  0  0  0
   -1.5634  -14.5841   13.1454 C   0  0  1  0  0  0  0  0  0  0  0  0
   -0.4203  -15.2252   13.8969 C   0  0  0  0  0  0  0  0  0  0  0  0
    0.4143  -16.0747   12.9593 C   0  0  1  0  0  0  0  0  0  0  0  0
    1.0418  -15.2260   11.8952 C   0  0  0  0  0  0  0  0  0  0  0  0
    1.8537  -14.1107   12.4981 C   0  0  1  0  0  0  0  0  0  0  0  0
    3.0289  -14.7162   13.2009 C   0  0  0  0  0  0  0  0  0  0  0  0
    3.8250  -15.6128   12.3062 C   0  0  0  0  0  0  0  0  0  0  0  0
    4.4051  -14.7797   11.2275 C   0  0  2  0  0  0  0  0  0  0  0  0
    5.3129  -13.5391   11.8988 C   0  0  1  0  0  0  0  0  0  0  0  0
    6.4132  -14.2400   12.5447 C   0  0  0  0  0  0  0  0  0  0  0  0
    6.6843  -14.5315   10.9192 C   0  0  2  0  0  0  0  0  0  0  0  0
    8.2494  -15.0331   10.4682 C   0  0  0  0  0  0  0  0  0  0  0  0
    7.8837  -13.9077    9.4748 C   0  0  1  0  0  0  0  0  0  0  0  0
    5.9579  -13.3102    8.6339 C   0  0  1  0  0  0  0  0  0  0  0  0
    6.4716  -15.3919    8.2186 C   0  0  0  0  0  0  0  0  0  0  0  0
    4.6769  -11.3086    7.9397 C   0  0  1  0  0  0  0  0  0  0  0  0
    8.1357  -12.7422   10.2141 O   0  0  0  0  0  0  0  0  0  0  0  0
    6.9509  -15.5720    6.8680 O   0  0  0  0  0  0  0  0  0  0  0  0
    6.3148  -16.5502    8.8026 O   0  0  0  0  0  0  0  0  0  0  0  0
    1.4008    2.4464    0.2903 C   0  0  0  0  0  0  0  0  0  0  0  0
   -1.4631    2.3383   -0.2731 O   0  0  0  0  0  0  0  0  0  0  0  0
   -2.7662   -0.0105    0.2358 N   0  0  0  0  0  0  0  0  0  0  0  0
   -0.7108   -1.0375    1.7481 O   0  0  0  0  0  0  0  0  0  0  0  0
   -2.2644  -17.1865   14.3685 O   0  0  0  0  0  0  0  0  0  0  0  0
   -1.0928  -13.6802   12.1738 O   0  0  0  0  0  0  0  0  0  0  0  0
    1.4149  -16.7736   13.6419 O   0  0  0  0  0  0  0  0  0  0  0  0
    2.2917  -13.1795   11.5625 O   0  0  0  0  0  0  0  0  0  0  0  0
    3.5489  -14.1942   10.3554 O   0  0  0  0  0  0  0  0  0  0  0  0
    5.8366  -12.1444   11.0473 O   0  0  0  0  0  0  0  0  0  0  0  0
    5.5620  -13.0355    9.4886 O   0  0  0  0  0  0  0  0  0  0  0  0
    8.0421  -15.6280   12.1957 O   0  0  0  0  0  0  0  0  0  0  0  0
    4.5738  -12.9128    8.8254 H   0  0  0  0  0  0  0  0  0  0  0  0
    0.7326    1.2190   -1.3161 H   0  0  0  0  0  0  0  0  0  0  0  0
    1.1063   -2.2169    0.0234 H   0  0  0  0  0  0  0  0  0  0  0  0
   -1.2363   -2.1046   -0.0833 H   0  0  0  0  0  0  0  0  0  0  0  0
   -1.2893   -0.0165   -1.2993 H   0  0  0  0  0  0  0  0  0  0  0  0
   -0.7529    1.2313    1.3384 H   0  0  0  0  0  0  0  0  0  0  0  0
    2.6179   -5.3314    4.2534 H   0  0  0  0  0  0  0  0  0  0  0  0
    4.0007   -9.9108    8.0423 H   0  0  0  0  0  0  0  0  0  0  0  0
    4.5520   -9.8572    7.8344 H   0  0  0  0  0  0  0  0  0  0  0  0
    0.5276   -3.9471    2.7623 H   0  0  0  0  0  0  0  0  0  0  0  0
    0.2567   -3.4790    4.0207 H   0  0  0  0  0  0  0  0  0  0  0  0
   -2.7913   -2.9560    2.8563 H   0  0  0  0  0  0  0  0  0  0  0  0
   -1.5103   -4.7226    4.9895 H   0  0  0  0  0  0  0  0  0  0  0  0
   -4.5402   -4.0757    4.2857 H   0  0  0  0  0  0  0  0  0  0  0  0
   -3.2205   -5.8409    6.4114 H   0  0  0  0  0  0  0  0  0  0  0  0
   -6.2532   -5.2000    5.7096 H   0  0  0  0  0  0  0  0  0  0  0  0
   -4.9278   -6.9587    7.8351 H   0  0  0  0  0  0  0  0  0  0  0  0
   -7.3357   -6.4742    8.7016 H   0  0  0  0  0  0  0  0  0  0  0  0
   -7.8403   -6.2402    7.0299 H   0  0  0  0  0  0  0  0  0  0  0  0
   -8.4739   -8.4765    7.8197 H   0  0  0  0  0  0  0  0  0  0  0  0
   -7.2832   -8.5893    6.5261 H   0  0  0  0  0  0  0  0  0  0  0  0
   -5.4517   -8.9717    8.3379 H   0  0  0  0  0  0  0  0  0  0  0  0
   -8.0832   -9.9206    9.5806 H   0  0  0  0  0  0  0  0  0  0  0  0
   -5.0434  -10.5093   10.2239 H   0  0  0  0  0  0  0  0  0  0  0  0
   -7.6654  -11.4795   11.4808 H   0  0  0  0  0  0  0  0  0  0  0  0
   -5.8398  -11.8490   13.2805 H   0  0  0  0  0  0  0  0  0  0  0  0
   -3.9385  -10.8885   12.1994 H   0  0  0  0  0  0  0  0  0  0  0  0
   -3.5953  -12.5895   12.3903 H   0  0  0  0  0  0  0  0  0  0  0  0
   -4.0593  -11.9895   10.8187 H   0  0  0  0  0  0  0  0  0  0  0  0
   -6.9698  -13.8405   12.4019 H   0  0  0  0  0  0  0  0  0  0  0  0
   -6.3315  -13.5614   10.1997 H   0  0  0  0  0  0  0  0  0  0  0  0
   -4.0246  -14.2053   12.8119 H   0  0  0  0  0  0  0  0  0  0  0  0
   -6.2642  -14.1885   14.7809 H   0  0  0  0  0  0  0  0  0  0  0  0
   -4.5752  -14.5414   15.1537 H   0  0  0  0  0  0  0  0  0  0  0  0
   -5.0385  -12.9407   14.6027 H   0  0  0  0  0  0  0  0  0  0  0  0
   -5.1196  -16.2336   11.9002 H   0  0  0  0  0  0  0  0  0  0  0  0
   -7.0078  -17.2024   12.9967 H   0  0  0  0  0  0  0  0  0  0  0  0
   -6.8785  -16.1192   14.3791 H   0  0  0  0  0  0  0  0  0  0  0  0
   -7.3540  -15.5007   12.8038 H   0  0  0  0  0  0  0  0  0  0  0  0
   -1.8588  -16.2558   11.8339 H   0  0  0  0  0  0  0  0  0  0  0  0
   -3.2045  -15.2200   11.9293 H   0  0  0  0  0  0  0  0  0  0  0  0
   -2.1467  -13.9719   13.8192 H   0  0  0  0  0  0  0  0  0  0  0  0
    0.1957  -14.4656   14.3616 H   0  0  0  0  0  0  0  0  0  0  0  0
   -0.8042  -15.8396   14.6990 H   0  0  0  0  0  0  0  0  0  0  0  0
   -0.1978  -16.8458   12.5156 H   0  0  0  0  0  0  0  0  0  0  0  0
    1.5801  -15.8040   11.1780 H   0  0  0  0  0  0  0  0  0  0  0  0
    0.3752  -14.8597   11.2010 H   0  0  0  0  0  0  0  0  0  0  0  0
    1.2731  -13.5033   13.1574 H   0  0  0  0  0  0  0  0  0  0  0  0
    3.6247  -13.9871   13.6928 H   0  0  0  0  0  0  0  0  0  0  0  0
    2.7761  -15.2103   14.0654 H   0  0  0  0  0  0  0  0  0  0  0  0
    4.6285  -16.0911   12.8469 H   0  0  0  0  0  0  0  0  0  0  0  0
    3.2180  -16.3892   11.8624 H   0  0  0  0  0  0  0  0  0  0  0  0
    4.8471  -15.4167   10.5072 H   0  0  0  0  0  0  0  0  0  0  0  0
    4.6798  -13.0266   12.5333 H   0  0  0  0  0  0  0  0  0  0  0  0
    7.0552  -13.5326   13.0322 H   0  0  0  0  0  0  0  0  0  0  0  0
    6.0313  -14.9295   13.3561 H   0  0  0  0  0  0  0  0  0  0  0  0
    9.2918  -14.9267   11.0032 H   0  0  0  0  0  0  0  0  0  0  0  0
    8.3490  -16.0748   10.0503 H   0  0  0  0  0  0  0  0  0  0  0  0
    8.7563  -14.0298    8.7599 H   0  0  0  0  0  0  0  0  0  0  0  0
    6.5656  -13.3211    7.9451 H   0  0  0  0  0  0  0  0  0  0  0  0
    7.5124  -12.6869   10.9594 H   0  0  0  0  0  0  0  0  0  0  0  0
    7.1898  -14.7648    6.3738 H   0  0  0  0  0  0  0  0  0  0  0  0
    2.4145    2.5208   -0.0729 H   0  0  0  0  0  0  0  0  0  0  0  0
    0.8657    3.3635   -0.0644 H   0  0  0  0  0  0  0  0  0  0  0  0
    1.3905    2.4732    1.3656 H   0  0  0  0  0  0  0  0  0  0  0  0
   -1.4846    3.1826    0.2222 H   0  0  0  0  0  0  0  0  0  0  0  0
   -3.2595   -0.7934   -0.1671 H   0  0  0  0  0  0  0  0  0  0  0  0
   -3.2126    0.8653   -0.0532 H   0  0  0  0  0  0  0  0  0  0  0  0
    0.2194   -0.9782    1.9800 H   0  0  0  0  0  0  0  0  0  0  0  0
   -0.7014  -14.1775   11.4844 H   0  0  0  0  0  0  0  0  0  0  0  0
    1.8805  -16.1545   14.1632 H   0  0  0  0  0  0  0  0  0  0  0  0
    2.5984  -13.8127   10.9016 H   0  0  0  0  0  0  0  0  0  0  0  0
    3.8069  -13.3036   10.8631 H   0  0  0  0  0  0  0  0  0  0  0  0
    6.2861  -12.8989   10.4112 H   0  0  0  0  0  0  0  0  0  0  0  0
    8.7878  -16.3534   11.8008 H   0  0  0  0  0  0  0  0  0  0  0  0
  1  2  1  0  0  0  0
  1 54  1  0  0  0  0
  1 67  1  6  0  0  0
  3  2  1  0  0  0  0
  3 68  1  6  0  0  0
  3  7  1  0  0  0  0
  4  3  1  0  0  0  0
  4  5  1  0  0  0  0
  4 69  1  6  0  0  0
  4 57  1  0  0  0  0
  5  6  1  0  0  0  0
  5 70  1  6  0  0  0
  5 56  1  0  0  0  0
  6  1  1  0  0  0  0
  6 71  1  1  0  0  0
  6 55  1  0  0  0  0
  8  7  1  0  0  0  0
  8  9  1  0  0  0  0
  8 10  1  0  0  0  0
  8 72  1  1  0  0  0
  9 73  1  0  0  0  0
  9 74  1  0  0  0  0
 10 11  2  0  0  0  0
 10 75  1  0  0  0  0
 11 12  1  0  0  0  0
 11 76  1  0  0  0  0
 12 13  2  0  0  0  0
 12 77  1  0  0  0  0
 13 14  1  0  0  0  0
 13 78  1  0  0  0  0
 14 15  2  0  0  0  0
 14 79  1  0  0  0  0
 15 16  1  0  0  0  0
 15 80  1  0  0  0  0
 16 17  2  0  0  0  0
 16 81  1  0  0  0  0
 17 18  1  0  0  0  0
 17 82  1  0  0  0  0
 18 19  1  0  0  0  0
 18 83  1  0  0  0  0
 18 84  1  0  0  0  0
 19 20  1  0  0  0  0
 19 85  1  0  0  0  0
 19 86  1  0  0  0  0
 20 21  2  0  0  0  0
 20 87  1  0  0  0  0
 21 22  1  0  0  0  0
 21 88  1  0  0  0  0
 22 23  2  0  0  0  0
 22 89  1  0  0  0  0
 23 90  1  0  0  0  0
 24 23  1  0  0  0  0
 24 91  1  1  0  0  0
 24 25  1  0  0  0  0
 25 92  1  0  0  0  0
 25 93  1  0  0  0  0
 25 94  1  0  0  0  0
 26 24  1  0  0  0  0
 26 27  1  0  0  0  0
 26 28  1  0  0  0  0
 26 95  1  1  0  0  0
 27 96  1  0  0  0  0
 28 29  1  0  0  0  0
 28 30  1  0  0  0  0
 28 97  1  6  0  0  0
 29 98  1  0  0  0  0
 29 99  1  0  0  0  0
 29100  1  0  0  0  0
 30 32  1  0  0  0  0
 30101  1  6  0  0  0
 30 31  1  0  0  0  0
 31102  1  0  0  0  0
 31103  1  0  0  0  0
 31104  1  0  0  0  0
 32 33  1  0  0  0  0
 33 34  1  0  0  0  0
 33 58  2  0  0  0  0
 34105  1  0  0  0  0
 34106  1  0  0  0  0
 35 34  1  0  0  0  0
 35 36  1  0  0  0  0
 35 59  1  0  0  0  0
 35107  1  1  0  0  0
 36108  1  0  0  0  0
 36109  1  0  0  0  0
 37 36  1  0  0  0  0
 37 38  1  0  0  0  0
 37 60  1  0  0  0  0
 37110  1  6  0  0  0
 38111  1  0  0  0  0
 38112  1  0  0  0  0
 39 38  1  0  0  0  0
 39 40  1  0  0  0  0
 39 61  1  0  0  0  0
 39113  1  1  0  0  0
 40 41  1  0  0  0  0
 40114  1  0  0  0  0
 40115  1  0  0  0  0
 41116  1  0  0  0  0
 41117  1  0  0  0  0
 42 41  1  0  0  0  0
 42 43  1  0  0  0  0
 42118  1  6  0  0  0
 42 62  1  0  0  0  0
 43 44  1  0  0  0  0
 43 63  1  0  0  0  0
 43119  1  1  0  0  0
 44120  1  0  0  0  0
 44121  1  0  0  0  0
 45 44  1  0  0  0  0
 45 46  1  0  0  0  0
 45 64  1  0  0  0  0
 45 65  1  6  0  0  0
 46122  1  0  0  0  0
 46123  1  0  0  0  0
 47 46  1  0  0  0  0
 47 51  1  0  0  0  0
 47124  1  6  0  0  0
 48 47  1  0  0  0  0
 48 50  1  0  0  0  0
 48125  1  6  0  0  0
 48 49  1  0  0  0  0
 49 52  1  0  0  0  0
 49 53  2  0  0  0  0
 50  9  1  0  0  0  0
 50 64  1  0  0  0  0
 50 66  1  6  0  0  0
 51126  1  0  0  0  0
 52127  1  0  0  0  0
 54128  1  0  0  0  0
 54129  1  0  0  0  0
 54130  1  0  0  0  0
 55131  1  0  0  0  0
 56132  1  0  0  0  0
 56133  1  0  0  0  0
 57134  1  0  0  0  0
 59135  1  0  0  0  0
 60136  1  0  0  0  0
 61137  1  0  0  0  0
 62138  1  0  0  0  0
 63139  1  0  0  0  0
 65140  1  0  0  0  0
M  END
>  <DRUGBANK_ID>
DB00646

>  <SECONDARY_ACCESSION_NUMBERS>
APRD01146

>  <COMMON_NAME>
Nystatin

>  <CAS_NUMBER>
1400-61-9

>  <UNII>
W1LX4T91WI

>  <SYNONYMS>
Nistatina; NYS; Nystatin; Nystatine; Nystatinum

$$$$
