PSY
 OpenBabel10282417173D

 20 20  0  0  0  0  0  0  0  0999 V2000
    1.3549   -0.1979    0.0098 C   0  0  0  0  0  0  0  0  0  0  0  0
    0.5160   -1.3039    0.0150 C   0  0  0  0  0  0  0  0  0  0  0  0
    0.8020    1.0818   -0.0048 C   0  0  0  0  0  0  0  0  0  0  0  0
   -0.8690   -1.1327   -0.0122 C   0  0  0  0  0  0  0  0  0  0  0  0
   -0.5931    1.2547    0.0083 C   0  0  0  0  0  0  0  0  0  0  0  0
   -1.4444    0.1431   -0.0391 C   0  0  0  0  0  0  0  0  0  0  0  0
   -2.8107    0.3666   -0.1344 O   0  0  0  0  0  0  0  0  0  0  0  0
   -3.8380   -0.9038   -0.3238 S   0  0  0  0  0  0  0  0  0  0  0  0
   -3.5258   -1.5691   -1.5797 O   0  0  0  0  0  0  0  0  0  0  0  0
   -3.8610   -1.6563    0.9140 O   0  0  0  0  0  0  0  0  0  0  0  0
   -5.4128   -0.2015   -0.5149 C   0  0  0  0  0  0  0  0  0  0  0  0
   -5.6683    1.1101   -0.5356 C   0  0  0  0  0  0  0  0  0  0  0  0
    2.4331   -0.3391    0.0244 H   0  0  0  0  0  0  0  0  0  0  0  0
    0.9282   -2.3095    0.0265 H   0  0  0  0  0  0  0  0  0  0  0  0
    1.4656    1.9438   -0.0340 H   0  0  0  0  0  0  0  0  0  0  0  0
   -1.4681   -2.0375   -0.0144 H   0  0  0  0  0  0  0  0  0  0  0  0
   -0.9923    2.2646    0.0534 H   0  0  0  0  0  0  0  0  0  0  0  0
   -6.2117   -0.9251   -0.6251 H   0  0  0  0  0  0  0  0  0  0  0  0
   -6.6942    1.4507   -0.6597 H   0  0  0  0  0  0  0  0  0  0  0  0
   -4.8986    1.8644   -0.4343 H   0  0  0  0  0  0  0  0  0  0  0  0
  1  2  1  0  0  0  0
  1 13  1  0  0  0  0
  2  4  2  0  0  0  0
  2 14  1  0  0  0  0
  3  1  2  0  0  0  0
  3  5  1  0  0  0  0
  3 15  1  0  0  0  0
  4 16  1  0  0  0  0
  5  6  2  0  0  0  0
  5 17  1  0  0  0  0
  6  4  1  0  0  0  0
  6  7  1  0  0  0  0
  8  7  1  0  0  0  0
  8  9  2  0  0  0  0
 10  8  2  0  0  0  0
 11  8  1  0  0  0  0
 11 18  1  0  0  0  0
 12 11  2  0  0  0  0
 12 19  1  0  0  0  0
 12 20  1  0  0  0  0
M  END
>  <DRUGBANK_ID>
DB08433

>  <COMMON_NAME>
phenyl ethenesulfonate

>  <UNII>
HN14RW9PVP

$$$$
