
 OpenBabel10282417213D

 30 32  0  0  0  0  0  0  0  0999 V2000
    0.0168    1.6653    0.0825 N   0  0  0  0  0  0  0  0  0  0  0  0
    1.1461    0.8723    0.0283 C   0  0  0  0  0  0  0  0  0  0  0  0
   -1.0992    0.8729    0.0740 C   0  0  0  0  0  0  0  0  0  0  0  0
    0.7235   -0.4599    0.0310 C   0  0  0  0  0  0  0  0  0  0  0  0
   -0.6949   -0.4461    0.0870 C   0  0  0  0  0  0  0  0  0  0  0  0
    1.6871   -1.4855   -0.0222 C   0  0  0  0  0  0  0  0  0  0  0  0
   -1.6466   -1.5941    0.1054 C   0  0  0  0  0  0  0  0  0  0  0  0
   -2.5292    1.3279    0.0826 C   0  0  3  0  0  0  0  0  0  0  0  0
    2.4989    1.2296   -0.0184 C   0  0  0  0  0  0  0  0  0  0  0  0
    3.0386   -1.1387   -0.0704 C   0  0  0  0  0  0  0  0  0  0  0  0
   -3.1183   -1.1451    0.1870 C   0  0  0  0  0  0  0  0  0  0  0  0
    3.4405    0.1949   -0.0674 C   0  0  0  0  0  0  0  0  0  0  0  0
   -3.3892    0.1945   -0.5215 C   0  0  0  0  0  0  0  0  0  0  0  0
   -2.7278    2.6408   -0.6639 C   0  0  0  0  0  0  0  0  0  0  0  0
   -3.1520    3.6579   -0.1190 O   0  0  0  0  0  0  0  0  0  0  0  0
   -2.4025    2.6588   -1.9877 N   0  0  0  0  0  0  0  0  0  0  0  0
    4.2268   -2.3850   -0.1333 Cl  0  0  0  0  0  0  0  0  0  0  0  0
    0.0253    2.6776    0.0996 H   0  0  0  0  0  0  0  0  0  0  0  0
    1.3799   -2.5266   -0.0267 H   0  0  0  0  0  0  0  0  0  0  0  0
   -1.4226   -2.2409    0.9618 H   0  0  0  0  0  0  0  0  0  0  0  0
   -1.4991   -2.1869   -0.8043 H   0  0  0  0  0  0  0  0  0  0  0  0
   -2.8331    1.4876    1.1258 H   0  0  0  0  0  0  0  0  0  0  0  0
    2.8135    2.2680   -0.0151 H   0  0  0  0  0  0  0  0  0  0  0  0
   -3.4082   -1.0493    1.2412 H   0  0  0  0  0  0  0  0  0  0  0  0
   -3.7542   -1.9281   -0.2418 H   0  0  0  0  0  0  0  0  0  0  0  0
    4.4986    0.4419   -0.1020 H   0  0  0  0  0  0  0  0  0  0  0  0
   -3.1731    0.0708   -1.5912 H   0  0  0  0  0  0  0  0  0  0  0  0
   -4.4522    0.4499   -0.4448 H   0  0  0  0  0  0  0  0  0  0  0  0
   -2.0014    1.8604   -2.4621 H   0  0  0  0  0  0  0  0  0  0  0  0
   -2.5233    3.5246   -2.4961 H   0  0  0  0  0  0  0  0  0  0  0  0
  1 18  1  0  0  0  0
  2  1  1  0  0  0  0
  3  1  1  0  0  0  0
  4  2  2  0  0  0  0
  5  3  2  0  0  0  0
  5  4  1  0  0  0  0
  6  4  1  0  0  0  0
  6 19  1  0  0  0  0
  7  5  1  0  0  0  0
  7 20  1  0  0  0  0
  7 21  1  0  0  0  0
  8  3  1  0  0  0  0
  8 22  1  0  0  0  0
  9  2  1  0  0  0  0
  9 23  1  0  0  0  0
 10  6  2  0  0  0  0
 11  7  1  0  0  0  0
 11 24  1  0  0  0  0
 11 25  1  0  0  0  0
 12  9  2  0  0  0  0
 12 10  1  0  0  0  0
 12 26  1  0  0  0  0
 13  8  1  0  0  0  0
 13 11  1  0  0  0  0
 13 27  1  0  0  0  0
 13 28  1  0  0  0  0
 14  8  1  0  0  0  0
 15 14  2  0  0  0  0
 16 14  1  0  0  0  0
 16 29  1  0  0  0  0
 16 30  1  0  0  0  0
 17 10  1  0  0  0  0
M  END
>  <DRUGBANK_ID>
DB13978

>  <COMMON_NAME>
Selisistat

>  <CAS_NUMBER>
49843-98-3

>  <UNII>
L19ECD5014

>  <SYNONYMS>
rac-6-Chloro-2,3,4,9-tetrahydro-1H-carbazole-1-carboxamide; Selisistat

$$$$
