1241
 OpenBabel10282417113D

 40 40  0  0  0  0  0  0  0  0999 V2000
    1.0578   -0.2083    0.1581 O   0  0  0  0  0  0  0  0  0  0  0  0
    1.3865    1.6933   -2.1017 O   0  0  0  0  0  0  0  0  0  0  0  0
    2.0488    3.6371   -2.8445 O   0  0  0  0  0  0  0  0  0  0  0  0
    2.0893    3.6601   -0.1683 C   0  0  0  0  0  0  0  0  0  0  0  0
    1.6138    2.8032    1.3850 C   0  0  0  0  0  0  0  0  0  0  0  0
    0.2731    2.0609    1.3926 C   0  0  0  0  0  0  0  0  0  0  0  0
    1.3477    4.9472   -0.1177 C   0  0  0  0  0  0  0  0  0  0  0  0
    3.7706    4.1696   -0.1302 C   0  0  0  0  0  0  0  0  0  0  0  0
    0.1104    0.9959    0.2817 C   0  0  0  0  0  0  0  0  0  0  0  0
    1.7487    2.9838   -1.8155 C   0  0  0  0  0  0  0  0  0  0  0  0
    2.4319   -0.4384    0.1415 C   0  0  0  0  0  0  0  0  0  0  0  0
    3.4760    0.4507    0.0651 C   0  0  0  0  0  0  0  0  0  0  0  0
    3.0577   -1.6399    0.0374 C   0  0  0  0  0  0  0  0  0  0  0  0
    4.5367   -1.7055   -0.0318 C   0  0  0  0  0  0  0  0  0  0  0  0
    4.8810    0.5160    0.0253 C   0  0  0  0  0  0  0  0  0  0  0  0
    5.4561   -0.6549   -0.0274 C   0  0  0  0  0  0  0  0  0  0  0  0
    3.2209    1.7756   -0.2020 C   0  0  0  0  0  0  0  0  0  0  0  0
    5.2711   -2.9703   -0.0823 C   0  0  0  0  0  0  0  0  0  0  0  0
    1.3957    0.8850   -1.5288 H   0  0  0  0  0  0  0  0  0  0  0  0
    1.8307    3.4373    2.2569 H   0  0  0  0  0  0  0  0  0  0  0  0
    2.2218    1.9377    1.7261 H   0  0  0  0  0  0  0  0  0  0  0  0
   -0.4957    2.8387    1.3371 H   0  0  0  0  0  0  0  0  0  0  0  0
    0.1323    1.5213    2.3392 H   0  0  0  0  0  0  0  0  0  0  0  0
    1.6410    5.4647    0.7969 H   0  0  0  0  0  0  0  0  0  0  0  0
    1.6372    5.5261   -0.9952 H   0  0  0  0  0  0  0  0  0  0  0  0
    0.2833    4.7264   -0.1312 H   0  0  0  0  0  0  0  0  0  0  0  0
    4.5725    3.4071   -0.1754 H   0  0  0  0  0  0  0  0  0  0  0  0
    4.0669    4.6835   -1.0488 H   0  0  0  0  0  0  0  0  0  0  0  0
    4.0506    4.6263    0.8245 H   0  0  0  0  0  0  0  0  0  0  0  0
   -0.0228    1.5748   -0.6357 H   0  0  0  0  0  0  0  0  0  0  0  0
   -0.9117    0.5820    0.3276 H   0  0  0  0  0  0  0  0  0  0  0  0
    2.4672   -2.5398   -0.0297 H   0  0  0  0  0  0  0  0  0  0  0  0
    5.4456    1.4476   -0.0630 H   0  0  0  0  0  0  0  0  0  0  0  0
    6.5300   -0.6502   -0.0922 H   0  0  0  0  0  0  0  0  0  0  0  0
    3.6205    2.2333    0.7113 H   0  0  0  0  0  0  0  0  0  0  0  0
    3.6281    2.0672   -1.1723 H   0  0  0  0  0  0  0  0  0  0  0  0
    2.1723    1.7068   -0.2049 H   0  0  0  0  0  0  0  0  0  0  0  0
    5.8836   -2.9348   -0.9884 H   0  0  0  0  0  0  0  0  0  0  0  0
    5.8982   -2.9644    0.8149 H   0  0  0  0  0  0  0  0  0  0  0  0
    4.5558   -3.7756   -0.0872 H   0  0  0  0  0  0  0  0  0  0  0  0
  1  9  1  0  0  0  0
  1 11  1  0  0  0  0
  2 10  1  0  0  0  0
  2 19  1  0  0  0  0
  3 10  2  0  0  0  0
  4  5  1  0  0  0  0
  4  7  1  0  0  0  0
  4  8  1  0  0  0  0
  4 10  1  0  0  0  0
  5  6  1  0  0  0  0
  5 20  1  0  0  0  0
  5 21  1  0  0  0  0
  6  9  1  0  0  0  0
  6 22  1  0  0  0  0
  6 23  1  0  0  0  0
  7 24  1  0  0  0  0
  7 25  1  0  0  0  0
  7 26  1  0  0  0  0
  8 27  1  0  0  0  0
  8 28  1  0  0  0  0
  8 29  1  0  0  0  0
  9 30  1  0  0  0  0
  9 31  1  0  0  0  0
 11 12  2  0  0  0  0
 11 13  1  0  0  0  0
 12 15  1  0  0  0  0
 12 17  1  0  0  0  0
 13 14  2  0  0  0  0
 13 32  1  0  0  0  0
 14 16  1  0  0  0  0
 14 18  1  0  0  0  0
 15 16  2  0  0  0  0
 15 33  1  0  0  0  0
 16 34  1  0  0  0  0
 17 35  1  0  0  0  0
 17 36  1  0  0  0  0
 17 37  1  0  0  0  0
 18 38  1  0  0  0  0
 18 39  1  0  0  0  0
 18 40  1  0  0  0  0
M  END
>  <DRUGBANK_ID>
DB01241

>  <SECONDARY_ACCESSION_NUMBERS>
APRD00293

>  <COMMON_NAME>
Gemfibrozil

>  <CAS_NUMBER>
25812-30-0

>  <UNII>
Q8X02027X3

>  <SYNONYMS>
2,2-Dimethyl-5-(2,5-dimethylphenoxy)valeriansäure; 2,2-Dimethyl-5-(2,5-xylyloxy)valeriansäure; 2,2-Dimethyl-5-(2,5-xylyloxy)valeric acid; Gemfibrozil; Gemfibrozilo; Gemfibrozilum

$$$$
