
 OpenBabel10282417143D

 44 44  0  0  0  0  0  0  0  0999 V2000
    1.3749   -0.1961   -0.0076 C   0  0  0  0  0  0  0  0  0  0  0  0
    0.9132    1.1306   -0.0562 C   0  0  0  0  0  0  0  0  0  0  0  0
   -0.4738    1.2892    0.0320 C   0  0  0  0  0  0  0  0  0  0  0  0
   -1.3595    0.2140   -0.0068 C   0  0  0  0  0  0  0  0  0  0  0  0
   -0.8838   -1.0904   -0.0255 C   0  0  0  0  0  0  0  0  0  0  0  0
    0.4972   -1.2921    0.0017 C   0  0  0  0  0  0  0  0  0  0  0  0
   -1.7939   -2.2725   -0.0169 C   0  0  0  0  0  0  0  0  0  0  0  0
   -3.3114   -2.0579    0.0592 C   0  0  1  0  0  0  0  0  0  0  0  0
   -4.0070   -2.8204   -1.0707 C   0  0  0  0  0  0  0  0  0  0  0  0
   -4.9494   -3.7899   -0.9825 C   0  0  0  0  0  0  0  0  0  0  0  0
   -5.5221   -4.4156   -2.1756 C   0  0  0  0  0  0  0  0  0  0  0  0
   -6.4488   -5.3896   -2.1350 C   0  0  0  0  0  0  0  0  0  0  0  0
   -7.0242   -6.0288   -3.3280 C   0  0  0  0  0  0  0  0  0  0  0  0
    1.7656    2.2168   -0.1810 N   0  0  0  0  0  0  0  0  0  0  0  0
    1.2804    3.5779   -0.3968 C   0  0  0  0  0  0  0  0  0  0  0  0
    3.1922    2.0090   -0.4176 C   0  0  0  0  0  0  0  0  0  0  0  0
   -1.2982   -3.4000    0.0159 O   0  0  0  0  0  0  0  0  0  0  0  0
   -5.4520   -4.2795    0.3493 C   0  0  0  0  0  0  0  0  0  0  0  0
   -7.9480   -6.9941   -3.0211 N   0  0  0  0  0  0  0  0  0  0  0  0
   -6.7133   -5.7274   -4.4792 O   0  0  0  0  0  0  0  0  0  0  0  0
   -8.5562   -7.6616   -4.1043 O   0  0  0  0  0  0  0  0  0  0  0  0
   -3.6942   -2.3784    1.5025 C   0  0  0  0  0  0  0  0  0  0  0  0
    2.4387   -0.4167    0.0249 H   0  0  0  0  0  0  0  0  0  0  0  0
   -0.9370    2.2625    0.1356 H   0  0  0  0  0  0  0  0  0  0  0  0
   -2.4095    0.4727   -0.0222 H   0  0  0  0  0  0  0  0  0  0  0  0
    0.9076   -2.3006    0.0222 H   0  0  0  0  0  0  0  0  0  0  0  0
   -3.5890   -1.0164   -0.1013 H   0  0  0  0  0  0  0  0  0  0  0  0
   -3.6764   -2.4927   -2.0621 H   0  0  0  0  0  0  0  0  0  0  0  0
   -5.1645   -4.0688   -3.1458 H   0  0  0  0  0  0  0  0  0  0  0  0
   -6.8417   -5.7825   -1.2111 H   0  0  0  0  0  0  0  0  0  0  0  0
    1.7261    4.2375    0.3532 H   0  0  0  0  0  0  0  0  0  0  0  0
    1.5544    3.9367   -1.3947 H   0  0  0  0  0  0  0  0  0  0  0  0
    0.2014    3.7123   -0.3141 H   0  0  0  0  0  0  0  0  0  0  0  0
    3.6607    1.5617    0.4646 H   0  0  0  0  0  0  0  0  0  0  0  0
    3.3728    1.3688   -1.2899 H   0  0  0  0  0  0  0  0  0  0  0  0
    3.7053    2.9586   -0.6083 H   0  0  0  0  0  0  0  0  0  0  0  0
   -4.6296   -4.7253    0.9100 H   0  0  0  0  0  0  0  0  0  0  0  0
   -5.9539   -3.4665    0.8761 H   0  0  0  0  0  0  0  0  0  0  0  0
   -6.1990   -5.0635    0.3473 H   0  0  0  0  0  0  0  0  0  0  0  0
   -8.2356   -7.2782   -2.0902 H   0  0  0  0  0  0  0  0  0  0  0  0
   -8.1236   -7.2346   -4.8755 H   0  0  0  0  0  0  0  0  0  0  0  0
   -3.1470   -1.7898    2.2411 H   0  0  0  0  0  0  0  0  0  0  0  0
   -4.7511   -2.1641    1.6710 H   0  0  0  0  0  0  0  0  0  0  0  0
   -3.4580   -3.4196    1.7391 H   0  0  0  0  0  0  0  0  0  0  0  0
  1  2  2  0  0  0  0
  1 23  1  0  0  0  0
  2 14  1  0  0  0  0
  2  3  1  0  0  0  0
  3  4  2  0  0  0  0
  3 24  1  0  0  0  0
  4  5  1  0  0  0  0
  4 25  1  0  0  0  0
  5  6  2  0  0  0  0
  5  7  1  0  0  0  0
  6  1  1  0  0  0  0
  6 26  1  0  0  0  0
  7  8  1  0  0  0  0
  7 17  2  0  0  0  0
  8  9  1  0  0  0  0
  8 22  1  0  0  0  0
  8 27  1  6  0  0  0
  9 10  2  0  0  0  0
  9 28  1  0  0  0  0
 10 11  1  0  0  0  0
 10 18  1  0  0  0  0
 11 12  2  0  0  0  0
 11 29  1  0  0  0  0
 12 13  1  0  0  0  0
 12 30  1  0  0  0  0
 13 19  1  0  0  0  0
 13 20  2  0  0  0  0
 14 15  1  0  0  0  0
 14 16  1  0  0  0  0
 15 31  1  0  0  0  0
 15 32  1  0  0  0  0
 15 33  1  0  0  0  0
 16 34  1  0  0  0  0
 16 35  1  0  0  0  0
 16 36  1  0  0  0  0
 18 37  1  0  0  0  0
 18 38  1  0  0  0  0
 18 39  1  0  0  0  0
 19 21  1  0  0  0  0
 19 40  1  0  0  0  0
 21 41  1  0  0  0  0
 22 42  1  0  0  0  0
 22 43  1  0  0  0  0
 22 44  1  0  0  0  0
M  END
>  <DRUGBANK_ID>
DB04297

>  <SECONDARY_ACCESSION_NUMBERS>
EXPT03123

>  <COMMON_NAME>
Trichostatin A

>  <CAS_NUMBER>
58880-19-6

>  <UNII>
3X2S926L3Z

>  <SYNONYMS>
TSA

$$$$
