
 OpenBabel10282417153D

 54 57  0  0  0  0  0  0  0  0999 V2000
    0.0273    0.7725    0.0583 C   0  0  0  0  0  0  0  0  0  0  0  0
   -1.2449    1.3913   -0.0227 C   0  0  0  0  0  0  0  0  0  0  0  0
    0.0169   -0.6109    0.0617 C   0  0  0  0  0  0  0  0  0  0  0  0
   -1.3741    2.7937   -0.0166 N   0  0  0  0  0  0  0  0  0  0  0  0
    1.2741    1.4559    0.1403 C   0  0  0  0  0  0  0  0  0  0  0  0
   -2.3743    0.6534   -0.0507 N   0  0  0  0  0  0  0  0  0  0  0  0
    1.2384   -1.2750    0.1131 C   0  0  0  0  0  0  0  0  0  0  0  0
    2.4763   -0.5945    0.2216 C   0  0  0  0  0  0  0  0  0  0  0  0
   -2.5881    3.5092   -0.0322 C   0  0  0  0  0  0  0  0  0  0  0  0
    2.5094    0.7966    0.2941 C   0  0  0  0  0  0  0  0  0  0  0  0
   -3.5361    3.3428    0.9886 C   0  0  0  0  0  0  0  0  0  0  0  0
   -1.0973   -1.3508    0.0128 N   0  0  0  0  0  0  0  0  0  0  0  0
    5.4791   -1.9573   -3.4538 N   0  0  0  0  0  0  0  0  0  0  0  0
   -4.7621    3.9994    0.9661 C   0  0  0  0  0  0  0  0  0  0  0  0
   -2.2484   -0.6692   -0.0124 C   0  0  0  0  0  0  0  0  0  0  0  0
    3.4753   -1.5090    0.0756 O   0  0  0  0  0  0  0  0  0  0  0  0
   -2.9117    4.3551   -1.1033 C   0  0  0  0  0  0  0  0  0  0  0  0
   -5.0709    4.8218   -0.1103 C   0  0  0  0  0  0  0  0  0  0  0  0
    4.1126   -1.7582   -2.9410 C   0  0  0  0  0  0  0  0  0  0  0  0
    6.5669   -1.5909   -2.5237 C   0  0  0  0  0  0  0  0  0  0  0  0
   -3.2470    2.5774    2.0530 F   0  0  0  0  0  0  0  0  0  0  0  0
    4.7874   -1.0560   -0.1588 C   0  0  0  0  0  0  0  0  0  0  0  0
   -4.1545    5.0038   -1.1467 C   0  0  0  0  0  0  0  0  0  0  0  0
    3.5090    1.7291    0.3530 O   0  0  0  0  0  0  0  0  0  0  0  0
   -6.7480    5.6921   -0.1673 Br  0  0  0  0  0  0  0  0  0  0  0  0
    4.9737   -0.0770   -1.4364 C   0  0  0  0  0  0  0  0  0  0  0  0
    6.3912   -0.1850   -1.9882 C   0  0  0  0  0  0  0  0  0  0  0  0
    3.9422   -0.3289   -2.5260 C   0  0  0  0  0  0  0  0  0  0  0  0
    5.6042   -3.3675   -3.7768 C   0  0  0  0  0  0  0  0  0  0  0  0
    4.7897    1.5868    0.9465 C   0  0  0  0  0  0  0  0  0  0  0  0
   -0.5572    3.3313   -0.2575 H   0  0  0  0  0  0  0  0  0  0  0  0
    1.3034    2.5368    0.0818 H   0  0  0  0  0  0  0  0  0  0  0  0
    1.2321   -2.3604    0.0266 H   0  0  0  0  0  0  0  0  0  0  0  0
   -5.4518    3.8515    1.7891 H   0  0  0  0  0  0  0  0  0  0  0  0
   -3.1649   -1.2495    0.0061 H   0  0  0  0  0  0  0  0  0  0  0  0
   -2.2207    4.4893   -1.9323 H   0  0  0  0  0  0  0  0  0  0  0  0
    3.3476   -1.9873   -3.6887 H   0  0  0  0  0  0  0  0  0  0  0  0
    3.9142   -2.4290   -2.0967 H   0  0  0  0  0  0  0  0  0  0  0  0
    6.6207   -2.2926   -1.6852 H   0  0  0  0  0  0  0  0  0  0  0  0
    7.5438   -1.6595   -3.0116 H   0  0  0  0  0  0  0  0  0  0  0  0
    5.1465   -0.7623    0.8313 H   0  0  0  0  0  0  0  0  0  0  0  0
    5.4093   -1.9488   -0.2594 H   0  0  0  0  0  0  0  0  0  0  0  0
   -4.4047    5.6349   -1.9967 H   0  0  0  0  0  0  0  0  0  0  0  0
    4.8483    0.9927   -1.2765 H   0  0  0  0  0  0  0  0  0  0  0  0
    6.5592    0.5518   -2.7881 H   0  0  0  0  0  0  0  0  0  0  0  0
    7.1222    0.0508   -1.2030 H   0  0  0  0  0  0  0  0  0  0  0  0
    4.0674    0.3660   -3.3679 H   0  0  0  0  0  0  0  0  0  0  0  0
    2.9245   -0.1379   -2.1782 H   0  0  0  0  0  0  0  0  0  0  0  0
    6.5720   -3.5491   -4.2436 H   0  0  0  0  0  0  0  0  0  0  0  0
    5.5097   -3.9858   -2.8757 H   0  0  0  0  0  0  0  0  0  0  0  0
    4.8184   -3.6497   -4.4815 H   0  0  0  0  0  0  0  0  0  0  0  0
    4.7621    1.3219    1.9984 H   0  0  0  0  0  0  0  0  0  0  0  0
    5.4401    0.8777    0.4823 H   0  0  0  0  0  0  0  0  0  0  0  0
    5.4072    2.4544    0.6923 H   0  0  0  0  0  0  0  0  0  0  0  0
  1  2  1  0  0  0  0
  1  3  1  0  0  0  0
  1  5  2  0  0  0  0
  2  4  1  0  0  0  0
  2  6  2  0  0  0  0
  3  7  2  0  0  0  0
  3 12  1  0  0  0  0
  4  9  1  0  0  0  0
  4 31  1  0  0  0  0
  5 10  1  0  0  0  0
  5 32  1  0  0  0  0
  6 15  1  0  0  0  0
  7  8  1  0  0  0  0
  7 33  1  0  0  0  0
  8 10  2  0  0  0  0
  8 16  1  0  0  0  0
  9 11  2  0  0  0  0
  9 17  1  0  0  0  0
 10 24  1  0  0  0  0
 11 14  1  0  0  0  0
 11 21  1  0  0  0  0
 12 15  2  0  0  0  0
 13 19  1  0  0  0  0
 13 29  1  0  0  0  0
 13 20  1  0  0  0  0
 14 18  2  0  0  0  0
 14 34  1  0  0  0  0
 15 35  1  0  0  0  0
 16 22  1  0  0  0  0
 17 23  2  0  0  0  0
 17 36  1  0  0  0  0
 18 23  1  0  0  0  0
 18 25  1  0  0  0  0
 19 28  1  0  0  0  0
 19 37  1  0  0  0  0
 19 38  1  0  0  0  0
 20 27  1  0  0  0  0
 20 39  1  0  0  0  0
 20 40  1  0  0  0  0
 22 26  1  0  0  0  0
 22 41  1  0  0  0  0
 22 42  1  0  0  0  0
 23 43  1  0  0  0  0
 24 30  1  0  0  0  0
 26 27  1  0  0  0  0
 26 28  1  0  0  0  0
 26 44  1  0  0  0  0
 27 45  1  0  0  0  0
 27 46  1  0  0  0  0
 28 47  1  0  0  0  0
 28 48  1  0  0  0  0
 29 49  1  0  0  0  0
 29 50  1  0  0  0  0
 29 51  1  0  0  0  0
 30 52  1  0  0  0  0
 30 53  1  0  0  0  0
 30 54  1  0  0  0  0
M  END
>  <DRUGBANK_ID>
DB05294

>  <SECONDARY_ACCESSION_NUMBERS>
DB08764

>  <COMMON_NAME>
Vandetanib

>  <CAS_NUMBER>
443913-73-3

>  <UNII>
YO460OQ37K

>  <SYNONYMS>
N-(4-Bromo-2-fluorophenyl)-6-methoxy-7-((1-methyl-4-piperidinyl)methoxy)-4-quinazolinamine; N-(4-Bromo-2-fluorophenyl)-6-methoxy-7-((1-methylpiperidin-4-yl)methoxy)quinazolin-4-amine; Vandetanib

$$$$
