9AR
 OpenBabel10282417123D

 37 40  0  0  0  0  0  0  0  0999 V2000
    1.6570    2.3460    0.2906 C   0  0  0  0  0  0  0  0  0  0  0  0
    2.7989    1.5231    0.2851 C   0  0  0  0  0  0  0  0  0  0  0  0
    2.6485    0.1706    0.0991 C   0  0  0  0  0  0  0  0  0  0  0  0
    1.4057   -0.4019   -0.0191 C   0  0  0  0  0  0  0  0  0  0  0  0
    0.1997    0.3438    0.0373 C   0  0  0  0  0  0  0  0  0  0  0  0
    0.3330    1.7836    0.0630 C   0  0  0  0  0  0  0  0  0  0  0  0
   -1.1207   -0.2764    0.0518 C   0  0  0  0  0  0  0  0  0  0  0  0
   -2.2860    0.5139   -0.1195 C   0  0  0  0  0  0  0  0  0  0  0  0
   -2.1331    1.8898   -0.2465 C   0  0  0  0  0  0  0  0  0  0  0  0
   -0.8800    2.5034   -0.1706 C   0  0  0  0  0  0  0  0  0  0  0  0
   -1.3537   -1.6557    0.2772 C   0  0  0  0  0  0  0  0  0  0  0  0
   -2.6332   -2.2212    0.2809 C   0  0  0  0  0  0  0  0  0  0  0  0
   -3.7427   -1.4316    0.0274 C   0  0  0  0  0  0  0  0  0  0  0  0
   -3.5882   -0.0603   -0.1805 C   0  0  0  0  0  0  0  0  0  0  0  0
    2.9572   -1.9563   -0.1880 C   0  0  0  0  0  0  0  0  0  0  0  0
    1.9644    3.7978    0.5330 C   0  0  0  0  0  0  0  0  0  0  0  0
   -5.9313    0.3211   -0.5536 C   0  0  0  0  0  0  0  0  0  0  0  0
   -4.6085    0.8287   -0.4499 O   0  0  0  0  0  0  0  0  0  0  0  0
    3.6705   -0.7287    0.0332 O   0  0  0  0  0  0  0  0  0  0  0  0
    1.5314   -1.7520   -0.2553 O   0  0  0  0  0  0  0  0  0  0  0  0
    3.0330    4.3371    0.2801 O   0  0  0  0  0  0  0  0  0  0  0  0
    0.9365    4.5046    1.0290 O   0  0  0  0  0  0  0  0  0  0  0  0
   -4.9734   -2.0223    0.0045 O   0  0  0  0  0  0  0  0  0  0  0  0
   -0.0376    4.2966   -1.3731 O   0  0  0  0  0  0  0  0  0  0  0  0
   -1.8251    4.6228   -0.1407 O   0  5  0  0  0  0  0  0  0  0  0  0
   -0.9088    3.9106   -0.5789 N   0  3  0  0  0  0  0  0  0  0  0  0
    3.7924    1.9456    0.4021 H   0  0  0  0  0  0  0  0  0  0  0  0
   -3.0119    2.5135   -0.4163 H   0  0  0  0  0  0  0  0  0  0  0  0
   -0.5323   -2.3297    0.5067 H   0  0  0  0  0  0  0  0  0  0  0  0
   -2.7400   -3.2816    0.4873 H   0  0  0  0  0  0  0  0  0  0  0  0
    3.3156   -2.4173   -1.1193 H   0  0  0  0  0  0  0  0  0  0  0  0
    3.1731   -2.6596    0.6276 H   0  0  0  0  0  0  0  0  0  0  0  0
   -6.0125   -0.4010   -1.3733 H   0  0  0  0  0  0  0  0  0  0  0  0
   -6.2614   -0.0911    0.4054 H   0  0  0  0  0  0  0  0  0  0  0  0
   -6.6046    1.1486   -0.7921 H   0  0  0  0  0  0  0  0  0  0  0  0
    1.0123    5.3972    0.6091 H   0  0  0  0  0  0  0  0  0  0  0  0
   -4.9018   -2.9754    0.1607 H   0  0  0  0  0  0  0  0  0  0  0  0
  1  2  2  0  0  0  0
  1  6  1  0  0  0  0
  1 16  1  0  0  0  0
  2  3  1  0  0  0  0
  2 27  1  0  0  0  0
  3  4  2  0  0  0  0
  3 19  1  0  0  0  0
  4  5  1  0  0  0  0
  4 20  1  0  0  0  0
  5  6  2  0  0  0  0
  5  7  1  0  0  0  0
  6 10  1  0  0  0  0
  7  8  2  0  0  0  0
  7 11  1  0  0  0  0
  8  9  1  0  0  0  0
  8 14  1  0  0  0  0
  9 10  2  0  0  0  0
  9 28  1  0  0  0  0
 10 26  1  0  0  0  0
 11 12  2  0  0  0  0
 11 29  1  0  0  0  0
 12 13  1  0  0  0  0
 12 30  1  0  0  0  0
 13 14  2  0  0  0  0
 13 23  1  0  0  0  0
 14 18  1  0  0  0  0
 15 19  1  0  0  0  0
 15 20  1  0  0  0  0
 15 31  1  0  0  0  0
 15 32  1  0  0  0  0
 16 21  2  0  0  0  0
 16 22  1  0  0  0  0
 17 18  1  0  0  0  0
 17 33  1  0  0  0  0
 17 34  1  0  0  0  0
 17 35  1  0  0  0  0
 22 36  1  0  0  0  0
 23 37  1  0  0  0  0
 24 26  2  0  0  0  0
 25 26  1  0  0  0  0
M  CHG  2  25  -1  26   1
M  END
>  <DRUGBANK_ID>
DB02636

>  <SECONDARY_ACCESSION_NUMBERS>
EXPT00354

>  <COMMON_NAME>
9-Hydroxy-8-Methoxy-6-Nitro-Phenanthrol[3,4-D][1,3]Dioxole-5-Carboxylic Acid

$$$$
