
 OpenBabel10282417173D

 55 57  0  0  0  0  0  0  0  0999 V2000
   -0.9692   -1.3649   -0.0174 C   0  0  0  0  0  0  0  0  0  0  0  0
   -2.1718   -0.6605   -0.0003 C   0  0  0  0  0  0  0  0  0  0  0  0
   -2.1395    0.7288    0.0010 C   0  0  0  0  0  0  0  0  0  0  0  0
   -0.9281    1.4395   -0.0110 C   0  0  0  0  0  0  0  0  0  0  0  0
   -4.5374   -0.7209    0.0123 C   0  0  0  0  0  0  0  0  0  0  0  0
    1.6049   -1.1135   -0.0645 C   0  0  0  0  0  0  0  0  0  0  0  0
    2.4289    0.0033   -0.0827 C   0  0  0  0  0  0  0  0  0  0  0  0
    2.0843    2.5288   -0.0857 C   0  0  0  0  0  0  0  0  0  0  0  0
    0.2869    0.7284   -0.0480 C   0  0  0  0  0  0  0  0  0  0  0  0
    0.2635   -0.6705   -0.0543 C   0  0  0  0  0  0  0  0  0  0  0  0
    3.5060    2.9646   -0.1646 C   0  0  0  0  0  0  0  0  0  0  0  0
    4.3227    2.5262   -1.2202 C   0  0  0  0  0  0  0  0  0  0  0  0
    5.7169    2.5378   -1.0591 C   0  0  0  0  0  0  0  0  0  0  0  0
    6.2847    3.1681    0.0479 C   0  0  0  0  0  0  0  0  0  0  0  0
    5.4712    3.7822    1.0006 C   0  0  0  0  0  0  0  0  0  0  0  0
    4.0800    3.6277    0.9313 C   0  0  0  0  0  0  0  0  0  0  0  0
    3.9208   -0.0650   -0.0276 C   0  0  0  0  0  0  0  0  0  0  0  0
    2.0693   -2.5371    0.0285 C   0  0  0  0  0  0  0  0  0  0  0  0
    1.5853   -3.2353    1.2976 C   0  0  0  0  0  0  0  0  0  0  0  0
    1.6331    1.1634   -0.0877 N   0  0  0  0  0  0  0  0  0  0  0  0
   -3.3042   -1.4321    0.0111 O   0  0  0  0  0  0  0  0  0  0  0  0
    1.2432    3.4266    0.0397 O   0  0  0  0  0  0  0  0  0  0  0  0
    0.9258   -4.2747    1.2371 O   0  0  0  0  0  0  0  0  0  0  0  0
    1.5961   -0.8837    4.8473 O   0  0  0  0  0  0  0  0  0  0  0  0
    7.9899    3.1222    0.2748 Cl  0  0  0  0  0  0  0  0  0  0  0  0
    1.9229   -2.7441    2.5362 N   0  0  0  0  0  0  0  0  0  0  0  0
    2.7431   -1.5771    2.8385 C   0  0  1  0  0  0  0  0  0  0  0  0
    1.9657   -0.4656    3.5434 C   0  0  0  0  0  0  0  0  0  0  0  0
    4.0627   -1.9205    3.5261 C   0  0  0  0  0  0  0  0  0  0  0  0
    4.8706   -2.9415    2.7356 C   0  0  0  0  0  0  0  0  0  0  0  0
   -0.9857   -2.4543   -0.0084 H   0  0  0  0  0  0  0  0  0  0  0  0
   -3.0550    1.3110    0.0069 H   0  0  0  0  0  0  0  0  0  0  0  0
   -0.9570    2.5250   -0.0010 H   0  0  0  0  0  0  0  0  0  0  0  0
   -4.6300   -0.1054    0.9137 H   0  0  0  0  0  0  0  0  0  0  0  0
   -4.6369   -0.1122   -0.8933 H   0  0  0  0  0  0  0  0  0  0  0  0
   -5.3572   -1.4447    0.0180 H   0  0  0  0  0  0  0  0  0  0  0  0
    3.8901    1.9909   -2.0629 H   0  0  0  0  0  0  0  0  0  0  0  0
    6.3443    1.9733   -1.7471 H   0  0  0  0  0  0  0  0  0  0  0  0
    5.9184    4.3339    1.8243 H   0  0  0  0  0  0  0  0  0  0  0  0
    3.4622    3.9712    1.7595 H   0  0  0  0  0  0  0  0  0  0  0  0
    4.3228   -0.7304    0.7306 H   0  0  0  0  0  0  0  0  0  0  0  0
    4.3145   -0.4230   -0.9802 H   0  0  0  0  0  0  0  0  0  0  0  0
    4.3803    0.8451    0.3027 H   0  0  0  0  0  0  0  0  0  0  0  0
    1.7104   -3.0852   -0.8502 H   0  0  0  0  0  0  0  0  0  0  0  0
    3.1624   -2.6050    0.0025 H   0  0  0  0  0  0  0  0  0  0  0  0
    1.0560   -1.6832    4.7239 H   0  0  0  0  0  0  0  0  0  0  0  0
    1.5905   -3.3159    3.3013 H   0  0  0  0  0  0  0  0  0  0  0  0
    3.0238   -1.1602    1.9059 H   0  0  0  0  0  0  0  0  0  0  0  0
    2.5840    0.4367    3.6252 H   0  0  0  0  0  0  0  0  0  0  0  0
    1.0606   -0.1962    2.9886 H   0  0  0  0  0  0  0  0  0  0  0  0
    4.6625   -1.0041    3.6197 H   0  0  0  0  0  0  0  0  0  0  0  0
    3.8776   -2.2965    4.5351 H   0  0  0  0  0  0  0  0  0  0  0  0
    5.1286   -2.5649    1.7404 H   0  0  0  0  0  0  0  0  0  0  0  0
    5.8015   -3.1726    3.2587 H   0  0  0  0  0  0  0  0  0  0  0  0
    4.3109   -3.8722    2.6085 H   0  0  0  0  0  0  0  0  0  0  0  0
  1  2  1  0  0  0  0
  1 31  1  0  0  0  0
  2  3  2  0  0  0  0
  2 21  1  0  0  0  0
  3  4  1  0  0  0  0
  3 32  1  0  0  0  0
  4 33  1  0  0  0  0
  5 21  1  0  0  0  0
  5 34  1  0  0  0  0
  5 35  1  0  0  0  0
  5 36  1  0  0  0  0
  6  7  2  0  0  0  0
  7 20  1  0  0  0  0
  8 20  1  0  0  0  0
  8 22  2  0  0  0  0
  9  4  2  0  0  0  0
  9 10  1  0  0  0  0
  9 20  1  0  0  0  0
 10  1  2  0  0  0  0
 10  6  1  0  0  0  0
 11  8  1  0  0  0  0
 11 12  1  0  0  0  0
 11 16  2  0  0  0  0
 12 13  2  0  0  0  0
 12 37  1  0  0  0  0
 13 14  1  0  0  0  0
 13 38  1  0  0  0  0
 14 15  2  0  0  0  0
 14 25  1  0  0  0  0
 15 16  1  0  0  0  0
 15 39  1  0  0  0  0
 16 40  1  0  0  0  0
 17  7  1  0  0  0  0
 17 41  1  0  0  0  0
 17 42  1  0  0  0  0
 17 43  1  0  0  0  0
 18  6  1  0  0  0  0
 18 19  1  0  0  0  0
 18 44  1  0  0  0  0
 18 45  1  0  0  0  0
 19 23  2  0  0  0  0
 19 26  1  0  0  0  0
 24 46  1  0  0  0  0
 26 47  1  0  0  0  0
 27 26  1  0  0  0  0
 27 28  1  0  0  0  0
 27 29  1  0  0  0  0
 27 48  1  6  0  0  0
 28 24  1  0  0  0  0
 28 49  1  0  0  0  0
 28 50  1  0  0  0  0
 29 30  1  0  0  0  0
 29 51  1  0  0  0  0
 29 52  1  0  0  0  0
 30 53  1  0  0  0  0
 30 54  1  0  0  0  0
 30 55  1  0  0  0  0
M  END
>  <DRUGBANK_ID>
DB07981

>  <COMMON_NAME>
2-[1-(4-chlorobenzoyl)-5-methoxy-2-methyl-1H-indol-3-yl]-n-[(1R)-1-(hydroxymethyl)propyl]acetamide

$$$$
