AXA
 OpenBabel10282417163D

 54 58  0  0  0  0  0  0  0  0999 V2000
   -1.3738   -1.5252   -0.0141 C   0  0  0  0  0  0  0  0  0  0  0  0
   -0.3098   -0.6305    0.0225 C   0  0  0  0  0  0  0  0  0  0  0  0
    0.9963   -1.1153    0.0683 N   0  0  0  0  0  0  0  0  0  0  0  0
    2.0684   -0.2688   -0.0028 C   0  0  0  0  0  0  0  0  0  0  0  0
    3.2216   -0.6859    0.0625 O   0  0  0  0  0  0  0  0  0  0  0  0
    1.7166    1.1939   -0.2685 C   0  0  0  0  0  0  0  0  0  0  0  0
    0.4448    1.6814    0.1267 O   0  0  0  0  0  0  0  0  0  0  0  0
   -0.5482    0.7470    0.0436 C   0  0  0  0  0  0  0  0  0  0  0  0
   -1.8503    1.2358    0.0423 C   0  0  0  0  0  0  0  0  0  0  0  0
   -2.9187    0.3477    0.0114 C   0  0  0  0  0  0  0  0  0  0  0  0
   -2.6866   -1.0363   -0.0088 C   0  0  0  0  0  0  0  0  0  0  0  0
   -3.8423   -1.9804   -0.0975 C   0  0  0  0  0  0  0  0  0  0  0  0
   -4.7574   -1.8228    1.0091 N   0  0  0  0  0  0  0  0  0  0  0  0
   -6.0679   -1.4168    0.9917 C   0  0  0  0  0  0  0  0  0  0  0  0
   -6.7115   -1.2954    2.0263 O   0  0  0  0  0  0  0  0  0  0  0  0
   -6.7593   -1.1797   -0.3439 C   0  0  0  0  0  0  0  0  0  0  0  0
   -7.4132   -0.0778   -0.5588 N   0  0  0  0  0  0  0  0  0  0  0  0
   -6.6596   -2.2170   -1.2463 N   0  0  0  0  0  0  0  0  0  0  0  0
   -7.2733   -2.2072   -2.4722 C   0  0  0  0  0  0  0  0  0  0  0  0
   -7.1289   -3.1362   -3.2480 O   0  0  0  0  0  0  0  0  0  0  0  0
   -7.9864   -0.9726   -2.7655 C   0  0  0  0  0  0  0  0  0  0  0  0
   -8.5190   -0.4882   -4.0130 C   0  0  0  0  0  0  0  0  0  0  0  0
   -8.0168   -0.0097   -1.7761 C   0  0  0  0  0  0  0  0  0  0  0  0
   -8.8876    1.3725   -2.2717 S   0  0  0  0  0  0  0  0  0  0  0  0
   -9.1078    0.7533   -3.8438 C   0  0  0  0  0  0  0  0  0  0  0  0
   -9.8612    1.5112   -4.8973 C   0  0  0  0  0  0  0  0  0  0  0  0
   -9.5034    0.9923   -6.2962 C   0  0  0  0  0  0  0  0  0  0  0  0
   -9.4871   -0.5463   -6.3363 C   0  0  0  0  0  0  0  0  0  0  0  0
   -8.4214   -1.1525   -5.3741 C   0  0  1  0  0  0  0  0  0  0  0  0
   -7.0285   -0.9898   -6.0319 C   0  0  0  0  0  0  0  0  0  0  0  0
   -5.8532   -1.5623   -5.2724 C   0  0  0  0  0  0  0  0  0  0  0  0
   -5.2791   -2.5976   -5.5895 O   0  0  0  0  0  0  0  0  0  0  0  0
   -5.4207   -0.8410   -4.1959 N   0  0  0  0  0  0  0  0  0  0  0  0
   -8.6466   -2.2201   -5.2578 H   0  0  0  0  0  0  0  0  0  0  0  0
   -1.1892   -2.5961   -0.0605 H   0  0  0  0  0  0  0  0  0  0  0  0
    1.1949   -2.1015    0.1715 H   0  0  0  0  0  0  0  0  0  0  0  0
    2.4607    1.8058    0.2502 H   0  0  0  0  0  0  0  0  0  0  0  0
    1.8245    1.3693   -1.3454 H   0  0  0  0  0  0  0  0  0  0  0  0
   -2.0324    2.3066    0.0669 H   0  0  0  0  0  0  0  0  0  0  0  0
   -3.9338    0.7420    0.0037 H   0  0  0  0  0  0  0  0  0  0  0  0
   -4.3202   -1.7906   -1.0572 H   0  0  0  0  0  0  0  0  0  0  0  0
   -3.5120   -3.0244   -0.0844 H   0  0  0  0  0  0  0  0  0  0  0  0
   -4.3829   -1.9200    1.9481 H   0  0  0  0  0  0  0  0  0  0  0  0
   -6.0932   -3.0302   -1.0551 H   0  0  0  0  0  0  0  0  0  0  0  0
   -9.6598    2.5871   -4.8450 H   0  0  0  0  0  0  0  0  0  0  0  0
  -10.9358    1.3670   -4.7294 H   0  0  0  0  0  0  0  0  0  0  0  0
   -8.5233    1.3847   -6.5929 H   0  0  0  0  0  0  0  0  0  0  0  0
  -10.2222    1.3781   -7.0284 H   0  0  0  0  0  0  0  0  0  0  0  0
   -9.3024   -0.8818   -7.3641 H   0  0  0  0  0  0  0  0  0  0  0  0
  -10.4846   -0.9137   -6.0617 H   0  0  0  0  0  0  0  0  0  0  0  0
   -7.0422   -1.4972   -7.0050 H   0  0  0  0  0  0  0  0  0  0  0  0
   -6.8006    0.0629   -6.2308 H   0  0  0  0  0  0  0  0  0  0  0  0
   -5.9845   -0.0918   -3.8141 H   0  0  0  0  0  0  0  0  0  0  0  0
   -4.8626   -1.3795   -3.5476 H   0  0  0  0  0  0  0  0  0  0  0  0
  1  2  2  0  0  0  0
  1 11  1  0  0  0  0
  1 35  1  0  0  0  0
  2  3  1  0  0  0  0
  2  8  1  0  0  0  0
  3  4  1  0  0  0  0
  3 36  1  0  0  0  0
  4  5  2  0  0  0  0
  4  6  1  0  0  0  0
  6  7  1  0  0  0  0
  6 37  1  0  0  0  0
  6 38  1  0  0  0  0
  7  8  1  0  0  0  0
  8  9  2  0  0  0  0
  9 10  1  0  0  0  0
  9 39  1  0  0  0  0
 10 11  2  0  0  0  0
 10 40  1  0  0  0  0
 11 12  1  0  0  0  0
 12 13  1  0  0  0  0
 12 41  1  0  0  0  0
 12 42  1  0  0  0  0
 13 14  1  0  0  0  0
 13 43  1  0  0  0  0
 14 15  2  0  0  0  0
 14 16  1  0  0  0  0
 16 17  2  0  0  0  0
 16 18  1  0  0  0  0
 17 23  1  0  0  0  0
 18 19  1  0  0  0  0
 18 44  1  0  0  0  0
 19 20  2  0  0  0  0
 19 21  1  0  0  0  0
 21 22  1  0  0  0  0
 21 23  2  0  0  0  0
 22 25  2  0  0  0  0
 22 29  1  0  0  0  0
 23 24  1  0  0  0  0
 24 25  1  0  0  0  0
 25 26  1  0  0  0  0
 26 27  1  0  0  0  0
 26 45  1  0  0  0  0
 26 46  1  0  0  0  0
 27 28  1  0  0  0  0
 27 47  1  0  0  0  0
 27 48  1  0  0  0  0
 28 29  1  0  0  0  0
 28 49  1  0  0  0  0
 28 50  1  0  0  0  0
 29 30  1  0  0  0  0
 29 34  1  1  0  0  0
 30 31  1  0  0  0  0
 30 51  1  0  0  0  0
 30 52  1  0  0  0  0
 31 32  2  0  0  0  0
 31 33  1  0  0  0  0
 33 53  1  0  0  0  0
 33 54  1  0  0  0  0
M  END
>  <DRUGBANK_ID>
DB07397

>  <COMMON_NAME>
(5S)-5-(2-amino-2-oxoethyl)-4-oxo-N-[(3-oxo-3,4-dihydro-2H-1,4-benzoxazin-6-yl)methyl]-3,4,5,6,7,8-hexahydro[1]benzothieno[2,3-d]pyrimidine-2-carboxamide

$$$$
