
 OpenBabel10282417133D

 23 22  0  0  0  0  0  0  0  0999 V2000
    1.6712   -0.5916    0.1802 C   0  0  0  0  0  0  0  0  0  0  0  0
    1.0245   -1.0708   -0.9889 O   0  0  0  0  0  0  0  0  0  0  0  0
    1.5381   -0.5324   -2.2075 C   0  0  0  0  0  0  0  0  0  0  0  0
    1.1606    0.9235   -2.4368 C   0  0  0  0  0  0  0  0  0  0  0  0
    1.1524    2.0189   -1.5146 O   0  0  0  0  0  0  0  0  0  0  0  0
    0.2607    1.8792   -0.4030 C   0  0  0  0  0  0  0  0  0  0  0  0
   -1.2547    1.7446   -0.3883 C   0  0  0  0  0  0  0  0  0  0  0  0
   -1.7594    0.8594   -1.3885 O   0  0  0  0  0  0  0  0  0  0  0  0
   -1.6955    1.3734   -2.7100 C   0  0  0  0  0  0  0  0  0  0  0  0
    1.0713   -0.8543    1.0464 H   0  0  0  0  0  0  0  0  0  0  0  0
    1.7775    0.4839    0.3013 H   0  0  0  0  0  0  0  0  0  0  0  0
    2.7449   -0.7739    0.1114 H   0  0  0  0  0  0  0  0  0  0  0  0
    2.6026   -0.7164   -2.3101 H   0  0  0  0  0  0  0  0  0  0  0  0
    1.0100   -1.0776   -3.0177 H   0  0  0  0  0  0  0  0  0  0  0  0
    1.3085    1.2858   -3.4477 H   0  0  0  0  0  0  0  0  0  0  0  0
    0.1422    0.5815   -2.3620 H   0  0  0  0  0  0  0  0  0  0  0  0
    0.2708    0.8118   -0.2615 H   0  0  0  0  0  0  0  0  0  0  0  0
    0.6935    2.3288    0.4834 H   0  0  0  0  0  0  0  0  0  0  0  0
   -1.4709    1.2493    0.5815 H   0  0  0  0  0  0  0  0  0  0  0  0
   -1.7663    2.7014   -0.4043 H   0  0  0  0  0  0  0  0  0  0  0  0
   -2.2134    2.3326   -2.7604 H   0  0  0  0  0  0  0  0  0  0  0  0
   -0.7461    1.7738   -3.0575 H   0  0  0  0  0  0  0  0  0  0  0  0
   -1.8643    0.5618   -3.4113 H   0  0  0  0  0  0  0  0  0  0  0  0
  1  2  1  0  0  0  0
  1 10  1  0  0  0  0
  1 11  1  0  0  0  0
  1 12  1  0  0  0  0
  2  3  1  0  0  0  0
  3  4  1  0  0  0  0
  3 13  1  0  0  0  0
  3 14  1  0  0  0  0
  4  5  1  0  0  0  0
  4 15  1  0  0  0  0
  4 16  1  0  0  0  0
  5  6  1  0  0  0  0
  6  7  1  0  0  0  0
  6 17  1  0  0  0  0
  6 18  1  0  0  0  0
  7  8  1  0  0  0  0
  7 19  1  0  0  0  0
  7 20  1  0  0  0  0
  8  9  1  0  0  0  0
  9 21  1  0  0  0  0
  9 22  1  0  0  0  0
  9 23  1  0  0  0  0
M  END
>  <DRUGBANK_ID>
DB02935

>  <SECONDARY_ACCESSION_NUMBERS>
EXPT02086

>  <COMMON_NAME>
Diglyme

>  <CAS_NUMBER>
111-96-6

>  <UNII>
M4BH3X0MVZ

>  <SYNONYMS>
2,2'-oxybis(1-methoxyethane); 2,2'-oxybis[1-(methyloxy)ethane]; 2,5,8-trioxanonane; bis(2-methoxyethyl) ether; di(2-methoxyethyl) ether; diethylene glycol dimethyl ether

$$$$
