
 OpenBabel10282417213D

 69 72  0  0  1  0  0  0  0  0999 V2000
    0.9694    0.6827   -0.2875 C   0  0  2  0  0  0  0  0  0  0  0  0
    0.0788   -0.4709    0.2618 C   0  0  1  0  0  0  0  0  0  0  0  0
    2.3365    0.6098    0.3542 C   0  0  1  0  0  0  0  0  0  0  0  0
    0.3218    2.0395    0.0014 C   0  0  0  0  0  0  0  0  0  0  0  0
   -1.3342   -0.4506   -0.4260 C   0  0  2  0  0  0  0  0  0  0  0  0
    0.7820   -1.8577    0.2365 C   0  0  0  0  0  0  0  0  0  0  0  0
    3.0423   -0.7244    0.0610 C   0  0  2  0  0  0  0  0  0  0  0  0
    3.3585    1.6797   -0.0112 C   0  0  0  0  0  0  0  0  0  0  0  0
   -1.0876    2.1299   -0.5566 C   0  0  0  0  0  0  0  0  0  0  0  0
   -1.9472    0.9399   -0.2047 C   0  0  0  0  0  0  0  0  0  0  0  0
   -2.2375   -1.5422    0.2122 C   0  0  0  0  0  0  0  0  0  0  0  0
   -1.2275   -0.7156   -1.9462 C   0  0  0  0  0  0  0  0  0  0  0  0
    2.2307   -1.8367    0.7402 C   0  0  0  0  0  0  0  0  0  0  0  0
    4.3477   -0.4144    0.7759 C   0  0  2  0  0  0  0  0  0  0  0  0
    3.2865   -1.0479   -1.4236 C   0  0  0  0  0  0  0  0  0  0  0  0
    4.6809    1.0452    0.3879 C   0  0  0  0  0  0  0  0  0  0  0  0
   -3.1971    1.1424    0.2475 C   0  0  0  0  0  0  0  0  0  0  0  0
   -3.7155   -1.3369   -0.0933 C   0  0  0  0  0  0  0  0  0  0  0  0
    5.4228   -1.2766    0.4681 O   0  0  0  0  0  0  0  0  0  0  0  0
   -4.1523    0.0204    0.3919 C   0  0  0  0  0  0  0  0  0  0  0  0
   -5.2900    0.2430    0.7971 O   0  0  0  0  0  0  0  0  0  0  0  0
    1.0964    0.5822   -1.3698 H   0  0  0  0  0  0  0  0  0  0  0  0
   -0.0797   -0.2540    1.3322 H   0  0  0  0  0  0  0  0  0  0  0  0
    2.1866    0.6968    1.4453 H   0  0  0  0  0  0  0  0  0  0  0  0
    6.5664   -1.0664    1.1602 C   0  0  0  0  0  0  0  0  0  0  0  0
    6.4601   -0.3044    2.4797 C   0  0  0  0  0  0  0  0  0  0  0  0
    7.6349   -1.4999    0.7302 O   0  0  0  0  0  0  0  0  0  0  0  0
    6.7656   -1.2063    3.6552 C   0  0  0  0  0  0  0  0  0  0  0  0
    8.2293   -1.6210    3.6419 C   0  0  0  0  0  0  0  0  0  0  0  0
    9.1626   -0.4012    3.6340 C   0  0  0  0  0  0  0  0  0  0  0  0
    8.9656    0.4809    4.8689 C   0  0  0  0  0  0  0  0  0  0  0  0
    9.2525   -0.3100    6.1339 C   0  0  0  0  0  0  0  0  0  0  0  0
    0.9231    2.8426   -0.4414 H   0  0  0  0  0  0  0  0  0  0  0  0
    0.3022    2.2203    1.0839 H   0  0  0  0  0  0  0  0  0  0  0  0
    0.2253   -2.5593    0.8697 H   0  0  0  0  0  0  0  0  0  0  0  0
    0.7728   -2.2787   -0.7711 H   0  0  0  0  0  0  0  0  0  0  0  0
    3.3551    1.9110   -1.0805 H   0  0  0  0  0  0  0  0  0  0  0  0
    3.1946    2.6115    0.5393 H   0  0  0  0  0  0  0  0  0  0  0  0
   -1.0358    2.2060   -1.6492 H   0  0  0  0  0  0  0  0  0  0  0  0
   -1.5389    3.0647   -0.2036 H   0  0  0  0  0  0  0  0  0  0  0  0
   -2.1094   -1.5350    1.3038 H   0  0  0  0  0  0  0  0  0  0  0  0
   -1.9393   -2.5398   -0.1325 H   0  0  0  0  0  0  0  0  0  0  0  0
   -0.6181    0.0311   -2.4636 H   0  0  0  0  0  0  0  0  0  0  0  0
   -0.7856   -1.6945   -2.1548 H   0  0  0  0  0  0  0  0  0  0  0  0
   -2.2088   -0.6938   -2.4296 H   0  0  0  0  0  0  0  0  0  0  0  0
    2.2103   -1.6802    1.8285 H   0  0  0  0  0  0  0  0  0  0  0  0
    2.7025   -2.8147    0.5871 H   0  0  0  0  0  0  0  0  0  0  0  0
    4.0949   -0.5334    1.8326 H   0  0  0  0  0  0  0  0  0  0  0  0
    3.7908   -0.2300   -1.9468 H   0  0  0  0  0  0  0  0  0  0  0  0
    3.9184   -1.9375   -1.5283 H   0  0  0  0  0  0  0  0  0  0  0  0
    2.3574   -1.2493   -1.9620 H   0  0  0  0  0  0  0  0  0  0  0  0
    5.4122    1.0973   -0.4277 H   0  0  0  0  0  0  0  0  0  0  0  0
    5.1190    1.5970    1.2256 H   0  0  0  0  0  0  0  0  0  0  0  0
   -3.6033    2.1293    0.4386 H   0  0  0  0  0  0  0  0  0  0  0  0
   -4.3067   -2.1020    0.4193 H   0  0  0  0  0  0  0  0  0  0  0  0
   -3.9253   -1.4074   -1.1656 H   0  0  0  0  0  0  0  0  0  0  0  0
    7.0851    0.5885    2.3980 H   0  0  0  0  0  0  0  0  0  0  0  0
    5.4954    0.1300    2.7192 H   0  0  0  0  0  0  0  0  0  0  0  0
    6.5184   -0.6715    4.5815 H   0  0  0  0  0  0  0  0  0  0  0  0
    6.1107   -2.0853    3.6446 H   0  0  0  0  0  0  0  0  0  0  0  0
    8.4256   -2.2709    4.4975 H   0  0  0  0  0  0  0  0  0  0  0  0
    8.4382   -2.2502    2.7733 H   0  0  0  0  0  0  0  0  0  0  0  0
   10.1993   -0.7431    3.5723 H   0  0  0  0  0  0  0  0  0  0  0  0
    9.0164    0.2065    2.7328 H   0  0  0  0  0  0  0  0  0  0  0  0
    9.6305    1.3483    4.8080 H   0  0  0  0  0  0  0  0  0  0  0  0
    7.9482    0.8894    4.9097 H   0  0  0  0  0  0  0  0  0  0  0  0
   10.2744   -0.6996    6.1033 H   0  0  0  0  0  0  0  0  0  0  0  0
    9.1308    0.3142    7.0198 H   0  0  0  0  0  0  0  0  0  0  0  0
    8.5709   -1.1589    6.2472 H   0  0  0  0  0  0  0  0  0  0  0  0
  1  2  1  0  0  0  0
  1  3  1  0  0  0  0
  1  4  1  0  0  0  0
  1 22  1  6  0  0  0
  2  5  1  0  0  0  0
  2  6  1  0  0  0  0
  2 23  1  1  0  0  0
  3  7  1  0  0  0  0
  3  8  1  0  0  0  0
  3 24  1  1  0  0  0
  4  9  1  0  0  0  0
  4 33  1  0  0  0  0
  4 34  1  0  0  0  0
  5 10  1  0  0  0  0
  5 11  1  0  0  0  0
  5 12  1  6  0  0  0
  6 13  1  0  0  0  0
  6 35  1  0  0  0  0
  6 36  1  0  0  0  0
  7 14  1  0  0  0  0
  7 15  1  6  0  0  0
  7 13  1  0  0  0  0
  8 16  1  0  0  0  0
  8 37  1  0  0  0  0
  8 38  1  0  0  0  0
  9 10  1  0  0  0  0
  9 39  1  0  0  0  0
  9 40  1  0  0  0  0
 10 17  2  0  0  0  0
 11 18  1  0  0  0  0
 11 41  1  0  0  0  0
 11 42  1  0  0  0  0
 12 43  1  0  0  0  0
 12 44  1  0  0  0  0
 12 45  1  0  0  0  0
 13 46  1  0  0  0  0
 13 47  1  0  0  0  0
 14 16  1  0  0  0  0
 14 48  1  1  0  0  0
 14 19  1  0  0  0  0
 15 49  1  0  0  0  0
 15 50  1  0  0  0  0
 15 51  1  0  0  0  0
 16 52  1  0  0  0  0
 16 53  1  0  0  0  0
 17 20  1  0  0  0  0
 17 54  1  0  0  0  0
 18 20  1  0  0  0  0
 18 55  1  0  0  0  0
 18 56  1  0  0  0  0
 19 25  1  0  0  0  0
 20 21  2  0  0  0  0
 25 26  1  0  0  0  0
 25 27  2  0  0  0  0
 26 28  1  0  0  0  0
 26 57  1  0  0  0  0
 26 58  1  0  0  0  0
 28 29  1  0  0  0  0
 28 59  1  0  0  0  0
 28 60  1  0  0  0  0
 29 30  1  0  0  0  0
 29 61  1  0  0  0  0
 29 62  1  0  0  0  0
 30 31  1  0  0  0  0
 30 63  1  0  0  0  0
 30 64  1  0  0  0  0
 31 32  1  0  0  0  0
 31 65  1  0  0  0  0
 31 66  1  0  0  0  0
 32 67  1  0  0  0  0
 32 68  1  0  0  0  0
 32 69  1  0  0  0  0
M  END
>  <DRUGBANK_ID>
DB13944

>  <SECONDARY_ACCESSION_NUMBERS>
DBSALT001030; DBSALT001031; DB13945

>  <COMMON_NAME>
Testosterone enanthate

>  <CAS_NUMBER>
315-37-7

>  <UNII>
7Z6522T8N9

>  <SYNONYMS>
Testosterone enanthate; Testosterone heptanoate

$$$$
