
 OpenBabel10282417183D

 52 54  0  0  0  0  0  0  0  0999 V2000
    1.0905   -0.1347    0.0703 C   0  0  0  0  0  0  0  0  0  0  0  0
    2.0110    6.7378   -1.6886 C   0  0  0  0  0  0  0  0  0  0  0  0
    2.9207    2.7663   -5.3791 C   0  0  0  0  0  0  0  0  0  0  0  0
    7.3572   -4.1147   -9.5482 C   0  0  0  0  0  0  0  0  0  0  0  0
    4.4887   -6.4363   -8.4688 C   0  0  0  0  0  0  0  0  0  0  0  0
    0.6549    1.3005    0.1545 C   0  0  0  0  0  0  0  0  0  0  0  0
    0.7643    5.8597   -1.5695 C   0  0  0  0  0  0  0  0  0  0  0  0
    5.2519   -1.7129   -6.7275 C   0  0  0  0  0  0  0  0  0  0  0  0
    3.4528   -1.4257   -4.9366 C   0  0  0  0  0  0  0  0  0  0  0  0
    5.9483   -2.4927   -7.6761 C   0  0  0  0  0  0  0  0  0  0  0  0
    3.2271   -0.0947   -4.9402 C   0  0  0  0  0  0  0  0  0  0  0  0
    3.7090   -3.5059   -6.3920 C   0  0  0  0  0  0  0  0  0  0  0  0
    4.1214   -2.1993   -6.0515 C   0  0  0  0  0  0  0  0  0  0  0  0
    5.5387   -3.7890   -7.9927 C   0  0  0  0  0  0  0  0  0  0  0  0
    4.3976   -4.3034   -7.3513 C   0  0  0  0  0  0  0  0  0  0  0  0
    2.6334    0.7305   -3.8887 C   0  0  0  0  0  0  0  0  0  0  0  0
    1.9299    2.7195   -3.1015 C   0  0  0  0  0  0  0  0  0  0  0  0
    1.7073    1.7719   -2.1511 C   0  0  0  0  0  0  0  0  0  0  0  0
    1.5700    4.0806   -2.9652 C   0  0  0  0  0  0  0  0  0  0  0  0
    0.7920    3.5336   -0.7102 C   0  0  0  0  0  0  0  0  0  0  0  0
    2.1432    0.5280   -2.6488 N   0  0  0  0  0  0  0  0  0  0  0  0
    2.5141    2.0931   -4.1661 N   0  0  0  0  0  0  0  0  0  0  0  0
    1.1038    2.1638   -0.9336 N   0  0  0  0  0  0  0  0  0  0  0  0
    1.0867    4.4401   -1.7253 N   0  0  0  0  0  0  0  0  0  0  0  0
    1.6646    4.8939   -3.8881 O   0  0  0  0  0  0  0  0  0  0  0  0
    0.2620    3.9175    0.3392 O   0  0  0  0  0  0  0  0  0  0  0  0
    6.1962   -4.5848   -8.8880 O   0  0  0  0  0  0  0  0  0  0  0  0
    3.8479   -5.5566   -7.5419 O   0  0  0  0  0  0  0  0  0  0  0  0
    3.1679   -2.0213   -4.0756 H   0  0  0  0  0  0  0  0  0  0  0  0
    3.5249    0.4108   -5.8577 H   0  0  0  0  0  0  0  0  0  0  0  0
    0.7077   -0.5815   -0.8490 H   0  0  0  0  0  0  0  0  0  0  0  0
    0.7044   -0.7115    0.9156 H   0  0  0  0  0  0  0  0  0  0  0  0
    2.1820   -0.1858    0.0794 H   0  0  0  0  0  0  0  0  0  0  0  0
    2.5124    6.6328   -2.6562 H   0  0  0  0  0  0  0  0  0  0  0  0
    1.7521    7.7942   -1.5870 H   0  0  0  0  0  0  0  0  0  0  0  0
    2.7429    6.4660   -0.9232 H   0  0  0  0  0  0  0  0  0  0  0  0
    3.9970    2.6383   -5.5010 H   0  0  0  0  0  0  0  0  0  0  0  0
    2.3419    2.3577   -6.2083 H   0  0  0  0  0  0  0  0  0  0  0  0
    2.7325    3.8324   -5.3401 H   0  0  0  0  0  0  0  0  0  0  0  0
    7.1254   -3.2464  -10.1703 H   0  0  0  0  0  0  0  0  0  0  0  0
    8.1562   -3.9041   -8.8324 H   0  0  0  0  0  0  0  0  0  0  0  0
    7.7067   -4.9149  -10.2106 H   0  0  0  0  0  0  0  0  0  0  0  0
    4.4689   -6.0242   -9.4851 H   0  0  0  0  0  0  0  0  0  0  0  0
    5.5069   -6.6822   -8.1429 H   0  0  0  0  0  0  0  0  0  0  0  0
    3.9396   -7.3814   -8.5075 H   0  0  0  0  0  0  0  0  0  0  0  0
   -0.4440    1.3599    0.1995 H   0  0  0  0  0  0  0  0  0  0  0  0
    0.9976    1.7245    1.1131 H   0  0  0  0  0  0  0  0  0  0  0  0
    0.0529    6.1310   -2.3617 H   0  0  0  0  0  0  0  0  0  0  0  0
    0.2715    6.0617   -0.6142 H   0  0  0  0  0  0  0  0  0  0  0  0
    5.6457   -0.7233   -6.5120 H   0  0  0  0  0  0  0  0  0  0  0  0
    6.8301   -2.0633   -8.1422 H   0  0  0  0  0  0  0  0  0  0  0  0
    2.8342   -3.9367   -5.9071 H   0  0  0  0  0  0  0  0  0  0  0  0
  1 31  1  0  0  0  0
  1 32  1  0  0  0  0
  1 33  1  0  0  0  0
  2 34  1  0  0  0  0
  2 35  1  0  0  0  0
  2 36  1  0  0  0  0
  3 37  1  0  0  0  0
  3 38  1  0  0  0  0
  3 39  1  0  0  0  0
  4 40  1  0  0  0  0
  4 41  1  0  0  0  0
  4 42  1  0  0  0  0
  5 43  1  0  0  0  0
  5 44  1  0  0  0  0
  5 45  1  0  0  0  0
  6  1  1  0  0  0  0
  6 46  1  0  0  0  0
  6 47  1  0  0  0  0
  7  2  1  0  0  0  0
  7 48  1  0  0  0  0
  7 49  1  0  0  0  0
  8 50  1  0  0  0  0
 10  8  2  0  0  0  0
 10 51  1  0  0  0  0
 11  9  2  0  0  0  0
 12 52  1  0  0  0  0
 13  8  1  0  0  0  0
 13  9  1  0  0  0  0
 13 12  2  0  0  0  0
 14 10  1  0  0  0  0
 15 12  1  0  0  0  0
 15 14  2  0  0  0  0
 16 11  1  0  0  0  0
 18 17  2  0  0  0  0
 19 17  1  0  0  0  0
 21 16  2  0  0  0  0
 21 18  1  0  0  0  0
 22  3  1  0  0  0  0
 22 16  1  0  0  0  0
 22 17  1  0  0  0  0
 23  6  1  0  0  0  0
 23 18  1  0  0  0  0
 23 20  1  0  0  0  0
 24  7  1  0  0  0  0
 24 19  1  0  0  0  0
 24 20  1  0  0  0  0
 25 19  2  0  0  0  0
 26 20  2  0  0  0  0
 27  4  1  0  0  0  0
 27 14  1  0  0  0  0
 28  5  1  0  0  0  0
 28 15  1  0  0  0  0
 29  9  1  0  0  0  0
 30 11  1  0  0  0  0
M  END
>  <DRUGBANK_ID>
DB11757

>  <COMMON_NAME>
Istradefylline

>  <CAS_NUMBER>
155270-99-8

>  <UNII>
2GZ0LIK7T4

>  <SYNONYMS>
Istradefylline

$$$$
