376
 OpenBabel10282417103D

 53 55  0  0  1  0  0  0  0  0999 V2000
    1.1248   -0.0683    0.0640 O   0  0  0  0  0  0  0  0  0  0  0  0
   -0.8594   -1.2628   -2.9249 N   0  0  0  0  0  0  0  0  0  0  0  0
    1.1954    2.2179   -0.8068 C   0  0  0  0  0  0  0  0  0  0  0  0
    0.5258    0.7807   -0.9544 C   0  0  3  0  0  0  0  0  0  0  0  0
    1.2486    2.6253    0.6714 C   0  0  0  0  0  0  0  0  0  0  0  0
    0.6065    3.3659   -1.6625 C   0  0  0  0  0  0  0  0  0  0  0  0
    1.0725    0.1748   -2.2990 C   0  0  0  0  0  0  0  0  0  0  0  0
    1.8805    3.9969    0.8510 C   0  0  0  0  0  0  0  0  0  0  0  0
    1.2098    4.7396   -1.4534 C   0  0  0  0  0  0  0  0  0  0  0  0
    1.1610    5.0658    0.0403 C   0  0  0  0  0  0  0  0  0  0  0  0
    0.5737   -1.2298   -2.6675 C   0  0  0  0  0  0  0  0  0  0  0  0
   -1.0036    0.7414   -0.6490 C   0  0  0  0  0  0  0  0  0  0  0  0
   -1.3989   -0.1316   -3.6748 C   0  0  0  0  0  0  0  0  0  0  0  0
   -1.3618   -2.5528   -3.3660 C   0  0  0  0  0  0  0  0  0  0  0  0
   -2.9147   -0.0874   -3.6163 C   0  0  0  0  0  0  0  0  0  0  0  0
   -2.8902   -2.5851   -3.2911 C   0  0  0  0  0  0  0  0  0  0  0  0
   -3.5392   -1.4033   -4.0117 C   0  0  0  0  0  0  0  0  0  0  0  0
   -1.6494   -0.4628   -0.2944 C   0  0  0  0  0  0  0  0  0  0  0  0
   -1.8930    1.8106   -0.8061 C   0  0  0  0  0  0  0  0  0  0  0  0
   -3.0553   -0.5362   -0.2057 C   0  0  0  0  0  0  0  0  0  0  0  0
   -3.2543    1.8135   -0.5221 C   0  0  0  0  0  0  0  0  0  0  0  0
   -3.8596    0.5903   -0.2883 C   0  0  0  0  0  0  0  0  0  0  0  0
    2.0897   -0.0038   -0.0151 H   0  0  0  0  0  0  0  0  0  0  0  0
    2.2436    2.1183   -1.1305 H   0  0  0  0  0  0  0  0  0  0  0  0
    0.2389    2.6168    1.0978 H   0  0  0  0  0  0  0  0  0  0  0  0
    1.8391    1.8991    1.2413 H   0  0  0  0  0  0  0  0  0  0  0  0
    0.5022    3.1026   -2.7196 H   0  0  0  0  0  0  0  0  0  0  0  0
   -0.3643    3.6259   -1.2865 H   0  0  0  0  0  0  0  0  0  0  0  0
    0.9193    0.8554   -3.1434 H   0  0  0  0  0  0  0  0  0  0  0  0
    2.1699    0.0932   -2.2282 H   0  0  0  0  0  0  0  0  0  0  0  0
    1.8617    4.2532    1.9136 H   0  0  0  0  0  0  0  0  0  0  0  0
    2.9285    3.9509    0.5347 H   0  0  0  0  0  0  0  0  0  0  0  0
    0.5863    5.4712   -1.9888 H   0  0  0  0  0  0  0  0  0  0  0  0
    2.2181    4.7930   -1.8641 H   0  0  0  0  0  0  0  0  0  0  0  0
    0.1142    5.1204    0.3773 H   0  0  0  0  0  0  0  0  0  0  0  0
    1.6015    6.0484    0.2199 H   0  0  0  0  0  0  0  0  0  0  0  0
    1.1294   -1.5914   -3.5427 H   0  0  0  0  0  0  0  0  0  0  0  0
    0.8287   -1.9153   -1.8454 H   0  0  0  0  0  0  0  0  0  0  0  0
   -1.0373   -0.1406   -4.7042 H   0  0  0  0  0  0  0  0  0  0  0  0
   -1.0862    0.8257   -3.2516 H   0  0  0  0  0  0  0  0  0  0  0  0
   -0.9731   -3.3560   -2.7257 H   0  0  0  0  0  0  0  0  0  0  0  0
   -1.0309   -2.7571   -4.3891 H   0  0  0  0  0  0  0  0  0  0  0  0
   -3.2875    0.7523   -4.2099 H   0  0  0  0  0  0  0  0  0  0  0  0
   -3.2466    0.1320   -2.6122 H   0  0  0  0  0  0  0  0  0  0  0  0
   -3.2023   -2.5999   -2.2395 H   0  0  0  0  0  0  0  0  0  0  0  0
   -3.2594   -3.5168   -3.7298 H   0  0  0  0  0  0  0  0  0  0  0  0
   -4.6099   -1.3730   -3.7827 H   0  0  0  0  0  0  0  0  0  0  0  0
   -3.4233   -1.5196   -5.0912 H   0  0  0  0  0  0  0  0  0  0  0  0
   -1.0819   -1.3872   -0.2793 H   0  0  0  0  0  0  0  0  0  0  0  0
   -1.6613    2.6898   -1.3758 H   0  0  0  0  0  0  0  0  0  0  0  0
   -3.5321   -1.5184   -0.2171 H   0  0  0  0  0  0  0  0  0  0  0  0
   -3.8298    2.7158   -0.6720 H   0  0  0  0  0  0  0  0  0  0  0  0
   -4.9378    0.5291   -0.3497 H   0  0  0  0  0  0  0  0  0  0  0  0
  1  4  1  0  0  0  0
  1 23  1  0  0  0  0
  2 11  1  0  0  0  0
  2 13  1  0  0  0  0
  2 14  1  0  0  0  0
  3  4  1  0  0  0  0
  3  5  1  0  0  0  0
  3  6  1  0  0  0  0
  3 24  1  0  0  0  0
  4  7  1  0  0  0  0
  4 12  1  0  0  0  0
  5  8  1  0  0  0  0
  5 25  1  0  0  0  0
  5 26  1  0  0  0  0
  6  9  1  0  0  0  0
  6 27  1  0  0  0  0
  6 28  1  0  0  0  0
  7 11  1  0  0  0  0
  7 29  1  0  0  0  0
  7 30  1  0  0  0  0
  8 10  1  0  0  0  0
  8 31  1  0  0  0  0
  8 32  1  0  0  0  0
  9 10  1  0  0  0  0
  9 33  1  0  0  0  0
  9 34  1  0  0  0  0
 10 35  1  0  0  0  0
 10 36  1  0  0  0  0
 11 37  1  0  0  0  0
 11 38  1  0  0  0  0
 12 18  2  0  0  0  0
 12 19  1  0  0  0  0
 13 15  1  0  0  0  0
 13 39  1  0  0  0  0
 13 40  1  0  0  0  0
 14 16  1  0  0  0  0
 14 41  1  0  0  0  0
 14 42  1  0  0  0  0
 15 17  1  0  0  0  0
 15 43  1  0  0  0  0
 15 44  1  0  0  0  0
 16 17  1  0  0  0  0
 16 45  1  0  0  0  0
 16 46  1  0  0  0  0
 17 47  1  0  0  0  0
 17 48  1  0  0  0  0
 18 20  1  0  0  0  0
 18 49  1  0  0  0  0
 19 21  2  0  0  0  0
 19 50  1  0  0  0  0
 20 22  2  0  0  0  0
 20 51  1  0  0  0  0
 21 22  1  0  0  0  0
 21 52  1  0  0  0  0
 22 53  1  0  0  0  0
M  END
>  <DRUGBANK_ID>
DB00376

>  <SECONDARY_ACCESSION_NUMBERS>
APRD00070

>  <COMMON_NAME>
Trihexyphenidyl

>  <CAS_NUMBER>
144-11-6

>  <UNII>
6RC5V8B7PO

>  <SYNONYMS>
Trihexifenidilo; Trihexyphenidyl; Trihexyph√©nidyle; Trihexyphenidylum

$$$$
