
 OpenBabel10282417123D

 89 92  0  0  0  0  0  0  0  0999 V2000
   -8.2577   -1.4989   -5.8690 P   0  0  0  0  0  0  0  0  0  0  0  0
   -9.8777    0.0445   -2.3098 O   0  0  0  0  0  0  0  0  0  0  0  0
   -9.3089    2.5476   -4.0751 O   0  0  0  0  0  0  0  0  0  0  0  0
   -6.7823    1.5080   -3.5630 O   0  0  0  0  0  0  0  0  0  0  0  0
   -9.0724   -1.6684   -4.4888 O   0  0  0  0  0  0  0  0  0  0  0  0
   -5.9495    1.2047    2.2830 O   0  0  0  0  0  0  0  0  0  0  0  0
   -6.6379   -1.9812   -0.0897 O   0  0  0  0  0  0  0  0  0  0  0  0
   -6.9388   -2.3616   -5.6536 O   0  0  0  0  0  0  0  0  0  0  0  0
   -7.5038   -0.0906   -5.9678 O   0  0  0  0  0  0  0  0  0  0  0  0
   -8.9776   -1.8639   -7.1111 O   0  0  0  0  0  0  0  0  0  0  0  0
   -2.9309    6.3901    5.0190 O   0  0  0  0  0  0  0  0  0  0  0  0
   -3.7555    2.1692    5.7453 O   0  0  0  0  0  0  0  0  0  0  0  0
   -7.8900    8.4643    4.7486 O   0  0  0  0  0  0  0  0  0  0  0  0
   -6.1300    9.6656    5.3654 O   0  0  0  0  0  0  0  0  0  0  0  0
   -7.6378    9.7639    9.2682 O   0  0  0  0  0  0  0  0  0  0  0  0
   -5.9958   10.1970    7.8283 O   0  0  0  0  0  0  0  0  0  0  0  0
   -7.8372   -0.9343   -1.7020 N   0  0  0  0  0  0  0  0  0  0  0  0
   -7.1541    1.3170    0.0283 N   0  0  0  0  0  0  0  0  0  0  0  0
   -6.1539    0.3766    8.3839 N   0  0  0  0  0  0  0  0  0  0  0  0
   -4.8076    7.1369    5.9883 N   0  0  0  0  0  0  0  0  0  0  0  0
   -4.0525    1.3705    7.8611 N   0  0  0  0  0  0  0  0  0  0  0  0
   -4.5030    0.5741    9.9275 N   0  0  0  0  0  0  0  0  0  0  0  0
   -9.1476    1.1430   -4.2858 C   0  0  1  0  0  0  0  0  0  0  0  0
   -7.9094    0.6469   -3.5368 C   0  0  2  0  0  0  0  0  0  0  0  0
  -10.2599    0.2925   -3.6787 C   0  0  1  0  0  0  0  0  0  0  0  0
   -8.4775    0.2677   -2.2031 C   0  0  1  0  0  0  0  0  0  0  0  0
  -10.3769   -1.0962   -4.3196 C   0  0  0  0  0  0  0  0  0  0  0  0
   -6.9929    2.2072    2.2752 C   0  0  1  0  0  0  0  0  0  0  0  0
   -7.5265    2.4415    0.8641 C   0  0  0  0  0  0  0  0  0  0  0  0
   -7.3625   -1.0570   -0.4402 C   0  0  0  0  0  0  0  0  0  0  0  0
   -8.1488    1.7300    3.2294 C   0  0  0  0  0  0  0  0  0  0  0  0
   -7.7883    0.0523    0.4737 C   0  0  0  0  0  0  0  0  0  0  0  0
   -6.2931    3.4540    2.7338 C   0  0  0  0  0  0  0  0  0  0  0  0
   -7.6745    1.4063    4.6284 C   0  0  0  0  0  0  0  0  0  0  0  0
   -4.9148    3.6625    2.5172 C   0  0  0  0  0  0  0  0  0  0  0  0
   -6.9837    4.3342    3.5146 C   0  0  0  0  0  0  0  0  0  0  0  0
   -6.3190    1.4986    4.9581 C   0  0  0  0  0  0  0  0  0  0  0  0
   -8.5542    0.9682    5.6101 C   0  0  0  0  0  0  0  0  0  0  0  0
   -4.2047    4.5641    3.3118 C   0  0  0  0  0  0  0  0  0  0  0  0
   -6.2850    5.3774    4.0358 C   0  0  0  0  0  0  0  0  0  0  0  0
   -4.9011    5.4250    4.1442 C   0  0  0  0  0  0  0  0  0  0  0  0
   -5.8563    1.2549    6.2169 C   0  0  0  0  0  0  0  0  0  0  0  0
   -6.6965    0.6799    7.1439 C   0  0  0  0  0  0  0  0  0  0  0  0
   -8.0342    0.4544    6.8024 C   0  0  0  0  0  0  0  0  0  0  0  0
   -4.1591    6.3470    5.0617 C   0  0  0  0  0  0  0  0  0  0  0  0
   -4.4658    1.6185    6.5762 C   0  0  0  0  0  0  0  0  0  0  0  0
   -6.2329    7.3558    6.2169 C   0  0  1  0  0  0  0  0  0  0  0  0
   -6.6762    7.0415    7.6347 C   0  0  0  0  0  0  0  0  0  0  0  0
   -4.8853    0.7903    8.6590 C   0  0  0  0  0  0  0  0  0  0  0  0
   -6.1357    7.9679    8.6895 C   0  0  0  0  0  0  0  0  0  0  0  0
   -6.7335    8.6122    5.4427 C   0  0  0  0  0  0  0  0  0  0  0  0
   -6.5648    9.4081    8.5306 C   0  0  0  0  0  0  0  0  0  0  0  0
   -7.5195   -1.6673   -2.3286 H   0  0  0  0  0  0  0  0  0  0  0  0
   -6.1502    1.2757   -0.1609 H   0  0  0  0  0  0  0  0  0  0  0  0
   -6.7578    0.0054    9.0939 H   0  0  0  0  0  0  0  0  0  0  0  0
   -4.1701    7.7909    6.4371 H   0  0  0  0  0  0  0  0  0  0  0  0
   -5.0479    0.0621   10.5969 H   0  0  0  0  0  0  0  0  0  0  0  0
   -3.5370    0.7950   10.1390 H   0  0  0  0  0  0  0  0  0  0  0  0
   -9.2683    2.7381   -3.1270 H   0  0  0  0  0  0  0  0  0  0  0  0
   -7.0947    2.4189   -3.4289 H   0  0  0  0  0  0  0  0  0  0  0  0
   -5.9300    0.7316    1.4475 H   0  0  0  0  0  0  0  0  0  0  0  0
   -6.5888   -2.5167   -6.5495 H   0  0  0  0  0  0  0  0  0  0  0  0
   -6.7046    0.0591   -5.4099 H   0  0  0  0  0  0  0  0  0  0  0  0
   -7.9346    7.7000    4.1506 H   0  0  0  0  0  0  0  0  0  0  0  0
   -7.7152    9.2743   10.1027 H   0  0  0  0  0  0  0  0  0  0  0  0
   -9.1798    1.0418   -5.3699 H   0  0  0  0  0  0  0  0  0  0  0  0
   -7.4834   -0.2997   -3.8383 H   0  0  0  0  0  0  0  0  0  0  0  0
  -11.2171    0.8220   -3.6711 H   0  0  0  0  0  0  0  0  0  0  0  0
   -8.4016    1.1487   -1.5944 H   0  0  0  0  0  0  0  0  0  0  0  0
  -10.9150   -1.0810   -5.2697 H   0  0  0  0  0  0  0  0  0  0  0  0
  -10.9588   -1.7307   -3.6292 H   0  0  0  0  0  0  0  0  0  0  0  0
   -7.1244    3.3647    0.4249 H   0  0  0  0  0  0  0  0  0  0  0  0
   -8.6156    2.5904    0.8594 H   0  0  0  0  0  0  0  0  0  0  0  0
   -8.9566    2.4752    3.2749 H   0  0  0  0  0  0  0  0  0  0  0  0
   -8.6277    0.8254    2.8422 H   0  0  0  0  0  0  0  0  0  0  0  0
   -8.8790    0.1456    0.4332 H   0  0  0  0  0  0  0  0  0  0  0  0
   -7.5360   -0.2869    1.4778 H   0  0  0  0  0  0  0  0  0  0  0  0
   -4.3691    3.0202    1.8323 H   0  0  0  0  0  0  0  0  0  0  0  0
   -8.0341    4.2444    3.7731 H   0  0  0  0  0  0  0  0  0  0  0  0
   -5.5448    1.7914    4.2660 H   0  0  0  0  0  0  0  0  0  0  0  0
   -9.6288    0.9939    5.4461 H   0  0  0  0  0  0  0  0  0  0  0  0
   -3.1182    4.5741    3.2790 H   0  0  0  0  0  0  0  0  0  0  0  0
   -6.9587    6.1491    4.2865 H   0  0  0  0  0  0  0  0  0  0  0  0
   -8.6871   -0.1126    7.4561 H   0  0  0  0  0  0  0  0  0  0  0  0
   -6.7547    6.5172    5.8289 H   0  0  0  0  0  0  0  0  0  0  0  0
   -7.7718    6.9615    7.6645 H   0  0  0  0  0  0  0  0  0  0  0  0
   -6.3137    6.0189    7.8610 H   0  0  0  0  0  0  0  0  0  0  0  0
   -6.4205    7.5891    9.6729 H   0  0  0  0  0  0  0  0  0  0  0  0
   -5.0436    7.9484    8.6450 H   0  0  0  0  0  0  0  0  0  0  0  0
  1  5  1  0  0  0  0
  1  8  1  0  0  0  0
  1  9  1  0  0  0  0
  1 10  2  0  0  0  0
  2 25  1  0  0  0  0
  2 26  1  0  0  0  0
  3 59  1  0  0  0  0
  4 60  1  0  0  0  0
  5 27  1  0  0  0  0
  6 61  1  0  0  0  0
  7 30  2  0  0  0  0
  8 62  1  0  0  0  0
  9 63  1  0  0  0  0
 11 45  2  0  0  0  0
 12 46  2  0  0  0  0
 13 51  1  0  0  0  0
 13 64  1  0  0  0  0
 14 51  2  0  0  0  0
 15 52  1  0  0  0  0
 15 65  1  0  0  0  0
 16 52  2  0  0  0  0
 17 30  1  0  0  0  0
 17 53  1  0  0  0  0
 18 29  1  0  0  0  0
 18 32  1  0  0  0  0
 18 54  1  0  0  0  0
 19 43  1  0  0  0  0
 19 49  1  0  0  0  0
 19 55  1  0  0  0  0
 20 45  1  0  0  0  0
 20 56  1  0  0  0  0
 21 46  1  0  0  0  0
 21 49  2  0  0  0  0
 22 49  1  0  0  0  0
 22 57  1  0  0  0  0
 22 58  1  0  0  0  0
 23  3  1  0  0  0  0
 23 24  1  0  0  0  0
 23 25  1  0  0  0  0
 23 66  1  6  0  0  0
 24  4  1  0  0  0  0
 24 26  1  0  0  0  0
 24 67  1  6  0  0  0
 25 27  1  0  0  0  0
 25 68  1  6  0  0  0
 26 69  1  1  0  0  0
 26 17  1  0  0  0  0
 27 70  1  0  0  0  0
 27 71  1  0  0  0  0
 28 31  1  0  0  0  0
 28 33  1  0  0  0  0
 28 29  1  0  0  0  0
 28  6  1  6  0  0  0
 29 72  1  0  0  0  0
 29 73  1  0  0  0  0
 30 32  1  0  0  0  0
 31 34  1  0  0  0  0
 31 74  1  0  0  0  0
 31 75  1  0  0  0  0
 32 76  1  0  0  0  0
 32 77  1  0  0  0  0
 33 35  2  0  0  0  0
 33 36  1  0  0  0  0
 34 37  2  0  0  0  0
 34 38  1  0  0  0  0
 35 39  1  0  0  0  0
 35 78  1  0  0  0  0
 36 40  2  0  0  0  0
 36 79  1  0  0  0  0
 37 42  1  0  0  0  0
 37 80  1  0  0  0  0
 38 44  2  0  0  0  0
 38 81  1  0  0  0  0
 39 41  2  0  0  0  0
 39 82  1  0  0  0  0
 40 41  1  0  0  0  0
 40 83  1  0  0  0  0
 41 45  1  0  0  0  0
 42 43  2  0  0  0  0
 42 46  1  0  0  0  0
 43 44  1  0  0  0  0
 44 84  1  0  0  0  0
 47 20  1  0  0  0  0
 47 48  1  0  0  0  0
 47 51  1  0  0  0  0
 47 85  1  6  0  0  0
 48 50  1  0  0  0  0
 48 86  1  0  0  0  0
 48 87  1  0  0  0  0
 50 52  1  0  0  0  0
 50 88  1  0  0  0  0
 50 89  1  0  0  0  0
M  END
>  <DRUGBANK_ID>
DB02794

>  <SECONDARY_ACCESSION_NUMBERS>
EXPT00025

>  <COMMON_NAME>
(2S)-2-({4-[(2S)-1-(2-Amino-4-oxo-1,4-dihydro-6-quinazolinyl)-3-{[2-({(2R,3R,4S,5R)-3,4-dihydroxy-5-[(phosphonooxy)methyl]tetrahydro-2-furanyl}amino)-2-oxoethyl]amino}-2-hydroxy-2-propanyl]benzoyl}ami no)pentanedioic acid

$$$$
