1441
 OpenBabel10282417113D

 46 47  0  0  0  0  0  0  0  0999 V2000
    1.1444    0.1377    0.1689 O   0  0  0  0  0  0  0  0  0  0  0  0
   -3.9864   -4.8969   -3.0754 N   0  0  0  0  0  0  0  0  0  0  0  0
   -1.6974   -4.2853    0.9322 N   0  0  0  0  0  0  0  0  0  0  0  0
   -3.3779   -3.5194   -3.2014 C   0  0  0  0  0  0  0  0  0  0  0  0
   -4.1604   -5.7504   -4.2657 C   0  0  0  0  0  0  0  0  0  0  0  0
   -3.4160   -5.6941   -1.9984 C   0  0  0  0  0  0  0  0  0  0  0  0
   -3.2779   -2.4933   -1.9071 C   0  0  0  0  0  0  0  0  0  0  0  0
   -2.4634   -2.9344   -0.6111 C   0  0  0  0  0  0  0  0  0  0  0  0
   -2.8210   -6.1158   -4.9015 C   0  0  0  0  0  0  0  0  0  0  0  0
   -4.9325   -7.0569   -3.8774 C   0  0  0  0  0  0  0  0  0  0  0  0
   -1.8738   -5.7431   -1.9601 C   0  0  0  0  0  0  0  0  0  0  0  0
   -4.2043   -5.2473   -0.8199 C   0  0  0  0  0  0  0  0  0  0  0  0
   -1.1772   -2.5002   -0.2054 C   0  0  0  0  0  0  0  0  0  0  0  0
   -0.7374   -3.3736    0.8101 C   0  0  0  0  0  0  0  0  0  0  0  0
   -2.8288   -3.5825    0.5954 C   0  0  0  0  0  0  0  0  0  0  0  0
   -0.4515   -1.3866   -0.5177 C   0  0  0  0  0  0  0  0  0  0  0  0
    0.3985   -3.1880    1.5837 C   0  0  0  0  0  0  0  0  0  0  0  0
    0.6039   -1.0992    0.3413 C   0  0  0  0  0  0  0  0  0  0  0  0
    1.0030   -1.9728    1.3751 C   0  0  0  0  0  0  0  0  0  0  0  0
    2.5543    0.0370    0.1000 C   0  0  0  0  0  0  0  0  0  0  0  0
   -1.6512   -5.1518    1.4989 H   0  0  0  0  0  0  0  0  0  0  0  0
   -3.9668   -2.9832   -3.9674 H   0  0  0  0  0  0  0  0  0  0  0  0
   -2.3731   -3.5820   -3.6333 H   0  0  0  0  0  0  0  0  0  0  0  0
   -4.7839   -5.2289   -5.0013 H   0  0  0  0  0  0  0  0  0  0  0  0
   -3.6902   -6.7362   -1.9449 H   0  0  0  0  0  0  0  0  0  0  0  0
   -4.3015   -2.2032   -1.6259 H   0  0  0  0  0  0  0  0  0  0  0  0
   -2.8179   -1.5713   -2.2969 H   0  0  0  0  0  0  0  0  0  0  0  0
   -2.2689   -6.8235   -4.2848 H   0  0  0  0  0  0  0  0  0  0  0  0
   -2.9520   -6.6233   -5.8562 H   0  0  0  0  0  0  0  0  0  0  0  0
   -2.1941   -5.2326   -5.0559 H   0  0  0  0  0  0  0  0  0  0  0  0
   -5.8929   -6.8175   -3.4033 H   0  0  0  0  0  0  0  0  0  0  0  0
   -5.0867   -7.7128   -4.7322 H   0  0  0  0  0  0  0  0  0  0  0  0
   -4.4027   -7.7177   -3.1803 H   0  0  0  0  0  0  0  0  0  0  0  0
   -1.3684   -4.8471   -2.3325 H   0  0  0  0  0  0  0  0  0  0  0  0
   -1.4899   -5.9727   -0.9705 H   0  0  0  0  0  0  0  0  0  0  0  0
   -1.4987   -6.5627   -2.5789 H   0  0  0  0  0  0  0  0  0  0  0  0
   -5.2901   -5.2121   -0.7237 H   0  0  0  0  0  0  0  0  0  0  0  0
   -3.7608   -5.7146    0.0551 H   0  0  0  0  0  0  0  0  0  0  0  0
   -4.1422   -4.1943   -0.8983 H   0  0  0  0  0  0  0  0  0  0  0  0
   -3.7543   -3.9208    1.0425 H   0  0  0  0  0  0  0  0  0  0  0  0
   -0.8107   -0.6719   -1.2521 H   0  0  0  0  0  0  0  0  0  0  0  0
    0.6375   -3.8603    2.3998 H   0  0  0  0  0  0  0  0  0  0  0  0
    1.7722   -1.6820    2.0840 H   0  0  0  0  0  0  0  0  0  0  0  0
    2.9321    1.0333   -0.1192 H   0  0  0  0  0  0  0  0  0  0  0  0
    2.9703   -0.2808    1.0587 H   0  0  0  0  0  0  0  0  0  0  0  0
    2.8534   -0.6488   -0.7010 H   0  0  0  0  0  0  0  0  0  0  0  0
  1 18  1  0  0  0  0
  1 20  1  0  0  0  0
  2  4  1  0  0  0  0
  2  5  1  0  0  0  0
  2  6  1  0  0  0  0
  3 14  1  0  0  0  0
  3 15  1  0  0  0  0
  3 21  1  0  0  0  0
  4  7  1  0  0  0  0
  4 22  1  0  0  0  0
  4 23  1  0  0  0  0
  5  9  1  0  0  0  0
  5 10  1  0  0  0  0
  5 24  1  0  0  0  0
  6 11  1  0  0  0  0
  6 12  1  0  0  0  0
  6 25  1  0  0  0  0
  7  8  1  0  0  0  0
  7 26  1  0  0  0  0
  7 27  1  0  0  0  0
  8 13  1  0  0  0  0
  8 15  2  0  0  0  0
  9 28  1  0  0  0  0
  9 29  1  0  0  0  0
  9 30  1  0  0  0  0
 10 31  1  0  0  0  0
 10 32  1  0  0  0  0
 10 33  1  0  0  0  0
 11 34  1  0  0  0  0
 11 35  1  0  0  0  0
 11 36  1  0  0  0  0
 12 37  1  0  0  0  0
 12 38  1  0  0  0  0
 12 39  1  0  0  0  0
 13 14  2  0  0  0  0
 13 16  1  0  0  0  0
 14 17  1  0  0  0  0
 15 40  1  0  0  0  0
 16 18  2  0  0  0  0
 16 41  1  0  0  0  0
 17 19  2  0  0  0  0
 17 42  1  0  0  0  0
 18 19  1  0  0  0  0
 19 43  1  0  0  0  0
 20 44  1  0  0  0  0
 20 45  1  0  0  0  0
 20 46  1  0  0  0  0
M  END
>  <DRUGBANK_ID>
DB01441

>  <COMMON_NAME>
5-Methoxy-N,N-diisopropyltryptamine

>  <CAS_NUMBER>
4021-34-5

>  <UNII>
12D06G8W8E

>  <SYNONYMS>
5-MeO-DIPT; 5-methoxy-N,N-bis(1-methylethyl)-1H-indole-3-ethanamine; Foxy; Foxy methoxy; N-(1-methylethyl)-N-{2-[5-(methyloxy)-1H-indol-3-yl]ethyl}propan-2-amine

$$$$
