
 OpenBabel10282417213D

 35 36  0  0  0  0  0  0  0  0999 V2000
   -2.5278   -0.8234    1.2780 O   0  0  0  0  0  0  0  0  0  0  0  0
   -2.1253   -0.5786   -0.0831 S   0  0  0  0  0  0  0  0  0  0  0  0
   -2.5409   -1.4429   -1.1690 O   0  0  0  0  0  0  0  0  0  0  0  0
   -0.3599   -0.4471   -0.1419 C   0  0  0  0  0  0  0  0  0  0  0  0
   -2.6065    0.9791   -0.5044 N   0  0  0  0  0  0  0  0  0  0  0  0
    0.2046    0.8208   -0.3207 C   0  0  0  0  0  0  0  0  0  0  0  0
    0.4324   -1.6003   -0.0159 C   0  0  0  0  0  0  0  0  0  0  0  0
   -1.8837    2.0331    0.1824 C   0  0  3  0  0  0  0  0  0  0  0  0
   -0.5457    1.9852   -0.3646 N   0  0  0  0  0  0  0  0  0  0  0  0
    1.6042    0.9061   -0.3233 C   0  0  0  0  0  0  0  0  0  0  0  0
    1.8383   -1.4882   -0.0323 C   0  0  0  0  0  0  0  0  0  0  0  0
   -1.9524    1.9516    1.7298 C   0  0  0  0  0  0  0  0  0  0  0  0
    2.4226   -0.2250   -0.1479 C   0  0  0  0  0  0  0  0  0  0  0  0
    2.7968   -2.9800   -0.1048 S   0  0  0  0  0  0  0  0  0  0  0  0
   -1.1987    3.3566    2.6462 S   0  0  0  0  0  0  0  0  0  0  0  0
    4.1109    0.1147   -0.0233 Cl  0  0  0  0  0  0  0  0  0  0  0  0
    2.4005   -3.8137    1.3064 N   0  0  0  0  0  0  0  0  0  0  0  0
    2.2842   -3.7580   -1.2084 O   0  0  0  0  0  0  0  0  0  0  0  0
    4.2076   -2.7217    0.0388 O   0  0  0  0  0  0  0  0  0  0  0  0
    0.5878    3.1372    2.2672 C   0  0  0  0  0  0  0  0  0  0  0  0
    1.2565    1.8360    2.7025 C   0  0  0  0  0  0  0  0  0  0  0  0
    0.6562    0.7283    2.2309 F   0  0  0  0  0  0  0  0  0  0  0  0
    2.5355    1.8159    2.2544 F   0  0  0  0  0  0  0  0  0  0  0  0
    1.2957    1.7058    4.0408 F   0  0  0  0  0  0  0  0  0  0  0  0
   -2.5470    1.0816   -1.5171 H   0  0  0  0  0  0  0  0  0  0  0  0
   -0.0493   -2.5733    0.0780 H   0  0  0  0  0  0  0  0  0  0  0  0
   -2.3374    2.9879   -0.1161 H   0  0  0  0  0  0  0  0  0  0  0  0
   -0.0992    2.8749   -0.5605 H   0  0  0  0  0  0  0  0  0  0  0  0
    2.0833    1.8851   -0.3525 H   0  0  0  0  0  0  0  0  0  0  0  0
   -3.0072    1.8981    2.0285 H   0  0  0  0  0  0  0  0  0  0  0  0
   -1.4899    1.0512    2.1294 H   0  0  0  0  0  0  0  0  0  0  0  0
    2.8852   -4.7178    1.2578 H   0  0  0  0  0  0  0  0  0  0  0  0
    2.7256   -3.3162    2.1367 H   0  0  0  0  0  0  0  0  0  0  0  0
    0.7473    3.3477    1.2077 H   0  0  0  0  0  0  0  0  0  0  0  0
    1.1125    3.9549    2.7687 H   0  0  0  0  0  0  0  0  0  0  0  0
  1  2  2  0  0  0  0
  2  3  2  0  0  0  0
  2  4  1  0  0  0  0
  2  5  1  0  0  0  0
  4  6  2  0  0  0  0
  4  7  1  0  0  0  0
  5 25  1  0  0  0  0
  6  9  1  0  0  0  0
  6 10  1  0  0  0  0
  7 11  2  0  0  0  0
  7 26  1  0  0  0  0
  8  5  1  0  0  0  0
  8  9  1  0  0  0  0
  8 12  1  0  0  0  0
  8 27  1  0  0  0  0
  9 28  1  0  0  0  0
 10 13  2  0  0  0  0
 10 29  1  0  0  0  0
 11 13  1  0  0  0  0
 11 14  1  0  0  0  0
 12 15  1  0  0  0  0
 12 30  1  0  0  0  0
 12 31  1  0  0  0  0
 13 16  1  0  0  0  0
 14 17  1  0  0  0  0
 14 18  2  0  0  0  0
 14 19  2  0  0  0  0
 15 20  1  0  0  0  0
 17 32  1  0  0  0  0
 17 33  1  0  0  0  0
 20 21  1  0  0  0  0
 20 34  1  0  0  0  0
 20 35  1  0  0  0  0
 21 22  1  0  0  0  0
 21 23  1  0  0  0  0
 21 24  1  0  0  0  0
M  END
>  <DRUGBANK_ID>
DB13989

>  <COMMON_NAME>
Epitizide

>  <CAS_NUMBER>
1764-85-8

>  <UNII>
5B266B85J1

>  <SYNONYMS>
Epithiazide; Epitizide; Epitizidum; Eptizida

$$$$
