
 OpenBabel10282417213D

 71 72  0  0  0  0  0  0  0  0999 V2000
    1.4321    0.0767   -0.2342 C   0  0  2  0  0  0  0  0  0  0  0  0
    1.1601   -1.2021   -1.3705 C   0  0  0  0  0  0  0  0  0  0  0  0
    0.8970   -0.0542    1.4725 C   0  0  0  0  0  0  0  0  0  0  0  0
    1.4604   -2.5435   -0.9720 C   0  0  0  0  0  0  0  0  0  0  0  0
    0.3701   -1.1820   -2.4980 C   0  0  0  0  0  0  0  0  0  0  0  0
    1.0961    1.0345    2.5026 C   0  0  0  0  0  0  0  0  0  0  0  0
    1.0833   -3.7642   -1.5619 C   0  0  0  0  0  0  0  0  0  0  0  0
   -0.1716   -2.4443   -2.8847 C   0  0  0  0  0  0  0  0  0  0  0  0
    0.3260    2.2807    2.0819 C   0  0  0  0  0  0  0  0  0  0  0  0
    0.2193   -3.7013   -2.5823 C   0  0  0  0  0  0  0  0  0  0  0  0
    1.2738   -4.9735   -0.9814 O   0  0  0  0  0  0  0  0  0  0  0  0
   -1.1678    2.3358    2.0979 N   0  0  0  0  0  0  0  0  0  0  0  0
   -0.5320   -4.6450   -3.2088 O   0  0  0  0  0  0  0  0  0  0  0  0
    2.2213   -4.9768    0.0573 C   0  0  0  0  0  0  0  0  0  0  0  0
   -1.6218    3.5492    1.3649 C   0  0  0  0  0  0  0  0  0  0  0  0
   -2.0815    1.2421    1.7649 C   0  0  0  0  0  0  0  0  0  0  0  0
    0.1074   -5.8905   -3.1890 C   0  0  0  0  0  0  0  0  0  0  0  0
   -1.1991    3.7768   -0.1285 C   0  0  0  0  0  0  0  0  0  0  0  0
   -1.6761    2.7146   -1.1269 C   0  0  0  0  0  0  0  0  0  0  0  0
   -1.2853    1.3656   -0.9570 C   0  0  0  0  0  0  0  0  0  0  0  0
   -2.6071    2.9328   -2.1074 C   0  0  0  0  0  0  0  0  0  0  0  0
   -1.9045    0.2150   -1.4442 C   0  0  0  0  0  0  0  0  0  0  0  0
   -3.1055    1.8270   -2.7953 C   0  0  0  0  0  0  0  0  0  0  0  0
   -2.7318    0.5004   -2.5299 C   0  0  0  0  0  0  0  0  0  0  0  0
   -1.7661   -1.0619   -0.9183 O   0  0  0  0  0  0  0  0  0  0  0  0
   -3.2973   -0.2911   -3.5055 O   0  0  0  0  0  0  0  0  0  0  0  0
   -1.0463   -1.6091    0.2013 C   0  0  0  0  0  0  0  0  0  0  0  0
   -2.6392   -1.4931   -3.6745 C   0  0  0  0  0  0  0  0  0  0  0  0
    1.3308    1.5110   -0.8792 C   0  0  0  0  0  0  0  0  0  0  0  0
    2.9400    0.0238   -0.0634 C   0  0  0  0  0  0  0  0  0  0  0  0
    3.4434   -1.2452    0.6036 C   0  0  0  0  0  0  0  0  0  0  0  0
    3.5137    0.2000   -1.4802 C   0  0  0  0  0  0  0  0  0  0  0  0
    1.3750    2.5312   -1.3579 N   0  0  0  0  0  0  0  0  0  0  0  0
   -0.1500   -0.1797    1.6699 H   0  0  0  0  0  0  0  0  0  0  0  0
    1.2187   -1.0123    1.8990 H   0  0  0  0  0  0  0  0  0  0  0  0
    1.7243   -2.6728    0.0576 H   0  0  0  0  0  0  0  0  0  0  0  0
   -0.1010   -0.2774   -2.8761 H   0  0  0  0  0  0  0  0  0  0  0  0
    0.7105    0.7250    3.4906 H   0  0  0  0  0  0  0  0  0  0  0  0
    2.1727    1.1701    2.6247 H   0  0  0  0  0  0  0  0  0  0  0  0
   -1.2060   -2.6574   -3.0527 H   0  0  0  0  0  0  0  0  0  0  0  0
    0.7016    3.1007    2.7019 H   0  0  0  0  0  0  0  0  0  0  0  0
    0.7281    2.5228    1.1077 H   0  0  0  0  0  0  0  0  0  0  0  0
    3.0933   -4.3698   -0.2046 H   0  0  0  0  0  0  0  0  0  0  0  0
    1.7426   -4.6213    0.9758 H   0  0  0  0  0  0  0  0  0  0  0  0
    2.5432   -6.0052    0.1784 H   0  0  0  0  0  0  0  0  0  0  0  0
   -2.7142    3.5949    1.4199 H   0  0  0  0  0  0  0  0  0  0  0  0
   -1.2540    4.3932    1.9592 H   0  0  0  0  0  0  0  0  0  0  0  0
   -2.0875    1.0465    0.7439 H   0  0  0  0  0  0  0  0  0  0  0  0
   -1.8907    0.2487    2.1442 H   0  0  0  0  0  0  0  0  0  0  0  0
   -3.1588    1.4441    1.7689 H   0  0  0  0  0  0  0  0  0  0  0  0
    1.1824   -5.7570   -3.3501 H   0  0  0  0  0  0  0  0  0  0  0  0
   -0.1345   -6.3550   -2.2332 H   0  0  0  0  0  0  0  0  0  0  0  0
   -0.2918   -6.4938   -3.9998 H   0  0  0  0  0  0  0  0  0  0  0  0
   -1.5596    4.7654   -0.4392 H   0  0  0  0  0  0  0  0  0  0  0  0
   -0.1137    3.9013   -0.1410 H   0  0  0  0  0  0  0  0  0  0  0  0
   -0.5955    1.2455   -0.1524 H   0  0  0  0  0  0  0  0  0  0  0  0
   -2.9619    3.9228   -2.3576 H   0  0  0  0  0  0  0  0  0  0  0  0
   -3.8528    1.9494   -3.5687 H   0  0  0  0  0  0  0  0  0  0  0  0
   -0.0092   -1.4005    0.2553 H   0  0  0  0  0  0  0  0  0  0  0  0
   -1.4257   -1.3173    1.1565 H   0  0  0  0  0  0  0  0  0  0  0  0
   -0.9182   -2.7002    0.2305 H   0  0  0  0  0  0  0  0  0  0  0  0
   -1.6475   -1.2686   -4.1041 H   0  0  0  0  0  0  0  0  0  0  0  0
   -2.7376   -1.9814   -2.6986 H   0  0  0  0  0  0  0  0  0  0  0  0
   -3.0185   -2.2446   -4.3705 H   0  0  0  0  0  0  0  0  0  0  0  0
    3.2043    0.8661    0.5905 H   0  0  0  0  0  0  0  0  0  0  0  0
    3.4265   -2.0735   -0.0909 H   0  0  0  0  0  0  0  0  0  0  0  0
    4.4895   -1.1746    0.8338 H   0  0  0  0  0  0  0  0  0  0  0  0
    2.9109   -1.5494    1.5118 H   0  0  0  0  0  0  0  0  0  0  0  0
    3.1810    1.1163   -1.9789 H   0  0  0  0  0  0  0  0  0  0  0  0
    4.5832    0.2131   -1.4454 H   0  0  0  0  0  0  0  0  0  0  0  0
    3.1820   -0.5839   -2.1667 H   0  0  0  0  0  0  0  0  0  0  0  0
  1  2  1  0  0  0  0
  1  3  1  0  0  0  0
  1 29  1  6  0  0  0
  2  4  2  0  0  0  0
  2  5  1  0  0  0  0
  3  6  1  0  0  0  0
  3 34  1  0  0  0  0
  3 35  1  0  0  0  0
  4  7  1  0  0  0  0
  4 36  1  0  0  0  0
  5  8  2  0  0  0  0
  5 37  1  0  0  0  0
  6  9  1  0  0  0  0
  6 38  1  0  0  0  0
  6 39  1  0  0  0  0
  7 10  2  0  0  0  0
  7 11  1  0  0  0  0
  8 10  1  0  0  0  0
  8 40  1  0  0  0  0
  9 12  1  0  0  0  0
  9 41  1  0  0  0  0
  9 42  1  0  0  0  0
 10 13  1  0  0  0  0
 11 14  1  0  0  0  0
 12 15  1  0  0  0  0
 12 16  1  0  0  0  0
 13 17  1  0  0  0  0
 14 43  1  0  0  0  0
 14 44  1  0  0  0  0
 14 45  1  0  0  0  0
 15 18  1  0  0  0  0
 15 46  1  0  0  0  0
 15 47  1  0  0  0  0
 16 48  1  0  0  0  0
 16 49  1  0  0  0  0
 16 50  1  0  0  0  0
 17 51  1  0  0  0  0
 17 52  1  0  0  0  0
 17 53  1  0  0  0  0
 18 19  1  0  0  0  0
 18 54  1  0  0  0  0
 18 55  1  0  0  0  0
 19 20  1  0  0  0  0
 19 21  2  0  0  0  0
 20 22  2  0  0  0  0
 20 56  1  0  0  0  0
 21 23  1  0  0  0  0
 21 57  1  0  0  0  0
 22 24  1  0  0  0  0
 22 25  1  0  0  0  0
 23 24  2  0  0  0  0
 23 58  1  0  0  0  0
 24 26  1  0  0  0  0
 25 27  1  0  0  0  0
 26 28  1  0  0  0  0
 27 59  1  0  0  0  0
 27 60  1  0  0  0  0
 27 61  1  0  0  0  0
 28 62  1  0  0  0  0
 28 63  1  0  0  0  0
 28 64  1  0  0  0  0
 29 33  3  0  0  0  0
 30  1  1  0  0  0  0
 30 31  1  0  0  0  0
 30 32  1  0  0  0  0
 30 65  1  0  0  0  0
 31 66  1  0  0  0  0
 31 67  1  0  0  0  0
 31 68  1  0  0  0  0
 32 69  1  0  0  0  0
 32 70  1  0  0  0  0
 32 71  1  0  0  0  0
M  END
>  <DRUGBANK_ID>
DB14063

>  <COMMON_NAME>
Dexverapamil

>  <CAS_NUMBER>
38321-02-7

>  <UNII>
QR5PYD126V

>  <SYNONYMS>
(+)-(R)-verapamil; (+)-verapamil; (R)-(+)-verapamil; (R)-verapamil; DexvÃ©rapamil; Dexverapamil; Dexverapamilo; Dexverapamilum

$$$$
