
 OpenBabel10282417143D

 80 81  0  0  0  0  0  0  0  0999 V2000
    1.2020    0.4260   -0.2396 F   0  0  0  0  0  0  0  0  0  0  0  0
   -1.5775   -0.8889    0.7591 O   0  0  0  0  0  0  0  0  0  0  0  0
    2.6663   -0.6949    4.6075 O   0  0  0  0  0  0  0  0  0  0  0  0
    2.0537   -5.5316    2.3715 O   0  0  0  0  0  0  0  0  0  0  0  0
    3.8141   -1.5928   -0.9239 O   0  0  0  0  0  0  0  0  0  0  0  0
   -0.1263   -6.2722    2.4647 O   0  0  0  0  0  0  0  0  0  0  0  0
   -0.9524   -5.0279   -3.7456 O   0  0  0  0  0  0  0  0  0  0  0  0
   -0.3192   -0.9306    2.6198 N   0  0  0  0  0  0  0  0  0  0  0  0
    2.8572   -1.3845    2.4856 N   0  0  0  0  0  0  0  0  0  0  0  0
    0.2924   -4.1868    1.8064 N   0  0  0  0  0  0  0  0  0  0  0  0
    0.5755   -1.4412    3.7164 C   0  0  1  0  0  0  0  0  0  0  0  0
    0.7312   -2.9668    3.8749 C   0  0  0  0  0  0  0  0  0  0  0  0
    0.9381   -3.8705    5.0692 C   0  0  0  0  0  0  0  0  0  0  0  0
   -1.0526   -3.2731    1.5765 C   0  0  1  0  0  0  0  0  0  0  0  0
   -2.0787   -3.6362    2.5665 C   0  0  0  0  0  0  0  0  0  0  0  0
   -3.3744   -2.9415    2.2775 C   0  0  0  0  0  0  0  0  0  0  0  0
   -1.0338   -1.5897    1.6258 C   0  0  0  0  0  0  0  0  0  0  0  0
    2.0706   -1.0545    3.5837 C   0  0  0  0  0  0  0  0  0  0  0  0
    0.0014   -3.3588    6.1132 C   0  0  0  0  0  0  0  0  0  0  0  0
    0.6081   -5.3991    4.9670 C   0  0  0  0  0  0  0  0  0  0  0  0
    2.6456   -1.9272    1.0837 C   0  0  1  0  0  0  0  0  0  0  0  0
   -3.9128   -3.4216    0.9444 C   0  0  0  0  0  0  0  0  0  0  0  0
   -4.1555   -3.3043    3.5136 C   0  0  0  0  0  0  0  0  0  0  0  0
    1.2484   -2.0960    0.5934 C   0  0  0  0  0  0  0  0  0  0  0  0
    3.1297   -1.0866   -0.0351 C   0  0  0  0  0  0  0  0  0  0  0  0
    0.5834   -2.9537   -0.5477 C   0  0  0  0  0  0  0  0  0  0  0  0
    0.6615   -5.4327    2.1860 C   0  0  0  0  0  0  0  0  0  0  0  0
    2.5584    0.3067   -0.1095 C   0  0  0  0  0  0  0  0  0  0  0  0
   -0.0606   -2.2386   -1.5185 C   0  0  0  0  0  0  0  0  0  0  0  0
    0.2962   -4.3974   -0.6132 C   0  0  0  0  0  0  0  0  0  0  0  0
   -0.6728   -2.9342   -2.5611 C   0  0  0  0  0  0  0  0  0  0  0  0
   -0.4584   -5.0952   -1.5259 C   0  0  0  0  0  0  0  0  0  0  0  0
   -0.7771   -4.3386   -2.5913 C   0  0  0  0  0  0  0  0  0  0  0  0
    3.2996   -5.1911    1.6214 C   0  0  0  0  0  0  0  0  0  0  0  0
    3.2006   -5.6074    0.1812 C   0  0  0  0  0  0  0  0  0  0  0  0
    3.1302   -6.9794   -0.0277 C   0  0  0  0  0  0  0  0  0  0  0  0
    2.9607   -4.7852   -0.9228 C   0  0  0  0  0  0  0  0  0  0  0  0
    2.6466   -7.5060   -1.2227 C   0  0  0  0  0  0  0  0  0  0  0  0
    2.4477   -5.3083   -2.1244 C   0  0  0  0  0  0  0  0  0  0  0  0
    2.2384   -6.6699   -2.2512 C   0  0  0  0  0  0  0  0  0  0  0  0
   -0.2398    0.0658    2.3964 H   0  0  0  0  0  0  0  0  0  0  0  0
    3.8279   -1.4221    2.8005 H   0  0  0  0  0  0  0  0  0  0  0  0
    1.1452   -3.9392    1.3489 H   0  0  0  0  0  0  0  0  0  0  0  0
   -0.8549   -4.3718   -4.4483 H   0  0  0  0  0  0  0  0  0  0  0  0
    0.1202   -0.9800    4.5960 H   0  0  0  0  0  0  0  0  0  0  0  0
   -0.1888   -3.3385    3.5663 H   0  0  0  0  0  0  0  0  0  0  0  0
    1.5574   -3.2502    3.2357 H   0  0  0  0  0  0  0  0  0  0  0  0
    2.0021   -3.7976    5.2819 H   0  0  0  0  0  0  0  0  0  0  0  0
   -1.4379   -3.5383    0.5943 H   0  0  0  0  0  0  0  0  0  0  0  0
   -2.1554   -4.7218    2.5923 H   0  0  0  0  0  0  0  0  0  0  0  0
   -1.8336   -3.2767    3.5595 H   0  0  0  0  0  0  0  0  0  0  0  0
   -3.2674   -1.8486    2.2591 H   0  0  0  0  0  0  0  0  0  0  0  0
   -1.0401   -3.5412    5.8058 H   0  0  0  0  0  0  0  0  0  0  0  0
    0.2132   -3.8905    7.0328 H   0  0  0  0  0  0  0  0  0  0  0  0
    0.1363   -2.2899    6.2463 H   0  0  0  0  0  0  0  0  0  0  0  0
    1.2195   -5.9894    4.2903 H   0  0  0  0  0  0  0  0  0  0  0  0
    0.8474   -5.9047    5.9020 H   0  0  0  0  0  0  0  0  0  0  0  0
   -0.4545   -5.5995    4.7494 H   0  0  0  0  0  0  0  0  0  0  0  0
    3.1122   -2.8818    1.0610 H   0  0  0  0  0  0  0  0  0  0  0  0
   -3.9077   -4.5152    0.9169 H   0  0  0  0  0  0  0  0  0  0  0  0
   -4.9103   -3.0291    0.7773 H   0  0  0  0  0  0  0  0  0  0  0  0
   -3.2987   -3.0815    0.0974 H   0  0  0  0  0  0  0  0  0  0  0  0
   -3.6295   -2.9193    4.4045 H   0  0  0  0  0  0  0  0  0  0  0  0
   -5.1440   -2.8716    3.4839 H   0  0  0  0  0  0  0  0  0  0  0  0
   -4.1821   -4.3941    3.6125 H   0  0  0  0  0  0  0  0  0  0  0  0
    0.8898   -2.3476    1.5445 H   0  0  0  0  0  0  0  0  0  0  0  0
    0.8074   -1.1233    0.5804 H   0  0  0  0  0  0  0  0  0  0  0  0
    2.9486    0.7517   -1.0081 H   0  0  0  0  0  0  0  0  0  0  0  0
    2.8180    0.8006    0.8226 H   0  0  0  0  0  0  0  0  0  0  0  0
   -0.0830   -1.1540   -1.4675 H   0  0  0  0  0  0  0  0  0  0  0  0
    0.6947   -5.1782    0.0252 H   0  0  0  0  0  0  0  0  0  0  0  0
   -1.0093   -2.3426   -3.3942 H   0  0  0  0  0  0  0  0  0  0  0  0
   -0.4716   -6.1891   -1.4915 H   0  0  0  0  0  0  0  0  0  0  0  0
    3.7409   -4.2249    1.8752 H   0  0  0  0  0  0  0  0  0  0  0  0
    4.0881   -5.8143    2.0673 H   0  0  0  0  0  0  0  0  0  0  0  0
    3.3792   -7.6395    0.7977 H   0  0  0  0  0  0  0  0  0  0  0  0
    2.8848   -3.7130   -0.8418 H   0  0  0  0  0  0  0  0  0  0  0  0
    2.5285   -8.5769   -1.3144 H   0  0  0  0  0  0  0  0  0  0  0  0
    1.9608   -4.6312   -2.8349 H   0  0  0  0  0  0  0  0  0  0  0  0
    1.6770   -7.0531   -3.0998 H   0  0  0  0  0  0  0  0  0  0  0  0
  1 28  1  0  0  0  0
  2 17  2  0  0  0  0
  3 18  2  0  0  0  0
  4 27  1  0  0  0  0
  4 34  1  0  0  0  0
  5 25  2  0  0  0  0
  6 27  2  0  0  0  0
  7 33  1  0  0  0  0
  7 44  1  0  0  0  0
  8 17  1  0  0  0  0
  8 41  1  0  0  0  0
  9 18  1  0  0  0  0
  9 42  1  0  0  0  0
 10 27  1  0  0  0  0
 10 43  1  0  0  0  0
 11  8  1  0  0  0  0
 11 12  1  0  0  0  0
 11 18  1  0  0  0  0
 11 45  1  1  0  0  0
 12 13  1  0  0  0  0
 12 46  1  0  0  0  0
 12 47  1  0  0  0  0
 13 19  1  0  0  0  0
 13 20  1  0  0  0  0
 13 48  1  0  0  0  0
 14 10  1  0  0  0  0
 14 15  1  0  0  0  0
 14 17  1  0  0  0  0
 14 49  1  6  0  0  0
 15 16  1  0  0  0  0
 15 50  1  0  0  0  0
 15 51  1  0  0  0  0
 16 22  1  0  0  0  0
 16 23  1  0  0  0  0
 16 52  1  0  0  0  0
 19 53  1  0  0  0  0
 19 54  1  0  0  0  0
 19 55  1  0  0  0  0
 20 56  1  0  0  0  0
 20 57  1  0  0  0  0
 20 58  1  0  0  0  0
 21  9  1  0  0  0  0
 21 24  1  0  0  0  0
 21 25  1  0  0  0  0
 21 59  1  6  0  0  0
 22 60  1  0  0  0  0
 22 61  1  0  0  0  0
 22 62  1  0  0  0  0
 23 63  1  0  0  0  0
 23 64  1  0  0  0  0
 23 65  1  0  0  0  0
 24 26  1  0  0  0  0
 24 66  1  0  0  0  0
 24 67  1  0  0  0  0
 25 28  1  0  0  0  0
 26 29  2  0  0  0  0
 26 30  1  0  0  0  0
 28 68  1  0  0  0  0
 28 69  1  0  0  0  0
 29 31  1  0  0  0  0
 29 70  1  0  0  0  0
 30 32  2  0  0  0  0
 30 71  1  0  0  0  0
 31 33  2  0  0  0  0
 31 72  1  0  0  0  0
 32 33  1  0  0  0  0
 32 73  1  0  0  0  0
 34 35  1  0  0  0  0
 34 74  1  0  0  0  0
 34 75  1  0  0  0  0
 35 36  2  0  0  0  0
 35 37  1  0  0  0  0
 36 38  1  0  0  0  0
 36 76  1  0  0  0  0
 37 39  2  0  0  0  0
 37 77  1  0  0  0  0
 38 40  2  0  0  0  0
 38 78  1  0  0  0  0
 39 40  1  0  0  0  0
 39 79  1  0  0  0  0
 40 80  1  0  0  0  0
M  END
>  <DRUGBANK_ID>
DB04653

>  <COMMON_NAME>
N-[(benzyloxy)carbonyl]-L-leucyl-N-[(1S)-3-fluoro-1-(4-hydroxybenzyl)-2-oxopropyl]-L-leucinamide

>  <CAS_NUMBER>
133410-84-1

>  <UNII>
55GY047QB0

>  <SYNONYMS>
Calpain inhibitor IV; CBZ-LEU-LEU-TYR-CH2F; N-[(benzyloxy)carbonyl]leucyl-N(1)-[3-fluoro-1-(4-hydroxybenzyl)-2-oxopropyl]leucinamide

$$$$
