TH1
 OpenBabel10282417133D

 38 40  0  0  0  0  0  0  0  0999 V2000
    1.0796    1.4288   -0.1801 C   0  0  1  0  0  0  0  0  0  0  0  0
    1.2024   -0.0535    0.2487 C   0  0  2  0  0  0  0  0  0  0  0  0
    2.3478   -0.7241   -0.3011 O   0  0  0  0  0  0  0  0  0  0  0  0
   -0.0420   -0.8242   -0.1958 C   0  0  1  0  0  0  0  0  0  0  0  0
   -0.0089   -2.1606    0.3201 O   0  0  0  0  0  0  0  0  0  0  0  0
   -1.3234   -0.1117    0.2448 C   0  0  2  0  0  0  0  0  0  0  0  0
   -2.4746   -0.7700   -0.2815 O   0  0  0  0  0  0  0  0  0  0  0  0
   -1.2951    1.3557   -0.1943 C   0  0  2  0  0  0  0  0  0  0  0  0
   -0.1298    2.0096    0.3216 O   0  0  0  0  0  0  0  0  0  0  0  0
   -2.5237    2.0954    0.3380 C   0  0  0  0  0  0  0  0  0  0  0  0
   -2.4766    3.4627   -0.0662 O   0  0  0  0  0  0  0  0  0  0  0  0
    2.2352    2.2327    0.3503 C   0  0  0  0  0  0  0  0  0  0  0  0
    2.2094    3.2008    1.2440 N   0  0  0  0  0  0  0  0  0  0  0  0
    3.5125    3.6125    1.5148 C   0  0  0  0  0  0  0  0  0  0  0  0
    3.9238    4.6297    2.4018 C   0  0  0  0  0  0  0  0  0  0  0  0
    5.3032    4.8804    2.5653 C   0  0  0  0  0  0  0  0  0  0  0  0
    6.2472    4.1130    1.8807 C   0  0  0  0  0  0  0  0  0  0  0  0
    5.8621    3.1114    1.0063 C   0  0  0  0  0  0  0  0  0  0  0  0
    4.4929    2.9162    0.8191 C   0  0  0  0  0  0  0  0  0  0  0  0
    3.7815    1.8611   -0.2991 S   0  0  0  0  0  0  0  0  0  0  0  0
    5.7756    5.9715    3.4756 C   0  0  0  0  0  0  0  0  0  0  0  0
    1.0830    1.5182   -1.2749 H   0  0  0  0  0  0  0  0  0  0  0  0
    1.3038   -0.1204    1.3397 H   0  0  0  0  0  0  0  0  0  0  0  0
   -0.0295   -0.9399   -1.2868 H   0  0  0  0  0  0  0  0  0  0  0  0
   -1.3877   -0.1716    1.3382 H   0  0  0  0  0  0  0  0  0  0  0  0
   -1.2855    1.4444   -1.2896 H   0  0  0  0  0  0  0  0  0  0  0  0
    2.3415   -0.6371   -1.2699 H   0  0  0  0  0  0  0  0  0  0  0  0
    0.1174   -2.1123    1.2846 H   0  0  0  0  0  0  0  0  0  0  0  0
   -2.3774   -0.8488   -1.2467 H   0  0  0  0  0  0  0  0  0  0  0  0
   -3.4477    1.6568   -0.0490 H   0  0  0  0  0  0  0  0  0  0  0  0
   -2.5491    2.0729    1.4322 H   0  0  0  0  0  0  0  0  0  0  0  0
   -1.6360    3.8122    0.2900 H   0  0  0  0  0  0  0  0  0  0  0  0
    3.1797    5.2117    2.9370 H   0  0  0  0  0  0  0  0  0  0  0  0
    7.3123    4.2973    2.0058 H   0  0  0  0  0  0  0  0  0  0  0  0
    6.5833    2.5132    0.4638 H   0  0  0  0  0  0  0  0  0  0  0  0
    5.3957    6.9383    3.1344 H   0  0  0  0  0  0  0  0  0  0  0  0
    5.4472    5.7765    4.4995 H   0  0  0  0  0  0  0  0  0  0  0  0
    6.8703    6.0247    3.4777 H   0  0  0  0  0  0  0  0  0  0  0  0
  1  2  1  0  0  0  0
  1  9  1  0  0  0  0
  1 12  1  0  0  0  0
  1 22  1  6  0  0  0
  2  3  1  0  0  0  0
  2  4  1  0  0  0  0
  2 23  1  1  0  0  0
  3 27  1  0  0  0  0
  4  5  1  0  0  0  0
  4  6  1  0  0  0  0
  4 24  1  6  0  0  0
  5 28  1  0  0  0  0
  6  7  1  0  0  0  0
  6  8  1  0  0  0  0
  6 25  1  1  0  0  0
  7 29  1  0  0  0  0
  8  9  1  0  0  0  0
  8 10  1  0  0  0  0
  8 26  1  6  0  0  0
 10 11  1  0  0  0  0
 10 30  1  0  0  0  0
 10 31  1  0  0  0  0
 11 32  1  0  0  0  0
 12 13  2  0  0  0  0
 12 20  1  0  0  0  0
 13 14  1  0  0  0  0
 14 15  2  0  0  0  0
 14 19  1  0  0  0  0
 15 16  1  0  0  0  0
 15 33  1  0  0  0  0
 16 17  2  0  0  0  0
 16 21  1  0  0  0  0
 17 18  1  0  0  0  0
 17 34  1  0  0  0  0
 18 19  2  0  0  0  0
 18 35  1  0  0  0  0
 19 20  1  0  0  0  0
 21 36  1  0  0  0  0
 21 37  1  0  0  0  0
 21 38  1  0  0  0  0
M  END
>  <DRUGBANK_ID>
DB03250

>  <SECONDARY_ACCESSION_NUMBERS>
EXPT03046

>  <COMMON_NAME>
2-(Beta-D-Glucopyranosyl)-5-Methyl-1,3,4-Benzothiazole

$$$$
