
 OpenBabel10282417233D

 38 41  0  0  0  0  0  0  0  0999 V2000
    2.6087    0.8955    2.0943 O   0  0  0  0  0  0  0  0  0  0  0  0
    4.3055    0.9069    2.2651 P   0  0  3  0  0  0  0  0  0  0  0  0
    4.1315   -0.1946    0.9424 O   0  0  0  0  0  0  0  0  0  0  0  0
    4.2442    0.6384   -0.2373 C   0  0  1  0  0  0  0  0  0  0  0  0
    3.0693    1.6021   -0.0861 C   0  0  1  0  0  0  0  0  0  0  0  0
    2.0122    0.7226    0.7117 C   0  0  0  0  0  0  0  0  0  0  0  0
    3.3623    2.7605    0.7602 O   0  0  0  0  0  0  0  0  0  0  0  0
    4.6431    3.4369    0.7341 C   0  0  2  0  0  0  0  0  0  0  0  0
    5.9163    2.5282    0.5813 C   0  0  2  0  0  0  0  0  0  0  0  0
    5.5790    1.3918   -0.4343 C   0  0  0  0  0  0  0  0  0  0  0  0
    6.6294    0.4444   -0.5164 O   0  0  0  0  0  0  0  0  0  0  0  0
    5.5009    2.0272   -1.7198 O   0  0  0  0  0  0  0  0  0  0  0  0
    6.6155    2.1311    1.8833 N   0  0  0  0  0  0  0  0  0  0  0  0
    6.4158    2.9177    3.0998 C   0  0  0  0  0  0  0  0  0  0  0  0
    5.5332    3.9764    3.1209 C   0  0  0  0  0  0  0  0  0  0  0  0
    4.8257    4.3136    1.9240 N   0  0  0  0  0  0  0  0  0  0  0  0
    5.1418    4.4930    4.3651 N   0  0  0  0  0  0  0  0  0  0  0  0
    5.3687    3.8160    5.5444 C   0  0  0  0  0  0  0  0  0  0  0  0
    6.0642    2.7454    5.6789 N   0  0  0  0  0  0  0  0  0  0  0  0
    6.5174    2.1157    4.5187 C   0  0  0  0  0  0  0  0  0  0  0  0
    6.8240    0.9323    4.4915 O   0  0  0  0  0  0  0  0  0  0  0  0
    4.7986    4.3818    6.6526 N   0  0  0  0  0  0  0  0  0  0  0  0
    6.6633    3.1815    0.1274 H   0  0  0  0  0  0  0  0  0  0  0  0
    4.5495    4.0768   -0.1444 H   0  0  0  0  0  0  0  0  0  0  0  0
    2.6806    1.9353   -1.0602 H   0  0  0  0  0  0  0  0  0  0  0  0
    4.0991   -0.0530   -1.0828 H   0  0  0  0  0  0  0  0  0  0  0  0
    4.3942   -0.4564    3.1675 O   0  0  0  0  0  0  0  0  0  0  0  0
    4.4611    1.8927    3.4488 O   0  0  0  0  0  0  0  0  0  0  0  0
    1.8805   -0.3552    1.0049 H   0  0  0  0  0  0  0  0  0  0  0  0
    2.0837   -0.0136   -0.1701 H   0  0  0  0  0  0  0  0  0  0  0  0
    6.6191   -0.0861    0.3000 H   0  0  0  0  0  0  0  0  0  0  0  0
    5.3724    1.3309   -2.3870 H   0  0  0  0  0  0  0  0  0  0  0  0
    6.7455    1.1486    2.1498 H   0  0  0  0  0  0  0  0  0  0  0  0
    4.2377    5.1313    1.9689 H   0  0  0  0  0  0  0  0  0  0  0  0
    4.3007    5.0448    4.3395 H   0  0  0  0  0  0  0  0  0  0  0  0
    4.6166    5.3720    6.6888 H   0  0  0  0  0  0  0  0  0  0  0  0
    5.1416    3.9909    7.5285 H   0  0  0  0  0  0  0  0  0  0  0  0
    3.9686   -1.2090    2.7269 H   0  0  0  0  0  0  0  0  0  0  0  0
  1  2  1  0  0  0  0
  1  6  1  0  0  0  0
  2  3  1  0  0  0  0
  2 27  1  0  0  0  0
  2 28  2  0  0  0  0
  3  4  1  0  0  0  0
  4  5  1  0  0  0  0
  4 10  1  0  0  0  0
  4 26  1  6  0  0  0
  5  6  1  0  0  0  0
  5  7  1  0  0  0  0
  5 25  1  6  0  0  0
  6 29  1  0  0  0  0
  6 30  1  0  0  0  0
  8  7  1  0  0  0  0
  8 16  1  0  0  0  0
  8 24  1  6  0  0  0
  9  8  1  0  0  0  0
  9 13  1  0  0  0  0
  9 23  1  6  0  0  0
 10  9  1  0  0  0  0
 10 11  1  0  0  0  0
 10 12  1  0  0  0  0
 11 31  1  0  0  0  0
 12 32  1  0  0  0  0
 13 14  1  0  0  0  0
 13 33  1  0  0  0  0
 14 15  2  0  0  0  0
 14 20  1  0  0  0  0
 15 16  1  0  0  0  0
 15 17  1  0  0  0  0
 16 34  1  0  0  0  0
 17 35  1  0  0  0  0
 18 17  1  0  0  0  0
 18 22  1  0  0  0  0
 19 18  2  0  0  0  0
 20 19  1  0  0  0  0
 20 21  2  0  0  0  0
 22 36  1  0  0  0  0
 22 37  1  0  0  0  0
 27 38  1  0  0  0  0
M  END
>  <DRUGBANK_ID>
DB16628

>  <COMMON_NAME>
Fosdenopterin

>  <CAS_NUMBER>
150829-29-1

>  <UNII>
4X7K2681Y7

>  <SYNONYMS>
C(PMP); CPMP; Cyclic pyranopterin monophosphate; Fosdenopterin

$$$$
