
 OpenBabel10282417173D

 39 39  0  0  0  0  0  0  0  0999 V2000
   -1.0357    2.9250   -0.0630 C   0  0  0  0  0  0  0  0  0  0  0  0
   -1.4770    2.0963   -1.0399 N   0  0  0  0  0  0  0  0  0  0  0  0
    0.2901    2.6955    0.6513 C   0  0  1  0  0  0  0  0  0  0  0  0
    0.3814    0.5385   -1.3627 C   0  0  0  0  0  0  0  0  0  0  0  0
    1.2667    5.0298    0.3711 C   0  0  0  0  0  0  0  0  0  0  0  0
   -1.1228    0.6889   -1.1919 C   0  0  2  0  0  0  0  0  0  0  0  0
    1.4268    3.5565    0.0625 C   0  0  0  0  0  0  0  0  0  0  0  0
   -1.7040    3.9461    0.1102 O   0  0  0  0  0  0  0  0  0  0  0  0
    0.1237    2.8477    2.1590 C   0  0  0  0  0  0  0  0  0  0  0  0
    1.1109    1.2749   -2.0252 O   0  0  0  0  0  0  0  0  0  0  0  0
    1.9485    5.5620    1.2471 O   0  0  0  0  0  0  0  0  0  0  0  0
    0.2871    5.7212   -0.2687 N   0  0  0  0  0  0  0  0  0  0  0  0
    0.9130   -0.4011   -0.5597 O   0  0  0  0  0  0  0  0  0  0  0  0
   -0.9933    1.9709    2.6851 C   0  0  0  0  0  0  0  0  0  0  0  0
   -0.1626    5.3646   -1.5527 O   0  0  0  0  0  0  0  0  0  0  0  0
   -1.7433    0.1403   -2.4617 C   0  0  0  0  0  0  0  0  0  0  0  0
   -0.7052    0.8055    3.3931 C   0  0  0  0  0  0  0  0  0  0  0  0
   -2.3413    2.3133    2.4773 C   0  0  0  0  0  0  0  0  0  0  0  0
   -3.3773    1.5467    2.9856 C   0  0  0  0  0  0  0  0  0  0  0  0
   -1.7466    0.0406    3.9206 C   0  0  0  0  0  0  0  0  0  0  0  0
   -3.0782    0.4086    3.7145 C   0  0  0  0  0  0  0  0  0  0  0  0
   -2.4204    2.3601   -1.3121 H   0  0  0  0  0  0  0  0  0  0  0  0
    0.5945    1.6611    0.5495 H   0  0  0  0  0  0  0  0  0  0  0  0
   -1.4760    0.1581   -0.2990 H   0  0  0  0  0  0  0  0  0  0  0  0
    2.3759    3.2293    0.5115 H   0  0  0  0  0  0  0  0  0  0  0  0
    1.5499    3.4346   -1.0174 H   0  0  0  0  0  0  0  0  0  0  0  0
    1.0713    2.5512    2.6320 H   0  0  0  0  0  0  0  0  0  0  0  0
   -0.0603    3.8851    2.4486 H   0  0  0  0  0  0  0  0  0  0  0  0
    0.0614    6.6585    0.0427 H   0  0  0  0  0  0  0  0  0  0  0  0
    1.8781   -0.2237   -0.5789 H   0  0  0  0  0  0  0  0  0  0  0  0
   -0.5377    4.4736   -1.4373 H   0  0  0  0  0  0  0  0  0  0  0  0
   -1.4211   -0.8917   -2.6269 H   0  0  0  0  0  0  0  0  0  0  0  0
   -2.8359    0.1739   -2.4281 H   0  0  0  0  0  0  0  0  0  0  0  0
   -1.4183    0.7354   -3.3245 H   0  0  0  0  0  0  0  0  0  0  0  0
    0.3252    0.5008    3.5606 H   0  0  0  0  0  0  0  0  0  0  0  0
   -2.6339    3.1938    1.9156 H   0  0  0  0  0  0  0  0  0  0  0  0
   -4.4016    1.8734    2.8299 H   0  0  0  0  0  0  0  0  0  0  0  0
   -1.5177   -0.8349    4.5196 H   0  0  0  0  0  0  0  0  0  0  0  0
   -3.8865   -0.1802    4.1338 H   0  0  0  0  0  0  0  0  0  0  0  0
  2  1  1  0  0  0  0
  2 22  1  0  0  0  0
  3  1  1  0  0  0  0
  3  9  1  0  0  0  0
  3 23  1  6  0  0  0
  5  7  1  0  0  0  0
  6 16  1  0  0  0  0
  6 24  1  1  0  0  0
  6  2  1  0  0  0  0
  6  4  1  0  0  0  0
  7  3  1  0  0  0  0
  7 25  1  0  0  0  0
  7 26  1  0  0  0  0
  8  1  2  0  0  0  0
  9 27  1  0  0  0  0
  9 28  1  0  0  0  0
 10  4  2  0  0  0  0
 11  5  2  0  0  0  0
 12  5  1  0  0  0  0
 12 29  1  0  0  0  0
 13  4  1  0  0  0  0
 13 30  1  0  0  0  0
 14  9  1  0  0  0  0
 15 12  1  0  0  0  0
 15 31  1  0  0  0  0
 16 32  1  0  0  0  0
 16 33  1  0  0  0  0
 16 34  1  0  0  0  0
 17 14  1  0  0  0  0
 17 35  1  0  0  0  0
 18 14  2  0  0  0  0
 18 36  1  0  0  0  0
 19 18  1  0  0  0  0
 19 37  1  0  0  0  0
 20 17  2  0  0  0  0
 20 38  1  0  0  0  0
 21 20  1  0  0  0  0
 21 19  2  0  0  0  0
 21 39  1  0  0  0  0
M  END
>  <DRUGBANK_ID>
DB08040

>  <COMMON_NAME>
Kelatorphan

>  <CAS_NUMBER>
92175-57-0

>  <UNII>
46BBW2U5D6

>  <SYNONYMS>
(3-(N-Hydroxy)carboxamido-2-benzylpropanoyl)alanine

$$$$
