N5T
 OpenBabel10282417173D

 42 44  0  0  0  0  0  0  0  0999 V2000
    1.3585    0.0237    0.0061 C   0  0  0  0  0  0  0  0  0  0  0  0
    0.6685    1.2406    0.0299 C   0  0  0  0  0  0  0  0  0  0  0  0
   -0.7356    1.2615    0.0796 C   0  0  0  0  0  0  0  0  0  0  0  0
   -1.4028    0.0269    0.0581 C   0  0  0  0  0  0  0  0  0  0  0  0
   -0.7091   -1.1881    0.0219 C   0  0  0  0  0  0  0  0  0  0  0  0
    0.6831   -1.1912    0.0065 C   0  0  0  0  0  0  0  0  0  0  0  0
   -1.4870    2.5243    0.0647 C   0  0  0  0  0  0  0  0  0  0  0  0
   -2.5296    2.9652    1.0579 C   0  0  0  0  0  0  0  0  0  0  0  0
   -3.0275    4.2467    0.5009 N   0  0  0  0  0  0  0  0  0  0  0  0
   -2.4437    4.4899   -0.8128 C   0  0  1  0  0  0  0  0  0  0  0  0
   -1.4096    3.4049   -0.9361 C   0  0  0  0  0  0  0  0  0  0  0  0
   -3.4445    4.5416   -1.9988 C   0  0  0  0  0  0  0  0  0  0  0  0
   -4.6308    5.3015   -1.9582 C   0  0  0  0  0  0  0  0  0  0  0  0
   -5.1499    5.9546   -3.0680 C   0  0  0  0  0  0  0  0  0  0  0  0
   -4.7803    5.4980   -4.3073 C   0  0  0  0  0  0  0  0  0  0  0  0
   -3.8147    4.4957   -4.3947 C   0  0  0  0  0  0  0  0  0  0  0  0
   -3.1167    4.0569   -3.2600 C   0  0  0  0  0  0  0  0  0  0  0  0
   -3.9547    5.0029    1.1921 C   0  0  0  0  0  0  0  0  0  0  0  0
   -4.2670    6.3183    0.8171 N   0  0  0  0  0  0  0  0  0  0  0  0
   -5.5456    6.8865    1.2785 C   0  0  0  0  0  0  0  0  0  0  0  0
   -3.5535    7.1989   -0.1235 C   0  0  0  0  0  0  0  0  0  0  0  0
   -4.5574    4.4772    2.1544 O   0  0  0  0  0  0  0  0  0  0  0  0
   -2.7428   -0.0126    0.0299 F   0  0  0  0  0  0  0  0  0  0  0  0
    2.6984    0.0243   -0.0158 F   0  0  0  0  0  0  0  0  0  0  0  0
   -1.8389    5.4027   -0.7367 H   0  0  0  0  0  0  0  0  0  0  0  0
    1.2469    2.1598    0.0149 H   0  0  0  0  0  0  0  0  0  0  0  0
   -1.2627   -2.1225    0.0019 H   0  0  0  0  0  0  0  0  0  0  0  0
    1.2409   -2.1235   -0.0092 H   0  0  0  0  0  0  0  0  0  0  0  0
   -2.0678    3.1591    2.0344 H   0  0  0  0  0  0  0  0  0  0  0  0
   -3.3480    2.2497    1.1663 H   0  0  0  0  0  0  0  0  0  0  0  0
   -0.7205    3.3491   -1.7670 H   0  0  0  0  0  0  0  0  0  0  0  0
   -5.1345    5.5276   -1.0352 H   0  0  0  0  0  0  0  0  0  0  0  0
   -5.8472    6.7805   -2.9372 H   0  0  0  0  0  0  0  0  0  0  0  0
   -5.2985    5.8721   -5.1827 H   0  0  0  0  0  0  0  0  0  0  0  0
   -3.5786    4.0689   -5.3614 H   0  0  0  0  0  0  0  0  0  0  0  0
   -2.3352    3.3141   -3.3779 H   0  0  0  0  0  0  0  0  0  0  0  0
   -5.4008    7.9357    1.5534 H   0  0  0  0  0  0  0  0  0  0  0  0
   -6.2691    6.8602    0.4493 H   0  0  0  0  0  0  0  0  0  0  0  0
   -5.9918    6.3472    2.1171 H   0  0  0  0  0  0  0  0  0  0  0  0
   -2.6602    7.6299    0.3179 H   0  0  0  0  0  0  0  0  0  0  0  0
   -3.1733    6.6880   -0.9840 H   0  0  0  0  0  0  0  0  0  0  0  0
   -4.2393    7.9334   -0.5648 H   0  0  0  0  0  0  0  0  0  0  0  0
  1  2  1  0  0  0  0
  1  6  2  0  0  0  0
  1 24  1  0  0  0  0
  2  3  2  0  0  0  0
  2 26  1  0  0  0  0
  3  4  1  0  0  0  0
  3  7  1  0  0  0  0
  4  5  2  0  0  0  0
  4 23  1  0  0  0  0
  5  6  1  0  0  0  0
  5 27  1  0  0  0  0
  6 28  1  0  0  0  0
  7  8  1  0  0  0  0
  7 11  2  0  0  0  0
  8  9  1  0  0  0  0
  8 29  1  0  0  0  0
  8 30  1  0  0  0  0
  9 10  1  0  0  0  0
  9 18  1  0  0  0  0
 10 11  1  0  0  0  0
 10 12  1  0  0  0  0
 10 25  1  1  0  0  0
 11 31  1  0  0  0  0
 12 13  2  0  0  0  0
 12 17  1  0  0  0  0
 13 14  1  0  0  0  0
 13 32  1  0  0  0  0
 14 15  2  0  0  0  0
 14 33  1  0  0  0  0
 15 16  1  0  0  0  0
 15 34  1  0  0  0  0
 16 17  2  0  0  0  0
 16 35  1  0  0  0  0
 17 36  1  0  0  0  0
 18 19  1  0  0  0  0
 18 22  2  0  0  0  0
 19 20  1  0  0  0  0
 19 21  1  0  0  0  0
 20 37  1  0  0  0  0
 20 38  1  0  0  0  0
 20 39  1  0  0  0  0
 21 40  1  0  0  0  0
 21 41  1  0  0  0  0
 21 42  1  0  0  0  0
M  END
>  <DRUGBANK_ID>
DB08246

>  <COMMON_NAME>
(2S)-4-(2,5-DIFLUOROPHENYL)-N,N-DIMETHYL-2-PHENYL-2,5-DIHYDRO-1H-PYRROLE-1-CARBOXAMIDE

$$$$
