1545
 OpenBabel10282417113D

 39 41  0  0  1  0  0  0  0  0999 V2000
    1.0994   -0.0011   -0.0878 Cl  0  0  0  0  0  0  0  0  0  0  0  0
    5.1410    1.8486    2.8831 F   0  0  0  0  0  0  0  0  0  0  0  0
    6.6260    1.9345   -3.8456 O   0  0  0  0  0  0  0  0  0  0  0  0
    9.0383    0.5055   -0.6562 O   0  0  0  0  0  0  0  0  0  0  0  0
    5.2567    0.9064   -2.4869 O   0  0  0  0  0  0  0  0  0  0  0  0
    7.0050   -0.1007    0.0511 N   0  0  0  0  0  0  0  0  0  0  0  0
    6.5963    2.8807   -0.4914 N   0  0  0  0  0  0  0  0  0  0  0  0
    4.9018    1.1978    0.1561 C   0  0  0  0  0  0  0  0  0  0  0  0
    5.5763    2.5259    0.2180 C   0  0  0  0  0  0  0  0  0  0  0  0
    7.2321    1.8988   -1.4154 C   0  0  3  0  0  0  0  0  0  0  0  0
    5.6100   -0.0140    0.0870 C   0  0  0  0  0  0  0  0  0  0  0  0
    5.0072    3.5061    1.1834 C   0  0  0  0  0  0  0  0  0  0  0  0
    7.8250    0.7396   -0.6398 C   0  0  0  0  0  0  0  0  0  0  0  0
    3.4992    1.1953    0.1073 C   0  0  0  0  0  0  0  0  0  0  0  0
    4.9083   -1.2148   -0.0477 C   0  0  0  0  0  0  0  0  0  0  0  0
    6.3168    1.5311   -2.5975 C   0  0  0  0  0  0  0  0  0  0  0  0
    2.8174   -0.0066   -0.0290 C   0  0  0  0  0  0  0  0  0  0  0  0
    3.5146   -1.2077   -0.1242 C   0  0  0  0  0  0  0  0  0  0  0  0
    4.7874    3.0827    2.4952 C   0  0  0  0  0  0  0  0  0  0  0  0
    4.6486    4.8034    0.8023 C   0  0  0  0  0  0  0  0  0  0  0  0
    4.1953    3.9246    3.4250 C   0  0  0  0  0  0  0  0  0  0  0  0
    4.1532    5.6866    1.7697 C   0  0  0  0  0  0  0  0  0  0  0  0
    3.9275    5.2464    3.0780 C   0  0  0  0  0  0  0  0  0  0  0  0
    7.8102    2.6497   -4.1938 C   0  0  0  0  0  0  0  0  0  0  0  0
    7.7827    4.0599   -3.6380 C   0  0  0  0  0  0  0  0  0  0  0  0
    7.4628   -0.9571    0.3372 H   0  0  0  0  0  0  0  0  0  0  0  0
    8.1410    2.3749   -1.7842 H   0  0  0  0  0  0  0  0  0  0  0  0
    2.9392    2.1261    0.1334 H   0  0  0  0  0  0  0  0  0  0  0  0
    5.4408   -2.1507   -0.1982 H   0  0  0  0  0  0  0  0  0  0  0  0
    2.9813   -2.1394   -0.2866 H   0  0  0  0  0  0  0  0  0  0  0  0
    4.7347    5.1271   -0.2323 H   0  0  0  0  0  0  0  0  0  0  0  0
    3.9590    3.5424    4.4123 H   0  0  0  0  0  0  0  0  0  0  0  0
    3.9319    6.7197    1.5077 H   0  0  0  0  0  0  0  0  0  0  0  0
    3.5421    5.9321    3.8288 H   0  0  0  0  0  0  0  0  0  0  0  0
    8.6881    2.0649   -3.9034 H   0  0  0  0  0  0  0  0  0  0  0  0
    7.8065    2.7022   -5.2877 H   0  0  0  0  0  0  0  0  0  0  0  0
    7.7390    4.1044   -2.5498 H   0  0  0  0  0  0  0  0  0  0  0  0
    8.6786    4.5998   -3.9429 H   0  0  0  0  0  0  0  0  0  0  0  0
    6.8828    4.5827   -3.9720 H   0  0  0  0  0  0  0  0  0  0  0  0
  1 17  1  0  0  0  0
  2 19  1  0  0  0  0
  3 16  1  0  0  0  0
  3 24  1  0  0  0  0
  4 13  2  0  0  0  0
  5 16  2  0  0  0  0
  6 11  1  0  0  0  0
  6 13  1  0  0  0  0
  6 26  1  0  0  0  0
  7  9  2  0  0  0  0
  7 10  1  0  0  0  0
  8  9  1  0  0  0  0
  8 11  2  0  0  0  0
  8 14  1  0  0  0  0
  9 12  1  0  0  0  0
 10 13  1  0  0  0  0
 10 16  1  0  0  0  0
 10 27  1  0  0  0  0
 11 15  1  0  0  0  0
 12 19  1  0  0  0  0
 12 20  2  0  0  0  0
 14 17  2  0  0  0  0
 14 28  1  0  0  0  0
 15 18  2  0  0  0  0
 15 29  1  0  0  0  0
 17 18  1  0  0  0  0
 18 30  1  0  0  0  0
 19 21  2  0  0  0  0
 20 22  1  0  0  0  0
 20 31  1  0  0  0  0
 21 23  1  0  0  0  0
 21 32  1  0  0  0  0
 22 23  2  0  0  0  0
 22 33  1  0  0  0  0
 23 34  1  0  0  0  0
 24 25  1  0  0  0  0
 24 35  1  0  0  0  0
 24 36  1  0  0  0  0
 25 37  1  0  0  0  0
 25 38  1  0  0  0  0
 25 39  1  0  0  0  0
M  END
>  <DRUGBANK_ID>
DB01545

>  <COMMON_NAME>
Ethyl loflazepate

>  <CAS_NUMBER>
29177-84-2

>  <UNII>
VJB5FW9W9J

>  <SYNONYMS>
Ethyl fluclozepate; Ethyl loflazepate; Ethylis loflazepas; Loflazepate d'ethyle; Loflazepato de etilo

$$$$
