
 OpenBabel10282417223D

 56 55  0  0  0  0  0  0  0  0999 V2000
    0.9804    0.0337   -0.1883 C   0  0  0  0  0  0  0  0  0  0  0  0
    0.5545   -1.2335    0.5351 C   0  0  0  0  0  0  0  0  0  0  0  0
    1.0850   -1.2262    1.9708 C   0  0  0  0  0  0  0  0  0  0  0  0
    0.5324   -0.0390    2.7505 C   0  0  0  0  0  0  0  0  0  0  0  0
   -0.9895   -0.0928    2.7439 C   0  0  0  0  0  0  0  0  0  0  0  0
   -1.4901   -1.3832    3.4248 C   0  0  0  0  0  0  0  0  0  0  0  0
   -1.1142   -1.3562    4.8925 C   0  0  0  0  0  0  0  0  0  0  0  0
   -1.6343   -0.0740    5.5366 C   0  0  0  0  0  0  0  0  0  0  0  0
   -3.1275   -0.0540    5.6731 C   0  0  0  0  0  0  0  0  0  0  0  0
   -3.7418   -0.1633    6.8532 C   0  0  0  0  0  0  0  0  0  0  0  0
   -3.0255   -0.1596    8.1655 C   0  0  0  0  0  0  0  0  0  0  0  0
   -3.4233    1.0980    8.9271 C   0  0  0  0  0  0  0  0  0  0  0  0
   -4.9155    1.0778    9.2551 C   0  0  0  0  0  0  0  0  0  0  0  0
   -5.2721   -0.1863   10.0449 C   0  0  0  0  0  0  0  0  0  0  0  0
   -4.4981   -0.2366   11.3672 C   0  0  0  0  0  0  0  0  0  0  0  0
   -4.8847    0.9333   12.2782 C   0  0  0  0  0  0  0  0  0  0  0  0
   -6.3831    0.9587   12.5836 C   0  0  0  0  0  0  0  0  0  0  0  0
   -6.8258   -0.3081   13.2827 C   0  0  0  0  0  0  0  0  0  0  0  0
   -7.3355   -0.1155   14.5118 O   0  0  0  0  0  0  0  0  0  0  0  0
   -6.7440   -1.4337   12.7977 O   0  0  0  0  0  0  0  0  0  0  0  0
   -4.0231    0.1383    4.5046 N   0  3  0  0  0  0  0  0  0  0  0  0
   -3.5611    0.6335    3.4742 O   0  5  0  0  0  0  0  0  0  0  0  0
   -5.2162   -0.1770    4.6238 O   0  0  0  0  0  0  0  0  0  0  0  0
    0.5772    0.9364    0.2837 H   0  0  0  0  0  0  0  0  0  0  0  0
    0.6220    0.0314   -1.2177 H   0  0  0  0  0  0  0  0  0  0  0  0
    2.0711    0.1100   -0.1807 H   0  0  0  0  0  0  0  0  0  0  0  0
   -0.5390   -1.3217    0.5049 H   0  0  0  0  0  0  0  0  0  0  0  0
    0.9256   -2.1190    0.0150 H   0  0  0  0  0  0  0  0  0  0  0  0
    0.8193   -2.1684    2.4634 H   0  0  0  0  0  0  0  0  0  0  0  0
    2.1762   -1.1961    1.9857 H   0  0  0  0  0  0  0  0  0  0  0  0
    0.9269   -0.0331    3.7726 H   0  0  0  0  0  0  0  0  0  0  0  0
    0.8654    0.9174    2.3362 H   0  0  0  0  0  0  0  0  0  0  0  0
   -1.3215    0.8315    3.2199 H   0  0  0  0  0  0  0  0  0  0  0  0
   -1.4241   -0.0096    1.7452 H   0  0  0  0  0  0  0  0  0  0  0  0
   -2.5679   -1.5210    3.3205 H   0  0  0  0  0  0  0  0  0  0  0  0
   -1.0985   -2.2846    2.9500 H   0  0  0  0  0  0  0  0  0  0  0  0
   -1.4964   -2.2452    5.4089 H   0  0  0  0  0  0  0  0  0  0  0  0
   -0.0243   -1.4098    5.0162 H   0  0  0  0  0  0  0  0  0  0  0  0
   -1.1271   -0.0668    6.5017 H   0  0  0  0  0  0  0  0  0  0  0  0
   -1.2552    0.8591    5.1164 H   0  0  0  0  0  0  0  0  0  0  0  0
   -4.8292   -0.1911    6.8858 H   0  0  0  0  0  0  0  0  0  0  0  0
   -3.2506   -1.0918    8.6860 H   0  0  0  0  0  0  0  0  0  0  0  0
   -1.9401   -0.1599    8.1142 H   0  0  0  0  0  0  0  0  0  0  0  0
   -2.8168    1.1640    9.8367 H   0  0  0  0  0  0  0  0  0  0  0  0
   -3.1735    2.0005    8.3557 H   0  0  0  0  0  0  0  0  0  0  0  0
   -5.1810    1.9870    9.8006 H   0  0  0  0  0  0  0  0  0  0  0  0
   -5.5203    1.1247    8.3439 H   0  0  0  0  0  0  0  0  0  0  0  0
   -6.3531   -0.2265   10.1970 H   0  0  0  0  0  0  0  0  0  0  0  0
   -5.0691   -1.0968    9.4717 H   0  0  0  0  0  0  0  0  0  0  0  0
   -4.6679   -1.1969   11.8584 H   0  0  0  0  0  0  0  0  0  0  0  0
   -3.4150   -0.2315   11.2026 H   0  0  0  0  0  0  0  0  0  0  0  0
   -4.3036    0.8819   13.2039 H   0  0  0  0  0  0  0  0  0  0  0  0
   -4.5968    1.8830   11.8078 H   0  0  0  0  0  0  0  0  0  0  0  0
   -6.6150    1.8424   13.1849 H   0  0  0  0  0  0  0  0  0  0  0  0
   -6.9856    1.0711   11.6749 H   0  0  0  0  0  0  0  0  0  0  0  0
   -7.3987    0.8173   14.7838 H   0  0  0  0  0  0  0  0  0  0  0  0
  1  2  1  0  0  0  0
  1 24  1  0  0  0  0
  1 25  1  0  0  0  0
  1 26  1  0  0  0  0
  2  3  1  0  0  0  0
  2 27  1  0  0  0  0
  2 28  1  0  0  0  0
  3  4  1  0  0  0  0
  3 29  1  0  0  0  0
  3 30  1  0  0  0  0
  4  5  1  0  0  0  0
  4 31  1  0  0  0  0
  4 32  1  0  0  0  0
  5  6  1  0  0  0  0
  5 33  1  0  0  0  0
  5 34  1  0  0  0  0
  6  7  1  0  0  0  0
  6 35  1  0  0  0  0
  6 36  1  0  0  0  0
  7  8  1  0  0  0  0
  7 37  1  0  0  0  0
  7 38  1  0  0  0  0
  8  9  1  0  0  0  0
  8 39  1  0  0  0  0
  8 40  1  0  0  0  0
  9 10  2  0  0  0  0
  9 21  1  0  0  0  0
 10 11  1  0  0  0  0
 10 41  1  0  0  0  0
 11 12  1  0  0  0  0
 11 42  1  0  0  0  0
 11 43  1  0  0  0  0
 12 13  1  0  0  0  0
 12 44  1  0  0  0  0
 12 45  1  0  0  0  0
 13 14  1  0  0  0  0
 13 46  1  0  0  0  0
 13 47  1  0  0  0  0
 14 15  1  0  0  0  0
 14 48  1  0  0  0  0
 14 49  1  0  0  0  0
 15 16  1  0  0  0  0
 15 50  1  0  0  0  0
 15 51  1  0  0  0  0
 16 17  1  0  0  0  0
 16 52  1  0  0  0  0
 16 53  1  0  0  0  0
 17 18  1  0  0  0  0
 17 54  1  0  0  0  0
 17 55  1  0  0  0  0
 18 19  1  0  0  0  0
 18 20  2  0  0  0  0
 19 56  1  0  0  0  0
 21 22  1  0  0  0  0
 21 23  2  0  0  0  0
M  CHG  2  21   1  22  -1
M  END
>  <DRUGBANK_ID>
DB15026

>  <COMMON_NAME>
CXA-10

>  <CAS_NUMBER>
875685-46-4

>  <UNII>
1N19AGY57Y

>  <SYNONYMS>
10-nitro-9(E)-octadec-9-enoic acid

$$$$
