
 OpenBabel10282417143D

 89 94  0  0  0  0  0  0  0  0999 V2000
   -0.3640   -0.1076    0.1563 C   0  0  0  0  0  0  0  0  0  0  0  0
   -0.0977    0.5441   -1.2040 C   0  0  1  0  0  0  0  0  0  0  0  0
   -1.4040    1.2066   -1.9801 C   0  0  2  0  0  0  0  0  0  0  0  0
   -1.6442    0.4448   -3.3016 C   0  0  1  0  0  0  0  0  0  0  0  0
   -2.7629   -0.4013   -3.2637 O   0  0  0  0  0  0  0  0  0  0  0  0
   -3.3894   -0.2629   -1.9991 C   0  0  1  0  0  0  0  0  0  0  0  0
   -4.8904   -0.1436   -2.3021 C   0  0  0  0  0  0  0  0  0  0  0  0
   -5.3153   -1.4409   -2.9781 C   0  0  0  0  0  0  0  0  0  0  0  0
   -5.0823   -2.5123   -1.9267 C   0  0  1  0  0  0  0  0  0  0  0  0
   -6.2102   -3.5343   -1.9397 C   0  0  0  0  0  0  0  0  0  0  0  0
   -3.5678   -2.7030   -1.7547 C   0  0  0  0  0  0  0  0  0  0  0  0
   -3.0951   -1.4316   -1.1794 O   0  0  0  0  0  0  0  0  0  0  0  0
   -2.8349    1.0720   -1.4278 C   0  0  1  0  0  0  0  0  0  0  0  0
   -2.8587    1.2617    0.0573 C   0  0  0  0  0  0  0  0  0  0  0  0
   -0.4806   -0.4473   -3.4477 C   0  0  0  0  0  0  0  0  0  0  0  0
    0.2247   -0.6912   -2.1481 C   0  0  1  0  0  0  0  0  0  0  0  0
    1.7436   -0.7337   -2.3339 C   0  0  1  0  0  0  0  0  0  0  0  0
    2.2076    0.6604   -2.7532 C   0  0  2  0  0  0  0  0  0  0  0  0
    2.7081    1.2448   -1.4701 C   0  0  0  0  0  0  0  0  0  0  0  0
    1.2623    1.6096   -0.8199 C   0  0  0  0  0  0  0  0  0  0  0  0
    2.4920    1.0596   -4.2105 C   0  0  1  0  0  0  0  0  0  0  0  0
    1.0722    1.3474   -5.0052 C   0  0  0  0  0  0  0  0  0  0  0  0
    3.1605    2.4728   -4.2050 C   0  0  0  0  0  0  0  0  0  0  0  0
    2.9794    2.9891   -5.5979 C   0  0  0  0  0  0  0  0  0  0  0  0
    3.5365    1.8910   -6.5844 C   0  0  1  0  0  0  0  0  0  0  0  0
    2.7862    0.4940   -6.6667 C   0  0  0  0  0  0  0  0  0  0  0  0
    2.7962   -0.0917   -5.1733 C   0  0  0  0  0  0  0  0  0  0  0  0
    2.5180   -1.3515   -4.7096 C   0  0  0  0  0  0  0  0  0  0  0  0
    2.3311   -1.7850   -3.2403 C   0  0  0  0  0  0  0  0  0  0  0  0
    3.7514    2.4401   -7.9010 O   0  0  0  0  0  0  0  0  0  0  0  0
    4.5800    3.4950   -8.0296 C   0  0  0  0  0  0  0  0  0  0  0  0
    4.2442    4.7811   -7.3121 C   0  0  0  0  0  0  0  0  0  0  0  0
    5.3818    5.4144   -6.5460 C   0  0  0  0  0  0  0  0  0  0  0  0
    6.3703    6.0126   -7.5152 C   0  0  0  0  0  0  0  0  0  0  0  0
    5.6678    6.9403   -8.5139 C   0  0  0  0  0  0  0  0  0  0  0  0
    5.0006    8.1086   -7.8009 C   0  0  0  0  0  0  0  0  0  0  0  0
    5.4929    3.4720   -8.9161 O   0  0  0  0  0  0  0  0  0  0  0  0
    1.3469    1.3183   -2.7942 H   0  0  0  0  0  0  0  0  0  0  0  0
    2.0773   -0.9840   -1.3103 H   0  0  0  0  0  0  0  0  0  0  0  0
   -0.1767   -1.6322   -1.7660 H   0  0  0  0  0  0  0  0  0  0  0  0
   -1.7795    1.1130   -4.1699 H   0  0  0  0  0  0  0  0  0  0  0  0
   -1.1846    2.2617   -2.2172 H   0  0  0  0  0  0  0  0  0  0  0  0
   -1.0364   -0.9632    0.0633 H   0  0  0  0  0  0  0  0  0  0  0  0
   -0.7423    0.5977    0.8913 H   0  0  0  0  0  0  0  0  0  0  0  0
    0.5607   -0.4776    0.6012 H   0  0  0  0  0  0  0  0  0  0  0  0
   -5.1577    0.6855   -2.9677 H   0  0  0  0  0  0  0  0  0  0  0  0
   -5.4174    0.0169   -1.3538 H   0  0  0  0  0  0  0  0  0  0  0  0
   -6.3458   -1.4039   -3.3397 H   0  0  0  0  0  0  0  0  0  0  0  0
   -4.7030   -1.6335   -3.8719 H   0  0  0  0  0  0  0  0  0  0  0  0
   -5.3096   -2.0793   -0.9453 H   0  0  0  0  0  0  0  0  0  0  0  0
   -7.1507   -2.9520   -1.9472 H   0  0  0  0  0  0  0  0  0  0  0  0
   -6.2597   -4.2131   -2.7900 H   0  0  0  0  0  0  0  0  0  0  0  0
   -6.2576   -4.0907   -0.9977 H   0  0  0  0  0  0  0  0  0  0  0  0
   -3.4190   -3.5559   -1.0798 H   0  0  0  0  0  0  0  0  0  0  0  0
   -2.8689   -2.9070   -2.5814 H   0  0  0  0  0  0  0  0  0  0  0  0
   -3.4337    1.8903   -1.8671 H   0  0  0  0  0  0  0  0  0  0  0  0
   -2.0673    1.9806    0.3051 H   0  0  0  0  0  0  0  0  0  0  0  0
   -3.7805    1.6601    0.4686 H   0  0  0  0  0  0  0  0  0  0  0  0
   -2.7091    0.2992    0.5430 H   0  0  0  0  0  0  0  0  0  0  0  0
   -0.5050   -1.1972   -4.2417 H   0  0  0  0  0  0  0  0  0  0  0  0
    0.1895    0.2439   -3.7834 H   0  0  0  0  0  0  0  0  0  0  0  0
    3.4460    2.0326   -1.6708 H   0  0  0  0  0  0  0  0  0  0  0  0
    3.2882    0.5217   -0.8636 H   0  0  0  0  0  0  0  0  0  0  0  0
    1.0113    2.6167   -1.1845 H   0  0  0  0  0  0  0  0  0  0  0  0
    1.3618    1.7005    0.2674 H   0  0  0  0  0  0  0  0  0  0  0  0
    1.1368    1.9038   -5.9272 H   0  0  0  0  0  0  0  0  0  0  0  0
    0.6425    0.4127   -5.4136 H   0  0  0  0  0  0  0  0  0  0  0  0
    0.3470    1.9525   -4.4711 H   0  0  0  0  0  0  0  0  0  0  0  0
    4.1895    2.5999   -3.8474 H   0  0  0  0  0  0  0  0  0  0  0  0
    2.5921    3.1106   -3.4932 H   0  0  0  0  0  0  0  0  0  0  0  0
    2.4360    3.6728   -6.2644 H   0  0  0  0  0  0  0  0  0  0  0  0
    1.9558    3.2470   -5.2508 H   0  0  0  0  0  0  0  0  0  0  0  0
    4.5266    1.6159   -6.2074 H   0  0  0  0  0  0  0  0  0  0  0  0
    3.0603   -0.1675   -7.4991 H   0  0  0  0  0  0  0  0  0  0  0  0
    1.7619    0.6810   -7.0486 H   0  0  0  0  0  0  0  0  0  0  0  0
    2.1660   -2.1158   -5.3991 H   0  0  0  0  0  0  0  0  0  0  0  0
    3.3123   -2.0967   -2.8452 H   0  0  0  0  0  0  0  0  0  0  0  0
    1.6921   -2.6662   -3.0983 H   0  0  0  0  0  0  0  0  0  0  0  0
    3.6949    5.4015   -8.0237 H   0  0  0  0  0  0  0  0  0  0  0  0
    3.5307    4.7878   -6.5266 H   0  0  0  0  0  0  0  0  0  0  0  0
    4.9673    6.1943   -5.8887 H   0  0  0  0  0  0  0  0  0  0  0  0
    5.8453    4.6945   -5.8600 H   0  0  0  0  0  0  0  0  0  0  0  0
    7.1393    6.5507   -6.9560 H   0  0  0  0  0  0  0  0  0  0  0  0
    6.8793    5.2033   -8.0455 H   0  0  0  0  0  0  0  0  0  0  0  0
    6.3935    7.2927   -9.2468 H   0  0  0  0  0  0  0  0  0  0  0  0
    4.9154    6.4095   -9.1096 H   0  0  0  0  0  0  0  0  0  0  0  0
    5.7504    8.6712   -7.2390 H   0  0  0  0  0  0  0  0  0  0  0  0
    4.5151    8.7701   -8.5204 H   0  0  0  0  0  0  0  0  0  0  0  0
    4.2244    7.7872   -7.0961 H   0  0  0  0  0  0  0  0  0  0  0  0
  1 43  1  0  0  0  0
  1 44  1  0  0  0  0
  1 45  1  0  0  0  0
  2  1  1  6  0  0  0
  3  2  1  0  0  0  0
  3 42  1  1  0  0  0
  4  3  1  0  0  0  0
  4 41  1  1  0  0  0
  5  4  1  0  0  0  0
  6  5  1  6  0  0  0
  6 12  1  0  0  0  0
  6 13  1  0  0  0  0
  7  6  1  0  0  0  0
  7 46  1  0  0  0  0
  7 47  1  0  0  0  0
  8  7  1  0  0  0  0
  8 48  1  0  0  0  0
  8 49  1  0  0  0  0
  9  8  1  0  0  0  0
  9 11  1  0  0  0  0
  9 10  1  0  0  0  0
  9 50  1  1  0  0  0
 10 51  1  0  0  0  0
 10 52  1  0  0  0  0
 10 53  1  0  0  0  0
 11 12  1  0  0  0  0
 11 54  1  0  0  0  0
 11 55  1  0  0  0  0
 13  3  1  0  0  0  0
 13 56  1  6  0  0  0
 13 14  1  0  0  0  0
 14 57  1  0  0  0  0
 14 58  1  0  0  0  0
 14 59  1  0  0  0  0
 15  4  1  0  0  0  0
 15 16  1  0  0  0  0
 15 60  1  0  0  0  0
 15 61  1  0  0  0  0
 16  2  1  0  0  0  0
 16 40  1  1  0  0  0
 17 16  1  0  0  0  0
 17 18  1  0  0  0  0
 17 39  1  6  0  0  0
 18 19  1  0  0  0  0
 18 38  1  6  0  0  0
 19 20  1  0  0  0  0
 19 62  1  0  0  0  0
 19 63  1  0  0  0  0
 20  2  1  0  0  0  0
 20 64  1  0  0  0  0
 20 65  1  0  0  0  0
 21 18  1  0  0  0  0
 21 22  1  6  0  0  0
 22 66  1  0  0  0  0
 22 67  1  0  0  0  0
 22 68  1  0  0  0  0
 23 21  1  0  0  0  0
 23 69  1  0  0  0  0
 23 70  1  0  0  0  0
 24 23  1  0  0  0  0
 24 71  1  0  0  0  0
 24 72  1  0  0  0  0
 25 24  1  0  0  0  0
 25 26  1  0  0  0  0
 25 30  1  0  0  0  0
 25 73  1  1  0  0  0
 26 27  1  0  0  0  0
 26 74  1  0  0  0  0
 26 75  1  0  0  0  0
 27 21  1  0  0  0  0
 28 27  2  0  0  0  0
 28 29  1  0  0  0  0
 28 76  1  0  0  0  0
 29 17  1  0  0  0  0
 29 77  1  0  0  0  0
 29 78  1  0  0  0  0
 30 31  1  0  0  0  0
 31 32  1  0  0  0  0
 31 37  2  0  0  0  0
 32 33  1  0  0  0  0
 32 79  1  0  0  0  0
 32 80  1  0  0  0  0
 33 34  1  0  0  0  0
 33 81  1  0  0  0  0
 33 82  1  0  0  0  0
 34 35  1  0  0  0  0
 34 83  1  0  0  0  0
 34 84  1  0  0  0  0
 35 36  1  0  0  0  0
 35 85  1  0  0  0  0
 35 86  1  0  0  0  0
 36 87  1  0  0  0  0
 36 88  1  0  0  0  0
 36 89  1  0  0  0  0
M  END
>  <DRUGBANK_ID>
DB05263

>  <COMMON_NAME>
Caprospinol

>  <CAS_NUMBER>
4952-56-1

>  <UNII>
9BU4T267E4

>  <SYNONYMS>
Diosgenin caproate

$$$$
