46U
 OpenBabel10282417163D

 58 60  0  0  0  0  0  0  0  0999 V2000
    1.4320   -0.8363    0.1701 O   0  0  0  0  0  0  0  0  0  0  0  0
    2.5706   -0.3584    0.1673 C   0  0  0  0  0  0  0  0  0  0  0  0
    3.2709   -0.1949   -1.1940 C   0  0  0  0  0  0  0  0  0  0  0  0
    3.9458    1.0286   -1.4462 O   0  0  0  0  0  0  0  0  0  0  0  0
    3.0591    2.1416   -1.6891 C   0  0  0  0  0  0  0  0  0  0  0  0
    3.8550    3.4407   -1.5214 C   0  0  0  0  0  0  0  0  0  0  0  0
    2.9264    4.6565   -1.5256 C   0  0  0  0  0  0  0  0  0  0  0  0
    1.8329    4.5623   -0.4619 C   0  0  0  0  0  0  0  0  0  0  0  0
    0.9812    3.3338   -0.6840 C   0  0  0  0  0  0  0  0  0  0  0  0
    1.8563    2.1260   -0.7452 C   0  0  0  0  0  0  0  0  0  0  0  0
    3.2081    0.0599    1.3243 N   0  0  0  0  0  0  0  0  0  0  0  0
    2.7763   -0.4037    2.6366 C   0  0  1  0  0  0  0  0  0  0  0  0
    3.1066    0.7594    3.5597 C   0  0  0  0  0  0  0  0  0  0  0  0
    4.4093    1.2935    2.9755 C   0  0  0  0  0  0  0  0  0  0  0  0
    4.3005    1.0263    1.4719 C   0  0  0  0  0  0  0  0  0  0  0  0
    1.3276   -0.8803    2.7809 C   0  0  0  0  0  0  0  0  0  0  0  0
    0.3725   -0.1071    2.9483 O   0  0  0  0  0  0  0  0  0  0  0  0
    1.0854   -2.2160    2.6111 N   0  0  0  0  0  0  0  0  0  0  0  0
    2.0359   -3.3030    2.4414 C   0  0  0  0  0  0  0  0  0  0  0  0
    2.0584   -4.1746    3.6694 C   0  0  0  0  0  0  0  0  0  0  0  0
    3.2738   -4.6319    4.1882 C   0  0  0  0  0  0  0  0  0  0  0  0
    3.3047   -5.3658    5.3770 C   0  0  0  0  0  0  0  0  0  0  0  0
    2.1213   -5.6593    6.0691 C   0  0  0  0  0  0  0  0  0  0  0  0
    2.1560   -6.5089    7.3039 C   0  0  0  0  0  0  0  0  0  0  0  0
    1.0979   -6.8588    7.9684 N   0  0  0  0  0  0  0  0  0  0  0  0
    3.3243   -6.9902    7.8009 N   0  0  0  0  0  0  0  0  0  0  0  0
    0.9098   -5.1870    5.5539 C   0  0  0  0  0  0  0  0  0  0  0  0
    0.8742   -4.5095    4.3356 C   0  0  0  0  0  0  0  0  0  0  0  0
    3.4741   -1.1967    2.9033 H   0  0  0  0  0  0  0  0  0  0  0  0
    3.9720   -1.0328   -1.2580 H   0  0  0  0  0  0  0  0  0  0  0  0
    2.5236   -0.3668   -1.9861 H   0  0  0  0  0  0  0  0  0  0  0  0
    2.7126    2.0730   -2.7278 H   0  0  0  0  0  0  0  0  0  0  0  0
    4.4364    3.4188   -0.5910 H   0  0  0  0  0  0  0  0  0  0  0  0
    4.6051    3.5281   -2.3183 H   0  0  0  0  0  0  0  0  0  0  0  0
    3.5084    5.5677   -1.3638 H   0  0  0  0  0  0  0  0  0  0  0  0
    2.4533    4.7311   -2.5113 H   0  0  0  0  0  0  0  0  0  0  0  0
    2.2904    4.5209    0.5365 H   0  0  0  0  0  0  0  0  0  0  0  0
    1.1828    5.4399   -0.4877 H   0  0  0  0  0  0  0  0  0  0  0  0
    0.2861    3.1902    0.1538 H   0  0  0  0  0  0  0  0  0  0  0  0
    0.3941    3.3927   -1.6025 H   0  0  0  0  0  0  0  0  0  0  0  0
    1.2084    1.2886   -1.0027 H   0  0  0  0  0  0  0  0  0  0  0  0
    2.2086    2.0097    0.2764 H   0  0  0  0  0  0  0  0  0  0  0  0
    2.3262    1.5292    3.5434 H   0  0  0  0  0  0  0  0  0  0  0  0
    3.2259    0.4201    4.5936 H   0  0  0  0  0  0  0  0  0  0  0  0
    4.5455    2.3552    3.2088 H   0  0  0  0  0  0  0  0  0  0  0  0
    5.2656    0.7493    3.3866 H   0  0  0  0  0  0  0  0  0  0  0  0
    4.0841    1.9677    0.9701 H   0  0  0  0  0  0  0  0  0  0  0  0
    5.2226    0.6183    1.0512 H   0  0  0  0  0  0  0  0  0  0  0  0
    0.1000   -2.4386    2.6027 H   0  0  0  0  0  0  0  0  0  0  0  0
    1.7635   -3.8804    1.5540 H   0  0  0  0  0  0  0  0  0  0  0  0
    3.0416   -2.9209    2.2637 H   0  0  0  0  0  0  0  0  0  0  0  0
    4.2106   -4.4155    3.6787 H   0  0  0  0  0  0  0  0  0  0  0  0
    4.2734   -5.6830    5.7458 H   0  0  0  0  0  0  0  0  0  0  0  0
    0.2380   -6.4839    7.5712 H   0  0  0  0  0  0  0  0  0  0  0  0
    4.2104   -6.9360    7.3277 H   0  0  0  0  0  0  0  0  0  0  0  0
    3.2394   -7.6575    8.5577 H   0  0  0  0  0  0  0  0  0  0  0  0
   -0.0318   -5.3144    6.0752 H   0  0  0  0  0  0  0  0  0  0  0  0
   -0.0931   -4.2205    3.9303 H   0  0  0  0  0  0  0  0  0  0  0  0
  1  2  2  0  0  0  0
  2  3  1  0  0  0  0
  2 11  1  0  0  0  0
  3  4  1  0  0  0  0
  3 30  1  0  0  0  0
  3 31  1  0  0  0  0
  4  5  1  0  0  0  0
  5  6  1  0  0  0  0
  5 10  1  0  0  0  0
  5 32  1  0  0  0  0
  6  7  1  0  0  0  0
  6 33  1  0  0  0  0
  6 34  1  0  0  0  0
  7  8  1  0  0  0  0
  7 35  1  0  0  0  0
  7 36  1  0  0  0  0
  8  9  1  0  0  0  0
  8 37  1  0  0  0  0
  8 38  1  0  0  0  0
  9 10  1  0  0  0  0
  9 39  1  0  0  0  0
  9 40  1  0  0  0  0
 10 41  1  0  0  0  0
 10 42  1  0  0  0  0
 11 12  1  0  0  0  0
 11 15  1  0  0  0  0
 12 13  1  0  0  0  0
 12 29  1  1  0  0  0
 12 16  1  0  0  0  0
 13 14  1  0  0  0  0
 13 43  1  0  0  0  0
 13 44  1  0  0  0  0
 14 15  1  0  0  0  0
 14 45  1  0  0  0  0
 14 46  1  0  0  0  0
 15 47  1  0  0  0  0
 15 48  1  0  0  0  0
 16 17  2  0  0  0  0
 16 18  1  0  0  0  0
 18 19  1  0  0  0  0
 18 49  1  0  0  0  0
 19 20  1  0  0  0  0
 19 50  1  0  0  0  0
 19 51  1  0  0  0  0
 20 21  2  0  0  0  0
 20 28  1  0  0  0  0
 21 22  1  0  0  0  0
 21 52  1  0  0  0  0
 22 23  2  0  0  0  0
 22 53  1  0  0  0  0
 23 24  1  0  0  0  0
 23 27  1  0  0  0  0
 24 25  2  0  0  0  0
 24 26  1  0  0  0  0
 25 54  1  0  0  0  0
 26 55  1  0  0  0  0
 26 56  1  0  0  0  0
 27 28  2  0  0  0  0
 27 57  1  0  0  0  0
 28 58  1  0  0  0  0
M  END
>  <DRUGBANK_ID>
DB07091

>  <COMMON_NAME>
(S)-N-(4-carbamimidoylbenzyl)-1-(2-(cyclohexyloxy)ethanoyl)pyrrolidine-2-carboxamide

$$$$
