
 OpenBabel10282417163D

 49 53  0  0  0  0  0  0  0  0999 V2000
   -1.5511    2.3203    0.0746 C   0  0  0  0  0  0  0  0  0  0  0  0
   -0.9992    0.9239    0.3091 C   0  0  0  0  0  0  0  0  0  0  0  0
   -1.7774   -0.0934    0.9030 C   0  0  0  0  0  0  0  0  0  0  0  0
   -1.5437   -1.5137    0.6825 C   0  0  0  0  0  0  0  0  0  0  0  0
   -0.2258   -1.9035    0.3121 C   0  0  0  0  0  0  0  0  0  0  0  0
    0.6894   -0.8308    0.1580 C   0  0  0  0  0  0  0  0  0  0  0  0
    0.3116    0.5198    0.0999 C   0  0  0  0  0  0  0  0  0  0  0  0
    1.3663    1.3415   -0.1104 N   0  0  0  0  0  0  0  0  0  0  0  0
    2.4238    0.5665   -0.0305 C   0  0  0  0  0  0  0  0  0  0  0  0
    2.0571   -0.7635    0.0068 N   0  0  0  0  0  0  0  0  0  0  0  0
    3.7740    0.9543   -0.0426 C   0  0  0  0  0  0  0  0  0  0  0  0
    4.5762    0.6219   -1.0917 C   0  0  0  0  0  0  0  0  0  0  0  0
    5.9393    1.1331   -1.0785 C   0  0  0  0  0  0  0  0  0  0  0  0
    6.3951    1.9200   -0.1102 C   0  0  0  0  0  0  0  0  0  0  0  0
    5.5789    2.2815    0.9231 N   0  0  0  0  0  0  0  0  0  0  0  0
    4.2833    1.8660    1.0285 C   0  0  0  0  0  0  0  0  0  0  0  0
    3.5969    2.2294    2.0135 O   0  0  0  0  0  0  0  0  0  0  0  0
    4.1620   -0.1393   -2.1687 N   0  0  0  0  0  0  0  0  0  0  0  0
    4.9226   -0.6115   -3.3010 C   0  0  0  0  0  0  0  0  0  0  0  0
    5.0441   -2.1183   -3.2915 C   0  0  0  0  0  0  0  0  0  0  0  0
    6.2205   -2.6888   -3.7773 C   0  0  0  0  0  0  0  0  0  0  0  0
    6.3265   -4.0711   -3.8220 C   0  0  0  0  0  0  0  0  0  0  0  0
    5.2621   -4.8444   -3.3783 C   0  0  0  0  0  0  0  0  0  0  0  0
    4.1309   -4.2018   -2.9003 C   0  0  0  0  0  0  0  0  0  0  0  0
    3.9902   -2.8599   -2.8515 N   0  0  0  0  0  0  0  0  0  0  0  0
   -2.6375   -2.1626   -0.1294 N   0  0  0  0  0  0  0  0  0  0  0  0
   -2.8904   -1.2496   -1.1955 C   0  0  0  0  0  0  0  0  0  0  0  0
   -4.0212   -0.5980   -0.6894 C   0  0  0  0  0  0  0  0  0  0  0  0
   -4.7902   -1.4768   -0.0034 N   0  0  0  0  0  0  0  0  0  0  0  0
   -3.9874   -2.5193    0.0997 C   0  0  0  0  0  0  0  0  0  0  0  0
   -1.2898    2.9607    0.9175 H   0  0  0  0  0  0  0  0  0  0  0  0
   -1.2087    2.8034   -0.8571 H   0  0  0  0  0  0  0  0  0  0  0  0
   -2.6476    2.3179   -0.0090 H   0  0  0  0  0  0  0  0  0  0  0  0
   -2.7653    0.2704    1.1733 H   0  0  0  0  0  0  0  0  0  0  0  0
    0.0726   -2.9267    0.0678 H   0  0  0  0  0  0  0  0  0  0  0  0
    2.7062   -1.5423    0.0137 H   0  0  0  0  0  0  0  0  0  0  0  0
    6.6242    0.8879   -1.8780 H   0  0  0  0  0  0  0  0  0  0  0  0
    7.4105    2.3002   -0.1024 H   0  0  0  0  0  0  0  0  0  0  0  0
    5.9156    2.8893    1.6567 H   0  0  0  0  0  0  0  0  0  0  0  0
    3.2049   -0.4880   -2.1683 H   0  0  0  0  0  0  0  0  0  0  0  0
    4.4430   -0.2799   -4.2260 H   0  0  0  0  0  0  0  0  0  0  0  0
    5.9272   -0.1935   -3.3067 H   0  0  0  0  0  0  0  0  0  0  0  0
    7.0437   -2.0654   -4.1135 H   0  0  0  0  0  0  0  0  0  0  0  0
    7.2309   -4.5371   -4.2016 H   0  0  0  0  0  0  0  0  0  0  0  0
    5.3123   -5.9264   -3.4044 H   0  0  0  0  0  0  0  0  0  0  0  0
    3.2814   -4.7710   -2.5351 H   0  0  0  0  0  0  0  0  0  0  0  0
   -1.9699   -0.8335   -1.5924 H   0  0  0  0  0  0  0  0  0  0  0  0
   -4.1784    0.4699   -0.5631 H   0  0  0  0  0  0  0  0  0  0  0  0
   -4.3979   -3.5269   -0.0128 H   0  0  0  0  0  0  0  0  0  0  0  0
  1  2  1  0  0  0  0
  1 31  1  0  0  0  0
  1 32  1  0  0  0  0
  1 33  1  0  0  0  0
  2  3  2  0  0  0  0
  2  7  1  0  0  0  0
  3  4  1  0  0  0  0
  3 34  1  0  0  0  0
  4  5  2  0  0  0  0
  4 26  1  0  0  0  0
  5  6  1  0  0  0  0
  5 35  1  0  0  0  0
  6  7  2  0  0  0  0
  6 10  1  0  0  0  0
  7  8  1  0  0  0  0
  8  9  2  0  0  0  0
  9 10  1  0  0  0  0
  9 11  1  0  0  0  0
 10 36  1  0  0  0  0
 11 12  2  0  0  0  0
 11 16  1  0  0  0  0
 12 13  1  0  0  0  0
 12 18  1  0  0  0  0
 13 14  2  0  0  0  0
 13 37  1  0  0  0  0
 14 15  1  0  0  0  0
 14 38  1  0  0  0  0
 15 16  1  0  0  0  0
 15 39  1  0  0  0  0
 16 17  2  0  0  0  0
 18 19  1  0  0  0  0
 18 40  1  0  0  0  0
 19 20  1  0  0  0  0
 19 41  1  0  0  0  0
 19 42  1  0  0  0  0
 20 21  1  0  0  0  0
 20 25  2  0  0  0  0
 21 22  2  0  0  0  0
 21 43  1  0  0  0  0
 22 23  1  0  0  0  0
 22 44  1  0  0  0  0
 23 24  2  0  0  0  0
 23 45  1  0  0  0  0
 24 25  1  0  0  0  0
 24 46  1  0  0  0  0
 26 27  1  0  0  0  0
 26 30  1  0  0  0  0
 27 28  2  0  0  0  0
 27 47  1  0  0  0  0
 28 29  1  0  0  0  0
 28 48  1  0  0  0  0
 29 30  2  0  0  0  0
 30 49  1  0  0  0  0
M  END
>  <DRUGBANK_ID>
DB07474

>  <COMMON_NAME>
3-[5-(1H-IMIDAZOL-1-YL)-7-METHYL-1H-BENZIMIDAZOL-2-YL]-4-[(PYRIDIN-2-YLMETHYL)AMINO]PYRIDIN-2(1H)-ONE

$$$$
