
 OpenBabel10282417173D

 58 57  0  0  0  0  0  0  0  0999 V2000
    0.9004   -0.0022    0.0817 C   0  0  0  0  0  0  0  0  0  0  0  0
    0.2506    0.5637   -0.9422 C   0  0  0  0  0  0  0  0  0  0  0  0
   -1.2342    0.5623   -1.0420 C   0  0  0  0  0  0  0  0  0  0  0  0
   -1.7785    1.9566   -1.0444 C   0  0  0  0  0  0  0  0  0  0  0  0
   -2.5975    2.3961   -2.0012 C   0  0  0  0  0  0  0  0  0  0  0  0
   -2.9920    1.5248   -3.1339 C   0  0  0  0  0  0  0  0  0  0  0  0
   -4.4671    1.3980   -3.2371 C   0  0  0  0  0  0  0  0  0  0  0  0
   -5.1127    1.6918   -4.3649 C   0  0  0  0  0  0  0  0  0  0  0  0
   -4.3956    2.2193   -5.5528 C   0  0  0  0  0  0  0  0  0  0  0  0
   -4.6273    1.3697   -6.7476 C   0  0  0  0  0  0  0  0  0  0  0  0
   -5.1342    1.8759   -7.8706 C   0  0  0  0  0  0  0  0  0  0  0  0
   -5.5423    3.3005   -7.9664 C   0  0  0  0  0  0  0  0  0  0  0  0
   -4.8582    3.9694   -9.0951 C   0  0  0  0  0  0  0  0  0  0  0  0
   -5.5419    4.5365  -10.0879 C   0  0  0  0  0  0  0  0  0  0  0  0
   -7.0438    4.5700  -10.1330 C   0  0  0  0  0  0  0  0  0  0  0  0
   -7.5624    5.9947  -10.1942 C   0  0  0  0  0  0  0  0  0  0  0  0
   -7.0786    6.7438  -11.4268 C   0  0  0  0  0  0  0  0  0  0  0  0
    0.1832   -0.6332    1.2410 C   0  0  0  0  0  0  0  0  0  0  0  0
   -0.6567    0.3690    2.0357 C   0  0  0  0  0  0  0  0  0  0  0  0
   -8.2476    6.7513  -13.5317 O   0  0  0  0  0  0  0  0  0  0  0  0
   -7.1193    4.8615  -12.8947 O   0  0  0  0  0  0  0  0  0  0  0  0
   -7.5558    6.1352  -12.7258 C   0  0  0  0  0  0  0  0  0  0  0  0
   -7.6037    4.1049  -14.0176 C   0  0  0  0  0  0  0  0  0  0  0  0
   -9.1162    3.9411  -14.0188 C   0  0  0  0  0  0  0  0  0  0  0  0
    1.9864   -0.0207    0.0702 H   0  0  0  0  0  0  0  0  0  0  0  0
    0.7984    1.0099   -1.7704 H   0  0  0  0  0  0  0  0  0  0  0  0
   -1.4421   -0.0377   -1.9228 H   0  0  0  0  0  0  0  0  0  0  0  0
   -1.7591    0.0017   -0.2671 H   0  0  0  0  0  0  0  0  0  0  0  0
   -1.5098    2.6288   -0.2321 H   0  0  0  0  0  0  0  0  0  0  0  0
   -2.9562    3.4238   -1.9937 H   0  0  0  0  0  0  0  0  0  0  0  0
   -2.4582    1.9407   -3.9843 H   0  0  0  0  0  0  0  0  0  0  0  0
   -2.6470    0.4954   -3.1133 H   0  0  0  0  0  0  0  0  0  0  0  0
   -5.0124    1.0079   -2.3819 H   0  0  0  0  0  0  0  0  0  0  0  0
   -6.1931    1.5872   -4.4172 H   0  0  0  0  0  0  0  0  0  0  0  0
   -4.7060    3.2593   -5.6046 H   0  0  0  0  0  0  0  0  0  0  0  0
   -3.3136    2.3014   -5.4961 H   0  0  0  0  0  0  0  0  0  0  0  0
   -4.3330    0.3244   -6.7056 H   0  0  0  0  0  0  0  0  0  0  0  0
   -5.2930    1.2360   -8.7349 H   0  0  0  0  0  0  0  0  0  0  0  0
   -6.6271    3.2663   -7.9965 H   0  0  0  0  0  0  0  0  0  0  0  0
   -5.3435    3.9441   -7.1136 H   0  0  0  0  0  0  0  0  0  0  0  0
   -3.7697    4.0138   -9.0808 H   0  0  0  0  0  0  0  0  0  0  0  0
   -4.9709    5.0012  -10.8880 H   0  0  0  0  0  0  0  0  0  0  0  0
   -7.3877    3.9392  -10.9506 H   0  0  0  0  0  0  0  0  0  0  0  0
   -7.5403    4.1221   -9.2757 H   0  0  0  0  0  0  0  0  0  0  0  0
   -8.6580    5.9675  -10.1645 H   0  0  0  0  0  0  0  0  0  0  0  0
   -7.2445    6.5313   -9.2870 H   0  0  0  0  0  0  0  0  0  0  0  0
   -7.4690    7.7650  -11.3718 H   0  0  0  0  0  0  0  0  0  0  0  0
   -5.9887    6.8395  -11.4502 H   0  0  0  0  0  0  0  0  0  0  0  0
   -0.4408   -1.4592    0.8720 H   0  0  0  0  0  0  0  0  0  0  0  0
    0.9230   -1.0848    1.9069 H   0  0  0  0  0  0  0  0  0  0  0  0
   -1.4397    0.8646    1.4582 H   0  0  0  0  0  0  0  0  0  0  0  0
   -1.1777   -0.1361    2.8506 H   0  0  0  0  0  0  0  0  0  0  0  0
   -0.0295    1.1716    2.4301 H   0  0  0  0  0  0  0  0  0  0  0  0
   -7.2353    4.5633  -14.9385 H   0  0  0  0  0  0  0  0  0  0  0  0
   -7.1528    3.1058  -13.9474 H   0  0  0  0  0  0  0  0  0  0  0  0
   -9.6307    4.9042  -14.0323 H   0  0  0  0  0  0  0  0  0  0  0  0
   -9.4410    3.3802  -14.8995 H   0  0  0  0  0  0  0  0  0  0  0  0
   -9.4551    3.4170  -13.1191 H   0  0  0  0  0  0  0  0  0  0  0  0
  1  2  2  0  0  0  0
  1 25  1  0  0  0  0
  2  3  1  0  0  0  0
  2 26  1  0  0  0  0
  3  4  1  0  0  0  0
  3 27  1  0  0  0  0
  3 28  1  0  0  0  0
  4  5  2  0  0  0  0
  4 29  1  0  0  0  0
  5  6  1  0  0  0  0
  5 30  1  0  0  0  0
  6  7  1  0  0  0  0
  6 31  1  0  0  0  0
  6 32  1  0  0  0  0
  7  8  2  0  0  0  0
  7 33  1  0  0  0  0
  8  9  1  0  0  0  0
  8 34  1  0  0  0  0
  9 10  1  0  0  0  0
  9 35  1  0  0  0  0
  9 36  1  0  0  0  0
 10 11  2  0  0  0  0
 10 37  1  0  0  0  0
 11 12  1  0  0  0  0
 11 38  1  0  0  0  0
 12 13  1  0  0  0  0
 12 39  1  0  0  0  0
 12 40  1  0  0  0  0
 13 14  2  0  0  0  0
 13 41  1  0  0  0  0
 14 15  1  0  0  0  0
 14 42  1  0  0  0  0
 15 16  1  0  0  0  0
 15 43  1  0  0  0  0
 15 44  1  0  0  0  0
 16 17  1  0  0  0  0
 16 45  1  0  0  0  0
 16 46  1  0  0  0  0
 17 22  1  0  0  0  0
 17 47  1  0  0  0  0
 17 48  1  0  0  0  0
 18  1  1  0  0  0  0
 18 19  1  0  0  0  0
 18 49  1  0  0  0  0
 18 50  1  0  0  0  0
 19 51  1  0  0  0  0
 19 52  1  0  0  0  0
 19 53  1  0  0  0  0
 21 23  1  0  0  0  0
 22 20  2  0  0  0  0
 22 21  1  0  0  0  0
 23 24  1  0  0  0  0
 23 54  1  0  0  0  0
 23 55  1  0  0  0  0
 24 56  1  0  0  0  0
 24 57  1  0  0  0  0
 24 58  1  0  0  0  0
M  END
>  <DRUGBANK_ID>
DB08887

>  <SECONDARY_ACCESSION_NUMBERS>
DB06291

>  <COMMON_NAME>
Icosapent ethyl

>  <CAS_NUMBER>
86227-47-6

>  <UNII>
6GC8A4PAYH

>  <SYNONYMS>
(all-Z)-5,8,11,14,17-Eicosapentaenoic acid ethyl ester; all-cis-ethyl 5,8,11,14,17-icosapentaenoate; cis-Eicosapentaenoic acid ethyl ester; E-EPA; Eicosapentaenoic acid ethyl ester; ethyl (5Z,8Z,11Z,14Z,17Z)-eicosa-5,8,11,14,17-pentaenoate; ethyl (5Z,8Z,11Z,14Z,17Z)-eicosapentaenoate; ethyl (5Z,8Z,11Z,14Z,17Z)-icosapentaenoate; Ethyl (all cis)-5,8,11,14,17-icosapentaenoate; Ethyl all-cis-5,8,11,14,17-icosapentaenoate; Ethyl eicosapentaenoate; Ethyl icosapentate ; ethyl-eicosapentaenoic acid; Ethyl-EPA; Icosapent ethyl; Timnodonic acid ethyl ester

$$$$
