FC1
 OpenBabel10282417123D

 35 36  0  0  0  0  0  0  0  0999 V2000
    0.9779    0.0842   -0.1914 O   0  0  0  0  0  0  0  0  0  0  0  0
   -1.4031   -3.2182   -2.2523 S   0  0  0  0  0  0  0  0  0  0  0  0
   -2.9442   -1.0761   -2.7057 C   0  0  0  0  0  0  0  0  0  0  0  0
   -2.5400    1.1780   -2.0004 C   0  0  0  0  0  0  0  0  0  0  0  0
    0.7041   -2.2410   -0.7299 C   0  0  0  0  0  0  0  0  0  0  0  0
   -0.8919   -0.5474   -1.5345 C   0  0  0  0  0  0  0  0  0  0  0  0
    0.3419   -0.9551   -0.8419 C   0  0  0  0  0  0  0  0  0  0  0  0
   -1.7264   -1.4826   -2.1585 C   0  0  0  0  0  0  0  0  0  0  0  0
   -1.2722    0.8066   -1.5585 C   0  0  0  0  0  0  0  0  0  0  0  0
    0.0148   -3.4284   -1.2794 C   0  0  0  0  0  0  0  0  0  0  0  0
    2.3982   -0.2145    4.2138 C   0  0  0  0  0  0  0  0  0  0  0  0
    2.4160   -1.4269    2.2171 C   0  0  0  0  0  0  0  0  0  0  0  0
    2.8854   -0.1915    2.8328 N   0  0  0  0  0  0  0  0  0  0  0  0
    2.3904    0.2056   -0.3400 C   0  0  0  0  0  0  0  0  0  0  0  0
   -3.4052    0.2152   -2.4994 C   0  0  0  0  0  0  0  0  0  0  0  0
    0.4565   -4.5410   -1.0553 O   0  0  0  0  0  0  0  0  0  0  0  0
    2.9055    1.2151    0.6920 C   0  0  0  0  0  0  0  0  0  0  0  0
    2.4072    1.0256    2.1422 C   0  0  0  0  0  0  0  0  0  0  0  0
   -3.5565   -1.7828   -3.2607 H   0  0  0  0  0  0  0  0  0  0  0  0
   -2.8530    2.2162   -1.9474 H   0  0  0  0  0  0  0  0  0  0  0  0
    1.5672   -2.5379   -0.1510 H   0  0  0  0  0  0  0  0  0  0  0  0
   -0.6046    1.5832   -1.1877 H   0  0  0  0  0  0  0  0  0  0  0  0
    1.3023   -0.2216    4.2526 H   0  0  0  0  0  0  0  0  0  0  0  0
    2.7603   -1.1224    4.7116 H   0  0  0  0  0  0  0  0  0  0  0  0
    2.7761    0.6354    4.7861 H   0  0  0  0  0  0  0  0  0  0  0  0
    1.3367   -1.4029    2.0297 H   0  0  0  0  0  0  0  0  0  0  0  0
    2.9746   -1.6336    1.3133 H   0  0  0  0  0  0  0  0  0  0  0  0
    2.6406   -2.3095    2.8215 H   0  0  0  0  0  0  0  0  0  0  0  0
    2.9046   -0.7474   -0.2539 H   0  0  0  0  0  0  0  0  0  0  0  0
    2.6230    0.5425   -1.3539 H   0  0  0  0  0  0  0  0  0  0  0  0
   -4.4376    0.4563   -2.7295 H   0  0  0  0  0  0  0  0  0  0  0  0
    4.0013    1.2366    0.6787 H   0  0  0  0  0  0  0  0  0  0  0  0
    2.5721    2.2112    0.3673 H   0  0  0  0  0  0  0  0  0  0  0  0
    2.7711    1.8980    2.7086 H   0  0  0  0  0  0  0  0  0  0  0  0
    1.3113    1.0983    2.1732 H   0  0  0  0  0  0  0  0  0  0  0  0
  1  7  1  0  0  0  0
  1 14  1  0  0  0  0
  2  8  1  0  0  0  0
  2 10  1  0  0  0  0
  3  8  2  0  0  0  0
  3 15  1  0  0  0  0
  3 19  1  0  0  0  0
  4  9  1  0  0  0  0
  4 15  2  0  0  0  0
  4 20  1  0  0  0  0
  5  7  2  0  0  0  0
  5 10  1  0  0  0  0
  5 21  1  0  0  0  0
  6  7  1  0  0  0  0
  6  8  1  0  0  0  0
  6  9  2  0  0  0  0
  9 22  1  0  0  0  0
 10 16  2  0  0  0  0
 11 13  1  0  0  0  0
 11 23  1  0  0  0  0
 11 24  1  0  0  0  0
 11 25  1  0  0  0  0
 12 13  1  0  0  0  0
 12 26  1  0  0  0  0
 12 27  1  0  0  0  0
 12 28  1  0  0  0  0
 13 18  1  0  0  0  0
 14 17  1  0  0  0  0
 14 29  1  0  0  0  0
 14 30  1  0  0  0  0
 15 31  1  0  0  0  0
 17 18  1  0  0  0  0
 17 32  1  0  0  0  0
 17 33  1  0  0  0  0
 18 34  1  0  0  0  0
 18 35  1  0  0  0  0
M  END
>  <DRUGBANK_ID>
DB02462

>  <SECONDARY_ACCESSION_NUMBERS>
EXPT01399

>  <COMMON_NAME>
Thiocoumarin

>  <UNII>
CM773J3THB

$$$$
