HYQ
 OpenBabel10282417143D

 44 48  0  0  0  0  0  0  0  0999 V2000
   -0.4907   -0.7686    0.6981 C   0  0  2  0  0  0  0  0  0  0  0  0
   -1.8154   -1.1231    0.0767 C   0  0  0  0  0  0  0  0  0  0  0  0
   -2.0878   -2.2147   -0.4007 O   0  0  0  0  0  0  0  0  0  0  0  0
   -2.5935    0.0082    0.0960 N   0  0  0  0  0  0  0  0  0  0  0  0
   -4.0101   -0.0298    0.0816 C   0  0  0  0  0  0  0  0  0  0  0  0
   -4.5993   -0.6681    1.1878 C   0  0  0  0  0  0  0  0  0  0  0  0
   -5.9816   -0.7084    1.3447 C   0  0  0  0  0  0  0  0  0  0  0  0
   -6.8201   -0.1316    0.3780 C   0  0  0  0  0  0  0  0  0  0  0  0
   -8.2835   -0.3185    0.5873 N   0  3  0  0  0  0  0  0  0  0  0  0
   -9.0868    0.0951   -0.2554 O   0  5  0  0  0  0  0  0  0  0  0  0
   -8.6396   -0.9133    1.6160 O   0  0  0  0  0  0  0  0  0  0  0  0
   -6.2629    0.5587   -0.7452 C   0  0  0  0  0  0  0  0  0  0  0  0
   -7.0211    1.2174   -1.7479 C   0  0  0  0  0  0  0  0  0  0  0  0
   -6.4457    1.8605   -2.8379 C   0  0  0  0  0  0  0  0  0  0  0  0
   -5.0760    1.8751   -2.9743 C   0  0  0  0  0  0  0  0  0  0  0  0
   -4.2873    1.2384   -2.0229 C   0  0  0  0  0  0  0  0  0  0  0  0
   -4.8337    0.6011   -0.8855 C   0  0  0  0  0  0  0  0  0  0  0  0
   -1.8038    1.1262    0.0528 C   0  0  0  0  0  0  0  0  0  0  0  0
   -2.0447    2.2411   -0.3930 O   0  0  0  0  0  0  0  0  0  0  0  0
   -0.4943    0.7608    0.7040 C   0  0  2  0  0  0  0  0  0  0  0  0
    0.7530    1.3138    0.0048 C   0  0  1  0  0  0  0  0  0  0  0  0
    1.9873    0.7645    0.7483 C   0  0  0  0  0  0  0  0  0  0  0  0
    1.9837   -0.7754    0.7342 C   0  0  0  0  0  0  0  0  0  0  0  0
    0.7508   -1.2982   -0.0301 C   0  0  2  0  0  0  0  0  0  0  0  0
    0.8071   -0.7340   -1.4617 C   0  0  0  0  0  0  0  0  0  0  0  0
    0.8003    0.8000   -1.4439 C   0  0  0  0  0  0  0  0  0  0  0  0
   -0.5167   -1.1530    1.7270 H   0  0  0  0  0  0  0  0  0  0  0  0
   -0.5452    1.1334    1.7360 H   0  0  0  0  0  0  0  0  0  0  0  0
    0.7525    2.4092    0.0180 H   0  0  0  0  0  0  0  0  0  0  0  0
    0.7519   -2.3932   -0.0578 H   0  0  0  0  0  0  0  0  0  0  0  0
   -3.9805   -1.1017    1.9733 H   0  0  0  0  0  0  0  0  0  0  0  0
   -6.3889   -1.1928    2.2318 H   0  0  0  0  0  0  0  0  0  0  0  0
   -8.1036    1.2678   -1.7206 H   0  0  0  0  0  0  0  0  0  0  0  0
   -7.0855    2.3391   -3.5728 H   0  0  0  0  0  0  0  0  0  0  0  0
   -4.6133    2.3803   -3.8159 H   0  0  0  0  0  0  0  0  0  0  0  0
   -3.2153    1.2555   -2.1996 H   0  0  0  0  0  0  0  0  0  0  0  0
    1.9959    1.1238    1.7847 H   0  0  0  0  0  0  0  0  0  0  0  0
    2.9055    1.1351    0.2783 H   0  0  0  0  0  0  0  0  0  0  0  0
    1.9813   -1.1549    1.7639 H   0  0  0  0  0  0  0  0  0  0  0  0
    2.9040   -1.1446    0.2671 H   0  0  0  0  0  0  0  0  0  0  0  0
    1.7139   -1.0881   -1.9647 H   0  0  0  0  0  0  0  0  0  0  0  0
   -0.0412   -1.0996   -2.0507 H   0  0  0  0  0  0  0  0  0  0  0  0
   -0.0572    1.1719   -2.0168 H   0  0  0  0  0  0  0  0  0  0  0  0
    1.6932    1.1828   -1.9513 H   0  0  0  0  0  0  0  0  0  0  0  0
  1  2  1  0  0  0  0
  1 20  1  0  0  0  0
  1 24  1  0  0  0  0
  1 27  1  1  0  0  0
  2  3  2  0  0  0  0
  2  4  1  0  0  0  0
  4  5  1  0  0  0  0
  4 18  1  0  0  0  0
  5  6  2  0  0  0  0
  5 17  1  0  0  0  0
  6  7  1  0  0  0  0
  6 31  1  0  0  0  0
  7  8  2  0  0  0  0
  7 32  1  0  0  0  0
  8  9  1  0  0  0  0
  8 12  1  0  0  0  0
  9 10  1  0  0  0  0
  9 11  2  0  0  0  0
 12 13  2  0  0  0  0
 12 17  1  0  0  0  0
 13 14  1  0  0  0  0
 13 33  1  0  0  0  0
 14 15  2  0  0  0  0
 14 34  1  0  0  0  0
 15 16  1  0  0  0  0
 15 35  1  0  0  0  0
 16 17  2  0  0  0  0
 16 36  1  0  0  0  0
 18 19  2  0  0  0  0
 18 20  1  0  0  0  0
 20 21  1  0  0  0  0
 20 28  1  1  0  0  0
 21 22  1  0  0  0  0
 21 26  1  0  0  0  0
 21 29  1  1  0  0  0
 22 23  1  0  0  0  0
 22 37  1  0  0  0  0
 22 38  1  0  0  0  0
 23 24  1  0  0  0  0
 23 39  1  0  0  0  0
 23 40  1  0  0  0  0
 24 25  1  0  0  0  0
 24 30  1  6  0  0  0
 25 26  1  0  0  0  0
 25 41  1  0  0  0  0
 25 42  1  0  0  0  0
 26 43  1  0  0  0  0
 26 44  1  0  0  0  0
M  CHG  2   9   1  10  -1
M  END
>  <DRUGBANK_ID>
DB04709

>  <COMMON_NAME>
(3AALPHA,4ALPHA,7ALPHA,7AALPHA)- 3A,4,7,7A-TETRAHYDRO-2-(4-NITRO-1-NAPHTHALENYL)-4,7-ETHANO-1H-ISOINDOLE-1,3(2H)-DIONE

$$$$
