854
 OpenBabel10282417113D

 42 45  0  0  1  0  0  0  0  0999 V2000
    0.9306    0.0735    0.1685 O   0  0  0  0  0  0  0  0  0  0  0  0
   -2.7231    0.4158   -4.5788 N   0  0  0  0  0  0  0  0  0  0  0  0
   -0.1750   -0.8905   -4.5141 C   0  0  2  0  0  0  0  0  0  0  0  0
   -0.6782   -0.2538   -5.8257 C   0  0  2  0  0  0  0  0  0  0  0  0
   -1.5651    0.9790   -5.4234 C   0  0  1  0  0  0  0  0  0  0  0  0
   -1.4313   -1.7277   -4.1206 C   0  0  0  0  0  0  0  0  0  0  0  0
    1.0415   -1.8565   -4.7171 C   0  0  0  0  0  0  0  0  0  0  0  0
    0.0733   -0.7630   -7.0727 C   0  0  0  0  0  0  0  0  0  0  0  0
    0.1684    0.1530   -3.4048 C   0  0  0  0  0  0  0  0  0  0  0  0
   -0.8489    2.1075   -4.6847 C   0  0  0  0  0  0  0  0  0  0  0  0
   -2.7662   -1.0344   -4.4308 C   0  0  0  0  0  0  0  0  0  0  0  0
    0.7295   -2.9401   -5.7411 C   0  0  0  0  0  0  0  0  0  0  0  0
    0.0838   -2.3507   -7.0044 C   0  0  0  0  0  0  0  0  0  0  0  0
   -0.0950    1.5505   -3.5221 C   0  0  0  0  0  0  0  0  0  0  0  0
    0.5480   -0.2979   -2.1454 C   0  0  0  0  0  0  0  0  0  0  0  0
   -3.3644    1.0374   -3.4260 C   0  0  0  0  0  0  0  0  0  0  0  0
    0.0548    2.4216   -2.4171 C   0  0  0  0  0  0  0  0  0  0  0  0
    0.6229    0.5651   -1.0520 C   0  0  0  0  0  0  0  0  0  0  0  0
    0.3576    1.9274   -1.1775 C   0  0  0  0  0  0  0  0  0  0  0  0
   -1.5361   -0.8091   -6.2151 H   0  0  0  0  0  0  0  0  0  0  0  0
    1.8987   -0.0514    0.1353 H   0  0  0  0  0  0  0  0  0  0  0  0
   -1.9328    1.4221   -6.3547 H   0  0  0  0  0  0  0  0  0  0  0  0
   -1.5066   -2.6162   -4.7554 H   0  0  0  0  0  0  0  0  0  0  0  0
   -1.3574   -2.1080   -3.1023 H   0  0  0  0  0  0  0  0  0  0  0  0
    1.9576   -1.3269   -5.0183 H   0  0  0  0  0  0  0  0  0  0  0  0
    1.2921   -2.3575   -3.7748 H   0  0  0  0  0  0  0  0  0  0  0  0
   -0.4735   -0.4987   -7.9899 H   0  0  0  0  0  0  0  0  0  0  0  0
    1.0847   -0.3653   -7.1566 H   0  0  0  0  0  0  0  0  0  0  0  0
   -0.2372    2.7625   -5.3202 H   0  0  0  0  0  0  0  0  0  0  0  0
   -1.6263    2.7784   -4.2808 H   0  0  0  0  0  0  0  0  0  0  0  0
   -3.1708   -1.3776   -5.3934 H   0  0  0  0  0  0  0  0  0  0  0  0
   -3.5086   -1.4187   -3.7272 H   0  0  0  0  0  0  0  0  0  0  0  0
    1.6085   -3.5473   -5.9837 H   0  0  0  0  0  0  0  0  0  0  0  0
    0.0587   -3.6712   -5.2646 H   0  0  0  0  0  0  0  0  0  0  0  0
    0.5396   -2.7890   -7.8968 H   0  0  0  0  0  0  0  0  0  0  0  0
   -0.9571   -2.7195   -7.0236 H   0  0  0  0  0  0  0  0  0  0  0  0
    0.6806   -1.3638   -1.9597 H   0  0  0  0  0  0  0  0  0  0  0  0
   -4.0751    0.3240   -2.9740 H   0  0  0  0  0  0  0  0  0  0  0  0
   -2.7337    1.3208   -2.5753 H   0  0  0  0  0  0  0  0  0  0  0  0
   -4.0031    1.8645   -3.7354 H   0  0  0  0  0  0  0  0  0  0  0  0
   -0.2271    3.4779   -2.5131 H   0  0  0  0  0  0  0  0  0  0  0  0
    0.3277    2.5615   -0.2960 H   0  0  0  0  0  0  0  0  0  0  0  0
  1 21  1  0  0  0  0
  1 18  1  0  0  0  0
  2 11  1  0  0  0  0
  2 16  1  0  0  0  0
  3  4  1  0  0  0  0
  3  6  1  0  0  0  0
  3  7  1  0  0  0  0
  3  9  1  6  0  0  0
  4  5  1  0  0  0  0
  4  8  1  0  0  0  0
  4 20  1  1  0  0  0
  5  2  1  0  0  0  0
  5 10  1  0  0  0  0
  5 22  1  1  0  0  0
  6 11  1  0  0  0  0
  6 23  1  0  0  0  0
  6 24  1  0  0  0  0
  7 12  1  0  0  0  0
  7 25  1  0  0  0  0
  7 26  1  0  0  0  0
  8 13  1  0  0  0  0
  8 27  1  0  0  0  0
  8 28  1  0  0  0  0
  9 14  2  0  0  0  0
  9 15  1  0  0  0  0
 10 14  1  0  0  0  0
 10 29  1  0  0  0  0
 10 30  1  0  0  0  0
 11 31  1  0  0  0  0
 11 32  1  0  0  0  0
 12 13  1  0  0  0  0
 12 33  1  0  0  0  0
 12 34  1  0  0  0  0
 13 35  1  0  0  0  0
 13 36  1  0  0  0  0
 14 17  1  0  0  0  0
 15 18  2  0  0  0  0
 15 37  1  0  0  0  0
 16 38  1  0  0  0  0
 16 39  1  0  0  0  0
 16 40  1  0  0  0  0
 17 19  2  0  0  0  0
 17 41  1  0  0  0  0
 18 19  1  0  0  0  0
 19 42  1  0  0  0  0
M  END
>  <DRUGBANK_ID>
DB00854

>  <SECONDARY_ACCESSION_NUMBERS>
APRD00764

>  <COMMON_NAME>
Levorphanol

>  <CAS_NUMBER>
77-07-6

>  <UNII>
27618J1N2X

>  <SYNONYMS>
Levorfanol; Levorfanolo; LÃ©vorphanol; Levorphanol; Levorphanolum

$$$$
