580
 OpenBabel10282417143D

 38 41  0  0  0  0  0  0  0  0999 V2000
    1.3429    1.1595   -0.0076 C   0  0  0  0  0  0  0  0  0  0  0  0
    2.1054   -0.0609   -0.0647 C   0  0  0  0  0  0  0  0  0  0  0  0
    1.2800   -1.1446   -0.0833 N   0  0  0  0  0  0  0  0  0  0  0  0
    0.0694   -0.5921    0.0415 N   0  0  0  0  0  0  0  0  0  0  0  0
    0.0423    0.7603    0.0603 C   0  0  0  0  0  0  0  0  0  0  0  0
   -1.2471   -1.2029    0.1086 C   0  0  0  0  0  0  0  0  0  0  0  0
   -2.1648    0.0016   -0.2055 C   0  0  0  0  0  0  0  0  0  0  0  0
   -1.3388    1.2664    0.1396 C   0  0  0  0  0  0  0  0  0  0  0  0
    3.5763   -0.1276   -0.1332 C   0  0  0  0  0  0  0  0  0  0  0  0
    1.7758    2.5336   -0.0433 C   0  0  0  0  0  0  0  0  0  0  0  0
    2.5193    3.0020   -1.1337 C   0  0  0  0  0  0  0  0  0  0  0  0
    2.9677    4.3209   -1.1500 C   0  0  0  0  0  0  0  0  0  0  0  0
    2.6638    5.1565   -0.0812 C   0  0  0  0  0  0  0  0  0  0  0  0
    1.9248    4.7018    1.0057 C   0  0  0  0  0  0  0  0  0  0  0  0
    1.4794    3.3822    1.0274 C   0  0  0  0  0  0  0  0  0  0  0  0
    4.2069   -0.6945   -1.2334 C   0  0  0  0  0  0  0  0  0  0  0  0
    5.5977   -0.6359   -1.3099 C   0  0  0  0  0  0  0  0  0  0  0  0
    6.3173   -0.0149   -0.2934 C   0  0  0  0  0  0  0  0  0  0  0  0
    5.6213    0.5538    0.7674 C   0  0  0  0  0  0  0  0  0  0  0  0
    4.2668    0.5127    0.8546 N   0  0  0  0  0  0  0  0  0  0  0  0
    3.0944    6.4248   -0.0972 F   0  0  0  0  0  0  0  0  0  0  0  0
    6.3634    1.2509    1.8722 C   0  0  0  0  0  0  0  0  0  0  0  0
   -1.4003   -1.5661    1.1291 H   0  0  0  0  0  0  0  0  0  0  0  0
   -1.3355   -2.0064   -0.6248 H   0  0  0  0  0  0  0  0  0  0  0  0
   -2.4084    0.0092   -1.2765 H   0  0  0  0  0  0  0  0  0  0  0  0
   -3.1136   -0.0307    0.3403 H   0  0  0  0  0  0  0  0  0  0  0  0
   -1.5344    2.0798   -0.5643 H   0  0  0  0  0  0  0  0  0  0  0  0
   -1.5639    1.6053    1.1558 H   0  0  0  0  0  0  0  0  0  0  0  0
    2.7583    2.3437   -1.9658 H   0  0  0  0  0  0  0  0  0  0  0  0
    3.5541    4.6947   -1.9817 H   0  0  0  0  0  0  0  0  0  0  0  0
    1.7097    5.3682    1.8329 H   0  0  0  0  0  0  0  0  0  0  0  0
    0.9269    3.0093    1.8861 H   0  0  0  0  0  0  0  0  0  0  0  0
    3.6280   -1.1467   -2.0309 H   0  0  0  0  0  0  0  0  0  0  0  0
    6.1205   -1.0670   -2.1589 H   0  0  0  0  0  0  0  0  0  0  0  0
    7.4019    0.0221   -0.3341 H   0  0  0  0  0  0  0  0  0  0  0  0
    6.0750    2.3057    1.9179 H   0  0  0  0  0  0  0  0  0  0  0  0
    6.1372    0.7756    2.8313 H   0  0  0  0  0  0  0  0  0  0  0  0
    7.4485    1.2064    1.7240 H   0  0  0  0  0  0  0  0  0  0  0  0
  1  2  1  0  0  0  0
  1  5  2  0  0  0  0
  1 10  1  0  0  0  0
  2  3  2  0  0  0  0
  2  9  1  0  0  0  0
  3  4  1  0  0  0  0
  4  5  1  0  0  0  0
  4  6  1  0  0  0  0
  5  8  1  0  0  0  0
  6  7  1  0  0  0  0
  6 23  1  0  0  0  0
  6 24  1  0  0  0  0
  7  8  1  0  0  0  0
  7 25  1  0  0  0  0
  7 26  1  0  0  0  0
  8 27  1  0  0  0  0
  8 28  1  0  0  0  0
  9 16  2  0  0  0  0
  9 20  1  0  0  0  0
 10 11  1  0  0  0  0
 10 15  2  0  0  0  0
 11 12  2  0  0  0  0
 11 29  1  0  0  0  0
 12 13  1  0  0  0  0
 12 30  1  0  0  0  0
 13 14  2  0  0  0  0
 13 21  1  0  0  0  0
 14 15  1  0  0  0  0
 14 31  1  0  0  0  0
 15 32  1  0  0  0  0
 16 17  1  0  0  0  0
 16 33  1  0  0  0  0
 17 18  2  0  0  0  0
 17 34  1  0  0  0  0
 18 19  1  0  0  0  0
 18 35  1  0  0  0  0
 19 20  2  0  0  0  0
 19 22  1  0  0  0  0
 22 36  1  0  0  0  0
 22 37  1  0  0  0  0
 22 38  1  0  0  0  0
M  END
>  <DRUGBANK_ID>
DB04480

>  <SECONDARY_ACCESSION_NUMBERS>
EXPT00236

>  <COMMON_NAME>
3-(4-Fluorophenyl)-2-(6-Methylpyridin-2-Yl)-5,6-Dihydro-4h-Pyrrolo[1,2-B]Pyrazole

$$$$
