
 OpenBabel10282417243D

 51 54  0  0  1  0  0  0  0  0999 V2000
    0.8562    0.0815    0.4114 N   0  0  0  0  0  0  0  0  0  0  0  0
    0.2946    1.2982   -0.2147 C   0  0  1  0  0  0  0  0  0  0  0  0
    0.7554    1.5514   -1.6497 C   0  0  0  0  0  0  0  0  0  0  0  0
    0.3235    0.4841   -2.6458 C   0  0  0  0  0  0  0  0  0  0  0  0
    0.7170   -0.8313   -2.4174 C   0  0  0  0  0  0  0  0  0  0  0  0
    0.2537   -1.8975   -3.1669 C   0  0  0  0  0  0  0  0  0  0  0  0
    0.6266   -3.4090   -2.3985 Cl  0  0  0  0  0  0  0  0  0  0  0  0
   -0.3623   -1.6453   -4.4012 C   0  0  0  0  0  0  0  0  0  0  0  0
   -0.5608   -2.5464   -5.4225 O   0  0  0  0  0  0  0  0  0  0  0  0
    0.0291   -3.8406   -5.3253 C   0  0  0  0  0  0  0  0  0  0  0  0
    1.5536   -3.8978   -5.2776 C   0  0  0  0  0  0  0  0  0  0  0  0
    2.1676   -5.1677   -5.0874 C   0  0  0  0  0  0  0  0  0  0  0  0
    3.5450   -5.3278   -4.8706 C   0  0  0  0  0  0  0  0  0  0  0  0
    4.0685   -6.5848   -4.5709 N   0  0  0  0  0  0  0  0  0  0  0  0
    4.3543   -4.1914   -4.7279 C   0  0  0  0  0  0  0  0  0  0  0  0
    3.7934   -2.9168   -4.8756 C   0  0  0  0  0  0  0  0  0  0  0  0
    4.3651   -1.6698   -4.7241 N   0  0  0  0  0  0  0  0  0  0  0  0
    3.3802   -0.8322   -4.9757 C   0  0  0  0  0  0  0  0  0  0  0  0
    2.1971   -1.4541   -5.2989 O   0  0  0  0  0  0  0  0  0  0  0  0
    2.4492   -2.8078   -5.1930 C   0  0  0  0  0  0  0  0  0  0  0  0
    3.4020    0.6353   -5.0185 C   0  0  0  0  0  0  0  0  0  0  0  0
    2.7562    1.4184   -4.0758 C   0  0  0  0  0  0  0  0  0  0  0  0
    2.6214    2.8144   -4.1367 C   0  0  0  0  0  0  0  0  0  0  0  0
    3.3774    3.4874   -5.0654 C   0  0  0  0  0  0  0  0  0  0  0  0
    4.2123    2.7420   -5.8980 C   0  0  0  0  0  0  0  0  0  0  0  0
    4.1730    1.3342   -5.9206 C   0  0  0  0  0  0  0  0  0  0  0  0
   -0.6476   -0.2953   -4.7265 C   0  0  0  0  0  0  0  0  0  0  0  0
   -1.2762    0.1485   -6.2833 Cl  0  0  0  0  0  0  0  0  0  0  0  0
   -0.3544    0.7541   -3.8365 C   0  0  0  0  0  0  0  0  0  0  0  0
   -1.2316    1.2568   -0.2323 C   0  0  0  0  0  0  0  0  0  0  0  0
   -1.8141    2.2276    0.4946 O   0  0  0  0  0  0  0  0  0  0  0  0
   -1.8971    0.4425   -0.8763 O   0  0  0  0  0  0  0  0  0  0  0  0
    0.3871   -0.7288   -0.0105 H   0  0  0  0  0  0  0  0  0  0  0  0
    1.8429   -0.0164    0.1578 H   0  0  0  0  0  0  0  0  0  0  0  0
    0.6551    2.1341    0.3933 H   0  0  0  0  0  0  0  0  0  0  0  0
    0.4088    2.5339   -1.9916 H   0  0  0  0  0  0  0  0  0  0  0  0
    1.8491    1.6271   -1.5870 H   0  0  0  0  0  0  0  0  0  0  0  0
    1.4573   -1.0562   -1.6564 H   0  0  0  0  0  0  0  0  0  0  0  0
   -0.4339   -4.3557   -4.4739 H   0  0  0  0  0  0  0  0  0  0  0  0
   -0.3113   -4.4252   -6.1883 H   0  0  0  0  0  0  0  0  0  0  0  0
    1.5338   -6.0573   -5.0694 H   0  0  0  0  0  0  0  0  0  0  0  0
    5.0765   -6.6931   -4.6180 H   0  0  0  0  0  0  0  0  0  0  0  0
    3.5325   -7.4065   -4.8255 H   0  0  0  0  0  0  0  0  0  0  0  0
    5.4081   -4.2745   -4.4944 H   0  0  0  0  0  0  0  0  0  0  0  0
    2.4229    0.8766   -3.2225 H   0  0  0  0  0  0  0  0  0  0  0  0
    1.9938    3.3728   -3.4436 H   0  0  0  0  0  0  0  0  0  0  0  0
    3.3603    4.5737   -5.1004 H   0  0  0  0  0  0  0  0  0  0  0  0
    4.9199    3.2587   -6.5340 H   0  0  0  0  0  0  0  0  0  0  0  0
    4.7825    0.7738   -6.6174 H   0  0  0  0  0  0  0  0  0  0  0  0
   -0.5709    1.7808   -4.1261 H   0  0  0  0  0  0  0  0  0  0  0  0
   -1.1820    2.7480    1.0242 H   0  0  0  0  0  0  0  0  0  0  0  0
  1 33  1  0  0  0  0
  1 34  1  0  0  0  0
  2  1  1  0  0  0  0
  2  3  1  0  0  0  0
  2 30  1  0  0  0  0
  2 35  1  1  0  0  0
  3  4  1  0  0  0  0
  3 36  1  0  0  0  0
  3 37  1  0  0  0  0
  4  5  2  0  0  0  0
  4 29  1  0  0  0  0
  5  6  1  0  0  0  0
  5 38  1  0  0  0  0
  6  7  1  0  0  0  0
  6  8  2  0  0  0  0
  8  9  1  0  0  0  0
  8 27  1  0  0  0  0
  9 10  1  0  0  0  0
 10 11  1  0  0  0  0
 10 39  1  0  0  0  0
 10 40  1  0  0  0  0
 11 12  1  0  0  0  0
 11 20  2  0  0  0  0
 12 13  2  0  0  0  0
 12 41  1  0  0  0  0
 13 14  1  0  0  0  0
 13 15  1  0  0  0  0
 14 42  1  0  0  0  0
 14 43  1  0  0  0  0
 15 16  2  0  0  0  0
 15 44  1  0  0  0  0
 16 17  1  0  0  0  0
 16 20  1  0  0  0  0
 17 18  2  0  0  0  0
 18 19  1  0  0  0  0
 18 21  1  0  0  0  0
 19 20  1  0  0  0  0
 21 22  2  0  0  0  0
 21 26  1  0  0  0  0
 22 23  1  0  0  0  0
 22 45  1  0  0  0  0
 23 24  2  0  0  0  0
 23 46  1  0  0  0  0
 24 25  1  0  0  0  0
 24 47  1  0  0  0  0
 25 26  2  0  0  0  0
 25 48  1  0  0  0  0
 26 49  1  0  0  0  0
 27 28  1  0  0  0  0
 27 29  2  0  0  0  0
 29 50  1  0  0  0  0
 30 31  1  0  0  0  0
 30 32  2  0  0  0  0
 31 51  1  0  0  0  0
M  END
>  <DRUGBANK_ID>
DB18250

>  <COMMON_NAME>
Nanvuranlat

>  <CAS_NUMBER>
1037592-40-7

>  <UNII>
CEDO9QXYZK

>  <SYNONYMS>
(2s)-2-amino-3-(4-((5-amino-2-phenyl-1,3-benzoxazol-7-yl)methoxy)-3,5-dichloro-phenyl)propanoic acid; L-tyrosine, o-((5-amino-2-phenyl-7-benzoxazolyl)methyl)-3,5-dichloro-; O-((5-amino-2-phenyl-1,3-benzoxazol-7-yl)methyl)-3,5- dichloro-l-tyrosine

$$$$
