
 OpenBabel10282417203D

116120  0  0  0  0  0  0  0  0999 V2000
  -27.1207   -6.2813    4.7130 N   0  0  0  0  0  0  0  0  0  0  0  0
  -26.0463   -5.7002    4.1688 C   0  0  0  0  0  0  0  0  0  0  0  0
  -25.3550   -4.8818    4.9863 N   0  0  0  0  0  0  0  0  0  0  0  0
  -25.7881   -5.9716    2.9415 N   0  0  0  0  0  0  0  0  0  0  0  0
  -24.1600   -4.1355    4.6340 C   0  0  0  0  0  0  0  0  0  0  0  0
  -24.3957   -2.6361    4.8032 C   0  0  0  0  0  0  0  0  0  0  0  0
  -24.5386   -2.2042    6.2709 C   0  0  0  0  0  0  0  0  0  0  0  0
  -23.3303   -2.5438    7.1600 C   0  0  0  0  0  0  0  0  0  0  0  0
  -22.0608   -1.8564    6.6785 C   0  0  0  0  0  0  0  0  0  0  0  0
  -21.4508   -0.9671    7.5712 N   0  0  0  0  0  0  0  0  0  0  0  0
  -17.2938    0.3681   10.3980 C   0  0  0  0  0  0  0  0  0  0  0  0
  -18.1585   -0.8929   10.2862 C   0  0  1  0  0  0  0  0  0  0  0  0
  -18.5674   -1.0727   11.7442 C   0  0  0  0  0  0  0  0  0  0  0  0
  -18.5834    0.3276   12.3211 C   0  0  0  0  0  0  0  0  0  0  0  0
  -18.0094    1.2362   11.3262 N   0  0  0  0  0  0  0  0  0  0  0  0
  -17.7914   -0.2380    7.2902 C   0  0  0  0  0  0  0  0  0  0  0  0
  -16.4809   -0.5596    7.7633 N   0  0  0  0  0  0  0  0  0  0  0  0
  -16.2457   -1.7322    8.4546 C   0  0  0  0  0  0  0  0  0  0  0  0
  -15.0725   -1.7733    9.4051 C   0  0  0  0  0  0  0  0  0  0  0  0
  -20.2074   -0.3690    7.1867 C   0  0  0  0  0  0  0  0  0  0  0  0
  -20.1730    0.2128    5.8989 C   0  0  0  0  0  0  0  0  0  0  0  0
  -18.9717    0.5368    5.2769 C   0  0  0  0  0  0  0  0  0  0  0  0
  -17.7901    0.3037    5.9823 C   0  0  0  0  0  0  0  0  0  0  0  0
  -19.0246   -0.4806    7.9796 C   0  0  0  0  0  0  0  0  0  0  0  0
  -17.0097   -2.7015    8.3685 O   0  0  0  0  0  0  0  0  0  0  0  0
  -19.2373   -0.7921    9.3265 O   0  0  0  0  0  0  0  0  0  0  0  0
  -21.6169   -2.1257    5.5604 O   0  0  0  0  0  0  0  0  0  0  0  0
  -18.9535    1.0199    3.8477 C   0  0  0  0  0  0  0  0  0  0  0  0
  -19.5487    0.1561    2.9807 F   0  0  0  0  0  0  0  0  0  0  0  0
  -19.5920    2.2117    3.6913 F   0  0  0  0  0  0  0  0  0  0  0  0
  -17.6910    1.2109    3.3681 F   0  0  0  0  0  0  0  0  0  0  0  0
   -1.6165   -6.5373    9.6686 N   0  0  0  0  0  0  0  0  0  0  0  0
   -2.9058   -6.1754    9.6096 C   0  0  0  0  0  0  0  0  0  0  0  0
   -3.1354   -4.8638    9.8067 N   0  0  0  0  0  0  0  0  0  0  0  0
   -3.8468   -7.0192    9.3844 N   0  0  0  0  0  0  0  0  0  0  0  0
   -4.4757   -4.3031    9.8107 C   0  0  0  0  0  0  0  0  0  0  0  0
   -4.7628   -3.6656   11.1701 C   0  0  0  0  0  0  0  0  0  0  0  0
   -3.9167   -2.3923   11.4404 C   0  0  0  0  0  0  0  0  0  0  0  0
   -3.9978   -1.2632   10.3832 C   0  0  0  0  0  0  0  0  0  0  0  0
   -5.4354   -0.8840   10.1994 C   0  0  0  0  0  0  0  0  0  0  0  0
   -5.8295    0.4247   10.3597 N   0  0  0  0  0  0  0  0  0  0  0  0
   -9.8992   -1.3581    7.9554 C   0  0  0  0  0  0  0  0  0  0  0  0
   -9.1679   -1.9982    9.1215 C   0  0  1  0  0  0  0  0  0  0  0  0
   -8.5980   -3.2598    8.4828 C   0  0  0  0  0  0  0  0  0  0  0  0
   -8.4161   -2.9160    7.0152 C   0  0  0  0  0  0  0  0  0  0  0  0
   -9.0377   -1.6035    6.7858 N   0  0  0  0  0  0  0  0  0  0  0  0
   -9.6180    0.5187   10.6027 C   0  0  0  0  0  0  0  0  0  0  0  0
  -10.7506   -0.3154   10.7597 N   0  0  0  0  0  0  0  0  0  0  0  0
  -11.9713    0.0070   10.1965 C   0  0  0  0  0  0  0  0  0  0  0  0
  -13.0556   -1.0137   10.2625 C   0  0  0  0  0  0  0  0  0  0  0  0
   -7.1971    0.8814   10.4001 C   0  0  0  0  0  0  0  0  0  0  0  0
   -7.3986    2.2459   10.6790 C   0  0  0  0  0  0  0  0  0  0  0  0
   -8.6934    2.7439   10.9089 C   0  0  0  0  0  0  0  0  0  0  0  0
   -9.7796    1.8697   10.8720 C   0  0  0  0  0  0  0  0  0  0  0  0
   -8.3475    0.0451   10.2491 C   0  0  0  0  0  0  0  0  0  0  0  0
  -12.8303   -2.1752   10.9164 N   0  0  0  0  0  0  0  0  0  0  0  0
  -14.1932   -0.7330    9.5352 C   0  0  0  0  0  0  0  0  0  0  0  0
  -14.9664   -2.8973   10.1446 N   0  0  0  0  0  0  0  0  0  0  0  0
  -13.8488   -3.0471   10.8624 C   0  0  0  0  0  0  0  0  0  0  0  0
  -12.1840    1.0328    9.5524 O   0  0  0  0  0  0  0  0  0  0  0  0
   -8.1562   -1.1268    9.5831 O   0  0  0  0  0  0  0  0  0  0  0  0
   -6.1482   -1.8296    9.8953 O   0  0  0  0  0  0  0  0  0  0  0  0
   -8.9490    4.1726   11.3058 C   0  0  0  0  0  0  0  0  0  0  0  0
   -8.2850    4.5033   12.4467 F   0  0  0  0  0  0  0  0  0  0  0  0
   -8.5581    5.0656   10.3606 F   0  0  0  0  0  0  0  0  0  0  0  0
  -10.2628    4.4375   11.5563 F   0  0  0  0  0  0  0  0  0  0  0  0
  -27.4480   -6.1618    5.6544 H   0  0  0  0  0  0  0  0  0  0  0  0
  -27.6379   -6.8890    4.0903 H   0  0  0  0  0  0  0  0  0  0  0  0
  -25.6673   -4.7995    5.9437 H   0  0  0  0  0  0  0  0  0  0  0  0
  -24.9510   -5.4710    2.6530 H   0  0  0  0  0  0  0  0  0  0  0  0
  -23.3192   -4.4908    5.2362 H   0  0  0  0  0  0  0  0  0  0  0  0
  -23.8545   -4.3052    3.5993 H   0  0  0  0  0  0  0  0  0  0  0  0
  -23.5697   -2.0921    4.3330 H   0  0  0  0  0  0  0  0  0  0  0  0
  -25.2857   -2.3304    4.2383 H   0  0  0  0  0  0  0  0  0  0  0  0
  -24.7189   -1.1235    6.3022 H   0  0  0  0  0  0  0  0  0  0  0  0
  -25.4361   -2.6792    6.6868 H   0  0  0  0  0  0  0  0  0  0  0  0
  -23.5468   -2.2833    8.1985 H   0  0  0  0  0  0  0  0  0  0  0  0
  -23.1456   -3.6252    7.1540 H   0  0  0  0  0  0  0  0  0  0  0  0
  -21.5787   -1.1532    8.5577 H   0  0  0  0  0  0  0  0  0  0  0  0
  -16.3069    0.1615   10.8226 H   0  0  0  0  0  0  0  0  0  0  0  0
  -17.1551    0.9250    9.4743 H   0  0  0  0  0  0  0  0  0  0  0  0
  -17.6695   -1.8499   10.1635 H   0  0  0  0  0  0  0  0  0  0  0  0
  -19.4931   -1.6344   11.8744 H   0  0  0  0  0  0  0  0  0  0  0  0
  -17.7679   -1.6349   12.2643 H   0  0  0  0  0  0  0  0  0  0  0  0
  -19.6058    0.6272   12.5452 H   0  0  0  0  0  0  0  0  0  0  0  0
  -17.9816    0.3698   13.2353 H   0  0  0  0  0  0  0  0  0  0  0  0
  -18.7720    1.6502   10.7873 H   0  0  0  0  0  0  0  0  0  0  0  0
  -15.7019   -0.2691    7.1765 H   0  0  0  0  0  0  0  0  0  0  0  0
  -21.1039    0.3588    5.3458 H   0  0  0  0  0  0  0  0  0  0  0  0
  -16.8490    0.4912    5.4638 H   0  0  0  0  0  0  0  0  0  0  0  0
   -1.3569   -7.5030    9.5357 H   0  0  0  0  0  0  0  0  0  0  0  0
   -0.8722   -5.8847    9.8550 H   0  0  0  0  0  0  0  0  0  0  0  0
   -2.3708   -4.2265    9.9609 H   0  0  0  0  0  0  0  0  0  0  0  0
   -3.4603   -7.9506    9.2633 H   0  0  0  0  0  0  0  0  0  0  0  0
   -5.2390   -5.0652    9.6153 H   0  0  0  0  0  0  0  0  0  0  0  0
   -4.5678   -3.5912    8.9849 H   0  0  0  0  0  0  0  0  0  0  0  0
   -4.6014   -4.3943   11.9728 H   0  0  0  0  0  0  0  0  0  0  0  0
   -5.8372   -3.4547   11.2480 H   0  0  0  0  0  0  0  0  0  0  0  0
   -2.8702   -2.6964   11.5376 H   0  0  0  0  0  0  0  0  0  0  0  0
   -4.2249   -1.9872   12.4115 H   0  0  0  0  0  0  0  0  0  0  0  0
   -3.6679   -1.6381    9.4053 H   0  0  0  0  0  0  0  0  0  0  0  0
   -3.3614   -0.4145   10.6349 H   0  0  0  0  0  0  0  0  0  0  0  0
   -5.1135    1.1060   10.5856 H   0  0  0  0  0  0  0  0  0  0  0  0
  -10.8818   -1.8178    7.8228 H   0  0  0  0  0  0  0  0  0  0  0  0
  -10.0273   -0.2779    8.0599 H   0  0  0  0  0  0  0  0  0  0  0  0
   -9.7570   -2.3502    9.9628 H   0  0  0  0  0  0  0  0  0  0  0  0
   -7.6759   -3.6251    8.9435 H   0  0  0  0  0  0  0  0  0  0  0  0
   -9.3500   -4.0566    8.5620 H   0  0  0  0  0  0  0  0  0  0  0  0
   -7.3550   -2.8862    6.7470 H   0  0  0  0  0  0  0  0  0  0  0  0
   -8.8998   -3.6664    6.3820 H   0  0  0  0  0  0  0  0  0  0  0  0
   -8.2804   -0.9149    6.8406 H   0  0  0  0  0  0  0  0  0  0  0  0
  -10.6189   -1.2593   11.1059 H   0  0  0  0  0  0  0  0  0  0  0  0
   -6.5599    2.9406   10.7256 H   0  0  0  0  0  0  0  0  0  0  0  0
  -10.7754    2.2491   11.0937 H   0  0  0  0  0  0  0  0  0  0  0  0
  -14.3430    0.2391    9.0858 H   0  0  0  0  0  0  0  0  0  0  0  0
  -13.7606   -3.9760   11.4183 H   0  0  0  0  0  0  0  0  0  0  0  0
  1  2  1  0  0  0  0
  1 67  1  0  0  0  0
  1 68  1  0  0  0  0
  2  3  1  0  0  0  0
  2  4  2  0  0  0  0
  3  5  1  0  0  0  0
  3 69  1  0  0  0  0
  4 70  1  0  0  0  0
  5  6  1  0  0  0  0
  5 71  1  0  0  0  0
  5 72  1  0  0  0  0
  6  7  1  0  0  0  0
  6 73  1  0  0  0  0
  6 74  1  0  0  0  0
  7  8  1  0  0  0  0
  7 75  1  0  0  0  0
  7 76  1  0  0  0  0
  8  9  1  0  0  0  0
  8 77  1  0  0  0  0
  8 78  1  0  0  0  0
  9 10  1  0  0  0  0
  9 27  2  0  0  0  0
 10 79  1  0  0  0  0
 11 12  1  0  0  0  0
 11 80  1  0  0  0  0
 11 81  1  0  0  0  0
 12 13  1  0  0  0  0
 12 82  1  6  0  0  0
 12 26  1  0  0  0  0
 13 14  1  0  0  0  0
 13 83  1  0  0  0  0
 13 84  1  0  0  0  0
 14 15  1  0  0  0  0
 14 85  1  0  0  0  0
 14 86  1  0  0  0  0
 15 11  1  0  0  0  0
 15 87  1  0  0  0  0
 16 24  2  0  0  0  0
 16 17  1  0  0  0  0
 17 18  1  0  0  0  0
 17 88  1  0  0  0  0
 18 19  1  0  0  0  0
 18 25  2  0  0  0  0
 19 58  1  0  0  0  0
 20 21  2  0  0  0  0
 20 10  1  0  0  0  0
 21 22  1  0  0  0  0
 21 89  1  0  0  0  0
 22 23  2  0  0  0  0
 22 28  1  0  0  0  0
 23 16  1  0  0  0  0
 23 90  1  0  0  0  0
 24 20  1  0  0  0  0
 24 26  1  0  0  0  0
 28 29  1  0  0  0  0
 28 30  1  0  0  0  0
 28 31  1  0  0  0  0
 32 33  1  0  0  0  0
 32 91  1  0  0  0  0
 32 92  1  0  0  0  0
 33 34  1  0  0  0  0
 33 35  2  0  0  0  0
 34 36  1  0  0  0  0
 34 93  1  0  0  0  0
 35 94  1  0  0  0  0
 36 37  1  0  0  0  0
 36 95  1  0  0  0  0
 36 96  1  0  0  0  0
 37 38  1  0  0  0  0
 37 97  1  0  0  0  0
 37 98  1  0  0  0  0
 38 39  1  0  0  0  0
 38 99  1  0  0  0  0
 38100  1  0  0  0  0
 39 40  1  0  0  0  0
 39101  1  0  0  0  0
 39102  1  0  0  0  0
 40 41  1  0  0  0  0
 40 62  2  0  0  0  0
 41103  1  0  0  0  0
 42 43  1  0  0  0  0
 42104  1  0  0  0  0
 42105  1  0  0  0  0
 43 44  1  0  0  0  0
 43106  1  1  0  0  0
 43 61  1  0  0  0  0
 44 45  1  0  0  0  0
 44107  1  0  0  0  0
 44108  1  0  0  0  0
 45 46  1  0  0  0  0
 45109  1  0  0  0  0
 45110  1  0  0  0  0
 46 42  1  0  0  0  0
 46111  1  0  0  0  0
 47 48  1  0  0  0  0
 47 55  2  0  0  0  0
 48 49  1  0  0  0  0
 48112  1  0  0  0  0
 49 50  1  0  0  0  0
 49 60  2  0  0  0  0
 50 57  1  0  0  0  0
 51 52  2  0  0  0  0
 51 41  1  0  0  0  0
 52 53  1  0  0  0  0
 52113  1  0  0  0  0
 53 54  2  0  0  0  0
 53 63  1  0  0  0  0
 54 47  1  0  0  0  0
 54114  1  0  0  0  0
 55 51  1  0  0  0  0
 55 61  1  0  0  0  0
 56 50  2  0  0  0  0
 57 19  2  0  0  0  0
 57115  1  0  0  0  0
 58 59  2  0  0  0  0
 59 56  1  0  0  0  0
 59116  1  0  0  0  0
 63 64  1  0  0  0  0
 63 65  1  0  0  0  0
 63 66  1  0  0  0  0
M  END
>  <DRUGBANK_ID>
DB12997

>  <COMMON_NAME>
Brilacidin

>  <CAS_NUMBER>
1224095-98-0

>  <UNII>
I1679X069H

>  <SYNONYMS>
Brilacidin; Brilacidina; Brilacidine; Brilacidinum

$$$$
