
 OpenBabel10282417173D

 28 29  0  0  1  0  0  0  0  0999 V2000
    0.4037   -1.3663   -1.0659 O   0  0  0  0  0  0  0  0  0  0  0  0
    0.8972    0.6616    2.2540 O   0  0  0  0  0  0  0  0  0  0  0  0
   -3.4209   -0.2291   -0.2498 O   0  0  0  0  0  0  0  0  0  0  0  0
   -2.4225    1.1041   -1.5844 O   0  0  0  0  0  0  0  0  0  0  0  0
   -0.9203   -4.3145    1.0893 O   0  0  0  0  0  0  0  0  0  0  0  0
   -1.9046   -3.8769   -0.9375 O   0  0  0  0  0  0  0  0  0  0  0  0
   -0.7116   -0.0035    0.1548 C   0  0  2  0  0  0  0  0  0  0  0  0
    1.0047   -0.8967    0.5771 C   0  0  0  0  0  0  0  0  0  0  0  0
    1.5570   -0.1630   -0.4383 C   0  0  2  0  0  0  0  0  0  0  0  0
   -1.3016   -1.0434    0.9863 C   0  0  0  0  0  0  0  0  0  0  0  0
   -0.5954   -2.1455    0.1545 C   0  0  1  0  0  0  0  0  0  0  0  0
    1.5464    0.9664    0.9311 C   0  0  1  0  0  0  0  0  0  0  0  0
   -0.3999    1.5048   -0.0755 C   0  0  0  0  0  0  0  0  0  0  0  0
    0.7583    2.0121    0.3345 C   0  0  0  0  0  0  0  0  0  0  0  0
   -2.2305    0.2454   -0.7154 C   0  0  0  0  0  0  0  0  0  0  0  0
   -1.1849   -3.5082    0.0181 C   0  0  0  0  0  0  0  0  0  0  0  0
    2.5670   -0.4123   -0.7936 H   0  0  0  0  0  0  0  0  0  0  0  0
   -0.0208    0.9868    2.3159 H   0  0  0  0  0  0  0  0  0  0  0  0
   -3.7035   -0.8438    0.4459 H   0  0  0  0  0  0  0  0  0  0  0  0
   -0.3098   -3.9674    1.7867 H   0  0  0  0  0  0  0  0  0  0  0  0
    1.5489   -1.8763    0.2456 H   0  0  0  0  0  0  0  0  0  0  0  0
    1.3300   -1.0907    1.6168 H   0  0  0  0  0  0  0  0  0  0  0  0
   -2.3133   -1.2902    1.2645 H   0  0  0  0  0  0  0  0  0  0  0  0
   -0.9427   -0.7191    1.9483 H   0  0  0  0  0  0  0  0  0  0  0  0
    0.0964   -2.5038    0.9323 H   0  0  0  0  0  0  0  0  0  0  0  0
    2.5500    1.2124    1.2561 H   0  0  0  0  0  0  0  0  0  0  0  0
   -0.7626    2.0530   -0.9585 H   0  0  0  0  0  0  0  0  0  0  0  0
    1.2102    2.8594   -0.1536 H   0  0  0  0  0  0  0  0  0  0  0  0
  1  9  1  0  0  0  0
  1 11  1  0  0  0  0
  2 18  1  0  0  0  0
  3 15  1  0  0  0  0
  3 19  1  0  0  0  0
  4 15  2  0  0  0  0
  5 16  1  0  0  0  0
  5 20  1  0  0  0  0
  6 16  2  0  0  0  0
  7  8  1  0  0  0  0
  7 10  1  0  0  0  0
  7 13  1  0  0  0  0
  7 15  1  1  0  0  0
  8  9  1  0  0  0  0
  8 21  1  0  0  0  0
  8 22  1  0  0  0  0
  9 12  1  0  0  0  0
  9 17  1  6  0  0  0
 10 11  1  0  0  0  0
 10 23  1  0  0  0  0
 10 24  1  0  0  0  0
 11 16  1  0  0  0  0
 11 25  1  1  0  0  0
 12 14  1  0  0  0  0
 12 26  1  1  0  0  0
 12  2  1  0  0  0  0
 13 14  2  0  0  0  0
 13 27  1  0  0  0  0
 14 28  1  0  0  0  0
M  END
>  <DRUGBANK_ID>
DB08648

>  <COMMON_NAME>
8-Hydroxy-2-oxa-bicyclo[3.3.1]non-6-ene-3,5-dicarboxylic acid

$$$$
