
 OpenBabel10282417123D

 21 20  0  0  1  0  0  0  0  0999 V2000
    0.9111   -0.1199   -0.0142 O   0  0  0  0  0  0  0  0  0  0  0  0
    0.2873    0.8317    0.6972 C   0  0  0  0  0  0  0  0  0  0  0  0
   -1.2376    0.7652    0.6446 C   0  0  2  0  0  0  0  0  0  0  0  0
   -2.0136    0.5123    3.9565 S   0  0  2  0  0  0  0  0  0  0  0  0
   -1.7802   -0.4977    1.2995 C   0  0  0  0  0  0  0  0  0  0  0  0
   -1.2920   -0.6551    2.7416 C   0  0  0  0  0  0  0  0  0  0  0  0
   -1.2986    2.1223    3.5331 C   0  0  0  0  0  0  0  0  0  0  0  0
    0.9356    1.6373    1.3578 O   0  0  0  0  0  0  0  0  0  0  0  0
   -1.7614    1.0385   -0.7006 N   0  0  0  0  0  0  0  0  0  0  0  0
   -1.4249    0.1452    5.2874 O   0  0  0  0  0  0  0  0  0  0  0  0
    1.8661    0.0511    0.1219 H   0  0  0  0  0  0  0  0  0  0  0  0
   -1.6263    1.6034    1.1901 H   0  0  0  0  0  0  0  0  0  0  0  0
   -2.8776   -0.4981    1.2815 H   0  0  0  0  0  0  0  0  0  0  0  0
   -1.4625   -1.3740    0.7156 H   0  0  0  0  0  0  0  0  0  0  0  0
   -1.6273   -1.6451    3.0844 H   0  0  0  0  0  0  0  0  0  0  0  0
   -0.2009   -0.6655    2.8235 H   0  0  0  0  0  0  0  0  0  0  0  0
   -0.2127    2.0728    3.4589 H   0  0  0  0  0  0  0  0  0  0  0  0
   -1.7434    2.5772    2.6504 H   0  0  0  0  0  0  0  0  0  0  0  0
   -1.5629    2.8237    4.3272 H   0  0  0  0  0  0  0  0  0  0  0  0
   -2.7789    1.1006   -0.6347 H   0  0  0  0  0  0  0  0  0  0  0  0
   -1.4641    1.9871   -0.9474 H   0  0  0  0  0  0  0  0  0  0  0  0
  1  2  1  0  0  0  0
  1 11  1  0  0  0  0
  2  8  2  0  0  0  0
  2  3  1  0  0  0  0
  3  9  1  0  0  0  0
  3  5  1  0  0  0  0
  3 12  1  1  0  0  0
  4 10  2  1  0  0  0
  4  6  1  0  0  0  0
  4  7  1  0  0  0  0
  5  6  1  0  0  0  0
  5 13  1  0  0  0  0
  5 14  1  0  0  0  0
  6 15  1  0  0  0  0
  6 16  1  0  0  0  0
  7 17  1  0  0  0  0
  7 18  1  0  0  0  0
  7 19  1  0  0  0  0
  9 20  1  0  0  0  0
  9 21  1  0  0  0  0
M  END
>  <DRUGBANK_ID>
DB02467

>  <SECONDARY_ACCESSION_NUMBERS>
EXPT02173

>  <COMMON_NAME>
L-methionine (S)-S-oxide

$$$$
