
 OpenBabel10282417183D

 33 32  0  0  0  0  0  0  0  0999 V2000
    0.9167   -0.0037   -0.0552 C   0  0  0  0  0  0  0  0  0  0  0  0
    0.3067   -1.7288   -0.0284 P   0  0  0  0  0  0  0  0  0  0  0  0
    0.3067    0.8821    1.4255 P   0  0  0  0  0  0  0  0  0  0  0  0
   -1.0334   -1.2348    0.5336 O   0  0  0  0  0  0  0  0  0  0  0  0
    1.0376   -0.0295    2.3869 O   0  0  0  0  0  0  0  0  0  0  0  0
    0.4124    0.6964   -1.2340 O   0  0  0  0  0  0  0  0  0  0  0  0
    5.2606   -3.7150    1.1192 N   0  0  0  0  0  0  0  0  0  0  0  0
    0.1074   -1.7222   -1.6618 O   0  0  0  0  0  0  0  0  0  0  0  0
    1.0392    2.2750    0.9997 O   0  0  0  0  0  0  0  0  0  0  0  0
   -0.2700    1.7194    2.8252 O   0  0  0  0  0  0  0  0  0  0  0  0
   -0.2700   -3.3597   -0.0032 O   0  0  0  0  0  0  0  0  0  0  0  0
    2.4830   -0.0548   -0.1094 C   0  0  0  0  0  0  0  0  0  0  0  0
    4.6531   -3.0946   -0.0480 C   0  0  0  0  0  0  0  0  0  0  0  0
    3.1783   -0.7168    1.1109 C   0  0  0  0  0  0  0  0  0  0  0  0
    3.1421   -3.0414    0.1390 C   0  0  0  0  0  0  0  0  0  0  0  0
    2.7803   -2.1815    1.3587 C   0  0  0  0  0  0  0  0  0  0  0  0
   -0.4935    0.9921   -1.0147 H   0  0  0  0  0  0  0  0  0  0  0  0
    6.2694   -3.5991    1.0834 H   0  0  0  0  0  0  0  0  0  0  0  0
    4.9778   -3.2301    1.9713 H   0  0  0  0  0  0  0  0  0  0  0  0
   -0.3952   -0.9228   -1.9400 H   0  0  0  0  0  0  0  0  0  0  0  0
    1.9557    2.2560    0.6560 H   0  0  0  0  0  0  0  0  0  0  0  0
   -1.2402    1.7901    2.8150 H   0  0  0  0  0  0  0  0  0  0  0  0
    0.4412   -4.0055   -0.1571 H   0  0  0  0  0  0  0  0  0  0  0  0
    2.7872   -0.5596   -1.0316 H   0  0  0  0  0  0  0  0  0  0  0  0
    2.9085    0.9451   -0.2264 H   0  0  0  0  0  0  0  0  0  0  0  0
    4.8984   -3.6547   -0.9523 H   0  0  0  0  0  0  0  0  0  0  0  0
    5.0595   -2.0879   -0.1915 H   0  0  0  0  0  0  0  0  0  0  0  0
    4.2603   -0.6424    0.9879 H   0  0  0  0  0  0  0  0  0  0  0  0
    3.0497   -0.1312    2.0245 H   0  0  0  0  0  0  0  0  0  0  0  0
    2.7234   -4.0484    0.2422 H   0  0  0  0  0  0  0  0  0  0  0  0
    2.6947   -2.6419   -0.7796 H   0  0  0  0  0  0  0  0  0  0  0  0
    3.2503   -2.5477    2.2741 H   0  0  0  0  0  0  0  0  0  0  0  0
    1.7317   -2.3062    1.6314 H   0  0  0  0  0  0  0  0  0  0  0  0
  2  1  1  0  0  0  0
  3  1  1  0  0  0  0
  4  2  2  0  0  0  0
  5  3  2  0  0  0  0
  6  1  1  0  0  0  0
  6 17  1  0  0  0  0
  7 13  1  0  0  0  0
  7 18  1  0  0  0  0
  7 19  1  0  0  0  0
  8  2  1  0  0  0  0
  8 20  1  0  0  0  0
  9  3  1  0  0  0  0
  9 21  1  0  0  0  0
 10  3  1  0  0  0  0
 10 22  1  0  0  0  0
 11  2  1  0  0  0  0
 11 23  1  0  0  0  0
 12  1  1  0  0  0  0
 12 24  1  0  0  0  0
 12 25  1  0  0  0  0
 13 15  1  0  0  0  0
 13 26  1  0  0  0  0
 13 27  1  0  0  0  0
 14 12  1  0  0  0  0
 14 28  1  0  0  0  0
 14 29  1  0  0  0  0
 15 16  1  0  0  0  0
 15 30  1  0  0  0  0
 15 31  1  0  0  0  0
 16 14  1  0  0  0  0
 16 32  1  0  0  0  0
 16 33  1  0  0  0  0
M  END
>  <DRUGBANK_ID>
DB11620

>  <COMMON_NAME>
Neridronic Acid

>  <CAS_NUMBER>
79778-41-9

>  <UNII>
8U27U3RIN4

>  <SYNONYMS>
(6-amino-1-hydroxyhexylidene)diphosphonic acid; Neridronate; Neridronic Acid

$$$$
