
 OpenBabel10282417133D

  5  4  0  0  0  0  0  0  0  0999 V2000
    0.9999    0.0908    0.0420 Mo  0  0  0  0  0  0  0  0  0  0  0  0
   -0.2951    2.3320   -0.0477 S   0  0  0  0  0  0  0  0  0  0  0  0
    0.0154   -1.6131    0.1102 O   0  0  0  0  0  0  0  0  0  0  0  0
    2.9689    0.0908    0.0420 O   0  0  0  0  0  0  0  0  0  0  0  0
    0.5886    3.3648   -0.0890 H   0  0  0  0  0  0  0  0  0  0  0  0
  1  2  1  0  0  0  0
  1  3  2  0  0  0  0
  1  4  2  0  0  0  0
  2  5  1  0  0  0  0
M  END
>  <DRUGBANK_ID>
DB03328

>  <SECONDARY_ACCESSION_NUMBERS>
EXPT02214

>  <COMMON_NAME>
Dioxo(sulfanyl)molybdenum

$$$$
