
 OpenBabel10282417183D

 37 40  0  0  0  0  0  0  0  0999 V2000
   -3.6752   -0.6263    0.0530 C   0  0  0  0  0  0  0  0  0  0  0  0
   -5.4488   -1.7305    0.0083 I   0  0  0  0  0  0  0  0  0  0  0  0
   -3.6610    0.7645    0.0190 C   0  0  0  0  0  0  0  0  0  0  0  0
   -4.8358    1.4666    0.0030 O   0  0  0  0  0  0  0  0  0  0  0  0
   -2.4350    1.4481    0.0060 C   0  0  0  0  0  0  0  0  0  0  0  0
   -2.4132    3.5577   -0.0149 I   0  0  0  0  0  0  0  0  0  0  0  0
   -1.2240    0.7315   -0.0012 C   0  0  0  0  0  0  0  0  0  0  0  0
   -1.2359   -0.6598    0.0282 C   0  0  0  0  0  0  0  0  0  0  0  0
    0.0432   -1.4156   -0.0548 C   0  0  0  0  0  0  0  0  0  0  0  0
    1.2025   -0.7031   -0.1384 C   0  0  0  0  0  0  0  0  0  0  0  0
    2.5108   -1.3712   -0.1684 C   0  0  0  0  0  0  0  0  0  0  0  0
    3.6677   -0.7025   -0.0828 C   0  0  0  0  0  0  0  0  0  0  0  0
    5.4610   -1.7135    0.0042 I   0  0  0  0  0  0  0  0  0  0  0  0
    3.6646    0.7887   -0.0296 C   0  0  0  0  0  0  0  0  0  0  0  0
    4.7179    1.4180    0.0162 O   0  0  0  0  0  0  0  0  0  0  0  0
    2.3273    1.4753   -0.0350 C   0  0  0  0  0  0  0  0  0  0  0  0
    2.3504    3.5538    0.0239 I   0  0  0  0  0  0  0  0  0  0  0  0
    1.1807    0.7653   -0.0755 C   0  0  0  0  0  0  0  0  0  0  0  0
   -0.0431    1.4262   -0.0407 O   0  0  0  0  0  0  0  0  0  0  0  0
    0.0590   -2.9153   -0.0023 C   0  0  0  0  0  0  0  0  0  0  0  0
    0.5865   -3.6311    1.1195 C   0  0  0  0  0  0  0  0  0  0  0  0
    1.2121   -2.9386    2.3250 C   0  0  0  0  0  0  0  0  0  0  0  0
    1.8912   -3.4503    3.2006 O   0  0  0  0  0  0  0  0  0  0  0  0
    1.0365   -1.6097    2.3864 O   0  0  0  0  0  0  0  0  0  0  0  0
    0.5751   -5.0474    1.0610 C   0  0  0  0  0  0  0  0  0  0  0  0
    1.3060   -6.0200    2.3097 Cl  0  0  0  0  0  0  0  0  0  0  0  0
   -0.0218   -5.7295   -0.0306 C   0  0  0  0  0  0  0  0  0  0  0  0
   -0.0454   -7.4753   -0.0718 Cl  0  0  0  0  0  0  0  0  0  0  0  0
   -0.5889   -5.0213   -1.0976 C   0  0  0  0  0  0  0  0  0  0  0  0
   -1.3879   -5.8651   -2.3976 Cl  0  0  0  0  0  0  0  0  0  0  0  0
   -0.5137   -3.6244   -1.1051 C   0  0  0  0  0  0  0  0  0  0  0  0
   -1.1514   -2.7591   -2.4938 Cl  0  0  0  0  0  0  0  0  0  0  0  0
   -2.4749   -1.3266    0.0930 C   0  0  0  0  0  0  0  0  0  0  0  0
   -5.5727    0.8293    0.0145 H   0  0  0  0  0  0  0  0  0  0  0  0
    2.5606   -2.4541   -0.1807 H   0  0  0  0  0  0  0  0  0  0  0  0
    1.6364   -1.2829    3.0945 H   0  0  0  0  0  0  0  0  0  0  0  0
   -2.5252   -2.4106    0.1265 H   0  0  0  0  0  0  0  0  0  0  0  0
  1  2  1  0  0  0  0
  1  3  2  0  0  0  0
  3  4  1  0  0  0  0
  3  5  1  0  0  0  0
  4 34  1  0  0  0  0
  5  6  1  0  0  0  0
  5  7  2  0  0  0  0
  7 19  1  0  0  0  0
  8  7  1  0  0  0  0
  8 33  2  0  0  0  0
  9  8  1  0  0  0  0
  9 20  1  0  0  0  0
 10  9  2  0  0  0  0
 10 18  1  0  0  0  0
 11 10  1  0  0  0  0
 11 35  1  0  0  0  0
 12 11  2  0  0  0  0
 12 13  1  0  0  0  0
 14 12  1  0  0  0  0
 14 15  2  0  0  0  0
 16 14  1  0  0  0  0
 16 17  1  0  0  0  0
 18 16  2  0  0  0  0
 19 18  1  0  0  0  0
 20 21  2  0  0  0  0
 21 22  1  0  0  0  0
 21 25  1  0  0  0  0
 22 23  2  0  0  0  0
 22 24  1  0  0  0  0
 24 36  1  0  0  0  0
 25 26  1  0  0  0  0
 25 27  2  0  0  0  0
 27 28  1  0  0  0  0
 27 29  1  0  0  0  0
 29 30  1  0  0  0  0
 29 31  2  0  0  0  0
 31 20  1  0  0  0  0
 31 32  1  0  0  0  0
 33  1  1  0  0  0  0
 33 37  1  0  0  0  0
M  ISO  4   2 131   6 131  13 131  17 131
M  END
>  <DRUGBANK_ID>
DB09388

>  <COMMON_NAME>
Rose bengal I-131

>  <CAS_NUMBER>
99689-97-1

>  <UNII>
MKF129JIZX

>  <SYNONYMS>
Robenogatope I-131

$$$$
