
 OpenBabel10282417223D

 56 57  0  0  0  0  0  0  0  0999 V2000
    0.2766    0.1102    0.1300 C   0  0  2  0  0  0  0  0  0  0  0  0
    0.2911   -1.1022    1.1481 C   0  0  0  0  0  0  0  0  0  0  0  0
    0.4401   -2.4550    0.7618 C   0  0  0  0  0  0  0  0  0  0  0  0
    0.3786   -3.5020    1.6920 C   0  0  0  0  0  0  0  0  0  0  0  0
    0.1368   -3.2264    3.0286 C   0  0  0  0  0  0  0  0  0  0  0  0
    0.1648   -1.9085    3.4578 C   0  0  0  0  0  0  0  0  0  0  0  0
    0.3545   -0.8781    2.5346 C   0  0  0  0  0  0  0  0  0  0  0  0
   -0.3973    1.4981    0.4377 C   0  0  0  0  0  0  0  0  0  0  0  0
   -1.0716    1.7191    1.5991 C   0  0  0  0  0  0  0  0  0  0  0  0
   -1.8114    0.7565    2.2248 O   0  0  0  0  0  0  0  0  0  0  0  0
   -1.0091    2.9681    2.2363 C   0  0  0  0  0  0  0  0  0  0  0  0
   -0.3143    4.0448    1.6528 C   0  0  0  0  0  0  0  0  0  0  0  0
    0.2858    3.9170    0.4331 C   0  0  0  0  0  0  0  0  0  0  0  0
    1.1787    5.0143   -0.1519 C   0  0  0  0  0  0  0  0  0  0  0  0
    2.5843    4.8989    0.0807 O   0  0  0  0  0  0  0  0  0  0  0  0
    0.0874    2.6824   -0.2295 C   0  0  0  0  0  0  0  0  0  0  0  0
    0.2463   -0.3266   -1.3631 C   0  0  0  0  0  0  0  0  0  0  0  0
    1.0326    0.5335   -2.3744 C   0  0  0  0  0  0  0  0  0  0  0  0
    2.5101    0.7436   -2.3160 N   0  0  0  0  0  0  0  0  0  0  0  0
    2.9493    1.7094   -3.3641 C   0  0  0  0  0  0  0  0  0  0  0  0
    2.4084    3.1478   -3.2482 C   0  0  0  0  0  0  0  0  0  0  0  0
    4.4789    1.7429   -3.4704 C   0  0  0  0  0  0  0  0  0  0  0  0
    3.3329    0.7835   -1.0646 C   0  0  0  0  0  0  0  0  0  0  0  0
    3.1516    2.0617   -0.2685 C   0  0  0  0  0  0  0  0  0  0  0  0
    3.1997   -0.4409   -0.1732 C   0  0  0  0  0  0  0  0  0  0  0  0
    1.2597    0.4608    0.3962 H   0  0  0  0  0  0  0  0  0  0  0  0
    0.6538   -2.7555   -0.2595 H   0  0  0  0  0  0  0  0  0  0  0  0
    0.5008   -4.5319    1.3617 H   0  0  0  0  0  0  0  0  0  0  0  0
   -0.0374   -4.0297    3.7371 H   0  0  0  0  0  0  0  0  0  0  0  0
    0.0236   -1.6652    4.5073 H   0  0  0  0  0  0  0  0  0  0  0  0
    0.4755    0.1273    2.9330 H   0  0  0  0  0  0  0  0  0  0  0  0
   -1.7334   -0.0673    1.7073 H   0  0  0  0  0  0  0  0  0  0  0  0
   -1.4618    3.0760    3.2036 H   0  0  0  0  0  0  0  0  0  0  0  0
   -0.3045    5.0082    2.1615 H   0  0  0  0  0  0  0  0  0  0  0  0
    1.0470    5.0977   -1.2332 H   0  0  0  0  0  0  0  0  0  0  0  0
    0.9027    5.9721    0.2924 H   0  0  0  0  0  0  0  0  0  0  0  0
    2.7487    4.4735    0.9372 H   0  0  0  0  0  0  0  0  0  0  0  0
    0.5482    2.6573   -1.1922 H   0  0  0  0  0  0  0  0  0  0  0  0
    0.6225   -1.3373   -1.5431 H   0  0  0  0  0  0  0  0  0  0  0  0
   -0.8085   -0.3916   -1.6653 H   0  0  0  0  0  0  0  0  0  0  0  0
    0.8289    0.0739   -3.3547 H   0  0  0  0  0  0  0  0  0  0  0  0
    0.4679    1.4539   -2.4929 H   0  0  0  0  0  0  0  0  0  0  0  0
    2.5820    1.3243   -4.3257 H   0  0  0  0  0  0  0  0  0  0  0  0
    2.8047    3.6855   -2.3900 H   0  0  0  0  0  0  0  0  0  0  0  0
    2.6965    3.7417   -4.1206 H   0  0  0  0  0  0  0  0  0  0  0  0
    1.3185    3.1908   -3.1928 H   0  0  0  0  0  0  0  0  0  0  0  0
    4.8631    0.7335   -3.6578 H   0  0  0  0  0  0  0  0  0  0  0  0
    4.8141    2.4040   -4.2698 H   0  0  0  0  0  0  0  0  0  0  0  0
    4.9489    2.1284   -2.5592 H   0  0  0  0  0  0  0  0  0  0  0  0
    4.4005    0.7515   -1.2906 H   0  0  0  0  0  0  0  0  0  0  0  0
    2.1097    2.1854   -0.1766 H   0  0  0  0  0  0  0  0  0  0  0  0
    3.4859    2.0854    0.7703 H   0  0  0  0  0  0  0  0  0  0  0  0
    3.5382    2.9400   -0.7738 H   0  0  0  0  0  0  0  0  0  0  0  0
    3.8771   -1.2648   -0.3755 H   0  0  0  0  0  0  0  0  0  0  0  0
    3.2300   -0.1737    0.8919 H   0  0  0  0  0  0  0  0  0  0  0  0
    2.2723   -0.9192   -0.3994 H   0  0  0  0  0  0  0  0  0  0  0  0
  1  2  1  0  0  0  0
  1  8  1  0  0  0  0
  1 17  1  0  0  0  0
  1 26  1  1  0  0  0
  2  3  1  0  0  0  0
  2  7  2  0  0  0  0
  3  4  2  0  0  0  0
  3 27  1  0  0  0  0
  4  5  1  0  0  0  0
  4 28  1  0  0  0  0
  5 29  1  0  0  0  0
  6  5  2  0  0  0  0
  6 30  1  0  0  0  0
  7  6  1  0  0  0  0
  7 31  1  0  0  0  0
  8  9  1  0  0  0  0
  8 16  2  0  0  0  0
  9 10  1  0  0  0  0
  9 11  2  0  0  0  0
 10 32  1  0  0  0  0
 11 12  1  0  0  0  0
 11 33  1  0  0  0  0
 12 34  1  0  0  0  0
 13 12  2  0  0  0  0
 13 14  1  0  0  0  0
 14 15  1  0  0  0  0
 14 35  1  0  0  0  0
 14 36  1  0  0  0  0
 15 37  1  0  0  0  0
 16 13  1  0  0  0  0
 16 38  1  0  0  0  0
 17 18  1  0  0  0  0
 17 39  1  0  0  0  0
 17 40  1  0  0  0  0
 18 19  1  0  0  0  0
 18 41  1  0  0  0  0
 18 42  1  0  0  0  0
 19 20  1  0  0  0  0
 19 23  1  0  0  0  0
 20 21  1  0  0  0  0
 20 22  1  0  0  0  0
 20 43  1  0  0  0  0
 21 44  1  0  0  0  0
 21 45  1  0  0  0  0
 21 46  1  0  0  0  0
 22 47  1  0  0  0  0
 22 48  1  0  0  0  0
 22 49  1  0  0  0  0
 23 24  1  0  0  0  0
 23 25  1  0  0  0  0
 23 50  1  0  0  0  0
 24 51  1  0  0  0  0
 24 52  1  0  0  0  0
 24 53  1  0  0  0  0
 25 54  1  0  0  0  0
 25 55  1  0  0  0  0
 25 56  1  0  0  0  0
M  END
>  <DRUGBANK_ID>
DB15578

>  <COMMON_NAME>
Desfesoterodine

>  <CAS_NUMBER>
207679-81-0

>  <UNII>
YU871O78GR

>  <SYNONYMS>
5-Hydroxymethyltolterodine; Desfesoterodine

$$$$
