
 OpenBabel10282417173D

 56 59  0  0  0  0  0  0  0  0999 V2000
   -3.3125   -1.3169    3.8174 C   0  0  0  0  0  0  0  0  0  0  0  0
   -3.0684   -2.9680    3.7034 C   0  0  2  0  0  0  0  0  0  0  0  0
   -2.8429   -3.2177    5.1979 C   0  0  2  0  0  0  0  0  0  0  0  0
   -4.3206   -3.7256    3.1822 C   0  0  1  0  0  0  0  0  0  0  0  0
   -1.9291   -3.3570    2.7646 C   0  0  0  0  0  0  0  0  0  0  0  0
   -1.3700   -2.1802    5.4402 C   0  0  1  0  0  0  0  0  0  0  0  0
   -4.5709   -3.3491    5.4627 C   0  0  0  0  0  0  0  0  0  0  0  0
   -4.9903   -4.9526    2.6011 C   0  0  0  0  0  0  0  0  0  0  0  0
   -5.3892   -3.1562    4.0583 C   0  0  1  0  0  0  0  0  0  0  0  0
   -0.6942   -2.5329    2.9220 C   0  0  1  0  0  0  0  0  0  0  0  0
   -0.1844   -2.5392    4.3229 C   0  0  2  0  0  0  0  0  0  0  0  0
   -0.6061   -2.4086    6.7421 C   0  0  0  0  0  0  0  0  0  0  0  0
   -5.2463   -6.1554    3.4553 C   0  0  0  0  0  0  0  0  0  0  0  0
   -5.6138   -4.8192    1.5341 O   0  0  0  0  0  0  0  0  0  0  0  0
   -5.8274   -2.0583    3.0611 C   0  0  0  0  0  0  0  0  0  0  0  0
    0.2918   -3.0616    2.0531 O   0  0  0  0  0  0  0  0  0  0  0  0
    1.2268   -1.6618    4.3441 C   0  0  2  0  0  0  0  0  0  0  0  0
    0.9541   -1.9499    6.7435 C   0  0  1  0  0  0  0  0  0  0  0  0
   -6.5556   -6.1671    4.0049 O   0  0  0  0  0  0  0  0  0  0  0  0
    0.7546   -0.1563    4.2213 C   0  0  0  0  0  0  0  0  0  0  0  0
    1.9863   -2.4842    5.4832 C   0  0  0  0  0  0  0  0  0  0  0  0
    2.3564   -1.4628    3.3049 C   0  0  0  0  0  0  0  0  0  0  0  0
    0.8023   -0.5695    6.5393 F   0  0  0  0  0  0  0  0  0  0  0  0
    3.1826   -3.2201    5.0160 C   0  0  0  0  0  0  0  0  0  0  0  0
    3.6722   -1.4752    3.6388 C   0  0  0  0  0  0  0  0  0  0  0  0
    3.6901   -2.9256    3.5799 C   0  0  0  0  0  0  0  0  0  0  0  0
    3.9069   -3.6321    2.5598 O   0  0  0  0  0  0  0  0  0  0  0  0
   -1.6366   -1.1213    5.3556 H   0  0  0  0  0  0  0  0  0  0  0  0
    0.0635   -3.5829    4.5843 H   0  0  0  0  0  0  0  0  0  0  0  0
   -2.4675   -4.1805    5.5633 H   0  0  0  0  0  0  0  0  0  0  0  0
   -4.2033   -0.8067    3.4891 H   0  0  0  0  0  0  0  0  0  0  0  0
   -2.5503   -0.7245    3.3268 H   0  0  0  0  0  0  0  0  0  0  0  0
   -3.4466   -1.0198    4.8741 H   0  0  0  0  0  0  0  0  0  0  0  0
   -4.1763   -3.3350    2.1693 H   0  0  0  0  0  0  0  0  0  0  0  0
   -1.7628   -4.4425    2.8189 H   0  0  0  0  0  0  0  0  0  0  0  0
   -2.1859   -3.1931    1.7111 H   0  0  0  0  0  0  0  0  0  0  0  0
   -5.2670   -3.2206    6.3260 H   0  0  0  0  0  0  0  0  0  0  0  0
   -4.5887   -4.4654    5.6452 H   0  0  0  0  0  0  0  0  0  0  0  0
   -6.3670   -3.6201    4.2286 H   0  0  0  0  0  0  0  0  0  0  0  0
   -0.9108   -1.5182    2.5844 H   0  0  0  0  0  0  0  0  0  0  0  0
   -0.6650   -2.3450    7.8438 H   0  0  0  0  0  0  0  0  0  0  0  0
   -1.5214   -2.8600    7.1587 H   0  0  0  0  0  0  0  0  0  0  0  0
   -5.1459   -7.0181    2.7951 H   0  0  0  0  0  0  0  0  0  0  0  0
   -4.5065   -6.2036    4.2502 H   0  0  0  0  0  0  0  0  0  0  0  0
   -6.4854   -2.4956    2.2989 H   0  0  0  0  0  0  0  0  0  0  0  0
   -6.2636   -1.1863    3.5213 H   0  0  0  0  0  0  0  0  0  0  0  0
   -5.0442   -1.7455    2.3436 H   0  0  0  0  0  0  0  0  0  0  0  0
    0.9960   -3.4734    2.5882 H   0  0  0  0  0  0  0  0  0  0  0  0
    1.3618   -1.8712    7.7538 H   0  0  0  0  0  0  0  0  0  0  0  0
   -6.6873   -5.3752    4.5496 H   0  0  0  0  0  0  0  0  0  0  0  0
   -0.3291   -0.0416    4.2831 H   0  0  0  0  0  0  0  0  0  0  0  0
    1.2092    0.5648    4.9037 H   0  0  0  0  0  0  0  0  0  0  0  0
    0.9576    0.2391    3.2115 H   0  0  0  0  0  0  0  0  0  0  0  0
    2.1193   -1.7291    2.2856 H   0  0  0  0  0  0  0  0  0  0  0  0
    4.2130   -3.4842    5.3925 H   0  0  0  0  0  0  0  0  0  0  0  0
    4.0227   -1.2358    4.6774 H   0  0  0  0  0  0  0  0  0  0  0  0
  1 31  1  0  0  0  0
  1 32  1  0  0  0  0
  1 33  1  0  0  0  0
  2  4  1  0  0  0  0
  2  5  1  0  0  0  0
  2  1  1  1  0  0  0
  3  2  1  0  0  0  0
  3  7  1  0  0  0  0
  3 30  1  6  0  0  0
  4  9  1  0  0  0  0
  4  8  1  0  0  0  0
  4 34  1  6  0  0  0
  5 35  1  0  0  0  0
  5 36  1  0  0  0  0
  6  3  1  0  0  0  0
  6 12  1  0  0  0  0
  6 28  1  1  0  0  0
  7 37  1  0  0  0  0
  7 38  1  0  0  0  0
  8 13  1  0  0  0  0
  8 14  2  0  0  0  0
  9  7  1  0  0  0  0
  9 39  1  1  0  0  0
  9 15  1  0  0  0  0
 10  5  1  0  0  0  0
 10 16  1  0  0  0  0
 10 40  1  6  0  0  0
 11  6  1  0  0  0  0
 11 10  1  0  0  0  0
 11 17  1  0  0  0  0
 11 29  1  6  0  0  0
 12 41  1  0  0  0  0
 12 42  1  0  0  0  0
 13 19  1  0  0  0  0
 13 43  1  0  0  0  0
 13 44  1  0  0  0  0
 15 45  1  0  0  0  0
 15 46  1  0  0  0  0
 15 47  1  0  0  0  0
 16 48  1  0  0  0  0
 17 21  1  0  0  0  0
 17 22  1  0  0  0  0
 17 20  1  6  0  0  0
 18 12  1  0  0  0  0
 18 21  1  0  0  0  0
 18 49  1  1  0  0  0
 18 23  1  0  0  0  0
 19 50  1  0  0  0  0
 20 51  1  0  0  0  0
 20 52  1  0  0  0  0
 20 53  1  0  0  0  0
 21 24  2  0  0  0  0
 22 25  2  0  0  0  0
 22 54  1  0  0  0  0
 24 26  1  0  0  0  0
 24 55  1  0  0  0  0
 25 26  1  0  0  0  0
 25 56  1  0  0  0  0
 26 27  2  0  0  0  0
M  END
>  <DRUGBANK_ID>
DB08971

>  <COMMON_NAME>
Fluocortolone

>  <CAS_NUMBER>
152-97-6

>  <UNII>
65VXC1MH0J

>  <SYNONYMS>
Fluocortolona; Fluocortolone

$$$$
