
 OpenBabel10282417183D

 53 54  0  0  0  0  0  0  0  0999 V2000
   -1.5289    1.1336    0.0609 C   0  0  2  0  0  0  0  0  0  0  0  0
    0.1645    1.3139   -0.1492 C   0  0  0  0  0  0  0  0  0  0  0  0
   -1.9609   -0.3833   -0.0326 C   0  0  0  0  0  0  0  0  0  0  0  0
   -2.5616    1.9587   -0.8412 C   0  0  0  0  0  0  0  0  0  0  0  0
    0.9517    0.2059   -0.0215 C   0  0  0  0  0  0  0  0  0  0  0  0
    1.0228    2.5116   -0.5069 C   0  0  0  0  0  0  0  0  0  0  0  0
   -0.9523   -1.2725    0.1201 C   0  0  0  0  0  0  0  0  0  0  0  0
   -3.4691   -0.6365   -0.2986 C   0  0  0  0  0  0  0  0  0  0  0  0
   -2.6174    1.7157   -2.2534 C   0  0  0  0  0  0  0  0  0  0  0  0
   -3.2937    3.0951   -0.3153 C   0  0  0  0  0  0  0  0  0  0  0  0
    0.3578   -0.9766    0.2942 N   0  0  0  0  0  0  0  0  0  0  0  0
    2.4800   -0.0100   -0.1105 C   0  0  0  0  0  0  0  0  0  0  0  0
    0.7977    3.7553    0.0071 O   0  0  0  0  0  0  0  0  0  0  0  0
    1.9892    2.4042   -1.3196 O   0  0  0  0  0  0  0  0  0  0  0  0
   -1.1372   -2.7152    0.1633 C   0  0  0  0  0  0  0  0  0  0  0  0
   -4.0311   -1.7433   -0.8577 O   0  0  0  0  0  0  0  0  0  0  0  0
   -4.2801    0.2589   -0.0670 O   0  0  0  0  0  0  0  0  0  0  0  0
   -3.0930    2.7248   -3.1236 C   0  0  0  0  0  0  0  0  0  0  0  0
   -1.6331    0.4772   -3.0043 Cl  0  0  0  0  0  0  0  0  0  0  0  0
   -3.7538    4.1102   -1.2061 C   0  0  0  0  0  0  0  0  0  0  0  0
    2.9973   -0.4686    1.1547 O   0  0  0  0  0  0  0  0  0  0  0  0
   -0.5160    4.1113   -0.2389 C   0  0  0  0  0  0  0  0  0  0  0  0
   -3.5485   -3.0720   -1.0520 C   0  0  0  0  0  0  0  0  0  0  0  0
   -3.6136    3.9379   -2.6082 C   0  0  0  0  0  0  0  0  0  0  0  0
    2.6276    0.3375    2.2851 C   0  0  0  0  0  0  0  0  0  0  0  0
   -0.7052    3.7368   -1.6843 C   0  0  0  0  0  0  0  0  0  0  0  0
    3.2527    1.7454    2.3201 C   0  0  0  0  0  0  0  0  0  0  0  0
    2.8057    2.6347    1.2870 N   0  0  0  0  0  0  0  0  0  0  0  0
   -1.6878    1.4221    1.1200 H   0  0  0  0  0  0  0  0  0  0  0  0
   -3.2388    3.3574    0.7490 H   0  0  0  0  0  0  0  0  0  0  0  0
    1.0096   -1.7613    0.3764 H   0  0  0  0  0  0  0  0  0  0  0  0
    2.6626   -0.8283   -0.8260 H   0  0  0  0  0  0  0  0  0  0  0  0
    3.1347    0.7599   -0.5000 H   0  0  0  0  0  0  0  0  0  0  0  0
   -0.9105   -3.1462   -0.8199 H   0  0  0  0  0  0  0  0  0  0  0  0
   -0.6526   -3.2876    0.9468 H   0  0  0  0  0  0  0  0  0  0  0  0
   -2.1315   -2.7141    0.5315 H   0  0  0  0  0  0  0  0  0  0  0  0
   -2.7003    2.7193   -4.1471 H   0  0  0  0  0  0  0  0  0  0  0  0
   -3.8423    5.1381   -0.8217 H   0  0  0  0  0  0  0  0  0  0  0  0
   -1.0737    3.6056    0.5599 H   0  0  0  0  0  0  0  0  0  0  0  0
   -0.8186    5.1579   -0.1264 H   0  0  0  0  0  0  0  0  0  0  0  0
   -2.6851   -3.0267   -1.7132 H   0  0  0  0  0  0  0  0  0  0  0  0
   -3.4336   -3.5530   -0.0774 H   0  0  0  0  0  0  0  0  0  0  0  0
   -4.2808   -3.7344   -1.5076 H   0  0  0  0  0  0  0  0  0  0  0  0
   -3.5318    4.8318   -3.2425 H   0  0  0  0  0  0  0  0  0  0  0  0
    1.5368    0.3681    2.3996 H   0  0  0  0  0  0  0  0  0  0  0  0
    2.9856   -0.1994    3.1702 H   0  0  0  0  0  0  0  0  0  0  0  0
   -0.5251    2.6855   -1.9168 H   0  0  0  0  0  0  0  0  0  0  0  0
   -1.7090    3.9278   -1.7921 H   0  0  0  0  0  0  0  0  0  0  0  0
   -0.2782    4.2715   -2.5127 H   0  0  0  0  0  0  0  0  0  0  0  0
    2.9766    2.2211    3.2626 H   0  0  0  0  0  0  0  0  0  0  0  0
    4.3347    1.6710    2.2304 H   0  0  0  0  0  0  0  0  0  0  0  0
    3.1626    3.5836    1.3189 H   0  0  0  0  0  0  0  0  0  0  0  0
    3.1088    2.3161    0.3655 H   0  0  0  0  0  0  0  0  0  0  0  0
  1  2  1  0  0  0  0
  1  3  1  0  0  0  0
  1 29  1  1  0  0  0
  1  4  1  0  0  0  0
  2  5  2  0  0  0  0
  2  6  1  0  0  0  0
  3  7  2  0  0  0  0
  3  8  1  0  0  0  0
  4  9  1  0  0  0  0
  4 10  2  0  0  0  0
  5 11  1  0  0  0  0
  5 12  1  0  0  0  0
  6 13  1  0  0  0  0
  6 14  2  0  0  0  0
  7 15  1  0  0  0  0
  7 11  1  0  0  0  0
  8 16  1  0  0  0  0
  8 17  2  0  0  0  0
  9 18  2  0  0  0  0
  9 19  1  0  0  0  0
 10 20  1  0  0  0  0
 10 30  1  0  0  0  0
 11 31  1  0  0  0  0
 12 21  1  0  0  0  0
 12 32  1  0  0  0  0
 12 33  1  0  0  0  0
 13 22  1  0  0  0  0
 15 34  1  0  0  0  0
 15 35  1  0  0  0  0
 15 36  1  0  0  0  0
 16 23  1  0  0  0  0
 18 24  1  0  0  0  0
 18 37  1  0  0  0  0
 20 24  2  0  0  0  0
 20 38  1  0  0  0  0
 21 25  1  0  0  0  0
 22 26  1  0  0  0  0
 22 39  1  0  0  0  0
 22 40  1  0  0  0  0
 23 41  1  0  0  0  0
 23 42  1  0  0  0  0
 23 43  1  0  0  0  0
 24 44  1  0  0  0  0
 25 27  1  0  0  0  0
 25 45  1  0  0  0  0
 25 46  1  0  0  0  0
 26 47  1  0  0  0  0
 26 48  1  0  0  0  0
 26 49  1  0  0  0  0
 27 28  1  0  0  0  0
 27 50  1  0  0  0  0
 27 51  1  0  0  0  0
 28 52  1  0  0  0  0
 28 53  1  0  0  0  0
M  END
>  <DRUGBANK_ID>
DB09237

>  <COMMON_NAME>
Levamlodipine

>  <CAS_NUMBER>
103129-82-4

>  <UNII>
0P6NLP6806

>  <SYNONYMS>
Levamlodipine; Levoamlodipine; S-amlodipine

$$$$
