
 OpenBabel10282417123D

 10  6  0  0  0  0  0  0  0  0999 V2000
    0.8288   -1.9987   -0.7123 Zn  0  0  0  0  0  0  0  0  0  0  0  0
    0.0669   -0.6645    0.7240 O   0  0  0  0  0  0  0  0  0  0  0  0
    2.4122   -0.7011   -0.6906 O   0  0  0  0  0  0  0  0  0  0  0  0
    0.9500    1.1872   -0.9210 O   0  0  0  0  0  0  0  0  0  0  0  0
   -0.6975   -0.0152    0.7160 H   0  0  0  0  0  0  0  0  0  0  0  0
    0.4337   -0.3762    1.6058 H   0  0  0  0  0  0  0  0  0  0  0  0
    2.2882    0.0549   -1.3478 H   0  0  0  0  0  0  0  0  0  0  0  0
    3.0967   -0.2082   -0.1545 H   0  0  0  0  0  0  0  0  0  0  0  0
    0.8973    0.7321   -0.0443 H   0  0  0  0  0  0  0  0  0  0  0  0
    1.4081    1.9983   -0.6653 H   0  0  0  0  0  0  0  0  0  0  0  0
  2  5  1  0  0  0  0
  2  6  1  0  0  0  0
  3  7  1  0  0  0  0
  3  8  1  0  0  0  0
  4  9  1  0  0  0  0
  4 10  1  0  0  0  0
M  END
>  <DRUGBANK_ID>
DB02165

>  <SECONDARY_ACCESSION_NUMBERS>
EXPT03289

>  <COMMON_NAME>
Zinc trihydroxide

$$$$
