
 OpenBabel10282417203D

 46 48  0  0  0  0  0  0  0  0999 V2000
    0.6795    0.0789   -0.1645 C   0  0  0  0  0  0  0  0  0  0  0  0
    0.5435    4.1635    2.0291 C   0  0  0  0  0  0  0  0  0  0  0  0
    0.2080    1.3939    0.4625 C   0  0  0  0  0  0  0  0  0  0  0  0
    0.3060    3.8559    0.5533 C   0  0  0  0  0  0  0  0  0  0  0  0
    5.5891    1.1800   -1.2223 C   0  0  0  0  0  0  0  0  0  0  0  0
    5.7896    0.0155   -1.8623 C   0  0  0  0  0  0  0  0  0  0  0  0
    3.0568    2.6492    1.4677 C   0  0  0  0  0  0  0  0  0  0  0  0
    4.8909    1.1759   -0.0095 C   0  0  0  0  0  0  0  0  0  0  0  0
    5.2368   -1.1390   -1.3131 C   0  0  0  0  0  0  0  0  0  0  0  0
    1.1487   -3.3096    3.2357 C   0  0  0  0  0  0  0  0  0  0  0  0
    2.0428   -3.4295    2.1830 C   0  0  0  0  0  0  0  0  0  0  0  0
    2.3541    2.6314    0.0706 C   0  0  0  0  0  0  0  0  0  0  0  0
    2.8643    1.4132    2.3047 C   0  0  0  0  0  0  0  0  0  0  0  0
    1.6112   -0.9340    3.2783 C   0  0  0  0  0  0  0  0  0  0  0  0
    0.9215   -2.0558    3.7682 C   0  0  0  0  0  0  0  0  0  0  0  0
    4.2151    0.0651    0.5786 C   0  0  0  0  0  0  0  0  0  0  0  0
    2.5659   -1.0229    2.2234 C   0  0  0  0  0  0  0  0  0  0  0  0
    4.4487   -1.1148   -0.1260 C   0  0  0  0  0  0  0  0  0  0  0  0
    2.7377   -2.3109    1.6774 C   0  0  0  0  0  0  0  0  0  0  0  0
   -0.2152   -1.8789    5.0518 Cl  0  0  0  0  0  0  0  0  0  0  0  0
    0.8878    2.6219    0.0209 N   0  0  0  0  0  0  0  0  0  0  0  0
    3.2937    0.1226    1.6918 N   0  0  0  0  0  0  0  0  0  0  0  0
    3.7786   -2.6929    0.3020 S   0  0  0  0  0  0  0  0  0  0  0  0
    0.3132   -0.0587   -1.1821 H   0  0  0  0  0  0  0  0  0  0  0  0
    0.3371   -0.7668    0.4435 H   0  0  0  0  0  0  0  0  0  0  0  0
    1.7577   -0.0055   -0.2300 H   0  0  0  0  0  0  0  0  0  0  0  0
    1.5184    4.6155    2.1995 H   0  0  0  0  0  0  0  0  0  0  0  0
   -0.1257    4.9417    2.3866 H   0  0  0  0  0  0  0  0  0  0  0  0
    0.4303    3.2779    2.6617 H   0  0  0  0  0  0  0  0  0  0  0  0
   -0.8646    1.4647    0.2499 H   0  0  0  0  0  0  0  0  0  0  0  0
    0.2480    1.2989    1.5456 H   0  0  0  0  0  0  0  0  0  0  0  0
    0.6978    4.6916   -0.0411 H   0  0  0  0  0  0  0  0  0  0  0  0
   -0.7721    3.8431    0.3738 H   0  0  0  0  0  0  0  0  0  0  0  0
    5.9242    2.1442   -1.6185 H   0  0  0  0  0  0  0  0  0  0  0  0
    6.3656   -0.0057   -2.7833 H   0  0  0  0  0  0  0  0  0  0  0  0
    4.1191    2.8556    1.5340 H   0  0  0  0  0  0  0  0  0  0  0  0
    2.8346    3.5566    1.9952 H   0  0  0  0  0  0  0  0  0  0  0  0
    4.8790    2.1893    0.2918 H   0  0  0  0  0  0  0  0  0  0  0  0
    5.3954   -2.0709   -1.8346 H   0  0  0  0  0  0  0  0  0  0  0  0
    0.6440   -4.1906    3.6201 H   0  0  0  0  0  0  0  0  0  0  0  0
    2.2043   -4.4122    1.7435 H   0  0  0  0  0  0  0  0  0  0  0  0
    2.6651    1.8072   -0.5748 H   0  0  0  0  0  0  0  0  0  0  0  0
    2.7167    3.4977   -0.5011 H   0  0  0  0  0  0  0  0  0  0  0  0
    3.3661    1.5391    3.2719 H   0  0  0  0  0  0  0  0  0  0  0  0
    1.8090    1.4315    2.5688 H   0  0  0  0  0  0  0  0  0  0  0  0
    1.3469    0.0027    3.7565 H   0  0  0  0  0  0  0  0  0  0  0  0
  1 24  1  0  0  0  0
  1 25  1  0  0  0  0
  1 26  1  0  0  0  0
  2 27  1  0  0  0  0
  2 28  1  0  0  0  0
  2 29  1  0  0  0  0
  3  1  1  0  0  0  0
  3 30  1  0  0  0  0
  3 31  1  0  0  0  0
  4  2  1  0  0  0  0
  4 32  1  0  0  0  0
  4 33  1  0  0  0  0
  5 34  1  0  0  0  0
  6  5  2  0  0  0  0
  6 35  1  0  0  0  0
  7 36  1  0  0  0  0
  7 37  1  0  0  0  0
  8  5  1  0  0  0  0
  8 38  1  0  0  0  0
  9  6  1  0  0  0  0
  9 39  1  0  0  0  0
 10 40  1  0  0  0  0
 11 10  2  0  0  0  0
 11 41  1  0  0  0  0
 12  7  1  0  0  0  0
 12 42  1  0  0  0  0
 12 43  1  0  0  0  0
 13  7  1  0  0  0  0
 13 44  1  0  0  0  0
 13 45  1  0  0  0  0
 14 46  1  0  0  0  0
 15 10  1  0  0  0  0
 15 14  2  0  0  0  0
 16  8  2  0  0  0  0
 17 14  1  0  0  0  0
 18  9  2  0  0  0  0
 18 16  1  0  0  0  0
 19 11  1  0  0  0  0
 19 17  2  0  0  0  0
 20 15  1  0  0  0  0
 21  3  1  0  0  0  0
 21  4  1  0  0  0  0
 21 12  1  0  0  0  0
 22 13  1  0  0  0  0
 22 16  1  0  0  0  0
 22 17  1  0  0  0  0
 23 18  1  0  0  0  0
 23 19  1  0  0  0  0
M  END
>  <DRUGBANK_ID>
DB13382

>  <COMMON_NAME>
Chlorproethazine

>  <CAS_NUMBER>
84-01-5

>  <UNII>
960NX27Z07

>  <SYNONYMS>
Chlorproethazine

$$$$
