
 OpenBabel10282417113D

 50 55  0  0  1  0  0  0  0  0999 V2000
    2.1697    1.5333    0.0567 C   0  0  0  0  0  0  0  0  0  0  0  0
    2.9290    0.3898   -0.0039 C   0  0  0  0  0  0  0  0  0  0  0  0
    2.3585   -0.9411    0.0105 C   0  0  0  0  0  0  0  0  0  0  0  0
    0.9405   -1.1188    0.0562 C   0  0  0  0  0  0  0  0  0  0  0  0
    0.2733    0.0425    0.0170 C   0  0  0  0  0  0  0  0  0  0  0  0
    0.7813    1.3579    0.0915 C   0  0  0  0  0  0  0  0  0  0  0  0
    0.0310   -2.3080    0.2003 N   0  0  0  0  0  0  0  0  0  0  0  0
   -1.3581   -1.8767   -0.4852 C   0  0  2  0  0  0  0  0  0  0  0  0
   -1.1440   -0.2707   -0.2575 C   0  0  1  0  0  0  0  0  0  0  0  0
   -3.2844   -2.0953   -0.5390 C   0  0  1  0  0  0  0  0  0  0  0  0
   -4.3008   -1.0923    0.0453 N   0  0  3  0  0  0  0  0  0  0  0  0
   -3.2643    0.3630    0.2853 C   0  0  1  0  0  0  0  0  0  0  0  0
   -1.9580    0.0720    0.9553 C   0  0  0  0  0  0  0  0  0  0  0  0
   -3.5670   -1.2765   -1.7859 C   0  0  0  0  0  0  0  0  0  0  0  0
   -4.0382    0.3711   -1.7310 C   0  0  1  0  0  0  0  0  0  0  0  0
   -5.3754    0.7235   -0.6978 C   0  0  1  0  0  0  0  0  0  0  0  0
   -5.7961   -0.6616   -0.8325 C   0  0  1  0  0  0  0  0  0  0  0  0
   -4.1696    0.5947   -2.7903 H   0  0  0  0  0  0  0  0  0  0  0  0
   -5.6653    0.7776    1.0967 C   0  0  0  0  0  0  0  0  0  0  0  0
   -2.9228    1.0462   -1.0550 C   0  0  3  0  0  0  0  0  0  0  0  0
   -6.1721   -0.8147   -2.2303 O   0  0  0  0  0  0  0  0  0  0  0  0
   -1.5700    0.5230   -1.5089 C   0  0  1  0  0  0  0  0  0  0  0  0
   -3.6907    1.1850    0.8746 H   0  0  0  0  0  0  0  0  0  0  0  0
   -3.6879   -3.0691   -0.9009 H   0  0  0  0  0  0  0  0  0  0  0  0
   -1.1782   -2.2680   -1.4968 H   0  0  0  0  0  0  0  0  0  0  0  0
    0.8370   -3.4972   -0.0579 C   0  0  0  0  0  0  0  0  0  0  0  0
   -0.8153    1.5620   -2.0732 O   0  0  0  0  0  0  0  0  0  0  0  0
   -4.9688   -0.2280    2.2345 C   0  0  0  0  0  0  0  0  0  0  0  0
    2.5744    2.5412    0.0397 H   0  0  0  0  0  0  0  0  0  0  0  0
    4.0213    0.5340   -0.0461 H   0  0  0  0  0  0  0  0  0  0  0  0
    3.0602   -1.7483   -0.0360 H   0  0  0  0  0  0  0  0  0  0  0  0
    0.1416    2.2241    0.0816 H   0  0  0  0  0  0  0  0  0  0  0  0
   -1.6150    0.9589    1.5062 H   0  0  0  0  0  0  0  0  0  0  0  0
   -1.9954   -0.7340    1.7020 H   0  0  0  0  0  0  0  0  0  0  0  0
   -2.7314   -0.9353   -1.3343 H   0  0  0  0  0  0  0  0  0  0  0  0
   -2.9885   -1.5922   -2.6486 H   0  0  0  0  0  0  0  0  0  0  0  0
   -5.8378    1.6129   -1.1459 H   0  0  0  0  0  0  0  0  0  0  0  0
   -6.7824   -0.6780   -0.3292 H   0  0  0  0  0  0  0  0  0  0  0  0
   -5.5028    1.8107    1.4173 H   0  0  0  0  0  0  0  0  0  0  0  0
   -6.7391    0.5843    1.2331 H   0  0  0  0  0  0  0  0  0  0  0  0
   -3.0098    2.1324   -1.0842 H   0  0  0  0  0  0  0  0  0  0  0  0
   -5.4631   -0.9469   -2.8880 H   0  0  0  0  0  0  0  0  0  0  0  0
   -1.5716   -0.1924   -2.3462 H   0  0  0  0  0  0  0  0  0  0  0  0
    1.4637   -3.4700   -0.9685 H   0  0  0  0  0  0  0  0  0  0  0  0
    1.5535   -3.5867    0.7778 H   0  0  0  0  0  0  0  0  0  0  0  0
    0.2508   -4.4139   -0.0633 H   0  0  0  0  0  0  0  0  0  0  0  0
   -0.3390    1.1404   -2.8144 H   0  0  0  0  0  0  0  0  0  0  0  0
   -3.8975   -0.4082    2.1611 H   0  0  0  0  0  0  0  0  0  0  0  0
   -4.9682    0.1919    3.2399 H   0  0  0  0  0  0  0  0  0  0  0  0
   -5.3477   -1.2618    2.2134 H   0  0  0  0  0  0  0  0  0  0  0  0
  1  2  2  0  0  0  0
  1  6  1  0  0  0  0
  1 29  1  0  0  0  0
  2  3  1  0  0  0  0
  2 30  1  0  0  0  0
  3  4  2  0  0  0  0
  3 31  1  0  0  0  0
  4  5  1  0  0  0  0
  4  7  1  0  0  0  0
  5  6  2  0  0  0  0
  6 32  1  0  0  0  0
  7  8  1  0  0  0  0
  7 26  1  0  0  0  0
  8  9  1  0  0  0  0
  8 10  1  0  0  0  0
  8 25  1  6  0  0  0
  9  5  1  1  0  0  0
  9 13  1  0  0  0  0
  9 22  1  0  0  0  0
 10 11  1  0  0  0  0
 10 14  1  0  0  0  0
 10 24  1  6  0  0  0
 11 12  1  0  0  0  0
 11 17  1  0  0  0  0
 12 13  1  0  0  0  0
 12 20  1  0  0  0  0
 12 23  1  1  0  0  0
 13 33  1  0  0  0  0
 13 34  1  0  0  0  0
 14 15  1  0  0  0  0
 14 35  1  0  0  0  0
 14 36  1  0  0  0  0
 15 16  1  0  0  0  0
 15 18  1  6  0  0  0
 15 20  1  0  0  0  0
 16 17  1  0  0  0  0
 16 37  1  6  0  0  0
 16 19  1  0  0  0  0
 17 21  1  0  0  0  0
 17 38  1  1  0  0  0
 19 28  1  0  0  0  0
 19 39  1  0  0  0  0
 19 40  1  0  0  0  0
 20 41  1  0  0  0  0
 21 42  1  0  0  0  0
 22 20  1  0  0  0  0
 22 43  1  6  0  0  0
 22 27  1  0  0  0  0
 26 44  1  0  0  0  0
 26 45  1  0  0  0  0
 26 46  1  0  0  0  0
 27 47  1  0  0  0  0
 28 48  1  0  0  0  0
 28 49  1  0  0  0  0
 28 50  1  0  0  0  0
M  END
>  <DRUGBANK_ID>
DB01426

>  <COMMON_NAME>
Ajmaline

>  <CAS_NUMBER>
4360-12-7

>  <UNII>
1PON08459R

>  <SYNONYMS>
(+)-Ajmaline; (5aR,6S,8S,10S,11S,11aS,12aR,13R)-5-methyl-5a,6,8,9,10,11,11a,12-octahydro-5H-6,10:11,12a-dimethanoindolo[3,2-b]quinolizine-8,13-diol; Ajmalin; Ajmaline

$$$$
