896
 OpenBabel10282417163D

 55 56  0  0  0  0  0  0  0  0999 V2000
   -0.1694   -5.3027   -2.8219 O   0  0  0  0  0  0  0  0  0  0  0  0
   -0.3617   -4.3186   -3.5132 C   0  0  0  0  0  0  0  0  0  0  0  0
   -0.7126   -4.4863   -4.8727 N   0  0  0  0  0  0  0  0  0  0  0  0
   -0.8466   -5.8390   -5.4546 C   0  0  0  0  0  0  0  0  0  0  0  0
   -2.2412   -6.0928   -6.0276 C   0  0  0  0  0  0  0  0  0  0  0  0
   -0.9388   -3.3809   -5.7842 C   0  0  0  0  0  0  0  0  0  0  0  0
   -2.2740   -2.6771   -5.3819 C   0  0  0  0  0  0  0  0  0  0  0  0
    0.4017   -2.6192   -6.0075 C   0  0  0  0  0  0  0  0  0  0  0  0
   -0.2185   -2.9179   -2.8638 C   0  0  0  0  0  0  0  0  0  0  0  0
    0.1811   -2.8216   -1.5543 C   0  0  0  0  0  0  0  0  0  0  0  0
    0.2487   -1.6492   -0.8064 C   0  0  0  0  0  0  0  0  0  0  0  0
    0.0610   -0.4251   -1.4518 C   0  0  0  0  0  0  0  0  0  0  0  0
   -0.2668   -0.4391   -2.7935 C   0  0  0  0  0  0  0  0  0  0  0  0
   -0.5122    0.7287   -3.6994 C   0  0  0  0  0  0  0  0  0  0  0  0
   -0.4209   -1.6721   -3.4165 C   0  0  0  0  0  0  0  0  0  0  0  0
    0.4082   -1.6783    0.5468 O   0  0  0  0  0  0  0  0  0  0  0  0
    0.9785   -2.8371    1.1999 C   0  0  0  0  0  0  0  0  0  0  0  0
    0.2489   -4.2337    1.3012 C   0  0  2  0  0  0  0  0  0  0  0  0
    0.6755   -5.2895    0.2561 C   0  0  0  0  0  0  0  0  0  0  0  0
   -1.2124   -4.0890    1.3628 N   0  0  0  0  0  0  0  0  0  0  0  0
   -1.9102   -4.7808    2.3498 C   0  0  0  0  0  0  0  0  0  0  0  0
   -1.5630   -4.6316    3.6921 C   0  0  0  0  0  0  0  0  0  0  0  0
   -2.2576   -5.3386    4.6589 C   0  0  0  0  0  0  0  0  0  0  0  0
   -3.2486   -6.2083    4.3831 N   0  0  0  0  0  0  0  0  0  0  0  0
   -3.5578   -6.3628    3.0777 C   0  0  0  0  0  0  0  0  0  0  0  0
   -2.9317   -5.6782    2.0410 C   0  0  0  0  0  0  0  0  0  0  0  0
    0.6332   -4.6720    2.2299 H   0  0  0  0  0  0  0  0  0  0  0  0
   -0.1026   -5.9251   -6.2577 H   0  0  0  0  0  0  0  0  0  0  0  0
   -0.6173   -6.6195   -4.7230 H   0  0  0  0  0  0  0  0  0  0  0  0
   -2.4967   -5.3801   -6.8187 H   0  0  0  0  0  0  0  0  0  0  0  0
   -2.3091   -7.0908   -6.4706 H   0  0  0  0  0  0  0  0  0  0  0  0
   -3.0009   -6.0015   -5.2460 H   0  0  0  0  0  0  0  0  0  0  0  0
   -1.1451   -3.7734   -6.7828 H   0  0  0  0  0  0  0  0  0  0  0  0
   -2.4075   -2.4862   -4.3078 H   0  0  0  0  0  0  0  0  0  0  0  0
   -2.4043   -1.7289   -5.9061 H   0  0  0  0  0  0  0  0  0  0  0  0
   -3.1337   -3.3268   -5.5679 H   0  0  0  0  0  0  0  0  0  0  0  0
    1.1084   -3.2428   -6.5633 H   0  0  0  0  0  0  0  0  0  0  0  0
    0.2426   -1.6758   -6.5328 H   0  0  0  0  0  0  0  0  0  0  0  0
    0.9903   -2.4037   -5.1072 H   0  0  0  0  0  0  0  0  0  0  0  0
    0.4945   -3.7107   -1.1050 H   0  0  0  0  0  0  0  0  0  0  0  0
    0.1788    0.5202   -0.9347 H   0  0  0  0  0  0  0  0  0  0  0  0
    0.1708    0.6738   -4.5609 H   0  0  0  0  0  0  0  0  0  0  0  0
   -1.5340    0.6668   -4.1017 H   0  0  0  0  0  0  0  0  0  0  0  0
   -0.3784    1.6804   -3.1962 H   0  0  0  0  0  0  0  0  0  0  0  0
   -0.6921   -1.5237   -4.4348 H   0  0  0  0  0  0  0  0  0  0  0  0
    2.0066   -2.9747    0.8481 H   0  0  0  0  0  0  0  0  0  0  0  0
    1.0678   -2.4970    2.2404 H   0  0  0  0  0  0  0  0  0  0  0  0
   -0.0295   -5.3420   -0.5747 H   0  0  0  0  0  0  0  0  0  0  0  0
    1.6908   -5.0853   -0.1173 H   0  0  0  0  0  0  0  0  0  0  0  0
    0.6620   -6.3140    0.6271 H   0  0  0  0  0  0  0  0  0  0  0  0
   -1.6907   -3.9440    0.4774 H   0  0  0  0  0  0  0  0  0  0  0  0
   -0.7819   -3.9409    3.9862 H   0  0  0  0  0  0  0  0  0  0  0  0
   -2.0241   -5.2108    5.7112 H   0  0  0  0  0  0  0  0  0  0  0  0
   -4.3469   -7.0832    2.8794 H   0  0  0  0  0  0  0  0  0  0  0  0
   -3.2335   -5.8688    1.0175 H   0  0  0  0  0  0  0  0  0  0  0  0
  1  2  2  0  0  0  0
  2  3  1  0  0  0  0
  2  9  1  0  0  0  0
  3  4  1  0  0  0  0
  3  6  1  0  0  0  0
  4  5  1  0  0  0  0
  4 28  1  0  0  0  0
  4 29  1  0  0  0  0
  5 30  1  0  0  0  0
  5 31  1  0  0  0  0
  5 32  1  0  0  0  0
  6  7  1  0  0  0  0
  6  8  1  0  0  0  0
  6 33  1  0  0  0  0
  7 34  1  0  0  0  0
  7 35  1  0  0  0  0
  7 36  1  0  0  0  0
  8 37  1  0  0  0  0
  8 38  1  0  0  0  0
  8 39  1  0  0  0  0
  9 10  1  0  0  0  0
  9 15  2  0  0  0  0
 10 11  2  0  0  0  0
 10 40  1  0  0  0  0
 11 12  1  0  0  0  0
 11 16  1  0  0  0  0
 12 13  2  0  0  0  0
 12 41  1  0  0  0  0
 13 14  1  0  0  0  0
 13 15  1  0  0  0  0
 14 42  1  0  0  0  0
 14 43  1  0  0  0  0
 14 44  1  0  0  0  0
 15 45  1  0  0  0  0
 16 17  1  0  0  0  0
 17 46  1  0  0  0  0
 17 47  1  0  0  0  0
 18 20  1  0  0  0  0
 18 27  1  1  0  0  0
 18 19  1  0  0  0  0
 18 17  1  0  0  0  0
 19 48  1  0  0  0  0
 19 49  1  0  0  0  0
 19 50  1  0  0  0  0
 20 21  1  0  0  0  0
 20 51  1  0  0  0  0
 21 22  1  0  0  0  0
 21 26  2  0  0  0  0
 22 23  2  0  0  0  0
 22 52  1  0  0  0  0
 23 24  1  0  0  0  0
 23 53  1  0  0  0  0
 24 25  2  0  0  0  0
 25 26  1  0  0  0  0
 25 54  1  0  0  0  0
 26 55  1  0  0  0  0
M  END
>  <DRUGBANK_ID>
DB07279

>  <COMMON_NAME>
N-ETHYL-N-ISOPROPYL-3-METHYL-5-{[(2S)-2-(PYRIDIN-4-YLAMINO)PROPYL]OXY}BENZAMIDE

$$$$
