
 OpenBabel10282417183D

 31 32  0  0  0  0  0  0  0  0999 V2000
    1.1215   -0.1590    0.1022 N   0  0  0  0  0  0  0  0  0  0  0  0
    0.6462    0.9052   -0.7279 N   0  0  0  0  0  0  0  0  0  0  0  0
   -0.8251    0.9032   -0.7585 C   0  0  3  0  0  0  0  0  0  0  0  0
   -1.4496    1.2097    0.6450 C   0  0  0  0  0  0  0  0  0  0  0  0
   -1.0854    2.5504    1.3304 C   0  0  0  0  0  0  0  0  0  0  0  0
   -1.6234    3.8067    0.6748 C   0  0  0  0  0  0  0  0  0  0  0  0
   -1.0529    5.0636    0.9719 C   0  0  0  0  0  0  0  0  0  0  0  0
   -1.2903    6.1667    0.1380 C   0  0  0  0  0  0  0  0  0  0  0  0
   -2.0138    5.9694   -1.0140 C   0  0  0  0  0  0  0  0  0  0  0  0
   -2.6387    4.7696   -1.2467 C   0  0  0  0  0  0  0  0  0  0  0  0
   -2.5861    3.7482   -0.3336 C   0  0  0  0  0  0  0  0  0  0  0  0
   -3.1894    4.6923   -2.4875 O   0  0  0  0  0  0  0  0  0  0  0  0
   -3.0199    6.0507   -2.9311 C   0  0  0  0  0  0  0  0  0  0  0  0
   -2.2068    6.8444   -2.0354 O   0  0  0  0  0  0  0  0  0  0  0  0
   -1.1677    1.8496   -1.9089 C   0  0  0  0  0  0  0  0  0  0  0  0
    0.8169   -1.0615   -0.2751 H   0  0  0  0  0  0  0  0  0  0  0  0
    2.1431   -0.1951    0.0763 H   0  0  0  0  0  0  0  0  0  0  0  0
    0.9605    1.8283   -0.4084 H   0  0  0  0  0  0  0  0  0  0  0  0
   -1.1916   -0.0853   -1.0698 H   0  0  0  0  0  0  0  0  0  0  0  0
   -2.5403    1.1006    0.6031 H   0  0  0  0  0  0  0  0  0  0  0  0
   -1.1309    0.4090    1.3301 H   0  0  0  0  0  0  0  0  0  0  0  0
   -1.4267    2.5286    2.3725 H   0  0  0  0  0  0  0  0  0  0  0  0
    0.0109    2.6180    1.3750 H   0  0  0  0  0  0  0  0  0  0  0  0
   -0.3951    5.1688    1.8309 H   0  0  0  0  0  0  0  0  0  0  0  0
   -0.8624    7.1385    0.3652 H   0  0  0  0  0  0  0  0  0  0  0  0
   -3.1496    2.8422   -0.5326 H   0  0  0  0  0  0  0  0  0  0  0  0
   -2.5744    6.0711   -3.9345 H   0  0  0  0  0  0  0  0  0  0  0  0
   -4.0217    6.4878   -2.9873 H   0  0  0  0  0  0  0  0  0  0  0  0
   -0.7217    1.5523   -2.8623 H   0  0  0  0  0  0  0  0  0  0  0  0
   -2.2461    1.8771   -2.0889 H   0  0  0  0  0  0  0  0  0  0  0  0
   -0.7670    2.8499   -1.7189 H   0  0  0  0  0  0  0  0  0  0  0  0
  1  2  1  0  0  0  0
  1 16  1  0  0  0  0
  1 17  1  0  0  0  0
  2  3  1  0  0  0  0
  2 18  1  0  0  0  0
  3  4  1  0  0  0  0
  3 15  1  0  0  0  0
  3 19  1  0  0  0  0
  4  5  1  0  0  0  0
  4 20  1  0  0  0  0
  4 21  1  0  0  0  0
  5  6  1  0  0  0  0
  5 22  1  0  0  0  0
  5 23  1  0  0  0  0
  6  7  1  0  0  0  0
  6 11  2  0  0  0  0
  7  8  2  0  0  0  0
  7 24  1  0  0  0  0
  8  9  1  0  0  0  0
  8 25  1  0  0  0  0
  9 10  2  0  0  0  0
  9 14  1  0  0  0  0
 10 11  1  0  0  0  0
 10 12  1  0  0  0  0
 11 26  1  0  0  0  0
 12 13  1  0  0  0  0
 13 14  1  0  0  0  0
 13 27  1  0  0  0  0
 13 28  1  0  0  0  0
 15 29  1  0  0  0  0
 15 30  1  0  0  0  0
 15 31  1  0  0  0  0
M  END
>  <DRUGBANK_ID>
DB09253

>  <COMMON_NAME>
Safrazine

>  <CAS_NUMBER>
33419-68-0

>  <UNII>
F5G0P5378C

>  <SYNONYMS>
Safra

$$$$
