
 OpenBabel10282417153D

 67 69  0  0  1  0  0  0  0  0999 V2000
    0.8841   -1.1379    0.1385 F   0  0  0  0  0  0  0  0  0  0  0  0
    2.4651   -2.3966    1.0399 F   0  0  0  0  0  0  0  0  0  0  0  0
    2.9934   -1.3011   -0.5675 F   0  0  0  0  0  0  0  0  0  0  0  0
    7.1714    7.9557   -5.5231 O   0  0  0  0  0  0  0  0  0  0  0  0
    4.0311    4.4038   -3.1800 O   0  0  0  0  0  0  0  0  0  0  0  0
    2.4064    1.3361   -1.9707 O   0  0  0  0  0  0  0  0  0  0  0  0
    1.9862    1.8471    1.5435 O   0  0  0  0  0  0  0  0  0  0  0  0
    6.6342    5.4015   -3.1619 N   0  0  0  0  0  0  0  0  0  0  0  0
    4.3320    1.3523    1.0375 N   0  0  0  0  0  0  0  0  0  0  0  0
    2.8968    4.1267   -1.0807 N   0  0  0  0  0  0  0  0  0  0  0  0
    6.4454    4.4687   -2.1751 C   0  0  0  0  0  0  0  0  0  0  0  0
    8.0735    5.4545   -3.3549 C   0  0  0  0  0  0  0  0  0  0  0  0
    7.6203    3.8022   -1.8037 C   0  0  0  0  0  0  0  0  0  0  0  0
    8.7162    4.2510   -2.6804 C   0  0  0  0  0  0  0  0  0  0  0  0
    5.6722    6.2134   -3.9108 C   0  0  0  0  0  0  0  0  0  0  0  0
    6.6003    2.4980   -0.1273 C   0  0  0  0  0  0  0  0  0  0  0  0
    5.3391    4.0858   -1.5217 C   0  0  0  0  0  0  0  0  0  0  0  0
    7.7220    2.8276   -0.8110 C   0  0  0  0  0  0  0  0  0  0  0  0
    6.5960    1.5008    1.0050 C   0  0  0  0  0  0  0  0  0  0  0  0
    5.4756    3.1591   -0.5639 C   0  0  0  0  0  0  0  0  0  0  0  0
    5.4099    1.6605    1.9174 C   0  0  1  0  0  0  0  0  0  0  0  0
    5.7664    7.6847   -3.5895 C   0  0  0  0  0  0  0  0  0  0  0  0
    4.0134    4.2861   -1.9700 C   0  0  0  0  0  0  0  0  0  0  0  0
    5.2933    3.0902    2.5247 C   0  0  0  0  0  0  0  0  0  0  0  0
    7.0489    8.2318   -4.1335 C   0  0  0  0  0  0  0  0  0  0  0  0
    4.0890    0.3441    0.0402 C   0  0  0  0  0  0  0  0  0  0  0  0
    2.4364    0.6132   -0.8249 C   0  0  0  0  0  0  0  0  0  0  0  0
    1.8885    2.5029   -1.3897 C   0  0  0  0  0  0  0  0  0  0  0  0
    2.0497    2.8405    0.4193 C   0  0  0  0  0  0  0  0  0  0  0  0
    1.8048    3.7881   -2.7153 C   0  0  0  0  0  0  0  0  0  0  0  0
    2.4701    4.5509    0.9318 C   0  0  0  0  0  0  0  0  0  0  0  0
    2.1039    5.6105   -2.1527 C   0  0  0  0  0  0  0  0  0  0  0  0
    2.5495    5.8876   -0.3217 C   0  0  0  0  0  0  0  0  0  0  0  0
    2.3263    0.2352    1.7820 C   0  0  0  0  0  0  0  0  0  0  0  0
    2.1701   -1.1760    0.5922 C   0  0  0  0  0  0  0  0  0  0  0  0
    7.0938    6.9930   -5.6645 H   0  0  0  0  0  0  0  0  0  0  0  0
    3.9138    2.1512    0.6892 H   0  0  0  0  0  0  0  0  0  0  0  0
    3.2044    3.7792   -0.3443 H   0  0  0  0  0  0  0  0  0  0  0  0
    1.4885    4.3447   -1.0955 H   0  0  0  0  0  0  0  0  0  0  0  0
    8.3300    5.5262   -4.4129 H   0  0  0  0  0  0  0  0  0  0  0  0
    8.4753    6.3089   -2.8081 H   0  0  0  0  0  0  0  0  0  0  0  0
    9.5798    4.5471   -2.0834 H   0  0  0  0  0  0  0  0  0  0  0  0
    8.9572    3.4770   -3.4060 H   0  0  0  0  0  0  0  0  0  0  0  0
    5.7132    5.9501   -4.9754 H   0  0  0  0  0  0  0  0  0  0  0  0
    4.6216    6.1074   -3.7087 H   0  0  0  0  0  0  0  0  0  0  0  0
    8.6463    2.3547   -0.5331 H   0  0  0  0  0  0  0  0  0  0  0  0
    7.4940    1.5750    1.6034 H   0  0  0  0  0  0  0  0  0  0  0  0
    6.5514    0.4852    0.5894 H   0  0  0  0  0  0  0  0  0  0  0  0
    4.5419    3.1244   -0.1502 H   0  0  0  0  0  0  0  0  0  0  0  0
    5.3610    0.9680    2.7626 H   0  0  0  0  0  0  0  0  0  0  0  0
    4.9160    8.1940   -4.0652 H   0  0  0  0  0  0  0  0  0  0  0  0
    5.6553    7.8370   -2.5061 H   0  0  0  0  0  0  0  0  0  0  0  0
    4.3943    3.2294    3.1400 H   0  0  0  0  0  0  0  0  0  0  0  0
    6.1681    3.2912    3.1463 H   0  0  0  0  0  0  0  0  0  0  0  0
    5.2681    3.8924    1.7784 H   0  0  0  0  0  0  0  0  0  0  0  0
    7.1322    9.2978   -3.9462 H   0  0  0  0  0  0  0  0  0  0  0  0
    7.8948    7.8012   -3.6243 H   0  0  0  0  0  0  0  0  0  0  0  0
    4.1718   -0.5359    0.7382 H   0  0  0  0  0  0  0  0  0  0  0  0
    4.8805    0.1265   -0.6597 H   0  0  0  0  0  0  0  0  0  0  0  0
    1.5570    0.8503   -0.1516 H   0  0  0  0  0  0  0  0  0  0  0  0
    1.8870   -0.2166   -1.2965 H   0  0  0  0  0  0  0  0  0  0  0  0
    2.1209    3.3227   -3.7139 H   0  0  0  0  0  0  0  0  0  0  0  0
    2.9429    4.6665    1.9779 H   0  0  0  0  0  0  0  0  0  0  0  0
    2.4266    6.3504   -2.9063 H   0  0  0  0  0  0  0  0  0  0  0  0
    3.1119    6.8020    0.0249 H   0  0  0  0  0  0  0  0  0  0  0  0
    1.7721   -0.0367    2.6745 H   0  0  0  0  0  0  0  0  0  0  0  0
    3.2892    0.2443    2.3295 H   0  0  0  0  0  0  0  0  0  0  0  0
  1 35  1  0  0  0  0
  2 35  1  0  0  0  0
  3 35  1  0  0  0  0
  4 25  1  0  0  0  0
  4 36  1  0  0  0  0
  5 23  2  0  0  0  0
  6 27  1  0  0  0  0
  6 28  1  0  0  0  0
  7 29  1  0  0  0  0
  7 34  1  0  0  0  0
  8 11  1  0  0  0  0
  8 12  1  0  0  0  0
  8 15  1  0  0  0  0
  9 26  1  0  0  0  0
  9 37  1  0  0  0  0
 10 23  1  0  0  0  0
 10 38  1  0  0  0  0
 10 39  1  0  0  0  0
 11 13  2  0  0  0  0
 11 17  1  0  0  0  0
 12 14  1  0  0  0  0
 12 40  1  0  0  0  0
 12 41  1  0  0  0  0
 13 14  1  0  0  0  0
 13 18  1  0  0  0  0
 14 42  1  0  0  0  0
 14 43  1  0  0  0  0
 15 22  1  0  0  0  0
 15 44  1  0  0  0  0
 15 45  1  0  0  0  0
 16 18  2  0  0  0  0
 16 19  1  0  0  0  0
 16 20  1  0  0  0  0
 17 20  2  0  0  0  0
 17 23  1  0  0  0  0
 18 46  1  0  0  0  0
 19 21  1  0  0  0  0
 19 47  1  0  0  0  0
 19 48  1  0  0  0  0
 20 49  1  0  0  0  0
 21  9  1  0  0  0  0
 21 24  1  0  0  0  0
 21 50  1  1  0  0  0
 22 25  1  0  0  0  0
 22 51  1  0  0  0  0
 22 52  1  0  0  0  0
 24 53  1  0  0  0  0
 24 54  1  0  0  0  0
 24 55  1  0  0  0  0
 25 56  1  0  0  0  0
 25 57  1  0  0  0  0
 26 27  1  0  0  0  0
 26 58  1  0  0  0  0
 26 59  1  0  0  0  0
 27 60  1  0  0  0  0
 27 61  1  0  0  0  0
 28 29  1  0  0  0  0
 28 30  2  0  0  0  0
 29 31  2  0  0  0  0
 30 32  1  0  0  0  0
 30 62  1  0  0  0  0
 31 33  1  0  0  0  0
 31 63  1  0  0  0  0
 32 33  2  0  0  0  0
 32 64  1  0  0  0  0
 33 65  1  0  0  0  0
 34 35  1  0  0  0  0
 34 66  1  0  0  0  0
 34 67  1  0  0  0  0
M  END
>  <DRUGBANK_ID>
DB06207

>  <COMMON_NAME>
Silodosin

>  <CAS_NUMBER>
160970-54-7

>  <UNII>
CUZ39LUY82

>  <SYNONYMS>
Silodosin; Silodosina

$$$$
