
 OpenBabel10282417243D

 73 78  0  0  1  0  0  0  0  0999 V2000
    0.9930    0.1736    0.0023 C   0  0  0  0  0  0  0  0  0  0  0  0
    0.5006   -1.2602    0.1533 C   0  0  0  0  0  0  0  0  0  0  0  0
    0.9137   -1.9675    1.4599 C   0  0  1  0  0  0  0  0  0  0  0  0
    2.1243   -1.3697    1.9556 O   0  0  0  0  0  0  0  0  0  0  0  0
   -0.1424   -1.8639    2.5884 C   0  0  0  0  0  0  0  0  0  0  0  0
   -0.4947   -3.2994    3.0627 C   0  0  0  0  0  0  0  0  0  0  0  0
    0.3298   -4.2059    2.2315 C   0  0  0  0  0  0  0  0  0  0  0  0
    0.3786   -5.6122    2.2258 C   0  0  0  0  0  0  0  0  0  0  0  0
    1.0830   -6.2959    1.2574 C   0  0  0  0  0  0  0  0  0  0  0  0
    1.6011   -5.5411    0.2769 C   0  0  0  0  0  0  0  0  0  0  0  0
    1.4391   -4.1438    0.2245 N   0  0  0  0  0  0  0  0  0  0  0  0
    0.9611   -3.4854    1.2673 C   0  0  0  0  0  0  0  0  0  0  0  0
    2.4685   -6.1427   -0.6595 N   0  0  0  0  0  0  0  0  0  0  0  0
    2.0986   -5.6341   -1.8543 N   0  0  0  0  0  0  0  0  0  0  0  0
    3.2478   -4.4049   -1.6542 C   0  0  0  0  0  0  0  0  0  0  0  0
    4.0643   -4.4672   -0.1096 C   0  0  0  0  0  0  0  0  0  0  0  0
    5.1696   -5.1440    0.2392 C   0  0  0  0  0  0  0  0  0  0  0  0
    1.7284   -6.9167   -2.3661 C   0  0  0  0  0  0  0  0  0  0  0  0
    0.5451   -7.3503   -2.5943 O   0  0  0  0  0  0  0  0  0  0  0  0
    2.7101   -7.9042   -2.0108 C   0  0  0  0  0  0  0  0  0  0  0  0
    3.1037   -9.2021   -2.1143 C   0  0  0  0  0  0  0  0  0  0  0  0
    4.3650   -9.5916   -1.7562 N   0  0  0  0  0  0  0  0  0  0  0  0
    5.1698   -8.6582   -1.2129 C   0  0  0  0  0  0  0  0  0  0  0  0
    6.5541   -8.9280   -1.1040 N   0  0  0  0  0  0  0  0  0  0  0  0
    7.6241   -8.1087   -0.6831 C   0  0  0  0  0  0  0  0  0  0  0  0
    7.6212   -7.4967    0.5671 C   0  0  0  0  0  0  0  0  0  0  0  0
    8.6422   -6.6112    0.9523 C   0  0  0  0  0  0  0  0  0  0  0  0
    9.6359   -6.1902    0.0618 C   0  0  0  0  0  0  0  0  0  0  0  0
    9.6226   -6.7741   -1.2050 C   0  0  0  0  0  0  0  0  0  0  0  0
    8.7185   -7.8227   -1.5167 C   0  0  0  0  0  0  0  0  0  0  0  0
   10.5603   -5.2628    0.4911 N   0  0  0  0  0  0  0  0  0  0  0  0
   11.5538   -5.6689    1.5000 C   0  0  0  0  0  0  0  0  0  0  0  0
   11.8092   -4.4998    2.4797 C   0  0  0  0  0  0  0  0  0  0  0  0
   12.2539   -3.2822    1.7619 N   0  0  0  0  0  0  0  0  0  0  0  0
   12.5387   -2.2012    2.6995 C   0  0  0  0  0  0  0  0  0  0  0  0
   11.1846   -2.9006    0.8042 C   0  0  0  0  0  0  0  0  0  0  0  0
   10.8885   -4.0285   -0.2323 C   0  0  0  0  0  0  0  0  0  0  0  0
    4.6202   -7.5176   -0.7656 N   0  0  0  0  0  0  0  0  0  0  0  0
    3.3025   -7.2799   -0.9848 C   0  0  0  0  0  0  0  0  0  0  0  0
    0.6494    0.8020    0.8275 H   0  0  0  0  0  0  0  0  0  0  0  0
    0.6229    0.5994   -0.9370 H   0  0  0  0  0  0  0  0  0  0  0  0
    2.0877    0.2092   -0.0385 H   0  0  0  0  0  0  0  0  0  0  0  0
   -0.5886   -1.2926    0.0410 H   0  0  0  0  0  0  0  0  0  0  0  0
    0.8984   -1.8086   -0.7089 H   0  0  0  0  0  0  0  0  0  0  0  0
    2.4940   -1.9124    2.6693 H   0  0  0  0  0  0  0  0  0  0  0  0
    0.2081   -1.2644    3.4402 H   0  0  0  0  0  0  0  0  0  0  0  0
   -1.0495   -1.3610    2.2311 H   0  0  0  0  0  0  0  0  0  0  0  0
   -0.2840   -3.4597    4.1186 H   0  0  0  0  0  0  0  0  0  0  0  0
   -1.5423   -3.5102    2.8278 H   0  0  0  0  0  0  0  0  0  0  0  0
   -0.1267   -6.2161    2.9592 H   0  0  0  0  0  0  0  0  0  0  0  0
    1.2254   -7.3614    1.1738 H   0  0  0  0  0  0  0  0  0  0  0  0
    3.9255   -4.4140   -2.4940 H   0  0  0  0  0  0  0  0  0  0  0  0
    2.6165   -3.4955   -1.6566 H   0  0  0  0  0  0  0  0  0  0  0  0
    3.4765   -4.3889    0.8226 H   0  0  0  0  0  0  0  0  0  0  0  0
    5.1752   -5.6665    1.2175 H   0  0  0  0  0  0  0  0  0  0  0  0
    5.8466   -5.5144   -0.5057 H   0  0  0  0  0  0  0  0  0  0  0  0
    2.4310   -9.9813   -2.4475 H   0  0  0  0  0  0  0  0  0  0  0  0
    6.7926   -9.8613   -1.4091 H   0  0  0  0  0  0  0  0  0  0  0  0
    6.8137   -7.6972    1.2631 H   0  0  0  0  0  0  0  0  0  0  0  0
    8.6190   -6.1841    1.9518 H   0  0  0  0  0  0  0  0  0  0  0  0
   10.3210   -6.4358   -1.9672 H   0  0  0  0  0  0  0  0  0  0  0  0
    8.8699   -8.3718   -2.4435 H   0  0  0  0  0  0  0  0  0  0  0  0
   12.4959   -5.9392    1.0040 H   0  0  0  0  0  0  0  0  0  0  0  0
   11.2238   -6.5441    2.0707 H   0  0  0  0  0  0  0  0  0  0  0  0
   12.5683   -4.8071    3.2084 H   0  0  0  0  0  0  0  0  0  0  0  0
   10.8844   -4.2925    3.0368 H   0  0  0  0  0  0  0  0  0  0  0  0
   12.8853   -1.3112    2.1629 H   0  0  0  0  0  0  0  0  0  0  0  0
   11.6656   -1.9272    3.3011 H   0  0  0  0  0  0  0  0  0  0  0  0
   13.3494   -2.4899    3.3790 H   0  0  0  0  0  0  0  0  0  0  0  0
   10.2602   -2.6788    1.3572 H   0  0  0  0  0  0  0  0  0  0  0  0
   11.4713   -1.9883    0.2691 H   0  0  0  0  0  0  0  0  0  0  0  0
   11.7677   -4.1753   -0.8723 H   0  0  0  0  0  0  0  0  0  0  0  0
   10.0535   -3.7067   -0.8646 H   0  0  0  0  0  0  0  0  0  0  0  0
  1  2  1  0  0  0  0
  1 40  1  0  0  0  0
  1 41  1  0  0  0  0
  1 42  1  0  0  0  0
  2 43  1  0  0  0  0
  2 44  1  0  0  0  0
  3  2  1  0  0  0  0
  3  4  1  1  0  0  0
  3  5  1  0  0  0  0
  3 12  1  0  0  0  0
  4 45  1  0  0  0  0
  5  6  1  0  0  0  0
  5 46  1  0  0  0  0
  5 47  1  0  0  0  0
  6  7  1  0  0  0  0
  6 48  1  0  0  0  0
  6 49  1  0  0  0  0
  7  8  2  0  0  0  0
  7 12  1  0  0  0  0
  8  9  1  0  0  0  0
  8 50  1  0  0  0  0
  9 10  2  0  0  0  0
  9 51  1  0  0  0  0
 10 11  1  0  0  0  0
 10 13  1  0  0  0  0
 11 12  2  0  0  0  0
 13 14  1  0  0  0  0
 13 39  1  0  0  0  0
 14 15  1  0  0  0  0
 14 18  1  0  0  0  0
 15 16  1  0  0  0  0
 15 52  1  0  0  0  0
 15 53  1  0  0  0  0
 16 17  2  0  0  0  0
 16 54  1  0  0  0  0
 17 55  1  0  0  0  0
 17 56  1  0  0  0  0
 18 19  2  0  0  0  0
 18 20  1  0  0  0  0
 20 21  2  0  0  0  0
 20 39  1  0  0  0  0
 21 22  1  0  0  0  0
 21 57  1  0  0  0  0
 22 23  2  0  0  0  0
 23 24  1  0  0  0  0
 23 38  1  0  0  0  0
 24 25  1  0  0  0  0
 24 58  1  0  0  0  0
 25 26  2  0  0  0  0
 25 30  1  0  0  0  0
 26 27  1  0  0  0  0
 26 59  1  0  0  0  0
 27 28  2  0  0  0  0
 27 60  1  0  0  0  0
 28 29  1  0  0  0  0
 28 31  1  0  0  0  0
 29 30  2  0  0  0  0
 29 61  1  0  0  0  0
 30 62  1  0  0  0  0
 31 32  1  0  0  0  0
 31 37  1  0  0  0  0
 32 33  1  0  0  0  0
 32 63  1  0  0  0  0
 32 64  1  0  0  0  0
 33 34  1  0  0  0  0
 33 65  1  0  0  0  0
 33 66  1  0  0  0  0
 34 35  1  0  0  0  0
 34 36  1  0  0  0  0
 35 67  1  0  0  0  0
 35 68  1  0  0  0  0
 35 69  1  0  0  0  0
 36 37  1  0  0  0  0
 36 70  1  0  0  0  0
 36 71  1  0  0  0  0
 37 72  1  0  0  0  0
 37 73  1  0  0  0  0
 38 39  2  0  0  0  0
M  END
>  <DRUGBANK_ID>
DB18028

>  <COMMON_NAME>
Azenosertib

>  <CAS_NUMBER>
2376146-48-2

>  <UNII>
9J13XU96Z1

>  <SYNONYMS>
3h-pyrazolo(3,4-d)pyrimidin-3-one, 1-((7r)-7-ethyl-6,7-dihydro-7-hydroxy-5h-cyclopenta(b)pyridin-2-yl)-1,2-dihydro-6-((4-(4-methyl-1-piperazinyl)phenyl)amino)-2-(2-propen-1-yl)-

$$$$
