
 OpenBabel10282417133D

 65 67  0  0  0  0  0  0  0  0999 V2000
   -1.2687    0.0437   -1.9043 O   0  0  0  0  0  0  0  0  0  0  0  0
    0.1408    0.4240   -2.1612 C   0  0  1  0  0  0  0  0  0  0  0  0
    0.9811   -0.5046   -3.0265 C   0  0  1  0  0  0  0  0  0  0  0  0
    0.6008    1.9245   -2.2428 C   0  0  2  0  0  0  0  0  0  0  0  0
    2.4442   -0.3057   -3.4317 C   0  0  2  0  0  0  0  0  0  0  0  0
    2.1812    2.0198   -2.3571 C   0  0  1  0  0  0  0  0  0  0  0  0
    2.9041    1.1484   -3.4172 C   0  0  0  0  0  0  0  0  0  0  0  0
    0.2810    2.6462   -1.0127 O   0  0  0  0  0  0  0  0  0  0  0  0
    2.7744    3.3637   -2.2550 N   0  0  0  0  0  0  0  0  0  0  0  0
    2.9863   -1.3481   -4.3490 N   0  0  0  0  0  0  0  0  0  0  0  0
    1.0464   -1.6834   -2.2345 O   0  0  0  0  0  0  0  0  0  0  0  0
    1.4530   -1.6877   -0.8658 C   0  0  2  0  0  0  0  0  0  0  0  0
    0.8442   -0.7568    0.5722 C   0  0  1  0  0  0  0  0  0  0  0  0
    2.8494   -1.9289   -0.7171 O   0  0  0  0  0  0  0  0  0  0  0  0
    1.8143    0.3969    0.7371 C   0  0  2  0  0  0  0  0  0  0  0  0
    3.5776   -0.7443   -0.5495 C   0  0  1  0  0  0  0  0  0  0  0  0
    3.3018    0.0872    0.6799 C   0  0  1  0  0  0  0  0  0  0  0  0
    5.0244   -0.9227   -1.0145 C   0  0  0  0  0  0  0  0  0  0  0  0
    5.3682   -2.3056   -1.3232 N   0  0  0  0  0  0  0  0  0  0  0  0
    3.9930    1.3442    0.5053 O   0  0  0  0  0  0  0  0  0  0  0  0
    1.4903    1.3337    1.7531 O   0  0  0  0  0  0  0  0  0  0  0  0
   -0.4934   -0.1237    0.9173 N   0  0  0  0  0  0  0  0  0  0  0  0
   -1.7040   -1.3549   -1.4814 C   0  0  2  0  0  0  0  0  0  0  0  0
   -0.6987   -3.2057   -0.0689 C   0  0  1  0  0  0  0  0  0  0  0  0
   -1.3655   -1.8950   -0.1094 O   0  0  0  0  0  0  0  0  0  0  0  0
   -1.0375   -3.6849   -1.5248 C   0  0  2  0  0  0  0  0  0  0  0  0
   -1.3826   -2.4669   -2.4495 C   0  0  1  0  0  0  0  0  0  0  0  0
   -2.4049   -2.6774   -3.4473 O   0  0  0  0  0  0  0  0  0  0  0  0
   -2.2979   -4.3746   -1.3896 O   0  0  0  0  0  0  0  0  0  0  0  0
    0.7761   -3.6688    0.9173 C   0  0  0  0  0  0  0  0  0  0  0  0
    1.9854   -2.9307    1.3197 O   0  0  0  0  0  0  0  0  0  0  0  0
   -2.7948   -1.2091   -1.4247 H   0  0  0  0  0  0  0  0  0  0  0  0
    0.4532    0.2049   -1.2060 H   0  0  0  0  0  0  0  0  0  0  0  0
    0.4353   -0.6590   -3.9659 H   0  0  0  0  0  0  0  0  0  0  0  0
    0.1152    2.4587   -3.0520 H   0  0  0  0  0  0  0  0  0  0  0  0
    3.0203   -0.7630   -2.6721 H   0  0  0  0  0  0  0  0  0  0  0  0
    2.5202    1.6705   -1.4054 H   0  0  0  0  0  0  0  0  0  0  0  0
    3.9778    1.1511   -3.1616 H   0  0  0  0  0  0  0  0  0  0  0  0
    2.8026    1.5906   -4.4026 H   0  0  0  0  0  0  0  0  0  0  0  0
   -0.4497    2.2127   -0.5369 H   0  0  0  0  0  0  0  0  0  0  0  0
    3.7036    3.2957   -1.8247 H   0  0  0  0  0  0  0  0  0  0  0  0
    2.2310    3.8788   -1.5501 H   0  0  0  0  0  0  0  0  0  0  0  0
    2.5800   -2.2416   -4.0098 H   0  0  0  0  0  0  0  0  0  0  0  0
    3.9745   -1.5290   -4.0952 H   0  0  0  0  0  0  0  0  0  0  0  0
    1.1705   -2.7170   -0.8166 H   0  0  0  0  0  0  0  0  0  0  0  0
    0.9392   -1.3351    1.4749 H   0  0  0  0  0  0  0  0  0  0  0  0
    1.5984    0.9646   -0.1288 H   0  0  0  0  0  0  0  0  0  0  0  0
    3.1679   -0.0508   -1.2407 H   0  0  0  0  0  0  0  0  0  0  0  0
    3.6345   -0.3819    1.5993 H   0  0  0  0  0  0  0  0  0  0  0  0
    5.1636   -0.3621   -1.9482 H   0  0  0  0  0  0  0  0  0  0  0  0
    5.6971   -0.4890   -0.2796 H   0  0  0  0  0  0  0  0  0  0  0  0
    6.3811   -2.4160   -1.3107 H   0  0  0  0  0  0  0  0  0  0  0  0
    4.9856   -2.9168   -0.6043 H   0  0  0  0  0  0  0  0  0  0  0  0
    4.1593    1.5006   -0.4413 H   0  0  0  0  0  0  0  0  0  0  0  0
    1.3798    2.1714    1.2575 H   0  0  0  0  0  0  0  0  0  0  0  0
   -1.0171   -0.8333    1.4564 H   0  0  0  0  0  0  0  0  0  0  0  0
   -1.0981   -0.0805    0.1033 H   0  0  0  0  0  0  0  0  0  0  0  0
   -1.3479   -3.7982    0.5902 H   0  0  0  0  0  0  0  0  0  0  0  0
   -0.2891   -4.3451   -1.9652 H   0  0  0  0  0  0  0  0  0  0  0  0
   -0.6079   -2.1713   -3.1061 H   0  0  0  0  0  0  0  0  0  0  0  0
   -3.2419   -2.7517   -3.0486 H   0  0  0  0  0  0  0  0  0  0  0  0
   -2.8966   -3.7397   -0.9476 H   0  0  0  0  0  0  0  0  0  0  0  0
    0.4018   -3.8574    1.9198 H   0  0  0  0  0  0  0  0  0  0  0  0
    1.2125   -4.5623    0.4722 H   0  0  0  0  0  0  0  0  0  0  0  0
    2.6115   -2.7222    0.6185 H   0  0  0  0  0  0  0  0  0  0  0  0
  1 23  1  0  0  0  0
  2 33  1  1  0  0  0
  2  1  1  0  0  0  0
  3  2  1  0  0  0  0
  3 11  1  0  0  0  0
  3 34  1  6  0  0  0
  4  2  1  0  0  0  0
  4 35  1  6  0  0  0
  4  8  1  0  0  0  0
  5  3  1  0  0  0  0
  5 36  1  1  0  0  0
  5 10  1  0  0  0  0
  6  4  1  0  0  0  0
  6 37  1  1  0  0  0
  6  9  1  0  0  0  0
  7  5  1  0  0  0  0
  7  6  1  0  0  0  0
  7 38  1  0  0  0  0
  7 39  1  0  0  0  0
  8 40  1  0  0  0  0
  9 41  1  0  0  0  0
  9 42  1  0  0  0  0
 10 43  1  0  0  0  0
 10 44  1  0  0  0  0
 12 11  1  0  0  0  0
 12 45  1  1  0  0  0
 13 12  1  0  0  0  0
 13 22  1  0  0  0  0
 13 46  1  1  0  0  0
 14 12  1  0  0  0  0
 15 13  1  0  0  0  0
 15 47  1  6  0  0  0
 15 21  1  0  0  0  0
 16 14  1  0  0  0  0
 16 48  1  6  0  0  0
 16 18  1  0  0  0  0
 17 15  1  0  0  0  0
 17 16  1  0  0  0  0
 17 20  1  0  0  0  0
 17 49  1  1  0  0  0
 18 50  1  0  0  0  0
 18 51  1  0  0  0  0
 19 18  1  0  0  0  0
 19 52  1  0  0  0  0
 19 53  1  0  0  0  0
 20 54  1  0  0  0  0
 21 55  1  0  0  0  0
 22 56  1  0  0  0  0
 22 57  1  0  0  0  0
 23 25  1  0  0  0  0
 23 32  1  6  0  0  0
 24 58  1  1  0  0  0
 24 30  1  0  0  0  0
 25 24  1  0  0  0  0
 26 24  1  0  0  0  0
 26 29  1  0  0  0  0
 26 59  1  6  0  0  0
 27 26  1  0  0  0  0
 27 23  1  0  0  0  0
 27 28  1  0  0  0  0
 27 60  1  6  0  0  0
 28 61  1  0  0  0  0
 29 62  1  0  0  0  0
 30 63  1  0  0  0  0
 30 64  1  0  0  0  0
 31 30  1  0  0  0  0
 31 65  1  0  0  0  0
M  END
>  <DRUGBANK_ID>
DB03615

>  <SECONDARY_ACCESSION_NUMBERS>
EXPT02786

>  <COMMON_NAME>
Ribostamycin

>  <CAS_NUMBER>
25546-65-0

>  <UNII>
2Q5JOU7T53

>  <SYNONYMS>
Ribostamicina; Ribostamycin; Ribostamycin A; Ribostamycine; Ribostamycinum; Vistamycin

$$$$
