
 OpenBabel10282417133D

 22 22  0  0  0  0  0  0  0  0999 V2000
   -1.4250    0.3298   -0.2297 C   0  0  0  0  0  0  0  0  0  0  0  0
   -0.9913   -1.0581    0.2351 C   0  0  0  0  0  0  0  0  0  0  0  0
   -0.4284    1.4033    0.2193 C   0  0  0  0  0  0  0  0  0  0  0  0
    0.4238   -1.3843   -0.2329 C   0  0  0  0  0  0  0  0  0  0  0  0
    0.9963    1.0685   -0.2341 C   0  0  0  0  0  0  0  0  0  0  0  0
    1.4177   -0.3233    0.2293 C   0  0  0  0  0  0  0  0  0  0  0  0
   -0.8249    2.7066   -0.2884 N   0  0  0  0  0  0  0  0  0  0  0  0
   -1.1304    3.7503    0.5456 C   0  0  0  0  0  0  0  0  0  0  0  0
   -1.1159    3.7205    1.7677 O   0  0  0  0  0  0  0  0  0  0  0  0
   -1.4023    4.6588   -0.0159 H   0  0  0  0  0  0  0  0  0  0  0  0
   -1.5169    0.3364   -1.3237 H   0  0  0  0  0  0  0  0  0  0  0  0
   -2.4222    0.5552    0.1677 H   0  0  0  0  0  0  0  0  0  0  0  0
   -1.0319   -1.1042    1.3306 H   0  0  0  0  0  0  0  0  0  0  0  0
   -1.6902   -1.8112   -0.1443 H   0  0  0  0  0  0  0  0  0  0  0  0
   -0.4373    1.4370    1.3159 H   0  0  0  0  0  0  0  0  0  0  0  0
    0.7241   -2.3653    0.1510 H   0  0  0  0  0  0  0  0  0  0  0  0
    0.4409   -1.4473   -1.3281 H   0  0  0  0  0  0  0  0  0  0  0  0
    1.6986    1.8142    0.1575 H   0  0  0  0  0  0  0  0  0  0  0  0
    1.0624    1.1217   -1.3287 H   0  0  0  0  0  0  0  0  0  0  0  0
    1.4867   -0.3394    1.3242 H   0  0  0  0  0  0  0  0  0  0  0  0
    2.4155   -0.5559   -0.1584 H   0  0  0  0  0  0  0  0  0  0  0  0
   -0.8671    2.8532   -1.2891 H   0  0  0  0  0  0  0  0  0  0  0  0
  1 11  1  0  0  0  0
  1 12  1  0  0  0  0
  2  1  1  0  0  0  0
  2 13  1  0  0  0  0
  2 14  1  0  0  0  0
  3  1  1  0  0  0  0
  3 15  1  0  0  0  0
  4  2  1  0  0  0  0
  4 16  1  0  0  0  0
  4 17  1  0  0  0  0
  5  3  1  0  0  0  0
  5 18  1  0  0  0  0
  5 19  1  0  0  0  0
  6  4  1  0  0  0  0
  6  5  1  0  0  0  0
  6 20  1  0  0  0  0
  6 21  1  0  0  0  0
  7  3  1  0  0  0  0
  7 22  1  0  0  0  0
  8  7  1  0  0  0  0
  8  9  2  0  0  0  0
 10  8  1  0  0  0  0
M  END
>  <DRUGBANK_ID>
DB03559

>  <SECONDARY_ACCESSION_NUMBERS>
EXPT01065

>  <COMMON_NAME>
Cyclohexylformamide

>  <CAS_NUMBER>
766-93-8

>  <UNII>
X2CFE4SDT6

>  <SYNONYMS>
Formamidocyclohexane; N-cyclohexylformamide; N-formylcyclohexylamine

$$$$
