
 OpenBabel10282417123D

 16 15  0  0  0  0  0  0  0  0999 V2000
    0.9328   -0.0837    0.1530 C   0  0  0  0  0  0  0  0  0  0  0  0
    0.3999    0.3431   -1.2050 C   0  0  0  0  0  0  0  0  0  0  0  0
    1.0223   -0.3056   -2.3112 O   0  0  0  0  0  0  0  0  0  0  0  0
    2.4516   -0.2619   -2.3600 C   0  0  0  0  0  0  0  0  0  0  0  0
    3.0416    1.1380   -2.5532 C   0  0  0  0  0  0  0  0  0  0  0  0
    2.8539    1.9821   -1.4214 O   0  0  0  0  0  0  0  0  0  0  0  0
    0.7002   -1.1375    0.3318 H   0  0  0  0  0  0  0  0  0  0  0  0
    0.4882    0.5201    0.9483 H   0  0  0  0  0  0  0  0  0  0  0  0
    2.0177    0.0219    0.2356 H   0  0  0  0  0  0  0  0  0  0  0  0
   -0.6678    0.1029   -1.2555 H   0  0  0  0  0  0  0  0  0  0  0  0
    0.4495    1.4256   -1.3368 H   0  0  0  0  0  0  0  0  0  0  0  0
    2.8729   -0.7611   -1.4826 H   0  0  0  0  0  0  0  0  0  0  0  0
    2.7418   -0.8733   -3.2220 H   0  0  0  0  0  0  0  0  0  0  0  0
    4.1225    1.0547   -2.6989 H   0  0  0  0  0  0  0  0  0  0  0  0
    2.6059    1.6270   -3.4294 H   0  0  0  0  0  0  0  0  0  0  0  0
    2.0518    2.5096   -1.5938 H   0  0  0  0  0  0  0  0  0  0  0  0
  1  2  1  0  0  0  0
  1  7  1  0  0  0  0
  1  8  1  0  0  0  0
  1  9  1  0  0  0  0
  2  3  1  0  0  0  0
  2 10  1  0  0  0  0
  2 11  1  0  0  0  0
  3  4  1  0  0  0  0
  4  5  1  0  0  0  0
  4 12  1  0  0  0  0
  4 13  1  0  0  0  0
  5  6  1  0  0  0  0
  5 14  1  0  0  0  0
  5 15  1  0  0  0  0
  6 16  1  0  0  0  0
M  END
>  <DRUGBANK_ID>
DB02249

>  <SECONDARY_ACCESSION_NUMBERS>
EXPT01374

>  <COMMON_NAME>
2-Ethoxyethanol

>  <CAS_NUMBER>
110-80-5

>  <UNII>
IDK7C2HS09

$$$$
