
 OpenBabel10282417123D

 45 46  0  0  1  0  0  0  0  0999 V2000
    0.3814    1.4977    0.3342 C   0  0  2  0  0  0  0  0  0  0  0  0
    0.6658    2.8663   -0.0067 N   0  0  0  0  0  0  0  0  0  0  0  0
    1.6331    0.8372    0.1570 O   0  0  0  0  0  0  0  0  0  0  0  0
   -0.6849    0.7537   -0.4670 C   0  0  1  0  0  0  0  0  0  0  0  0
    1.1323    3.0863   -1.3234 C   0  0  0  0  0  0  0  0  0  0  0  0
    1.0996    3.6462    1.0399 C   0  0  0  0  0  0  0  0  0  0  0  0
    1.3718   -0.4390   -0.3932 C   0  0  1  0  0  0  0  0  0  0  0  0
   -0.1442   -0.6567   -0.4574 C   0  0  1  0  0  0  0  0  0  0  0  0
   -1.9916    0.8556    0.0792 O   0  0  0  0  0  0  0  0  0  0  0  0
    1.8221    4.2523   -1.5621 N   0  0  0  0  0  0  0  0  0  0  0  0
    0.9766    2.2736   -2.2126 O   0  0  0  0  0  0  0  0  0  0  0  0
    2.0318    4.5732    0.8454 C   0  0  0  0  0  0  0  0  0  0  0  0
    2.0428   -0.7181   -1.7797 C   0  0  0  0  0  0  0  0  0  0  0  0
   -0.5889   -1.4778    0.6293 O   0  0  0  0  0  0  0  0  0  0  0  0
    2.2811    4.9256   -0.5631 C   0  0  0  0  0  0  0  0  0  0  0  0
    1.3373   -1.7441   -2.5724 O   0  0  0  0  0  0  0  0  0  0  0  0
    3.0098    6.0407   -0.8334 N   0  0  0  0  0  0  0  0  0  0  0  0
    1.2796   -3.3125   -1.8445 P   0  0  3  0  0  0  0  0  0  0  0  0
    2.6606   -3.7925   -2.7692 O   0  0  0  0  0  0  0  0  0  0  0  0
    2.0700   -2.7969   -0.5401 O   0  0  0  0  0  0  0  0  0  0  0  0
    1.2279   -4.7161   -1.1930 O   0  0  0  0  0  0  0  0  0  0  0  0
    2.1401   -4.4713   -4.2730 P   0  0  3  0  0  0  0  0  0  0  0  0
    3.6899   -4.8775   -4.5085 O   0  0  0  0  0  0  0  0  0  0  0  0
    1.6493   -5.7947   -3.4295 O   0  0  0  0  0  0  0  0  0  0  0  0
    1.6742   -5.0788   -5.6188 O   0  0  0  0  0  0  0  0  0  0  0  0
    4.7650   -3.8828   -5.1137 P   0  0  0  0  0  0  0  0  0  0  0  0
    4.8917   -2.8093   -3.9425 O   0  0  0  0  0  0  0  0  0  0  0  0
    6.0670   -4.7913   -4.9563 O   0  0  0  0  0  0  0  0  0  0  0  0
    4.5472   -3.2660   -6.4489 O   0  0  0  0  0  0  0  0  0  0  0  0
    0.1240    1.4127    1.4021 H   0  0  0  0  0  0  0  0  0  0  0  0
   -0.7384    1.0785   -1.5058 H   0  0  0  0  0  0  0  0  0  0  0  0
    0.7608    3.3826    2.0369 H   0  0  0  0  0  0  0  0  0  0  0  0
    1.8224   -1.0180    0.4175 H   0  0  0  0  0  0  0  0  0  0  0  0
   -0.4818   -1.1890   -1.3470 H   0  0  0  0  0  0  0  0  0  0  0  0
   -2.0300    0.3369    0.8991 H   0  0  0  0  0  0  0  0  0  0  0  0
    2.5470    5.0760    1.6457 H   0  0  0  0  0  0  0  0  0  0  0  0
    2.1175    0.1873   -2.3793 H   0  0  0  0  0  0  0  0  0  0  0  0
    3.0842   -1.0475   -1.6413 H   0  0  0  0  0  0  0  0  0  0  0  0
   -0.4351   -1.0407    1.4845 H   0  0  0  0  0  0  0  0  0  0  0  0
    3.2468    6.7021   -0.1094 H   0  0  0  0  0  0  0  0  0  0  0  0
    2.9906    6.3729   -1.7903 H   0  0  0  0  0  0  0  0  0  0  0  0
    1.3405   -2.6925    0.0999 H   0  0  0  0  0  0  0  0  0  0  0  0
    1.3387   -5.6573   -2.5035 H   0  0  0  0  0  0  0  0  0  0  0  0
    4.1433   -2.1880   -3.9751 H   0  0  0  0  0  0  0  0  0  0  0  0
    5.8293   -5.7115   -5.1809 H   0  0  0  0  0  0  0  0  0  0  0  0
  1  3  1  0  0  0  0
  1  4  1  0  0  0  0
  1 30  1  1  0  0  0
  1  2  1  0  0  0  0
  2  5  1  0  0  0  0
  2  6  1  0  0  0  0
  3  7  1  0  0  0  0
  4  8  1  0  0  0  0
  4  9  1  0  0  0  0
  4 31  1  6  0  0  0
  5 10  1  0  0  0  0
  5 11  2  0  0  0  0
  6 12  2  0  0  0  0
  6 32  1  0  0  0  0
  7  8  1  0  0  0  0
  7 33  1  1  0  0  0
  7 13  1  0  0  0  0
  8 14  1  0  0  0  0
  8 34  1  6  0  0  0
  9 35  1  0  0  0  0
 10 15  2  0  0  0  0
 12 15  1  0  0  0  0
 12 36  1  0  0  0  0
 13 16  1  0  0  0  0
 13 37  1  0  0  0  0
 13 38  1  0  0  0  0
 14 39  1  0  0  0  0
 15 17  1  0  0  0  0
 16 18  1  0  0  0  0
 17 40  1  0  0  0  0
 17 41  1  0  0  0  0
 18 19  1  0  0  0  0
 18 20  1  0  0  0  0
 18 21  2  0  0  0  0
 19 22  1  0  0  0  0
 20 42  1  0  0  0  0
 22 23  1  0  0  0  0
 22 24  1  0  0  0  0
 22 25  2  0  0  0  0
 23 26  1  0  0  0  0
 24 43  1  0  0  0  0
 26 27  1  0  0  0  0
 26 28  1  0  0  0  0
 26 29  2  0  0  0  0
 27 44  1  0  0  0  0
 28 45  1  0  0  0  0
M  END
>  <DRUGBANK_ID>
DB02431

>  <SECONDARY_ACCESSION_NUMBERS>
EXPT01053

>  <COMMON_NAME>
Cytidine-5'-Triphosphate

>  <CAS_NUMBER>
65-47-4

>  <UNII>
K0118UX80T

$$$$
