
 OpenBabel10282417203D

 69 74  0  0  0  0  0  0  0  0999 V2000
    1.0034    0.0444    0.0618 C   0  0  0  0  0  0  0  0  0  0  0  0
    0.6020    0.5414   -1.2089 O   0  0  0  0  0  0  0  0  0  0  0  0
    1.0813    1.7849   -1.4907 C   0  0  0  0  0  0  0  0  0  0  0  0
    2.3840    2.1775   -1.3462 C   0  0  0  0  0  0  0  0  0  0  0  0
    2.7034    3.4963   -1.6800 C   0  0  0  0  0  0  0  0  0  0  0  0
    1.7660    4.4100   -2.1485 C   0  0  0  0  0  0  0  0  0  0  0  0
    0.4609    3.9208   -2.2830 C   0  0  0  0  0  0  0  0  0  0  0  0
    0.1849    2.6306   -1.9860 N   0  0  0  0  0  0  0  0  0  0  0  0
   -0.5218    4.8443   -2.7240 C   0  0  0  0  0  0  0  0  0  0  0  0
   -0.1800    6.1853   -3.0400 C   0  0  0  0  0  0  0  0  0  0  0  0
   -1.0864    7.1749   -3.5064 C   0  0  0  0  0  0  0  0  0  0  0  0
   -0.6629    8.4671   -3.8038 C   0  0  0  0  0  0  0  0  0  0  0  0
    0.6741    8.7928   -3.6274 C   0  0  0  0  0  0  0  0  0  0  0  0
    1.5738    7.8352   -3.1660 C   0  0  0  0  0  0  0  0  0  0  0  0
    1.1802    6.5414   -2.8741 C   0  0  0  0  0  0  0  0  0  0  0  0
    2.1072    5.6765   -2.4365 N   0  0  0  0  0  0  0  0  0  0  0  0
    1.2152   10.3858   -3.9821 Cl  0  0  0  0  0  0  0  0  0  0  0  0
   -1.9164    4.4627   -2.7058 N   0  0  0  0  0  0  0  0  0  0  0  0
   -2.3128    3.1107   -2.5991 C   0  0  0  0  0  0  0  0  0  0  0  0
   -2.4130    2.5266   -1.3338 C   0  0  0  0  0  0  0  0  0  0  0  0
   -2.6022    1.1468   -1.2040 C   0  0  0  0  0  0  0  0  0  0  0  0
   -2.8015    0.4052   -2.3904 C   0  0  0  0  0  0  0  0  0  0  0  0
   -2.9557    1.0274   -3.6302 C   0  0  0  0  0  0  0  0  0  0  0  0
   -2.4749    2.3236   -3.7450 C   0  0  0  0  0  0  0  0  0  0  0  0
   -3.7597    0.3835   -4.7497 C   0  0  0  0  0  0  0  0  0  0  0  0
   -5.0501    1.0383   -5.1352 N   0  0  0  0  0  0  0  0  0  0  0  0
   -4.9475    2.3927   -5.6704 C   0  0  0  0  0  0  0  0  0  0  0  0
   -5.1626    3.3470   -4.5076 C   0  0  0  0  0  0  0  0  0  0  0  0
   -6.0321    2.5767   -3.5417 C   0  0  0  0  0  0  0  0  0  0  0  0
   -6.0133    1.1312   -4.0367 C   0  0  0  0  0  0  0  0  0  0  0  0
   -2.9847   -0.9503   -2.3877 O   0  0  0  0  0  0  0  0  0  0  0  0
   -2.6340    0.5618    0.1951 C   0  0  0  0  0  0  0  0  0  0  0  0
   -3.9402    0.1762    0.7860 N   0  0  0  0  0  0  0  0  0  0  0  0
   -4.6765   -0.8407    0.0319 C   0  0  0  0  0  0  0  0  0  0  0  0
   -5.5068   -0.0282   -0.9288 C   0  0  0  0  0  0  0  0  0  0  0  0
   -6.0093    1.1064   -0.0836 C   0  0  0  0  0  0  0  0  0  0  0  0
   -4.8902    1.2972    0.9400 C   0  0  0  0  0  0  0  0  0  0  0  0
    0.5755   -0.9561    0.1869 H   0  0  0  0  0  0  0  0  0  0  0  0
    0.6250    0.6750    0.8745 H   0  0  0  0  0  0  0  0  0  0  0  0
    2.0884   -0.0612    0.1255 H   0  0  0  0  0  0  0  0  0  0  0  0
    3.1377    1.4849   -1.0088 H   0  0  0  0  0  0  0  0  0  0  0  0
    3.7338    3.8247   -1.5629 H   0  0  0  0  0  0  0  0  0  0  0  0
   -2.1417    6.9506   -3.6534 H   0  0  0  0  0  0  0  0  0  0  0  0
   -1.3724    9.2059   -4.1672 H   0  0  0  0  0  0  0  0  0  0  0  0
    2.6212    8.1031   -3.0283 H   0  0  0  0  0  0  0  0  0  0  0  0
   -2.4650    4.9486   -3.4053 H   0  0  0  0  0  0  0  0  0  0  0  0
   -2.1904    3.1447   -0.4660 H   0  0  0  0  0  0  0  0  0  0  0  0
   -2.3803    2.7767   -4.7264 H   0  0  0  0  0  0  0  0  0  0  0  0
   -3.1220    0.2699   -5.6321 H   0  0  0  0  0  0  0  0  0  0  0  0
   -4.0251   -0.6469   -4.4713 H   0  0  0  0  0  0  0  0  0  0  0  0
   -5.7787    2.5457   -6.3673 H   0  0  0  0  0  0  0  0  0  0  0  0
   -4.0280    2.5535   -6.2382 H   0  0  0  0  0  0  0  0  0  0  0  0
   -4.2620    3.6134   -3.9799 H   0  0  0  0  0  0  0  0  0  0  0  0
   -5.5483    4.3231   -4.8011 H   0  0  0  0  0  0  0  0  0  0  0  0
   -5.6263    2.6760   -2.5318 H   0  0  0  0  0  0  0  0  0  0  0  0
   -7.0435    2.9906   -3.5441 H   0  0  0  0  0  0  0  0  0  0  0  0
   -5.7763    0.3989   -3.2838 H   0  0  0  0  0  0  0  0  0  0  0  0
   -7.0246    0.8485   -4.3491 H   0  0  0  0  0  0  0  0  0  0  0  0
   -2.6136   -1.2931   -1.5635 H   0  0  0  0  0  0  0  0  0  0  0  0
   -1.9602   -0.3030    0.2149 H   0  0  0  0  0  0  0  0  0  0  0  0
   -2.1577    1.2709    0.8896 H   0  0  0  0  0  0  0  0  0  0  0  0
   -5.3611   -1.3828    0.6907 H   0  0  0  0  0  0  0  0  0  0  0  0
   -4.0414   -1.6166   -0.3944 H   0  0  0  0  0  0  0  0  0  0  0  0
   -4.9043    0.4662   -1.6680 H   0  0  0  0  0  0  0  0  0  0  0  0
   -6.2600   -0.6057   -1.4646 H   0  0  0  0  0  0  0  0  0  0  0  0
   -6.1768    2.0186   -0.6604 H   0  0  0  0  0  0  0  0  0  0  0  0
   -6.9576    0.8118    0.3691 H   0  0  0  0  0  0  0  0  0  0  0  0
   -4.4152    2.2789    0.8437 H   0  0  0  0  0  0  0  0  0  0  0  0
   -5.3379    1.2515    1.9370 H   0  0  0  0  0  0  0  0  0  0  0  0
  1  2  1  0  0  0  0
  1 38  1  0  0  0  0
  1 39  1  0  0  0  0
  1 40  1  0  0  0  0
  2  3  1  0  0  0  0
  3  4  1  0  0  0  0
  3  8  2  0  0  0  0
  4  5  2  0  0  0  0
  4 41  1  0  0  0  0
  5  6  1  0  0  0  0
  5 42  1  0  0  0  0
  6  7  1  0  0  0  0
  6 16  2  0  0  0  0
  7  8  1  0  0  0  0
  7  9  2  0  0  0  0
  9 10  1  0  0  0  0
  9 18  1  0  0  0  0
 10 11  2  0  0  0  0
 10 15  1  0  0  0  0
 11 12  1  0  0  0  0
 11 43  1  0  0  0  0
 12 13  2  0  0  0  0
 12 44  1  0  0  0  0
 13 14  1  0  0  0  0
 13 17  1  0  0  0  0
 14 15  2  0  0  0  0
 14 45  1  0  0  0  0
 15 16  1  0  0  0  0
 18 19  1  0  0  0  0
 18 46  1  0  0  0  0
 19 20  2  0  0  0  0
 19 24  1  0  0  0  0
 20 21  1  0  0  0  0
 20 47  1  0  0  0  0
 21 22  2  0  0  0  0
 21 32  1  0  0  0  0
 22 23  1  0  0  0  0
 22 31  1  0  0  0  0
 23 24  2  0  0  0  0
 23 25  1  0  0  0  0
 24 48  1  0  0  0  0
 25 26  1  0  0  0  0
 25 49  1  0  0  0  0
 25 50  1  0  0  0  0
 26 27  1  0  0  0  0
 26 30  1  0  0  0  0
 27 28  1  0  0  0  0
 27 51  1  0  0  0  0
 27 52  1  0  0  0  0
 28 29  1  0  0  0  0
 28 53  1  0  0  0  0
 28 54  1  0  0  0  0
 29 30  1  0  0  0  0
 29 55  1  0  0  0  0
 29 56  1  0  0  0  0
 30 57  1  0  0  0  0
 30 58  1  0  0  0  0
 31 59  1  0  0  0  0
 32 33  1  0  0  0  0
 32 60  1  0  0  0  0
 32 61  1  0  0  0  0
 33 34  1  0  0  0  0
 33 37  1  0  0  0  0
 34 35  1  0  0  0  0
 34 62  1  0  0  0  0
 34 63  1  0  0  0  0
 35 36  1  0  0  0  0
 35 64  1  0  0  0  0
 35 65  1  0  0  0  0
 36 37  1  0  0  0  0
 36 66  1  0  0  0  0
 36 67  1  0  0  0  0
 37 68  1  0  0  0  0
 37 69  1  0  0  0  0
M  END
>  <DRUGBANK_ID>
DB12975

>  <COMMON_NAME>
Pyronaridine

>  <CAS_NUMBER>
74847-35-1

>  <UNII>
TD3P7Q3SG6

>  <SYNONYMS>
Pyronaridine

$$$$
