775
 OpenBabel10282417113D

 66 67  0  0  1  0  0  0  0  0999 V2000
    1.0387   -0.0394   -0.0726 S   0  0  0  0  0  0  0  0  0  0  0  0
   -5.2605    0.8653    2.5279 O   0  0  0  0  0  0  0  0  0  0  0  0
    0.4769    1.2893    0.1401 O   0  0  0  0  0  0  0  0  0  0  0  0
    0.6221   -0.8104   -1.2039 O   0  0  0  0  0  0  0  0  0  0  0  0
    1.7506   -1.8571    4.6171 O   0  0  0  0  0  0  0  0  0  0  0  0
   -0.4104   -1.6022    4.4086 O   0  0  0  0  0  0  0  0  0  0  0  0
   -4.9883    7.4279    0.3799 N   0  0  0  0  0  0  0  0  0  0  0  0
    0.7079   -0.9721    1.3177 N   0  0  0  0  0  0  0  0  0  0  0  0
   -4.6355    5.6058    2.6435 C   0  0  0  0  0  0  0  0  0  0  0  0
   -5.2321    5.2045    1.2771 C   0  0  0  0  0  0  0  0  0  0  0  0
   -4.6778    7.1050    2.8116 C   0  0  0  0  0  0  0  0  0  0  0  0
   -3.4933    4.6638    2.9665 C   0  0  0  0  0  0  0  0  0  0  0  0
   -4.6574    6.0353    0.1439 C   0  0  0  0  0  0  0  0  0  0  0  0
   -4.3055    7.9056    1.5825 C   0  0  0  0  0  0  0  0  0  0  0  0
   -4.0633    3.6148    4.0526 C   0  0  0  0  0  0  0  0  0  0  0  0
   -5.5275    3.0448    3.8564 C   0  0  0  0  0  0  0  0  0  0  0  0
   -5.8724    2.1654    2.6226 C   0  0  0  0  0  0  0  0  0  0  0  0
    1.0459   -0.4427    2.7119 C   0  0  1  0  0  0  0  0  0  0  0  0
    0.4111    0.9312    2.9504 C   0  0  0  0  0  0  0  0  0  0  0  0
    2.8262    0.0323   -0.0416 C   0  0  0  0  0  0  0  0  0  0  0  0
   -3.9108    0.8098    2.3897 C   0  0  0  0  0  0  0  0  0  0  0  0
    3.3752    0.9223   -1.1520 C   0  0  0  0  0  0  0  0  0  0  0  0
   -1.0902    0.8801    2.7431 C   0  0  0  0  0  0  0  0  0  0  0  0
    2.9683    2.3942   -1.0209 C   0  0  0  0  0  0  0  0  0  0  0  0
   -3.1162    1.9001    2.1408 C   0  0  0  0  0  0  0  0  0  0  0  0
   -3.2510   -0.3587    2.5145 C   0  0  0  0  0  0  0  0  0  0  0  0
   -1.7650    2.0328    2.4866 C   0  0  0  0  0  0  0  0  0  0  0  0
   -1.8685   -0.3016    2.6489 C   0  0  0  0  0  0  0  0  0  0  0  0
    0.6945   -1.3500    3.9505 C   0  0  0  0  0  0  0  0  0  0  0  0
    3.4123    2.9971    0.3040 C   0  0  0  0  0  0  0  0  0  0  0  0
    2.6297   -1.6390    4.2793 H   0  0  0  0  0  0  0  0  0  0  0  0
   -4.7008    7.9820   -0.4229 H   0  0  0  0  0  0  0  0  0  0  0  0
   -0.2962   -1.1457    1.1975 H   0  0  0  0  0  0  0  0  0  0  0  0
   -5.2837    5.3993    3.4836 H   0  0  0  0  0  0  0  0  0  0  0  0
   -4.9953    4.1881    0.9690 H   0  0  0  0  0  0  0  0  0  0  0  0
   -6.3231    5.2553    1.3383 H   0  0  0  0  0  0  0  0  0  0  0  0
   -5.7460    7.3078    3.0075 H   0  0  0  0  0  0  0  0  0  0  0  0
   -4.1452    7.4401    3.7051 H   0  0  0  0  0  0  0  0  0  0  0  0
   -2.5026    5.0458    3.2347 H   0  0  0  0  0  0  0  0  0  0  0  0
   -3.2211    4.2796    1.9810 H   0  0  0  0  0  0  0  0  0  0  0  0
   -3.5685    5.8986    0.0720 H   0  0  0  0  0  0  0  0  0  0  0  0
   -5.0730    5.6843   -0.8075 H   0  0  0  0  0  0  0  0  0  0  0  0
   -4.6111    8.9414    1.7546 H   0  0  0  0  0  0  0  0  0  0  0  0
   -3.2217    7.8792    1.4485 H   0  0  0  0  0  0  0  0  0  0  0  0
   -4.0283    4.1527    5.0080 H   0  0  0  0  0  0  0  0  0  0  0  0
   -3.4172    2.7611    4.2767 H   0  0  0  0  0  0  0  0  0  0  0  0
   -6.2448    3.8759    3.8689 H   0  0  0  0  0  0  0  0  0  0  0  0
   -5.7841    2.4702    4.7541 H   0  0  0  0  0  0  0  0  0  0  0  0
   -5.7547    2.6794    1.6748 H   0  0  0  0  0  0  0  0  0  0  0  0
   -6.9553    1.9835    2.6513 H   0  0  0  0  0  0  0  0  0  0  0  0
    2.1347   -0.3430    2.7279 H   0  0  0  0  0  0  0  0  0  0  0  0
    0.6832    1.3334    3.9363 H   0  0  0  0  0  0  0  0  0  0  0  0
    0.8607    1.6673    2.2676 H   0  0  0  0  0  0  0  0  0  0  0  0
    3.1539    0.3818    0.9383 H   0  0  0  0  0  0  0  0  0  0  0  0
    3.1766   -0.9973   -0.1623 H   0  0  0  0  0  0  0  0  0  0  0  0
    4.4702    0.8589   -1.1468 H   0  0  0  0  0  0  0  0  0  0  0  0
    3.0397    0.5400   -2.1230 H   0  0  0  0  0  0  0  0  0  0  0  0
    3.3954    2.9676   -1.8495 H   0  0  0  0  0  0  0  0  0  0  0  0
    1.8885    2.5116   -1.1374 H   0  0  0  0  0  0  0  0  0  0  0  0
   -3.6863    2.7041    1.7617 H   0  0  0  0  0  0  0  0  0  0  0  0
   -3.7595   -1.3114    2.4960 H   0  0  0  0  0  0  0  0  0  0  0  0
   -1.2727    3.0043    2.5392 H   0  0  0  0  0  0  0  0  0  0  0  0
   -1.4451   -1.2901    2.6764 H   0  0  0  0  0  0  0  0  0  0  0  0
    4.5038    2.9896    0.3719 H   0  0  0  0  0  0  0  0  0  0  0  0
    3.0582    4.0265    0.3959 H   0  0  0  0  0  0  0  0  0  0  0  0
    3.0177    2.4514    1.1662 H   0  0  0  0  0  0  0  0  0  0  0  0
  1  3  2  0  0  0  0
  1  4  2  0  0  0  0
  1  8  1  0  0  0  0
  1 20  1  0  0  0  0
  2 17  1  0  0  0  0
  2 21  1  0  0  0  0
  5 29  1  0  0  0  0
  5 31  1  0  0  0  0
  6 29  2  0  0  0  0
  7 13  1  0  0  0  0
  7 14  1  0  0  0  0
  7 32  1  0  0  0  0
  8 33  1  0  0  0  0
  9 10  1  0  0  0  0
  9 11  1  0  0  0  0
  9 12  1  0  0  0  0
  9 34  1  0  0  0  0
 10 13  1  0  0  0  0
 10 35  1  0  0  0  0
 10 36  1  0  0  0  0
 11 14  1  0  0  0  0
 11 37  1  0  0  0  0
 11 38  1  0  0  0  0
 12 15  1  0  0  0  0
 12 39  1  0  0  0  0
 12 40  1  0  0  0  0
 13 41  1  0  0  0  0
 13 42  1  0  0  0  0
 14 43  1  0  0  0  0
 14 44  1  0  0  0  0
 15 16  1  0  0  0  0
 15 45  1  0  0  0  0
 15 46  1  0  0  0  0
 16 17  1  0  0  0  0
 16 47  1  0  0  0  0
 16 48  1  0  0  0  0
 17 49  1  0  0  0  0
 17 50  1  0  0  0  0
 18  8  1  0  0  0  0
 18 19  1  0  0  0  0
 18 29  1  0  0  0  0
 18 51  1  1  0  0  0
 19 23  1  0  0  0  0
 19 52  1  0  0  0  0
 19 53  1  0  0  0  0
 20 22  1  0  0  0  0
 20 54  1  0  0  0  0
 20 55  1  0  0  0  0
 21 25  2  0  0  0  0
 21 26  1  0  0  0  0
 22 24  1  0  0  0  0
 22 56  1  0  0  0  0
 22 57  1  0  0  0  0
 23 27  2  0  0  0  0
 23 28  1  0  0  0  0
 24 30  1  0  0  0  0
 24 58  1  0  0  0  0
 24 59  1  0  0  0  0
 25 27  1  0  0  0  0
 25 60  1  0  0  0  0
 26 28  2  0  0  0  0
 26 61  1  0  0  0  0
 27 62  1  0  0  0  0
 28 63  1  0  0  0  0
 30 64  1  0  0  0  0
 30 65  1  0  0  0  0
 30 66  1  0  0  0  0
M  END
>  <DRUGBANK_ID>
DB00775

>  <SECONDARY_ACCESSION_NUMBERS>
APRD00304

>  <COMMON_NAME>
Tirofiban

>  <CAS_NUMBER>
144494-65-5

>  <UNII>
GGX234SI5H

>  <SYNONYMS>
(2S)-2-(butylsulfonylamino)-3-[4-(4-piperidin-4-ylbutoxy)phenyl]propanoic acid; N-(Butylsulfonyl)-O-(4-(4-piperidyl)butyl)-L-tyrosine; Tirofiban; Tirofib√°n; Tirofibanum

$$$$
