VPU
 OpenBabel10282417173D

 53 54  0  0  0  0  0  0  0  0999 V2000
    1.4463   -0.2129   -0.6251 C   0  0  0  0  0  0  0  0  0  0  0  0
    0.9173   -1.2786   -1.5785 C   0  0  0  0  0  0  0  0  0  0  0  0
    1.0956   -2.6211   -0.8741 C   0  0  0  0  0  0  0  0  0  0  0  0
    0.3486   -2.8151    0.4873 C   0  0  0  0  0  0  0  0  0  0  0  0
   -1.2083   -2.7287    0.5105 C   0  0  0  0  0  0  0  0  0  0  0  0
   -1.8577   -3.7381    0.8036 O   0  0  0  0  0  0  0  0  0  0  0  0
   -1.9308   -1.5540    0.2762 N   0  0  0  0  0  0  0  0  0  0  0  0
   -1.3473   -0.1897    0.2255 C   0  0  2  0  0  0  0  0  0  0  0  0
   -0.7340    0.0863    1.6475 C   0  0  1  0  0  0  0  0  0  0  0  0
    0.6515    0.2763    1.9244 O   0  0  0  0  0  0  0  0  0  0  0  0
   -1.5404    1.1999    2.2360 C   0  0  2  0  0  0  0  0  0  0  0  0
   -2.8906    0.7619    2.4062 O   0  0  0  0  0  0  0  0  0  0  0  0
   -1.4618    2.4467    1.3324 C   0  0  1  0  0  0  0  0  0  0  0  0
   -0.0606    3.0945    1.1850 C   0  0  0  0  0  0  0  0  0  0  0  0
    0.8564    2.7556    2.2212 O   0  0  0  0  0  0  0  0  0  0  0  0
   -1.9881    2.2211   -0.0031 O   0  0  0  0  0  0  0  0  0  0  0  0
   -1.4856    1.1556   -0.6717 C   0  0  0  0  0  0  0  0  0  0  0  0
   -0.9997    1.2389   -1.8944 N   0  0  0  0  0  0  0  0  0  0  0  0
   -0.9852    2.5550   -2.4521 O   0  0  0  0  0  0  0  0  0  0  0  0
   -0.2543    2.6890   -3.6396 C   0  0  0  0  0  0  0  0  0  0  0  0
    0.4532    1.7975   -4.1714 O   0  0  0  0  0  0  0  0  0  0  0  0
   -0.4023    3.9088   -4.2853 N   0  0  0  0  0  0  0  0  0  0  0  0
   -0.9980    5.0460   -3.7114 C   0  0  0  0  0  0  0  0  0  0  0  0
   -0.7844    5.3101   -2.3589 C   0  0  0  0  0  0  0  0  0  0  0  0
   -1.3535    6.4191   -1.7497 C   0  0  0  0  0  0  0  0  0  0  0  0
   -2.1196    7.2997   -2.5032 C   0  0  0  0  0  0  0  0  0  0  0  0
   -2.2986    7.0765   -3.8704 C   0  0  0  0  0  0  0  0  0  0  0  0
   -1.7495    5.9399   -4.4795 C   0  0  0  0  0  0  0  0  0  0  0  0
   -0.7143   -0.5438   -0.5117 H   0  0  0  0  0  0  0  0  0  0  0  0
   -0.9066   -0.8177    2.2364 H   0  0  0  0  0  0  0  0  0  0  0  0
   -1.1466    1.4142    3.2329 H   0  0  0  0  0  0  0  0  0  0  0  0
   -2.1329    3.1822    1.7806 H   0  0  0  0  0  0  0  0  0  0  0  0
    1.2105   -0.6132    0.3352 H   0  0  0  0  0  0  0  0  0  0  0  0
    1.0109    0.7860   -0.6770 H   0  0  0  0  0  0  0  0  0  0  0  0
    2.5220   -0.1150   -0.5462 H   0  0  0  0  0  0  0  0  0  0  0  0
   -0.1433   -1.3137   -1.8654 H   0  0  0  0  0  0  0  0  0  0  0  0
    1.3615   -1.1047   -2.5526 H   0  0  0  0  0  0  0  0  0  0  0  0
    0.7556   -3.3987   -1.5580 H   0  0  0  0  0  0  0  0  0  0  0  0
    2.1734   -2.7428   -0.7108 H   0  0  0  0  0  0  0  0  0  0  0  0
    0.6110   -3.8355    0.8134 H   0  0  0  0  0  0  0  0  0  0  0  0
    0.7641   -2.2237    1.3139 H   0  0  0  0  0  0  0  0  0  0  0  0
   -2.9321   -1.6948    0.3365 H   0  0  0  0  0  0  0  0  0  0  0  0
    0.9330    1.2089    2.0187 H   0  0  0  0  0  0  0  0  0  0  0  0
   -3.2302    0.3871    1.5742 H   0  0  0  0  0  0  0  0  0  0  0  0
    0.4170    2.8124    0.2386 H   0  0  0  0  0  0  0  0  0  0  0  0
   -0.1538    4.1818    1.1549 H   0  0  0  0  0  0  0  0  0  0  0  0
    0.4418    2.8819    3.0940 H   0  0  0  0  0  0  0  0  0  0  0  0
   -0.0563    3.9763   -5.2370 H   0  0  0  0  0  0  0  0  0  0  0  0
   -0.1342    4.6716   -1.7695 H   0  0  0  0  0  0  0  0  0  0  0  0
   -1.1742    6.5943   -0.6945 H   0  0  0  0  0  0  0  0  0  0  0  0
   -2.5689    8.1641   -2.0224 H   0  0  0  0  0  0  0  0  0  0  0  0
   -2.8714    7.7929   -4.4555 H   0  0  0  0  0  0  0  0  0  0  0  0
   -1.9739    5.7471   -5.5264 H   0  0  0  0  0  0  0  0  0  0  0  0
  1  2  1  0  0  0  0
  1 33  1  0  0  0  0
  1 34  1  0  0  0  0
  1 35  1  0  0  0  0
  2  3  1  0  0  0  0
  2 36  1  0  0  0  0
  2 37  1  0  0  0  0
  3  4  1  0  0  0  0
  3 38  1  0  0  0  0
  3 39  1  0  0  0  0
  4  5  1  0  0  0  0
  4 40  1  0  0  0  0
  4 41  1  0  0  0  0
  5  6  2  0  0  0  0
  5  7  1  0  0  0  0
  7 42  1  0  0  0  0
  8  7  1  0  0  0  0
  8  9  1  0  0  0  0
  8 17  1  0  0  0  0
  8 29  1  6  0  0  0
  9 11  1  0  0  0  0
  9 30  1  1  0  0  0
  9 10  1  0  0  0  0
 10 43  1  0  0  0  0
 11 12  1  0  0  0  0
 11 13  1  0  0  0  0
 11 31  1  1  0  0  0
 12 44  1  0  0  0  0
 13 16  1  0  0  0  0
 13 32  1  1  0  0  0
 13 14  1  0  0  0  0
 14 15  1  0  0  0  0
 14 45  1  0  0  0  0
 14 46  1  0  0  0  0
 15 47  1  0  0  0  0
 16 17  1  0  0  0  0
 17 18  2  0  0  0  0
 18 19  1  0  0  0  0
 19 20  1  0  0  0  0
 20 21  2  0  0  0  0
 20 22  1  0  0  0  0
 22 23  1  0  0  0  0
 22 48  1  0  0  0  0
 23 24  2  0  0  0  0
 23 28  1  0  0  0  0
 24 25  1  0  0  0  0
 24 49  1  0  0  0  0
 25 26  2  0  0  0  0
 25 50  1  0  0  0  0
 26 27  1  0  0  0  0
 26 51  1  0  0  0  0
 27 28  2  0  0  0  0
 27 52  1  0  0  0  0
 28 53  1  0  0  0  0
M  END
>  <DRUGBANK_ID>
DB08704

>  <COMMON_NAME>
[[(3R,4R,5S,6R)-4,5-dihydroxy-6-(hydroxymethyl)-3-(pentanoylamino)oxan-2-ylidene]amino] N-phenylcarbamate

$$$$
