
 OpenBabel10282417183D

 36 37  0  0  0  0  0  0  0  0999 V2000
    1.0421    0.1310   -0.0691 C   0  0  0  0  0  0  0  0  0  0  0  0
    4.7973   -4.6628   -0.5686 C   0  0  0  0  0  0  0  0  0  0  0  0
    4.1460   -6.0404   -0.5168 C   0  0  0  0  0  0  0  0  0  0  0  0
    5.1669   -4.2598    0.8498 C   0  0  0  0  0  0  0  0  0  0  0  0
    0.7929   -4.8171   -0.4482 C   0  0  0  0  0  0  0  0  0  0  0  0
    2.0176   -3.7415    1.3228 C   0  0  0  0  0  0  0  0  0  0  0  0
    0.5010   -3.5680   -0.9871 C   0  0  0  0  0  0  0  0  0  0  0  0
    1.8131   -2.5085    0.7354 C   0  0  0  0  0  0  0  0  0  0  0  0
    2.1756   -6.2386    1.1190 C   0  0  0  0  0  0  0  0  0  0  0  0
    0.5307   -1.0482   -0.8999 C   0  0  3  0  0  0  0  0  0  0  0  0
    1.6036   -4.9117    0.6840 C   0  0  0  0  0  0  0  0  0  0  0  0
    0.9986   -2.3978   -0.3912 C   0  0  0  0  0  0  0  0  0  0  0  0
    3.7022   -6.3115    0.9239 C   0  0  3  0  0  0  0  0  0  0  0  0
    4.4634   -5.2721    1.7156 C   0  0  0  0  0  0  0  0  0  0  0  0
   -0.9896   -1.0101   -0.9276 C   0  0  0  0  0  0  0  0  0  0  0  0
    4.4606   -5.2172    2.9418 O   0  0  0  0  0  0  0  0  0  0  0  0
   -1.6837   -0.9132   -1.9346 O   0  0  0  0  0  0  0  0  0  0  0  0
   -1.5615   -1.1714    0.2837 O   0  0  0  0  0  0  0  0  0  0  0  0
    0.7195    0.0476    0.9772 H   0  0  0  0  0  0  0  0  0  0  0  0
    0.6666    1.0819   -0.4524 H   0  0  0  0  0  0  0  0  0  0  0  0
    2.1379    0.1712   -0.0787 H   0  0  0  0  0  0  0  0  0  0  0  0
    4.1111   -3.9322   -1.0139 H   0  0  0  0  0  0  0  0  0  0  0  0
    5.6852   -4.6795   -1.2086 H   0  0  0  0  0  0  0  0  0  0  0  0
    3.3121   -6.0957   -1.2254 H   0  0  0  0  0  0  0  0  0  0  0  0
    4.8658   -6.8022   -0.8325 H   0  0  0  0  0  0  0  0  0  0  0  0
    4.8106   -3.2474    1.0693 H   0  0  0  0  0  0  0  0  0  0  0  0
    6.2423   -4.3112    1.0245 H   0  0  0  0  0  0  0  0  0  0  0  0
    0.3915   -5.7079   -0.9240 H   0  0  0  0  0  0  0  0  0  0  0  0
    2.5740   -3.7676    2.2561 H   0  0  0  0  0  0  0  0  0  0  0  0
   -0.1344   -3.5095   -1.8690 H   0  0  0  0  0  0  0  0  0  0  0  0
    2.2901   -1.6514    1.2023 H   0  0  0  0  0  0  0  0  0  0  0  0
    1.9005   -6.4268    2.1627 H   0  0  0  0  0  0  0  0  0  0  0  0
    1.7206   -7.0409    0.5227 H   0  0  0  0  0  0  0  0  0  0  0  0
    0.8952   -0.9273   -1.9284 H   0  0  0  0  0  0  0  0  0  0  0  0
    4.0622   -7.2982    1.2364 H   0  0  0  0  0  0  0  0  0  0  0  0
   -2.5241   -1.2319    0.1177 H   0  0  0  0  0  0  0  0  0  0  0  0
  1 19  1  0  0  0  0
  1 20  1  0  0  0  0
  1 21  1  0  0  0  0
  2 22  1  0  0  0  0
  2 23  1  0  0  0  0
  3  2  1  0  0  0  0
  3 24  1  0  0  0  0
  3 25  1  0  0  0  0
  4  2  1  0  0  0  0
  4 26  1  0  0  0  0
  4 27  1  0  0  0  0
  5 28  1  0  0  0  0
  6 29  1  0  0  0  0
  7  5  1  0  0  0  0
  7 30  1  0  0  0  0
  8  6  2  0  0  0  0
  8 31  1  0  0  0  0
  9 32  1  0  0  0  0
  9 33  1  0  0  0  0
 10  1  1  0  0  0  0
 10 34  1  0  0  0  0
 11  5  2  0  0  0  0
 11  6  1  0  0  0  0
 11  9  1  0  0  0  0
 12  7  2  0  0  0  0
 12  8  1  0  0  0  0
 12 10  1  0  0  0  0
 13  3  1  0  0  0  0
 13  9  1  0  0  0  0
 13 35  1  0  0  0  0
 14  4  1  0  0  0  0
 14 13  1  0  0  0  0
 15 10  1  0  0  0  0
 16 14  2  0  0  0  0
 17 15  2  0  0  0  0
 18 15  1  0  0  0  0
 18 36  1  0  0  0  0
M  END
>  <DRUGBANK_ID>
DB09212

>  <COMMON_NAME>
Loxoprofen

>  <CAS_NUMBER>
68767-14-6

>  <UNII>
3583H0GZAP

>  <SYNONYMS>
Loxoprofen; Loxoprofene; Loxoprofeno; Loxoprofenum

$$$$
