
 OpenBabel10282417203D

 45 47  0  0  0  0  0  0  0  0999 V2000
   -2.9005   -2.4093    0.5967 C   0  0  0  0  0  0  0  0  0  0  0  0
   -3.0144   -1.1220    0.1409 C   0  0  0  0  0  0  0  0  0  0  0  0
   -3.7915   -0.1361    1.3543 S   0  0  0  0  0  0  0  0  0  0  0  0
   -3.3143   -1.2487    2.6059 C   0  0  0  0  0  0  0  0  0  0  0  0
   -3.3293   -2.4935    1.9660 C   0  0  0  0  0  0  0  0  0  0  0  0
   -2.8971   -0.8290    3.9881 C   0  0  0  0  0  0  0  0  0  0  0  0
   -2.8813    0.3677    4.3785 O   0  0  0  0  0  0  0  0  0  0  0  0
   -2.4582   -1.7516    4.9507 N   0  0  0  0  0  0  0  0  0  0  0  0
   -2.2425   -3.1190    4.7163 C   0  0  0  0  0  0  0  0  0  0  0  0
   -3.1720   -4.0511    5.2503 C   0  0  0  0  0  0  0  0  0  0  0  0
   -3.1797   -5.3752    4.8100 C   0  0  0  0  0  0  0  0  0  0  0  0
   -2.2411   -5.7699    3.8613 C   0  0  0  0  0  0  0  0  0  0  0  0
   -1.2832   -4.8674    3.3631 C   0  0  0  0  0  0  0  0  0  0  0  0
   -1.2312   -3.5237    3.8016 C   0  0  0  0  0  0  0  0  0  0  0  0
   -0.1364   -2.5731    3.2342 C   0  0  0  0  0  0  0  0  0  0  0  0
   -0.6563   -1.4821    2.4119 N   0  0  0  0  0  0  0  0  0  0  0  0
    0.0680   -0.2904    1.9921 C   0  0  1  0  0  0  0  0  0  0  0  0
   -0.7916    0.7324    1.1702 C   0  0  0  0  0  0  0  0  0  0  0  0
   -0.0760    1.9865    0.7320 C   0  0  0  0  0  0  0  0  0  0  0  0
    0.4237    2.6675    1.9866 C   0  0  1  0  0  0  0  0  0  0  0  0
    1.2716    1.7012    2.8163 C   0  0  0  0  0  0  0  0  0  0  0  0
    0.5349    0.4428    3.2274 C   0  0  0  0  0  0  0  0  0  0  0  0
    1.2143    3.7797    1.6090 O   0  0  0  0  0  0  0  0  0  0  0  0
   -2.2713   -7.5507    3.2178 Br  0  0  0  0  0  0  0  0  0  0  0  0
   -4.5665   -3.5249    6.4375 Br  0  0  0  0  0  0  0  0  0  0  0  0
   -2.3826   -3.2081    0.0691 H   0  0  0  0  0  0  0  0  0  0  0  0
   -2.6202   -0.7247   -0.7924 H   0  0  0  0  0  0  0  0  0  0  0  0
   -3.2245   -3.4224    2.4776 H   0  0  0  0  0  0  0  0  0  0  0  0
   -2.6319   -1.4590    5.9078 H   0  0  0  0  0  0  0  0  0  0  0  0
   -3.9383   -6.0748    5.1607 H   0  0  0  0  0  0  0  0  0  0  0  0
   -0.6208   -5.1988    2.5670 H   0  0  0  0  0  0  0  0  0  0  0  0
    0.4546   -2.2344    4.0882 H   0  0  0  0  0  0  0  0  0  0  0  0
    0.5135   -3.1695    2.5858 H   0  0  0  0  0  0  0  0  0  0  0  0
   -1.0366   -1.8911    1.5748 H   0  0  0  0  0  0  0  0  0  0  0  0
    0.8824   -0.6035    1.3323 H   0  0  0  0  0  0  0  0  0  0  0  0
   -1.6157    1.1066    1.7896 H   0  0  0  0  0  0  0  0  0  0  0  0
   -1.1563    0.3139    0.2409 H   0  0  0  0  0  0  0  0  0  0  0  0
   -0.7617    2.6493    0.1792 H   0  0  0  0  0  0  0  0  0  0  0  0
    0.7236    1.7370    0.0255 H   0  0  0  0  0  0  0  0  0  0  0  0
   -0.4365    3.0273    2.5681 H   0  0  0  0  0  0  0  0  0  0  0  0
    2.1390    1.3951    2.2195 H   0  0  0  0  0  0  0  0  0  0  0  0
    1.6430    2.2032    3.7092 H   0  0  0  0  0  0  0  0  0  0  0  0
   -0.3224    0.7029    3.8624 H   0  0  0  0  0  0  0  0  0  0  0  0
    1.1926   -0.1996    3.8161 H   0  0  0  0  0  0  0  0  0  0  0  0
    1.9615    3.4253    1.0989 H   0  0  0  0  0  0  0  0  0  0  0  0
  1  2  2  0  0  0  0
  1  5  1  0  0  0  0
  1 26  1  0  0  0  0
  2  3  1  0  0  0  0
  2 27  1  0  0  0  0
  3  4  1  0  0  0  0
  4  5  2  0  0  0  0
  4  6  1  0  0  0  0
  5 28  1  0  0  0  0
  6  7  2  0  0  0  0
  6  8  1  0  0  0  0
  8  9  1  0  0  0  0
  8 29  1  0  0  0  0
  9 10  2  0  0  0  0
  9 14  1  0  0  0  0
 10 11  1  0  0  0  0
 10 25  1  0  0  0  0
 11 12  2  0  0  0  0
 11 30  1  0  0  0  0
 12 13  1  0  0  0  0
 12 24  1  0  0  0  0
 13 14  2  0  0  0  0
 13 31  1  0  0  0  0
 14 15  1  0  0  0  0
 15 16  1  0  0  0  0
 15 32  1  0  0  0  0
 15 33  1  0  0  0  0
 16 34  1  0  0  0  0
 17 18  1  0  0  0  0
 17 22  1  0  0  0  0
 17 35  1  6  0  0  0
 17 16  1  0  0  0  0
 18 19  1  0  0  0  0
 18 36  1  0  0  0  0
 18 37  1  0  0  0  0
 19 20  1  0  0  0  0
 19 38  1  0  0  0  0
 19 39  1  0  0  0  0
 20 21  1  0  0  0  0
 20 23  1  0  0  0  0
 20 40  1  1  0  0  0
 21 22  1  0  0  0  0
 21 41  1  0  0  0  0
 21 42  1  0  0  0  0
 22 43  1  0  0  0  0
 22 44  1  0  0  0  0
 23 45  1  0  0  0  0
M  END
>  <DRUGBANK_ID>
DB13239

>  <COMMON_NAME>
Neltenexine

>  <CAS_NUMBER>
99453-84-6

>  <UNII>
U942DGM90X

>  <SYNONYMS>
Neltenexine

$$$$
