
 OpenBabel10282417203D

 47 49  0  0  1  0  0  0  0  0999 V2000
    1.0440   -1.1733   -0.0504 C   0  0  0  0  0  0  0  0  0  0  0  0
    0.9437    1.3532   -0.0170 C   0  0  0  0  0  0  0  0  0  0  0  0
    0.1663    8.8680   -4.4034 C   0  0  0  0  0  0  0  0  0  0  0  0
    0.5766    7.7481   -3.6808 C   0  0  0  0  0  0  0  0  0  0  0  0
   -0.3109    8.7236   -5.7059 C   0  0  0  0  0  0  0  0  0  0  0  0
   -0.9530    1.6884   -5.6670 C   0  0  0  0  0  0  0  0  0  0  0  0
   -1.6059    1.7917   -4.4514 C   0  0  0  0  0  0  0  0  0  0  0  0
    0.5294    6.4839   -4.2731 C   0  0  0  0  0  0  0  0  0  0  0  0
   -0.4477    7.4555   -6.2619 C   0  0  0  0  0  0  0  0  0  0  0  0
   -0.5164    2.8384   -6.2942 C   0  0  0  0  0  0  0  0  0  0  0  0
   -1.4035    4.1638   -4.4610 C   0  0  0  0  0  0  0  0  0  0  0  0
   -1.5357    1.0635    1.6675 C   0  0  0  0  0  0  0  0  0  0  0  0
   -3.9185    2.9031   -2.4672 C   0  0  0  0  0  0  0  0  0  0  0  0
   -1.8116    3.0117   -3.7962 C   0  0  0  0  0  0  0  0  0  0  0  0
   -0.0002    6.3401   -5.5640 C   0  0  0  0  0  0  0  0  0  0  0  0
   -0.6795    4.0724   -5.6557 C   0  0  0  0  0  0  0  0  0  0  0  0
   -1.1461   -0.0481    0.7895 C   0  0  1  0  0  0  0  0  0  0  0  0
   -2.4499    3.0923   -2.4162 C   0  0  2  0  0  0  0  0  0  0  0  0
   -0.9421    1.3722    2.8369 C   0  0  0  0  0  0  0  0  0  0  0  0
   -1.1654   -0.0328   -0.7115 C   0  0  1  0  0  0  0  0  0  0  0  0
   -1.9764    0.9083   -1.5144 C   0  0  0  0  0  0  0  0  0  0  0  0
    0.1615    0.0677   -0.0023 C   0  0  0  0  0  0  0  0  0  0  0  0
   -1.5385    2.7878    3.9012 Br  0  0  0  0  0  0  0  0  0  0  0  0
    0.5335    0.4252    3.5117 Br  0  0  0  0  0  0  0  0  0  0  0  0
   -5.0803    2.7898   -2.5279 N   0  0  0  0  0  0  0  0  0  0  0  0
   -2.8314    0.4075   -2.2292 O   0  0  0  0  0  0  0  0  0  0  0  0
   -0.0767    5.1516   -6.2545 O   0  0  0  0  0  0  0  0  0  0  0  0
   -1.7220    2.2444   -1.4474 O   0  0  0  0  0  0  0  0  0  0  0  0
   -1.4034   -1.0091    1.2302 H   0  0  0  0  0  0  0  0  0  0  0  0
   -2.2966    4.1187   -2.0424 H   0  0  0  0  0  0  0  0  0  0  0  0
   -1.3067   -1.0186   -1.1631 H   0  0  0  0  0  0  0  0  0  0  0  0
    0.5293   -2.0629    0.3334 H   0  0  0  0  0  0  0  0  0  0  0  0
    1.3555   -1.3848   -1.0790 H   0  0  0  0  0  0  0  0  0  0  0  0
    1.9475   -1.0432    0.5547 H   0  0  0  0  0  0  0  0  0  0  0  0
    1.2084    1.6309   -1.0391 H   0  0  0  0  0  0  0  0  0  0  0  0
    0.3983    2.1865    0.4302 H   0  0  0  0  0  0  0  0  0  0  0  0
    1.8707    1.2388    0.5583 H   0  0  0  0  0  0  0  0  0  0  0  0
    0.2144    9.8554   -3.9515 H   0  0  0  0  0  0  0  0  0  0  0  0
    0.9476    7.8667   -2.6655 H   0  0  0  0  0  0  0  0  0  0  0  0
   -0.5744    9.5970   -6.2942 H   0  0  0  0  0  0  0  0  0  0  0  0
   -0.8027    0.6975   -6.0855 H   0  0  0  0  0  0  0  0  0  0  0  0
   -1.9766    0.8565   -4.0668 H   0  0  0  0  0  0  0  0  0  0  0  0
    0.8618    5.6214   -3.7005 H   0  0  0  0  0  0  0  0  0  0  0  0
   -0.9133    7.3238   -7.2342 H   0  0  0  0  0  0  0  0  0  0  0  0
   -0.0663    2.7553   -7.2786 H   0  0  0  0  0  0  0  0  0  0  0  0
   -1.6314    5.1392   -4.0383 H   0  0  0  0  0  0  0  0  0  0  0  0
   -2.3964    1.6526    1.3540 H   0  0  0  0  0  0  0  0  0  0  0  0
  1 32  1  0  0  0  0
  1 33  1  0  0  0  0
  1 34  1  0  0  0  0
  2 35  1  0  0  0  0
  2 36  1  0  0  0  0
  2 37  1  0  0  0  0
  3 38  1  0  0  0  0
  4  3  2  0  0  0  0
  4 39  1  0  0  0  0
  5  3  1  0  0  0  0
  5 40  1  0  0  0  0
  6 41  1  0  0  0  0
  7  6  2  0  0  0  0
  7 42  1  0  0  0  0
  8  4  1  0  0  0  0
  8 43  1  0  0  0  0
  9  5  2  0  0  0  0
  9 44  1  0  0  0  0
 10  6  1  0  0  0  0
 10 45  1  0  0  0  0
 11 46  1  0  0  0  0
 12 47  1  0  0  0  0
 14  7  1  0  0  0  0
 14 11  2  0  0  0  0
 15  8  2  0  0  0  0
 15  9  1  0  0  0  0
 16 10  2  0  0  0  0
 16 11  1  0  0  0  0
 17 29  1  1  0  0  0
 17 12  1  0  0  0  0
 18 28  1  0  0  0  0
 18 30  1  1  0  0  0
 18 14  1  0  0  0  0
 18 13  1  0  0  0  0
 19 12  2  0  0  0  0
 20 17  1  0  0  0  0
 20 21  1  0  0  0  0
 20 31  1  6  0  0  0
 22  1  1  0  0  0  0
 22  2  1  0  0  0  0
 22 17  1  0  0  0  0
 22 20  1  0  0  0  0
 23 19  1  0  0  0  0
 24 19  1  0  0  0  0
 25 13  3  0  0  0  0
 26 21  2  0  0  0  0
 27 15  1  0  0  0  0
 27 16  1  0  0  0  0
 28 21  1  0  0  0  0
M  END
>  <DRUGBANK_ID>
DB13600

>  <COMMON_NAME>
Deltamethrin

>  <CAS_NUMBER>
52918-63-5

>  <UNII>
2JTS8R821G

>  <SYNONYMS>
Decamethrin

$$$$
