
 OpenBabel10282417213D

 43 46  0  0  0  0  0  0  0  0999 V2000
    1.0306   -0.0572    0.0764 C   0  0  0  0  0  0  0  0  0  0  0  0
    0.5055   -0.7162   -1.1906 C   0  0  0  0  0  0  0  0  0  0  0  0
    1.0152   -2.0821   -1.2885 N   0  0  0  0  0  0  0  0  0  0  0  0
   -0.0439   -3.0575   -1.0167 C   0  0  0  0  0  0  0  0  0  0  0  0
    0.6084   -4.4089   -0.9939 C   0  0  0  0  0  0  0  0  0  0  0  0
    1.4239   -4.8267   -2.1982 C   0  0  0  0  0  0  0  0  0  0  0  0
    2.3609   -3.6946   -2.6038 C   0  0  0  0  0  0  0  0  0  0  0  0
    1.6272   -2.3507   -2.5942 C   0  0  0  0  0  0  0  0  0  0  0  0
    2.0866   -6.1040   -1.9832 O   0  0  0  0  0  0  0  0  0  0  0  0
    3.0960   -6.1567   -1.0457 C   0  0  0  0  0  0  0  0  0  0  0  0
    2.9154   -6.1261    0.3530 C   0  0  0  0  0  0  0  0  0  0  0  0
    3.9257   -6.1422    1.2597 N   0  0  0  0  0  0  0  0  0  0  0  0
    5.1928   -6.3000    0.8440 C   0  0  0  0  0  0  0  0  0  0  0  0
    5.4430   -6.4711   -0.5067 C   0  0  0  0  0  0  0  0  0  0  0  0
    4.4302   -6.4015   -1.4721 C   0  0  0  0  0  0  0  0  0  0  0  0
    5.0709   -6.6266   -2.7407 C   0  0  0  0  0  0  0  0  0  0  0  0
    6.4253   -6.8374   -2.5004 C   0  0  0  0  0  0  0  0  0  0  0  0
    6.6301   -6.7338   -1.1546 N   0  0  0  0  0  0  0  0  0  0  0  0
    7.3931   -7.0997   -3.4018 N   0  0  0  0  0  0  0  0  0  0  0  0
    6.9313   -7.1498   -4.6741 C   0  0  0  0  0  0  0  0  0  0  0  0
    5.6123   -6.9582   -5.0608 C   0  0  0  0  0  0  0  0  0  0  0  0
    4.6535   -6.6923   -4.0817 C   0  0  0  0  0  0  0  0  0  0  0  0
    1.6287   -6.0888    1.0231 C   0  0  0  0  0  0  0  0  0  0  0  0
    0.6029   -5.9587    1.5439 N   0  0  0  0  0  0  0  0  0  0  0  0
    0.6816   -0.5703    0.9786 H   0  0  0  0  0  0  0  0  0  0  0  0
    0.6838    0.9801    0.1183 H   0  0  0  0  0  0  0  0  0  0  0  0
    2.1265   -0.0431    0.0910 H   0  0  0  0  0  0  0  0  0  0  0  0
   -0.5903   -0.6906   -1.1987 H   0  0  0  0  0  0  0  0  0  0  0  0
    0.8381   -0.1167   -2.0438 H   0  0  0  0  0  0  0  0  0  0  0  0
   -0.8576   -3.0302   -1.7461 H   0  0  0  0  0  0  0  0  0  0  0  0
   -0.4691   -2.8908   -0.0157 H   0  0  0  0  0  0  0  0  0  0  0  0
   -0.1215   -5.1883   -0.7614 H   0  0  0  0  0  0  0  0  0  0  0  0
    1.3258   -4.2713   -0.1903 H   0  0  0  0  0  0  0  0  0  0  0  0
    0.7207   -5.0009   -3.0255 H   0  0  0  0  0  0  0  0  0  0  0  0
    3.2122   -3.6435   -1.9153 H   0  0  0  0  0  0  0  0  0  0  0  0
    2.7778   -3.8916   -3.5971 H   0  0  0  0  0  0  0  0  0  0  0  0
    2.3641   -1.5744   -2.8210 H   0  0  0  0  0  0  0  0  0  0  0  0
    0.8551   -2.3341   -3.3718 H   0  0  0  0  0  0  0  0  0  0  0  0
    5.9519   -6.3302    1.6153 H   0  0  0  0  0  0  0  0  0  0  0  0
    7.5307   -6.8545   -0.7144 H   0  0  0  0  0  0  0  0  0  0  0  0
    7.6878   -7.3601   -5.4290 H   0  0  0  0  0  0  0  0  0  0  0  0
    5.3305   -7.0176   -6.1069 H   0  0  0  0  0  0  0  0  0  0  0  0
    3.6132   -6.5454   -4.3474 H   0  0  0  0  0  0  0  0  0  0  0  0
  1  2  1  0  0  0  0
  1 25  1  0  0  0  0
  1 26  1  0  0  0  0
  1 27  1  0  0  0  0
  2  3  1  0  0  0  0
  2 28  1  0  0  0  0
  2 29  1  0  0  0  0
  3  4  1  0  0  0  0
  3  8  1  0  0  0  0
  4  5  1  0  0  0  0
  4 30  1  0  0  0  0
  4 31  1  0  0  0  0
  5  6  1  0  0  0  0
  5 32  1  0  0  0  0
  5 33  1  0  0  0  0
  6  7  1  0  0  0  0
  6  9  1  0  0  0  0
  6 34  1  0  0  0  0
  7  8  1  0  0  0  0
  7 35  1  0  0  0  0
  7 36  1  0  0  0  0
  8 37  1  0  0  0  0
  8 38  1  0  0  0  0
  9 10  1  0  0  0  0
 10 11  2  0  0  0  0
 10 15  1  0  0  0  0
 11 12  1  0  0  0  0
 11 23  1  0  0  0  0
 12 13  2  0  0  0  0
 13 14  1  0  0  0  0
 13 39  1  0  0  0  0
 14 15  2  0  0  0  0
 14 18  1  0  0  0  0
 15 16  1  0  0  0  0
 16 17  2  0  0  0  0
 16 22  1  0  0  0  0
 17 18  1  0  0  0  0
 17 19  1  0  0  0  0
 18 40  1  0  0  0  0
 19 20  2  0  0  0  0
 20 21  1  0  0  0  0
 20 41  1  0  0  0  0
 21 22  2  0  0  0  0
 21 42  1  0  0  0  0
 22 43  1  0  0  0  0
 23 24  3  0  0  0  0
M  END
>  <DRUGBANK_ID>
DB14791

>  <COMMON_NAME>
GDC-0425

>  <CAS_NUMBER>
1627539-18-7

>  <UNII>
4N173XZ7SX

$$$$
