
 OpenBabel10282417143D

 22 23  0  0  0  0  0  0  0  0999 V2000
    0.9883    0.0192    0.0759 C   0  0  0  0  0  0  0  0  0  0  0  0
    0.5321   -1.3460    0.3357 N   0  0  0  0  0  0  0  0  0  0  0  0
    1.2027   -2.4832   -0.0348 C   0  0  0  0  0  0  0  0  0  0  0  0
    0.4936   -3.5156    0.5373 C   0  0  0  0  0  0  0  0  0  0  0  0
   -0.6108   -3.0466    1.1904 N   0  0  0  0  0  0  0  0  0  0  0  0
   -0.5986   -1.7438    0.9937 C   0  0  0  0  0  0  0  0  0  0  0  0
    0.6355    1.0516    1.1284 C   0  0  0  0  0  0  0  0  0  0  0  0
    0.3679    0.7091    2.4649 C   0  0  0  0  0  0  0  0  0  0  0  0
    0.1005    1.6749    3.4283 C   0  0  0  0  0  0  0  0  0  0  0  0
    0.2159    3.0173    3.1014 C   0  0  0  0  0  0  0  0  0  0  0  0
    0.5439    3.3878    1.7981 C   0  0  0  0  0  0  0  0  0  0  0  0
    0.7036    2.4161    0.8043 C   0  0  0  0  0  0  0  0  0  0  0  0
    0.5972    0.2928   -0.9113 H   0  0  0  0  0  0  0  0  0  0  0  0
    2.0841   -0.0214    0.0169 H   0  0  0  0  0  0  0  0  0  0  0  0
    2.1010   -2.4683   -0.6332 H   0  0  0  0  0  0  0  0  0  0  0  0
    0.7135   -4.5742    0.5054 H   0  0  0  0  0  0  0  0  0  0  0  0
   -1.3434   -1.0570    1.3684 H   0  0  0  0  0  0  0  0  0  0  0  0
    0.3618   -0.3256    2.7983 H   0  0  0  0  0  0  0  0  0  0  0  0
   -0.1584    1.3633    4.4365 H   0  0  0  0  0  0  0  0  0  0  0  0
    0.0704    3.7700    3.8702 H   0  0  0  0  0  0  0  0  0  0  0  0
    0.6931    4.4383    1.5621 H   0  0  0  0  0  0  0  0  0  0  0  0
    0.9167    2.7391   -0.2137 H   0  0  0  0  0  0  0  0  0  0  0  0
  1  2  1  0  0  0  0
  1  7  1  0  0  0  0
  1 13  1  0  0  0  0
  1 14  1  0  0  0  0
  2  3  1  0  0  0  0
  2  6  1  0  0  0  0
  3  4  2  0  0  0  0
  3 15  1  0  0  0  0
  4  5  1  0  0  0  0
  4 16  1  0  0  0  0
  5  6  2  0  0  0  0
  6 17  1  0  0  0  0
  7  8  2  0  0  0  0
  7 12  1  0  0  0  0
  8  9  1  0  0  0  0
  8 18  1  0  0  0  0
  9 10  2  0  0  0  0
  9 19  1  0  0  0  0
 10 11  1  0  0  0  0
 10 20  1  0  0  0  0
 11 12  2  0  0  0  0
 11 21  1  0  0  0  0
 12 22  1  0  0  0  0
M  END
>  <DRUGBANK_ID>
DB04581

>  <COMMON_NAME>
1-benzylimidazole

>  <CAS_NUMBER>
4238-71-5

>  <UNII>
W4C9Z5BCV7

>  <SYNONYMS>
1-benzyl-1H-imidazole

$$$$
