
 OpenBabel10282417233D

 50 52  0  0  0  0  0  0  0  0999 V2000
    0.9914    0.1380    0.0573 C   0  0  0  0  0  0  0  0  0  0  0  0
    0.5680    0.4707   -1.3909 C   0  0  0  0  0  0  0  0  0  0  0  0
    1.5551   -0.5036   -2.0651 C   0  0  0  0  0  0  0  0  0  0  0  0
   -0.9625    0.6399   -1.7110 N   0  0  0  0  0  0  0  0  0  0  0  0
   -1.5943    0.6927   -3.0361 C   0  0  0  0  0  0  0  0  0  0  0  0
   -1.4492   -0.5718   -4.0977 C   0  0  0  0  0  0  0  0  0  0  0  0
   -1.7610   -2.4926   -3.6192 C   0  0  0  0  0  0  0  0  0  0  0  0
   -2.6017   -2.8932   -4.4413 O   0  0  0  0  0  0  0  0  0  0  0  0
   -0.9000   -3.1294   -1.6709 C   0  0  0  0  0  0  0  0  0  0  0  0
    0.0594   -4.0067   -1.4112 C   0  0  0  0  0  0  0  0  0  0  0  0
    0.0743   -4.3453   -0.1254 C   0  0  0  0  0  0  0  0  0  0  0  0
   -0.1687   -3.4746    1.0101 C   0  0  0  0  0  0  0  0  0  0  0  0
    0.1350   -3.8232    2.2423 C   0  0  0  0  0  0  0  0  0  0  0  0
    0.5956   -5.1024    2.3351 C   0  0  0  0  0  0  0  0  0  0  0  0
    0.6862   -5.9985    1.2445 C   0  0  0  0  0  0  0  0  0  0  0  0
    0.3839   -5.6344   -0.0214 C   0  0  0  0  0  0  0  0  0  0  0  0
   -0.7578   -2.3159    1.0226 C   0  0  0  0  0  0  0  0  0  0  0  0
   -1.4157   -2.3918   -0.1190 C   0  0  0  0  0  0  0  0  0  0  0  0
   -1.7711   -0.3650   -1.1785 C   0  0  0  0  0  0  0  0  0  0  0  0
   -1.8086   -1.5331   -2.0688 C   0  0  0  0  0  0  0  0  0  0  0  0
   -0.1454   -1.8460   -2.9617 C   0  0  0  0  0  0  0  0  0  0  0  0
    0.3419   -3.0924   -3.9263 C   0  0  0  0  0  0  0  0  0  0  0  0
   -0.5700   -4.3848   -3.9111 C   0  0  0  0  0  0  0  0  0  0  0  0
   -2.0149   -4.5346   -2.9095 C   0  0  0  0  0  0  0  0  0  0  0  0
   -2.8264   -3.1254   -2.0368 C   0  0  0  0  0  0  0  0  0  0  0  0
    0.7634   -0.8833    0.3511 H   0  0  0  0  0  0  0  0  0  0  0  0
    0.5702    0.8147    0.7863 H   0  0  0  0  0  0  0  0  0  0  0  0
    2.0854    0.0908    0.1143 H   0  0  0  0  0  0  0  0  0  0  0  0
    0.9225    1.4416   -1.6743 H   0  0  0  0  0  0  0  0  0  0  0  0
    1.2756   -1.5047   -1.6382 H   0  0  0  0  0  0  0  0  0  0  0  0
    1.5121   -0.2511   -3.1468 H   0  0  0  0  0  0  0  0  0  0  0  0
    2.6081   -0.6647   -2.0618 H   0  0  0  0  0  0  0  0  0  0  0  0
   -2.6864    0.7528   -2.8536 H   0  0  0  0  0  0  0  0  0  0  0  0
   -1.2275    1.6547   -3.3584 H   0  0  0  0  0  0  0  0  0  0  0  0
   -1.8109   -0.3394   -5.0784 H   0  0  0  0  0  0  0  0  0  0  0  0
   -0.3932   -0.3318   -4.4050 H   0  0  0  0  0  0  0  0  0  0  0  0
    0.4750   -4.6482   -2.1454 H   0  0  0  0  0  0  0  0  0  0  0  0
   -0.0064   -3.1153    3.0448 H   0  0  0  0  0  0  0  0  0  0  0  0
    0.8906   -5.4081    3.3120 H   0  0  0  0  0  0  0  0  0  0  0  0
    1.0605   -6.9927    1.3603 H   0  0  0  0  0  0  0  0  0  0  0  0
    0.4507   -6.2733   -0.8978 H   0  0  0  0  0  0  0  0  0  0  0  0
   -0.8576   -1.4962    1.7344 H   0  0  0  0  0  0  0  0  0  0  0  0
   -2.2555   -1.5908    0.2332 H   0  0  0  0  0  0  0  0  0  0  0  0
   -1.2088   -0.3583   -0.2579 H   0  0  0  0  0  0  0  0  0  0  0  0
   -2.8624   -0.5120   -1.0780 H   0  0  0  0  0  0  0  0  0  0  0  0
    0.1848   -0.9276   -3.0851 H   0  0  0  0  0  0  0  0  0  0  0  0
    1.2080   -2.9385   -4.5770 H   0  0  0  0  0  0  0  0  0  0  0  0
   -0.0808   -5.2614   -4.3432 H   0  0  0  0  0  0  0  0  0  0  0  0
   -1.7765   -5.4672   -2.3092 H   0  0  0  0  0  0  0  0  0  0  0  0
   -3.0498   -3.5138   -1.0081 H   0  0  0  0  0  0  0  0  0  0  0  0
  1  2  1  0  0  0  0
  1 26  1  0  0  0  0
  1 27  1  0  0  0  0
  1 28  1  0  0  0  0
  2  3  1  0  0  0  0
  2  4  1  0  0  0  0
  2 29  1  0  0  0  0
  3 30  1  0  0  0  0
  3 31  1  0  0  0  0
  3 32  1  0  0  0  0
  4  5  1  0  0  0  0
  4 19  1  0  0  0  0
  5  6  1  0  0  0  0
  5 33  1  0  0  0  0
  5 34  1  0  0  0  0
  6  7  1  0  0  0  0
  6 35  1  0  0  0  0
  6 36  1  0  0  0  0
  7  8  2  0  0  0  0
  7  9  1  0  0  0  0
  9 10  2  0  0  0  0
  9 18  1  0  0  0  0
 10 11  1  0  0  0  0
 10 37  1  0  0  0  0
 11 12  2  0  0  0  0
 11 16  1  0  0  0  0
 12 13  1  0  0  0  0
 12 17  1  0  0  0  0
 13 14  2  0  0  0  0
 13 38  1  0  0  0  0
 14 15  1  0  0  0  0
 14 39  1  0  0  0  0
 15 16  2  0  0  0  0
 15 40  1  0  0  0  0
 16 41  1  0  0  0  0
 17 18  2  0  0  0  0
 17 42  1  0  0  0  0
 18 43  1  0  0  0  0
 19 20  1  0  0  0  0
 19 44  1  0  0  0  0
 19 45  1  0  0  0  0
 20 21  2  0  0  0  0
 20 25  1  0  0  0  0
 21 22  1  0  0  0  0
 21 46  1  0  0  0  0
 22 23  2  0  0  0  0
 22 47  1  0  0  0  0
 23 24  1  0  0  0  0
 23 48  1  0  0  0  0
 24 25  2  0  0  0  0
 24 49  1  0  0  0  0
 25 50  1  0  0  0  0
M  END
>  <DRUGBANK_ID>
DB17064

>  <COMMON_NAME>
ZM-39923

>  <CAS_NUMBER>
273727-89-2

>  <UNII>
M0ZX82000S

>  <SYNONYMS>
1-propanone, 3-((1-methylethyl)(phenylmethyl)amino)-1-(2-naphthalenyl)-; 3-((1-methylethyl)(phenylmethyl)amino)-1-(2-naphthalenyl)-1-propanone; 3-(benzyl(propan-2-yl)amino)-1-(naphthalen-2-yl)propan-1-one; Jak3 inhibitor iv

$$$$
