
 OpenBabel10282417223D

 53 57  0  0  0  0  0  0  0  0999 V2000
    0.9096   -0.0037    0.0041 O   0  0  0  0  0  0  0  0  0  0  0  0
    0.3092   -1.2700   -0.1456 N   0  0  0  0  0  0  0  0  0  0  0  0
   -0.9899   -1.1991   -0.1237 C   0  0  0  0  0  0  0  0  0  0  0  0
   -1.7757    0.0229    0.0216 C   0  0  0  0  0  0  0  0  0  0  0  0
   -3.1122   -0.0251    0.0171 C   0  0  0  0  0  0  0  0  0  0  0  0
   -3.9058   -1.1611   -0.0591 O   0  0  0  0  0  0  0  0  0  0  0  0
   -3.2378   -2.3406   -0.2529 C   0  0  0  0  0  0  0  0  0  0  0  0
   -1.8864   -2.3469   -0.3216 C   0  0  0  0  0  0  0  0  0  0  0  0
   -1.3109   -3.5227   -0.6882 C   0  0  0  0  0  0  0  0  0  0  0  0
   -2.0082   -4.6271   -1.1857 C   0  0  0  0  0  0  0  0  0  0  0  0
   -1.3571   -5.9466   -1.4799 C   0  0  0  0  0  0  0  0  0  0  0  0
   -0.0354   -5.8311   -2.2222 C   0  0  0  0  0  0  0  0  0  0  0  0
    1.0413   -4.9068   -1.5884 C   0  0  0  0  0  0  0  0  0  0  0  0
    1.6177   -5.2667   -0.2460 N   0  0  0  0  0  0  0  0  0  0  0  0
    1.8044   -6.7311   -0.1528 C   0  0  0  0  0  0  0  0  0  0  0  0
    0.5227   -7.5369    0.0306 C   0  0  0  0  0  0  0  0  0  0  0  0
   -0.2642   -7.0456    1.1596 O   0  0  0  0  0  0  0  0  0  0  0  0
   -0.3712   -5.5998    1.2886 C   0  0  0  0  0  0  0  0  0  0  0  0
    0.9015   -4.8281    1.0017 C   0  0  0  0  0  0  0  0  0  0  0  0
   -3.3553   -4.5869   -1.1339 C   0  0  0  0  0  0  0  0  0  0  0  0
   -3.9682   -3.5178   -0.4805 C   0  0  0  0  0  0  0  0  0  0  0  0
   -3.8320    1.2392    0.1239 C   0  0  0  0  0  0  0  0  0  0  0  0
   -3.5758    2.2207   -0.8100 C   0  0  0  0  0  0  0  0  0  0  0  0
   -4.0085    3.4893   -0.4651 C   0  0  0  0  0  0  0  0  0  0  0  0
   -4.8436    3.7141    0.6067 C   0  0  0  0  0  0  0  0  0  0  0  0
   -5.2010    5.0821    0.7931 C   0  0  0  0  0  0  0  0  0  0  0  0
   -4.6326    5.9624   -0.0580 C   0  0  0  0  0  0  0  0  0  0  0  0
   -3.5985    4.8926   -1.2887 S   0  0  0  0  0  0  0  0  0  0  0  0
   -5.2580    2.6031    1.3283 C   0  0  0  0  0  0  0  0  0  0  0  0
   -4.6700    1.4024    1.1631 N   0  0  0  0  0  0  0  0  0  0  0  0
    1.8684   -0.1854   -0.0185 H   0  0  0  0  0  0  0  0  0  0  0  0
   -1.1941    0.9248    0.1161 H   0  0  0  0  0  0  0  0  0  0  0  0
   -0.2956   -3.5058   -0.4161 H   0  0  0  0  0  0  0  0  0  0  0  0
   -1.1333   -6.3508   -0.5445 H   0  0  0  0  0  0  0  0  0  0  0  0
   -2.0179   -6.8209   -1.5817 H   0  0  0  0  0  0  0  0  0  0  0  0
    0.4966   -6.7711   -2.4123 H   0  0  0  0  0  0  0  0  0  0  0  0
   -0.3667   -5.5169   -3.1987 H   0  0  0  0  0  0  0  0  0  0  0  0
    1.8617   -4.8337   -2.3094 H   0  0  0  0  0  0  0  0  0  0  0  0
    0.7196   -3.8748   -1.6718 H   0  0  0  0  0  0  0  0  0  0  0  0
    2.3837   -6.9552    0.7394 H   0  0  0  0  0  0  0  0  0  0  0  0
    2.3664   -7.0635   -1.0328 H   0  0  0  0  0  0  0  0  0  0  0  0
   -0.0273   -7.6151   -0.9012 H   0  0  0  0  0  0  0  0  0  0  0  0
    0.6421   -8.6192    0.0538 H   0  0  0  0  0  0  0  0  0  0  0  0
   -1.1979   -5.2307    1.9231 H   0  0  0  0  0  0  0  0  0  0  0  0
   -0.8877   -5.2025    0.4886 H   0  0  0  0  0  0  0  0  0  0  0  0
    1.4577   -4.9982    1.9105 H   0  0  0  0  0  0  0  0  0  0  0  0
    0.7693   -3.7363    1.0020 H   0  0  0  0  0  0  0  0  0  0  0  0
   -3.8698   -5.4174   -1.5962 H   0  0  0  0  0  0  0  0  0  0  0  0
   -5.0025   -3.6020   -0.2020 H   0  0  0  0  0  0  0  0  0  0  0  0
   -3.0219    2.0470   -1.7221 H   0  0  0  0  0  0  0  0  0  0  0  0
   -5.8645    5.3458    1.6286 H   0  0  0  0  0  0  0  0  0  0  0  0
   -4.1752    6.6244   -0.7551 H   0  0  0  0  0  0  0  0  0  0  0  0
   -6.0531    2.7060    2.0501 H   0  0  0  0  0  0  0  0  0  0  0  0
  1  2  1  0  0  0  0
  1 31  1  0  0  0  0
  2  3  2  0  0  0  0
  3  4  1  0  0  0  0
  3  8  1  0  0  0  0
  4  5  2  0  0  0  0
  4 32  1  0  0  0  0
  5  6  1  0  0  0  0
  5 22  1  0  0  0  0
  6  7  1  0  0  0  0
  7  8  2  0  0  0  0
  7 21  1  0  0  0  0
  8  9  1  0  0  0  0
  9 10  2  0  0  0  0
  9 33  1  0  0  0  0
 10 11  1  0  0  0  0
 10 20  1  0  0  0  0
 11 12  1  0  0  0  0
 11 34  1  0  0  0  0
 11 35  1  0  0  0  0
 12 13  1  0  0  0  0
 12 36  1  0  0  0  0
 12 37  1  0  0  0  0
 13 14  1  0  0  0  0
 13 38  1  0  0  0  0
 13 39  1  0  0  0  0
 14 15  1  0  0  0  0
 14 19  1  0  0  0  0
 15 16  1  0  0  0  0
 15 40  1  0  0  0  0
 15 41  1  0  0  0  0
 16 17  1  0  0  0  0
 16 42  1  0  0  0  0
 16 43  1  0  0  0  0
 17 18  1  0  0  0  0
 18 19  1  0  0  0  0
 18 44  1  0  0  0  0
 18 45  1  0  0  0  0
 19 46  1  0  0  0  0
 19 47  1  0  0  0  0
 20 21  2  0  0  0  0
 20 48  1  0  0  0  0
 21 49  1  0  0  0  0
 22 23  2  0  0  0  0
 22 30  1  0  0  0  0
 23 24  1  0  0  0  0
 23 50  1  0  0  0  0
 24 25  2  0  0  0  0
 24 28  1  0  0  0  0
 25 26  1  0  0  0  0
 25 29  1  0  0  0  0
 26 27  2  0  0  0  0
 26 51  1  0  0  0  0
 27 28  1  0  0  0  0
 27 52  1  0  0  0  0
 29 30  2  0  0  0  0
 29 53  1  0  0  0  0
M  END
>  <DRUGBANK_ID>
DB15292

>  <COMMON_NAME>
Foliglurax

>  <CAS_NUMBER>
1883329-53-0

>  <UNII>
FR50CP1D6W

>  <SYNONYMS>
Foliglurax

$$$$
