
 OpenBabel10282417143D

 66 65  0  0  0  0  0  0  0  0999 V2000
    1.1509   -0.3740   -0.0543 O   0  0  0  0  0  0  0  0  0  0  0  0
    0.5337    0.7897    0.1340 C   0  0  0  0  0  0  0  0  0  0  0  0
    1.3189    1.7228    0.1171 O   0  0  0  0  0  0  0  0  0  0  0  0
   -1.0357    0.2749    0.0676 C   0  0  0  0  0  0  0  0  0  0  0  0
   -1.8176   -0.1814   -1.3534 N   0  0  0  0  0  0  0  0  0  0  0  0
   -3.2932    0.2463   -1.4297 C   0  0  0  0  0  0  0  0  0  0  0  0
   -4.0150    1.5728   -1.8640 C   0  0  0  0  0  0  0  0  0  0  0  0
   -3.4728    2.5533   -3.0554 N   0  0  0  0  0  0  0  0  0  0  0  0
   -3.7886    4.1470   -3.0166 C   0  0  0  0  0  0  0  0  0  0  0  0
   -3.0965    5.0763   -1.1982 C   0  0  0  0  0  0  0  0  0  0  0  0
   -2.0285    6.6093   -1.0631 O   0  0  0  0  0  0  0  0  0  0  0  0
   -2.7943    4.3616   -0.2093 O   0  0  0  0  0  0  0  0  0  0  0  0
   -1.7621    2.7921   -3.2817 C   0  0  0  0  0  0  0  0  0  0  0  0
   -0.3367    3.6181   -1.8381 C   0  0  0  0  0  0  0  0  0  0  0  0
    0.0614    3.2092   -0.6750 O   0  0  0  0  0  0  0  0  0  0  0  0
   -0.4551    5.0981   -1.7036 N   0  0  0  0  0  0  0  0  0  0  0  0
   -2.1990    5.7416   -2.6178 C   0  0  0  0  0  0  0  0  0  0  0  0
   -4.2879    6.0225   -1.7966 C   0  0  0  0  0  0  0  0  0  0  0  0
   -4.3448    7.5851    0.4867 S   0  0  0  0  0  0  0  0  0  0  0  0
   -0.9178    0.3576   -2.5985 C   0  0  0  0  0  0  0  0  0  0  0  0
   -0.6560    1.7269   -2.0723 C   0  0  0  0  0  0  0  0  0  0  0  0
   -1.8665    2.5397   -0.9777 N   0  0  0  0  0  0  0  0  0  0  0  0
   -2.3334    3.6815   -1.7055 C   0  0  0  0  0  0  0  0  0  0  0  0
   -4.4553    3.7923   -1.1803 C   0  0  0  0  0  0  0  0  0  0  0  0
   -5.2594    4.9403   -0.0507 O   0  0  0  0  0  0  0  0  0  0  0  0
   -5.4944    3.8273   -1.9130 O   0  0  0  0  0  0  0  0  0  0  0  0
   -2.0133    2.5303    0.5877 C   0  0  0  0  0  0  0  0  0  0  0  0
   -3.5250    2.5897    0.9905 C   0  0  0  0  0  0  0  0  0  0  0  0
   -4.2281    1.5624    0.9154 O   0  0  0  0  0  0  0  0  0  0  0  0
   -4.0665    4.0494    1.0340 N   0  0  0  0  0  0  0  0  0  0  0  0
   -3.3225    5.8425    0.4738 C   0  0  0  0  0  0  0  0  0  0  0  0
   -3.6352    7.4121   -1.2405 C   0  0  0  0  0  0  0  0  0  0  0  0
   -6.1510    7.2770   -1.3449 S   0  0  0  0  0  0  0  0  0  0  0  0
    2.0447    0.0074   -0.0624 H   0  0  0  0  0  0  0  0  0  0  0  0
   -1.7080    0.3756    0.9045 H   0  0  0  0  0  0  0  0  0  0  0  0
   -0.8034    0.6180   -0.8142 H   0  0  0  0  0  0  0  0  0  0  0  0
   -3.6676   -0.3201   -2.2455 H   0  0  0  0  0  0  0  0  0  0  0  0
   -3.6812   -0.1234   -0.4747 H   0  0  0  0  0  0  0  0  0  0  0  0
   -5.0662    1.7215   -1.4775 H   0  0  0  0  0  0  0  0  0  0  0  0
   -3.6913    2.0725   -1.0265 H   0  0  0  0  0  0  0  0  0  0  0  0
   -3.7018    4.5238   -4.0274 H   0  0  0  0  0  0  0  0  0  0  0  0
   -4.8128    3.6038   -3.4585 H   0  0  0  0  0  0  0  0  0  0  0  0
   -1.9191    7.2980   -1.9067 H   0  0  0  0  0  0  0  0  0  0  0  0
   -2.1662    1.7653   -3.2036 H   0  0  0  0  0  0  0  0  0  0  0  0
   -1.9097    3.3117   -4.1931 H   0  0  0  0  0  0  0  0  0  0  0  0
   -0.4936    4.9254   -0.3532 H   0  0  0  0  0  0  0  0  0  0  0  0
   -1.4174    6.4129   -3.0778 H   0  0  0  0  0  0  0  0  0  0  0  0
   -2.2946    5.1798   -3.5394 H   0  0  0  0  0  0  0  0  0  0  0  0
   -4.8952    6.3634   -2.6663 H   0  0  0  0  0  0  0  0  0  0  0  0
   -5.0510    5.4731   -1.5162 H   0  0  0  0  0  0  0  0  0  0  0  0
   -2.6273    7.3130    0.9110 H   0  0  0  0  0  0  0  0  0  0  0  0
    0.1801    0.5664   -2.6208 H   0  0  0  0  0  0  0  0  0  0  0  0
   -1.4887    0.3225   -3.5367 H   0  0  0  0  0  0  0  0  0  0  0  0
   -0.1108    2.5338   -3.1707 H   0  0  0  0  0  0  0  0  0  0  0  0
   -1.7317    1.7264   -1.6690 H   0  0  0  0  0  0  0  0  0  0  0  0
   -1.6859    4.9055   -1.0116 H   0  0  0  0  0  0  0  0  0  0  0  0
   -1.3984    4.2871   -2.8264 H   0  0  0  0  0  0  0  0  0  0  0  0
   -5.0621    5.9876    0.2013 H   0  0  0  0  0  0  0  0  0  0  0  0
   -1.7735    3.5335    0.7191 H   0  0  0  0  0  0  0  0  0  0  0  0
   -1.2709    2.8983    1.3067 H   0  0  0  0  0  0  0  0  0  0  0  0
   -5.0645    3.8373    0.5459 H   0  0  0  0  0  0  0  0  0  0  0  0
   -3.5374    5.9444    1.5507 H   0  0  0  0  0  0  0  0  0  0  0  0
   -2.1373    5.6130    0.7619 H   0  0  0  0  0  0  0  0  0  0  0  0
   -3.2422    8.3122   -1.5907 H   0  0  0  0  0  0  0  0  0  0  0  0
   -3.4588    6.9754   -2.6942 H   0  0  0  0  0  0  0  0  0  0  0  0
   -6.5148    5.6331   -1.4724 H   0  0  0  0  0  0  0  0  0  0  0  0
  1  2  1  0  0  0  0
  1 34  1  0  0  0  0
  2  3  2  0  0  0  0
  2  4  1  0  0  0  0
  4  5  1  0  0  0  0
  4 35  1  0  0  0  0
  4 36  1  0  0  0  0
  5  6  1  0  0  0  0
  5 20  1  0  0  0  0
  6  7  1  0  0  0  0
  6 37  1  0  0  0  0
  6 38  1  0  0  0  0
  7  8  1  0  0  0  0
  7 39  1  0  0  0  0
  7 40  1  0  0  0  0
  8  9  1  0  0  0  0
  8 13  1  0  0  0  0
  9 10  1  0  0  0  0
  9 41  1  0  0  0  0
  9 42  1  0  0  0  0
 10 11  1  0  0  0  0
 10 12  2  0  0  0  0
 11 43  1  0  0  0  0
 13 14  1  0  0  0  0
 13 44  1  0  0  0  0
 13 45  1  0  0  0  0
 14 15  2  0  0  0  0
 14 16  1  0  0  0  0
 16 17  1  0  0  0  0
 16 46  1  0  0  0  0
 17 18  1  0  0  0  0
 17 47  1  0  0  0  0
 17 48  1  0  0  0  0
 18 19  1  0  0  0  0
 18 49  1  0  0  0  0
 18 50  1  0  0  0  0
 19 51  1  0  0  0  0
 20 21  1  0  0  0  0
 20 52  1  0  0  0  0
 20 53  1  0  0  0  0
 21 22  1  0  0  0  0
 21 54  1  0  0  0  0
 21 55  1  0  0  0  0
 22 23  1  0  0  0  0
 22 27  1  0  0  0  0
 23 24  1  0  0  0  0
 23 56  1  0  0  0  0
 23 57  1  0  0  0  0
 24 25  1  0  0  0  0
 24 26  2  0  0  0  0
 25 58  1  0  0  0  0
 27 28  1  0  0  0  0
 27 59  1  0  0  0  0
 27 60  1  0  0  0  0
 28 29  2  0  0  0  0
 28 30  1  0  0  0  0
 30 31  1  0  0  0  0
 30 61  1  0  0  0  0
 31 32  1  0  0  0  0
 31 62  1  0  0  0  0
 31 63  1  0  0  0  0
 32 33  1  0  0  0  0
 32 64  1  0  0  0  0
 32 65  1  0  0  0  0
 33 66  1  0  0  0  0
M  END
>  <DRUGBANK_ID>
DB04229

>  <SECONDARY_ACCESSION_NUMBERS>
EXPT03274

>  <COMMON_NAME>
7,10,13-Tri(Carboxymethyl)-5,15-Dioxo-4,7,10,13,16-Pentaaza-1,19-Dithianonadecane

$$$$
