
 OpenBabel10282417113D

 56 59  0  0  1  0  0  0  0  0999 V2000
   -6.9041   -0.6796   -6.3195 C   0  0  0  0  0  0  0  0  0  0  0  0
   -7.8070   -1.2677   -5.4359 C   0  0  0  0  0  0  0  0  0  0  0  0
   -5.3079    2.7600   -1.1850 C   0  0  1  0  0  0  0  0  0  0  0  0
   -5.6254    1.0755   -1.4013 C   0  0  2  0  0  0  0  0  0  0  0  0
   -5.1792    2.1611   -3.0633 C   0  0  0  0  0  0  0  0  0  0  0  0
   -6.4645    0.0599   -2.2146 C   0  0  0  0  0  0  0  0  0  0  0  0
   -6.3095    1.2357   -4.2991 C   0  0  1  0  0  0  0  0  0  0  0  0
   -6.8558    0.1458   -3.4872 C   0  0  0  0  0  0  0  0  0  0  0  0
   -7.8601   -0.8208   -4.0206 C   0  0  0  0  0  0  0  0  0  0  0  0
   -5.8403    0.3530   -5.7739 C   0  0  2  0  0  0  0  0  0  0  0  0
   -5.3750    3.1548    0.9645 C   0  0  1  0  0  0  0  0  0  0  0  0
   -6.7698    1.2396   -0.4999 C   0  0  0  0  0  0  0  0  0  0  0  0
   -4.3695    0.4322   -1.4293 O   0  0  0  0  0  0  0  0  0  0  0  0
   -6.6400    2.4743    1.1882 C   0  0  0  0  0  0  0  0  0  0  0  0
   -4.8416    2.9730    2.7606 N   0  0  0  0  0  0  0  0  0  0  0  0
   -6.9620   -0.9785   -1.4304 O   0  0  0  0  0  0  0  0  0  0  0  0
   -6.2149    1.2559    0.8380 C   0  0  0  0  0  0  0  0  0  0  0  0
   -7.8960    1.5732   -0.8770 O   0  0  0  0  0  0  0  0  0  0  0  0
   -7.8042    3.2466    0.9822 O   0  0  0  0  0  0  0  0  0  0  0  0
   -4.7530    4.1020    3.8901 C   0  0  0  0  0  0  0  0  0  0  0  0
   -4.4817    1.7775    3.7353 C   0  0  0  0  0  0  0  0  0  0  0  0
   -4.5414    0.9710    1.0528 C   0  0  0  0  0  0  0  0  0  0  0  0
   -8.8019   -1.1141   -3.2876 O   0  0  0  0  0  0  0  0  0  0  0  0
   -3.4469    1.5833    0.3778 N   0  0  0  0  0  0  0  0  0  0  0  0
   -4.2324    0.1261    1.8848 O   0  0  0  0  0  0  0  0  0  0  0  0
   -7.1353   -0.9714   -7.7249 C   0  0  0  0  0  0  0  0  0  0  0  0
   -8.7668   -2.1849   -5.9361 C   0  0  0  0  0  0  0  0  0  0  0  0
   -8.1657   -1.8027   -8.2073 C   0  0  0  0  0  0  0  0  0  0  0  0
   -8.9698   -2.4391   -7.2958 C   0  0  0  0  0  0  0  0  0  0  0  0
   -9.5048   -2.9711   -5.1000 O   0  0  0  0  0  0  0  0  0  0  0  0
   -5.1261    3.7191   -1.6525 H   0  0  0  0  0  0  0  0  0  0  0  0
   -7.0828    1.9048   -4.6939 H   0  0  0  0  0  0  0  0  0  0  0  0
   -5.4820    1.1136   -6.9442 O   0  0  0  0  0  0  0  0  0  0  0  0
   -4.4984   -0.1341   -5.2788 C   0  0  0  0  0  0  0  0  0  0  0  0
   -4.8924    2.9230   -3.8251 H   0  0  0  0  0  0  0  0  0  0  0  0
   -4.2132    1.5988   -3.1622 H   0  0  0  0  0  0  0  0  0  0  0  0
   -5.9112    3.9906    1.3962 H   0  0  0  0  0  0  0  0  0  0  0  0
   -4.3525   -0.2548   -0.7455 H   0  0  0  0  0  0  0  0  0  0  0  0
   -7.9316   -0.9524   -1.6355 H   0  0  0  0  0  0  0  0  0  0  0  0
   -7.9526    3.8316    1.7621 H   0  0  0  0  0  0  0  0  0  0  0  0
   -4.5579    3.7607    4.9781 H   0  0  0  0  0  0  0  0  0  0  0  0
   -3.7980    4.5905    3.7392 H   0  0  0  0  0  0  0  0  0  0  0  0
   -5.5868    4.7922    4.1196 H   0  0  0  0  0  0  0  0  0  0  0  0
   -4.3704    1.9717    4.8592 H   0  0  0  0  0  0  0  0  0  0  0  0
   -5.1252    0.8823    3.8344 H   0  0  0  0  0  0  0  0  0  0  0  0
   -3.4261    1.5915    3.5593 H   0  0  0  0  0  0  0  0  0  0  0  0
   -2.5374    1.1546    0.5279 H   0  0  0  0  0  0  0  0  0  0  0  0
   -3.4215    2.0012   -0.5562 H   0  0  0  0  0  0  0  0  0  0  0  0
   -6.5562   -0.5171   -8.5274 H   0  0  0  0  0  0  0  0  0  0  0  0
   -8.3198   -1.9606   -9.2765 H   0  0  0  0  0  0  0  0  0  0  0  0
   -9.7447   -3.1282   -7.6279 H   0  0  0  0  0  0  0  0  0  0  0  0
   -9.3532   -3.8676   -5.4453 H   0  0  0  0  0  0  0  0  0  0  0  0
   -6.2172    1.1304   -7.5849 H   0  0  0  0  0  0  0  0  0  0  0  0
   -4.5813   -0.7271   -4.3647 H   0  0  0  0  0  0  0  0  0  0  0  0
   -3.7896   -0.5456   -5.9925 H   0  0  0  0  0  0  0  0  0  0  0  0
   -4.0168    0.8110   -5.0180 H   0  0  0  0  0  0  0  0  0  0  0  0
  1 26  2  0  0  0  0
  1  2  1  0  0  0  0
  2 27  2  0  0  0  0
  3 11  1  0  0  0  0
  3  4  1  0  0  0  0
  3  5  1  0  0  0  0
  3 31  1  1  0  0  0
  4 12  1  0  0  0  0
  4  6  1  0  0  0  0
  4 13  1  1  0  0  0
  5  7  1  0  0  0  0
  5 35  1  0  0  0  0
  5 36  1  0  0  0  0
  6  8  2  0  0  0  0
  6 16  1  0  0  0  0
  7  8  1  0  0  0  0
  7 10  1  0  0  0  0
  7 32  1  1  0  0  0
  8  9  1  0  0  0  0
  9  2  1  0  0  0  0
  9 23  2  0  0  0  0
 10  1  1  0  0  0  0
 10 33  1  6  0  0  0
 10 34  1  0  0  0  0
 11 14  1  0  0  0  0
 11 37  1  6  0  0  0
 11 15  1  0  0  0  0
 12 17  1  0  0  0  0
 12 18  2  0  0  0  0
 13 38  1  0  0  0  0
 14 17  2  0  0  0  0
 14 19  1  0  0  0  0
 15 20  1  0  0  0  0
 15 21  1  0  0  0  0
 16 39  1  0  0  0  0
 17 22  1  0  0  0  0
 19 40  1  0  0  0  0
 20 41  1  0  0  0  0
 20 42  1  0  0  0  0
 20 43  1  0  0  0  0
 21 44  1  0  0  0  0
 21 45  1  0  0  0  0
 21 46  1  0  0  0  0
 22 24  1  0  0  0  0
 22 25  2  0  0  0  0
 24 47  1  0  0  0  0
 24 48  1  0  0  0  0
 26 28  1  0  0  0  0
 26 49  1  0  0  0  0
 27 29  1  0  0  0  0
 27 30  1  0  0  0  0
 28 29  2  0  0  0  0
 28 50  1  0  0  0  0
 29 51  1  0  0  0  0
 30 52  1  0  0  0  0
 33 53  1  0  0  0  0
 34 54  1  0  0  0  0
 34 55  1  0  0  0  0
 34 56  1  0  0  0  0
M  END
>  <DRUGBANK_ID>
DB00759

>  <SECONDARY_ACCESSION_NUMBERS>
APRD00572

>  <COMMON_NAME>
Tetracycline

>  <CAS_NUMBER>
60-54-8

>  <UNII>
F8VB5M810T

>  <SYNONYMS>
(4S,4aS,5aS,12aS)-4-(Dimethylamino)-1,4,4a,5,5a,6,11,12a-octahydro-3,6,10,12,12a-pentahydroxy-6-methyl-1,11-dioxo-2-naphthacenecarboxamide; Abramycin; Anhydrotetracycline; Deschlorobiomycin; Tetracyclin; TÃ©tracycline; Tetracycline; Tetracyclinum; Tetrazyklin; Tsiklomitsin

$$$$
