
 OpenBabel10282417213D

 84 88  0  0  0  0  0  0  0  0999 V2000
    1.2391   -0.2399    0.1170 O   0  0  0  0  0  0  0  0  0  0  0  0
    2.9366   -0.9081   -1.1199 O   0  0  0  0  0  0  0  0  0  0  0  0
    8.1587    1.6206    3.2081 O   0  0  0  0  0  0  0  0  0  0  0  0
    7.2180    2.3857    1.3734 O   0  0  0  0  0  0  0  0  0  0  0  0
    5.4985    0.2279   -4.9673 O   0  5  0  0  0  0  0  0  0  0  0  0
    3.7195    0.9990   -3.9416 O   0  0  0  0  0  0  0  0  0  0  0  0
    1.9378    1.6948    3.3307 N   0  0  0  0  0  0  0  0  0  0  0  0
    4.2168   -0.8255    3.4386 N   0  0  0  0  0  0  0  0  0  0  0  0
    4.8816    0.5853   -3.9432 N   0  3  0  0  0  0  0  0  0  0  0  0
    2.9749    4.1573    2.1971 C   0  0  0  0  0  0  0  0  0  0  0  0
    3.9786    3.1383    2.6510 C   0  0  0  0  0  0  0  0  0  0  0  0
    1.6722    3.9373    3.0576 C   0  0  0  0  0  0  0  0  0  0  0  0
    3.1531    1.9173    2.5898 C   0  0  0  0  0  0  0  0  0  0  0  0
    1.0058    2.6435    2.8620 C   0  0  0  0  0  0  0  0  0  0  0  0
    3.6457    5.4170    2.6822 C   0  0  0  0  0  0  0  0  0  0  0  0
    2.6919    4.1227    0.6281 C   0  0  0  0  0  0  0  0  0  0  0  0
    1.3933    0.4005    3.0250 C   0  0  0  0  0  0  0  0  0  0  0  0
    0.0769   -0.0191    2.4146 C   0  0  0  0  0  0  0  0  0  0  0  0
    4.8655    5.8346    2.1304 C   0  0  0  0  0  0  0  0  0  0  0  0
    2.2096    3.0197   -0.1293 C   0  0  0  0  0  0  0  0  0  0  0  0
    2.9914    6.1881    3.6411 C   0  0  0  0  0  0  0  0  0  0  0  0
    2.8397    5.2747   -0.1332 C   0  0  0  0  0  0  0  0  0  0  0  0
    0.0795    0.3460    0.9335 C   0  0  0  0  0  0  0  0  0  0  0  0
    5.2762    7.1251    2.3668 C   0  0  0  0  0  0  0  0  0  0  0  0
    1.8695    3.0312   -1.4781 C   0  0  0  0  0  0  0  0  0  0  0  0
    3.3696    7.4808    3.8331 C   0  0  0  0  0  0  0  0  0  0  0  0
    2.4331    5.3326   -1.4726 C   0  0  0  0  0  0  0  0  0  0  0  0
    4.5084    7.9472    3.1940 C   0  0  0  0  0  0  0  0  0  0  0  0
    1.9685    4.2131   -2.1532 C   0  0  0  0  0  0  0  0  0  0  0  0
    4.9177    0.5406    1.0130 C   0  0  1  0  0  0  0  0  0  0  0  0
    3.6666   -0.5504    1.1207 C   0  0  0  0  0  0  0  0  0  0  0  0
    2.5856   -0.5803   -0.0137 C   0  0  0  0  0  0  0  0  0  0  0  0
    5.8789    0.6493    2.4214 C   0  0  0  0  0  0  0  0  0  0  0  0
    3.5064   -1.2433    2.3013 C   0  0  0  0  0  0  0  0  0  0  0  0
    5.6094    0.4567   -0.2932 C   0  0  0  0  0  0  0  0  0  0  0  0
    5.2979    0.0612    3.5229 C   0  0  0  0  0  0  0  0  0  0  0  0
    2.3116   -2.1904    2.6899 C   0  0  0  0  0  0  0  0  0  0  0  0
    4.9859    0.8505   -1.4971 C   0  0  0  0  0  0  0  0  0  0  0  0
    6.9029    0.0017   -0.2537 C   0  0  0  0  0  0  0  0  0  0  0  0
    7.0928    1.6637    2.3204 C   0  0  0  0  0  0  0  0  0  0  0  0
    5.4083    0.4662    4.9881 C   0  0  0  0  0  0  0  0  0  0  0  0
    5.6121    0.5004   -2.6745 C   0  0  0  0  0  0  0  0  0  0  0  0
    7.6039   -0.1021   -1.4137 C   0  0  0  0  0  0  0  0  0  0  0  0
    6.9259    0.0207   -2.6238 C   0  0  0  0  0  0  0  0  0  0  0  0
    8.0276    1.2506    4.5625 C   0  0  0  0  0  0  0  0  0  0  0  0
    3.5326   -0.4791    4.1359 H   0  0  0  0  0  0  0  0  0  0  0  0
    4.8606    3.1448    1.9894 H   0  0  0  0  0  0  0  0  0  0  0  0
    4.4079    3.2295    3.6610 H   0  0  0  0  0  0  0  0  0  0  0  0
    1.9394    3.9205    4.1312 H   0  0  0  0  0  0  0  0  0  0  0  0
    0.9170    4.6760    2.8263 H   0  0  0  0  0  0  0  0  0  0  0  0
    2.9622    1.7321    1.5631 H   0  0  0  0  0  0  0  0  0  0  0  0
    3.7820    1.1681    2.8650 H   0  0  0  0  0  0  0  0  0  0  0  0
    0.0854    2.4873    3.4119 H   0  0  0  0  0  0  0  0  0  0  0  0
    0.8321    2.5511    1.8125 H   0  0  0  0  0  0  0  0  0  0  0  0
    1.6379   -0.1516    3.9145 H   0  0  0  0  0  0  0  0  0  0  0  0
    1.9484    0.1349    2.1719 H   0  0  0  0  0  0  0  0  0  0  0  0
   -0.7197    0.3582    3.0513 H   0  0  0  0  0  0  0  0  0  0  0  0
   -0.0476   -1.1093    2.4049 H   0  0  0  0  0  0  0  0  0  0  0  0
    5.4196    5.2075    1.4276 H   0  0  0  0  0  0  0  0  0  0  0  0
    2.0056    2.0383    0.2436 H   0  0  0  0  0  0  0  0  0  0  0  0
    2.1255    5.8410    4.1942 H   0  0  0  0  0  0  0  0  0  0  0  0
    3.2521    6.1811    0.2913 H   0  0  0  0  0  0  0  0  0  0  0  0
    0.0311    1.4144    0.7408 H   0  0  0  0  0  0  0  0  0  0  0  0
   -0.8575    0.0030    0.4788 H   0  0  0  0  0  0  0  0  0  0  0  0
    6.1450    7.5026    1.8410 H   0  0  0  0  0  0  0  0  0  0  0  0
    1.5120    2.1145   -1.9500 H   0  0  0  0  0  0  0  0  0  0  0  0
    2.7245    8.1026    4.4386 H   0  0  0  0  0  0  0  0  0  0  0  0
    2.4591    6.2914   -1.9722 H   0  0  0  0  0  0  0  0  0  0  0  0
    4.7941    8.9758    3.3450 H   0  0  0  0  0  0  0  0  0  0  0  0
    1.6784    4.2543   -3.1944 H   0  0  0  0  0  0  0  0  0  0  0  0
    4.5807    1.5728    0.8346 H   0  0  0  0  0  0  0  0  0  0  0  0
    2.6250   -3.0999    3.1958 H   0  0  0  0  0  0  0  0  0  0  0  0
    1.6288   -1.8365    3.4796 H   0  0  0  0  0  0  0  0  0  0  0  0
    1.6507   -2.3724    1.8427 H   0  0  0  0  0  0  0  0  0  0  0  0
    3.9917    1.2955   -1.5209 H   0  0  0  0  0  0  0  0  0  0  0  0
    7.3676   -0.2279    0.6955 H   0  0  0  0  0  0  0  0  0  0  0  0
    4.5565    0.8958    5.5373 H   0  0  0  0  0  0  0  0  0  0  0  0
    5.7763   -0.3901    5.5602 H   0  0  0  0  0  0  0  0  0  0  0  0
    5.9770    1.3533    5.0230 H   0  0  0  0  0  0  0  0  0  0  0  0
    8.6553   -0.3278   -1.3241 H   0  0  0  0  0  0  0  0  0  0  0  0
    7.4460   -0.2806   -3.5206 H   0  0  0  0  0  0  0  0  0  0  0  0
    7.4749    2.0691    5.0362 H   0  0  0  0  0  0  0  0  0  0  0  0
    7.6448    0.2306    4.5679 H   0  0  0  0  0  0  0  0  0  0  0  0
    8.9178    1.2054    5.1884 H   0  0  0  0  0  0  0  0  0  0  0  0
  1 23  1  0  0  0  0
  1 32  1  0  0  0  0
  2 32  2  0  0  0  0
  3 40  1  0  0  0  0
  3 45  1  0  0  0  0
  4 40  2  0  0  0  0
  5  9  1  0  0  0  0
  6  9  2  0  0  0  0
  7 13  1  0  0  0  0
  7 14  1  0  0  0  0
  7 17  1  0  0  0  0
  8 34  1  0  0  0  0
  8 36  1  0  0  0  0
  8 46  1  0  0  0  0
  9 42  1  0  0  0  0
 10 11  1  0  0  0  0
 10 12  1  0  0  0  0
 10 15  1  0  0  0  0
 10 16  1  0  0  0  0
 11 13  1  0  0  0  0
 11 47  1  0  0  0  0
 11 48  1  0  0  0  0
 12 14  1  0  0  0  0
 12 49  1  0  0  0  0
 12 50  1  0  0  0  0
 13 51  1  0  0  0  0
 13 52  1  0  0  0  0
 14 53  1  0  0  0  0
 14 54  1  0  0  0  0
 15 19  2  0  0  0  0
 15 21  1  0  0  0  0
 16 20  2  0  0  0  0
 16 22  1  0  0  0  0
 17 18  1  0  0  0  0
 17 55  1  0  0  0  0
 17 56  1  0  0  0  0
 18 23  1  0  0  0  0
 18 57  1  0  0  0  0
 18 58  1  0  0  0  0
 19 24  1  0  0  0  0
 19 59  1  0  0  0  0
 20 25  1  0  0  0  0
 20 60  1  0  0  0  0
 21 26  2  0  0  0  0
 21 61  1  0  0  0  0
 22 27  2  0  0  0  0
 22 62  1  0  0  0  0
 23 63  1  0  0  0  0
 23 64  1  0  0  0  0
 24 28  2  0  0  0  0
 24 65  1  0  0  0  0
 25 29  2  0  0  0  0
 25 66  1  0  0  0  0
 26 28  1  0  0  0  0
 26 67  1  0  0  0  0
 27 29  1  0  0  0  0
 27 68  1  0  0  0  0
 28 69  1  0  0  0  0
 29 70  1  0  0  0  0
 30 31  1  0  0  0  0
 30 33  1  0  0  0  0
 30 35  1  0  0  0  0
 30 71  1  6  0  0  0
 31 32  1  0  0  0  0
 31 34  2  0  0  0  0
 33 36  2  0  0  0  0
 33 40  1  0  0  0  0
 34 37  1  0  0  0  0
 35 38  2  0  0  0  0
 35 39  1  0  0  0  0
 36 41  1  0  0  0  0
 37 72  1  0  0  0  0
 37 73  1  0  0  0  0
 37 74  1  0  0  0  0
 38 42  1  0  0  0  0
 38 75  1  0  0  0  0
 39 43  2  0  0  0  0
 39 76  1  0  0  0  0
 41 77  1  0  0  0  0
 41 78  1  0  0  0  0
 41 79  1  0  0  0  0
 42 44  2  0  0  0  0
 43 44  1  0  0  0  0
 43 80  1  0  0  0  0
 44 81  1  0  0  0  0
 45 82  1  0  0  0  0
 45 83  1  0  0  0  0
 45 84  1  0  0  0  0
M  CHG  2   5  -1   9   1
M  END
>  <DRUGBANK_ID>
DB14068

>  <COMMON_NAME>
Dexniguldipine

>  <CAS_NUMBER>
120054-86-6

>  <UNII>
N9DG6ZTC43

>  <SYNONYMS>
(+)-niguldipine; (R)-niguldipine; Dexniguldipine

$$$$
