
 OpenBabel10282417223D

115122  0  0  1  0  0  0  0  0999 V2000
    0.3573    0.3835    0.0618 C   0  0  0  0  0  0  0  0  0  0  0  0
   -0.6404    1.6076    0.4923 O   0  0  0  0  0  0  0  0  0  0  0  0
   -2.0903    1.9091    0.2796 C   0  0  0  0  0  0  0  0  0  0  0  0
   -3.6468    1.9879    0.5085 C   0  0  0  0  0  0  0  0  0  0  0  0
   -4.7036    0.8961    0.8122 C   0  0  0  0  0  0  0  0  0  0  0  0
   -4.0036   -0.1575    1.2390 C   0  0  0  0  0  0  0  0  0  0  0  0
   -2.6426   -0.1361    1.1368 C   0  0  0  0  0  0  0  0  0  0  0  0
   -2.2137    0.6043    0.0541 C   0  0  0  0  0  0  0  0  0  0  0  0
   -4.5636   -1.4150    1.5144 C   0  0  0  0  0  0  0  0  0  0  0  0
   -3.7413   -2.2855    1.7944 O   0  0  0  0  0  0  0  0  0  0  0  0
   -5.9109   -1.5928    1.3290 N   0  0  0  0  0  0  0  0  0  0  0  0
   -6.2481   -3.0381    1.6040 C   0  0  0  0  0  0  0  0  0  0  0  0
   -5.5835   -3.5046    2.9859 C   0  0  0  0  0  0  0  0  0  0  0  0
   -6.3229   -4.2729    4.0157 C   0  0  0  0  0  0  0  0  0  0  0  0
   -6.7663   -5.5741    3.3703 C   0  0  0  0  0  0  0  0  0  0  0  0
   -7.7137   -6.3612    4.2294 C   0  0  0  0  0  0  0  0  0  0  0  0
   -9.0061   -7.1607    3.2391 C   0  0  2  0  0  0  0  0  0  0  0  0
   -9.6766   -8.4725    3.8021 C   0  0  0  0  0  0  0  0  0  0  0  0
   -9.0632   -8.2726    5.1018 C   0  0  0  0  0  0  0  0  0  0  0  0
  -10.1753   -6.8654    5.1357 C   0  0  0  0  0  0  0  0  0  0  0  0
  -10.2524   -6.3551    3.5317 C   0  0  1  0  0  0  0  0  0  0  0  0
  -11.3227   -6.8400    2.6532 O   0  0  0  0  0  0  0  0  0  0  0  0
  -12.3353   -5.9957    2.3084 C   0  0  0  0  0  0  0  0  0  0  0  0
  -13.3753   -6.0111    2.9548 O   0  0  0  0  0  0  0  0  0  0  0  0
  -12.0264   -5.1601    1.2213 N   0  0  0  0  0  0  0  0  0  0  0  0
  -12.7285   -3.8664    0.9258 C   0  0  1  0  0  0  0  0  0  0  0  0
  -12.4814   -3.0442    2.0965 C   0  0  0  0  0  0  0  0  0  0  0  0
  -10.9824   -2.9093    2.2014 C   0  0  0  0  0  0  0  0  0  0  0  0
  -11.1442   -2.4463    3.5258 C   0  0  0  0  0  0  0  0  0  0  0  0
  -12.6768   -2.6365    4.3110 C   0  0  0  0  0  0  0  0  0  0  0  0
  -13.1012   -3.5745    3.3584 C   0  0  0  0  0  0  0  0  0  0  0  0
  -12.3851   -2.6941   -0.1655 C   0  0  0  0  0  0  0  0  0  0  0  0
  -13.2021   -2.4513   -1.0526 O   0  0  0  0  0  0  0  0  0  0  0  0
  -11.3235   -1.7739    0.0817 N   0  0  0  0  0  0  0  0  0  0  0  0
   -9.9516   -1.9419   -0.5280 C   0  0  0  0  0  0  0  0  0  0  0  0
   -9.1403   -0.6274   -0.2273 C   0  0  1  0  0  0  0  0  0  0  0  0
  -10.2570    0.4099    0.2251 C   0  0  0  0  0  0  0  0  0  0  0  0
  -11.4553   -0.4088    0.9115 C   0  0  1  0  0  0  0  0  0  0  0  0
  -12.7327   -0.0697    2.1066 C   0  0  0  0  0  0  0  0  0  0  0  0
  -13.9224   -0.0682    1.7212 O   0  0  0  0  0  0  0  0  0  0  0  0
  -12.6213   -0.1960    3.5850 N   0  0  0  0  0  0  0  0  0  0  0  0
  -11.3519   -0.3463    4.7024 C   0  0  2  0  0  0  0  0  0  0  0  0
  -11.0962   -1.8800    5.6467 C   0  0  0  0  0  0  0  0  0  0  0  0
  -11.4721   -0.6821    6.3150 C   0  0  1  0  0  0  0  0  0  0  0  0
  -10.4677   -0.1779    7.2911 C   0  0  0  0  0  0  0  0  0  0  0  0
  -10.6441   -0.4288    8.5866 C   0  0  0  0  0  0  0  0  0  0  0  0
  -10.1193    0.3424    3.9326 C   0  0  0  0  0  0  0  0  0  0  0  0
  -10.4414    1.1551    3.0635 O   0  0  0  0  0  0  0  0  0  0  0  0
   -8.8663   -0.2297    3.7352 N   0  0  0  0  0  0  0  0  0  0  0  0
   -7.8325   -1.2449    4.4895 S   0  0  0  0  0  0  0  0  0  0  0  0
   -7.4438   -1.9280    3.2097 O   0  0  0  0  0  0  0  0  0  0  0  0
   -6.9078   -0.5255    5.2331 O   0  0  0  0  0  0  0  0  0  0  0  0
   -8.3729   -2.8021    5.3954 C   0  0  0  0  0  0  0  0  0  0  0  0
   -8.8967   -3.8765    4.4905 C   0  0  0  0  0  0  0  0  0  0  0  0
   -9.0503   -2.3173    6.5945 C   0  0  0  0  0  0  0  0  0  0  0  0
   -7.8384   -2.9580    6.9080 C   0  0  0  0  0  0  0  0  0  0  0  0
   -8.1030   -0.8496    0.8747 O   0  0  0  0  0  0  0  0  0  0  0  0
   -6.7198   -0.5084    0.9073 C   0  0  0  0  0  0  0  0  0  0  0  0
   -6.2043    0.7125    0.6747 N   0  0  0  0  0  0  0  0  0  0  0  0
    0.2673    0.0258   -0.9824 H   0  0  0  0  0  0  0  0  0  0  0  0
    0.2982   -0.4716    0.7652 H   0  0  0  0  0  0  0  0  0  0  0  0
    1.4390    0.6745    0.1371 H   0  0  0  0  0  0  0  0  0  0  0  0
   -4.1441    2.9535    0.2885 H   0  0  0  0  0  0  0  0  0  0  0  0
   -2.1392   -0.1393    2.1085 H   0  0  0  0  0  0  0  0  0  0  0  0
   -2.7050    0.4856   -0.9193 H   0  0  0  0  0  0  0  0  0  0  0  0
   -7.3243   -3.2520    1.5311 H   0  0  0  0  0  0  0  0  0  0  0  0
   -5.7905   -3.5831    0.7736 H   0  0  0  0  0  0  0  0  0  0  0  0
   -4.7248   -4.1819    2.8633 H   0  0  0  0  0  0  0  0  0  0  0  0
   -5.1525   -2.6334    3.4974 H   0  0  0  0  0  0  0  0  0  0  0  0
   -6.9510   -4.2147    4.8944 H   0  0  0  0  0  0  0  0  0  0  0  0
   -5.6933   -3.9178    4.8377 H   0  0  0  0  0  0  0  0  0  0  0  0
   -7.3168   -5.4726    2.4249 H   0  0  0  0  0  0  0  0  0  0  0  0
   -5.8670   -6.1219    3.1359 H   0  0  0  0  0  0  0  0  0  0  0  0
   -8.1584   -5.9442    5.1554 H   0  0  0  0  0  0  0  0  0  0  0  0
   -6.9548   -6.8383    4.8685 H   0  0  0  0  0  0  0  0  0  0  0  0
   -8.7419   -7.2027    2.1886 H   0  0  0  0  0  0  0  0  0  0  0  0
   -9.9554   -9.4936    3.5333 H   0  0  0  0  0  0  0  0  0  0  0  0
  -10.7615   -8.3622    4.0161 H   0  0  0  0  0  0  0  0  0  0  0  0
   -9.0497   -9.3291    5.3800 H   0  0  0  0  0  0  0  0  0  0  0  0
   -7.9844   -8.2358    4.7936 H   0  0  0  0  0  0  0  0  0  0  0  0
  -11.1939   -7.1054    5.4449 H   0  0  0  0  0  0  0  0  0  0  0  0
   -9.9016   -6.0900    5.8558 H   0  0  0  0  0  0  0  0  0  0  0  0
  -10.1108   -5.3502    3.2049 H   0  0  0  0  0  0  0  0  0  0  0  0
  -11.0840   -5.2416    0.8803 H   0  0  0  0  0  0  0  0  0  0  0  0
  -13.8102   -4.0135    0.9948 H   0  0  0  0  0  0  0  0  0  0  0  0
  -13.0218   -2.1271    1.9594 H   0  0  0  0  0  0  0  0  0  0  0  0
  -10.3351   -3.7284    1.9046 H   0  0  0  0  0  0  0  0  0  0  0  0
  -10.2599   -2.1658    1.8328 H   0  0  0  0  0  0  0  0  0  0  0  0
  -10.2815   -2.6782    4.0200 H   0  0  0  0  0  0  0  0  0  0  0  0
  -10.5866   -1.5529    3.5250 H   0  0  0  0  0  0  0  0  0  0  0  0
  -12.8647   -3.2363    5.2447 H   0  0  0  0  0  0  0  0  0  0  0  0
  -13.2788   -1.8277    4.7315 H   0  0  0  0  0  0  0  0  0  0  0  0
  -14.1736   -3.6269    3.4807 H   0  0  0  0  0  0  0  0  0  0  0  0
  -12.4967   -4.3764    3.7830 H   0  0  0  0  0  0  0  0  0  0  0  0
  -10.1445   -2.2451   -1.5641 H   0  0  0  0  0  0  0  0  0  0  0  0
   -9.3439   -2.7773   -0.1397 H   0  0  0  0  0  0  0  0  0  0  0  0
   -8.5357   -0.3478   -1.0909 H   0  0  0  0  0  0  0  0  0  0  0  0
  -10.7046    0.9176   -0.6320 H   0  0  0  0  0  0  0  0  0  0  0  0
   -9.7078    1.1883    0.7627 H   0  0  0  0  0  0  0  0  0  0  0  0
  -10.9044   -0.6536    1.7790 H   0  0  0  0  0  0  0  0  0  0  0  0
  -13.5558   -0.4250    3.9316 H   0  0  0  0  0  0  0  0  0  0  0  0
  -11.3769   -3.0720    5.6227 H   0  0  0  0  0  0  0  0  0  0  0  0
  -10.6012   -2.9350    5.6886 H   0  0  0  0  0  0  0  0  0  0  0  0
  -12.3908   -1.0234    6.7851 H   0  0  0  0  0  0  0  0  0  0  0  0
   -9.4113    0.0752    7.0635 H   0  0  0  0  0  0  0  0  0  0  0  0
   -9.8286   -0.3340    9.2905 H   0  0  0  0  0  0  0  0  0  0  0  0
  -11.6011   -0.8464    8.8576 H   0  0  0  0  0  0  0  0  0  0  0  0
   -8.5586   -0.1517    2.7438 H   0  0  0  0  0  0  0  0  0  0  0  0
   -9.4313   -3.7880    3.5656 H   0  0  0  0  0  0  0  0  0  0  0  0
   -8.2662   -4.1899    3.6956 H   0  0  0  0  0  0  0  0  0  0  0  0
   -9.4879   -4.5921    5.0057 H   0  0  0  0  0  0  0  0  0  0  0  0
   -9.1774   -1.3492    6.2039 H   0  0  0  0  0  0  0  0  0  0  0  0
   -9.8479   -2.7312    7.2127 H   0  0  0  0  0  0  0  0  0  0  0  0
   -8.2059   -3.7362    7.6079 H   0  0  0  0  0  0  0  0  0  0  0  0
   -7.3401   -2.1716    7.4750 H   0  0  0  0  0  0  0  0  0  0  0  0
  1  2  1  0  0  0  0
  1 60  1  0  0  0  0
  1 61  1  0  0  0  0
  1 62  1  0  0  0  0
  2  3  1  0  0  0  0
  3  4  2  0  0  0  0
  3  8  1  0  0  0  0
  4  5  1  0  0  0  0
  4 63  1  0  0  0  0
  5  6  2  0  0  0  0
  5 59  1  0  0  0  0
  6  7  1  0  0  0  0
  6  9  1  0  0  0  0
  7  8  2  0  0  0  0
  7 64  1  0  0  0  0
  8 65  1  0  0  0  0
  9 11  1  0  0  0  0
  9 10  2  0  0  0  0
 11 12  1  0  0  0  0
 11 58  1  0  0  0  0
 12 13  1  0  0  0  0
 12 66  1  0  0  0  0
 12 67  1  0  0  0  0
 13 14  1  0  0  0  0
 13 68  1  0  0  0  0
 13 69  1  0  0  0  0
 14 15  1  0  0  0  0
 14 70  1  0  0  0  0
 14 71  1  0  0  0  0
 15 16  1  0  0  0  0
 15 72  1  0  0  0  0
 15 73  1  0  0  0  0
 16 74  1  0  0  0  0
 16 75  1  0  0  0  0
 17 16  1  0  0  0  0
 17 18  1  0  0  0  0
 17 21  1  0  0  0  0
 17 76  1  1  0  0  0
 18 19  1  0  0  0  0
 18 77  1  0  0  0  0
 18 78  1  0  0  0  0
 19 20  1  0  0  0  0
 19 79  1  0  0  0  0
 19 80  1  0  0  0  0
 20 81  1  0  0  0  0
 20 82  1  0  0  0  0
 21 20  1  0  0  0  0
 21 22  1  0  0  0  0
 21 83  1  1  0  0  0
 22 23  1  0  0  0  0
 23 25  1  0  0  0  0
 23 24  2  0  0  0  0
 25 84  1  0  0  0  0
 26 25  1  0  0  0  0
 26 32  1  0  0  0  0
 26 85  1  6  0  0  0
 26 27  1  0  0  0  0
 27 28  1  0  0  0  0
 27 31  1  0  0  0  0
 27 86  1  0  0  0  0
 28 29  1  0  0  0  0
 28 87  1  0  0  0  0
 28 88  1  0  0  0  0
 29 30  1  0  0  0  0
 29 89  1  0  0  0  0
 29 90  1  0  0  0  0
 30 31  1  0  0  0  0
 30 91  1  0  0  0  0
 30 92  1  0  0  0  0
 31 93  1  0  0  0  0
 31 94  1  0  0  0  0
 32 34  1  0  0  0  0
 32 33  2  0  0  0  0
 34 35  1  0  0  0  0
 35 95  1  0  0  0  0
 35 96  1  0  0  0  0
 36 35  1  0  0  0  0
 36 37  1  0  0  0  0
 36 57  1  0  0  0  0
 36 97  1  6  0  0  0
 37 98  1  0  0  0  0
 37 99  1  0  0  0  0
 38 37  1  0  0  0  0
 38 34  1  0  0  0  0
 38 39  1  0  0  0  0
 38100  1  1  0  0  0
 39 40  2  0  0  0  0
 39 41  1  0  0  0  0
 41101  1  0  0  0  0
 42 41  1  0  0  0  0
 42 43  1  0  0  0  0
 42 44  1  0  0  0  0
 42 47  1  6  0  0  0
 43102  1  0  0  0  0
 43103  1  0  0  0  0
 44 43  1  0  0  0  0
 44 45  1  0  0  0  0
 44104  1  1  0  0  0
 45 46  2  0  0  0  0
 45105  1  0  0  0  0
 46106  1  0  0  0  0
 46107  1  0  0  0  0
 47 48  2  0  0  0  0
 47 49  1  0  0  0  0
 49 50  1  0  0  0  0
 49108  1  0  0  0  0
 50 51  2  0  0  0  0
 50 52  2  0  0  0  0
 50 53  1  0  0  0  0
 53 54  1  0  0  0  0
 53 55  1  0  0  0  0
 53 56  1  0  0  0  0
 54109  1  0  0  0  0
 54110  1  0  0  0  0
 54111  1  0  0  0  0
 55 56  1  0  0  0  0
 55112  1  0  0  0  0
 55113  1  0  0  0  0
 56114  1  0  0  0  0
 56115  1  0  0  0  0
 57 58  1  0  0  0  0
 58 59  2  0  0  0  0
M  END
>  <DRUGBANK_ID>
DB15371

>  <COMMON_NAME>
MK-2748

>  <CAS_NUMBER>
1193902-95-2

>  <UNII>
7YM030A71C

$$$$
