
 OpenBabel10282417233D

 47 49  0  0  0  0  0  0  0  0999 V2000
    0.8848   -0.0339    0.2359 C   0  0  0  0  0  0  0  0  0  0  0  0
    0.5001   -1.3923    0.3651 O   0  0  0  0  0  0  0  0  0  0  0  0
    1.3657   -2.3798   -0.0268 C   0  0  0  0  0  0  0  0  0  0  0  0
    2.6427   -2.2619   -0.5828 C   0  0  0  0  0  0  0  0  0  0  0  0
    3.3372   -1.1228   -0.8808 O   0  0  0  0  0  0  0  0  0  0  0  0
    3.3723   -3.4136   -0.8796 C   0  0  0  0  0  0  0  0  0  0  0  0
    2.8453   -4.6906   -0.6726 C   0  0  0  0  0  0  0  0  0  0  0  0
    1.5550   -4.8553   -0.1755 C   0  0  0  0  0  0  0  0  0  0  0  0
    0.8439   -3.6861    0.1856 C   0  0  0  0  0  0  0  0  0  0  0  0
    0.9461   -6.2129   -0.1163 C   0  0  0  0  0  0  0  0  0  0  0  0
   -0.1184   -6.5115   -0.8636 C   0  0  0  0  0  0  0  0  0  0  0  0
   -0.7625   -7.8419   -0.7741 C   0  0  0  0  0  0  0  0  0  0  0  0
   -1.8753   -8.0610   -1.1943 O   0  0  0  0  0  0  0  0  0  0  0  0
    0.0544   -8.8945   -0.1647 C   0  0  0  0  0  0  0  0  0  0  0  0
   -0.4103  -10.2023    0.0092 C   0  0  0  0  0  0  0  0  0  0  0  0
   -1.6670  -10.6282   -0.3189 O   0  0  0  0  0  0  0  0  0  0  0  0
    0.4241  -11.1507    0.5797 C   0  0  0  0  0  0  0  0  0  0  0  0
    1.7319  -10.8079    0.9038 C   0  0  0  0  0  0  0  0  0  0  0  0
    2.4623  -11.8227    1.4477 O   0  0  0  0  0  0  0  0  0  0  0  0
    2.2257   -9.5063    0.7113 C   0  0  0  0  0  0  0  0  0  0  0  0
    3.6394   -9.0877    1.0145 C   0  0  0  0  0  0  0  0  0  0  0  0
    3.9379   -9.2275    2.4724 C   0  0  0  0  0  0  0  0  0  0  0  0
    4.8766  -10.0577    2.9575 C   0  0  0  0  0  0  0  0  0  0  0  0
    5.0620  -10.2235    4.4338 C   0  0  0  0  0  0  0  0  0  0  0  0
    5.7624  -10.8694    2.0480 C   0  0  0  0  0  0  0  0  0  0  0  0
    1.3432   -8.5393    0.2314 C   0  0  0  0  0  0  0  0  0  0  0  0
    1.7973   -7.2344    0.2695 O   0  0  0  0  0  0  0  0  0  0  0  0
    0.2546    0.5808    0.8842 H   0  0  0  0  0  0  0  0  0  0  0  0
    0.7318    0.2991   -0.7976 H   0  0  0  0  0  0  0  0  0  0  0  0
    1.9068    0.1394    0.5788 H   0  0  0  0  0  0  0  0  0  0  0  0
    2.7568   -0.3704   -1.0480 H   0  0  0  0  0  0  0  0  0  0  0  0
    4.3651   -3.3059   -1.3088 H   0  0  0  0  0  0  0  0  0  0  0  0
    3.4502   -5.5498   -0.9440 H   0  0  0  0  0  0  0  0  0  0  0  0
   -0.1454   -3.7749    0.6387 H   0  0  0  0  0  0  0  0  0  0  0  0
   -0.1597   -6.0355   -1.8328 H   0  0  0  0  0  0  0  0  0  0  0  0
   -2.1535   -9.8860   -0.7359 H   0  0  0  0  0  0  0  0  0  0  0  0
    0.0659  -12.1562    0.7850 H   0  0  0  0  0  0  0  0  0  0  0  0
    3.2726  -11.4507    1.8202 H   0  0  0  0  0  0  0  0  0  0  0  0
    4.2992   -9.6743    0.3684 H   0  0  0  0  0  0  0  0  0  0  0  0
    3.8499   -8.0480    0.7363 H   0  0  0  0  0  0  0  0  0  0  0  0
    3.3056   -8.6480    3.1474 H   0  0  0  0  0  0  0  0  0  0  0  0
    4.8793  -11.2635    4.7215 H   0  0  0  0  0  0  0  0  0  0  0  0
    6.0805   -9.9451    4.7143 H   0  0  0  0  0  0  0  0  0  0  0  0
    4.3703   -9.5963    5.0081 H   0  0  0  0  0  0  0  0  0  0  0  0
    5.1827  -11.5478    1.4122 H   0  0  0  0  0  0  0  0  0  0  0  0
    6.3334  -10.2063    1.3898 H   0  0  0  0  0  0  0  0  0  0  0  0
    6.4625  -11.4876    2.6107 H   0  0  0  0  0  0  0  0  0  0  0  0
  1  2  1  0  0  0  0
  1 28  1  0  0  0  0
  1 29  1  0  0  0  0
  1 30  1  0  0  0  0
  2  3  1  0  0  0  0
  3  4  2  0  0  0  0
  3  9  1  0  0  0  0
  4  5  1  0  0  0  0
  4  6  1  0  0  0  0
  5 31  1  0  0  0  0
  6  7  2  0  0  0  0
  6 32  1  0  0  0  0
  7  8  1  0  0  0  0
  7 33  1  0  0  0  0
  8  9  2  0  0  0  0
  8 10  1  0  0  0  0
  9 34  1  0  0  0  0
 10 11  2  0  0  0  0
 10 27  1  0  0  0  0
 11 12  1  0  0  0  0
 11 35  1  0  0  0  0
 12 13  2  0  0  0  0
 12 14  1  0  0  0  0
 14 15  2  0  0  0  0
 14 26  1  0  0  0  0
 15 16  1  0  0  0  0
 15 17  1  0  0  0  0
 16 36  1  0  0  0  0
 17 18  2  0  0  0  0
 17 37  1  0  0  0  0
 18 19  1  0  0  0  0
 18 20  1  0  0  0  0
 19 38  1  0  0  0  0
 20 21  1  0  0  0  0
 20 26  2  0  0  0  0
 21 22  1  0  0  0  0
 21 39  1  0  0  0  0
 21 40  1  0  0  0  0
 22 23  2  0  0  0  0
 22 41  1  0  0  0  0
 23 24  1  0  0  0  0
 23 25  1  0  0  0  0
 24 42  1  0  0  0  0
 24 43  1  0  0  0  0
 24 44  1  0  0  0  0
 25 45  1  0  0  0  0
 25 46  1  0  0  0  0
 25 47  1  0  0  0  0
 26 27  1  0  0  0  0
M  END
>  <DRUGBANK_ID>
DB17263

>  <COMMON_NAME>
Caflanone

>  <CAS_NUMBER>
199167-23-2

>  <UNII>
PH8V5N670E

>  <SYNONYMS>
4h-1-benzopyran-4-one, 5,7-dihydroxy-2-(4-hydroxy-3-methoxyphenyl)-8-(3-methyl-2-buten-1-yl)-

$$$$
