KSA
 OpenBabel10282417123D

 56 63  0  0  0  0  0  0  0  0999 V2000
   -4.4944   -0.8911   -0.3575 O   0  0  0  0  0  0  0  0  0  0  0  0
   -4.1338    0.2537   -0.7221 C   0  0  0  0  0  0  0  0  0  0  0  0
   -5.0787    1.1803   -0.5407 O   0  0  0  0  0  0  0  0  0  0  0  0
   -5.2008    2.5791   -0.8250 C   0  0  0  0  0  0  0  0  0  0  0  0
   -2.6605    0.2858   -1.3600 C   0  0  2  0  0  0  0  0  0  0  0  0
   -2.0380   -0.6064   -0.3886 O   0  0  0  0  0  0  0  0  0  0  0  0
   -1.3460    1.1142   -1.5805 C   0  0  1  0  0  0  0  0  0  0  0  0
   -1.7293    2.1749   -2.4877 O   0  0  0  0  0  0  0  0  0  0  0  0
   -1.7617    2.2685   -0.2619 C   0  0  0  0  0  0  0  0  0  0  0  0
   -0.0680    0.1670   -2.6295 N   0  0  0  0  0  0  0  0  0  0  0  0
    0.0034    0.4404   -4.1014 C   0  0  0  0  0  0  0  0  0  0  0  0
   -0.7169    1.3151   -4.9195 C   0  0  0  0  0  0  0  0  0  0  0  0
   -1.9033    1.9049   -4.5672 N   0  0  0  0  0  0  0  0  0  0  0  0
   -2.5912    1.5555   -3.4011 C   0  0  1  0  0  0  0  0  0  0  0  0
   -2.7477    0.0588   -2.8295 C   0  0  0  0  0  0  0  0  0  0  0  0
   -1.8995    2.9935   -5.5027 C   0  0  0  0  0  0  0  0  0  0  0  0
   -2.6487    4.1990   -5.6086 C   0  0  0  0  0  0  0  0  0  0  0  0
   -2.4072    5.0931   -6.6904 C   0  0  0  0  0  0  0  0  0  0  0  0
   -1.4654    4.8308   -7.6677 C   0  0  0  0  0  0  0  0  0  0  0  0
   -0.7339    3.6691   -7.5844 C   0  0  0  0  0  0  0  0  0  0  0  0
   -0.8853    2.7709   -6.5153 C   0  0  0  0  0  0  0  0  0  0  0  0
   -0.2043    1.6206   -6.1496 C   0  0  0  0  0  0  0  0  0  0  0  0
    0.8659    1.0796   -6.9013 C   0  0  0  0  0  0  0  0  0  0  0  0
    1.7847    1.5034   -7.8579 C   0  0  0  0  0  0  0  0  0  0  0  0
    1.9777    2.6000   -8.4748 O   0  0  0  0  0  0  0  0  0  0  0  0
    1.2026   -0.1801   -6.4207 C   0  0  0  0  0  0  0  0  0  0  0  0
    2.3607   -0.7215   -7.2048 C   0  0  0  0  0  0  0  0  0  0  0  0
    2.6861    0.4819   -7.9743 N   0  0  0  0  0  0  0  0  0  0  0  0
    0.7533   -0.3559   -5.0559 C   0  0  0  0  0  0  0  0  0  0  0  0
    0.7253   -1.6152   -4.5303 C   0  0  0  0  0  0  0  0  0  0  0  0
    0.5015   -1.4257   -3.0022 C   0  0  0  0  0  0  0  0  0  0  0  0
    1.3684   -2.6972   -2.5906 C   0  0  0  0  0  0  0  0  0  0  0  0
    0.9700   -2.9022   -5.2677 C   0  0  0  0  0  0  0  0  0  0  0  0
    1.2709   -4.1376   -4.7547 C   0  0  0  0  0  0  0  0  0  0  0  0
    1.6210   -4.0076   -3.4392 C   0  0  0  0  0  0  0  0  0  0  0  0
   -3.5688    2.0523   -3.4271 H   0  0  0  0  0  0  0  0  0  0  0  0
   -4.6170    3.1490   -0.1054 H   0  0  0  0  0  0  0  0  0  0  0  0
   -4.9296    2.7563   -1.8577 H   0  0  0  0  0  0  0  0  0  0  0  0
   -6.2518    2.8873   -0.6832 H   0  0  0  0  0  0  0  0  0  0  0  0
   -2.6269   -1.3666   -0.2539 H   0  0  0  0  0  0  0  0  0  0  0  0
   -1.1409    2.7159    0.5213 H   0  0  0  0  0  0  0  0  0  0  0  0
   -2.3474    3.1424   -0.6866 H   0  0  0  0  0  0  0  0  0  0  0  0
   -2.6340    1.8824    0.3347 H   0  0  0  0  0  0  0  0  0  0  0  0
   -3.3536   -0.6081   -3.4158 H   0  0  0  0  0  0  0  0  0  0  0  0
   -1.9211   -0.6344   -2.8116 H   0  0  0  0  0  0  0  0  0  0  0  0
   -3.3960    4.4825   -4.8778 H   0  0  0  0  0  0  0  0  0  0  0  0
   -2.9711    6.0188   -6.7900 H   0  0  0  0  0  0  0  0  0  0  0  0
   -1.2702    5.5051   -8.4983 H   0  0  0  0  0  0  0  0  0  0  0  0
   -0.0048    3.4808   -8.3624 H   0  0  0  0  0  0  0  0  0  0  0  0
    2.2034   -1.4933   -7.9719 H   0  0  0  0  0  0  0  0  0  0  0  0
    3.1845   -1.0084   -6.5526 H   0  0  0  0  0  0  0  0  0  0  0  0
    3.5058    0.6230   -8.5502 H   0  0  0  0  0  0  0  0  0  0  0  0
    2.2084   -2.6242   -1.8761 H   0  0  0  0  0  0  0  0  0  0  0  0
    0.9600   -2.8836   -6.3675 H   0  0  0  0  0  0  0  0  0  0  0  0
    1.4020   -5.0275   -5.3958 H   0  0  0  0  0  0  0  0  0  0  0  0
    2.2085   -4.8829   -3.0868 H   0  0  0  0  0  0  0  0  0  0  0  0
  1  2  2  0  0  0  0
  2  3  1  0  0  0  0
  3  4  1  0  0  0  0
  4 37  1  0  0  0  0
  4 38  1  0  0  0  0
  4 39  1  0  0  0  0
  5  7  1  0  0  0  0
  5 15  1  0  0  0  0
  5  2  1  1  0  0  0
  5  6  1  0  0  0  0
  6 40  1  0  0  0  0
  7  8  1  0  0  0  0
  7 10  1  0  0  0  0
  7  9  1  1  0  0  0
  8 14  1  0  0  0  0
  9 41  1  0  0  0  0
  9 42  1  0  0  0  0
  9 43  1  0  0  0  0
 10 11  1  0  0  0  0
 10 31  1  0  0  0  0
 11 12  2  0  0  0  0
 11 29  1  0  0  0  0
 12 13  1  0  0  0  0
 12 22  1  0  0  0  0
 13 14  1  0  0  0  0
 13 16  1  0  0  0  0
 14 15  1  0  0  0  0
 14 36  1  1  0  0  0
 15 44  1  0  0  0  0
 15 45  1  0  0  0  0
 16 17  2  0  0  0  0
 16 21  1  0  0  0  0
 17 18  1  0  0  0  0
 17 46  1  0  0  0  0
 18 19  2  0  0  0  0
 18 47  1  0  0  0  0
 19 20  1  0  0  0  0
 19 48  1  0  0  0  0
 20 21  2  0  0  0  0
 20 49  1  0  0  0  0
 21 22  1  0  0  0  0
 22 23  2  0  0  0  0
 23 24  1  0  0  0  0
 23 26  1  0  0  0  0
 24 28  1  0  0  0  0
 24 25  2  0  0  0  0
 26 27  1  0  0  0  0
 26 29  2  0  0  0  0
 27 28  1  0  0  0  0
 27 50  1  0  0  0  0
 27 51  1  0  0  0  0
 28 52  1  0  0  0  0
 29 30  1  0  0  0  0
 30 31  2  0  0  0  0
 30 33  1  0  0  0  0
 31 32  1  0  0  0  0
 32 35  2  0  0  0  0
 32 53  1  0  0  0  0
 33 34  2  0  0  0  0
 33 54  1  0  0  0  0
 34 35  1  0  0  0  0
 34 55  1  0  0  0  0
 35 56  1  0  0  0  0
M  END
>  <DRUGBANK_ID>
DB02152

>  <SECONDARY_ACCESSION_NUMBERS>
EXPT01983

>  <COMMON_NAME>
K-252a

>  <CAS_NUMBER>
97161-97-2

>  <UNII>
IV7H45AM5B

$$$$
