
 OpenBabel10282417233D

 29 28  0  0  0  0  0  0  0  0999 V2000
    0.7873   -0.0112   -0.0885 C   0  0  0  0  0  0  0  0  0  0  0  0
    0.5415   -1.3484   -0.8072 C   0  0  0  0  0  0  0  0  0  0  0  0
    0.5109    0.0240    1.4294 C   0  0  0  0  0  0  0  0  0  0  0  0
    0.2293    1.1053   -0.8077 O   0  0  0  0  0  0  0  0  0  0  0  0
    1.0799   -2.4630   -0.0799 O   0  0  0  0  0  0  0  0  0  0  0  0
    1.0412    1.2335    2.0291 O   0  0  0  0  0  0  0  0  0  0  0  0
   -1.0746    1.3845   -0.9550 C   0  0  0  0  0  0  0  0  0  0  0  0
    2.3943   -2.7582    0.0126 C   0  0  0  0  0  0  0  0  0  0  0  0
    2.3548    1.4867    2.2270 C   0  0  0  0  0  0  0  0  0  0  0  0
   -2.0920    0.4524   -0.3774 C   0  0  0  0  0  0  0  0  0  0  0  0
   -1.4199    2.3819   -1.5868 O   0  0  0  0  0  0  0  0  0  0  0  0
    3.3989   -1.8822   -0.6799 C   0  0  0  0  0  0  0  0  0  0  0  0
    2.7599   -3.7030    0.7057 O   0  0  0  0  0  0  0  0  0  0  0  0
    3.3520    0.4727    1.7656 C   0  0  0  0  0  0  0  0  0  0  0  0
    2.7236    2.5404    2.7394 O   0  0  0  0  0  0  0  0  0  0  0  0
    1.8468    0.1988   -0.1989 H   0  0  0  0  0  0  0  0  0  0  0  0
   -0.5217   -1.5628   -0.9292 H   0  0  0  0  0  0  0  0  0  0  0  0
    0.9184   -1.3364   -1.8368 H   0  0  0  0  0  0  0  0  0  0  0  0
   -0.5527    0.0645    1.6613 H   0  0  0  0  0  0  0  0  0  0  0  0
    0.8935   -0.8528    1.9616 H   0  0  0  0  0  0  0  0  0  0  0  0
   -2.6948    0.9989    0.3482 H   0  0  0  0  0  0  0  0  0  0  0  0
   -2.6937    0.0493   -1.1929 H   0  0  0  0  0  0  0  0  0  0  0  0
   -1.6941   -0.4084    0.1481 H   0  0  0  0  0  0  0  0  0  0  0  0
    4.0645   -1.4582    0.0758 H   0  0  0  0  0  0  0  0  0  0  0  0
    3.9894   -2.4738   -1.3759 H   0  0  0  0  0  0  0  0  0  0  0  0
    2.9730   -1.0594   -1.2478 H   0  0  0  0  0  0  0  0  0  0  0  0
    3.8901    0.8664    0.8969 H   0  0  0  0  0  0  0  0  0  0  0  0
    4.0441    0.2191    2.5678 H   0  0  0  0  0  0  0  0  0  0  0  0
    2.8802   -0.4644    1.4977 H   0  0  0  0  0  0  0  0  0  0  0  0
  1  2  1  0  0  0  0
  1  3  1  0  0  0  0
  1  4  1  0  0  0  0
  1 16  1  0  0  0  0
  2  5  1  0  0  0  0
  2 17  1  0  0  0  0
  2 18  1  0  0  0  0
  3  6  1  0  0  0  0
  3 19  1  0  0  0  0
  3 20  1  0  0  0  0
  4  7  1  0  0  0  0
  5  8  1  0  0  0  0
  6  9  1  0  0  0  0
  7 10  1  0  0  0  0
  7 11  2  0  0  0  0
  8 12  1  0  0  0  0
  8 13  2  0  0  0  0
  9 14  1  0  0  0  0
  9 15  2  0  0  0  0
 10 21  1  0  0  0  0
 10 22  1  0  0  0  0
 10 23  1  0  0  0  0
 12 24  1  0  0  0  0
 12 25  1  0  0  0  0
 12 26  1  0  0  0  0
 14 27  1  0  0  0  0
 14 28  1  0  0  0  0
 14 29  1  0  0  0  0
M  END
>  <DRUGBANK_ID>
DB16005

>  <COMMON_NAME>
Triacetin

>  <CAS_NUMBER>
102-76-1

>  <UNII>
XHX3C3X673

>  <SYNONYMS>
1,2,3-Propanetriol triacetate; Glyceryl triacetate; Triacetin; Triacetina; Triacetine; Triacetinum

$$$$
