
 OpenBabel10282417123D

133132  0  0  1  0  0  0  0  0999 V2000
   -2.4188   16.1240    9.6877 C   0  0  0  0  0  0  0  0  0  0  0  0
   -3.7644   16.2048    8.9853 C   0  0  0  0  0  0  0  0  0  0  0  0
   -3.6445   17.0144    7.6934 C   0  0  0  0  0  0  0  0  0  0  0  0
   -2.6470   16.3722    6.7229 C   0  0  0  0  0  0  0  0  0  0  0  0
   -3.0768   14.9442    6.3684 C   0  0  0  0  0  0  0  0  0  0  0  0
   -4.4463   14.9615    5.6831 C   0  0  0  0  0  0  0  0  0  0  0  0
   -4.3709   15.7917    4.3983 C   0  0  0  0  0  0  0  0  0  0  0  0
   -3.3341   15.1790    3.4519 C   0  0  0  0  0  0  0  0  0  0  0  0
   -3.7432   13.7431    3.1102 C   0  0  0  0  0  0  0  0  0  0  0  0
   -5.1171   13.7558    2.4343 C   0  0  0  0  0  0  0  0  0  0  0  0
   -5.0414   14.5979    1.1580 C   0  0  0  0  0  0  0  0  0  0  0  0
   -3.9942   13.9922    0.2179 C   0  0  0  0  0  0  0  0  0  0  0  0
   -4.4011   12.5598   -0.1378 C   0  0  0  0  0  0  0  0  0  0  0  0
   -5.7737   12.5835   -0.8109 C   0  0  0  0  0  0  0  0  0  0  0  0
   -5.6899   13.4504   -2.0729 C   0  0  0  0  0  0  0  0  0  0  0  0
   -4.7274   12.8149   -3.0874 C   0  0  0  0  0  0  0  0  0  0  0  0
   -5.0099   11.3325   -3.3549 C   0  0  0  0  0  0  0  0  0  0  0  0
   -6.3656   11.0710   -3.9375 C   0  0  0  0  0  0  0  0  0  0  0  0
   -6.5513   10.2368   -4.8044 O   0  0  0  0  0  0  0  0  0  0  0  0
   -7.2990   11.8660   -3.3651 O   0  0  0  0  0  0  0  0  0  0  0  0
   -8.6285   11.9126   -3.8725 C   0  0  0  0  0  0  0  0  0  0  0  0
   -8.7909   12.8412   -5.0907 C   0  0  1  0  0  0  0  0  0  0  0  0
   -7.8816   12.3935   -6.2221 C   0  0  0  0  0  0  0  0  0  0  0  0
   -8.2990   11.0907   -6.5383 O   0  0  0  0  0  0  0  0  0  0  0  0
   -9.6826   10.8151   -7.2861 P   0  0  2  0  0  0  0  0  0  0  0  0
   -9.1059   11.9709   -8.4370 O   0  0  0  0  0  0  0  0  0  0  0  0
  -10.8153   11.6711   -7.6814 O   0  0  0  0  0  0  0  0  0  0  0  0
  -10.2592    9.6594   -6.1352 O   0  0  0  0  0  0  0  0  0  0  0  0
  -10.7794    8.5124   -6.8420 C   0  0  0  0  0  0  0  0  0  0  0  0
  -11.9515    8.7826   -7.8390 C   0  0  0  0  0  0  0  0  0  0  0  0
  -11.6639    9.6978   -8.9607 N   0  0  0  0  0  0  0  0  0  0  0  0
  -10.1787   12.9043   -5.6077 O   0  0  0  0  0  0  0  0  0  0  0  0
  -11.1296   11.9495   -5.2535 C   0  0  0  0  0  0  0  0  0  0  0  0
  -11.0609   11.2591   -4.2767 O   0  0  0  0  0  0  0  0  0  0  0  0
  -12.3756   11.7747   -6.1999 C   0  0  0  0  0  0  0  0  0  0  0  0
  -13.4787   12.4185   -5.5248 C   0  0  0  0  0  0  0  0  0  0  0  0
  -12.9375   13.8543   -5.4491 C   0  0  0  0  0  0  0  0  0  0  0  0
  -12.6711   14.4695   -6.8677 C   0  0  0  0  0  0  0  0  0  0  0  0
  -13.9851   14.4287   -7.6420 C   0  0  0  0  0  0  0  0  0  0  0  0
  -15.0440   15.0411   -6.7250 C   0  0  0  0  0  0  0  0  0  0  0  0
  -14.5900   16.4588   -6.3448 C   0  0  0  0  0  0  0  0  0  0  0  0
  -14.4845   17.2855   -7.6250 C   0  0  0  0  0  0  0  0  0  0  0  0
  -15.8519   17.2864   -8.3101 C   0  0  0  0  0  0  0  0  0  0  0  0
  -16.8879   17.8806   -7.3510 C   0  0  0  0  0  0  0  0  0  0  0  0
  -16.4777   19.3118   -6.9928 C   0  0  0  0  0  0  0  0  0  0  0  0
  -16.4041   20.1539   -8.2694 C   0  0  0  0  0  0  0  0  0  0  0  0
  -17.7720   20.1660   -8.9577 C   0  0  0  0  0  0  0  0  0  0  0  0
  -18.8260   20.7678   -8.0218 C   0  0  0  0  0  0  0  0  0  0  0  0
  -18.4708   22.2152   -7.6642 C   0  0  0  0  0  0  0  0  0  0  0  0
  -18.3704   23.0890   -8.9153 C   0  0  0  0  0  0  0  0  0  0  0  0
  -19.6962   23.1054   -9.6586 C   0  0  0  0  0  0  0  0  0  0  0  0
   -1.6603   15.6317    9.0702 H   0  0  0  0  0  0  0  0  0  0  0  0
   -2.4968   15.5467   10.6094 H   0  0  0  0  0  0  0  0  0  0  0  0
   -2.0610   17.1314    9.9192 H   0  0  0  0  0  0  0  0  0  0  0  0
   -4.1382   15.1931    8.7865 H   0  0  0  0  0  0  0  0  0  0  0  0
   -4.5082   16.6664    9.6403 H   0  0  0  0  0  0  0  0  0  0  0  0
   -4.6346   17.1094    7.2306 H   0  0  0  0  0  0  0  0  0  0  0  0
   -3.3334   18.0400    7.9129 H   0  0  0  0  0  0  0  0  0  0  0  0
   -2.5515   16.9989    5.8299 H   0  0  0  0  0  0  0  0  0  0  0  0
   -1.6349   16.3610    7.1343 H   0  0  0  0  0  0  0  0  0  0  0  0
   -2.3116   14.4766    5.7402 H   0  0  0  0  0  0  0  0  0  0  0  0
   -3.1113   14.2935    7.2457 H   0  0  0  0  0  0  0  0  0  0  0  0
   -4.7752   13.9353    5.4913 H   0  0  0  0  0  0  0  0  0  0  0  0
   -5.2292   15.3579    6.3345 H   0  0  0  0  0  0  0  0  0  0  0  0
   -5.3630   15.8570    3.9421 H   0  0  0  0  0  0  0  0  0  0  0  0
   -4.1215   16.8376    4.5932 H   0  0  0  0  0  0  0  0  0  0  0  0
   -3.2294   15.8069    2.5626 H   0  0  0  0  0  0  0  0  0  0  0  0
   -2.3260   15.1857    3.8737 H   0  0  0  0  0  0  0  0  0  0  0  0
   -2.9744   13.2780    2.4872 H   0  0  0  0  0  0  0  0  0  0  0  0
   -3.7687   13.0935    3.9886 H   0  0  0  0  0  0  0  0  0  0  0  0
   -5.4446   12.7306    2.2417 H   0  0  0  0  0  0  0  0  0  0  0  0
   -5.9030   14.1436    3.0878 H   0  0  0  0  0  0  0  0  0  0  0  0
   -6.0325   14.6663    0.7012 H   0  0  0  0  0  0  0  0  0  0  0  0
   -4.7973   15.6445    1.3575 H   0  0  0  0  0  0  0  0  0  0  0  0
   -3.8775   14.6268   -0.6635 H   0  0  0  0  0  0  0  0  0  0  0  0
   -2.9887   13.9964    0.6449 H   0  0  0  0  0  0  0  0  0  0  0  0
   -3.6373   12.1043   -0.7738 H   0  0  0  0  0  0  0  0  0  0  0  0
   -4.4278   11.9034    0.7372 H   0  0  0  0  0  0  0  0  0  0  0  0
   -6.1027   11.5599   -1.0109 H   0  0  0  0  0  0  0  0  0  0  0  0
   -6.5598   12.9615   -0.1502 H   0  0  0  0  0  0  0  0  0  0  0  0
   -6.6851   13.6333   -2.4780 H   0  0  0  0  0  0  0  0  0  0  0  0
   -5.3786   14.4764   -1.8633 H   0  0  0  0  0  0  0  0  0  0  0  0
   -4.7428   13.3932   -4.0157 H   0  0  0  0  0  0  0  0  0  0  0  0
   -3.6987   12.8932   -2.7125 H   0  0  0  0  0  0  0  0  0  0  0  0
   -4.2668   10.9600   -4.0649 H   0  0  0  0  0  0  0  0  0  0  0  0
   -4.9258   10.7089   -2.4601 H   0  0  0  0  0  0  0  0  0  0  0  0
   -8.9294   10.8805   -4.0519 H   0  0  0  0  0  0  0  0  0  0  0  0
   -9.2667   12.3199   -3.0786 H   0  0  0  0  0  0  0  0  0  0  0  0
   -8.4641   13.8593   -4.8423 H   0  0  0  0  0  0  0  0  0  0  0  0
   -7.8875   13.0587   -7.0892 H   0  0  0  0  0  0  0  0  0  0  0  0
   -6.8206   12.3674   -5.9517 H   0  0  0  0  0  0  0  0  0  0  0  0
   -9.3844   11.6480   -9.3113 H   0  0  0  0  0  0  0  0  0  0  0  0
   -9.9500    8.0392   -7.3785 H   0  0  0  0  0  0  0  0  0  0  0  0
  -11.1284    7.8050   -6.0827 H   0  0  0  0  0  0  0  0  0  0  0  0
  -12.2587    7.8379   -8.2923 H   0  0  0  0  0  0  0  0  0  0  0  0
  -12.8332    9.1258   -7.2927 H   0  0  0  0  0  0  0  0  0  0  0  0
  -12.5329    9.8806   -9.4690 H   0  0  0  0  0  0  0  0  0  0  0  0
  -11.5191   10.6566   -8.5969 H   0  0  0  0  0  0  0  0  0  0  0  0
  -12.4812   12.1927   -7.2151 H   0  0  0  0  0  0  0  0  0  0  0  0
  -12.5244   10.7220   -6.3740 H   0  0  0  0  0  0  0  0  0  0  0  0
  -14.3708   12.2643   -6.1466 H   0  0  0  0  0  0  0  0  0  0  0  0
  -13.5995   11.8722   -4.5948 H   0  0  0  0  0  0  0  0  0  0  0  0
  -13.6093   14.4119   -4.8113 H   0  0  0  0  0  0  0  0  0  0  0  0
  -12.0104   13.9494   -4.8863 H   0  0  0  0  0  0  0  0  0  0  0  0
  -12.2632   15.4778   -6.7482 H   0  0  0  0  0  0  0  0  0  0  0  0
  -11.8818   14.0065   -7.4762 H   0  0  0  0  0  0  0  0  0  0  0  0
  -13.8863   14.9472   -8.6012 H   0  0  0  0  0  0  0  0  0  0  0  0
  -14.2692   13.4122   -7.9311 H   0  0  0  0  0  0  0  0  0  0  0  0
  -16.0260   14.9932   -7.1918 H   0  0  0  0  0  0  0  0  0  0  0  0
  -15.2146   14.4527   -5.8208 H   0  0  0  0  0  0  0  0  0  0  0  0
  -15.2730   16.8793   -5.6047 H   0  0  0  0  0  0  0  0  0  0  0  0
  -13.6341   16.4948   -5.8124 H   0  0  0  0  0  0  0  0  0  0  0  0
  -14.1210   18.2886   -7.3904 H   0  0  0  0  0  0  0  0  0  0  0  0
  -13.7227   16.9070   -8.3126 H   0  0  0  0  0  0  0  0  0  0  0  0
  -15.7908   17.8226   -9.2586 H   0  0  0  0  0  0  0  0  0  0  0  0
  -16.1677   16.2874   -8.6228 H   0  0  0  0  0  0  0  0  0  0  0  0
  -17.8817   17.8252   -7.8005 H   0  0  0  0  0  0  0  0  0  0  0  0
  -17.0056   17.2912   -6.4368 H   0  0  0  0  0  0  0  0  0  0  0  0
  -17.1748   19.7241   -6.2597 H   0  0  0  0  0  0  0  0  0  0  0  0
  -15.5187   19.3523   -6.4677 H   0  0  0  0  0  0  0  0  0  0  0  0
  -16.0519   21.1600   -8.0294 H   0  0  0  0  0  0  0  0  0  0  0  0
  -15.6449   19.7827   -8.9653 H   0  0  0  0  0  0  0  0  0  0  0  0
  -17.7035   20.7059   -9.9053 H   0  0  0  0  0  0  0  0  0  0  0  0
  -18.0847   19.1624   -9.2645 H   0  0  0  0  0  0  0  0  0  0  0  0
  -19.8131   20.6975   -8.4847 H   0  0  0  0  0  0  0  0  0  0  0  0
  -18.9338   20.1808   -7.1034 H   0  0  0  0  0  0  0  0  0  0  0  0
  -19.2207   22.6172   -6.9765 H   0  0  0  0  0  0  0  0  0  0  0  0
  -17.5239   22.2607   -7.1120 H   0  0  0  0  0  0  0  0  0  0  0  0
  -18.0806   24.1043   -8.6318 H   0  0  0  0  0  0  0  0  0  0  0  0
  -17.5768   22.7349   -9.5842 H   0  0  0  0  0  0  0  0  0  0  0  0
  -20.4826   23.4923   -9.0041 H   0  0  0  0  0  0  0  0  0  0  0  0
  -19.6315   23.7258  -10.5528 H   0  0  0  0  0  0  0  0  0  0  0  0
  -19.9960   22.1055   -9.9892 H   0  0  0  0  0  0  0  0  0  0  0  0
  1  2  1  0  0  0  0
  1 52  1  0  0  0  0
  1 53  1  0  0  0  0
  1 54  1  0  0  0  0
  2  3  1  0  0  0  0
  2 55  1  0  0  0  0
  2 56  1  0  0  0  0
  3  4  1  0  0  0  0
  3 57  1  0  0  0  0
  3 58  1  0  0  0  0
  4  5  1  0  0  0  0
  4 59  1  0  0  0  0
  4 60  1  0  0  0  0
  5  6  1  0  0  0  0
  5 61  1  0  0  0  0
  5 62  1  0  0  0  0
  6  7  1  0  0  0  0
  6 63  1  0  0  0  0
  6 64  1  0  0  0  0
  7  8  1  0  0  0  0
  7 65  1  0  0  0  0
  7 66  1  0  0  0  0
  8  9  1  0  0  0  0
  8 67  1  0  0  0  0
  8 68  1  0  0  0  0
  9 10  1  0  0  0  0
  9 69  1  0  0  0  0
  9 70  1  0  0  0  0
 10 11  1  0  0  0  0
 10 71  1  0  0  0  0
 10 72  1  0  0  0  0
 11 12  1  0  0  0  0
 11 73  1  0  0  0  0
 11 74  1  0  0  0  0
 12 13  1  0  0  0  0
 12 75  1  0  0  0  0
 12 76  1  0  0  0  0
 13 14  1  0  0  0  0
 13 77  1  0  0  0  0
 13 78  1  0  0  0  0
 14 15  1  0  0  0  0
 14 79  1  0  0  0  0
 14 80  1  0  0  0  0
 15 16  1  0  0  0  0
 15 81  1  0  0  0  0
 15 82  1  0  0  0  0
 16 17  1  0  0  0  0
 16 83  1  0  0  0  0
 16 84  1  0  0  0  0
 17 18  1  0  0  0  0
 17 85  1  0  0  0  0
 17 86  1  0  0  0  0
 18 19  2  0  0  0  0
 18 20  1  0  0  0  0
 20 21  1  0  0  0  0
 21 22  1  0  0  0  0
 21 87  1  0  0  0  0
 21 88  1  0  0  0  0
 22 23  1  0  0  0  0
 22 32  1  0  0  0  0
 22 89  1  1  0  0  0
 23 24  1  0  0  0  0
 23 90  1  0  0  0  0
 23 91  1  0  0  0  0
 25 27  2  1  0  0  0
 25 28  1  0  0  0  0
 25 26  1  0  0  0  0
 25 24  1  0  0  0  0
 26 92  1  0  0  0  0
 28 29  1  0  0  0  0
 29 30  1  0  0  0  0
 29 93  1  0  0  0  0
 29 94  1  0  0  0  0
 30 31  1  0  0  0  0
 30 95  1  0  0  0  0
 30 96  1  0  0  0  0
 31 97  1  0  0  0  0
 31 98  1  0  0  0  0
 32 33  1  0  0  0  0
 33 34  2  0  0  0  0
 33 35  1  0  0  0  0
 35 36  1  0  0  0  0
 35 99  1  0  0  0  0
 35100  1  0  0  0  0
 36 37  1  0  0  0  0
 36101  1  0  0  0  0
 36102  1  0  0  0  0
 37 38  1  0  0  0  0
 37103  1  0  0  0  0
 37104  1  0  0  0  0
 38 39  1  0  0  0  0
 38105  1  0  0  0  0
 38106  1  0  0  0  0
 39 40  1  0  0  0  0
 39107  1  0  0  0  0
 39108  1  0  0  0  0
 40 41  1  0  0  0  0
 40109  1  0  0  0  0
 40110  1  0  0  0  0
 41 42  1  0  0  0  0
 41111  1  0  0  0  0
 41112  1  0  0  0  0
 42 43  1  0  0  0  0
 42113  1  0  0  0  0
 42114  1  0  0  0  0
 43 44  1  0  0  0  0
 43115  1  0  0  0  0
 43116  1  0  0  0  0
 44 45  1  0  0  0  0
 44117  1  0  0  0  0
 44118  1  0  0  0  0
 45 46  1  0  0  0  0
 45119  1  0  0  0  0
 45120  1  0  0  0  0
 46 47  1  0  0  0  0
 46121  1  0  0  0  0
 46122  1  0  0  0  0
 47 48  1  0  0  0  0
 47123  1  0  0  0  0
 47124  1  0  0  0  0
 48 49  1  0  0  0  0
 48125  1  0  0  0  0
 48126  1  0  0  0  0
 49 50  1  0  0  0  0
 49127  1  0  0  0  0
 49128  1  0  0  0  0
 50 51  1  0  0  0  0
 50129  1  0  0  0  0
 50130  1  0  0  0  0
 51131  1  0  0  0  0
 51132  1  0  0  0  0
 51133  1  0  0  0  0
M  END
>  <DRUGBANK_ID>
DB01966

>  <SECONDARY_ACCESSION_NUMBERS>
EXPT02546

>  <COMMON_NAME>
Di-Stearoyl-3-Sn-Phosphatidylethanolamine

$$$$
