
 OpenBabel10282417123D

 26 28  0  0  0  0  0  0  0  0999 V2000
    0.3683   -0.2338   -0.0499 C   0  0  0  0  0  0  0  0  0  0  0  0
    1.4609    0.6380    0.0261 C   0  0  0  0  0  0  0  0  0  0  0  0
    0.6010   -1.6208   -0.0279 C   0  0  0  0  0  0  0  0  0  0  0  0
    2.7615    0.1319    0.0935 C   0  0  0  0  0  0  0  0  0  0  0  0
    1.8961   -2.1115    0.0438 C   0  0  0  0  0  0  0  0  0  0  0  0
    2.9792   -1.2475    0.1066 C   0  0  0  0  0  0  0  0  0  0  0  0
   -1.0248    1.7868   -0.5715 C   0  0  0  0  0  0  0  0  0  0  0  0
    0.0238    2.4995    0.2620 C   0  0  0  0  0  0  0  0  0  0  0  0
   -1.0268    0.3192   -0.1681 C   0  0  2  0  0  0  0  0  0  0  0  0
    1.3399    2.0024   -0.0019 O   0  0  0  0  0  0  0  0  0  0  0  0
   -1.7773    0.1078    1.0526 N   0  0  0  0  0  0  0  0  0  0  0  0
   -2.8569   -0.7144    0.8605 C   0  0  0  0  0  0  0  0  0  0  0  0
   -1.8954   -0.4910   -1.1476 C   0  0  0  0  0  0  0  0  0  0  0  0
   -2.9192   -1.0530   -0.4469 N   0  0  0  0  0  0  0  0  0  0  0  0
   -3.6238   -1.0739    1.7373 O   0  0  0  0  0  0  0  0  0  0  0  0
   -1.6947   -0.6516   -2.3422 O   0  0  0  0  0  0  0  0  0  0  0  0
    2.0950   -3.4355    0.0459 F   0  0  0  0  0  0  0  0  0  0  0  0
   -0.2145   -2.3363   -0.0874 H   0  0  0  0  0  0  0  0  0  0  0  0
    3.6078    0.8125    0.1372 H   0  0  0  0  0  0  0  0  0  0  0  0
    3.9832   -1.6537    0.1635 H   0  0  0  0  0  0  0  0  0  0  0  0
   -0.7704    1.8853   -1.6351 H   0  0  0  0  0  0  0  0  0  0  0  0
   -2.0126    2.2413   -0.4277 H   0  0  0  0  0  0  0  0  0  0  0  0
    0.0189    3.5682    0.0231 H   0  0  0  0  0  0  0  0  0  0  0  0
   -0.1811    2.4116    1.3364 H   0  0  0  0  0  0  0  0  0  0  0  0
   -1.5197    0.4340    1.9754 H   0  0  0  0  0  0  0  0  0  0  0  0
   -3.6075   -1.6702   -0.8407 H   0  0  0  0  0  0  0  0  0  0  0  0
  2 10  1  0  0  0  0
  2  1  1  0  0  0  0
  3  1  2  0  0  0  0
  3 18  1  0  0  0  0
  4  2  2  0  0  0  0
  4 19  1  0  0  0  0
  5  3  1  0  0  0  0
  5 17  1  0  0  0  0
  6  4  1  0  0  0  0
  6  5  2  0  0  0  0
  6 20  1  0  0  0  0
  7 21  1  0  0  0  0
  7 22  1  0  0  0  0
  8  7  1  0  0  0  0
  8 23  1  0  0  0  0
  8 24  1  0  0  0  0
  9  7  1  0  0  0  0
  9  1  1  1  0  0  0
  9 11  1  0  0  0  0
  9 13  1  0  0  0  0
 10  8  1  0  0  0  0
 11 25  1  0  0  0  0
 12 11  1  0  0  0  0
 12 15  2  0  0  0  0
 13 16  2  0  0  0  0
 14 12  1  0  0  0  0
 14 13  1  0  0  0  0
 14 26  1  0  0  0  0
M  END
>  <DRUGBANK_ID>
DB02712

>  <SECONDARY_ACCESSION_NUMBERS>
EXPT03309

>  <COMMON_NAME>
Sorbinil

>  <CAS_NUMBER>
68367-52-2

>  <UNII>
G4186B906P

>  <SYNONYMS>
Sorbinil; sorbinilo; Sorbinilum

$$$$
