
 OpenBabel10282417123D

 23 23  0  0  1  0  0  0  0  0999 V2000
   -0.7853   -0.5021   -0.5443 C   0  0  1  0  0  0  0  0  0  0  0  0
   -1.1277    0.6738    0.3867 C   0  0  1  0  0  0  0  0  0  0  0  0
    0.5551   -1.1380   -0.1623 C   0  0  1  0  0  0  0  0  0  0  0  0
    0.0638    1.6404    0.5157 C   0  0  1  0  0  0  0  0  0  0  0  0
   -0.2142    2.7259    1.5555 C   0  0  0  0  0  0  0  0  0  0  0  0
    1.6401   -0.0451   -0.1158 C   0  0  1  0  0  0  0  0  0  0  0  0
   -1.8261   -1.4841   -0.5182 O   0  0  0  0  0  0  0  0  0  0  0  0
   -2.2854    1.3620   -0.1051 O   0  0  0  0  0  0  0  0  0  0  0  0
    0.4114   -1.7866    1.1163 O   0  0  0  0  0  0  0  0  0  0  0  0
    0.3821    3.7933    1.6434 O   0  0  0  0  0  0  0  0  0  0  0  0
   -1.2027    2.4323    2.4218 O   0  0  0  0  0  0  0  0  0  0  0  0
    1.9309    0.5337   -1.3771 O   0  0  0  0  0  0  0  0  0  0  0  0
    1.2788    0.9591    0.8344 O   0  0  0  0  0  0  0  0  0  0  0  0
   -0.7489   -0.1426   -1.5777 H   0  0  0  0  0  0  0  0  0  0  0  0
   -1.3963    0.2614    1.3669 H   0  0  0  0  0  0  0  0  0  0  0  0
    0.8139   -1.9154   -0.8893 H   0  0  0  0  0  0  0  0  0  0  0  0
    0.1887    2.1814   -0.4322 H   0  0  0  0  0  0  0  0  0  0  0  0
    2.5742   -0.4884    0.2462 H   0  0  0  0  0  0  0  0  0  0  0  0
   -1.8059   -1.9009    0.3647 H   0  0  0  0  0  0  0  0  0  0  0  0
   -2.0990    1.7306   -0.9843 H   0  0  0  0  0  0  0  0  0  0  0  0
    0.4214   -1.1014    1.8116 H   0  0  0  0  0  0  0  0  0  0  0  0
   -1.3452    3.2384    2.9587 H   0  0  0  0  0  0  0  0  0  0  0  0
    1.1118    0.7697   -1.8348 H   0  0  0  0  0  0  0  0  0  0  0  0
  1  7  1  0  0  0  0
  1 14  1  6  0  0  0
  2  1  1  0  0  0  0
  2  8  1  0  0  0  0
  2 15  1  1  0  0  0
  3  1  1  0  0  0  0
  3  9  1  0  0  0  0
  3 16  1  6  0  0  0
  4  2  1  0  0  0  0
  4 17  1  6  0  0  0
  4  5  1  0  0  0  0
  6  3  1  0  0  0  0
  6 12  1  0  0  0  0
  6 18  1  1  0  0  0
  7 19  1  0  0  0  0
  8 20  1  0  0  0  0
  9 21  1  0  0  0  0
 10  5  2  0  0  0  0
 11  5  1  0  0  0  0
 11 22  1  0  0  0  0
 12 23  1  0  0  0  0
 13  4  1  0  0  0  0
 13  6  1  0  0  0  0
M  END
>  <DRUGBANK_ID>
DB01982

>  <SECONDARY_ACCESSION_NUMBERS>
EXPT02116

>  <COMMON_NAME>
D-Mannuronic Acid

>  <CAS_NUMBER>
1986-14-7

$$$$
