
 OpenBabel10282417123D

 21 20  0  0  1  0  0  0  0  0999 V2000
    1.0283    0.3358    0.2368 N   0  0  0  0  0  0  0  0  0  0  0  0
    0.4732    1.2924   -0.7340 C   0  0  1  0  0  0  0  0  0  0  0  0
    0.9502    1.1250   -2.1871 C   0  0  0  0  0  0  0  0  0  0  0  0
    0.5499   -0.4140   -3.1409 S   0  0  0  0  0  0  0  0  0  0  0  0
    1.1114   -1.8352   -2.1112 C   0  0  0  0  0  0  0  0  0  0  0  0
    2.6275   -1.9011   -1.9888 C   0  0  0  0  0  0  0  0  0  0  0  0
    3.1537   -0.7748   -1.2977 O   0  0  0  0  0  0  0  0  0  0  0  0
   -1.0613    1.2500   -0.6961 C   0  0  0  0  0  0  0  0  0  0  0  0
   -1.6477    2.3686   -0.2167 O   0  0  0  0  0  0  0  0  0  0  0  0
   -1.7299    0.2825   -1.0504 O   0  0  0  0  0  0  0  0  0  0  0  0
    0.5483   -0.5521    0.0899 H   0  0  0  0  0  0  0  0  0  0  0  0
    2.0090    0.1232    0.0071 H   0  0  0  0  0  0  0  0  0  0  0  0
    0.8100    2.2781   -0.3889 H   0  0  0  0  0  0  0  0  0  0  0  0
    0.4995    1.9357   -2.7758 H   0  0  0  0  0  0  0  0  0  0  0  0
    2.0206    1.3366   -2.2617 H   0  0  0  0  0  0  0  0  0  0  0  0
    0.6128   -1.8871   -1.1423 H   0  0  0  0  0  0  0  0  0  0  0  0
    0.7712   -2.7413   -2.6267 H   0  0  0  0  0  0  0  0  0  0  0  0
    2.9272   -2.7913   -1.4291 H   0  0  0  0  0  0  0  0  0  0  0  0
    3.0892   -1.9553   -2.9802 H   0  0  0  0  0  0  0  0  0  0  0  0
    3.1827   -0.0709   -1.9667 H   0  0  0  0  0  0  0  0  0  0  0  0
   -1.0304    3.0269    0.1518 H   0  0  0  0  0  0  0  0  0  0  0  0
  1 11  1  0  0  0  0
  1 12  1  0  0  0  0
  2  1  1  0  0  0  0
  2  3  1  0  0  0  0
  2  8  1  0  0  0  0
  2 13  1  1  0  0  0
  3  4  1  0  0  0  0
  3 14  1  0  0  0  0
  3 15  1  0  0  0  0
  4  5  1  0  0  0  0
  5  6  1  0  0  0  0
  5 16  1  0  0  0  0
  5 17  1  0  0  0  0
  6  7  1  0  0  0  0
  6 18  1  0  0  0  0
  6 19  1  0  0  0  0
  7 20  1  0  0  0  0
  8  9  1  0  0  0  0
  8 10  2  0  0  0  0
  9 21  1  0  0  0  0
M  END
>  <DRUGBANK_ID>
DB02413

>  <SECONDARY_ACCESSION_NUMBERS>
EXPT02417

>  <COMMON_NAME>
Hydroxyethylcysteine

$$$$
