V25
 OpenBabel10282417173D

 35 36  0  0  0  0  0  0  0  0999 V2000
    1.1289   -0.0438    0.2783 C   0  0  0  0  0  0  0  0  0  0  0  0
    0.7694   -0.0557   -1.1633 C   0  0  0  0  0  0  0  0  0  0  0  0
    1.3104   -1.2743   -1.7627 O   0  0  0  0  0  0  0  0  0  0  0  0
    2.5948   -1.2304   -2.1923 C   0  0  0  0  0  0  0  0  0  0  0  0
    3.4110   -0.3569   -1.8416 O   0  0  0  0  0  0  0  0  0  0  0  0
    2.9292   -2.3250   -3.1093 C   0  0  0  0  0  0  0  0  0  0  0  0
    4.0314   -3.1493   -2.9071 N   0  0  0  0  0  0  0  0  0  0  0  0
    4.8543   -3.1052   -1.7096 C   0  0  0  0  0  0  0  0  0  0  0  0
    4.2587   -4.0134   -3.9745 C   0  0  0  0  0  0  0  0  0  0  0  0
    5.2736   -5.0020   -4.2313 C   0  0  0  0  0  0  0  0  0  0  0  0
    6.5271   -5.3321   -3.0873 Cl  0  0  0  0  0  0  0  0  0  0  0  0
    5.2760   -5.7320   -5.4386 C   0  0  0  0  0  0  0  0  0  0  0  0
    6.4317   -6.9447   -5.8546 Cl  0  0  0  0  0  0  0  0  0  0  0  0
    4.3124   -5.5115   -6.3740 C   0  0  0  0  0  0  0  0  0  0  0  0
    3.3272   -4.5854   -6.0987 C   0  0  0  0  0  0  0  0  0  0  0  0
    3.2355   -3.7726   -4.9097 C   0  0  0  0  0  0  0  0  0  0  0  0
    2.3626   -2.6961   -4.3473 C   0  0  0  0  0  0  0  0  0  0  0  0
    1.1845   -2.0187   -4.9195 C   0  0  0  0  0  0  0  0  0  0  0  0
    0.4506   -0.9363   -4.1448 C   0  0  0  0  0  0  0  0  0  0  0  0
   -0.1582   -0.0384   -3.5020 N   0  0  0  0  0  0  0  0  0  0  0  0
    0.5483   -2.2469   -6.0951 C   0  0  0  0  0  0  0  0  0  0  0  0
    0.8904   -3.2197   -6.9588 N   0  0  0  0  0  0  0  0  0  0  0  0
    0.7567   -0.9712    0.7166 H   0  0  0  0  0  0  0  0  0  0  0  0
    0.6917    0.8221    0.7765 H   0  0  0  0  0  0  0  0  0  0  0  0
    2.2135   -0.0230    0.3685 H   0  0  0  0  0  0  0  0  0  0  0  0
   -0.3314   -0.0738   -1.2328 H   0  0  0  0  0  0  0  0  0  0  0  0
    1.1163    0.8547   -1.6825 H   0  0  0  0  0  0  0  0  0  0  0  0
    4.8253   -4.0927   -1.2434 H   0  0  0  0  0  0  0  0  0  0  0  0
    5.8657   -2.8147   -2.0022 H   0  0  0  0  0  0  0  0  0  0  0  0
    4.4735   -2.3857   -0.9856 H   0  0  0  0  0  0  0  0  0  0  0  0
    4.2665   -6.0401   -7.3259 H   0  0  0  0  0  0  0  0  0  0  0  0
    2.6726   -4.6339   -6.9644 H   0  0  0  0  0  0  0  0  0  0  0  0
   -0.3270   -1.6901   -6.4293 H   0  0  0  0  0  0  0  0  0  0  0  0
    0.6573   -3.3029   -7.9386 H   0  0  0  0  0  0  0  0  0  0  0  0
    1.8452   -3.3676   -6.7488 H   0  0  0  0  0  0  0  0  0  0  0  0
  1  2  1  0  0  0  0
  1 23  1  0  0  0  0
  1 24  1  0  0  0  0
  1 25  1  0  0  0  0
  2  3  1  0  0  0  0
  2 26  1  0  0  0  0
  2 27  1  0  0  0  0
  3  4  1  0  0  0  0
  4  5  2  0  0  0  0
  4  6  1  0  0  0  0
  6  7  1  0  0  0  0
  6 17  2  0  0  0  0
  7  8  1  0  0  0  0
  7  9  1  0  0  0  0
  8 28  1  0  0  0  0
  8 29  1  0  0  0  0
  8 30  1  0  0  0  0
  9 10  1  0  0  0  0
  9 16  2  0  0  0  0
 10 11  1  0  0  0  0
 10 12  2  0  0  0  0
 12 13  1  0  0  0  0
 12 14  1  0  0  0  0
 14 15  2  0  0  0  0
 14 31  1  0  0  0  0
 15 16  1  0  0  0  0
 15 32  1  0  0  0  0
 16 17  1  0  0  0  0
 17 18  1  0  0  0  0
 18 19  1  0  0  0  0
 18 21  2  0  0  0  0
 19 20  3  0  0  0  0
 21 22  1  0  0  0  0
 21 33  1  0  0  0  0
 22 34  1  0  0  0  0
 22 35  1  0  0  0  0
M  END
>  <DRUGBANK_ID>
DB08691

>  <COMMON_NAME>
ethyl 3-[(E)-2-amino-1-cyanoethenyl]-6,7-dichloro-1-methyl-1H-indole-2-carboxylate

$$$$
