
 OpenBabel10282417143D

 12 11  0  0  1  0  0  0  0  0999 V2000
    0.9697   -0.0974    0.1008 N   0  0  0  0  0  0  0  0  0  0  0  0
    0.4624    0.3171    1.4190 C   0  0  1  0  0  0  0  0  0  0  0  0
    0.9859    1.6499    1.7650 C   0  0  0  0  0  0  0  0  0  0  0  0
    1.3965    2.7458    2.0486 C   0  0  0  0  0  0  0  0  0  0  0  0
   -1.0857    0.3332    1.3803 C   0  0  0  0  0  0  0  0  0  0  0  0
   -1.6925   -0.5306    2.2344 O   0  0  0  0  0  0  0  0  0  0  0  0
   -1.7436    1.0502    0.6336 O   0  0  0  0  0  0  0  0  0  0  0  0
    0.6205    0.5791   -0.5849 H   0  0  0  0  0  0  0  0  0  0  0  0
    1.9838   -0.0086    0.0843 H   0  0  0  0  0  0  0  0  0  0  0  0
    0.8052   -0.4139    2.1584 H   0  0  0  0  0  0  0  0  0  0  0  0
    1.7387    3.7240    2.2968 H   0  0  0  0  0  0  0  0  0  0  0  0
   -1.0977   -1.0963    2.7603 H   0  0  0  0  0  0  0  0  0  0  0  0
  1  8  1  0  0  0  0
  1  9  1  0  0  0  0
  2  1  1  0  0  0  0
  2  3  1  0  0  0  0
  2  5  1  0  0  0  0
  2 10  1  1  0  0  0
  3  4  3  0  0  0  0
  4 11  1  0  0  0  0
  5  6  1  0  0  0  0
  5  7  2  0  0  0  0
  6 12  1  0  0  0  0
M  END
>  <DRUGBANK_ID>
DB04217

>  <SECONDARY_ACCESSION_NUMBERS>
EXPT02057

>  <COMMON_NAME>
L-2-amino-3-butynoic acid

>  <CAS_NUMBER>
73537-09-4

>  <SYNONYMS>
(2S)-2-Amino-3-butynoic acid

$$$$
