
 OpenBabel10282417203D

 42 43  0  0  0  0  0  0  0  0999 V2000
    0.9121   -0.0098    0.0832 C   0  0  0  0  0  0  0  0  0  0  0  0
   -1.2800    7.0379   -4.8626 C   0  0  0  0  0  0  0  0  0  0  0  0
    0.4326    1.4039   -0.2842 C   0  0  0  0  0  0  0  0  0  0  0  0
    0.0039    6.9889   -4.0655 C   0  0  0  0  0  0  0  0  0  0  0  0
    5.8428    0.7183   -4.8744 C   0  0  0  0  0  0  0  0  0  0  0  0
    5.6475    2.0916   -4.2538 C   0  0  0  0  0  0  0  0  0  0  0  0
    4.6475    0.3371   -5.7430 C   0  0  0  0  0  0  0  0  0  0  0  0
    4.3286    2.1453   -3.5060 C   0  0  0  0  0  0  0  0  0  0  0  0
    3.3489    0.4569   -4.9626 C   0  0  0  0  0  0  0  0  0  0  0  0
   -0.3991    4.0798   -1.6990 C   0  0  0  0  0  0  0  0  0  0  0  0
    0.5817    3.2334   -2.0518 C   0  0  0  0  0  0  0  0  0  0  0  0
   -0.7008    5.4176   -2.3253 C   0  0  0  0  0  0  0  0  0  0  0  0
    1.6708    1.1788   -2.4724 C   0  0  0  0  0  0  0  0  0  0  0  0
    1.9126    1.9585   -3.7720 C   0  0  3  0  0  0  0  0  0  0  0  0
    3.2179    1.7976   -4.4021 N   0  0  0  0  0  0  0  0  0  0  0  0
    0.8631    1.9387   -1.5897 N   0  0  0  0  0  0  0  0  0  0  0  0
   -1.6371    6.1039   -1.9278 O   0  0  0  0  0  0  0  0  0  0  0  0
    2.0676    0.0327   -2.2883 O   0  0  0  0  0  0  0  0  0  0  0  0
    0.1147    5.7507   -3.3466 O   0  0  0  0  0  0  0  0  0  0  0  0
    1.6832    3.6517   -3.3091 S   0  0  0  0  0  0  0  0  0  0  0  0
   -1.1314    3.8028   -0.9505 H   0  0  0  0  0  0  0  0  0  0  0  0
    0.5546   -0.7507   -0.6414 H   0  0  0  0  0  0  0  0  0  0  0  0
    0.5413   -0.3222    1.0643 H   0  0  0  0  0  0  0  0  0  0  0  0
    2.0075   -0.0625    0.1261 H   0  0  0  0  0  0  0  0  0  0  0  0
   -2.1467    6.9365   -4.2068 H   0  0  0  0  0  0  0  0  0  0  0  0
   -1.3650    7.9807   -5.4080 H   0  0  0  0  0  0  0  0  0  0  0  0
   -1.3205    6.2073   -5.5755 H   0  0  0  0  0  0  0  0  0  0  0  0
   -0.6613    1.4136   -0.2510 H   0  0  0  0  0  0  0  0  0  0  0  0
    0.8026    2.0865    0.4909 H   0  0  0  0  0  0  0  0  0  0  0  0
    0.1128    7.8271   -3.3730 H   0  0  0  0  0  0  0  0  0  0  0  0
    0.8530    7.0358   -4.7640 H   0  0  0  0  0  0  0  0  0  0  0  0
    6.7590    0.7064   -5.4687 H   0  0  0  0  0  0  0  0  0  0  0  0
    5.9546   -0.0187   -4.0696 H   0  0  0  0  0  0  0  0  0  0  0  0
    6.4604    2.3171   -3.5557 H   0  0  0  0  0  0  0  0  0  0  0  0
    5.6635    2.8666   -5.0314 H   0  0  0  0  0  0  0  0  0  0  0  0
    4.6057    0.9828   -6.6286 H   0  0  0  0  0  0  0  0  0  0  0  0
    4.7551   -0.6950   -6.0898 H   0  0  0  0  0  0  0  0  0  0  0  0
    4.3535    1.4815   -2.6352 H   0  0  0  0  0  0  0  0  0  0  0  0
    4.2461    3.1690   -3.1221 H   0  0  0  0  0  0  0  0  0  0  0  0
    2.5069    0.2455   -5.6344 H   0  0  0  0  0  0  0  0  0  0  0  0
    3.3432   -0.3069   -4.1813 H   0  0  0  0  0  0  0  0  0  0  0  0
    1.0997    1.7096   -4.4661 H   0  0  0  0  0  0  0  0  0  0  0  0
  1 22  1  0  0  0  0
  1 23  1  0  0  0  0
  1 24  1  0  0  0  0
  2 25  1  0  0  0  0
  2 26  1  0  0  0  0
  2 27  1  0  0  0  0
  3  1  1  0  0  0  0
  3 28  1  0  0  0  0
  3 29  1  0  0  0  0
  4  2  1  0  0  0  0
  4 30  1  0  0  0  0
  4 31  1  0  0  0  0
  5 32  1  0  0  0  0
  5 33  1  0  0  0  0
  6  5  1  0  0  0  0
  6 34  1  0  0  0  0
  6 35  1  0  0  0  0
  7  5  1  0  0  0  0
  7 36  1  0  0  0  0
  7 37  1  0  0  0  0
  8  6  1  0  0  0  0
  8 38  1  0  0  0  0
  8 39  1  0  0  0  0
  9  7  1  0  0  0  0
  9 40  1  0  0  0  0
  9 41  1  0  0  0  0
 11 10  2  0  0  0  0
 12 10  1  0  0  0  0
 14 13  1  0  0  0  0
 14 42  1  0  0  0  0
 15  8  1  0  0  0  0
 15  9  1  0  0  0  0
 15 14  1  0  0  0  0
 16  3  1  0  0  0  0
 16 11  1  0  0  0  0
 16 13  1  0  0  0  0
 17 12  2  0  0  0  0
 18 13  2  0  0  0  0
 19  4  1  0  0  0  0
 19 12  1  0  0  0  0
 20 11  1  0  0  0  0
 20 14  1  0  0  0  0
 21 10  1  0  0  0  0
M  END
>  <DRUGBANK_ID>
DB13202

>  <COMMON_NAME>
Piprozolin

>  <CAS_NUMBER>
17243-64-0

>  <UNII>
7786W0VV8M

>  <SYNONYMS>
(+-)-Piprozolin; Piprozolin; Piprozolina; Piprozoline; Piprozolinum

$$$$
