3GV
 OpenBabel10282417163D

 27 28  0  0  0  0  0  0  0  0999 V2000
    1.9428    0.0862    0.0580 O   0  0  0  0  0  0  0  0  0  0  0  0
    0.7227    0.0315    0.0753 C   0  0  0  0  0  0  0  0  0  0  0  0
   -0.1911    1.2218    0.2330 C   0  0  0  0  0  0  0  0  0  0  0  0
   -0.0699   -1.1070    0.0053 N   0  0  0  0  0  0  0  0  0  0  0  0
   -1.4686   -0.7894    0.0414 C   0  0  0  0  0  0  0  0  0  0  0  0
   -1.5383    0.6953   -0.2701 C   0  0  1  0  0  0  0  0  0  0  0  0
   -2.7097    1.4462    0.3209 C   0  0  0  0  0  0  0  0  0  0  0  0
   -3.6777    0.7260    0.9169 O   0  0  0  0  0  0  0  0  0  0  0  0
   -2.8103    2.6632    0.2301 O   0  0  0  0  0  0  0  0  0  0  0  0
    0.4082   -2.4363    0.0099 C   0  0  0  0  0  0  0  0  0  0  0  0
    1.2710   -2.9270    1.0034 C   0  0  0  0  0  0  0  0  0  0  0  0
    1.6183   -2.2138    2.1178 O   0  0  0  0  0  0  0  0  0  0  0  0
    1.7564   -4.2337    0.9509 C   0  0  0  0  0  0  0  0  0  0  0  0
    1.3885   -5.0722   -0.0981 C   0  0  0  0  0  0  0  0  0  0  0  0
    0.5191   -4.6070   -1.0828 C   0  0  0  0  0  0  0  0  0  0  0  0
    0.0185   -3.3011   -1.0214 C   0  0  0  0  0  0  0  0  0  0  0  0
   -1.5870    0.8293   -1.3590 H   0  0  0  0  0  0  0  0  0  0  0  0
   -0.2118    1.5083    1.2903 H   0  0  0  0  0  0  0  0  0  0  0  0
    0.1709    2.0625   -0.3665 H   0  0  0  0  0  0  0  0  0  0  0  0
   -1.8185   -1.0261    1.0521 H   0  0  0  0  0  0  0  0  0  0  0  0
   -2.0431   -1.3692   -0.6867 H   0  0  0  0  0  0  0  0  0  0  0  0
   -3.6146   -0.2430    0.9653 H   0  0  0  0  0  0  0  0  0  0  0  0
    1.3162   -1.3010    1.9948 H   0  0  0  0  0  0  0  0  0  0  0  0
    2.4217   -4.5950    1.7308 H   0  0  0  0  0  0  0  0  0  0  0  0
    1.7812   -6.0849   -0.1455 H   0  0  0  0  0  0  0  0  0  0  0  0
    0.2475   -5.2577   -1.9106 H   0  0  0  0  0  0  0  0  0  0  0  0
   -0.6225   -2.9535   -1.8266 H   0  0  0  0  0  0  0  0  0  0  0  0
  2  1  2  0  0  0  0
  2  4  1  0  0  0  0
  3  2  1  0  0  0  0
  3 18  1  0  0  0  0
  3 19  1  0  0  0  0
  4 10  1  0  0  0  0
  5  4  1  0  0  0  0
  5 20  1  0  0  0  0
  5 21  1  0  0  0  0
  6  3  1  0  0  0  0
  6  5  1  0  0  0  0
  6  7  1  0  0  0  0
  6 17  1  6  0  0  0
  7  8  1  0  0  0  0
  8 22  1  0  0  0  0
  9  7  2  0  0  0  0
 10 11  2  0  0  0  0
 10 16  1  0  0  0  0
 11 13  1  0  0  0  0
 12 11  1  0  0  0  0
 12 23  1  0  0  0  0
 13 14  2  0  0  0  0
 13 24  1  0  0  0  0
 14 25  1  0  0  0  0
 15 14  1  0  0  0  0
 15 26  1  0  0  0  0
 16 15  2  0  0  0  0
 16 27  1  0  0  0  0
M  END
>  <DRUGBANK_ID>
DB07057

>  <COMMON_NAME>
(3S)-1-(2-hydroxyphenyl)-5-oxopyrrolidine-3-carboxylic acid

$$$$
