
 OpenBabel10282417133D

 89 91  0  0  0  0  0  0  0  0999 V2000
   -3.2063   -5.4857   -1.3974 P   0  0  0  0  0  0  0  0  0  0  0  0
    0.8119   -3.4483    3.7587 P   0  0  1  0  0  0  0  0  0  0  0  0
   -1.7199   -3.1740    4.9281 P   0  0  2  0  0  0  0  0  0  0  0  0
  -10.1610   -4.6365    2.3603 F   0  0  0  0  0  0  0  0  0  0  0  0
   -0.1221   -3.1986    1.5532 O   0  0  0  0  0  0  0  0  0  0  0  0
   -2.5005   -5.5179    0.0958 O   0  0  0  0  0  0  0  0  0  0  0  0
   -2.5637   -2.5716   -0.1890 O   0  0  0  0  0  0  0  0  0  0  0  0
   -0.3618   -4.7058    3.9436 O   0  0  0  0  0  0  0  0  0  0  0  0
   -2.6362   -6.8482   -2.0755 O   0  0  0  0  0  0  0  0  0  0  0  0
   -1.7056   -4.7673   -1.8714 O   0  0  0  0  0  0  0  0  0  0  0  0
   -0.1666   -2.5896    4.8589 O   0  0  0  0  0  0  0  0  0  0  0  0
   -2.1901   -1.8552    5.9443 O   0  0  0  0  0  0  0  0  0  0  0  0
   -4.5494   -6.1287   -0.9733 O   0  0  0  0  0  0  0  0  0  0  0  0
   -3.7448   -4.9510    6.3140 O   0  0  0  0  0  0  0  0  0  0  0  0
    1.6940   -4.2924    4.8677 O   0  0  0  0  0  0  0  0  0  0  0  0
    1.8623   -2.3229    3.5933 O   0  0  0  0  0  0  0  0  0  0  0  0
   -1.5186   -4.0449    6.3332 O   0  0  0  0  0  0  0  0  0  0  0  0
   -5.6763   -4.3371    3.7548 O   0  0  0  0  0  0  0  0  0  0  0  0
   -1.2992   -4.3543    4.0186 O   0  0  0  0  0  0  0  0  0  0  0  0
   -9.9226   -4.7659    7.9985 O   0  0  0  0  0  0  0  0  0  0  0  0
   -9.7273   -8.0167    2.5514 O   0  0  0  0  0  0  0  0  0  0  0  0
   -8.3620   -6.7737    1.2598 O   0  0  0  0  0  0  0  0  0  0  0  0
    1.1544   -3.0794   -0.4544 N   0  0  0  0  0  0  0  0  0  0  0  0
    3.2652   -3.7713   -0.7119 N   0  0  0  0  0  0  0  0  0  0  0  0
    0.6462   -2.5304   -2.7981 N   0  0  0  0  0  0  0  0  0  0  0  0
    2.5793   -2.8459   -4.2352 N   0  0  0  0  0  0  0  0  0  0  0  0
    4.6612   -3.5915   -3.4518 N   0  0  0  0  0  0  0  0  0  0  0  0
   -6.3462   -5.1114    5.7955 N   0  0  0  0  0  0  0  0  0  0  0  0
   -9.3651   -4.4047    5.8500 N   0  0  0  0  0  0  0  0  0  0  0  0
   -1.3196   -4.7171    0.2407 C   0  0  1  0  0  0  0  0  0  0  0  0
   -1.3175   -3.2515   -0.3837 C   0  0  2  0  0  0  0  0  0  0  0  0
   -1.0587   -4.3156    1.6262 C   0  0  1  0  0  0  0  0  0  0  0  0
   -0.0822   -2.6703    0.2231 C   0  0  1  0  0  0  0  0  0  0  0  0
   -0.4678   -5.4333    2.5019 C   0  0  0  0  0  0  0  0  0  0  0  0
    1.4437   -2.9566   -1.8004 C   0  0  0  0  0  0  0  0  0  0  0  0
    2.2774   -3.5980    0.1402 C   0  0  0  0  0  0  0  0  0  0  0  0
    2.7656   -3.3558   -1.9253 C   0  0  0  0  0  0  0  0  0  0  0  0
   -4.3765   -2.5174    6.3299 C   0  0  0  0  0  0  0  0  0  0  0  0
   -4.2766   -3.8645    5.5597 C   0  0  2  0  0  0  0  0  0  0  0  0
   -3.0987   -2.0689    6.9580 C   0  0  0  0  0  0  0  0  0  0  0  0
   -5.2122   -2.6308    7.5501 C   0  0  0  0  0  0  0  0  0  0  0  0
   -4.9707   -1.4213    5.4270 C   0  0  0  0  0  0  0  0  0  0  0  0
    3.3464   -3.2667   -3.2045 C   0  0  0  0  0  0  0  0  0  0  0  0
   -5.4972   -4.4494    4.9691 C   0  0  0  0  0  0  0  0  0  0  0  0
    1.2964   -2.5186   -3.9809 C   0  0  0  0  0  0  0  0  0  0  0  0
   -6.5935   -5.1151    7.2103 C   0  0  0  0  0  0  0  0  0  0  0  0
   -7.6870   -4.1096    7.6524 C   0  0  0  0  0  0  0  0  0  0  0  0
   -9.0529   -4.4690    7.1825 C   0  0  0  0  0  0  0  0  0  0  0  0
   -8.6165   -3.9487    4.6667 C   0  0  0  0  0  0  0  0  0  0  0  0
   -8.3405   -5.1199    3.6869 C   0  0  0  0  0  0  0  0  0  0  0  0
   -9.5834   -5.6533    3.0492 C   0  0  2  0  0  0  0  0  0  0  0  0
   -9.1813   -6.8365    2.1889 C   0  0  0  0  0  0  0  0  0  0  0  0
    5.2498   -3.8455   -2.6706 H   0  0  0  0  0  0  0  0  0  0  0  0
    5.0326   -3.4440   -4.3761 H   0  0  0  0  0  0  0  0  0  0  0  0
   -7.0943   -5.5582    5.3522 H   0  0  0  0  0  0  0  0  0  0  0  0
  -10.3472   -4.5904    5.7065 H   0  0  0  0  0  0  0  0  0  0  0  0
   -2.7786   -2.5218    0.7514 H   0  0  0  0  0  0  0  0  0  0  0  0
   -3.4003   -7.4650   -2.0607 H   0  0  0  0  0  0  0  0  0  0  0  0
   -1.6414   -4.8362   -2.8451 H   0  0  0  0  0  0  0  0  0  0  0  0
   -2.7688   -4.8946    6.3717 H   0  0  0  0  0  0  0  0  0  0  0  0
    1.2667   -5.1590    4.9916 H   0  0  0  0  0  0  0  0  0  0  0  0
   -0.9882   -3.5667    6.9976 H   0  0  0  0  0  0  0  0  0  0  0  0
  -10.3537   -7.9889    3.2999 H   0  0  0  0  0  0  0  0  0  0  0  0
   -0.4712   -5.3394   -0.0822 H   0  0  0  0  0  0  0  0  0  0  0  0
   -1.1443   -3.0750   -1.4386 H   0  0  0  0  0  0  0  0  0  0  0  0
   -1.9975   -3.9195    2.0459 H   0  0  0  0  0  0  0  0  0  0  0  0
   -0.1103   -1.5797    0.2360 H   0  0  0  0  0  0  0  0  0  0  0  0
   -1.1739   -6.2626    2.6518 H   0  0  0  0  0  0  0  0  0  0  0  0
    0.5348   -5.7674    2.2458 H   0  0  0  0  0  0  0  0  0  0  0  0
    2.3362   -3.8192    1.1968 H   0  0  0  0  0  0  0  0  0  0  0  0
   -3.7359   -3.7312    4.6196 H   0  0  0  0  0  0  0  0  0  0  0  0
   -2.7347   -2.7828    7.7056 H   0  0  0  0  0  0  0  0  0  0  0  0
   -3.2266   -1.1292    7.5071 H   0  0  0  0  0  0  0  0  0  0  0  0
   -5.4302   -1.7285    8.1153 H   0  0  0  0  0  0  0  0  0  0  0  0
   -6.0956   -2.8651    7.0353 H   0  0  0  0  0  0  0  0  0  0  0  0
   -4.8521   -3.3959    8.2428 H   0  0  0  0  0  0  0  0  0  0  0  0
   -5.1819   -0.5250    6.0212 H   0  0  0  0  0  0  0  0  0  0  0  0
   -4.2946   -1.1445    4.6141 H   0  0  0  0  0  0  0  0  0  0  0  0
   -5.9205   -1.7382    4.9829 H   0  0  0  0  0  0  0  0  0  0  0  0
    0.7135   -2.2023   -4.8427 H   0  0  0  0  0  0  0  0  0  0  0  0
   -6.9231   -6.1274    7.4393 H   0  0  0  0  0  0  0  0  0  0  0  0
   -5.6359   -5.0174    7.7099 H   0  0  0  0  0  0  0  0  0  0  0  0
   -7.6388   -4.0383    8.7458 H   0  0  0  0  0  0  0  0  0  0  0  0
   -7.6744   -3.0587    7.3304 H   0  0  0  0  0  0  0  0  0  0  0  0
   -9.1878   -3.1674    4.1578 H   0  0  0  0  0  0  0  0  0  0  0  0
   -7.7228   -3.4125    4.9987 H   0  0  0  0  0  0  0  0  0  0  0  0
   -7.6443   -4.7950    2.9088 H   0  0  0  0  0  0  0  0  0  0  0  0
   -7.9129   -6.0332    4.1150 H   0  0  0  0  0  0  0  0  0  0  0  0
  -10.2672   -5.9795    3.8381 H   0  0  0  0  0  0  0  0  0  0  0  0
  1  6  1  0  0  0  0
  1  9  1  0  0  0  0
  1 10  1  0  0  0  0
  1 13  2  0  0  0  0
  2  8  1  0  0  0  0
  2 11  1  0  0  0  0
  2 15  1  0  0  0  0
  2 16  2  6  0  0  0
  3 17  1  0  0  0  0
  3 19  2  6  0  0  0
  3 12  1  0  0  0  0
  3 11  1  0  0  0  0
  4 51  1  0  0  0  0
  5 32  1  0  0  0  0
  5 33  1  0  0  0  0
  7 57  1  0  0  0  0
  8 34  1  0  0  0  0
  9 58  1  0  0  0  0
 10 59  1  0  0  0  0
 12 40  1  0  0  0  0
 14 60  1  0  0  0  0
 15 61  1  0  0  0  0
 17 62  1  0  0  0  0
 18 44  2  0  0  0  0
 20 48  2  0  0  0  0
 21 52  1  0  0  0  0
 21 63  1  0  0  0  0
 22 52  2  0  0  0  0
 23 35  1  0  0  0  0
 23 36  1  0  0  0  0
 24 36  2  0  0  0  0
 24 37  1  0  0  0  0
 25 35  2  0  0  0  0
 25 45  1  0  0  0  0
 26 43  1  0  0  0  0
 26 45  2  0  0  0  0
 27 43  1  0  0  0  0
 27 53  1  0  0  0  0
 27 54  1  0  0  0  0
 28 44  1  0  0  0  0
 28 46  1  0  0  0  0
 28 55  1  0  0  0  0
 29 48  1  0  0  0  0
 29 49  1  0  0  0  0
 29 56  1  0  0  0  0
 30 31  1  0  0  0  0
 30 32  1  0  0  0  0
 30 64  1  6  0  0  0
 30  6  1  0  0  0  0
 31  7  1  0  0  0  0
 31 33  1  0  0  0  0
 31 65  1  6  0  0  0
 32 34  1  0  0  0  0
 32 66  1  1  0  0  0
 33 23  1  0  0  0  0
 33 67  1  1  0  0  0
 34 68  1  0  0  0  0
 34 69  1  0  0  0  0
 35 37  1  0  0  0  0
 36 70  1  0  0  0  0
 37 43  2  0  0  0  0
 38 39  1  0  0  0  0
 38 40  1  0  0  0  0
 38 41  1  0  0  0  0
 38 42  1  0  0  0  0
 39 14  1  0  0  0  0
 39 44  1  0  0  0  0
 39 71  1  6  0  0  0
 40 72  1  0  0  0  0
 40 73  1  0  0  0  0
 41 74  1  0  0  0  0
 41 75  1  0  0  0  0
 41 76  1  0  0  0  0
 42 77  1  0  0  0  0
 42 78  1  0  0  0  0
 42 79  1  0  0  0  0
 45 80  1  0  0  0  0
 46 47  1  0  0  0  0
 46 81  1  0  0  0  0
 46 82  1  0  0  0  0
 47 48  1  0  0  0  0
 47 83  1  0  0  0  0
 47 84  1  0  0  0  0
 49 50  1  0  0  0  0
 49 85  1  0  0  0  0
 49 86  1  0  0  0  0
 50 87  1  0  0  0  0
 50 88  1  0  0  0  0
 51 50  1  0  0  0  0
 51 52  1  0  0  0  0
 51 89  1  1  0  0  0
M  END
>  <DRUGBANK_ID>
DB03182

>  <SECONDARY_ACCESSION_NUMBERS>
EXPT01407

>  <COMMON_NAME>
alpha-Fluoro-carboxymethyldethia coenzyme A complex

$$$$
