
 OpenBabel10282417133D

 19 19  0  0  0  0  0  0  0  0999 V2000
    2.7056   -0.9079   -0.0043 C   0  0  0  0  0  0  0  0  0  0  0  0
    1.2447   -0.5506   -0.0004 C   0  0  0  0  0  0  0  0  0  0  0  0
    0.2847   -1.5773    0.0022 C   0  0  0  0  0  0  0  0  0  0  0  0
   -1.0818   -1.2866    0.0037 C   0  0  0  0  0  0  0  0  0  0  0  0
   -1.4932    0.0398    0.0005 C   0  0  0  0  0  0  0  0  0  0  0  0
   -2.8142    0.3796   -0.0003 O   0  0  0  0  0  0  0  0  0  0  0  0
   -0.5613    1.0704   -0.0016 C   0  0  0  0  0  0  0  0  0  0  0  0
    0.8162    0.7920   -0.0002 C   0  0  0  0  0  0  0  0  0  0  0  0
    1.7726    1.9527    0.0032 C   0  0  0  0  0  0  0  0  0  0  0  0
    3.1892   -0.5069   -0.9013 H   0  0  0  0  0  0  0  0  0  0  0  0
    3.1955   -0.5042    0.8879 H   0  0  0  0  0  0  0  0  0  0  0  0
    2.8603   -1.9915   -0.0032 H   0  0  0  0  0  0  0  0  0  0  0  0
    0.6000   -2.6192    0.0031 H   0  0  0  0  0  0  0  0  0  0  0  0
   -1.7984   -2.1009    0.0072 H   0  0  0  0  0  0  0  0  0  0  0  0
   -3.3452   -0.4328   -0.0002 H   0  0  0  0  0  0  0  0  0  0  0  0
   -0.9135    2.0997   -0.0037 H   0  0  0  0  0  0  0  0  0  0  0  0
    1.6186    2.5673   -0.8895 H   0  0  0  0  0  0  0  0  0  0  0  0
    1.6137    2.5647    0.8969 H   0  0  0  0  0  0  0  0  0  0  0  0
    2.8202    1.6419    0.0061 H   0  0  0  0  0  0  0  0  0  0  0  0
  1  2  1  0  0  0  0
  1 10  1  0  0  0  0
  1 11  1  0  0  0  0
  1 12  1  0  0  0  0
  2  3  2  0  0  0  0
  2  8  1  0  0  0  0
  3  4  1  0  0  0  0
  3 13  1  0  0  0  0
  4  5  2  0  0  0  0
  4 14  1  0  0  0  0
  5  6  1  0  0  0  0
  5  7  1  0  0  0  0
  6 15  1  0  0  0  0
  7  8  2  0  0  0  0
  7 16  1  0  0  0  0
  8  9  1  0  0  0  0
  9 17  1  0  0  0  0
  9 18  1  0  0  0  0
  9 19  1  0  0  0  0
M  END
>  <DRUGBANK_ID>
DB04052

>  <SECONDARY_ACCESSION_NUMBERS>
EXPT00131

>  <COMMON_NAME>
3,4-Xylenol

>  <CAS_NUMBER>
95-65-8

>  <UNII>
4L479F5JU6

>  <SYNONYMS>
1-Hydroxy-3,4-dimethylbenzene; 1,3,4-Xylenol; 3,4-Dimethylphenol; 3,4-DMP; 4,5-Dimethylphenol

$$$$
