
 OpenBabel10282417243D

 58 61  0  0  1  0  0  0  0  0999 V2000
   -1.1551   -0.5041   -1.0151 H   0  0  0  0  0  0  0  0  0  0  0  0
   -2.1005   -0.6640   -1.4192 C   0  0  1  0  0  0  0  0  0  0  0  0
   -2.3103   -2.1143   -2.6449 C   0  0  0  0  0  0  0  0  0  0  0  0
   -1.4969   -2.8990   -1.7015 C   0  0  2  0  0  0  0  0  0  0  0  0
   -2.3072   -2.7418    0.0839 C   0  0  0  0  0  0  0  0  0  0  0  0
   -2.3060   -1.3543   -0.1720 C   0  0  1  0  0  0  0  0  0  0  0  0
   -0.4476   -1.9687   -0.0413 C   0  0  0  0  0  0  0  0  0  0  0  0
    0.4784   -2.0608   -1.4554 C   0  0  0  0  0  0  0  0  0  0  0  0
   -0.4153   -1.8185   -2.5824 C   0  0  1  0  0  0  0  0  0  0  0  0
   -0.3247   -2.2453   -3.9837 O   0  0  0  0  0  0  0  0  0  0  0  0
   -0.3148   -0.1920   -2.8649 C   0  0  0  0  0  0  0  0  0  0  0  0
    0.4184    0.5691   -1.8943 O   0  0  0  0  0  0  0  0  0  0  0  0
   -3.6325   -1.7257   -1.2084 C   0  0  1  0  0  0  0  0  0  0  0  0
   -4.8996   -1.5527   -0.5072 C   0  0  0  0  0  0  0  0  0  0  0  0
   -4.2007   -3.4461   -1.3443 C   0  0  0  0  0  0  0  0  0  0  0  0
   -5.3491   -3.5405   -2.2842 C   0  0  0  0  0  0  0  0  0  0  0  0
   -5.4820   -2.3222   -3.3269 C   0  0  1  0  0  0  0  0  0  0  0  0
   -6.4417   -2.8193   -4.2764 O   0  0  0  0  0  0  0  0  0  0  0  0
   -5.6253   -0.5400   -2.7974 C   0  0  1  0  0  0  0  0  0  0  0  0
   -7.0822   -0.3845   -3.1168 C   0  0  0  0  0  0  0  0  0  0  0  0
   -6.1562    0.5034   -1.3259 C   0  0  0  0  0  0  0  0  0  0  0  0
   -5.7946    0.6458    0.0967 O   0  0  0  0  0  0  0  0  0  0  0  0
   -4.0993   -0.2350   -2.4035 C   0  0  2  0  0  0  0  0  0  0  0  0
   -3.4441   -0.2074   -3.3224 H   0  0  0  0  0  0  0  0  0  0  0  0
   -3.6856    1.1524   -1.5394 C   0  0  0  0  0  0  0  0  0  0  0  0
   -2.2628    0.9586   -1.3443 C   0  0  0  0  0  0  0  0  0  0  0  0
   -2.9433   -3.0104   -2.7903 H   0  0  0  0  0  0  0  0  0  0  0  0
   -2.3952   -2.0182   -3.7395 H   0  0  0  0  0  0  0  0  0  0  0  0
   -1.3032   -3.9795   -1.8487 H   0  0  0  0  0  0  0  0  0  0  0  0
   -3.3375   -3.0397    0.4467 H   0  0  0  0  0  0  0  0  0  0  0  0
   -2.0029   -2.5043    1.1579 H   0  0  0  0  0  0  0  0  0  0  0  0
   -0.3696   -2.9936    0.4111 H   0  0  0  0  0  0  0  0  0  0  0  0
    0.0038   -1.3175    0.7096 H   0  0  0  0  0  0  0  0  0  0  0  0
    1.3464   -2.4511   -1.9882 H   0  0  0  0  0  0  0  0  0  0  0  0
    1.1041   -1.2934   -1.0732 H   0  0  0  0  0  0  0  0  0  0  0  0
   -0.6924   -1.5113   -4.5636 H   0  0  0  0  0  0  0  0  0  0  0  0
    0.1298    0.0552   -3.8167 H   0  0  0  0  0  0  0  0  0  0  0  0
   -1.2872    0.2617   -3.1139 H   0  0  0  0  0  0  0  0  0  0  0  0
    0.1925    0.3123   -0.9783 H   0  0  0  0  0  0  0  0  0  0  0  0
   -5.0698   -1.6913   -1.5490 H   0  0  0  0  0  0  0  0  0  0  0  0
   -5.8836   -1.9231   -0.4515 H   0  0  0  0  0  0  0  0  0  0  0  0
   -4.5606   -0.5680   -0.4299 H   0  0  0  0  0  0  0  0  0  0  0  0
   -3.9555   -4.5289   -1.3192 H   0  0  0  0  0  0  0  0  0  0  0  0
   -3.1893   -3.7819   -1.2863 H   0  0  0  0  0  0  0  0  0  0  0  0
   -5.5623   -4.5425   -2.6857 H   0  0  0  0  0  0  0  0  0  0  0  0
   -6.1075   -3.5706   -1.4944 H   0  0  0  0  0  0  0  0  0  0  0  0
   -4.5713   -2.3073   -3.9497 H   0  0  0  0  0  0  0  0  0  0  0  0
   -6.5495   -2.1720   -4.9899 H   0  0  0  0  0  0  0  0  0  0  0  0
   -7.5873   -0.8736   -2.2511 H   0  0  0  0  0  0  0  0  0  0  0  0
   -7.3835    0.6472   -3.2758 H   0  0  0  0  0  0  0  0  0  0  0  0
   -7.4943   -0.9560   -3.9292 H   0  0  0  0  0  0  0  0  0  0  0  0
   -5.8928    1.4894   -1.7465 H   0  0  0  0  0  0  0  0  0  0  0  0
   -7.2196    0.5994   -1.1945 H   0  0  0  0  0  0  0  0  0  0  0  0
   -5.5540   -0.1462    0.6266 H   0  0  0  0  0  0  0  0  0  0  0  0
   -4.0367    2.1602   -1.8300 H   0  0  0  0  0  0  0  0  0  0  0  0
   -3.9078    1.1671   -0.4704 H   0  0  0  0  0  0  0  0  0  0  0  0
   -1.7455    1.6910   -1.9896 H   0  0  0  0  0  0  0  0  0  0  0  0
   -1.8547    1.2901   -0.3564 H   0  0  0  0  0  0  0  0  0  0  0  0
  2  3  1  0  0  0  0
  2 26  1  0  0  0  0
  2  1  1  6  0  0  0
  3 27  1  0  0  0  0
  3 28  1  0  0  0  0
  4  3  1  0  0  0  0
  4  5  1  0  0  0  0
  4  9  1  0  0  0  0
  4 29  1  6  0  0  0
  5 30  1  0  0  0  0
  5 31  1  0  0  0  0
  6  5  1  6  0  0  0
  6  2  1  0  0  0  0
  6  7  1  0  0  0  0
  6 13  1  0  0  0  0
  7  8  1  0  0  0  0
  7 32  1  0  0  0  0
  7 33  1  0  0  0  0
  8 34  1  0  0  0  0
  8 35  1  0  0  0  0
  9  8  1  0  0  0  0
  9 10  1  6  0  0  0
  9 11  1  0  0  0  0
 10 36  1  0  0  0  0
 11 12  1  0  0  0  0
 11 37  1  0  0  0  0
 11 38  1  0  0  0  0
 12 39  1  0  0  0  0
 13 15  1  0  0  0  0
 13 23  1  0  0  0  0
 13 14  1  6  0  0  0
 14 40  1  0  0  0  0
 14 41  1  0  0  0  0
 14 42  1  0  0  0  0
 15 16  1  0  0  0  0
 15 43  1  0  0  0  0
 15 44  1  0  0  0  0
 16 45  1  0  0  0  0
 16 46  1  0  0  0  0
 17 16  1  0  0  0  0
 17 18  1  0  0  0  0
 17 47  1  6  0  0  0
 18 48  1  0  0  0  0
 19 17  1  0  0  0  0
 19 20  1  6  0  0  0
 19 21  1  0  0  0  0
 20 49  1  0  0  0  0
 20 50  1  0  0  0  0
 20 51  1  0  0  0  0
 21 22  1  0  0  0  0
 21 52  1  0  0  0  0
 21 53  1  0  0  0  0
 22 54  1  0  0  0  0
 23 19  1  0  0  0  0
 23 25  1  0  0  0  0
 23 24  1  1  0  0  0
 25 26  1  0  0  0  0
 25 55  1  0  0  0  0
 25 56  1  0  0  0  0
 26 57  1  0  0  0  0
 26 58  1  0  0  0  0
M  END
>  <DRUGBANK_ID>
DB17742

>  <COMMON_NAME>
Aphidicolin

>  <CAS_NUMBER>
38966-21-1

>  <UNII>
192TJ6PP19

>  <SYNONYMS>
(+)-aphidicolin; 8,11a-methano-11ah-cyclohepta(a)naphthalene-4,9-dimethanol, tetradecahydro-3,9-dihydroxy-4,11b-dimethyl-, (3r,4r,4ar,6as,8r,9r,11as,11bs)-; 9,15-cyclo-c,18-dinor-14,15-secoandrostane-4,17-dimethanol, 3,17-dihydroxy-4-methyl-, (3.alpha.,4.alpha.,5.alpha.,17.alpha.)-

$$$$
