
 OpenBabel10282417103D

 27 28  0  0  0  0  0  0  0  0999 V2000
   -1.5672   -1.1513   -0.0770 C   0  0  0  0  0  0  0  0  0  0  0  0
   -2.3056   -0.0043   -0.2966 C   0  0  0  0  0  0  0  0  0  0  0  0
   -1.5016    1.0743   -0.0668 N   0  0  0  0  0  0  0  0  0  0  0  0
   -0.1940    0.6646   -0.0149 C   0  0  0  0  0  0  0  0  0  0  0  0
   -0.2032   -0.7313   -0.0054 C   0  0  0  0  0  0  0  0  0  0  0  0
    1.0280   -1.4117    0.0381 C   0  0  0  0  0  0  0  0  0  0  0  0
    0.9803    1.4197    0.0098 C   0  0  0  0  0  0  0  0  0  0  0  0
    2.1881    0.7194   -0.0135 C   0  0  0  0  0  0  0  0  0  0  0  0
    2.2150   -0.6740    0.0029 C   0  0  0  0  0  0  0  0  0  0  0  0
   -5.3854   -2.4305    0.9105 O   0  0  0  0  0  0  0  0  0  0  0  0
   -4.2729   -2.0243    1.2292 C   0  0  0  0  0  0  0  0  0  0  0  0
   -4.1176   -0.7490    1.6280 O   0  0  0  0  0  0  0  0  0  0  0  0
   -2.9740   -2.8497    1.2116 C   0  0  1  0  0  0  0  0  0  0  0  0
   -3.3367   -4.2978    1.1991 N   0  0  0  0  0  0  0  0  0  0  0  0
   -2.0920   -2.5545   -0.0188 C   0  0  0  0  0  0  0  0  0  0  0  0
   -3.3565    0.1386   -0.4993 H   0  0  0  0  0  0  0  0  0  0  0  0
   -1.8123    2.0349   -0.0309 H   0  0  0  0  0  0  0  0  0  0  0  0
    1.0595   -2.4970    0.0400 H   0  0  0  0  0  0  0  0  0  0  0  0
    0.9580    2.5041    0.0002 H   0  0  0  0  0  0  0  0  0  0  0  0
    3.1223    1.2729   -0.0558 H   0  0  0  0  0  0  0  0  0  0  0  0
    3.1660   -1.1986   -0.0271 H   0  0  0  0  0  0  0  0  0  0  0  0
   -4.9223   -0.2811    1.3245 H   0  0  0  0  0  0  0  0  0  0  0  0
   -2.4281   -2.6533    2.1414 H   0  0  0  0  0  0  0  0  0  0  0  0
   -3.9814   -4.4636    1.9748 H   0  0  0  0  0  0  0  0  0  0  0  0
   -3.9111   -4.4633    0.3671 H   0  0  0  0  0  0  0  0  0  0  0  0
   -2.6352   -2.7646   -0.9490 H   0  0  0  0  0  0  0  0  0  0  0  0
   -1.2397   -3.2492   -0.0038 H   0  0  0  0  0  0  0  0  0  0  0  0
  1  2  2  0  0  0  0
  1  5  1  0  0  0  0
  1 15  1  0  0  0  0
  2  3  1  0  0  0  0
  2 16  1  0  0  0  0
  3  4  1  0  0  0  0
  3 17  1  0  0  0  0
  4  5  2  0  0  0  0
  4  7  1  0  0  0  0
  5  6  1  0  0  0  0
  6  9  2  0  0  0  0
  6 18  1  0  0  0  0
  7  8  2  0  0  0  0
  7 19  1  0  0  0  0
  8  9  1  0  0  0  0
  8 20  1  0  0  0  0
  9 21  1  0  0  0  0
 11 10  2  0  0  0  0
 12 11  1  0  0  0  0
 12 22  1  0  0  0  0
 13 11  1  0  0  0  0
 13 14  1  0  0  0  0
 13 23  1  1  0  0  0
 14 24  1  0  0  0  0
 14 25  1  0  0  0  0
 15 13  1  0  0  0  0
 15 26  1  0  0  0  0
 15 27  1  0  0  0  0
M  END
>  <DRUGBANK_ID>
DB00150

>  <SECONDARY_ACCESSION_NUMBERS>
NUTR00058; EXPT02064

>  <COMMON_NAME>
Tryptophan

>  <CAS_NUMBER>
73-22-3

>  <UNII>
8DUH1N11BX

>  <SYNONYMS>
(2S)-2-amino-3-(1H-indol-3-yl)propanoic acid; (S)-alpha-Amino-beta-(3-indolyl)-propionic acid; (S)-Tryptophan; (S)-α-amino-1H-indole-3-propanoic acid; L-(-)-Tryptophan; L-(−)-tryptophan; L-Tryptophan; L-β-3-indolylalanine; Triptofano; Trp; Tryptophan; Tryptophane; Tryptophanum; W

$$$$
