
 OpenBabel10282417183D

 22 22  0  0  0  0  0  0  0  0999 V2000
    0.3287    1.4618    0.0844 C   0  0  0  0  0  0  0  0  0  0  0  0
   -0.9913    0.8744    0.1158 C   0  0  0  0  0  0  0  0  0  0  0  0
   -1.2467   -0.5708    0.1575 C   0  0  0  0  0  0  0  0  0  0  0  0
    1.4078    0.5664    0.1008 C   0  0  0  0  0  0  0  0  0  0  0  0
   -0.0792   -1.3872    0.1183 C   0  0  0  0  0  0  0  0  0  0  0  0
    1.1878   -0.8016    0.1330 C   0  0  0  0  0  0  0  0  0  0  0  0
    0.6832    2.9308    0.0396 C   0  0  0  0  0  0  0  0  0  0  0  0
   -2.6441   -0.9355    0.2609 N   0  0  0  0  0  0  0  0  0  0  0  0
   -3.3185   -2.1238    0.3796 C   0  0  0  0  0  0  0  0  0  0  0  0
    1.7901    3.4113    0.0003 O   0  0  0  0  0  0  0  0  0  0  0  0
   -2.8044    2.1528    0.0093 I   0  0  0  0  0  0  0  0  0  0  0  0
   -4.5385   -2.1978    0.4828 O   0  0  0  0  0  0  0  0  0  0  0  0
    3.4992    0.9476    0.0021 I   0  0  0  0  0  0  0  0  0  0  0  0
    0.5109   -3.5903   -0.1288 I   0  0  0  0  0  0  0  0  0  0  0  0
   -0.3419    3.7911    0.0536 O   0  0  0  0  0  0  0  0  0  0  0  0
   -2.4801   -3.3160    0.3530 C   0  0  0  0  0  0  0  0  0  0  0  0
    2.0560   -1.4570    0.1417 H   0  0  0  0  0  0  0  0  0  0  0  0
   -3.3106   -0.1623    0.2955 H   0  0  0  0  0  0  0  0  0  0  0  0
    0.0897    4.6723    0.0095 H   0  0  0  0  0  0  0  0  0  0  0  0
   -2.0346   -3.2657   -0.6445 H   0  0  0  0  0  0  0  0  0  0  0  0
   -1.8119   -3.2036    1.2136 H   0  0  0  0  0  0  0  0  0  0  0  0
   -2.9700   -4.2789    0.4350 H   0  0  0  0  0  0  0  0  0  0  0  0
  2  1  1  0  0  0  0
  3  2  2  0  0  0  0
  3  5  1  0  0  0  0
  4  1  2  0  0  0  0
  5  6  2  0  0  0  0
  6  4  1  0  0  0  0
  6 17  1  0  0  0  0
  7  1  1  0  0  0  0
  8  3  1  0  0  0  0
  8 18  1  0  0  0  0
  9  8  1  0  0  0  0
 10  7  2  0  0  0  0
 11  2  1  0  0  0  0
 12  9  2  0  0  0  0
 13  4  1  0  0  0  0
 14  5  1  0  0  0  0
 15  7  1  0  0  0  0
 15 19  1  0  0  0  0
 16  9  1  0  0  0  0
 16 20  1  0  0  0  0
 16 21  1  0  0  0  0
 16 22  1  0  0  0  0
M  END
>  <DRUGBANK_ID>
DB09347

>  <COMMON_NAME>
Acetrizoic acid

>  <CAS_NUMBER>
85-36-9

>  <UNII>
24256BQV7M

>  <SYNONYMS>
Acide acetrizoique; Urokonic acid

$$$$
