
 OpenBabel10282417193D

 48 49  0  0  0  0  0  0  0  0999 V2000
    1.1045    0.0322    0.0605 C   0  0  0  0  0  0  0  0  0  0  0  0
    0.5662    1.1830   -0.5811 O   0  0  0  0  0  0  0  0  0  0  0  0
    0.9250    2.3906   -0.0406 C   0  0  0  0  0  0  0  0  0  0  0  0
    2.2451    2.6584    0.3829 C   0  0  0  0  0  0  0  0  0  0  0  0
    2.6355    3.9574    0.7439 C   0  0  0  0  0  0  0  0  0  0  0  0
    1.7577    5.0172    0.5406 C   0  0  0  0  0  0  0  0  0  0  0  0
    0.5157    4.7225   -0.0602 C   0  0  0  0  0  0  0  0  0  0  0  0
   -0.0041    3.4343   -0.1085 C   0  0  0  0  0  0  0  0  0  0  0  0
   -1.4286    3.3253    0.0065 O   0  0  0  0  0  0  0  0  0  0  0  0
   -2.0345    1.7207   -0.2199 P   0  0  0  0  0  0  0  0  0  0  0  0
   -1.5825    1.2570    1.1728 O   0  0  0  0  0  0  0  0  0  0  0  0
   -3.5368    2.3072    0.0110 O   0  0  0  0  0  0  0  0  0  0  0  0
   -2.6403    0.1162   -0.4463 O   0  0  0  0  0  0  0  0  0  0  0  0
    2.0929    6.3968    1.0200 C   0  0  0  0  0  0  0  0  0  0  0  0
    1.2713    7.4406    1.2037 C   0  0  0  0  0  0  0  0  0  0  0  0
   -0.2013    7.4265    1.0391 C   0  0  0  0  0  0  0  0  0  0  0  0
   -0.9162    6.4057    1.6879 C   0  0  0  0  0  0  0  0  0  0  0  0
   -2.2197    6.0696    1.3103 C   0  0  0  0  0  0  0  0  0  0  0  0
   -2.9026    6.9187    0.4231 C   0  0  0  0  0  0  0  0  0  0  0  0
   -2.2578    8.0969   -0.0407 C   0  0  0  0  0  0  0  0  0  0  0  0
   -0.8824    8.2892    0.1879 C   0  0  0  0  0  0  0  0  0  0  0  0
   -2.8540    9.1302   -0.7347 O   0  0  0  0  0  0  0  0  0  0  0  0
   -4.2784    9.2039   -0.6509 C   0  0  0  0  0  0  0  0  0  0  0  0
   -4.1566    6.6994   -0.0848 O   0  0  0  0  0  0  0  0  0  0  0  0
   -4.8906    5.5426    0.2606 C   0  0  0  0  0  0  0  0  0  0  0  0
   -2.8105    4.9010    1.7222 O   0  0  0  0  0  0  0  0  0  0  0  0
   -2.1150    4.0408    2.6239 C   0  0  0  0  0  0  0  0  0  0  0  0
    0.7013   -0.8385   -0.4647 H   0  0  0  0  0  0  0  0  0  0  0  0
    0.7732   -0.0136    1.1016 H   0  0  0  0  0  0  0  0  0  0  0  0
    2.1936   -0.0242   -0.0084 H   0  0  0  0  0  0  0  0  0  0  0  0
    2.9942    1.8757    0.4476 H   0  0  0  0  0  0  0  0  0  0  0  0
    3.6400    4.1195    1.1375 H   0  0  0  0  0  0  0  0  0  0  0  0
   -0.1180    5.5120   -0.4310 H   0  0  0  0  0  0  0  0  0  0  0  0
   -3.5090    2.8478    0.8242 H   0  0  0  0  0  0  0  0  0  0  0  0
   -2.0365   -0.4488    0.0703 H   0  0  0  0  0  0  0  0  0  0  0  0
    3.1359    6.5263    1.3356 H   0  0  0  0  0  0  0  0  0  0  0  0
    1.6677    8.3897    1.5747 H   0  0  0  0  0  0  0  0  0  0  0  0
   -0.3530    5.7397    2.3330 H   0  0  0  0  0  0  0  0  0  0  0  0
   -0.3612    9.0971   -0.3251 H   0  0  0  0  0  0  0  0  0  0  0  0
   -4.7211    8.5155   -1.3776 H   0  0  0  0  0  0  0  0  0  0  0  0
   -4.6510    9.0203    0.3660 H   0  0  0  0  0  0  0  0  0  0  0  0
   -4.6060   10.2087   -0.9293 H   0  0  0  0  0  0  0  0  0  0  0  0
   -4.4373    4.6620   -0.1966 H   0  0  0  0  0  0  0  0  0  0  0  0
   -5.0116    5.4494    1.3428 H   0  0  0  0  0  0  0  0  0  0  0  0
   -5.8956    5.6455   -0.1582 H   0  0  0  0  0  0  0  0  0  0  0  0
   -1.2166    3.5960    2.1950 H   0  0  0  0  0  0  0  0  0  0  0  0
   -1.8390    4.5559    3.5404 H   0  0  0  0  0  0  0  0  0  0  0  0
   -2.7907    3.2138    2.8586 H   0  0  0  0  0  0  0  0  0  0  0  0
  1  2  1  0  0  0  0
  1 28  1  0  0  0  0
  1 29  1  0  0  0  0
  1 30  1  0  0  0  0
  2  3  1  0  0  0  0
  3  4  2  0  0  0  0
  3  8  1  0  0  0  0
  4  5  1  0  0  0  0
  4 31  1  0  0  0  0
  5  6  2  0  0  0  0
  5 32  1  0  0  0  0
  6  7  1  0  0  0  0
  6 14  1  0  0  0  0
  7  8  2  0  0  0  0
  7 33  1  0  0  0  0
  8  9  1  0  0  0  0
  9 10  1  0  0  0  0
 10 11  2  0  0  0  0
 10 12  1  0  0  0  0
 10 13  1  0  0  0  0
 12 34  1  0  0  0  0
 13 35  1  0  0  0  0
 14 15  2  0  0  0  0
 14 36  1  0  0  0  0
 15 16  1  0  0  0  0
 15 37  1  0  0  0  0
 16 17  2  0  0  0  0
 16 21  1  0  0  0  0
 17 18  1  0  0  0  0
 17 38  1  0  0  0  0
 18 19  2  0  0  0  0
 18 26  1  0  0  0  0
 19 20  1  0  0  0  0
 19 24  1  0  0  0  0
 20 21  2  0  0  0  0
 20 22  1  0  0  0  0
 21 39  1  0  0  0  0
 22 23  1  0  0  0  0
 23 40  1  0  0  0  0
 23 41  1  0  0  0  0
 23 42  1  0  0  0  0
 24 25  1  0  0  0  0
 25 43  1  0  0  0  0
 25 44  1  0  0  0  0
 25 45  1  0  0  0  0
 26 27  1  0  0  0  0
 27 46  1  0  0  0  0
 27 47  1  0  0  0  0
 27 48  1  0  0  0  0
M  END
>  <DRUGBANK_ID>
DB12577

>  <COMMON_NAME>
Fosbretabulin

>  <CAS_NUMBER>
222030-63-9

>  <UNII>
I5590ES2QZ

>  <SYNONYMS>
2-METHOXY-5-((Z)-2-(3,4,5-TRIMETHOXYPHENYL)VINYL)PHENYL DIHYDROGEN PHOSPHATE; Combretastatin A-4 phosphate; Combretastatin A4 phosphate; Fosbretabulin; PHENOL, 2-METHOXY-5-((1Z)-2-(3,4,5-TRIMETHOXYPHENYL)ETHENYL)-,1-(DIHYDROGEN PHOSPHATE); PHENOL, 2-METHOXY-5-((Z)-2-(3,4,5-TRIMETHOXYPHENYL)ETHENYL)-, DIHYDROGEN PHOSPHATE; Phosbretabulin

$$$$
