
 OpenBabel10282417173D

 83 85  0  0  0  0  0  0  0  0999 V2000
    5.0373    2.5098    6.0195 S   0  0  0  0  0  0  0  0  0  0  0  0
    5.3028    3.0295    4.1351 S   0  0  0  0  0  0  0  0  0  0  0  0
    5.0996   -0.6442    3.9072 C   0  0  0  0  0  0  0  0  0  0  0  0
    4.3020   -0.1537    5.1046 C   0  0  1  0  0  0  0  0  0  0  0  0
    5.1362    0.7834    6.0298 C   0  0  0  0  0  0  0  0  0  0  0  0
    4.8309    5.0656    2.5747 C   0  0  1  0  0  0  0  0  0  0  0  0
    4.4372    3.9572    1.6356 N   0  0  0  0  0  0  0  0  0  0  0  0
    4.0072   -0.2112    1.2301 C   0  0  0  0  0  0  0  0  0  0  0  0
    4.7071   -1.4529    1.7332 C   0  0  0  0  0  0  0  0  0  0  0  0
    4.4743   -1.5970    3.1519 N   0  0  0  0  0  0  0  0  0  0  0  0
    5.1275    3.2096    0.7743 C   0  0  0  0  0  0  0  0  0  0  0  0
    4.2611    2.0653    0.1029 C   0  0  1  0  0  0  0  0  0  0  0  0
    4.7587    0.7591    0.6039 N   0  0  0  0  0  0  0  0  0  0  0  0
    2.7979   -0.1604    1.4078 O   0  0  0  0  0  0  0  0  0  0  0  0
    6.1246   -0.1389    3.4651 O   0  0  0  0  0  0  0  0  0  0  0  0
    3.0900    0.3806    4.4514 N   0  0  0  0  0  0  0  0  0  0  0  0
    1.7722    0.0111    4.7319 C   0  0  0  0  0  0  0  0  0  0  0  0
    0.5410    0.7777    4.0802 C   0  0  2  0  0  0  0  0  0  0  0  0
    1.0052    1.6029    2.9522 C   0  0  0  0  0  0  0  0  0  0  0  0
    2.0339    2.6050    3.4763 C   0  0  0  0  0  0  0  0  0  0  0  0
    2.1244    3.8872    2.5536 C   0  0  0  0  0  0  0  0  0  0  0  0
    2.6044    5.4622    2.9717 C   0  0  0  0  0  0  0  0  0  0  0  0
    3.1939    6.0014    4.7100 C   0  0  0  0  0  0  0  0  0  0  0  0
    3.2382    4.4516    5.8893 C   0  0  0  0  0  0  0  0  0  0  0  0
    2.5713    2.8586    5.1609 C   0  0  0  0  0  0  0  0  0  0  0  0
   -0.2304    1.6634    4.9911 N   0  0  0  0  0  0  0  0  0  0  0  0
    1.5641   -0.8564    5.5787 O   0  0  0  0  0  0  0  0  0  0  0  0
    6.6475    0.9302    5.8158 C   0  0  0  0  0  0  0  0  0  0  0  0
    4.6654    0.7095    7.4771 C   0  0  0  0  0  0  0  0  0  0  0  0
    4.4574    6.7812    2.2301 C   0  0  0  0  0  0  0  0  0  0  0  0
    5.4663    7.5183    1.8148 O   0  0  0  0  0  0  0  0  0  0  0  0
    3.4181    7.4318    2.3553 O   0  0  0  0  0  0  0  0  0  0  0  0
    6.3318    3.3736    0.6451 O   0  0  0  0  0  0  0  0  0  0  0  0
    3.4352    7.2357    5.0130 O   0  0  0  0  0  0  0  0  0  0  0  0
    2.6827    2.1376    0.1247 C   0  0  0  0  0  0  0  0  0  0  0  0
    1.8903    3.3425   -0.3865 C   0  0  0  0  0  0  0  0  0  0  0  0
    2.3157    3.8521   -1.5697 C   0  0  0  0  0  0  0  0  0  0  0  0
    1.7298    5.0250   -2.0099 C   0  0  0  0  0  0  0  0  0  0  0  0
    0.8747    5.8053   -1.2134 C   0  0  0  0  0  0  0  0  0  0  0  0
    0.4344    5.3325   -0.0161 C   0  0  0  0  0  0  0  0  0  0  0  0
    0.8085    4.0452    0.2853 C   0  0  0  0  0  0  0  0  0  0  0  0
    5.3405    5.4762    5.2144 C   0  0  0  0  0  0  0  0  0  0  0  0
    1.9111    4.7403    4.6303 C   0  0  0  0  0  0  0  0  0  0  0  0
    4.1013    4.4698    4.0920 C   0  0  0  0  0  0  0  0  0  0  0  0
    3.9799   -1.0074    5.6957 H   0  0  0  0  0  0  0  0  0  0  0  0
    5.9357    5.0263    2.6206 H   0  0  0  0  0  0  0  0  0  0  0  0
    3.8852    3.2533    2.1163 H   0  0  0  0  0  0  0  0  0  0  0  0
    4.2435   -2.2849    1.2107 H   0  0  0  0  0  0  0  0  0  0  0  0
    5.7707   -1.3664    1.5375 H   0  0  0  0  0  0  0  0  0  0  0  0
    3.7461   -2.1755    3.5610 H   0  0  0  0  0  0  0  0  0  0  0  0
    4.5601    2.1584   -0.9363 H   0  0  0  0  0  0  0  0  0  0  0  0
    5.7585    0.6048    0.5207 H   0  0  0  0  0  0  0  0  0  0  0  0
    3.3196    1.1147    3.7901 H   0  0  0  0  0  0  0  0  0  0  0  0
   -0.1475    0.0353    3.6712 H   0  0  0  0  0  0  0  0  0  0  0  0
    1.5164    0.9553    2.2890 H   0  0  0  0  0  0  0  0  0  0  0  0
    0.1873    2.0231    2.3267 H   0  0  0  0  0  0  0  0  0  0  0  0
    2.2871    3.7645    1.5358 H   0  0  0  0  0  0  0  0  0  0  0  0
    2.7732    5.7289    1.9029 H   0  0  0  0  0  0  0  0  0  0  0  0
    3.4234    4.3661    6.9345 H   0  0  0  0  0  0  0  0  0  0  0  0
    2.1664    2.0918    5.8540 H   0  0  0  0  0  0  0  0  0  0  0  0
   -0.4604    1.1596    5.8363 H   0  0  0  0  0  0  0  0  0  0  0  0
    0.2967    2.4889    5.2811 H   0  0  0  0  0  0  0  0  0  0  0  0
    7.1105    1.7606    6.3930 H   0  0  0  0  0  0  0  0  0  0  0  0
    7.1489    0.0164    6.0480 H   0  0  0  0  0  0  0  0  0  0  0  0
    6.9157    1.2100    4.7840 H   0  0  0  0  0  0  0  0  0  0  0  0
    3.5651    0.7794    7.5584 H   0  0  0  0  0  0  0  0  0  0  0  0
    5.0200   -0.2201    7.8927 H   0  0  0  0  0  0  0  0  0  0  0  0
    5.0684    1.5145    8.1241 H   0  0  0  0  0  0  0  0  0  0  0  0
    6.2456    6.9704    1.7571 H   0  0  0  0  0  0  0  0  0  0  0  0
    4.0341    7.4382    4.2730 H   0  0  0  0  0  0  0  0  0  0  0  0
    2.2515    1.2665   -0.3688 H   0  0  0  0  0  0  0  0  0  0  0  0
    2.4686    1.9915    1.1590 H   0  0  0  0  0  0  0  0  0  0  0  0
    3.0469    3.3008   -2.1454 H   0  0  0  0  0  0  0  0  0  0  0  0
    1.9209    5.3151   -3.0271 H   0  0  0  0  0  0  0  0  0  0  0  0
    0.4814    6.7503   -1.5515 H   0  0  0  0  0  0  0  0  0  0  0  0
   -0.2115    5.8748    0.6748 H   0  0  0  0  0  0  0  0  0  0  0  0
    0.3792    3.8045    1.2608 H   0  0  0  0  0  0  0  0  0  0  0  0
    6.3913    5.4530    4.9097 H   0  0  0  0  0  0  0  0  0  0  0  0
    5.2875    6.5773    5.2829 H   0  0  0  0  0  0  0  0  0  0  0  0
    5.1735    5.2921    6.2936 H   0  0  0  0  0  0  0  0  0  0  0  0
    1.4619    4.7047    5.6842 H   0  0  0  0  0  0  0  0  0  0  0  0
    1.2713    5.6112    4.3002 H   0  0  0  0  0  0  0  0  0  0  0  0
    1.6071    4.0156    4.1837 H   0  0  0  0  0  0  0  0  0  0  0  0
  1  2  1  0  0  0  0
  1  5  1  0  0  0  0
  2 44  1  0  0  0  0
  3  4  1  0  0  0  0
  3 10  1  0  0  0  0
  3 15  2  0  0  0  0
  4  5  1  0  0  0  0
  4 16  1  0  0  0  0
  4 45  1  1  0  0  0
  5 28  1  0  0  0  0
  5 29  1  0  0  0  0
  6  7  1  0  0  0  0
  6 30  1  0  0  0  0
  6 46  1  1  0  0  0
  7 11  1  0  0  0  0
  7 47  1  0  0  0  0
  8  9  1  0  0  0  0
  8 14  2  0  0  0  0
  9 10  1  0  0  0  0
  9 48  1  0  0  0  0
  9 49  1  0  0  0  0
 10 50  1  0  0  0  0
 11 12  1  0  0  0  0
 11 33  2  0  0  0  0
 12 13  1  0  0  0  0
 12 35  1  0  0  0  0
 12 51  1  6  0  0  0
 13  8  1  0  0  0  0
 13 52  1  0  0  0  0
 16 17  1  0  0  0  0
 16 53  1  0  0  0  0
 17 27  2  0  0  0  0
 18 26  1  0  0  0  0
 18 54  1  6  0  0  0
 18 19  1  0  0  0  0
 18 17  1  0  0  0  0
 19 20  1  0  0  0  0
 19 55  1  0  0  0  0
 19 56  1  0  0  0  0
 20 21  2  0  0  0  0
 20 25  1  0  0  0  0
 21 22  1  0  0  0  0
 21 57  1  0  0  0  0
 22 23  2  0  0  0  0
 22 58  1  0  0  0  0
 23 24  1  0  0  0  0
 23 34  1  0  0  0  0
 24 25  2  0  0  0  0
 24 59  1  0  0  0  0
 25 60  1  0  0  0  0
 26 61  1  0  0  0  0
 26 62  1  0  0  0  0
 28 63  1  0  0  0  0
 28 64  1  0  0  0  0
 28 65  1  0  0  0  0
 29 66  1  0  0  0  0
 29 67  1  0  0  0  0
 29 68  1  0  0  0  0
 30 31  1  0  0  0  0
 30 32  2  0  0  0  0
 31 69  1  0  0  0  0
 34 70  1  0  0  0  0
 35 36  1  0  0  0  0
 35 71  1  0  0  0  0
 35 72  1  0  0  0  0
 36 37  2  0  0  0  0
 36 41  1  0  0  0  0
 37 38  1  0  0  0  0
 37 73  1  0  0  0  0
 38 39  2  0  0  0  0
 38 74  1  0  0  0  0
 39 40  1  0  0  0  0
 39 75  1  0  0  0  0
 40 41  2  0  0  0  0
 40 76  1  0  0  0  0
 41 77  1  0  0  0  0
 42 78  1  0  0  0  0
 42 79  1  0  0  0  0
 42 80  1  0  0  0  0
 43 44  1  0  0  0  0
 43 81  1  0  0  0  0
 43 82  1  0  0  0  0
 43 83  1  0  0  0  0
 44  6  1  0  0  0  0
 44 42  1  0  0  0  0
M  END
>  <DRUGBANK_ID>
DB08861

>  <COMMON_NAME>
DPDPE

>  <CAS_NUMBER>
88373-73-3

>  <UNII>
HB4QD9GL6F

>  <SYNONYMS>
(D-Pen2,D-Pen5)-Enkephalin; [D-Pen2-D-Pen5]-enkephaline; 2,5-Pen-enkephalin; cyclo-[D-Pen2,5]-enkephalin; D-penicillamine-(2,5)-enkephalin; L-tyrosyl-3-mercapto-D-valylglycyl-L-phenylalanyl-3-mercapto-D-valine, cyclic (2-5)-disulfide

$$$$
