DHP
 OpenBabel10282417133D

 41 41  0  0  0  0  0  0  0  0999 V2000
   -1.1585    0.1506   -0.2072 N   0  0  0  0  0  0  0  0  0  0  0  0
    1.0156    0.7270   -0.0612 C   0  0  0  0  0  0  0  0  0  0  0  0
    2.1343    1.5104   -0.1175 O   0  0  0  0  0  0  0  0  0  0  0  0
   -0.3694    1.2117    0.0225 C   0  0  0  0  0  0  0  0  0  0  0  0
   -0.6930    2.3541    0.3025 O   0  0  0  0  0  0  0  0  0  0  0  0
   -0.4369   -0.9832   -0.1205 C   0  0  0  0  0  0  0  0  0  0  0  0
   -0.9463   -2.0845   -0.0412 O   0  0  0  0  0  0  0  0  0  0  0  0
    0.9989   -0.6049   -0.1040 C   0  0  0  0  0  0  0  0  0  0  0  0
    2.2153   -1.4578   -0.1926 C   0  0  0  0  0  0  0  0  0  0  0  0
    2.4339   -2.3239    1.0480 C   0  0  0  0  0  0  0  0  0  0  0  0
    1.2864   -3.3063    1.2436 C   0  0  0  0  0  0  0  0  0  0  0  0
    1.0947   -4.1623   -0.0215 C   0  0  0  0  0  0  0  0  0  0  0  0
    2.3293   -5.0398   -0.2283 C   0  0  0  0  0  0  0  0  0  0  0  0
    2.5172   -5.9437    0.9919 C   0  0  0  0  0  0  0  0  0  0  0  0
    1.2864   -6.8399    1.1782 C   0  0  0  0  0  0  0  0  0  0  0  0
    1.1010   -7.7558   -0.0359 C   0  0  0  0  0  0  0  0  0  0  0  0
    2.3349   -8.6316   -0.2566 C   0  0  0  0  0  0  0  0  0  0  0  0
    2.5863   -9.5050    0.9619 C   0  0  0  0  0  0  0  0  0  0  0  0
   -2.1636    0.1397   -0.1624 H   0  0  0  0  0  0  0  0  0  0  0  0
    1.8316    2.4367   -0.1386 H   0  0  0  0  0  0  0  0  0  0  0  0
    2.1854   -2.0466   -1.1152 H   0  0  0  0  0  0  0  0  0  0  0  0
    3.1131   -0.8393   -0.3140 H   0  0  0  0  0  0  0  0  0  0  0  0
    3.3865   -2.8609    0.9517 H   0  0  0  0  0  0  0  0  0  0  0  0
    2.5444   -1.7038    1.9432 H   0  0  0  0  0  0  0  0  0  0  0  0
    1.4541   -3.9175    2.1324 H   0  0  0  0  0  0  0  0  0  0  0  0
    0.3836   -2.7737    1.5318 H   0  0  0  0  0  0  0  0  0  0  0  0
    0.1755   -4.7502    0.0571 H   0  0  0  0  0  0  0  0  0  0  0  0
    0.9240   -3.5742   -0.9280 H   0  0  0  0  0  0  0  0  0  0  0  0
    2.2305   -5.6135   -1.1551 H   0  0  0  0  0  0  0  0  0  0  0  0
    3.2287   -4.4376   -0.3900 H   0  0  0  0  0  0  0  0  0  0  0  0
    3.4406   -6.5171    0.8890 H   0  0  0  0  0  0  0  0  0  0  0  0
    2.6929   -5.3682    1.9048 H   0  0  0  0  0  0  0  0  0  0  0  0
    1.3839   -7.4106    2.1046 H   0  0  0  0  0  0  0  0  0  0  0  0
    0.3735   -6.2564    1.3387 H   0  0  0  0  0  0  0  0  0  0  0  0
    0.2108   -8.3761    0.1038 H   0  0  0  0  0  0  0  0  0  0  0  0
    0.9023   -7.1698   -0.9419 H   0  0  0  0  0  0  0  0  0  0  0  0
    2.1942   -9.2489   -1.1474 H   0  0  0  0  0  0  0  0  0  0  0  0
    3.2230   -8.0223   -0.4630 H   0  0  0  0  0  0  0  0  0  0  0  0
    1.7150  -10.1398    1.1470 H   0  0  0  0  0  0  0  0  0  0  0  0
    3.4674  -10.1298    0.8156 H   0  0  0  0  0  0  0  0  0  0  0  0
    2.7677   -8.9128    1.8650 H   0  0  0  0  0  0  0  0  0  0  0  0
  1  4  1  0  0  0  0
  1  6  1  0  0  0  0
  1 19  1  0  0  0  0
  2  3  1  0  0  0  0
  2  4  1  0  0  0  0
  2  8  2  0  0  0  0
  3 20  1  0  0  0  0
  4  5  2  0  0  0  0
  6  7  2  0  0  0  0
  6  8  1  0  0  0  0
  8  9  1  0  0  0  0
  9 10  1  0  0  0  0
  9 21  1  0  0  0  0
  9 22  1  0  0  0  0
 10 11  1  0  0  0  0
 10 23  1  0  0  0  0
 10 24  1  0  0  0  0
 11 12  1  0  0  0  0
 11 25  1  0  0  0  0
 11 26  1  0  0  0  0
 12 13  1  0  0  0  0
 12 27  1  0  0  0  0
 12 28  1  0  0  0  0
 13 14  1  0  0  0  0
 13 29  1  0  0  0  0
 13 30  1  0  0  0  0
 14 15  1  0  0  0  0
 14 31  1  0  0  0  0
 14 32  1  0  0  0  0
 15 16  1  0  0  0  0
 15 33  1  0  0  0  0
 15 34  1  0  0  0  0
 16 17  1  0  0  0  0
 16 35  1  0  0  0  0
 16 36  1  0  0  0  0
 17 18  1  0  0  0  0
 17 37  1  0  0  0  0
 17 38  1  0  0  0  0
 18 39  1  0  0  0  0
 18 40  1  0  0  0  0
 18 41  1  0  0  0  0
M  END
>  <DRUGBANK_ID>
DB03064

>  <SECONDARY_ACCESSION_NUMBERS>
EXPT01195

>  <COMMON_NAME>
3-Decyl-2,5-Dioxo-4-Hydroxy-3-Pyrroline

$$$$
