
 OpenBabel10282417233D

154167  0  0  1  0  0  0  0  0999 V2000
    4.3395   -2.4929   -2.2528 H   0  0  0  0  0  0  0  0  0  0  0  0
    4.8716   -2.9005   -1.3979 C   0  0  2  0  0  0  0  0  0  0  0  0
    5.4300   -3.6181   -2.6390 O   0  0  0  0  0  0  0  0  0  0  0  0
    5.0480   -4.9550   -2.5536 C   0  0  0  0  0  0  0  0  0  0  0  0
    4.3208   -5.0765   -1.3724 C   0  0  0  0  0  0  0  0  0  0  0  0
    3.3717   -6.0700   -1.0665 C   0  0  0  0  0  0  0  0  0  0  0  0
    2.4822   -5.8841    0.1516 C   0  0  0  0  0  0  0  0  0  0  0  0
    3.1788   -5.0711    1.1582 C   0  0  1  0  0  0  0  0  0  0  0  0
    4.3518   -5.7293    1.7917 N   0  0  0  0  0  0  0  0  0  0  0  0
    3.9813   -6.9831    2.4807 C   0  0  0  0  0  0  0  0  0  0  0  0
    3.4501   -8.2826    1.8293 C   0  0  0  0  0  0  0  0  0  0  0  0
    3.9309   -8.7639    0.4806 C   0  0  0  0  0  0  0  0  0  0  0  0
    2.4533   -8.5607    0.6655 C   0  0  0  0  0  0  0  0  0  0  0  0
    5.6152   -5.7556    1.0298 C   0  0  0  0  0  0  0  0  0  0  0  0
    5.9430   -4.4373    0.2989 C   0  0  0  0  0  0  0  0  0  0  0  0
    4.6635   -4.0167   -0.4625 C   0  0  1  0  0  0  0  0  0  0  0  0
    3.4519   -3.8195    0.3796 C   0  0  1  0  0  0  0  0  0  0  0  0
    2.2034   -3.4379   -0.7716 C   0  0  0  0  0  0  0  0  0  0  0  0
    2.4885   -2.1379   -1.4697 C   0  0  0  0  0  0  0  0  0  0  0  0
    3.8401   -1.6192   -0.7740 C   0  0  2  0  0  0  0  0  0  0  0  0
    4.5004   -0.4050   -1.2159 O   0  0  0  0  0  0  0  0  0  0  0  0
    5.8977   -0.7298   -1.4604 C   0  0  0  0  0  0  0  0  0  0  0  0
    3.7924   -1.5046    0.9067 C   0  0  2  0  0  0  0  0  0  0  0  0
    4.7525   -1.0314    1.1589 H   0  0  0  0  0  0  0  0  0  0  0  0
    3.8870   -2.8713    1.4538 C   0  0  0  0  0  0  0  0  0  0  0  0
    2.7516   -0.7937    1.9106 C   0  0  2  0  0  0  0  0  0  0  0  0
    3.1814    0.6514    2.1031 C   0  0  0  0  0  0  0  0  0  0  0  0
    2.9317   -1.2961    3.2834 O   0  0  0  0  0  0  0  0  0  0  0  0
    1.2241   -1.0159    1.6081 C   0  0  0  0  0  0  0  0  0  0  0  0
    0.2776   -0.5159    2.6849 C   0  0  0  0  0  0  0  0  0  0  0  0
    0.8543   -0.2810    0.3219 C   0  0  0  0  0  0  0  0  0  0  0  0
    0.8448   -2.4978    1.6211 C   0  0  0  0  0  0  0  0  0  0  0  0
    3.2410   -6.9579   -1.9938 C   0  0  0  0  0  0  0  0  0  0  0  0
    4.1574   -6.9637   -3.0594 C   0  0  0  0  0  0  0  0  0  0  0  0
    5.1729   -6.0442   -3.3154 C   0  0  0  0  0  0  0  0  0  0  0  0
    6.2096   -6.4519   -4.1390 O   0  0  0  0  0  0  0  0  0  0  0  0
    6.0754   -7.6577   -4.9871 C   0  0  0  0  0  0  0  0  0  0  0  0
    6.1587   -9.1388   -4.4621 C   0  0  0  0  0  0  0  0  0  0  0  0
    5.0189   -9.6795   -3.8110 O   0  0  0  0  0  0  0  0  0  0  0  0
    3.7787   -9.5336   -4.3634 C   0  0  0  0  0  0  0  0  0  0  0  0
    2.7939   -9.7767   -3.3423 C   0  0  0  0  0  0  0  0  0  0  0  0
    1.4304   -9.5199   -3.5151 C   0  0  0  0  0  0  0  0  0  0  0  0
    1.0159   -9.3123   -4.7961 C   0  0  0  0  0  0  0  0  0  0  0  0
   -0.3722   -9.5689   -5.3015 C   0  0  0  0  0  0  0  0  0  0  0  0
   -0.3377  -10.1636   -6.7642 C   0  0  1  0  0  0  0  0  0  0  0  0
    0.1870  -11.6299   -6.7805 N   0  0  0  0  0  0  0  0  0  0  0  0
    0.3984  -12.2782   -8.0900 C   0  0  0  0  0  0  0  0  0  0  0  0
    1.4483  -11.9385   -9.1452 C   0  0  0  0  0  0  0  0  0  0  0  0
    2.8699  -12.3825   -9.6378 C   0  0  0  0  0  0  0  0  0  0  0  0
    2.7723  -10.9879   -9.2176 C   0  0  0  0  0  0  0  0  0  0  0  0
    1.3883  -11.8735   -5.9804 C   0  0  0  0  0  0  0  0  0  0  0  0
    2.4333  -11.1004   -6.7128 C   0  0  0  0  0  0  0  0  0  0  0  0
    1.8952   -9.6110   -7.1554 C   0  0  2  0  0  0  0  0  0  0  0  0
    2.0111   -9.1038   -5.7383 C   0  0  0  0  0  0  0  0  0  0  0  0
    3.3607   -8.9691   -5.5643 C   0  0  0  0  0  0  0  0  0  0  0  0
    3.9498   -8.5464   -6.7950 O   0  0  0  0  0  0  0  0  0  0  0  0
    2.8574   -8.6850   -7.8183 C   0  0  1  0  0  0  0  0  0  0  0  0
    2.3473   -7.9688   -7.3019 H   0  0  0  0  0  0  0  0  0  0  0  0
    2.2850   -7.6215   -9.0207 C   0  0  1  0  0  0  0  0  0  0  0  0
    1.4608   -6.5767   -8.1121 C   0  0  0  0  0  0  0  0  0  0  0  0
    0.2223   -7.4249   -7.4393 C   0  0  0  0  0  0  0  0  0  0  0  0
    0.4968   -9.1519   -7.6124 C   0  0  1  0  0  0  0  0  0  0  0  0
    0.3537   -9.2683   -9.1674 C   0  0  0  0  0  0  0  0  0  0  0  0
    1.1892   -8.2938  -10.0532 C   0  0  2  0  0  0  0  0  0  0  0  0
    0.3781   -7.6005  -10.3643 H   0  0  0  0  0  0  0  0  0  0  0  0
    1.8518   -8.7627  -11.5736 C   0  0  2  0  0  0  0  0  0  0  0  0
    3.4311   -8.9102  -11.6812 C   0  0  0  0  0  0  0  0  0  0  0  0
    1.5368   -7.5470  -12.3287 O   0  0  0  0  0  0  0  0  0  0  0  0
    1.1787   -9.9221  -12.4878 C   0  0  0  0  0  0  0  0  0  0  0  0
    1.6231  -11.3348  -12.1991 C   0  0  0  0  0  0  0  0  0  0  0  0
   -0.3534   -9.8652  -12.4302 C   0  0  0  0  0  0  0  0  0  0  0  0
    1.6677   -9.8773  -13.9469 C   0  0  0  0  0  0  0  0  0  0  0  0
    3.4622   -7.2363   -9.6924 O   0  0  0  0  0  0  0  0  0  0  0  0
    3.8000   -5.9141  -10.0201 C   0  0  0  0  0  0  0  0  0  0  0  0
    2.1687   -6.5976    0.8672 H   0  0  0  0  0  0  0  0  0  0  0  0
    1.4906   -5.5638   -0.1707 H   0  0  0  0  0  0  0  0  0  0  0  0
    2.4580   -4.8695    1.9677 H   0  0  0  0  0  0  0  0  0  0  0  0
    4.8523   -7.2669    3.0888 H   0  0  0  0  0  0  0  0  0  0  0  0
    3.2374   -6.6897    3.2385 H   0  0  0  0  0  0  0  0  0  0  0  0
    3.3484   -9.0154    2.6243 H   0  0  0  0  0  0  0  0  0  0  0  0
    4.5428   -8.0578   -0.0625 H   0  0  0  0  0  0  0  0  0  0  0  0
    4.2271   -9.7612    0.2105 H   0  0  0  0  0  0  0  0  0  0  0  0
    1.6408   -9.2714    0.7247 H   0  0  0  0  0  0  0  0  0  0  0  0
    1.9504   -7.9450   -0.0679 H   0  0  0  0  0  0  0  0  0  0  0  0
    5.5774   -6.4940    0.2363 H   0  0  0  0  0  0  0  0  0  0  0  0
    6.4642   -6.0783    1.6403 H   0  0  0  0  0  0  0  0  0  0  0  0
    6.7680   -4.5897   -0.4100 H   0  0  0  0  0  0  0  0  0  0  0  0
    6.3556   -3.6756    0.9733 H   0  0  0  0  0  0  0  0  0  0  0  0
    1.1604   -3.5445   -0.4481 H   0  0  0  0  0  0  0  0  0  0  0  0
    2.1404   -4.1683   -1.5943 H   0  0  0  0  0  0  0  0  0  0  0  0
    1.5776   -1.5774   -1.6959 H   0  0  0  0  0  0  0  0  0  0  0  0
    2.6530   -2.4066   -2.5297 H   0  0  0  0  0  0  0  0  0  0  0  0
    6.3061   -1.3684   -0.6520 H   0  0  0  0  0  0  0  0  0  0  0  0
    5.9103   -1.2493   -2.4226 H   0  0  0  0  0  0  0  0  0  0  0  0
    6.5946    0.0832   -1.6246 H   0  0  0  0  0  0  0  0  0  0  0  0
    3.3568   -3.1003    2.3824 H   0  0  0  0  0  0  0  0  0  0  0  0
    4.9032   -2.9844    1.8323 H   0  0  0  0  0  0  0  0  0  0  0  0
    3.1052    1.2191    1.1810 H   0  0  0  0  0  0  0  0  0  0  0  0
    2.6098    1.1255    2.9076 H   0  0  0  0  0  0  0  0  0  0  0  0
    4.2244    0.6759    2.4516 H   0  0  0  0  0  0  0  0  0  0  0  0
    3.8800   -1.4298    3.4641 H   0  0  0  0  0  0  0  0  0  0  0  0
    0.4033    0.5480    2.8527 H   0  0  0  0  0  0  0  0  0  0  0  0
   -0.7534   -0.7117    2.3593 H   0  0  0  0  0  0  0  0  0  0  0  0
    0.4314   -1.0659    3.6195 H   0  0  0  0  0  0  0  0  0  0  0  0
    1.5780   -0.4250   -0.4516 H   0  0  0  0  0  0  0  0  0  0  0  0
   -0.1318   -0.5600   -0.0587 H   0  0  0  0  0  0  0  0  0  0  0  0
    0.9173    0.8007    0.4368 H   0  0  0  0  0  0  0  0  0  0  0  0
    1.6321   -2.9855    1.1445 H   0  0  0  0  0  0  0  0  0  0  0  0
    0.8802   -3.0156    2.5854 H   0  0  0  0  0  0  0  0  0  0  0  0
   -0.0718   -2.7541    1.0834 H   0  0  0  0  0  0  0  0  0  0  0  0
    2.5263   -7.7756   -1.9122 H   0  0  0  0  0  0  0  0  0  0  0  0
    4.0656   -7.7006   -3.7235 H   0  0  0  0  0  0  0  0  0  0  0  0
    5.1624   -7.4867   -5.5215 H   0  0  0  0  0  0  0  0  0  0  0  0
    6.8470   -7.6113   -5.7626 H   0  0  0  0  0  0  0  0  0  0  0  0
    6.3509   -9.8657   -5.2661 H   0  0  0  0  0  0  0  0  0  0  0  0
    6.9943   -9.2478   -3.7591 H   0  0  0  0  0  0  0  0  0  0  0  0
    3.1398  -10.0095   -2.3354 H   0  0  0  0  0  0  0  0  0  0  0  0
    0.7194   -9.6032   -2.7042 H   0  0  0  0  0  0  0  0  0  0  0  0
   -0.8610   -8.5906   -5.2854 H   0  0  0  0  0  0  0  0  0  0  0  0
   -0.9197  -10.2399   -4.6360 H   0  0  0  0  0  0  0  0  0  0  0  0
   -1.3665  -10.1775   -7.1328 H   0  0  0  0  0  0  0  0  0  0  0  0
    0.4175  -13.3665   -7.9842 H   0  0  0  0  0  0  0  0  0  0  0  0
   -0.5902  -12.1078   -8.5578 H   0  0  0  0  0  0  0  0  0  0  0  0
    0.6756  -11.8214   -9.8879 H   0  0  0  0  0  0  0  0  0  0  0  0
    3.5457  -12.9454   -9.0091 H   0  0  0  0  0  0  0  0  0  0  0  0
    3.3181  -12.2919  -10.6249 H   0  0  0  0  0  0  0  0  0  0  0  0
    2.7260  -10.1271   -9.8368 H   0  0  0  0  0  0  0  0  0  0  0  0
    3.6568  -10.7577   -8.6036 H   0  0  0  0  0  0  0  0  0  0  0  0
    1.7211  -12.9224   -5.9501 H   0  0  0  0  0  0  0  0  0  0  0  0
    1.2399  -11.6534   -4.9311 H   0  0  0  0  0  0  0  0  0  0  0  0
    3.4781  -11.1138   -6.3605 H   0  0  0  0  0  0  0  0  0  0  0  0
    2.6553  -11.8680   -7.4222 H   0  0  0  0  0  0  0  0  0  0  0  0
    1.8190   -5.5344   -8.2300 H   0  0  0  0  0  0  0  0  0  0  0  0
    1.9623   -6.4343   -7.1219 H   0  0  0  0  0  0  0  0  0  0  0  0
   -0.0085   -6.8822   -6.4961 H   0  0  0  0  0  0  0  0  0  0  0  0
   -0.7913   -7.3972   -7.8318 H   0  0  0  0  0  0  0  0  0  0  0  0
    0.8373  -10.1055   -9.5135 H   0  0  0  0  0  0  0  0  0  0  0  0
   -0.6796   -9.5144   -9.4341 H   0  0  0  0  0  0  0  0  0  0  0  0
    3.9335   -9.5715  -10.9768 H   0  0  0  0  0  0  0  0  0  0  0  0
    3.7630   -9.3109  -12.6363 H   0  0  0  0  0  0  0  0  0  0  0  0
    3.9515   -7.9557  -11.6749 H   0  0  0  0  0  0  0  0  0  0  0  0
    2.3069   -7.3140  -12.8700 H   0  0  0  0  0  0  0  0  0  0  0  0
    1.3200  -11.4733  -11.2292 H   0  0  0  0  0  0  0  0  0  0  0  0
    1.1215  -12.1557  -12.7207 H   0  0  0  0  0  0  0  0  0  0  0  0
    2.7013  -11.4705  -12.2581 H   0  0  0  0  0  0  0  0  0  0  0  0
   -0.7222   -8.9166  -12.8229 H   0  0  0  0  0  0  0  0  0  0  0  0
   -0.8037  -10.6835  -13.0029 H   0  0  0  0  0  0  0  0  0  0  0  0
   -0.7401   -9.9813  -11.4169 H   0  0  0  0  0  0  0  0  0  0  0  0
    1.4502   -8.9330  -14.4291 H   0  0  0  0  0  0  0  0  0  0  0  0
    2.7468  -10.0643  -14.0101 H   0  0  0  0  0  0  0  0  0  0  0  0
    1.2304  -10.7061  -14.5169 H   0  0  0  0  0  0  0  0  0  0  0  0
    3.1018   -5.4439  -10.7184 H   0  0  0  0  0  0  0  0  0  0  0  0
    3.9429   -5.3363   -9.1107 H   0  0  0  0  0  0  0  0  0  0  0  0
    4.7764   -5.9713  -10.5240 H   0  0  0  0  0  0  0  0  0  0  0  0
  2  1  1  1  0  0  0
  2  3  1  0  0  0  0
  2 16  1  0  0  0  0
  2 20  1  0  0  0  0
  3  4  1  0  0  0  0
  4  5  2  0  0  0  0
  4 35  1  0  0  0  0
  5  6  1  0  0  0  0
  6  7  1  0  0  0  0
  6 33  2  0  0  0  0
  7 75  1  0  0  0  0
  7 76  1  0  0  0  0
  8  7  1  0  0  0  0
  8  9  1  0  0  0  0
  8 77  1  1  0  0  0
  9 10  1  0  0  0  0
  9 14  1  0  0  0  0
 10 11  1  0  0  0  0
 10 78  1  0  0  0  0
 10 79  1  0  0  0  0
 11 12  1  0  0  0  0
 11 13  1  0  0  0  0
 11 80  1  0  0  0  0
 12 13  1  0  0  0  0
 12 81  1  0  0  0  0
 12 82  1  0  0  0  0
 13 83  1  0  0  0  0
 13 84  1  0  0  0  0
 14 15  1  0  0  0  0
 14 85  1  0  0  0  0
 14 86  1  0  0  0  0
 15 87  1  0  0  0  0
 15 88  1  0  0  0  0
 16 15  1  0  0  0  0
 16  5  1  6  0  0  0
 16 17  1  0  0  0  0
 17  8  1  0  0  0  0
 17 18  1  6  0  0  0
 17 25  1  0  0  0  0
 18 19  1  0  0  0  0
 18 89  1  0  0  0  0
 18 90  1  0  0  0  0
 19 91  1  0  0  0  0
 19 92  1  0  0  0  0
 20 19  1  0  0  0  0
 20 21  1  6  0  0  0
 20 23  1  0  0  0  0
 21 22  1  0  0  0  0
 22 93  1  0  0  0  0
 22 94  1  0  0  0  0
 22 95  1  0  0  0  0
 23 24  1  1  0  0  0
 23 25  1  0  0  0  0
 25 96  1  0  0  0  0
 25 97  1  0  0  0  0
 26 28  1  1  0  0  0
 26 29  1  0  0  0  0
 26 27  1  0  0  0  0
 26 23  1  0  0  0  0
 27 98  1  0  0  0  0
 27 99  1  0  0  0  0
 27100  1  0  0  0  0
 28101  1  0  0  0  0
 29 30  1  0  0  0  0
 29 31  1  0  0  0  0
 29 32  1  0  0  0  0
 30102  1  0  0  0  0
 30103  1  0  0  0  0
 30104  1  0  0  0  0
 31105  1  0  0  0  0
 31106  1  0  0  0  0
 31107  1  0  0  0  0
 32108  1  0  0  0  0
 32109  1  0  0  0  0
 32110  1  0  0  0  0
 33 34  1  0  0  0  0
 33111  1  0  0  0  0
 34 35  2  0  0  0  0
 34112  1  0  0  0  0
 35 36  1  0  0  0  0
 36 37  1  0  0  0  0
 37 38  1  0  0  0  0
 37113  1  0  0  0  0
 37114  1  0  0  0  0
 38 39  1  0  0  0  0
 38115  1  0  0  0  0
 38116  1  0  0  0  0
 39 40  1  0  0  0  0
 40 41  2  0  0  0  0
 40 55  1  0  0  0  0
 41 42  1  0  0  0  0
 41117  1  0  0  0  0
 42 43  2  0  0  0  0
 42118  1  0  0  0  0
 43 44  1  0  0  0  0
 43 54  1  0  0  0  0
 44119  1  0  0  0  0
 44120  1  0  0  0  0
 45 44  1  0  0  0  0
 45 46  1  0  0  0  0
 45121  1  1  0  0  0
 46 51  1  0  0  0  0
 46 47  1  0  0  0  0
 47 48  1  0  0  0  0
 47122  1  0  0  0  0
 47123  1  0  0  0  0
 48 49  1  0  0  0  0
 48 50  1  0  0  0  0
 48124  1  0  0  0  0
 49 50  1  0  0  0  0
 49125  1  0  0  0  0
 49126  1  0  0  0  0
 50127  1  0  0  0  0
 50128  1  0  0  0  0
 51 52  1  0  0  0  0
 51129  1  0  0  0  0
 51130  1  0  0  0  0
 52131  1  0  0  0  0
 52132  1  0  0  0  0
 53 52  1  0  0  0  0
 53 54  1  6  0  0  0
 53 57  1  0  0  0  0
 53 62  1  0  0  0  0
 54 55  2  0  0  0  0
 55 56  1  0  0  0  0
 57 56  1  0  0  0  0
 57 59  1  0  0  0  0
 57 58  1  1  0  0  0
 59 60  1  0  0  0  0
 59 64  1  0  0  0  0
 59 73  1  1  0  0  0
 60 61  1  0  0  0  0
 60133  1  0  0  0  0
 60134  1  0  0  0  0
 61135  1  0  0  0  0
 61136  1  0  0  0  0
 62 61  1  6  0  0  0
 62 45  1  0  0  0  0
 62 63  1  0  0  0  0
 63137  1  0  0  0  0
 63138  1  0  0  0  0
 64 63  1  0  0  0  0
 64 66  1  0  0  0  0
 64 65  1  6  0  0  0
 66 69  1  0  0  0  0
 66 68  1  6  0  0  0
 66 67  1  0  0  0  0
 67139  1  0  0  0  0
 67140  1  0  0  0  0
 67141  1  0  0  0  0
 68142  1  0  0  0  0
 69 70  1  0  0  0  0
 69 71  1  0  0  0  0
 69 72  1  0  0  0  0
 70143  1  0  0  0  0
 70144  1  0  0  0  0
 70145  1  0  0  0  0
 71146  1  0  0  0  0
 71147  1  0  0  0  0
 71148  1  0  0  0  0
 72149  1  0  0  0  0
 72150  1  0  0  0  0
 72151  1  0  0  0  0
 73 74  1  0  0  0  0
 74152  1  0  0  0  0
 74153  1  0  0  0  0
 74154  1  0  0  0  0
M  END
>  <DRUGBANK_ID>
DB16072

>  <COMMON_NAME>
ORP-101

>  <CAS_NUMBER>
1820753-68-1

>  <UNII>
SE6KE496VO

>  <SYNONYMS>
Buprenorphine dimer

$$$$
