NU5
 OpenBabel10282417173D

 66 69  0  0  0  0  0  0  0  0999 V2000
    1.1718    0.2466   -0.1264 O   0  0  0  0  0  0  0  0  0  0  0  0
    2.6392    0.1369   -0.1144 S   0  0  0  0  0  0  0  0  0  0  0  0
    3.2362   -1.1611    0.0703 O   0  0  0  0  0  0  0  0  0  0  0  0
    3.2112    0.7330   -1.7023 C   0  0  0  0  0  0  0  0  0  0  0  0
    2.6177    2.0673   -2.1815 C   0  0  0  0  0  0  0  0  0  0  0  0
    3.0276    3.0299   -1.2088 N   0  0  0  0  0  0  0  0  0  0  0  0
    2.5479    4.3998   -1.1267 C   0  0  0  0  0  0  0  0  0  0  0  0
    1.0394    4.4379   -0.8520 C   0  0  0  0  0  0  0  0  0  0  0  0
    0.5185    3.8387    0.4714 C   0  0  0  0  0  0  0  0  0  0  0  0
    0.8654    4.6468    1.5853 O   0  0  0  0  0  0  0  0  0  0  0  0
    3.1600    1.1702    1.3101 C   0  0  0  0  0  0  0  0  0  0  0  0
    3.3982    2.5349    1.4280 C   0  0  0  0  0  0  0  0  0  0  0  0
    3.5340    3.3015    2.5808 C   0  0  0  0  0  0  0  0  0  0  0  0
    3.5118    2.7094    3.7812 C   0  0  0  0  0  0  0  0  0  0  0  0
    3.2154    1.3635    3.7284 C   0  0  0  0  0  0  0  0  0  0  0  0
    3.1047    0.5753    2.5268 C   0  0  0  0  0  0  0  0  0  0  0  0
    3.8945    3.4518    4.8813 N   0  0  0  0  0  0  0  0  0  0  0  0
    4.3221    3.0256    6.1249 C   0  0  0  0  0  0  0  0  0  0  0  0
    5.4986    2.3556    6.2106 N   0  0  0  0  0  0  0  0  0  0  0  0
    5.8345    1.7213    7.3659 C   0  0  0  0  0  0  0  0  0  0  0  0
    5.0241    1.9373    8.4810 C   0  0  0  0  0  0  0  0  0  0  0  0
    5.0680    1.5247    9.7923 N   0  0  0  0  0  0  0  0  0  0  0  0
    4.0916    2.1801   10.3836 C   0  0  0  0  0  0  0  0  0  0  0  0
    3.3493    2.9063    9.4978 N   0  0  0  0  0  0  0  0  0  0  0  0
    3.9261    2.7551    8.2772 C   0  0  0  0  0  0  0  0  0  0  0  0
    3.5097    3.3209    7.1450 N   0  0  0  0  0  0  0  0  0  0  0  0
    6.8428    0.7612    7.4030 O   0  0  0  0  0  0  0  0  0  0  0  0
    7.5168    0.4211    6.1782 C   0  0  0  0  0  0  0  0  0  0  0  0
    6.7509   -0.5123    5.2042 C   0  0  0  0  0  0  0  0  0  0  0  0
    5.2974   -0.1607    5.1802 C   0  0  0  0  0  0  0  0  0  0  0  0
    4.4719   -1.0685    4.3316 C   0  0  0  0  0  0  0  0  0  0  0  0
    4.5075   -2.4986    4.6741 C   0  0  0  0  0  0  0  0  0  0  0  0
    5.9558   -2.8832    4.5800 C   0  0  0  0  0  0  0  0  0  0  0  0
    6.8394   -2.0135    5.5033 C   0  0  0  0  0  0  0  0  0  0  0  0
    4.3043    0.7288   -1.6574 H   0  0  0  0  0  0  0  0  0  0  0  0
    2.9027   -0.0301   -2.4300 H   0  0  0  0  0  0  0  0  0  0  0  0
    2.9817    2.3636   -3.1618 H   0  0  0  0  0  0  0  0  0  0  0  0
    1.5276    1.9960   -2.1773 H   0  0  0  0  0  0  0  0  0  0  0  0
    2.4894    2.6168   -0.4554 H   0  0  0  0  0  0  0  0  0  0  0  0
    3.0537    4.9035   -0.2809 H   0  0  0  0  0  0  0  0  0  0  0  0
    2.8744    4.9602   -1.9989 H   0  0  0  0  0  0  0  0  0  0  0  0
    0.7441    5.4874   -0.8802 H   0  0  0  0  0  0  0  0  0  0  0  0
    0.5481    3.9128   -1.6724 H   0  0  0  0  0  0  0  0  0  0  0  0
   -0.5731    3.7961    0.4510 H   0  0  0  0  0  0  0  0  0  0  0  0
    0.8420    2.8106    0.6553 H   0  0  0  0  0  0  0  0  0  0  0  0
    1.8181    4.8093    1.5600 H   0  0  0  0  0  0  0  0  0  0  0  0
    3.4795    3.2638    0.6816 H   0  0  0  0  0  0  0  0  0  0  0  0
    3.6306    4.3780    2.5001 H   0  0  0  0  0  0  0  0  0  0  0  0
    3.1032    0.9148    4.7051 H   0  0  0  0  0  0  0  0  0  0  0  0
    3.0164   -0.5117    2.5205 H   0  0  0  0  0  0  0  0  0  0  0  0
    3.7126    4.4408    4.8555 H   0  0  0  0  0  0  0  0  0  0  0  0
    3.8882    2.1838   11.4439 H   0  0  0  0  0  0  0  0  0  0  0  0
    2.5654    3.5107    9.6922 H   0  0  0  0  0  0  0  0  0  0  0  0
    7.8586    1.3355    5.6752 H   0  0  0  0  0  0  0  0  0  0  0  0
    8.4300   -0.1124    6.4692 H   0  0  0  0  0  0  0  0  0  0  0  0
    7.1661   -0.3369    4.1982 H   0  0  0  0  0  0  0  0  0  0  0  0
    4.8403   -0.1479    6.1733 H   0  0  0  0  0  0  0  0  0  0  0  0
    5.2882    0.8218    4.7202 H   0  0  0  0  0  0  0  0  0  0  0  0
    3.4146   -0.8570    4.4572 H   0  0  0  0  0  0  0  0  0  0  0  0
    4.8438   -0.9294    3.3107 H   0  0  0  0  0  0  0  0  0  0  0  0
    4.0666   -2.6343    5.6672 H   0  0  0  0  0  0  0  0  0  0  0  0
    3.8693   -3.0071    3.9407 H   0  0  0  0  0  0  0  0  0  0  0  0
    6.0308   -3.9381    4.8305 H   0  0  0  0  0  0  0  0  0  0  0  0
    6.2740   -2.7490    3.5356 H   0  0  0  0  0  0  0  0  0  0  0  0
    7.8738   -2.3380    5.3906 H   0  0  0  0  0  0  0  0  0  0  0  0
    6.5204   -2.1713    6.5379 H   0  0  0  0  0  0  0  0  0  0  0  0
  1  2  2  0  0  0  0
  2  3  2  0  0  0  0
  2  4  1  0  0  0  0
  2 11  1  0  0  0  0
  4  5  1  0  0  0  0
  4 35  1  0  0  0  0
  4 36  1  0  0  0  0
  5  6  1  0  0  0  0
  5 37  1  0  0  0  0
  5 38  1  0  0  0  0
  6  7  1  0  0  0  0
  6 39  1  0  0  0  0
  7  8  1  0  0  0  0
  7 40  1  0  0  0  0
  7 41  1  0  0  0  0
  8  9  1  0  0  0  0
  8 42  1  0  0  0  0
  8 43  1  0  0  0  0
  9 10  1  0  0  0  0
  9 44  1  0  0  0  0
  9 45  1  0  0  0  0
 10 46  1  0  0  0  0
 11 12  1  0  0  0  0
 11 16  2  0  0  0  0
 12 13  2  0  0  0  0
 12 47  1  0  0  0  0
 13 14  1  0  0  0  0
 13 48  1  0  0  0  0
 14 15  2  0  0  0  0
 14 17  1  0  0  0  0
 15 16  1  0  0  0  0
 15 49  1  0  0  0  0
 16 50  1  0  0  0  0
 17 18  1  0  0  0  0
 17 51  1  0  0  0  0
 18 19  2  0  0  0  0
 18 26  1  0  0  0  0
 19 20  1  0  0  0  0
 20 21  2  0  0  0  0
 20 27  1  0  0  0  0
 21 22  1  0  0  0  0
 21 25  1  0  0  0  0
 22 23  2  0  0  0  0
 23 24  1  0  0  0  0
 23 52  1  0  0  0  0
 24 25  1  0  0  0  0
 24 53  1  0  0  0  0
 25 26  2  0  0  0  0
 27 28  1  0  0  0  0
 28 29  1  0  0  0  0
 28 54  1  0  0  0  0
 28 55  1  0  0  0  0
 29 30  1  0  0  0  0
 29 34  1  0  0  0  0
 29 56  1  0  0  0  0
 30 31  1  0  0  0  0
 30 57  1  0  0  0  0
 30 58  1  0  0  0  0
 31 32  1  0  0  0  0
 31 59  1  0  0  0  0
 31 60  1  0  0  0  0
 32 33  1  0  0  0  0
 32 61  1  0  0  0  0
 32 62  1  0  0  0  0
 33 34  1  0  0  0  0
 33 63  1  0  0  0  0
 33 64  1  0  0  0  0
 34 65  1  0  0  0  0
 34 66  1  0  0  0  0
M  END
>  <DRUGBANK_ID>
DB08309

>  <COMMON_NAME>
3-({2-[(4-{[6-(CYCLOHEXYLMETHOXY)-9H-PURIN-2-YL]AMINO}PHENYL)SULFONYL]ETHYL}AMINO)PROPAN-1-OL

$$$$
