1406
 OpenBabel10282417113D

 52 56  0  0  1  0  0  0  0  0999 V2000
   -0.3992    0.9998   -0.3020 O   0  0  0  0  0  0  0  0  0  0  0  0
   -6.4430   -3.7017   -2.9748 O   0  0  0  0  0  0  0  0  0  0  0  0
   -7.4205   -4.1853   -2.1256 N   0  0  0  0  0  0  0  0  0  0  0  0
   -0.7331   -1.5983    1.3284 C   0  0  2  0  0  0  0  0  0  0  0  0
    0.9388   -1.1362    1.5089 C   0  0  2  0  0  0  0  0  0  0  0  0
   -1.5206   -2.2117   -0.0308 C   0  0  1  0  0  0  0  0  0  0  0  0
   -1.3141   -3.7867   -0.2761 C   0  0  1  0  0  0  0  0  0  0  0  0
   -2.4070   -4.5877   -1.4119 C   0  0  2  0  0  0  0  0  0  0  0  0
    1.0196   -3.0117    1.0432 C   0  0  0  0  0  0  0  0  0  0  0  0
    0.6389    0.6766    0.6040 C   0  0  2  0  0  0  0  0  0  0  0  0
    0.2091   -3.7361   -0.4791 C   0  0  0  0  0  0  0  0  0  0  0  0
   -1.3324   -0.3153    1.8726 C   0  0  0  0  0  0  0  0  0  0  0  0
   -3.0285   -2.0999   -0.0153 C   0  0  0  0  0  0  0  0  0  0  0  0
   -0.1740    0.7155    1.9814 C   0  0  0  0  0  0  0  0  0  0  0  0
   -3.1660   -3.5413   -2.2228 C   0  0  0  0  0  0  0  0  0  0  0  0
    2.8279   -0.7954    1.3374 C   0  0  0  0  0  0  0  0  0  0  0  0
   -3.6055   -2.3140   -1.4229 C   0  0  0  0  0  0  0  0  0  0  0  0
   -3.9032   -5.5127   -0.8154 C   0  0  0  0  0  0  0  0  0  0  0  0
   -1.4682   -5.3153   -2.4784 C   0  0  0  0  0  0  0  0  0  0  0  0
    1.1219   -0.6397    0.0171 C   0  0  0  0  0  0  0  0  0  0  0  0
   -3.9755   -4.0791   -3.1653 C   0  0  0  0  0  0  0  0  0  0  0  0
   -5.3509   -4.9738   -1.4477 C   0  0  0  0  0  0  0  0  0  0  0  0
   -5.2692   -4.2507   -2.6157 C   0  0  0  0  0  0  0  0  0  0  0  0
   -6.7795   -5.0098   -1.2721 C   0  0  0  0  0  0  0  0  0  0  0  0
    1.5362   -1.7688   -0.4864 C   0  0  0  0  0  0  0  0  0  0  0  0
   -0.9079   -2.3828    2.0741 H   0  0  0  0  0  0  0  0  0  0  0  0
   -1.1823   -1.6172   -0.9003 H   0  0  0  0  0  0  0  0  0  0  0  0
   -1.4212   -4.3692    0.6336 H   0  0  0  0  0  0  0  0  0  0  0  0
   -0.6097    1.9316   -0.1111 H   0  0  0  0  0  0  0  0  0  0  0  0
    2.0902   -3.3412    0.9274 H   0  0  0  0  0  0  0  0  0  0  0  0
    0.6675   -3.6958    1.8596 H   0  0  0  0  0  0  0  0  0  0  0  0
    0.3261   -3.1402   -1.4266 H   0  0  0  0  0  0  0  0  0  0  0  0
    0.7200   -4.6588   -0.7803 H   0  0  0  0  0  0  0  0  0  0  0  0
   -1.7823   -0.5412    2.8408 H   0  0  0  0  0  0  0  0  0  0  0  0
   -2.0906    0.0935    1.2134 H   0  0  0  0  0  0  0  0  0  0  0  0
   -3.3649   -1.1183    0.3071 H   0  0  0  0  0  0  0  0  0  0  0  0
   -3.4166   -2.8312    0.7024 H   0  0  0  0  0  0  0  0  0  0  0  0
    0.4777    0.4550    2.8416 H   0  0  0  0  0  0  0  0  0  0  0  0
   -0.5579    1.6971    2.2387 H   0  0  0  0  0  0  0  0  0  0  0  0
    3.3257   -1.0739    0.3430 H   0  0  0  0  0  0  0  0  0  0  0  0
    3.0557   -0.2131    2.2059 H   0  0  0  0  0  0  0  0  0  0  0  0
    3.1175    0.2019    0.8467 H   0  0  0  0  0  0  0  0  0  0  0  0
   -3.3471   -1.4621   -2.0563 H   0  0  0  0  0  0  0  0  0  0  0  0
   -4.6920   -2.2867   -1.2877 H   0  0  0  0  0  0  0  0  0  0  0  0
   -3.9673   -5.4841    0.2784 H   0  0  0  0  0  0  0  0  0  0  0  0
   -3.9002   -6.5767   -1.1225 H   0  0  0  0  0  0  0  0  0  0  0  0
   -1.1984   -6.3429   -2.2304 H   0  0  0  0  0  0  0  0  0  0  0  0
   -1.8006   -5.2937   -3.5280 H   0  0  0  0  0  0  0  0  0  0  0  0
   -0.5294   -4.7597   -2.5971 H   0  0  0  0  0  0  0  0  0  0  0  0
   -3.7199   -5.0607   -3.6023 H   0  0  0  0  0  0  0  0  0  0  0  0
   -7.4514   -5.5427   -0.6122 H   0  0  0  0  0  0  0  0  0  0  0  0
    2.1597   -2.4044   -1.0881 H   0  0  0  0  0  0  0  0  0  0  0  0
  1 29  1  0  0  0  0
  2  3  1  0  0  0  0
  2 23  1  0  0  0  0
  3 24  2  0  0  0  0
  4  5  1  0  0  0  0
  4  6  1  0  0  0  0
  4 12  1  0  0  0  0
  4 26  1  1  0  0  0
  5  9  1  0  0  0  0
  5 10  1  0  0  0  0
  5 16  1  6  0  0  0
  6  7  1  0  0  0  0
  6 13  1  0  0  0  0
  6 27  1  6  0  0  0
  7  8  1  0  0  0  0
  7 11  1  0  0  0  0
  7 28  1  1  0  0  0
  8 15  1  0  0  0  0
  8 18  1  0  0  0  0
  8 19  1  6  0  0  0
  9 11  1  0  0  0  0
  9 30  1  0  0  0  0
  9 31  1  0  0  0  0
 10  1  1  0  0  0  0
 10 14  1  0  0  0  0
 10 20  1  6  0  0  0
 11 32  1  0  0  0  0
 11 33  1  0  0  0  0
 12 14  1  0  0  0  0
 12 34  1  0  0  0  0
 12 35  1  0  0  0  0
 13 17  1  0  0  0  0
 13 36  1  0  0  0  0
 13 37  1  0  0  0  0
 14 38  1  0  0  0  0
 14 39  1  0  0  0  0
 15 17  1  0  0  0  0
 15 21  2  0  0  0  0
 16 40  1  0  0  0  0
 16 41  1  0  0  0  0
 16 42  1  0  0  0  0
 17 43  1  0  0  0  0
 17 44  1  0  0  0  0
 18 22  1  0  0  0  0
 18 45  1  0  0  0  0
 18 46  1  0  0  0  0
 19 47  1  0  0  0  0
 19 48  1  0  0  0  0
 19 49  1  0  0  0  0
 20 25  3  0  0  0  0
 21 23  1  0  0  0  0
 21 50  1  0  0  0  0
 22 23  2  0  0  0  0
 22 24  1  0  0  0  0
 24 51  1  0  0  0  0
 25 52  1  0  0  0  0
M  END
>  <DRUGBANK_ID>
DB01406

>  <COMMON_NAME>
Danazol

>  <CAS_NUMBER>
17230-88-5

>  <UNII>
N29QWW3BUO

>  <SYNONYMS>
Danazol; Danazolum

$$$$
