5DE
 OpenBabel10282417133D

 36 37  0  0  0  0  0  0  0  0999 V2000
    1.1587   -0.0492    0.3644 O   0  0  0  0  0  0  0  0  0  0  0  0
    2.4014   -0.0469    0.3644 C   0  0  0  0  0  0  0  0  0  0  0  0
    2.9966    0.7031   -0.6289 O   0  0  0  0  0  0  0  0  0  0  0  0
    4.3985    0.8049   -0.9731 C   0  0  0  0  0  0  0  0  0  0  0  0
    5.0826    1.4020    0.1992 C   0  0  0  0  0  0  0  0  0  0  0  0
    3.1278   -0.9896    1.2773 C   0  0  0  0  0  0  0  0  0  0  0  0
    2.8035   -2.3837    1.2696 C   0  0  0  0  0  0  0  0  0  0  0  0
    3.5906   -3.1019    2.0767 N   0  0  0  0  0  0  0  0  0  0  0  0
    1.7546   -3.0692    0.4447 C   0  0  0  0  0  0  0  0  0  0  0  0
    4.0640   -0.8828    2.3539 C   0  0  0  0  0  0  0  0  0  0  0  0
    4.8719    0.2655    2.9517 C   0  0  0  0  0  0  0  0  0  0  0  0
    4.3133   -2.2032    2.7884 N   0  0  0  0  0  0  0  0  0  0  0  0
    5.1866   -2.6755    3.8391 C   0  0  0  0  0  0  0  0  0  0  0  0
    6.0273   -3.7860    3.6434 C   0  0  0  0  0  0  0  0  0  0  0  0
    6.9005   -4.2248    4.6688 C   0  0  0  0  0  0  0  0  0  0  0  0
    5.1850   -2.0803    5.1058 C   0  0  0  0  0  0  0  0  0  0  0  0
    6.0367   -2.5471    6.1300 C   0  0  0  0  0  0  0  0  0  0  0  0
    6.9203   -3.6065    5.9203 C   0  0  0  0  0  0  0  0  0  0  0  0
    7.7878   -4.0170    6.9181 N   0  0  0  0  0  0  0  0  0  0  0  0
    4.7756   -0.1888   -1.2250 H   0  0  0  0  0  0  0  0  0  0  0  0
    4.5241    1.4771   -1.8274 H   0  0  0  0  0  0  0  0  0  0  0  0
    4.8308    0.6552    0.8958 H   0  0  0  0  0  0  0  0  0  0  0  0
    6.1680    1.4117    0.2204 H   0  0  0  0  0  0  0  0  0  0  0  0
    4.6269    2.3262    0.5703 H   0  0  0  0  0  0  0  0  0  0  0  0
    2.1820   -3.9064   -0.1141 H   0  0  0  0  0  0  0  0  0  0  0  0
    0.9454   -3.4478    1.0798 H   0  0  0  0  0  0  0  0  0  0  0  0
    1.2929   -2.4068   -0.2951 H   0  0  0  0  0  0  0  0  0  0  0  0
    4.8445    0.3421    4.0343 H   0  0  0  0  0  0  0  0  0  0  0  0
    5.9304    0.1647    2.6485 H   0  0  0  0  0  0  0  0  0  0  0  0
    4.5314    1.2569    2.6307 H   0  0  0  0  0  0  0  0  0  0  0  0
    6.0555   -4.3064    2.6883 H   0  0  0  0  0  0  0  0  0  0  0  0
    7.5715   -5.0613    4.4790 H   0  0  0  0  0  0  0  0  0  0  0  0
    4.4784   -1.2945    5.3533 H   0  0  0  0  0  0  0  0  0  0  0  0
    5.9935   -2.0749    7.1090 H   0  0  0  0  0  0  0  0  0  0  0  0
    7.7776   -3.5807    7.8308 H   0  0  0  0  0  0  0  0  0  0  0  0
    8.4335   -4.7818    6.7730 H   0  0  0  0  0  0  0  0  0  0  0  0
  1  2  2  0  0  0  0
  2  3  1  0  0  0  0
  2  6  1  0  0  0  0
  3  4  1  0  0  0  0
  4  5  1  0  0  0  0
  4 20  1  0  0  0  0
  4 21  1  0  0  0  0
  5 22  1  0  0  0  0
  5 23  1  0  0  0  0
  5 24  1  0  0  0  0
  6  7  1  0  0  0  0
  6 10  2  0  0  0  0
  7  8  2  0  0  0  0
  7  9  1  0  0  0  0
  8 12  1  0  0  0  0
  9 25  1  0  0  0  0
  9 26  1  0  0  0  0
  9 27  1  0  0  0  0
 10 11  1  0  0  0  0
 10 12  1  0  0  0  0
 11 28  1  0  0  0  0
 11 29  1  0  0  0  0
 11 30  1  0  0  0  0
 12 13  1  0  0  0  0
 13 14  2  0  0  0  0
 13 16  1  0  0  0  0
 14 15  1  0  0  0  0
 14 31  1  0  0  0  0
 15 18  2  0  0  0  0
 15 32  1  0  0  0  0
 16 17  2  0  0  0  0
 16 33  1  0  0  0  0
 17 18  1  0  0  0  0
 17 34  1  0  0  0  0
 18 19  1  0  0  0  0
 19 35  1  0  0  0  0
 19 36  1  0  0  0  0
M  END
>  <DRUGBANK_ID>
DB03183

>  <SECONDARY_ACCESSION_NUMBERS>
EXPT00243

>  <COMMON_NAME>
1-(4-Aminophenyl)-3,5-Dimethyl-1h-Pyrazole-4-Carboxylic Acid Ethyl Ester

>  <UNII>
T6MC6N4LS7

$$$$
