PFI
 OpenBabel10282417173D

 53 55  0  0  0  0  0  0  0  0999 V2000
    1.9127   -0.1514   -0.0884 F   0  0  0  0  0  0  0  0  0  0  0  0
    0.6377    0.2110   -0.2979 C   0  0  0  0  0  0  0  0  0  0  0  0
    0.0921    1.4198   -0.0599 C   0  0  0  0  0  0  0  0  0  0  0  0
    0.8472    2.5427    0.0564 O   0  0  0  0  0  0  0  0  0  0  0  0
    2.2950    2.3932   -0.0258 C   0  0  0  0  0  0  0  0  0  0  0  0
    2.8767    1.8010    1.2760 C   0  0  0  0  0  0  0  0  0  0  0  0
    2.8588    1.8005   -1.3508 C   0  0  0  0  0  0  0  0  0  0  0  0
   -1.3118    1.4352    0.0149 C   0  0  0  0  0  0  0  0  0  0  0  0
   -2.0932    0.2403   -0.0404 C   0  0  0  0  0  0  0  0  0  0  0  0
   -1.4927   -0.9604   -0.3359 C   0  0  0  0  0  0  0  0  0  0  0  0
   -0.1506   -0.8322   -0.6336 C   0  0  0  0  0  0  0  0  0  0  0  0
   -2.1458   -2.3229   -0.1777 C   0  0  0  0  0  0  0  0  0  0  0  0
   -1.6984   -3.3297   -1.2290 C   0  0  0  0  0  0  0  0  0  0  0  0
   -0.1793   -3.6922   -1.2116 C   0  0  2  0  0  0  0  0  0  0  0  0
    0.0461   -5.1056   -1.7455 C   0  0  0  0  0  0  0  0  0  0  0  0
    0.6126   -3.6385    0.2348 C   0  0  0  0  0  0  0  0  0  0  0  0
    0.4199   -2.6315    1.4178 C   0  0  0  0  0  0  0  0  0  0  0  0
    2.1360   -3.5947    0.0147 C   0  0  0  0  0  0  0  0  0  0  0  0
    2.7463   -3.2580    1.3681 C   0  0  0  0  0  0  0  0  0  0  0  0
    1.7306   -2.4551    2.1424 C   0  0  0  0  0  0  0  0  0  0  0  0
    0.3055   -2.7319   -2.2343 O   0  0  0  0  0  0  0  0  0  0  0  0
    1.1831   -2.8401   -3.2166 C   0  0  0  0  0  0  0  0  0  0  0  0
    1.6730   -1.8612   -3.7929 O   0  0  0  0  0  0  0  0  0  0  0  0
    1.4727   -4.2011   -3.6059 C   0  0  0  0  0  0  0  0  0  0  0  0
    0.9315   -5.2255   -2.9368 C   0  0  0  0  0  0  0  0  0  0  0  0
    1.1808   -6.5357   -3.2624 O   0  0  0  0  0  0  0  0  0  0  0  0
    2.6512    3.4289   -0.0402 H   0  0  0  0  0  0  0  0  0  0  0  0
    2.5405    0.7937    1.5264 H   0  0  0  0  0  0  0  0  0  0  0  0
    3.9685    1.7667    1.2442 H   0  0  0  0  0  0  0  0  0  0  0  0
    2.5459    2.3919    2.1351 H   0  0  0  0  0  0  0  0  0  0  0  0
    2.4980    2.3718   -2.2088 H   0  0  0  0  0  0  0  0  0  0  0  0
    3.9518    1.7820   -1.3330 H   0  0  0  0  0  0  0  0  0  0  0  0
    2.5773    0.7797   -1.6170 H   0  0  0  0  0  0  0  0  0  0  0  0
   -1.8297    2.3756    0.1405 H   0  0  0  0  0  0  0  0  0  0  0  0
   -3.1639    0.2531    0.1282 H   0  0  0  0  0  0  0  0  0  0  0  0
    0.5550   -1.6115   -0.7735 H   0  0  0  0  0  0  0  0  0  0  0  0
   -1.9722   -2.7953    0.7967 H   0  0  0  0  0  0  0  0  0  0  0  0
   -3.2340   -2.2172   -0.2071 H   0  0  0  0  0  0  0  0  0  0  0  0
   -2.3166   -4.2282   -1.1503 H   0  0  0  0  0  0  0  0  0  0  0  0
   -1.9594   -2.8739   -2.1999 H   0  0  0  0  0  0  0  0  0  0  0  0
    0.5221   -5.7061   -0.9617 H   0  0  0  0  0  0  0  0  0  0  0  0
   -0.9078   -5.6032   -1.9306 H   0  0  0  0  0  0  0  0  0  0  0  0
    0.3491   -4.5838    0.7276 H   0  0  0  0  0  0  0  0  0  0  0  0
    0.2454   -1.6004    1.2172 H   0  0  0  0  0  0  0  0  0  0  0  0
   -0.4307   -2.8484    2.0659 H   0  0  0  0  0  0  0  0  0  0  0  0
    2.5266   -4.5482   -0.3538 H   0  0  0  0  0  0  0  0  0  0  0  0
    2.4200   -2.8327   -0.7203 H   0  0  0  0  0  0  0  0  0  0  0  0
    3.6785   -2.6980    1.2403 H   0  0  0  0  0  0  0  0  0  0  0  0
    2.9552   -4.1718    1.9244 H   0  0  0  0  0  0  0  0  0  0  0  0
    2.0190   -1.3928    2.1359 H   0  0  0  0  0  0  0  0  0  0  0  0
    1.6172   -2.7391    3.1887 H   0  0  0  0  0  0  0  0  0  0  0  0
    2.1241   -4.2976   -4.4605 H   0  0  0  0  0  0  0  0  0  0  0  0
    1.7740   -6.5690   -4.0285 H   0  0  0  0  0  0  0  0  0  0  0  0
  1  2  1  0  0  0  0
  2  3  1  0  0  0  0
  2 11  2  0  0  0  0
  3  4  1  0  0  0  0
  3  8  2  0  0  0  0
  4  5  1  0  0  0  0
  5  6  1  0  0  0  0
  5  7  1  0  0  0  0
  5 27  1  0  0  0  0
  6 28  1  0  0  0  0
  6 29  1  0  0  0  0
  6 30  1  0  0  0  0
  7 31  1  0  0  0  0
  7 32  1  0  0  0  0
  7 33  1  0  0  0  0
  8  9  1  0  0  0  0
  8 34  1  0  0  0  0
  9 10  2  0  0  0  0
  9 35  1  0  0  0  0
 10 11  1  0  0  0  0
 10 12  1  0  0  0  0
 11 36  1  0  0  0  0
 12 13  1  0  0  0  0
 12 37  1  0  0  0  0
 12 38  1  0  0  0  0
 13 39  1  0  0  0  0
 13 40  1  0  0  0  0
 14 13  1  1  0  0  0
 14 15  1  0  0  0  0
 14 16  1  0  0  0  0
 14 21  1  0  0  0  0
 15 25  1  0  0  0  0
 15 41  1  0  0  0  0
 15 42  1  0  0  0  0
 16 17  1  0  0  0  0
 16 18  1  0  0  0  0
 16 43  1  0  0  0  0
 17 20  1  0  0  0  0
 17 44  1  0  0  0  0
 17 45  1  0  0  0  0
 18 19  1  0  0  0  0
 18 46  1  0  0  0  0
 18 47  1  0  0  0  0
 19 20  1  0  0  0  0
 19 48  1  0  0  0  0
 19 49  1  0  0  0  0
 20 50  1  0  0  0  0
 20 51  1  0  0  0  0
 21 22  1  0  0  0  0
 22 23  2  0  0  0  0
 22 24  1  0  0  0  0
 24 25  2  0  0  0  0
 24 52  1  0  0  0  0
 25 26  1  0  0  0  0
 26 53  1  0  0  0  0
M  END
>  <DRUGBANK_ID>
DB08390

>  <COMMON_NAME>
(6S)-6-CYCLOPENTYL-6-[2-(3-FLUORO-4-ISOPROPOXYPHENYL)ETHYL]-4-HYDROXY-5,6-DIHYDRO-2H-PYRAN-2-ONE

$$$$
