
 OpenBabel10282417103D

 30 32  0  0  0  0  0  0  0  0999 V2000
    0.7069    0.7365    0.8246 C   0  0  3  0  0  0  0  0  0  0  0  0
    1.5859    1.3421   -0.2747 C   0  0  0  0  0  0  0  0  0  0  0  0
    2.5863    0.2380   -0.5905 C   0  0  0  0  0  0  0  0  0  0  0  0
    2.0238   -1.1505   -0.3627 N   0  0  3  0  0  0  0  0  0  0  0  0
    0.5157   -1.3954   -0.2834 C   0  0  0  0  0  0  0  0  0  0  0  0
    1.5922   -0.2150    1.8211 C   0  0  0  0  0  0  0  0  0  0  0  0
    2.3904   -1.3516    1.0431 C   0  0  0  0  0  0  0  0  0  0  0  0
   -1.4569   -0.5373    1.1587 C   0  0  0  0  0  0  0  0  0  0  0  0
   -0.3418   -0.1823    0.1461 C   0  0  1  0  0  0  0  0  0  0  0  0
   -0.8906    0.3431   -1.0661 O   0  0  0  0  0  0  0  0  0  0  0  0
   -2.3194    0.3299   -1.1012 C   0  0  3  0  0  0  0  0  0  0  0  0
   -2.9827    0.1643    0.5481 S   0  0  0  0  0  0  0  0  0  0  0  0
   -2.7079    1.6688   -1.6820 C   0  0  0  0  0  0  0  0  0  0  0  0
    0.2091    1.5635    1.3639 H   0  0  0  0  0  0  0  0  0  0  0  0
    2.1016    2.2364    0.0922 H   0  0  0  0  0  0  0  0  0  0  0  0
    1.0652    1.6413   -1.1881 H   0  0  0  0  0  0  0  0  0  0  0  0
    3.1511    0.3649   -1.5019 H   0  0  0  0  0  0  0  0  0  0  0  0
    3.3780    0.4397    0.1611 H   0  0  0  0  0  0  0  0  0  0  0  0
    0.3458   -2.1354    0.5183 H   0  0  0  0  0  0  0  0  0  0  0  0
    0.1318   -1.9199   -1.1550 H   0  0  0  0  0  0  0  0  0  0  0  0
    0.9237   -0.7002    2.5303 H   0  0  0  0  0  0  0  0  0  0  0  0
    2.3097    0.3957    2.3785 H   0  0  0  0  0  0  0  0  0  0  0  0
    2.1355   -2.3842    1.3326 H   0  0  0  0  0  0  0  0  0  0  0  0
    3.4803   -1.3198    1.1432 H   0  0  0  0  0  0  0  0  0  0  0  0
   -1.5982   -1.6110    1.2776 H   0  0  0  0  0  0  0  0  0  0  0  0
   -1.2714   -0.1145    2.1532 H   0  0  0  0  0  0  0  0  0  0  0  0
   -2.6764   -0.4972   -1.7254 H   0  0  0  0  0  0  0  0  0  0  0  0
   -2.3600    1.7322   -2.7184 H   0  0  0  0  0  0  0  0  0  0  0  0
   -3.7877    1.8446   -1.6616 H   0  0  0  0  0  0  0  0  0  0  0  0
   -2.1960    2.4711   -1.1391 H   0  0  0  0  0  0  0  0  0  0  0  0
  1  2  1  0  0  0  0
  1  9  1  0  0  0  0
  1  6  1  0  0  0  0
  1 14  1  0  0  0  0
  2  3  1  0  0  0  0
  2 15  1  0  0  0  0
  2 16  1  0  0  0  0
  3  4  1  0  0  0  0
  3 17  1  0  0  0  0
  3 18  1  0  0  0  0
  4  5  1  0  0  0  0
  4  7  1  0  0  0  0
  5  9  1  0  0  0  0
  5 19  1  0  0  0  0
  5 20  1  0  0  0  0
  6  7  1  0  0  0  0
  6 21  1  0  0  0  0
  6 22  1  0  0  0  0
  7 23  1  0  0  0  0
  7 24  1  0  0  0  0
  8  9  1  0  0  0  0
  8 12  1  0  0  0  0
  8 25  1  0  0  0  0
  8 26  1  0  0  0  0
  9 10  1  6  0  0  0
 10 11  1  0  0  0  0
 11 12  1  0  0  0  0
 11 13  1  0  0  0  0
 11 27  1  0  0  0  0
 13 28  1  0  0  0  0
 13 29  1  0  0  0  0
 13 30  1  0  0  0  0
M  END
>  <DRUGBANK_ID>
DB00185

>  <SECONDARY_ACCESSION_NUMBERS>
APRD00224

>  <COMMON_NAME>
Cevimeline

>  <CAS_NUMBER>
107233-08-9

>  <UNII>
K9V0CDQ56E

>  <SYNONYMS>
2-Methyspiro(1,3-oxathiolane-5,3)quinuclidine; Cevimelina; Cévimèline; Cevimeline; Cevimelinum

$$$$
