
 OpenBabel10282417233D

 74 78  0  0  1  0  0  0  0  0999 V2000
    1.2615    0.2040   -0.0745 C   0  0  0  0  0  0  0  0  0  0  0  0
    0.7859   -0.0232   -1.4694 C   0  0  0  0  0  0  0  0  0  0  0  0
    1.3174   -1.3390   -1.9586 C   0  0  0  0  0  0  0  0  0  0  0  0
   -0.6719    0.0815   -1.4785 C   0  0  1  0  0  0  0  0  0  0  0  0
   -1.3054   -0.0195   -3.1242 C   0  0  0  0  0  0  0  0  0  0  0  0
   -1.8417   -1.3179   -3.8176 C   0  0  0  0  0  0  0  0  0  0  0  0
   -1.8564   -2.7508   -3.2006 C   0  0  0  0  0  0  0  0  0  0  0  0
   -0.5574   -2.7509   -2.0715 C   0  0  0  0  0  0  0  0  0  0  0  0
   -1.0318   -1.4806   -0.5642 C   0  0  2  0  0  0  0  0  0  0  0  0
   -3.2680   -1.7824   -0.2070 C   0  0  0  0  0  0  0  0  0  0  0  0
   -4.2537   -2.9375    0.2995 C   0  0  0  0  0  0  0  0  0  0  0  0
   -3.8112   -3.4550    1.5345 N   0  0  0  0  0  0  0  0  0  0  0  0
   -3.9430   -4.5610    2.3382 C   0  0  0  0  0  0  0  0  0  0  0  0
   -2.4994   -3.9564    1.4095 C   0  0  0  0  0  0  0  0  0  0  0  0
   -1.5351   -4.9256    0.1763 C   0  0  0  0  0  0  0  0  0  0  0  0
   -2.1596   -4.5144   -1.1461 C   0  0  0  0  0  0  0  0  0  0  0  0
   -2.1182   -3.0098   -0.8918 C   0  0  0  0  0  0  0  0  0  0  0  0
   -1.4378   -2.8224    0.2874 N   0  0  0  0  0  0  0  0  0  0  0  0
   -1.8784   -1.3395    1.3351 C   0  0  0  0  0  0  0  0  0  0  0  0
   -2.4665   -1.4133    2.7626 C   0  0  0  0  0  0  0  0  0  0  0  0
   -3.7440   -0.9437    2.8507 C   0  0  0  0  0  0  0  0  0  0  0  0
   -4.1018   -0.0678    1.8473 C   0  0  0  0  0  0  0  0  0  0  0  0
   -3.2378    0.5118    0.8180 C   0  0  0  0  0  0  0  0  0  0  0  0
   -2.2523   -0.2858    0.2425 C   0  0  0  0  0  0  0  0  0  0  0  0
   -2.4157   -1.1926   -1.4711 N   0  0  0  0  0  0  0  0  0  0  0  0
    0.0921   -1.8820    0.8576 O   0  0  0  0  0  0  0  0  0  0  0  0
   -0.1001   -3.0077    1.7876 C   0  0  0  0  0  0  0  0  0  0  0  0
   -0.4160   -4.1875    1.7720 O   0  0  0  0  0  0  0  0  0  0  0  0
    0.1335   -2.8458    3.1337 C   0  0  0  0  0  0  0  0  0  0  0  0
    1.4656   -2.4272    3.2957 C   0  0  0  0  0  0  0  0  0  0  0  0
    1.1898   -3.9672    3.2402 C   0  0  0  0  0  0  0  0  0  0  0  0
   -2.5041   -1.2383   -4.9907 C   0  0  0  0  0  0  0  0  0  0  0  0
   -2.4785    0.0064   -5.5634 C   0  0  0  0  0  0  0  0  0  0  0  0
   -2.8965    0.0947   -6.8239 F   0  0  0  0  0  0  0  0  0  0  0  0
   -1.9951    1.1793   -4.9216 C   0  0  0  0  0  0  0  0  0  0  0  0
   -1.4956    1.2012   -3.6483 C   0  0  0  0  0  0  0  0  0  0  0  0
    1.2639   -0.5855    0.6398 H   0  0  0  0  0  0  0  0  0  0  0  0
    0.6916    0.9918    0.4139 H   0  0  0  0  0  0  0  0  0  0  0  0
    2.3280    0.1832   -0.0965 H   0  0  0  0  0  0  0  0  0  0  0  0
    1.0777    0.7161   -2.1794 H   0  0  0  0  0  0  0  0  0  0  0  0
    1.1501   -2.1483   -1.2117 H   0  0  0  0  0  0  0  0  0  0  0  0
    0.9216   -1.4688   -2.9880 H   0  0  0  0  0  0  0  0  0  0  0  0
    2.3653   -1.4844   -2.0490 H   0  0  0  0  0  0  0  0  0  0  0  0
   -1.2376    0.9373   -0.9830 H   0  0  0  0  0  0  0  0  0  0  0  0
   -1.7042   -3.6066   -3.8416 H   0  0  0  0  0  0  0  0  0  0  0  0
   -2.9294   -2.9531   -2.8231 H   0  0  0  0  0  0  0  0  0  0  0  0
    0.2525   -2.9151   -2.7518 H   0  0  0  0  0  0  0  0  0  0  0  0
   -0.2493   -3.6890   -1.5599 H   0  0  0  0  0  0  0  0  0  0  0  0
   -4.0231   -0.8629   -0.3911 H   0  0  0  0  0  0  0  0  0  0  0  0
   -3.9771   -1.7591   -1.4112 H   0  0  0  0  0  0  0  0  0  0  0  0
   -5.2502   -2.5511    0.3370 H   0  0  0  0  0  0  0  0  0  0  0  0
   -4.2169   -3.6977   -0.4241 H   0  0  0  0  0  0  0  0  0  0  0  0
   -3.5898   -5.4022    1.7105 H   0  0  0  0  0  0  0  0  0  0  0  0
   -3.2416   -4.4395    3.2265 H   0  0  0  0  0  0  0  0  0  0  0  0
   -4.9213   -4.3211    2.5764 H   0  0  0  0  0  0  0  0  0  0  0  0
   -2.6283   -2.9845    1.1673 H   0  0  0  0  0  0  0  0  0  0  0  0
   -2.0272   -3.6287    2.3256 H   0  0  0  0  0  0  0  0  0  0  0  0
   -0.3295   -4.6554    0.0448 H   0  0  0  0  0  0  0  0  0  0  0  0
   -1.4292   -5.9048    0.6036 H   0  0  0  0  0  0  0  0  0  0  0  0
   -1.6050   -5.0442   -1.9162 H   0  0  0  0  0  0  0  0  0  0  0  0
   -3.1869   -4.7133   -1.2592 H   0  0  0  0  0  0  0  0  0  0  0  0
   -2.4570   -2.2845    3.4865 H   0  0  0  0  0  0  0  0  0  0  0  0
   -4.4440   -1.4237    3.5539 H   0  0  0  0  0  0  0  0  0  0  0  0
   -5.1555    0.1291    1.7434 H   0  0  0  0  0  0  0  0  0  0  0  0
   -3.6427    1.0475   -0.0021 H   0  0  0  0  0  0  0  0  0  0  0  0
   -1.6291   -1.2635   -2.0393 H   0  0  0  0  0  0  0  0  0  0  0  0
   -0.7294   -2.7898    3.7921 H   0  0  0  0  0  0  0  0  0  0  0  0
    1.7136   -1.8658    2.3755 H   0  0  0  0  0  0  0  0  0  0  0  0
    1.3830   -1.8048    4.1475 H   0  0  0  0  0  0  0  0  0  0  0  0
    0.7810   -4.7595    3.8631 H   0  0  0  0  0  0  0  0  0  0  0  0
    1.2833   -4.5690    2.2474 H   0  0  0  0  0  0  0  0  0  0  0  0
   -2.9146   -2.1298   -5.4458 H   0  0  0  0  0  0  0  0  0  0  0  0
   -1.9733    2.1155   -5.4456 H   0  0  0  0  0  0  0  0  0  0  0  0
   -1.1546    2.0457   -3.0757 H   0  0  0  0  0  0  0  0  0  0  0  0
  1  2  1  0  0  0  0
  1 37  1  0  0  0  0
  1 38  1  0  0  0  0
  1 39  1  0  0  0  0
  2  3  1  0  0  0  0
  2 40  1  0  0  0  0
  3 41  1  0  0  0  0
  3 42  1  0  0  0  0
  3 43  1  0  0  0  0
  4  2  1  0  0  0  0
  4  5  1  0  0  0  0
  4  9  1  0  0  0  0
  4 44  1  1  0  0  0
  5  6  2  0  0  0  0
  5 36  1  0  0  0  0
  6  7  1  0  0  0  0
  6 32  1  0  0  0  0
  7  8  1  0  0  0  0
  7 45  1  0  0  0  0
  7 46  1  0  0  0  0
  8 47  1  0  0  0  0
  8 48  1  0  0  0  0
  9  8  1  0  0  0  0
  9 10  1  0  0  0  0
  9 26  1  1  0  0  0
 10 11  1  0  0  0  0
 10 49  1  0  0  0  0
 10 50  1  0  0  0  0
 11 12  1  0  0  0  0
 11 51  1  0  0  0  0
 11 52  1  0  0  0  0
 12 13  1  0  0  0  0
 12 14  1  0  0  0  0
 13 53  1  0  0  0  0
 13 54  1  0  0  0  0
 13 55  1  0  0  0  0
 14 15  1  0  0  0  0
 14 56  1  0  0  0  0
 14 57  1  0  0  0  0
 15 16  1  0  0  0  0
 15 58  1  0  0  0  0
 15 59  1  0  0  0  0
 16 17  1  0  0  0  0
 16 60  1  0  0  0  0
 16 61  1  0  0  0  0
 17 18  2  0  0  0  0
 17 25  1  0  0  0  0
 18 19  1  0  0  0  0
 19 20  2  0  0  0  0
 19 24  1  0  0  0  0
 20 21  1  0  0  0  0
 20 62  1  0  0  0  0
 21 22  2  0  0  0  0
 21 63  1  0  0  0  0
 22 23  1  0  0  0  0
 22 64  1  0  0  0  0
 23 24  2  0  0  0  0
 23 65  1  0  0  0  0
 24 25  1  0  0  0  0
 25 66  1  0  0  0  0
 26 27  1  0  0  0  0
 27 28  2  0  0  0  0
 27 29  1  0  0  0  0
 29 30  1  0  0  0  0
 29 31  1  0  0  0  0
 29 67  1  0  0  0  0
 30 31  1  0  0  0  0
 30 68  1  0  0  0  0
 30 69  1  0  0  0  0
 31 70  1  0  0  0  0
 31 71  1  0  0  0  0
 32 33  2  0  0  0  0
 32 72  1  0  0  0  0
 33 34  1  0  0  0  0
 33 35  1  0  0  0  0
 35 36  2  0  0  0  0
 35 73  1  0  0  0  0
 36 74  1  0  0  0  0
M  END
>  <DRUGBANK_ID>
DB17037

>  <COMMON_NAME>
NNC-55-0396 free base

>  <CAS_NUMBER>
357400-14-7

>  <UNII>
MET7ZRB8Y7

>  <SYNONYMS>
Cyclopropanecarboxylic acid, (1s,2s)-2-(2-((3-(1h-benzimidazol-2-yl)propyl)methylamino)ethyl)-6-fluoro-1,2,3,4-tetrahydro-1-(1-methylethyl)-2-naphthalenyl ester

$$$$
