1438
 OpenBabel10282417113D

 27 28  0  0  0  0  0  0  0  0999 V2000
    1.2430    0.6887    0.0169 N   0  0  0  0  0  0  0  0  0  0  0  0
    0.0136   -2.8956    0.0787 N   0  0  0  0  0  0  0  0  0  0  0  0
    1.0845   -3.4358    0.4402 N   0  0  0  0  0  0  0  0  0  0  0  0
    2.5176   -1.2719    0.0632 N   0  0  0  0  0  0  0  0  0  0  0  0
    0.0509    2.7180    0.0494 N   0  0  0  0  0  0  0  0  0  0  0  0
    0.0811   -1.4660    0.0264 C   0  0  0  0  0  0  0  0  0  0  0  0
    1.2464   -0.6747    0.0712 C   0  0  0  0  0  0  0  0  0  0  0  0
   -1.1317   -0.7642   -0.0211 C   0  0  0  0  0  0  0  0  0  0  0  0
   -1.1416    0.6332    0.0499 C   0  0  0  0  0  0  0  0  0  0  0  0
    0.0505    1.3217   -0.0001 C   0  0  0  0  0  0  0  0  0  0  0  0
    1.0027   -4.8354    0.5963 C   0  0  0  0  0  0  0  0  0  0  0  0
    0.3297   -5.6801   -0.2942 C   0  0  0  0  0  0  0  0  0  0  0  0
    1.6716   -5.4192    1.6824 C   0  0  0  0  0  0  0  0  0  0  0  0
    0.3010   -7.0640   -0.0845 C   0  0  0  0  0  0  0  0  0  0  0  0
    1.5335   -6.7812    1.9649 C   0  0  0  0  0  0  0  0  0  0  0  0
    0.8658   -7.6086    1.0675 C   0  0  0  0  0  0  0  0  0  0  0  0
    3.2429   -0.6311    0.3430 H   0  0  0  0  0  0  0  0  0  0  0  0
    2.5067   -2.1742    0.5353 H   0  0  0  0  0  0  0  0  0  0  0  0
   -0.7569    3.1785   -0.3505 H   0  0  0  0  0  0  0  0  0  0  0  0
    0.9430    3.0889   -0.2547 H   0  0  0  0  0  0  0  0  0  0  0  0
   -2.0707   -1.2986   -0.1004 H   0  0  0  0  0  0  0  0  0  0  0  0
   -2.0866    1.1682    0.1199 H   0  0  0  0  0  0  0  0  0  0  0  0
   -0.1697   -5.2613   -1.1631 H   0  0  0  0  0  0  0  0  0  0  0  0
    2.2976   -4.8066    2.3265 H   0  0  0  0  0  0  0  0  0  0  0  0
   -0.1768   -7.7141   -0.8127 H   0  0  0  0  0  0  0  0  0  0  0  0
    1.9459   -7.1920    2.8834 H   0  0  0  0  0  0  0  0  0  0  0  0
    0.7939   -8.6763    1.2608 H   0  0  0  0  0  0  0  0  0  0  0  0
  1  7  1  0  0  0  0
  1 10  2  0  0  0  0
  2  3  2  0  0  0  0
  2  6  1  0  0  0  0
  3 11  1  0  0  0  0
  4  7  1  0  0  0  0
  4 17  1  0  0  0  0
  4 18  1  0  0  0  0
  5 10  1  0  0  0  0
  5 19  1  0  0  0  0
  5 20  1  0  0  0  0
  6  7  2  0  0  0  0
  6  8  1  0  0  0  0
  8  9  2  0  0  0  0
  8 21  1  0  0  0  0
  9 10  1  0  0  0  0
  9 22  1  0  0  0  0
 11 12  2  0  0  0  0
 11 13  1  0  0  0  0
 12 14  1  0  0  0  0
 12 23  1  0  0  0  0
 13 15  2  0  0  0  0
 13 24  1  0  0  0  0
 14 16  2  0  0  0  0
 14 25  1  0  0  0  0
 15 16  1  0  0  0  0
 15 26  1  0  0  0  0
 16 27  1  0  0  0  0
M  END
>  <DRUGBANK_ID>
DB01438

>  <COMMON_NAME>
Phenazopyridine

>  <CAS_NUMBER>
94-78-0

>  <UNII>
K2J09EMJ52

>  <SYNONYMS>
2,6-Diamino-3-(phenylazo)pyridine; 2,6-Diamino-3-phenylazopyridine; 3-(Phenylazo)-2,6-pyridinediamine; Fenazopiridina; Phenazopyridine; Ph√©nazopyridine; Phenazopyridinum

$$$$
