
 OpenBabel10282417103D

 21 20  0  0  1  0  0  0  0  0999 V2000
    0.9087   -0.0497    0.1005 C   0  0  0  0  0  0  0  0  0  0  0  0
    0.4474    1.3944   -0.1469 C   0  0  0  0  0  0  0  0  0  0  0  0
    0.8636    1.9888   -1.5024 C   0  0  0  0  0  0  0  0  0  0  0  0
    0.3197    1.2526   -2.7339 C   0  0  1  0  0  0  0  0  0  0  0  0
   -1.2251    1.1956   -2.7822 C   0  0  0  0  0  0  0  0  0  0  0  0
   -1.9327    1.6196   -3.6762 O   0  0  0  0  0  0  0  0  0  0  0  0
    0.3635   -1.0757   -0.7793 N   0  0  0  0  0  0  0  0  0  0  0  0
    0.8644    1.8462   -3.9752 N   0  0  0  0  0  0  0  0  0  0  0  0
   -1.7808    0.5687   -1.7204 O   0  0  0  0  0  0  0  0  0  0  0  0
    0.6085   -0.3331    1.1125 H   0  0  0  0  0  0  0  0  0  0  0  0
    2.0015   -0.0894    0.0587 H   0  0  0  0  0  0  0  0  0  0  0  0
   -0.6339    1.4837   -0.0006 H   0  0  0  0  0  0  0  0  0  0  0  0
    0.8684    2.0247    0.6479 H   0  0  0  0  0  0  0  0  0  0  0  0
    0.5418    3.0392   -1.5314 H   0  0  0  0  0  0  0  0  0  0  0  0
    1.9622    2.0071   -1.5364 H   0  0  0  0  0  0  0  0  0  0  0  0
    0.7007    0.2406   -2.7920 H   0  0  0  0  0  0  0  0  0  0  0  0
   -0.5980   -0.8349   -1.0380 H   0  0  0  0  0  0  0  0  0  0  0  0
    0.9011   -1.1344   -1.6410 H   0  0  0  0  0  0  0  0  0  0  0  0
    0.5315    1.2706   -4.7529 H   0  0  0  0  0  0  0  0  0  0  0  0
    0.4385    2.7598   -4.1239 H   0  0  0  0  0  0  0  0  0  0  0  0
   -2.7502    0.6965   -1.7897 H   0  0  0  0  0  0  0  0  0  0  0  0
  1 10  1  0  0  0  0
  1 11  1  0  0  0  0
  2  1  1  0  0  0  0
  2 12  1  0  0  0  0
  2 13  1  0  0  0  0
  3  2  1  0  0  0  0
  3 14  1  0  0  0  0
  3 15  1  0  0  0  0
  4  3  1  0  0  0  0
  4  8  1  0  0  0  0
  4 16  1  1  0  0  0
  5  4  1  0  0  0  0
  6  5  2  0  0  0  0
  7  1  1  0  0  0  0
  7 17  1  0  0  0  0
  7 18  1  0  0  0  0
  8 19  1  0  0  0  0
  8 20  1  0  0  0  0
  9  5  1  0  0  0  0
  9 21  1  0  0  0  0
M  END
>  <DRUGBANK_ID>
DB00129

>  <SECONDARY_ACCESSION_NUMBERS>
NUTR00043

>  <COMMON_NAME>
Ornithine

>  <CAS_NUMBER>
70-26-8

>  <UNII>
E524N2IXA3

>  <SYNONYMS>
(S)-2,5-Diaminopentanoate; (S)-2,5-Diaminopentanoic acid; (S)-2,5-diaminovaleric acid; (S)-ornithine; (S)-α,δ-diaminovaleric acid; L-Ornithine; levo-ornithine; Ornithine; Ornithinum; Ornitina

$$$$
