273
 OpenBabel10282417103D

 43 45  0  0  1  0  0  0  0  0999 V2000
    1.2686   -0.7104   -0.2966 S   0  0  0  0  0  0  0  0  0  0  0  0
    0.6833    1.3117    1.3609 O   0  0  0  0  0  0  0  0  0  0  0  0
    0.4782    4.3186   -0.3530 O   0  0  0  0  0  0  0  0  0  0  0  0
   -0.8814    2.7466    0.9286 O   0  0  0  0  0  0  0  0  0  0  0  0
   -0.0265    3.3346    2.9439 O   0  0  0  0  0  0  0  0  0  0  0  0
    0.7326    5.5026    3.1648 O   0  0  0  0  0  0  0  0  0  0  0  0
    0.3967    0.5109   -0.9947 O   0  0  0  0  0  0  0  0  0  0  0  0
    1.0706   -1.8817   -1.0914 O   0  0  0  0  0  0  0  0  0  0  0  0
    1.1229   -0.8775    1.1441 O   0  0  0  0  0  0  0  0  0  0  0  0
    2.8208   -0.2127   -0.4474 N   0  0  0  0  0  0  0  0  0  0  0  0
    1.2820    2.5747    1.0818 C   0  0  1  0  0  0  0  0  0  0  0  0
    1.2372    3.4538    2.2922 C   0  0  1  0  0  0  0  0  0  0  0  0
    0.3044    2.9707    0.0662 C   0  0  1  0  0  0  0  0  0  0  0  0
    1.2792    4.9161    1.9565 C   0  0  1  0  0  0  0  0  0  0  0  0
    0.4110    5.2640    0.7209 C   0  0  0  0  0  0  0  0  0  0  0  0
   -0.7710    1.3590    1.2035 C   0  0  0  0  0  0  0  0  0  0  0  0
   -0.2121    4.5297    3.6603 C   0  0  0  0  0  0  0  0  0  0  0  0
    0.6904    1.9328   -1.1535 C   0  0  0  0  0  0  0  0  0  0  0  0
   -1.8730    1.2919    0.0732 C   0  0  0  0  0  0  0  0  0  0  0  0
   -1.2643    0.0645    1.9834 C   0  0  0  0  0  0  0  0  0  0  0  0
    0.0612    3.9974    5.0511 C   0  0  0  0  0  0  0  0  0  0  0  0
   -1.6650    5.0034    3.5554 C   0  0  0  0  0  0  0  0  0  0  0  0
    2.3026    2.5449    0.6732 H   0  0  0  0  0  0  0  0  0  0  0  0
    1.9970    3.1239    3.0055 H   0  0  0  0  0  0  0  0  0  0  0  0
    2.3146    5.2334    1.7718 H   0  0  0  0  0  0  0  0  0  0  0  0
    3.3673   -0.7039   -1.1337 H   0  0  0  0  0  0  0  0  0  0  0  0
    3.0510    0.6728   -0.0258 H   0  0  0  0  0  0  0  0  0  0  0  0
   -0.6363    5.4149    0.9848 H   0  0  0  0  0  0  0  0  0  0  0  0
    0.7416    6.2259    0.3114 H   0  0  0  0  0  0  0  0  0  0  0  0
    1.7537    2.0584   -1.4067 H   0  0  0  0  0  0  0  0  0  0  0  0
    0.1873    2.2871   -2.0661 H   0  0  0  0  0  0  0  0  0  0  0  0
   -1.7745    0.5201   -0.6724 H   0  0  0  0  0  0  0  0  0  0  0  0
   -2.8408    1.2343    0.5940 H   0  0  0  0  0  0  0  0  0  0  0  0
   -2.0335    2.2271   -0.5124 H   0  0  0  0  0  0  0  0  0  0  0  0
   -1.2345   -0.7933    1.2636 H   0  0  0  0  0  0  0  0  0  0  0  0
   -0.5976   -0.3194    2.7754 H   0  0  0  0  0  0  0  0  0  0  0  0
   -2.2881    0.0339    2.3552 H   0  0  0  0  0  0  0  0  0  0  0  0
    0.0160    4.7608    5.8185 H   0  0  0  0  0  0  0  0  0  0  0  0
   -0.6721    3.2021    5.2640 H   0  0  0  0  0  0  0  0  0  0  0  0
    1.0372    3.4978    5.0823 H   0  0  0  0  0  0  0  0  0  0  0  0
   -1.9502    5.3311    2.5514 H   0  0  0  0  0  0  0  0  0  0  0  0
   -2.3585    4.1921    3.8079 H   0  0  0  0  0  0  0  0  0  0  0  0
   -1.8518    5.8459    4.2285 H   0  0  0  0  0  0  0  0  0  0  0  0
  1  7  1  0  0  0  0
  1  8  2  0  0  0  0
  1  9  2  0  0  0  0
  1 10  1  0  0  0  0
  2 11  1  0  0  0  0
  2 16  1  0  0  0  0
  3 13  1  0  0  0  0
  3 15  1  0  0  0  0
  4 13  1  0  0  0  0
  4 16  1  0  0  0  0
  5 12  1  0  0  0  0
  5 17  1  0  0  0  0
  6 14  1  0  0  0  0
  6 17  1  0  0  0  0
  7 18  1  0  0  0  0
 10 26  1  0  0  0  0
 10 27  1  0  0  0  0
 11 12  1  0  0  0  0
 11 13  1  0  0  0  0
 11 23  1  1  0  0  0
 12 14  1  0  0  0  0
 12 24  1  1  0  0  0
 13 18  1  1  0  0  0
 14 15  1  0  0  0  0
 14 25  1  6  0  0  0
 15 28  1  0  0  0  0
 15 29  1  0  0  0  0
 16 19  1  0  0  0  0
 16 20  1  0  0  0  0
 17 21  1  0  0  0  0
 17 22  1  0  0  0  0
 18 30  1  0  0  0  0
 18 31  1  0  0  0  0
 19 32  1  0  0  0  0
 19 33  1  0  0  0  0
 19 34  1  0  0  0  0
 20 35  1  0  0  0  0
 20 36  1  0  0  0  0
 20 37  1  0  0  0  0
 21 38  1  0  0  0  0
 21 39  1  0  0  0  0
 21 40  1  0  0  0  0
 22 41  1  0  0  0  0
 22 42  1  0  0  0  0
 22 43  1  0  0  0  0
M  END
>  <DRUGBANK_ID>
DB00273

>  <SECONDARY_ACCESSION_NUMBERS>
APRD00237

>  <COMMON_NAME>
Topiramate

>  <CAS_NUMBER>
97240-79-4

>  <UNII>
0H73WJJ391

>  <SYNONYMS>
2,3:4,5-bis-O-(1-methylethylidene)-β-D-fructopyranose sulfamate; 2,3:4,5-di-O-isopropylidene-β-D-fructopyranose sulfamate; Tipiramate; Tipiramato; Topiramate; Topiramato; Topiramatum; TPM

$$$$
