PY8
 OpenBabel10282417173D

 36 38  0  0  0  0  0  0  0  0999 V2000
    0.9153   -0.0193    0.3837 Br  0  0  0  0  0  0  0  0  0  0  0  0
    2.9239    0.3697    0.1499 C   0  0  0  0  0  0  0  0  0  0  0  0
    3.0679   -0.1412   -1.0585 C   0  0  0  0  0  0  0  0  0  0  0  0
    2.4256    0.7958   -2.2675 N   0  0  0  0  0  0  0  0  0  0  0  0
    2.3009    2.3680   -2.3268 C   0  0  0  0  0  0  0  0  0  0  0  0
    3.2915    2.4179   -1.4146 N   0  0  0  0  0  0  0  0  0  0  0  0
    3.2793    1.6750   -0.1416 C   0  0  0  0  0  0  0  0  0  0  0  0
    2.7541    2.6690    0.7074 N   0  0  0  0  0  0  0  0  0  0  0  0
    3.6029    3.8587    0.3269 C   0  0  0  0  0  0  0  0  0  0  0  0
    3.2552    4.6852   -0.9315 C   0  0  0  0  0  0  0  0  0  0  0  0
    1.7845    4.9311   -0.9232 C   0  0  0  0  0  0  0  0  0  0  0  0
    1.2631    5.6432    0.2173 N   0  0  0  0  0  0  0  0  0  0  0  0
   -0.4397    5.8113    0.2067 S   0  0  0  0  0  0  0  0  0  0  0  0
   -1.0503    4.5065    0.0961 O   0  0  0  0  0  0  0  0  0  0  0  0
   -0.7411    6.7329    1.2726 O   0  0  0  0  0  0  0  0  0  0  0  0
   -0.7478    6.5611   -1.3603 C   0  0  0  0  0  0  0  0  0  0  0  0
   -0.5033    5.4356   -2.4673 C   0  0  0  0  0  0  0  0  0  0  0  0
   -0.7106    7.9601   -1.3696 C   0  0  0  0  0  0  0  0  0  0  0  0
   -0.4656    8.3198   -2.6282 C   0  0  0  0  0  0  0  0  0  0  0  0
    0.2824    7.1043   -3.5260 C   0  0  0  0  0  0  0  0  0  0  0  0
    0.4425    5.4112   -3.4642 C   0  0  0  0  0  0  0  0  0  0  0  0
    1.4141    3.7585   -3.0839 N   0  0  0  0  0  0  0  0  0  0  0  0
    3.1466   -1.3039   -0.8567 H   0  0  0  0  0  0  0  0  0  0  0  0
    1.8263    2.6111    0.2448 H   0  0  0  0  0  0  0  0  0  0  0  0
    3.4727    4.5025    1.1711 H   0  0  0  0  0  0  0  0  0  0  0  0
    4.6605    3.5687    0.2309 H   0  0  0  0  0  0  0  0  0  0  0  0
    3.8230    5.6023   -1.0096 H   0  0  0  0  0  0  0  0  0  0  0  0
    3.5843    4.2759   -1.9205 H   0  0  0  0  0  0  0  0  0  0  0  0
    1.6879    5.5932   -1.7575 H   0  0  0  0  0  0  0  0  0  0  0  0
    1.1915    4.0013   -0.9671 H   0  0  0  0  0  0  0  0  0  0  0  0
    1.4938    5.0886    1.0344 H   0  0  0  0  0  0  0  0  0  0  0  0
   -1.3492    4.7710   -2.5523 H   0  0  0  0  0  0  0  0  0  0  0  0
   -0.7678    8.6473   -0.5166 H   0  0  0  0  0  0  0  0  0  0  0  0
   -0.8407    9.3716   -2.8867 H   0  0  0  0  0  0  0  0  0  0  0  0
   -0.1654    7.6405   -4.5031 H   0  0  0  0  0  0  0  0  0  0  0  0
    0.8910    3.3058   -3.8325 H   0  0  0  0  0  0  0  0  0  0  0  0
  1  2  1  0  0  0  0
  2  3  1  0  0  0  0
  2  7  2  0  0  0  0
  3  4  2  0  0  0  0
  3 23  1  0  0  0  0
  4  5  1  0  0  0  0
  5  6  2  0  0  0  0
  5 22  1  0  0  0  0
  6  7  1  0  0  0  0
  7  8  1  0  0  0  0
  8  9  1  0  0  0  0
  8 24  1  0  0  0  0
  9 10  1  0  0  0  0
  9 25  1  0  0  0  0
  9 26  1  0  0  0  0
 10 11  1  0  0  0  0
 10 27  1  0  0  0  0
 10 28  1  0  0  0  0
 11 12  1  0  0  0  0
 11 29  1  0  0  0  0
 11 30  1  0  0  0  0
 12 13  1  0  0  0  0
 12 31  1  0  0  0  0
 13 14  2  0  0  0  0
 13 15  2  0  0  0  0
 13 16  1  0  0  0  0
 16 17  1  0  0  0  0
 16 18  2  0  0  0  0
 17 21  2  0  0  0  0
 17 32  1  0  0  0  0
 18 19  1  0  0  0  0
 18 33  1  0  0  0  0
 19 20  2  0  0  0  0
 19 34  1  0  0  0  0
 20 21  1  0  0  0  0
 20 35  1  0  0  0  0
 21 22  1  0  0  0  0
 22 36  1  0  0  0  0
M  END
>  <DRUGBANK_ID>
DB08441

>  <COMMON_NAME>
6-BROMO-13-THIA-2,4,8,12,19-PENTAAZATRICYCLO[12.3.1.1~3,7~]NONADECA-1(18),3(19),4,6,14,16-HEXAENE 13,13-DIOXIDE

$$$$
