
 OpenBabel10282417113D

 42 44  0  0  1  0  0  0  0  0999 V2000
   -0.4903    0.8203   -0.6723 C   0  0  2  0  0  0  0  0  0  0  0  0
   -0.5596   -0.6012   -0.3442 N   0  0  0  0  0  0  0  0  0  0  0  0
    0.5223   -1.4194   -0.1318 C   0  0  0  0  0  0  0  0  0  0  0  0
    1.7507   -0.8469   -0.0388 C   0  0  0  0  0  0  0  0  0  0  0  0
    1.9816    0.6575    0.0642 C   0  0  0  0  0  0  0  0  0  0  0  0
    0.5349    1.6329    0.5506 S   0  0  0  0  0  0  0  0  0  0  0  0
   -2.0061    0.8257   -0.4671 C   0  0  1  0  0  0  0  0  0  0  0  0
   -1.8229   -0.5592    0.1460 C   0  0  0  0  0  0  0  0  0  0  0  0
   -2.7241    1.9430    0.1718 N   0  0  0  0  0  0  0  0  0  0  0  0
   -3.7721    2.6513   -0.4026 C   0  0  0  0  0  0  0  0  0  0  0  0
   -4.2800    3.5810    0.2317 O   0  0  0  0  0  0  0  0  0  0  0  0
   -2.5223   -1.3324    0.7633 O   0  0  0  0  0  0  0  0  0  0  0  0
   -4.2802    2.2762   -1.8473 C   0  0  1  0  0  0  0  0  0  0  0  0
    3.0795   -1.5616    0.0104 C   0  0  0  0  0  0  0  0  0  0  0  0
    0.2502   -2.9133   -0.0712 C   0  0  0  0  0  0  0  0  0  0  0  0
   -0.8030   -3.4641   -0.3427 O   0  0  0  0  0  0  0  0  0  0  0  0
    1.3163   -3.6580    0.2733 O   0  0  0  0  0  0  0  0  0  0  0  0
   -3.2000    2.4575   -2.9188 C   0  0  0  0  0  0  0  0  0  0  0  0
   -2.5504    1.3684   -3.5422 C   0  0  0  0  0  0  0  0  0  0  0  0
   -1.4542    1.5467   -4.3805 C   0  0  0  0  0  0  0  0  0  0  0  0
   -1.0662    2.8348   -4.7034 C   0  0  0  0  0  0  0  0  0  0  0  0
   -1.7247    3.9330   -4.1603 C   0  0  0  0  0  0  0  0  0  0  0  0
   -2.7757    3.7500   -3.2565 C   0  0  0  0  0  0  0  0  0  0  0  0
   -4.9122    0.9387   -1.8464 N   0  0  0  0  0  0  0  0  0  0  0  0
   -0.2036    1.0317   -1.7108 H   0  0  0  0  0  0  0  0  0  0  0  0
   -0.0382    3.0663   -5.5658 O   0  0  0  0  0  0  0  0  0  0  0  0
    2.7224    0.8552    0.8430 H   0  0  0  0  0  0  0  0  0  0  0  0
    2.3748    1.0280   -0.8889 H   0  0  0  0  0  0  0  0  0  0  0  0
   -2.4670    0.6287   -1.4096 H   0  0  0  0  0  0  0  0  0  0  0  0
   -2.4748    2.2719    1.1009 H   0  0  0  0  0  0  0  0  0  0  0  0
   -5.0940    2.9725   -2.0903 H   0  0  0  0  0  0  0  0  0  0  0  0
    3.6951   -1.2225   -0.8283 H   0  0  0  0  0  0  0  0  0  0  0  0
    3.5910   -1.3347    0.9503 H   0  0  0  0  0  0  0  0  0  0  0  0
    3.0658   -2.6405   -0.0867 H   0  0  0  0  0  0  0  0  0  0  0  0
    1.0600   -4.6005    0.2137 H   0  0  0  0  0  0  0  0  0  0  0  0
   -2.8376    0.3413   -3.3234 H   0  0  0  0  0  0  0  0  0  0  0  0
   -0.9284    0.6717   -4.7501 H   0  0  0  0  0  0  0  0  0  0  0  0
   -1.4126    4.9361   -4.4362 H   0  0  0  0  0  0  0  0  0  0  0  0
   -3.2568    4.6252   -2.8200 H   0  0  0  0  0  0  0  0  0  0  0  0
   -5.1521    0.6869   -2.8026 H   0  0  0  0  0  0  0  0  0  0  0  0
   -4.2833    0.2201   -1.5042 H   0  0  0  0  0  0  0  0  0  0  0  0
    0.2769    2.2171   -5.9167 H   0  0  0  0  0  0  0  0  0  0  0  0
  1  2  1  0  0  0  0
  1  6  1  0  0  0  0
  1  7  1  0  0  0  0
  1 25  1  6  0  0  0
  2  3  1  0  0  0  0
  2  8  1  0  0  0  0
  3  4  2  0  0  0  0
  3 15  1  0  0  0  0
  4  5  1  0  0  0  0
  4 14  1  0  0  0  0
  5  6  1  0  0  0  0
  5 27  1  0  0  0  0
  5 28  1  0  0  0  0
  7  8  1  0  0  0  0
  7  9  1  0  0  0  0
  7 29  1  6  0  0  0
  8 12  2  0  0  0  0
  9 10  1  0  0  0  0
  9 30  1  0  0  0  0
 10 11  2  0  0  0  0
 10 13  1  0  0  0  0
 13 18  1  0  0  0  0
 13 24  1  0  0  0  0
 13 31  1  6  0  0  0
 14 32  1  0  0  0  0
 14 33  1  0  0  0  0
 14 34  1  0  0  0  0
 15 16  2  0  0  0  0
 15 17  1  0  0  0  0
 17 35  1  0  0  0  0
 18 19  2  0  0  0  0
 18 23  1  0  0  0  0
 19 20  1  0  0  0  0
 19 36  1  0  0  0  0
 20 21  2  0  0  0  0
 20 37  1  0  0  0  0
 21 22  1  0  0  0  0
 21 26  1  0  0  0  0
 22 23  2  0  0  0  0
 22 38  1  0  0  0  0
 23 39  1  0  0  0  0
 24 40  1  0  0  0  0
 24 41  1  0  0  0  0
 26 42  1  0  0  0  0
M  END
>  <DRUGBANK_ID>
DB01140

>  <SECONDARY_ACCESSION_NUMBERS>
APRD00196

>  <COMMON_NAME>
Cefadroxil

>  <CAS_NUMBER>
50370-12-2

>  <UNII>
Q525PA8JJB

>  <SYNONYMS>
CDX; Cefadroxil; Cefadroxil anhydrous; Cefadroxilo; Cefadroxilum; Cephadroxil; D-Cefadroxil

$$$$
