ANH
 OpenBabel10282417123D

 54 55  0  0  0  0  0  0  0  0999 V2000
    1.2592    0.0265   -0.0422 N   0  0  0  0  0  0  0  0  0  0  0  0
    0.3080   -0.9220   -0.7842 C   0  0  1  0  0  0  0  0  0  0  0  0
   -0.6502   -1.7800    0.1410 C   0  0  0  0  0  0  0  0  0  0  0  0
   -0.4471   -0.4276   -2.1045 C   0  0  0  0  0  0  0  0  0  0  0  0
   -0.0999   -0.6684   -3.2498 O   0  0  0  0  0  0  0  0  0  0  0  0
   -1.5152    0.3155   -1.8063 O   0  0  0  0  0  0  0  0  0  0  0  0
   -2.3511    1.1446   -2.6134 C   0  0  0  0  0  0  0  0  0  0  0  0
   -1.7994   -1.0489    0.8606 C   0  0  0  0  0  0  0  0  0  0  0  0
   -2.6035   -1.6064    1.8210 C   0  0  0  0  0  0  0  0  0  0  0  0
   -3.3880   -0.7425    2.6281 C   0  0  0  0  0  0  0  0  0  0  0  0
   -3.3269    0.6692    2.5548 C   0  0  0  0  0  0  0  0  0  0  0  0
   -2.6158    1.2512    1.5553 C   0  0  0  0  0  0  0  0  0  0  0  0
   -2.0643    0.3223    0.6550 C   0  0  0  0  0  0  0  0  0  0  0  0
   -2.1528    2.7555    1.6567 C   0  0  0  0  0  0  0  0  0  0  0  0
   -1.3561    3.3901    0.7136 N   0  0  0  0  0  0  0  0  0  0  0  0
   -2.4011    3.4178    2.7464 N   0  0  0  0  0  0  0  0  0  0  0  0
    0.9126    0.9635    0.8554 C   0  0  0  0  0  0  0  0  0  0  0  0
    1.6921    1.9299    1.5837 C   0  0  0  0  0  0  0  0  0  0  0  0
    1.3661    3.3062    1.1396 N   0  0  0  0  0  0  0  0  0  0  0  0
   -0.2134    1.2530    1.2067 O   0  0  0  0  0  0  0  0  0  0  0  0
    7.6478    3.7144    1.0513 C   0  0  0  0  0  0  0  0  0  0  0  0
    6.1905    3.9616    1.2315 C   0  0  0  0  0  0  0  0  0  0  0  0
    5.3934    2.8697    1.4762 C   0  0  0  0  0  0  0  0  0  0  0  0
    4.1450    3.1190    1.9779 C   0  0  0  0  0  0  0  0  0  0  0  0
    3.5639    4.3893    2.0007 C   0  0  0  0  0  0  0  0  0  0  0  0
    4.3393    5.4838    1.7142 C   0  0  0  0  0  0  0  0  0  0  0  0
    5.6591    5.2632    1.3265 C   0  0  0  0  0  0  0  0  0  0  0  0
    1.8160    4.5742    2.1357 S   0  0  0  0  0  0  0  0  0  0  0  0
    1.3984    5.7709    1.4367 O   0  0  0  0  0  0  0  0  0  0  0  0
    1.4163    4.2981    3.4921 O   0  0  0  0  0  0  0  0  0  0  0  0
    1.0265   -1.6482   -1.2032 H   0  0  0  0  0  0  0  0  0  0  0  0
    2.2492   -0.1789   -0.1170 H   0  0  0  0  0  0  0  0  0  0  0  0
   -1.0791   -2.5955   -0.4610 H   0  0  0  0  0  0  0  0  0  0  0  0
   -0.0015   -2.2863    0.8835 H   0  0  0  0  0  0  0  0  0  0  0  0
   -1.7431    1.8205   -3.2092 H   0  0  0  0  0  0  0  0  0  0  0  0
   -3.0231    0.5085   -3.1815 H   0  0  0  0  0  0  0  0  0  0  0  0
   -2.9628    1.7580   -1.9288 H   0  0  0  0  0  0  0  0  0  0  0  0
   -2.6451   -2.6833    1.9504 H   0  0  0  0  0  0  0  0  0  0  0  0
   -4.0471   -1.1687    3.3697 H   0  0  0  0  0  0  0  0  0  0  0  0
   -3.8202    1.3304    3.2519 H   0  0  0  0  0  0  0  0  0  0  0  0
   -1.4713    0.8180   -0.0720 H   0  0  0  0  0  0  0  0  0  0  0  0
   -0.7338    4.0812    1.1405 H   0  0  0  0  0  0  0  0  0  0  0  0
   -0.7037    2.7056    0.3380 H   0  0  0  0  0  0  0  0  0  0  0  0
   -1.9602    4.3424    2.6917 H   0  0  0  0  0  0  0  0  0  0  0  0
    1.3573    1.8458    2.6421 H   0  0  0  0  0  0  0  0  0  0  0  0
    2.6459    1.5308    1.3430 H   0  0  0  0  0  0  0  0  0  0  0  0
    1.2456    3.5338    0.1535 H   0  0  0  0  0  0  0  0  0  0  0  0
    7.9816    4.1107    0.0953 H   0  0  0  0  0  0  0  0  0  0  0  0
    8.1809    4.1769    1.8868 H   0  0  0  0  0  0  0  0  0  0  0  0
    7.8663    2.6392    1.0873 H   0  0  0  0  0  0  0  0  0  0  0  0
    5.7476    1.8444    1.3999 H   0  0  0  0  0  0  0  0  0  0  0  0
    3.6890    2.2643    2.4376 H   0  0  0  0  0  0  0  0  0  0  0  0
    3.9317    6.4816    1.8424 H   0  0  0  0  0  0  0  0  0  0  0  0
    6.2838    6.1213    1.1109 H   0  0  0  0  0  0  0  0  0  0  0  0
  1 17  1  0  0  0  0
  1 32  1  0  0  0  0
  2  1  1  0  0  0  0
  2  3  1  0  0  0  0
  2  4  1  0  0  0  0
  2 31  1  6  0  0  0
  3  8  1  0  0  0  0
  3 33  1  0  0  0  0
  3 34  1  0  0  0  0
  4  5  2  0  0  0  0
  4  6  1  0  0  0  0
  6  7  1  0  0  0  0
  7 35  1  0  0  0  0
  7 36  1  0  0  0  0
  7 37  1  0  0  0  0
  8  9  2  0  0  0  0
  8 13  1  0  0  0  0
  9 10  1  0  0  0  0
  9 38  1  0  0  0  0
 10 11  2  0  0  0  0
 10 39  1  0  0  0  0
 11 12  1  0  0  0  0
 11 40  1  0  0  0  0
 12 13  2  0  0  0  0
 12 14  1  0  0  0  0
 13 41  1  0  0  0  0
 14 15  1  0  0  0  0
 14 16  2  0  0  0  0
 15 42  1  0  0  0  0
 15 43  1  0  0  0  0
 16 44  1  0  0  0  0
 17 18  1  0  0  0  0
 17 20  2  0  0  0  0
 18 19  1  0  0  0  0
 18 45  1  0  0  0  0
 18 46  1  0  0  0  0
 19 28  1  0  0  0  0
 19 47  1  0  0  0  0
 21 22  1  0  0  0  0
 21 48  1  0  0  0  0
 21 49  1  0  0  0  0
 21 50  1  0  0  0  0
 22 23  1  0  0  0  0
 22 27  2  0  0  0  0
 23 24  2  0  0  0  0
 23 51  1  0  0  0  0
 24 25  1  0  0  0  0
 24 52  1  0  0  0  0
 25 26  2  0  0  0  0
 25 28  1  0  0  0  0
 26 27  1  0  0  0  0
 26 53  1  0  0  0  0
 27 54  1  0  0  0  0
 28 29  2  0  0  0  0
 28 30  2  0  0  0  0
M  END
>  <DRUGBANK_ID>
DB01737

>  <SECONDARY_ACCESSION_NUMBERS>
EXPT00521

>  <COMMON_NAME>
Nalpha-(2-Naphthylsulfonylglycyl)-3-Amidino-D,L-Phenylalanine-Isopropylester

>  <CAS_NUMBER>
133397-81-6

$$$$
