
 OpenBabel10282417233D

 48 49  0  0  0  0  0  0  0  0999 V2000
    0.9125    0.0609    0.3103 C   0  0  0  0  0  0  0  0  0  0  0  0
    0.4614   -1.3312   -0.2255 C   0  0  0  0  0  0  0  0  0  0  0  0
    0.9818   -2.3346    0.8210 C   0  0  0  0  0  0  0  0  0  0  0  0
   -1.0758   -1.3288   -0.2607 C   0  0  0  0  0  0  0  0  0  0  0  0
    0.9552   -1.7316   -1.6396 C   0  0  0  0  0  0  0  0  0  0  0  0
    0.8796   -3.0708   -2.0712 C   0  0  0  0  0  0  0  0  0  0  0  0
    1.2971   -3.4454   -3.3498 C   0  0  0  0  0  0  0  0  0  0  0  0
    1.8174   -2.4686   -4.2108 C   0  0  0  0  0  0  0  0  0  0  0  0
    1.8997   -1.0989   -3.8436 C   0  0  0  0  0  0  0  0  0  0  0  0
    1.4249   -0.7695   -2.5602 C   0  0  0  0  0  0  0  0  0  0  0  0
    1.2515    0.4990   -2.1212 O   0  0  0  0  0  0  0  0  0  0  0  0
    2.4663   -0.0936   -4.8694 C   0  0  0  0  0  0  0  0  0  0  0  0
    3.9104   -0.5005   -5.2271 C   0  0  0  0  0  0  0  0  0  0  0  0
    1.5779   -0.0823   -6.1279 C   0  0  0  0  0  0  0  0  0  0  0  0
    2.5596    1.3768   -4.4178 C   0  0  0  0  0  0  0  0  0  0  0  0
    1.1892   -4.8292   -3.7854 C   0  0  0  0  0  0  0  0  0  0  0  0
   -0.0112   -5.5098   -3.8475 C   0  0  0  0  0  0  0  0  0  0  0  0
    0.2453   -7.0908   -4.4572 S   0  0  0  0  0  0  0  0  0  0  0  0
    1.9370   -6.7706   -4.5441 C   0  0  0  0  0  0  0  0  0  0  0  0
    2.8939   -7.8260   -5.0316 C   0  0  0  0  0  0  0  0  0  0  0  0
    2.8745   -9.0448   -4.2152 N   0  0  0  0  0  0  0  0  0  0  0  0
    2.2985   -5.5525   -4.1874 N   0  0  0  0  0  0  0  0  0  0  0  0
    0.6320    0.2129    1.3563 H   0  0  0  0  0  0  0  0  0  0  0  0
    0.4244    0.8927   -0.2122 H   0  0  0  0  0  0  0  0  0  0  0  0
    2.0016    0.1793    0.2355 H   0  0  0  0  0  0  0  0  0  0  0  0
    0.6584   -2.0479    1.8274 H   0  0  0  0  0  0  0  0  0  0  0  0
    0.6210   -3.3519    0.6525 H   0  0  0  0  0  0  0  0  0  0  0  0
    2.0788   -2.3599    0.8151 H   0  0  0  0  0  0  0  0  0  0  0  0
   -1.4495   -0.6183   -1.0099 H   0  0  0  0  0  0  0  0  0  0  0  0
   -1.4799   -2.3141   -0.5158 H   0  0  0  0  0  0  0  0  0  0  0  0
   -1.4889   -1.0356    0.7096 H   0  0  0  0  0  0  0  0  0  0  0  0
    0.4803   -3.8394   -1.4137 H   0  0  0  0  0  0  0  0  0  0  0  0
    2.1367   -2.7945   -5.2013 H   0  0  0  0  0  0  0  0  0  0  0  0
    1.8169    1.1827   -2.4835 H   0  0  0  0  0  0  0  0  0  0  0  0
    3.9659   -1.4822   -5.7060 H   0  0  0  0  0  0  0  0  0  0  0  0
    4.3605    0.2241   -5.9152 H   0  0  0  0  0  0  0  0  0  0  0  0
    4.5367   -0.5340   -4.3262 H   0  0  0  0  0  0  0  0  0  0  0  0
    0.5452    0.1841   -5.8695 H   0  0  0  0  0  0  0  0  0  0  0  0
    1.9387    0.6585   -6.8509 H   0  0  0  0  0  0  0  0  0  0  0  0
    1.5545   -1.0502   -6.6363 H   0  0  0  0  0  0  0  0  0  0  0  0
    1.5605    1.7826   -4.2095 H   0  0  0  0  0  0  0  0  0  0  0  0
    3.2177    1.4726   -3.5438 H   0  0  0  0  0  0  0  0  0  0  0  0
    2.9880    2.0326   -5.1793 H   0  0  0  0  0  0  0  0  0  0  0  0
   -1.0029   -5.1621   -3.5963 H   0  0  0  0  0  0  0  0  0  0  0  0
    2.6634   -8.0793   -6.0722 H   0  0  0  0  0  0  0  0  0  0  0  0
    3.9100   -7.4148   -5.0167 H   0  0  0  0  0  0  0  0  0  0  0  0
    3.6005   -9.6755   -4.5489 H   0  0  0  0  0  0  0  0  0  0  0  0
    3.1301   -8.7943   -3.2602 H   0  0  0  0  0  0  0  0  0  0  0  0
  1  2  1  0  0  0  0
  1 23  1  0  0  0  0
  1 24  1  0  0  0  0
  1 25  1  0  0  0  0
  2  3  1  0  0  0  0
  2  4  1  0  0  0  0
  2  5  1  0  0  0  0
  3 26  1  0  0  0  0
  3 27  1  0  0  0  0
  3 28  1  0  0  0  0
  4 29  1  0  0  0  0
  4 30  1  0  0  0  0
  4 31  1  0  0  0  0
  5  6  2  0  0  0  0
  5 10  1  0  0  0  0
  6  7  1  0  0  0  0
  6 32  1  0  0  0  0
  7  8  2  0  0  0  0
  7 16  1  0  0  0  0
  8  9  1  0  0  0  0
  8 33  1  0  0  0  0
  9 10  2  0  0  0  0
  9 12  1  0  0  0  0
 10 11  1  0  0  0  0
 11 34  1  0  0  0  0
 12 13  1  0  0  0  0
 12 14  1  0  0  0  0
 12 15  1  0  0  0  0
 13 35  1  0  0  0  0
 13 36  1  0  0  0  0
 13 37  1  0  0  0  0
 14 38  1  0  0  0  0
 14 39  1  0  0  0  0
 14 40  1  0  0  0  0
 15 41  1  0  0  0  0
 15 42  1  0  0  0  0
 15 43  1  0  0  0  0
 16 17  2  0  0  0  0
 16 22  1  0  0  0  0
 17 18  1  0  0  0  0
 17 44  1  0  0  0  0
 18 19  1  0  0  0  0
 19 20  1  0  0  0  0
 19 22  2  0  0  0  0
 20 21  1  0  0  0  0
 20 45  1  0  0  0  0
 20 46  1  0  0  0  0
 21 47  1  0  0  0  0
 21 48  1  0  0  0  0
M  END
>  <DRUGBANK_ID>
DB16950

>  <COMMON_NAME>
BN-82451

>  <CAS_NUMBER>
335242-75-6

>  <UNII>
531B661QBY

>  <SYNONYMS>
4-(2-(aminomethyl)-1,3-thiazol-4-yl)-2,6-di(tert-butyl)phenol; Phenol, 4-(2-(aminomethyl)-4-thiazolyl)-2,6-bis(1,1-dimethylethyl)-

$$$$
