
 OpenBabel10282417143D

 42 45  0  0  0  0  0  0  0  0999 V2000
   -2.1005   -0.1114    0.0861 Cl  0  0  0  0  0  0  0  0  0  0  0  0
   -0.3333    5.0496    0.3603 S   0  0  0  0  0  0  0  0  0  0  0  0
   -4.2875    6.2339    2.0139 O   0  0  0  0  0  0  0  0  0  0  0  0
   -2.5920    2.7464   -1.0167 O   0  0  0  0  0  0  0  0  0  0  0  0
   -1.3553    3.9765   -2.4524 O   0  0  0  0  0  0  0  0  0  0  0  0
   -3.0862    6.1559   -1.2855 N   0  0  0  0  0  0  0  0  0  0  0  0
   -2.7067    4.7258    1.6254 N   0  0  0  0  0  0  0  0  0  0  0  0
   -1.2180    2.8882    1.4084 N   0  0  0  0  0  0  0  0  0  0  0  0
   -2.8059    7.2060   -2.1562 C   0  0  0  0  0  0  0  0  0  0  0  0
   -2.8128    8.3791   -1.4062 C   0  0  0  0  0  0  0  0  0  0  0  0
   -3.1257    6.6140    0.0279 C   0  0  0  0  0  0  0  0  0  0  0  0
   -3.0380    8.0015   -0.0589 C   0  0  0  0  0  0  0  0  0  0  0  0
   -3.4458    4.8316   -1.7595 C   0  0  0  0  0  0  0  0  0  0  0  0
   -2.5681    7.2280   -3.5443 C   0  0  0  0  0  0  0  0  0  0  0  0
   -2.6107    9.6152   -2.0559 C   0  0  0  0  0  0  0  0  0  0  0  0
   -3.3821    5.8776    1.2613 C   0  0  0  0  0  0  0  0  0  0  0  0
   -2.3657    8.4637   -4.1685 C   0  0  0  0  0  0  0  0  0  0  0  0
   -2.3927    9.6451   -3.4372 C   0  0  0  0  0  0  0  0  0  0  0  0
   -2.3456    3.8460   -1.7638 C   0  0  0  0  0  0  0  0  0  0  0  0
   -1.5137    4.1668    1.2255 C   0  0  0  0  0  0  0  0  0  0  0  0
   -0.2365    2.5177    0.4771 C   0  0  0  0  0  0  0  0  0  0  0  0
    0.3291    1.1877    0.2504 C   0  0  0  0  0  0  0  0  0  0  0  0
    0.1948    3.5635   -0.3178 C   0  0  0  0  0  0  0  0  0  0  0  0
   -0.3765   -0.0163    0.1340 C   0  0  0  0  0  0  0  0  0  0  0  0
    1.7363    1.1460    0.1185 C   0  0  0  0  0  0  0  0  0  0  0  0
    0.3288   -1.2276    0.0095 C   0  0  0  0  0  0  0  0  0  0  0  0
    2.4323   -0.0525    0.0202 C   0  0  0  0  0  0  0  0  0  0  0  0
    1.7270   -1.2456   -0.0048 C   0  0  0  0  0  0  0  0  0  0  0  0
   -3.1817    2.8177   -0.2364 H   0  0  0  0  0  0  0  0  0  0  0  0
   -3.1753    4.2221    2.3684 H   0  0  0  0  0  0  0  0  0  0  0  0
   -3.1057    8.6852    0.7795 H   0  0  0  0  0  0  0  0  0  0  0  0
   -4.3288    4.4558   -1.2428 H   0  0  0  0  0  0  0  0  0  0  0  0
   -3.6648    4.8792   -2.8292 H   0  0  0  0  0  0  0  0  0  0  0  0
   -2.5239    6.3171   -4.1339 H   0  0  0  0  0  0  0  0  0  0  0  0
   -2.6188   10.5427   -1.4905 H   0  0  0  0  0  0  0  0  0  0  0  0
   -2.1849    8.4989   -5.2408 H   0  0  0  0  0  0  0  0  0  0  0  0
   -2.2380   10.5973   -3.9395 H   0  0  0  0  0  0  0  0  0  0  0  0
    0.7058    3.4730   -1.2731 H   0  0  0  0  0  0  0  0  0  0  0  0
    2.3119    2.0710    0.1089 H   0  0  0  0  0  0  0  0  0  0  0  0
   -0.2068   -2.1725   -0.0604 H   0  0  0  0  0  0  0  0  0  0  0  0
    3.5186   -0.0395   -0.0114 H   0  0  0  0  0  0  0  0  0  0  0  0
    2.2671   -2.1877   -0.0386 H   0  0  0  0  0  0  0  0  0  0  0  0
  1 24  1  0  0  0  0
  2 20  1  0  0  0  0
  2 23  1  0  0  0  0
  3 16  2  0  0  0  0
  4 19  1  0  0  0  0
  4 29  1  0  0  0  0
  5 19  2  0  0  0  0
  6  9  1  0  0  0  0
  6 11  1  0  0  0  0
  6 13  1  0  0  0  0
  7 16  1  0  0  0  0
  7 20  1  0  0  0  0
  7 30  1  0  0  0  0
  8 20  2  0  0  0  0
  8 21  1  0  0  0  0
  9 10  1  0  0  0  0
  9 14  2  0  0  0  0
 10 12  1  0  0  0  0
 10 15  2  0  0  0  0
 11 12  2  0  0  0  0
 11 16  1  0  0  0  0
 12 31  1  0  0  0  0
 13 19  1  0  0  0  0
 13 32  1  0  0  0  0
 13 33  1  0  0  0  0
 14 17  1  0  0  0  0
 14 34  1  0  0  0  0
 15 18  1  0  0  0  0
 15 35  1  0  0  0  0
 17 18  2  0  0  0  0
 17 36  1  0  0  0  0
 18 37  1  0  0  0  0
 21 22  1  0  0  0  0
 21 23  2  0  0  0  0
 22 24  1  0  0  0  0
 22 25  2  0  0  0  0
 23 38  1  0  0  0  0
 24 26  2  0  0  0  0
 25 27  1  0  0  0  0
 25 39  1  0  0  0  0
 26 28  1  0  0  0  0
 26 40  1  0  0  0  0
 27 28  2  0  0  0  0
 27 41  1  0  0  0  0
 28 42  1  0  0  0  0
M  END
>  <DRUGBANK_ID>
DB04867

>  <COMMON_NAME>
Lintitript

>  <CAS_NUMBER>
136381-85-6

>  <UNII>
3YFV00531K

>  <SYNONYMS>
Lintitript

$$$$
