
 OpenBabel10282417113D

 50 53  0  0  0  0  0  0  0  0999 V2000
    0.9584    0.1073    0.1631 C   0  0  0  0  0  0  0  0  0  0  0  0
    0.7857    1.3100   -3.6132 C   0  0  0  0  0  0  0  0  0  0  0  0
    0.3522   -3.7217   -1.9944 C   0  0  0  0  0  0  0  0  0  0  0  0
   -0.3220   -4.8410   -1.1990 C   0  0  0  0  0  0  0  0  0  0  0  0
   -3.8796   -3.2618   -1.4622 C   0  0  0  0  0  0  0  0  0  0  0  0
   -4.6445   -4.6233   -1.8128 C   0  0  0  0  0  0  0  0  0  0  0  0
   -1.8005   -0.7781   -0.6391 C   0  0  0  0  0  0  0  0  0  0  0  0
    2.3395   -1.0088   -2.3224 C   0  0  0  0  0  0  0  0  0  0  0  0
   -1.0669    0.3594   -1.3443 C   0  0  0  0  0  0  0  0  0  0  0  0
    2.6502    0.5156   -2.0863 C   0  0  0  0  0  0  0  0  0  0  0  0
   -2.3714   -3.2943   -0.7799 C   0  0  2  0  0  0  0  0  0  0  0  0
   -1.4774   -2.1252   -1.3331 C   0  0  2  0  0  0  0  0  0  0  0  0
    0.0911   -2.3783   -1.3332 C   0  0  2  0  0  0  0  0  0  0  0  0
   -1.8032   -4.6767   -0.9672 C   0  0  0  0  0  0  0  0  0  0  0  0
    0.8037   -1.1889   -2.0524 C   0  0  1  0  0  0  0  0  0  0  0  0
   -4.1115   -5.3299   -0.6397 C   0  0  0  0  0  0  0  0  0  0  0  0
   -2.6601   -5.7166   -0.9586 C   0  0  0  0  0  0  0  0  0  0  0  0
    0.4473    0.1250   -1.3242 C   0  0  2  0  0  0  0  0  0  0  0  0
    1.2469    1.1576   -2.1454 C   0  0  2  0  0  0  0  0  0  0  0  0
   -4.6267   -5.2578    0.4467 O   0  0  0  0  0  0  0  0  0  0  0  0
   -2.3542   -6.8237   -1.7336 O   0  0  0  0  0  0  0  0  0  0  0  0
    1.2128    2.4406   -1.5412 O   0  0  0  0  0  0  0  0  0  0  0  0
   -2.4165   -3.1489    0.3158 H   0  0  0  0  0  0  0  0  0  0  0  0
   -1.7648   -2.0088   -2.3865 H   0  0  0  0  0  0  0  0  0  0  0  0
    0.4463   -2.4551   -0.3001 H   0  0  0  0  0  0  0  0  0  0  0  0
    0.3730   -1.2205   -3.0626 H   0  0  0  0  0  0  0  0  0  0  0  0
    0.5992   -0.7472    0.7366 H   0  0  0  0  0  0  0  0  0  0  0  0
    0.6493    1.0090    0.6970 H   0  0  0  0  0  0  0  0  0  0  0  0
    2.0447    0.0376    0.2588 H   0  0  0  0  0  0  0  0  0  0  0  0
   -0.2398    1.6861   -3.6742 H   0  0  0  0  0  0  0  0  0  0  0  0
    1.4122    2.0276   -4.1508 H   0  0  0  0  0  0  0  0  0  0  0  0
    0.8272    0.3780   -4.1864 H   0  0  0  0  0  0  0  0  0  0  0  0
   -0.0186   -3.7114   -3.0253 H   0  0  0  0  0  0  0  0  0  0  0  0
    1.4305   -3.9125   -2.0318 H   0  0  0  0  0  0  0  0  0  0  0  0
   -0.1056   -5.7887   -1.7005 H   0  0  0  0  0  0  0  0  0  0  0  0
    0.1493   -4.8957   -0.2081 H   0  0  0  0  0  0  0  0  0  0  0  0
   -4.4884   -2.7763   -0.6773 H   0  0  0  0  0  0  0  0  0  0  0  0
   -3.8978   -2.5899   -2.3191 H   0  0  0  0  0  0  0  0  0  0  0  0
   -5.7267   -4.5019   -1.9481 H   0  0  0  0  0  0  0  0  0  0  0  0
   -4.4445   -5.4425   -2.5393 H   0  0  0  0  0  0  0  0  0  0  0  0
   -1.5089   -0.8018    0.4183 H   0  0  0  0  0  0  0  0  0  0  0  0
   -2.8729   -0.5621   -0.6504 H   0  0  0  0  0  0  0  0  0  0  0  0
    2.9502   -1.8051   -1.8831 H   0  0  0  0  0  0  0  0  0  0  0  0
    2.5729   -1.0980   -3.3905 H   0  0  0  0  0  0  0  0  0  0  0  0
   -1.3142    1.3201   -0.8801 H   0  0  0  0  0  0  0  0  0  0  0  0
   -1.4375    0.4093   -2.3754 H   0  0  0  0  0  0  0  0  0  0  0  0
    3.2987    0.9592   -2.8493 H   0  0  0  0  0  0  0  0  0  0  0  0
    3.1646    0.7472   -1.1420 H   0  0  0  0  0  0  0  0  0  0  0  0
   -3.1777   -7.1877   -2.1021 H   0  0  0  0  0  0  0  0  0  0  0  0
    0.4874    2.4511   -0.8920 H   0  0  0  0  0  0  0  0  0  0  0  0
  1 27  1  0  0  0  0
  1 28  1  0  0  0  0
  1 29  1  0  0  0  0
  2 30  1  0  0  0  0
  2 31  1  0  0  0  0
  2 32  1  0  0  0  0
  3 33  1  0  0  0  0
  3 34  1  0  0  0  0
  4  3  1  0  0  0  0
  4 35  1  0  0  0  0
  4 36  1  0  0  0  0
  5 37  1  0  0  0  0
  5 38  1  0  0  0  0
  6  5  1  0  0  0  0
  6 39  1  0  0  0  0
  6 40  1  0  0  0  0
  7 41  1  0  0  0  0
  7 42  1  0  0  0  0
  8 43  1  0  0  0  0
  8 44  1  0  0  0  0
  9  7  1  0  0  0  0
  9 45  1  0  0  0  0
  9 46  1  0  0  0  0
 10  8  1  0  0  0  0
 10 47  1  0  0  0  0
 10 48  1  0  0  0  0
 11  5  1  0  0  0  0
 11 23  1  1  0  0  0
 12  7  1  0  0  0  0
 12 11  1  0  0  0  0
 12 24  1  6  0  0  0
 13  3  1  0  0  0  0
 13 12  1  0  0  0  0
 13 25  1  1  0  0  0
 14  4  1  0  0  0  0
 14 11  1  0  0  0  0
 15  8  1  0  0  0  0
 15 13  1  0  0  0  0
 15 26  1  6  0  0  0
 16  6  1  0  0  0  0
 17 14  2  0  0  0  0
 17 16  1  0  0  0  0
 18  1  1  1  0  0  0
 18  9  1  0  0  0  0
 18 15  1  0  0  0  0
 19 10  1  0  0  0  0
 19 18  1  0  0  0  0
 19 22  1  1  0  0  0
 19  2  1  0  0  0  0
 20 16  2  0  0  0  0
 21 17  1  0  0  0  0
 21 49  1  0  0  0  0
 22 50  1  0  0  0  0
M  END
>  <DRUGBANK_ID>
DB01540

>  <COMMON_NAME>
17alpha-methyl-4-hydroxynandrolone

>  <CAS_NUMBER>
2747-16-2

>  <UNII>
AL9HUA7C4C

>  <SYNONYMS>
17Î±-Methyl-4-hydroxynandrolone; 4-Hydroxy-19-normethyltestosterone

$$$$
