2-Hydroxyestradiol.mol
 OpenBabel10282417163D

 45 48  0  0  0  0  0  0  0  0999 V2000
    3.4862   -0.3723    0.2844 C   0  0  0  0  0  0  0  0  0  0  0  0
    4.8299   -0.4394    0.5378 O   0  0  0  0  0  0  0  0  0  0  0  0
    2.8323   -1.5581    0.0133 C   0  0  0  0  0  0  0  0  0  0  0  0
    1.4676   -1.5533   -0.2375 C   0  0  0  0  0  0  0  0  0  0  0  0
    2.7578    0.8270    0.2884 C   0  0  0  0  0  0  0  0  0  0  0  0
    1.3458    0.8381    0.0515 C   0  0  0  0  0  0  0  0  0  0  0  0
    0.5505    2.1342    0.0905 C   0  0  0  0  0  0  0  0  0  0  0  0
   -1.0198    2.0383   -0.2600 C   0  0  0  0  0  0  0  0  0  0  0  0
   -1.7015    0.7518    0.4558 C   0  0  1  0  0  0  0  0  0  0  0  0
   -3.4823    0.5545    1.1161 C   0  0  2  0  0  0  0  0  0  0  0  0
   -4.8951   -0.7651    1.7721 C   0  0  0  0  0  0  0  0  0  0  0  0
   -5.6412   -1.4638    0.5883 C   0  0  0  0  0  0  0  0  0  0  0  0
   -4.9322   -0.4260   -0.1015 C   0  0  2  0  0  0  0  0  0  0  0  0
   -4.9273   -0.3112   -1.4866 O   0  0  0  0  0  0  0  0  0  0  0  0
   -3.4251   -0.7915    0.5756 C   0  0  2  0  0  0  0  0  0  0  0  0
   -2.6994   -0.9004    2.3015 C   0  0  0  0  0  0  0  0  0  0  0  0
   -2.7740   -1.8007   -0.2502 C   0  0  0  0  0  0  0  0  0  0  0  0
   -1.3251   -1.7971    0.0126 C   0  0  0  0  0  0  0  0  0  0  0  0
   -0.8507   -0.4198   -0.3546 C   0  0  2  0  0  0  0  0  0  0  0  0
    0.6822   -0.3731   -0.1721 C   0  0  0  0  0  0  0  0  0  0  0  0
    3.4812   -2.7618   -0.0014 O   0  0  0  0  0  0  0  0  0  0  0  0
   -1.0109   -0.2885   -1.4428 H   0  0  0  0  0  0  0  0  0  0  0  0
   -1.1959    0.8732    1.4129 H   0  0  0  0  0  0  0  0  0  0  0  0
   -4.0006    1.4293    0.7584 H   0  0  0  0  0  0  0  0  0  0  0  0
    5.1664    0.4562    0.7071 H   0  0  0  0  0  0  0  0  0  0  0  0
    1.0365   -2.5228   -0.4591 H   0  0  0  0  0  0  0  0  0  0  0  0
    3.2792    1.7593    0.4917 H   0  0  0  0  0  0  0  0  0  0  0  0
    1.0543    2.8435   -0.5872 H   0  0  0  0  0  0  0  0  0  0  0  0
    0.6540    2.5439    1.1020 H   0  0  0  0  0  0  0  0  0  0  0  0
   -1.0462    1.9535   -1.3628 H   0  0  0  0  0  0  0  0  0  0  0  0
   -1.4830    2.9919   -0.0042 H   0  0  0  0  0  0  0  0  0  0  0  0
   -5.5767   -0.6377    2.6174 H   0  0  0  0  0  0  0  0  0  0  0  0
   -4.4853   -1.6996    2.2090 H   0  0  0  0  0  0  0  0  0  0  0  0
   -6.7343   -1.4357    0.5631 H   0  0  0  0  0  0  0  0  0  0  0  0
   -5.3036   -2.4677    0.2835 H   0  0  0  0  0  0  0  0  0  0  0  0
   -5.4885    0.4993    0.2176 H   0  0  0  0  0  0  0  0  0  0  0  0
   -4.3946    0.4982   -1.6162 H   0  0  0  0  0  0  0  0  0  0  0  0
   -1.6609   -0.5829    2.3800 H   0  0  0  0  0  0  0  0  0  0  0  0
   -3.1902   -0.1849    3.0310 H   0  0  0  0  0  0  0  0  0  0  0  0
   -2.7606   -1.8888    2.7502 H   0  0  0  0  0  0  0  0  0  0  0  0
   -3.1620   -2.7929    0.0125 H   0  0  0  0  0  0  0  0  0  0  0  0
   -2.9770   -1.6560   -1.3188 H   0  0  0  0  0  0  0  0  0  0  0  0
   -1.0732   -2.0045    1.0544 H   0  0  0  0  0  0  0  0  0  0  0  0
   -0.8974   -2.6099   -0.5692 H   0  0  0  0  0  0  0  0  0  0  0  0
    4.4130   -2.5695    0.2131 H   0  0  0  0  0  0  0  0  0  0  0  0
  1  2  1  0  0  0  0
  1  3  1  0  0  0  0
  1  5  2  0  0  0  0
  2 25  1  0  0  0  0
  3  4  2  0  0  0  0
  3 21  1  0  0  0  0
  4 20  1  0  0  0  0
  4 26  1  0  0  0  0
  5  6  1  0  0  0  0
  5 27  1  0  0  0  0
  6  7  1  0  0  0  0
  6 20  2  0  0  0  0
  7  8  1  0  0  0  0
  7 28  1  0  0  0  0
  7 29  1  0  0  0  0
  8  9  1  0  0  0  0
  8 30  1  0  0  0  0
  8 31  1  0  0  0  0
  9 10  1  0  0  0  0
  9 19  1  0  0  0  0
  9 23  1  1  0  0  0
 10 11  1  0  0  0  0
 10 15  1  0  0  0  0
 10 24  1  6  0  0  0
 11 12  1  0  0  0  0
 11 32  1  0  0  0  0
 11 33  1  0  0  0  0
 12 13  1  0  0  0  0
 12 34  1  0  0  0  0
 12 35  1  0  0  0  0
 13 15  1  0  0  0  0
 13 36  1  1  0  0  0
 13 14  1  0  0  0  0
 14 37  1  0  0  0  0
 15 16  1  1  0  0  0
 15 17  1  0  0  0  0
 16 38  1  0  0  0  0
 16 39  1  0  0  0  0
 16 40  1  0  0  0  0
 17 18  1  0  0  0  0
 17 41  1  0  0  0  0
 17 42  1  0  0  0  0
 18 19  1  0  0  0  0
 18 43  1  0  0  0  0
 18 44  1  0  0  0  0
 19 20  1  0  0  0  0
 19 22  1  6  0  0  0
 21 45  1  0  0  0  0
M  END
>  <DRUGBANK_ID>
DB07706

>  <COMMON_NAME>
2-Hydroxyestradiol

>  <CAS_NUMBER>
362-05-0

>  <UNII>
AYU2L67YUU

>  <SYNONYMS>
(17β)-estra-1,3,5(10)-triene-2,3,17-triol; 2-hydroxy-17beta-estradiol; 2-hydroxy-17β-estradiol; 2-Hydroxyestradiol-17beta; 2-OH-Estradiol

$$$$
