
 OpenBabel10282417203D

 43 44  0  0  0  0  0  0  0  0999 V2000
    0.4785   -0.2942   -0.0982 C   0  0  0  0  0  0  0  0  0  0  0  0
    0.1129   -0.4616    1.3672 O   0  0  0  0  0  0  0  0  0  0  0  0
    0.4487   -1.0687    2.6601 C   0  0  0  0  0  0  0  0  0  0  0  0
    1.7832   -1.5670    3.1404 C   0  0  0  0  0  0  0  0  0  0  0  0
    2.4932   -1.5464    4.3304 C   0  0  0  0  0  0  0  0  0  0  0  0
    4.0839   -1.6229    4.2514 C   0  0  0  0  0  0  0  0  0  0  0  0
    4.7346   -1.8715    5.3514 O   0  0  0  0  0  0  0  0  0  0  0  0
    4.9222   -1.4293    3.1224 N   0  0  0  0  0  0  0  0  0  0  0  0
    4.8228   -0.8873    1.6904 C   0  0  3  0  0  0  0  0  0  0  0  0
    4.6492    0.6547    1.6399 C   0  0  0  0  0  0  0  0  0  0  0  0
    3.4623    1.0387    2.4294 C   0  0  0  0  0  0  0  0  0  0  0  0
    2.4277    0.3783    1.5985 C   0  0  0  0  0  0  0  0  0  0  0  0
    2.5889   -1.0203    0.8667 N   0  0  0  0  0  0  0  0  0  0  0  0
    3.8603   -1.6625    0.8026 C   0  0  0  0  0  0  0  0  0  0  0  0
    1.6406   -1.2822    5.3308 C   0  0  0  0  0  0  0  0  0  0  0  0
    0.2375   -0.8489    5.0422 C   0  0  0  0  0  0  0  0  0  0  0  0
   -0.5568   -0.4603    6.1111 O   0  0  0  0  0  0  0  0  0  0  0  0
    0.0785   -0.7072    7.3631 C   0  0  0  0  0  0  0  0  0  0  0  0
   -0.3669   -0.7054    3.7049 C   0  0  0  0  0  0  0  0  0  0  0  0
   -1.6344   -0.1655    3.5330 O   0  0  0  0  0  0  0  0  0  0  0  0
   -2.1173    0.0604    2.1820 C   0  0  0  0  0  0  0  0  0  0  0  0
   -0.0322    0.5702   -0.5642 H   0  0  0  0  0  0  0  0  0  0  0  0
    0.2613   -1.2250   -0.6043 H   0  0  0  0  0  0  0  0  0  0  0  0
    1.4932   -0.0134   -0.4631 H   0  0  0  0  0  0  0  0  0  0  0  0
    2.6408   -1.7620    2.5852 H   0  0  0  0  0  0  0  0  0  0  0  0
    5.9017   -1.5573    3.3457 H   0  0  0  0  0  0  0  0  0  0  0  0
    5.7796   -1.0665    1.1963 H   0  0  0  0  0  0  0  0  0  0  0  0
    5.4950    1.2092    2.0178 H   0  0  0  0  0  0  0  0  0  0  0  0
    4.4522    0.9830    0.6026 H   0  0  0  0  0  0  0  0  0  0  0  0
    3.4953    0.7744    3.4935 H   0  0  0  0  0  0  0  0  0  0  0  0
    3.1856    2.1026    2.4240 H   0  0  0  0  0  0  0  0  0  0  0  0
    1.5923    0.6022    2.2723 H   0  0  0  0  0  0  0  0  0  0  0  0
    2.2359    1.0681    0.7906 H   0  0  0  0  0  0  0  0  0  0  0  0
    1.8683   -1.7539    1.0736 H   0  0  0  0  0  0  0  0  0  0  0  0
    4.0455   -1.6441   -0.2708 H   0  0  0  0  0  0  0  0  0  0  0  0
    3.8356   -2.7413    1.0713 H   0  0  0  0  0  0  0  0  0  0  0  0
    2.0714   -1.3728    6.3296 H   0  0  0  0  0  0  0  0  0  0  0  0
    0.3383   -1.7720    7.4500 H   0  0  0  0  0  0  0  0  0  0  0  0
    0.9697   -0.0717    7.4777 H   0  0  0  0  0  0  0  0  0  0  0  0
   -0.6073   -0.4674    8.1679 H   0  0  0  0  0  0  0  0  0  0  0  0
   -1.7144    1.0043    1.7790 H   0  0  0  0  0  0  0  0  0  0  0  0
   -1.9219   -0.7799    1.4996 H   0  0  0  0  0  0  0  0  0  0  0  0
   -3.2061    0.1497    2.1577 H   0  0  0  0  0  0  0  0  0  0  0  0
  1  2  1  0  0  0  0
  1 22  1  0  0  0  0
  1 23  1  0  0  0  0
  1 24  1  0  0  0  0
  2  3  1  0  0  0  0
  3  4  2  0  0  0  0
  3 19  1  0  0  0  0
  4  5  1  0  0  0  0
  4 25  1  0  0  0  0
  5  6  1  0  0  0  0
  5 15  2  0  0  0  0
  6  7  2  0  0  0  0
  6  8  1  0  0  0  0
  8  9  1  0  0  0  0
  8 26  1  0  0  0  0
  9 10  1  0  0  0  0
  9 14  1  0  0  0  0
  9 27  1  0  0  0  0
 10 11  1  0  0  0  0
 10 28  1  0  0  0  0
 10 29  1  0  0  0  0
 11 12  1  0  0  0  0
 11 30  1  0  0  0  0
 11 31  1  0  0  0  0
 12 13  1  0  0  0  0
 12 32  1  0  0  0  0
 12 33  1  0  0  0  0
 13 14  1  0  0  0  0
 13 34  1  0  0  0  0
 14 35  1  0  0  0  0
 14 36  1  0  0  0  0
 15 16  1  0  0  0  0
 15 37  1  0  0  0  0
 16 17  1  0  0  0  0
 16 19  2  0  0  0  0
 17 18  1  0  0  0  0
 18 38  1  0  0  0  0
 18 39  1  0  0  0  0
 18 40  1  0  0  0  0
 19 20  1  0  0  0  0
 20 21  1  0  0  0  0
 21 41  1  0  0  0  0
 21 42  1  0  0  0  0
 21 43  1  0  0  0  0
M  END
>  <DRUGBANK_ID>
DB13419

>  <COMMON_NAME>
Troxipide

>  <CAS_NUMBER>
30751-05-4

>  <UNII>
W6QJX1Q00Z

>  <SYNONYMS>
Troxipide

$$$$
