
 OpenBabel10282417123D

 18 17  0  0  0  0  0  0  0  0999 V2000
    0.9348    0.1466    0.0101 C   0  0  0  0  0  0  0  0  0  0  0  0
    0.8874   -1.0838   -2.2121 C   0  0  0  0  0  0  0  0  0  0  0  0
    0.4742   -2.4434   -1.6513 C   0  0  0  0  0  0  0  0  0  0  0  0
   -0.9241   -2.6497   -1.7534 O   0  0  0  0  0  0  0  0  0  0  0  0
    0.4163    0.1589   -1.4276 C   0  0  0  0  0  0  0  0  0  0  0  0
   -1.0980    0.3676   -1.4534 C   0  0  0  0  0  0  0  0  0  0  0  0
    0.5559   -0.7128    0.5714 H   0  0  0  0  0  0  0  0  0  0  0  0
    0.6250    1.0497    0.5450 H   0  0  0  0  0  0  0  0  0  0  0  0
    2.0292    0.1059    0.0228 H   0  0  0  0  0  0  0  0  0  0  0  0
    0.5287   -0.9998   -3.2459 H   0  0  0  0  0  0  0  0  0  0  0  0
    1.9844   -1.0597   -2.2587 H   0  0  0  0  0  0  0  0  0  0  0  0
    0.9561   -3.2359   -2.2322 H   0  0  0  0  0  0  0  0  0  0  0  0
    0.7856   -2.5756   -0.6110 H   0  0  0  0  0  0  0  0  0  0  0  0
   -1.3313   -2.2804   -0.9507 H   0  0  0  0  0  0  0  0  0  0  0  0
    0.8597    1.0310   -1.9278 H   0  0  0  0  0  0  0  0  0  0  0  0
   -1.3527    1.3620   -1.0716 H   0  0  0  0  0  0  0  0  0  0  0  0
   -1.4897    0.2900   -2.4729 H   0  0  0  0  0  0  0  0  0  0  0  0
   -1.6284   -0.3467   -0.8204 H   0  0  0  0  0  0  0  0  0  0  0  0
  1  5  1  0  0  0  0
  1  7  1  0  0  0  0
  1  8  1  0  0  0  0
  1  9  1  0  0  0  0
  2  5  1  0  0  0  0
  2 10  1  0  0  0  0
  2 11  1  0  0  0  0
  3  2  1  0  0  0  0
  3 12  1  0  0  0  0
  3 13  1  0  0  0  0
  4  3  1  0  0  0  0
  4 14  1  0  0  0  0
  5  6  1  0  0  0  0
  5 15  1  0  0  0  0
  6 16  1  0  0  0  0
  6 17  1  0  0  0  0
  6 18  1  0  0  0  0
M  END
>  <DRUGBANK_ID>
DB02296

>  <SECONDARY_ACCESSION_NUMBERS>
EXPT01910

>  <COMMON_NAME>
Isoamyl alcohol

>  <CAS_NUMBER>
123-51-3

>  <UNII>
DEM9NIT1J4

>  <SYNONYMS>
2-methyl-4-butanol; 3-methyl-1-butanol; 3-Methylbutanol; Isoamylol; Isobutylcarbinol; Isopentanol; Isopentyl alcohol

$$$$
