
 OpenBabel10282417113D

 55 58  0  0  0  0  0  0  0  0999 V2000
    3.7075    0.7035   -0.0068 C   0  0  0  0  0  0  0  0  0  0  0  0
    3.8076   -0.6752   -0.0036 C   0  0  0  0  0  0  0  0  0  0  0  0
   -1.5049    3.4976    0.2024 C   0  0  0  0  0  0  0  0  0  0  0  0
    2.4394    1.3064   -0.0045 C   0  0  0  0  0  0  0  0  0  0  0  0
   -0.3421    2.4278    0.2271 C   0  0  0  0  0  0  0  0  0  0  0  0
    2.6477   -1.4426   -0.0075 C   0  0  0  0  0  0  0  0  0  0  0  0
   -3.9121   -0.9881   -0.0074 C   0  0  0  0  0  0  0  0  0  0  0  0
   -2.6812   -1.6841   -0.0097 C   0  0  0  0  0  0  0  0  0  0  0  0
   -1.4806    4.4737    1.3857 C   0  0  0  0  0  0  0  0  0  0  0  0
   -0.1817    6.6877    1.6442 C   0  0  0  0  0  0  0  0  0  0  0  0
    0.2867    5.1277   -0.0484 C   0  0  0  0  0  0  0  0  0  0  0  0
   -0.2962    7.6996    0.4503 C   0  0  0  0  0  0  0  0  0  0  0  0
   -0.1637    6.0319   -1.1649 C   0  0  0  0  0  0  0  0  0  0  0  0
    1.8269    7.3493   -0.9358 C   0  0  0  0  0  0  0  0  0  0  0  0
    2.7745    6.4639   -0.0676 C   0  0  0  0  0  0  0  0  0  0  0  0
   -2.6603    0.9223   -0.0155 C   0  0  0  0  0  0  0  0  0  0  0  0
   -3.9136    0.3682   -0.0114 C   0  0  0  0  0  0  0  0  0  0  0  0
   -0.1818    1.1321    0.0629 C   0  0  0  0  0  0  0  0  0  0  0  0
    1.2300    0.5403    0.0193 C   0  0  0  0  0  0  0  0  0  0  0  0
   -1.4111    0.3170   -0.0072 C   0  0  0  0  0  0  0  0  0  0  0  0
    1.3710   -0.8541   -0.0002 C   0  0  0  0  0  0  0  0  0  0  0  0
   -1.4263   -1.0412   -0.0116 C   0  0  0  0  0  0  0  0  0  0  0  0
   -5.0540    1.3562   -0.0036 C   0  0  0  0  0  0  0  0  0  0  0  0
   -5.0124    2.1943    1.0783 F   0  0  0  0  0  0  0  0  0  0  0  0
   -5.0195    2.1993   -1.0813 F   0  0  0  0  0  0  0  0  0  0  0  0
   -6.2778    0.7832   -0.0006 F   0  0  0  0  0  0  0  0  0  0  0  0
   -0.3257    5.2954    1.2367 N   0  0  0  0  0  0  0  0  0  0  0  0
    0.3386    7.3364   -0.8504 N   0  0  0  0  0  0  0  0  0  0  0  0
    2.9410    5.1414   -0.6156 O   0  0  0  0  0  0  0  0  0  0  0  0
    0.0301   -2.0340    0.0013 S   0  0  0  0  0  0  0  0  0  0  0  0
    0.6339    2.8945    0.3626 H   0  0  0  0  0  0  0  0  0  0  0  0
    4.6070    1.3187   -0.0036 H   0  0  0  0  0  0  0  0  0  0  0  0
    4.7775   -1.1631    0.0028 H   0  0  0  0  0  0  0  0  0  0  0  0
   -1.4351    3.9114   -0.8168 H   0  0  0  0  0  0  0  0  0  0  0  0
   -2.5741    3.4303    0.0854 H   0  0  0  0  0  0  0  0  0  0  0  0
    2.4690    2.3945   -0.0103 H   0  0  0  0  0  0  0  0  0  0  0  0
    2.7348   -2.5258   -0.0076 H   0  0  0  0  0  0  0  0  0  0  0  0
   -4.8546   -1.5142   -0.0006 H   0  0  0  0  0  0  0  0  0  0  0  0
   -2.6964   -2.7636   -0.0023 H   0  0  0  0  0  0  0  0  0  0  0  0
   -2.4199    5.0349    1.3945 H   0  0  0  0  0  0  0  0  0  0  0  0
   -1.4431    3.8726    2.3065 H   0  0  0  0  0  0  0  0  0  0  0  0
   -0.7746    6.9842    2.5159 H   0  0  0  0  0  0  0  0  0  0  0  0
    0.8451    6.7771    2.0136 H   0  0  0  0  0  0  0  0  0  0  0  0
    1.2495    4.9490    0.3782 H   0  0  0  0  0  0  0  0  0  0  0  0
    0.3396    4.2506   -0.6764 H   0  0  0  0  0  0  0  0  0  0  0  0
   -1.3774    7.7886    0.2554 H   0  0  0  0  0  0  0  0  0  0  0  0
    0.0563    8.6903    0.7320 H   0  0  0  0  0  0  0  0  0  0  0  0
   -1.2640    6.0135   -1.2696 H   0  0  0  0  0  0  0  0  0  0  0  0
    0.1828    5.6392   -2.1329 H   0  0  0  0  0  0  0  0  0  0  0  0
    2.0601    7.0680   -1.9743 H   0  0  0  0  0  0  0  0  0  0  0  0
    2.1274    8.3871   -0.8134 H   0  0  0  0  0  0  0  0  0  0  0  0
    3.7896    6.8454   -0.0532 H   0  0  0  0  0  0  0  0  0  0  0  0
    2.4724    6.4270    0.9843 H   0  0  0  0  0  0  0  0  0  0  0  0
   -2.7920    1.9402   -0.0154 H   0  0  0  0  0  0  0  0  0  0  0  0
    2.1968    4.9759   -1.2213 H   0  0  0  0  0  0  0  0  0  0  0  0
  1 32  1  0  0  0  0
  2  1  2  0  0  0  0
  2 33  1  0  0  0  0
  3 34  1  0  0  0  0
  3 35  1  0  0  0  0
  4  1  1  0  0  0  0
  4 36  1  0  0  0  0
  5  3  1  0  0  0  0
  6  2  1  0  0  0  0
  6 37  1  0  0  0  0
  7 38  1  0  0  0  0
  8  7  2  0  0  0  0
  8 39  1  0  0  0  0
  9  3  1  0  0  0  0
  9 40  1  0  0  0  0
  9 41  1  0  0  0  0
 10 42  1  0  0  0  0
 10 43  1  0  0  0  0
 11 44  1  0  0  0  0
 11 45  1  0  0  0  0
 12 10  1  0  0  0  0
 12 46  1  0  0  0  0
 12 47  1  0  0  0  0
 13 11  1  0  0  0  0
 13 48  1  0  0  0  0
 13 49  1  0  0  0  0
 14 50  1  0  0  0  0
 14 51  1  0  0  0  0
 15 14  1  0  0  0  0
 15 52  1  0  0  0  0
 15 53  1  0  0  0  0
 16 54  1  0  0  0  0
 17  7  1  0  0  0  0
 17 16  2  0  0  0  0
 18  5  2  0  0  0  0
 19  4  2  0  0  0  0
 19 18  1  0  0  0  0
 20 16  1  0  0  0  0
 20 18  1  0  0  0  0
 21  6  2  0  0  0  0
 21 19  1  0  0  0  0
 22  8  1  0  0  0  0
 22 20  2  0  0  0  0
 23 17  1  0  0  0  0
 24 23  1  0  0  0  0
 25 23  1  0  0  0  0
 26 23  1  0  0  0  0
 27  9  1  0  0  0  0
 27 10  1  0  0  0  0
 27 11  1  0  0  0  0
 28 12  1  0  0  0  0
 28 13  1  0  0  0  0
 28 14  1  0  0  0  0
 29 15  1  0  0  0  0
 29 55  1  0  0  0  0
 30 21  1  0  0  0  0
 30 22  1  0  0  0  0
 31  5  1  0  0  0  0
M  END
>  <DRUGBANK_ID>
DB00875

>  <SECONDARY_ACCESSION_NUMBERS>
APRD00388

>  <COMMON_NAME>
Flupentixol

>  <CAS_NUMBER>
2709-56-0

>  <UNII>
FA0UYH6QUO

>  <SYNONYMS>
Flupenthixol; Flupenthixole; Flupentixol; Flupentixolo; Flupentixolum

$$$$
