
 OpenBabel10282417123D

 33 34  0  0  1  0  0  0  0  0999 V2000
    1.2059   -0.2135    0.0070 C   0  0  0  0  0  0  0  0  0  0  0  0
    0.8010    0.5490    1.2601 C   0  0  1  0  0  0  0  0  0  0  0  0
    1.7374    2.0439    1.4145 C   0  0  0  0  0  0  0  0  0  0  0  0
    2.1070    3.1129    0.1696 N   0  0  0  0  0  0  0  0  0  0  0  0
    1.6795    3.0280   -1.2694 C   0  0  0  0  0  0  0  0  0  0  0  0
    1.3437    4.1951   -1.8230 N   0  0  0  0  0  0  0  0  0  0  0  0
    1.3926    5.0510   -0.7752 C   0  0  0  0  0  0  0  0  0  0  0  0
    2.0665    4.5394    0.3621 C   0  0  0  0  0  0  0  0  0  0  0  0
    2.3492    5.2558    1.4677 N   0  0  0  0  0  0  0  0  0  0  0  0
    1.7926    6.5201    1.3929 C   0  0  0  0  0  0  0  0  0  0  0  0
    1.9677    7.3128    2.5052 N   0  0  0  0  0  0  0  0  0  0  0  0
    1.2100    7.1461    0.3315 N   0  0  0  0  0  0  0  0  0  0  0  0
    0.8919    6.3909   -0.7251 C   0  0  0  0  0  0  0  0  0  0  0  0
    0.2007    6.8809   -1.8257 N   0  0  0  0  0  0  0  0  0  0  0  0
   -0.6846    0.5137    1.3765 O   0  0  0  0  0  0  0  0  0  0  0  0
   -1.3837    1.4190    0.3888 C   0  0  0  0  0  0  0  0  0  0  0  0
   -0.7737    3.0924    0.8089 P   0  0  0  0  0  0  0  0  0  0  0  0
    0.1346    2.3422   -0.0631 O   0  5  0  0  0  0  0  0  0  0  0  0
   -2.0643    3.5849    0.0944 O   0  5  0  0  0  0  0  0  0  0  0  0
   -0.2576    4.5083    1.1644 O   0  0  0  0  0  0  0  0  0  0  0  0
    0.8324    0.2789   -0.8875 H   0  0  0  0  0  0  0  0  0  0  0  0
    0.7716   -1.2180   -0.0505 H   0  0  0  0  0  0  0  0  0  0  0  0
    2.2915   -0.2528   -0.0469 H   0  0  0  0  0  0  0  0  0  0  0  0
    1.0694   -0.0926    2.1282 H   0  0  0  0  0  0  0  0  0  0  0  0
    1.2225    2.6423    2.1991 H   0  0  0  0  0  0  0  0  0  0  0  0
    2.7275    1.7901    1.8049 H   0  0  0  0  0  0  0  0  0  0  0  0
    1.1429    2.1535   -1.6608 H   0  0  0  0  0  0  0  0  0  0  0  0
    2.5326    6.8431    3.1847 H   0  0  0  0  0  0  0  0  0  0  0  0
    2.1084    8.2740    2.2172 H   0  0  0  0  0  0  0  0  0  0  0  0
   -0.2731    6.1659   -2.3483 H   0  0  0  0  0  0  0  0  0  0  0  0
   -0.0100    7.8781   -1.9119 H   0  0  0  0  0  0  0  0  0  0  0  0
   -1.3268    0.9727   -0.6205 H   0  0  0  0  0  0  0  0  0  0  0  0
   -2.4466    1.3569    0.6598 H   0  0  0  0  0  0  0  0  0  0  0  0
  1 21  1  0  0  0  0
  1 22  1  0  0  0  0
  1 23  1  0  0  0  0
  2  1  1  0  0  0  0
  2  3  1  0  0  0  0
  2 15  1  0  0  0  0
  2 24  1  1  0  0  0
  3  4  1  0  0  0  0
  3 25  1  0  0  0  0
  3 26  1  0  0  0  0
  4  5  1  0  0  0  0
  4  8  1  0  0  0  0
  5  6  2  0  0  0  0
  5 27  1  0  0  0  0
  6  7  1  0  0  0  0
  7  8  2  0  0  0  0
  7 13  1  0  0  0  0
  8  9  1  0  0  0  0
  9 10  2  0  0  0  0
 10 11  1  0  0  0  0
 10 12  1  0  0  0  0
 11 28  1  0  0  0  0
 11 29  1  0  0  0  0
 12 13  2  0  0  0  0
 13 14  1  0  0  0  0
 14 30  1  0  0  0  0
 14 31  1  0  0  0  0
 15 16  1  0  0  0  0
 16 17  1  0  0  0  0
 16 32  1  0  0  0  0
 16 33  1  0  0  0  0
 17 18  1  0  0  0  0
 17 19  1  0  0  0  0
 17 20  2  0  0  0  0
M  CHG  2  18  -1  19  -1
M  END
>  <DRUGBANK_ID>
DB02222

>  <SECONDARY_ACCESSION_NUMBERS>
EXPT00361

>  <COMMON_NAME>
2,6-Diamino-(S)-9-[2-(Phosphonomethoxy)Propyl]Purine

$$$$
