
 OpenBabel10282417133D

 47 50  0  0  1  0  0  0  0  0999 V2000
    1.1510   -2.1424    1.0164 C   0  0  0  0  0  0  0  0  0  0  0  0
    0.4954   -1.4480   -0.1920 C   0  0  2  0  0  0  0  0  0  0  0  0
    1.1310   -0.1181   -0.3203 N   0  0  0  0  0  0  0  0  0  0  0  0
    2.4732   -0.2779   -0.6994 C   0  0  0  0  0  0  0  0  0  0  0  0
    2.6626   -0.9869   -1.8209 N   0  0  0  0  0  0  0  0  0  0  0  0
    3.8929   -1.4245   -2.0726 C   0  0  0  0  0  0  0  0  0  0  0  0
    4.9718   -1.1754   -1.3276 N   0  0  0  0  0  0  0  0  0  0  0  0
    4.7942   -0.4128   -0.2473 C   0  0  0  0  0  0  0  0  0  0  0  0
    3.5248    0.0490    0.1632 C   0  0  0  0  0  0  0  0  0  0  0  0
    3.3908    0.7534    1.3803 C   0  0  0  0  0  0  0  0  0  0  0  0
    4.5208    1.1947    2.0405 C   0  0  0  0  0  0  0  0  0  0  0  0
    4.3931    2.0191    3.0864 F   0  0  0  0  0  0  0  0  0  0  0  0
    5.7744    0.8126    1.5865 C   0  0  0  0  0  0  0  0  0  0  0  0
    6.8754    1.2862    2.1811 F   0  0  0  0  0  0  0  0  0  0  0  0
    5.8975   -0.0486    0.5025 C   0  0  0  0  0  0  0  0  0  0  0  0
   -1.0924   -1.4358   -0.2080 C   0  0  0  0  0  0  0  0  0  0  0  0
   -1.5037   -0.5662   -1.4439 C   0  0  0  0  0  0  0  0  0  0  0  0
   -1.7386   -1.1225   -2.7188 C   0  0  0  0  0  0  0  0  0  0  0  0
   -1.9312   -0.3290   -3.8495 C   0  0  0  0  0  0  0  0  0  0  0  0
   -1.8706    1.0520   -3.7407 C   0  0  0  0  0  0  0  0  0  0  0  0
   -1.6801    1.6366   -2.4908 C   0  0  0  0  0  0  0  0  0  0  0  0
   -1.4961    0.8382   -1.3539 C   0  0  0  0  0  0  0  0  0  0  0  0
   -1.6829   -2.8830   -0.2214 C   0  0  0  0  0  0  0  0  0  0  0  0
   -1.0487   -3.9826    0.3750 C   0  0  0  0  0  0  0  0  0  0  0  0
   -1.2699   -5.2933   -0.0392 C   0  0  0  0  0  0  0  0  0  0  0  0
   -2.3440   -5.5598   -0.8612 C   0  0  0  0  0  0  0  0  0  0  0  0
   -3.1940   -4.5165   -1.2116 C   0  0  0  0  0  0  0  0  0  0  0  0
   -2.8680   -3.1928   -0.8923 C   0  0  0  0  0  0  0  0  0  0  0  0
    0.6030   -1.9432    1.9408 H   0  0  0  0  0  0  0  0  0  0  0  0
    2.1933   -1.8845    1.2011 H   0  0  0  0  0  0  0  0  0  0  0  0
    1.2532   -3.2068    0.8087 H   0  0  0  0  0  0  0  0  0  0  0  0
    0.7499   -2.0336   -1.0853 H   0  0  0  0  0  0  0  0  0  0  0  0
    0.9075    0.6074    0.3432 H   0  0  0  0  0  0  0  0  0  0  0  0
    4.0035   -2.0460   -2.9521 H   0  0  0  0  0  0  0  0  0  0  0  0
    2.4172    0.9927    1.7994 H   0  0  0  0  0  0  0  0  0  0  0  0
    6.8847   -0.4020    0.2125 H   0  0  0  0  0  0  0  0  0  0  0  0
   -1.4702   -0.9408    0.6974 H   0  0  0  0  0  0  0  0  0  0  0  0
   -1.7651   -2.1969   -2.8749 H   0  0  0  0  0  0  0  0  0  0  0  0
   -2.0967   -0.8033   -4.8130 H   0  0  0  0  0  0  0  0  0  0  0  0
   -1.9531    1.6667   -4.6321 H   0  0  0  0  0  0  0  0  0  0  0  0
   -1.6432    2.7192   -2.4062 H   0  0  0  0  0  0  0  0  0  0  0  0
   -1.2675    1.3298   -0.4118 H   0  0  0  0  0  0  0  0  0  0  0  0
   -0.3736   -3.8825    1.2091 H   0  0  0  0  0  0  0  0  0  0  0  0
   -0.6152   -6.0885    0.3097 H   0  0  0  0  0  0  0  0  0  0  0  0
   -2.5508   -6.5790   -1.1683 H   0  0  0  0  0  0  0  0  0  0  0  0
   -4.1000   -4.7204   -1.7715 H   0  0  0  0  0  0  0  0  0  0  0  0
   -3.5182   -2.4017   -1.2577 H   0  0  0  0  0  0  0  0  0  0  0  0
  1 29  1  0  0  0  0
  1 30  1  0  0  0  0
  1 31  1  0  0  0  0
  2 16  1  0  0  0  0
  2 32  1  6  0  0  0
  2  3  1  0  0  0  0
  2  1  1  0  0  0  0
  3  4  1  0  0  0  0
  3 33  1  0  0  0  0
  4  5  2  0  0  0  0
  4  9  1  0  0  0  0
  5  6  1  0  0  0  0
  6  7  2  0  0  0  0
  6 34  1  0  0  0  0
  7  8  1  0  0  0  0
  8  9  2  0  0  0  0
  8 15  1  0  0  0  0
  9 10  1  0  0  0  0
 10 11  2  0  0  0  0
 10 35  1  0  0  0  0
 11 12  1  0  0  0  0
 11 13  1  0  0  0  0
 13 14  1  0  0  0  0
 13 15  2  0  0  0  0
 15 36  1  0  0  0  0
 16 17  1  0  0  0  0
 16 23  1  0  0  0  0
 16 37  1  0  0  0  0
 17 18  2  0  0  0  0
 17 22  1  0  0  0  0
 18 19  1  0  0  0  0
 18 38  1  0  0  0  0
 19 20  2  0  0  0  0
 19 39  1  0  0  0  0
 20 21  1  0  0  0  0
 20 40  1  0  0  0  0
 21 22  2  0  0  0  0
 21 41  1  0  0  0  0
 22 42  1  0  0  0  0
 23 24  2  0  0  0  0
 23 28  1  0  0  0  0
 24 25  1  0  0  0  0
 24 43  1  0  0  0  0
 25 26  2  0  0  0  0
 25 44  1  0  0  0  0
 26 27  1  0  0  0  0
 26 45  1  0  0  0  0
 27 28  2  0  0  0  0
 27 46  1  0  0  0  0
 28 47  1  0  0  0  0
M  END
>  <DRUGBANK_ID>
DB03678

>  <SECONDARY_ACCESSION_NUMBERS>
EXPT03193

>  <COMMON_NAME>
(6,7-Difluoro-Quinazolin-4-Yl)-(1-Methyl-2,2-Diphenyl-Ethyl)-Amine

$$$$
