
 OpenBabel10282417213D

 31 32  0  0  0  0  0  0  0  0999 V2000
   -1.2316    0.5303    0.0414 N   0  0  0  0  0  0  0  0  0  0  0  0
   -0.2129    1.3160    0.0327 C   0  0  0  0  0  0  0  0  0  0  0  0
    1.0826    0.9105    0.0285 N   0  0  0  0  0  0  0  0  0  0  0  0
    1.3373   -0.3612    0.0034 C   0  0  0  0  0  0  0  0  0  0  0  0
    0.3948   -1.3541   -0.0650 N   0  0  0  0  0  0  0  0  0  0  0  0
   -1.0060   -0.9090   -0.0303 C   0  0  0  0  0  0  0  0  0  0  0  0
   -0.4738    2.6390    0.0366 N   0  0  0  0  0  0  0  0  0  0  0  0
    2.6330   -0.7666    0.0212 N   0  0  0  0  0  0  0  0  0  0  0  0
   -1.7075   -1.4841    1.2164 C   0  0  0  0  0  0  0  0  0  0  0  0
   -1.7216   -1.3036   -1.3323 C   0  0  0  0  0  0  0  0  0  0  0  0
    0.6611   -2.7434   -0.0283 C   0  0  0  0  0  0  0  0  0  0  0  0
    0.2891   -3.5930   -1.0837 C   0  0  0  0  0  0  0  0  0  0  0  0
    0.4731   -4.9744   -1.0231 C   0  0  0  0  0  0  0  0  0  0  0  0
    1.1384   -5.5240    0.0615 C   0  0  0  0  0  0  0  0  0  0  0  0
    1.5891   -4.7042    1.0933 C   0  0  0  0  0  0  0  0  0  0  0  0
    1.3272   -3.3283    1.0610 C   0  0  0  0  0  0  0  0  0  0  0  0
    1.4359   -7.2158    0.1017 Cl  0  0  0  0  0  0  0  0  0  0  0  0
    0.2750    3.3112    0.0083 H   0  0  0  0  0  0  0  0  0  0  0  0
   -1.4365    2.9405    0.0171 H   0  0  0  0  0  0  0  0  0  0  0  0
    3.3697   -0.0796   -0.0200 H   0  0  0  0  0  0  0  0  0  0  0  0
    2.8760   -1.7367   -0.1069 H   0  0  0  0  0  0  0  0  0  0  0  0
   -1.2970   -1.0293    2.1280 H   0  0  0  0  0  0  0  0  0  0  0  0
   -2.7831   -1.2783    1.2051 H   0  0  0  0  0  0  0  0  0  0  0  0
   -1.5834   -2.5669    1.3130 H   0  0  0  0  0  0  0  0  0  0  0  0
   -1.8629   -2.3796   -1.4242 H   0  0  0  0  0  0  0  0  0  0  0  0
   -2.7241   -0.8737   -1.4081 H   0  0  0  0  0  0  0  0  0  0  0  0
   -1.1408   -0.9440   -2.1936 H   0  0  0  0  0  0  0  0  0  0  0  0
   -0.1341   -3.1955   -2.0007 H   0  0  0  0  0  0  0  0  0  0  0  0
    0.1130   -5.5968   -1.8380 H   0  0  0  0  0  0  0  0  0  0  0  0
    2.1425   -5.1274    1.9265 H   0  0  0  0  0  0  0  0  0  0  0  0
    1.6533   -2.7062    1.8931 H   0  0  0  0  0  0  0  0  0  0  0  0
  2  1  2  0  0  0  0
  2  3  1  0  0  0  0
  2  7  1  0  0  0  0
  4  3  2  0  0  0  0
  4  8  1  0  0  0  0
  4  5  1  0  0  0  0
  6  1  1  0  0  0  0
  6  5  1  0  0  0  0
  6  9  1  0  0  0  0
  7 18  1  0  0  0  0
  7 19  1  0  0  0  0
  8 20  1  0  0  0  0
  8 21  1  0  0  0  0
  9 22  1  0  0  0  0
  9 23  1  0  0  0  0
  9 24  1  0  0  0  0
 10  6  1  0  0  0  0
 10 25  1  0  0  0  0
 10 26  1  0  0  0  0
 10 27  1  0  0  0  0
 11  5  1  0  0  0  0
 11 16  2  0  0  0  0
 11 12  1  0  0  0  0
 12 13  2  0  0  0  0
 12 28  1  0  0  0  0
 13 14  1  0  0  0  0
 13 29  1  0  0  0  0
 14 17  1  0  0  0  0
 14 15  2  0  0  0  0
 15 16  1  0  0  0  0
 15 30  1  0  0  0  0
 16 31  1  0  0  0  0
M  END
>  <DRUGBANK_ID>
DB14763

>  <COMMON_NAME>
Cycloguanil

>  <CAS_NUMBER>
516-21-2

>  <UNII>
26RM326WVN

>  <SYNONYMS>
CGT; Chlorguanide triazine; Cycloguanilum; Cycloguanyl

$$$$
