
 OpenBabel10282417203D

 58 58  0  0  0  0  0  0  0  0999 V2000
    1.3929   -0.2107    0.1210 C   0  0  0  0  0  0  0  0  0  0  0  0
    0.5363   -1.2775   -0.0916 C   0  0  0  0  0  0  0  0  0  0  0  0
   -0.8470   -1.0589   -0.1251 C   0  0  0  0  0  0  0  0  0  0  0  0
   -1.3635    0.2429   -0.0581 C   0  0  0  0  0  0  0  0  0  0  0  0
   -0.5062    1.3113    0.0999 C   0  0  0  0  0  0  0  0  0  0  0  0
    0.8780    1.0907    0.0980 C   0  0  0  0  0  0  0  0  0  0  0  0
    1.7731    2.2347   -0.3001 C   0  0  0  0  0  0  0  0  0  0  0  0
    1.2875    2.7644   -1.5880 N   0  0  0  0  0  0  0  0  0  0  0  0
    0.9621    4.2301   -1.6471 C   0  0  0  0  0  0  0  0  0  0  0  0
    1.9432    5.1887   -2.4126 C   0  0  0  0  0  0  0  0  0  0  0  0
    2.1940    4.9533   -3.8027 O   0  0  0  0  0  0  0  0  0  0  0  0
    2.8183    3.7109   -4.0505 C   0  0  0  0  0  0  0  0  0  0  0  0
    4.1517    3.4419   -3.3925 C   0  0  0  0  0  0  0  0  0  0  0  0
    0.9058    1.8878   -2.6694 C   0  0  0  0  0  0  0  0  0  0  0  0
    1.6042    0.5001   -2.8482 C   0  0  0  0  0  0  0  0  0  0  0  0
    0.1359    2.3163   -3.5578 O   0  0  0  0  0  0  0  0  0  0  0  0
    0.4005   -0.7109   -3.3575 Cl  0  0  0  0  0  0  0  0  0  0  0  0
    2.8877    0.4291   -4.0936 Cl  0  0  0  0  0  0  0  0  0  0  0  0
   -1.7902   -2.2112    0.0780 C   0  0  0  0  0  0  0  0  0  0  0  0
   -2.5218   -1.9708    1.3287 N   0  0  0  0  0  0  0  0  0  0  0  0
   -4.0203   -1.9962    1.2582 C   0  0  0  0  0  0  0  0  0  0  0  0
   -1.8467   -1.5026    2.5143 C   0  0  0  0  0  0  0  0  0  0  0  0
   -0.3496   -1.8743    2.7725 C   0  0  0  0  0  0  0  0  0  0  0  0
    0.5060   -0.4680    3.4473 Cl  0  0  0  0  0  0  0  0  0  0  0  0
   -0.0691   -3.2134    3.9249 Cl  0  0  0  0  0  0  0  0  0  0  0  0
   -2.5144   -0.9389    3.4123 O   0  0  0  0  0  0  0  0  0  0  0  0
   -4.7726   -3.2436    1.8405 C   0  0  0  0  0  0  0  0  0  0  0  0
   -4.5920   -3.5725    3.2226 O   0  0  0  0  0  0  0  0  0  0  0  0
   -3.2594   -3.9145    3.5431 C   0  0  0  0  0  0  0  0  0  0  0  0
   -2.6257   -5.0739    2.8098 C   0  0  0  0  0  0  0  0  0  0  0  0
    2.4658   -0.3927    0.1624 H   0  0  0  0  0  0  0  0  0  0  0  0
    0.9439   -2.2868   -0.1416 H   0  0  0  0  0  0  0  0  0  0  0  0
   -2.4379    0.4189   -0.0745 H   0  0  0  0  0  0  0  0  0  0  0  0
   -0.9130    2.3200    0.1305 H   0  0  0  0  0  0  0  0  0  0  0  0
    1.7433    2.9987    0.4852 H   0  0  0  0  0  0  0  0  0  0  0  0
    2.8127    1.9218   -0.4340 H   0  0  0  0  0  0  0  0  0  0  0  0
   -0.0494    4.3429   -2.0487 H   0  0  0  0  0  0  0  0  0  0  0  0
    0.9356    4.6080   -0.6150 H   0  0  0  0  0  0  0  0  0  0  0  0
    1.5347    6.2063   -2.3598 H   0  0  0  0  0  0  0  0  0  0  0  0
    2.9049    5.2477   -1.8981 H   0  0  0  0  0  0  0  0  0  0  0  0
    2.2385    3.0381   -3.5146 H   0  0  0  0  0  0  0  0  0  0  0  0
    2.6587    3.3408   -5.0694 H   0  0  0  0  0  0  0  0  0  0  0  0
    4.1307    3.6995   -2.3296 H   0  0  0  0  0  0  0  0  0  0  0  0
    4.3796    2.3743   -3.3935 H   0  0  0  0  0  0  0  0  0  0  0  0
    4.9525    3.9729   -3.8906 H   0  0  0  0  0  0  0  0  0  0  0  0
    2.1455    0.1834   -1.9730 H   0  0  0  0  0  0  0  0  0  0  0  0
   -2.4692   -2.2696   -0.7818 H   0  0  0  0  0  0  0  0  0  0  0  0
   -1.2693   -3.1697    0.1615 H   0  0  0  0  0  0  0  0  0  0  0  0
   -4.4022   -1.0826    1.7233 H   0  0  0  0  0  0  0  0  0  0  0  0
   -4.3074   -1.9526    0.1974 H   0  0  0  0  0  0  0  0  0  0  0  0
    0.1493   -2.2516    1.8976 H   0  0  0  0  0  0  0  0  0  0  0  0
   -5.8508   -3.0783    1.7180 H   0  0  0  0  0  0  0  0  0  0  0  0
   -4.5574   -4.1350    1.2471 H   0  0  0  0  0  0  0  0  0  0  0  0
   -2.7046   -3.1436    3.1271 H   0  0  0  0  0  0  0  0  0  0  0  0
   -3.0186   -3.7760    4.6030 H   0  0  0  0  0  0  0  0  0  0  0  0
   -2.7975   -5.0058    1.7316 H   0  0  0  0  0  0  0  0  0  0  0  0
   -1.5377   -5.0445    2.8991 H   0  0  0  0  0  0  0  0  0  0  0  0
   -2.9849   -6.0227    3.1865 H   0  0  0  0  0  0  0  0  0  0  0  0
  1  2  1  0  0  0  0
  1  6  2  0  0  0  0
  1 31  1  0  0  0  0
  2  3  2  0  0  0  0
  2 32  1  0  0  0  0
  3  4  1  0  0  0  0
  3 19  1  0  0  0  0
  4  5  2  0  0  0  0
  4 33  1  0  0  0  0
  5  6  1  0  0  0  0
  5 34  1  0  0  0  0
  6  7  1  0  0  0  0
  7  8  1  0  0  0  0
  7 35  1  0  0  0  0
  7 36  1  0  0  0  0
  8  9  1  0  0  0  0
  8 14  1  0  0  0  0
  9 10  1  0  0  0  0
  9 37  1  0  0  0  0
  9 38  1  0  0  0  0
 10 11  1  0  0  0  0
 10 39  1  0  0  0  0
 10 40  1  0  0  0  0
 11 12  1  0  0  0  0
 12 13  1  0  0  0  0
 12 41  1  0  0  0  0
 12 42  1  0  0  0  0
 13 43  1  0  0  0  0
 13 44  1  0  0  0  0
 13 45  1  0  0  0  0
 14 15  1  0  0  0  0
 14 16  2  0  0  0  0
 15 17  1  0  0  0  0
 15 18  1  0  0  0  0
 15 46  1  0  0  0  0
 19 20  1  0  0  0  0
 19 47  1  0  0  0  0
 19 48  1  0  0  0  0
 20 21  1  0  0  0  0
 20 22  1  0  0  0  0
 21 27  1  0  0  0  0
 21 49  1  0  0  0  0
 21 50  1  0  0  0  0
 22 23  1  0  0  0  0
 22 26  2  0  0  0  0
 23 24  1  0  0  0  0
 23 25  1  0  0  0  0
 23 51  1  0  0  0  0
 27 28  1  0  0  0  0
 27 52  1  0  0  0  0
 27 53  1  0  0  0  0
 28 29  1  0  0  0  0
 29 30  1  0  0  0  0
 29 54  1  0  0  0  0
 29 55  1  0  0  0  0
 30 56  1  0  0  0  0
 30 57  1  0  0  0  0
 30 58  1  0  0  0  0
M  END
>  <DRUGBANK_ID>
DB13205

>  <COMMON_NAME>
Teclozan

>  <CAS_NUMBER>
5560-78-1

>  <UNII>
K9RIF0COUB

>  <SYNONYMS>
Teclozan; Teclozanum

$$$$
