
 OpenBabel10282417133D

 46 47  0  0  1  0  0  0  0  0999 V2000
    0.9401    0.0305    0.1413 C   0  0  0  0  0  0  0  0  0  0  0  0
    0.4846    1.3876   -0.3712 C   0  0  0  0  0  0  0  0  0  0  0  0
    0.9926    1.6405   -1.7925 C   0  0  0  0  0  0  0  0  0  0  0  0
   -6.3551   -2.1321   -2.8954 C   0  0  0  0  0  0  0  0  0  0  0  0
   -5.9259   -2.2451   -4.2076 C   0  0  0  0  0  0  0  0  0  0  0  0
   -5.5641   -2.6329   -1.8626 C   0  0  0  0  0  0  0  0  0  0  0  0
   -4.7374   -2.9111   -4.4823 C   0  0  0  0  0  0  0  0  0  0  0  0
   -4.3012   -3.1649   -2.1333 C   0  0  0  0  0  0  0  0  0  0  0  0
    0.3943    0.6733   -2.8112 C   0  0  0  0  0  0  0  0  0  0  0  0
   -1.4887   -1.2019   -6.0904 C   0  0  0  0  0  0  0  0  0  0  0  0
   -2.0284   -0.2058   -5.0839 C   0  0  0  0  0  0  0  0  0  0  0  0
   -2.5042   -3.9299   -3.7412 C   0  0  0  0  0  0  0  0  0  0  0  0
   -3.8763   -3.3338   -3.4557 C   0  0  0  0  0  0  0  0  0  0  0  0
   -1.5007   -2.9157   -4.3336 C   0  0  2  0  0  0  0  0  0  0  0  0
   -1.1547    0.6496   -2.8609 C   0  0  1  0  0  0  0  0  0  0  0  0
   -1.3536   -1.7704   -3.3112 C   0  0  0  0  0  0  0  0  0  0  0  0
   -1.7536    2.0369   -3.2266 C   0  0  0  0  0  0  0  0  0  0  0  0
   -1.8568   -2.5575   -5.7326 N   0  0  0  0  0  0  0  0  0  0  0  0
   -1.5296   -0.4680   -3.7500 N   0  0  0  0  0  0  0  0  0  0  0  0
   -1.0247   -2.0265   -2.1481 O   0  0  0  0  0  0  0  0  0  0  0  0
   -2.5137    2.3169   -4.1488 O   0  0  0  0  0  0  0  0  0  0  0  0
   -1.3845    3.0414   -2.4135 O   0  0  0  0  0  0  0  0  0  0  0  0
   -0.5060   -3.3765   -4.3992 H   0  0  0  0  0  0  0  0  0  0  0  0
   -1.5653    0.3894   -1.8775 H   0  0  0  0  0  0  0  0  0  0  0  0
    0.5569   -0.7875   -0.4743 H   0  0  0  0  0  0  0  0  0  0  0  0
    0.5822   -0.1385    1.1590 H   0  0  0  0  0  0  0  0  0  0  0  0
    2.0324   -0.0270    0.1341 H   0  0  0  0  0  0  0  0  0  0  0  0
   -0.6082    1.4479   -0.3188 H   0  0  0  0  0  0  0  0  0  0  0  0
    0.8574    2.1761    0.2897 H   0  0  0  0  0  0  0  0  0  0  0  0
    0.7895    2.6708   -2.0925 H   0  0  0  0  0  0  0  0  0  0  0  0
    2.0851    1.5601   -1.8152 H   0  0  0  0  0  0  0  0  0  0  0  0
   -7.3128   -1.6683   -2.6833 H   0  0  0  0  0  0  0  0  0  0  0  0
   -6.5205   -1.8510   -5.0270 H   0  0  0  0  0  0  0  0  0  0  0  0
   -5.9299   -2.6047   -0.8407 H   0  0  0  0  0  0  0  0  0  0  0  0
   -4.5233   -3.0798   -5.5305 H   0  0  0  0  0  0  0  0  0  0  0  0
   -3.6547   -3.4469   -1.3033 H   0  0  0  0  0  0  0  0  0  0  0  0
    0.7936    0.8859   -3.8102 H   0  0  0  0  0  0  0  0  0  0  0  0
    0.7796   -0.3300   -2.5797 H   0  0  0  0  0  0  0  0  0  0  0  0
   -0.4021   -1.1202   -6.1671 H   0  0  0  0  0  0  0  0  0  0  0  0
   -1.9186   -0.9663   -7.0701 H   0  0  0  0  0  0  0  0  0  0  0  0
   -1.6777    0.7626   -5.4345 H   0  0  0  0  0  0  0  0  0  0  0  0
   -3.1255   -0.2063   -5.0293 H   0  0  0  0  0  0  0  0  0  0  0  0
   -2.6167   -4.7943   -4.4057 H   0  0  0  0  0  0  0  0  0  0  0  0
   -2.0805   -4.3323   -2.8089 H   0  0  0  0  0  0  0  0  0  0  0  0
   -2.8610   -2.5816   -5.8067 H   0  0  0  0  0  0  0  0  0  0  0  0
   -1.7298    3.8437   -2.8585 H   0  0  0  0  0  0  0  0  0  0  0  0
  1 25  1  0  0  0  0
  1 26  1  0  0  0  0
  1 27  1  0  0  0  0
  2  1  1  0  0  0  0
  2 28  1  0  0  0  0
  2 29  1  0  0  0  0
  3  2  1  0  0  0  0
  3 30  1  0  0  0  0
  3 31  1  0  0  0  0
  4 32  1  0  0  0  0
  5  4  2  0  0  0  0
  5 33  1  0  0  0  0
  6  4  1  0  0  0  0
  6 34  1  0  0  0  0
  7  5  1  0  0  0  0
  7 35  1  0  0  0  0
  8  6  2  0  0  0  0
  8 36  1  0  0  0  0
  9  3  1  0  0  0  0
  9 37  1  0  0  0  0
  9 38  1  0  0  0  0
 10 39  1  0  0  0  0
 10 40  1  0  0  0  0
 11 10  1  0  0  0  0
 11 41  1  0  0  0  0
 11 42  1  0  0  0  0
 12 43  1  0  0  0  0
 12 44  1  0  0  0  0
 13  7  2  0  0  0  0
 13  8  1  0  0  0  0
 13 12  1  0  0  0  0
 14 23  1  6  0  0  0
 14 12  1  0  0  0  0
 15  9  1  0  0  0  0
 15 19  1  0  0  0  0
 15 24  1  1  0  0  0
 16 14  1  0  0  0  0
 17 15  1  0  0  0  0
 18 10  1  0  0  0  0
 18 14  1  0  0  0  0
 18 45  1  0  0  0  0
 19 11  1  0  0  0  0
 19 16  1  0  0  0  0
 20 16  2  0  0  0  0
 21 17  2  0  0  0  0
 22 17  1  0  0  0  0
 22 46  1  0  0  0  0
M  END
>  <DRUGBANK_ID>
DB03090

>  <SECONDARY_ACCESSION_NUMBERS>
EXPT02676

>  <COMMON_NAME>
Ethylaminobenzylmethylcarbonyl Group

$$$$
