
 OpenBabel10282417123D

 43 43  0  0  1  0  0  0  0  0999 V2000
    3.5694    1.2416   -2.5211 C   0  0  0  0  0  0  0  0  0  0  0  0
   -0.3183   -1.5531   -8.0250 C   0  0  0  0  0  0  0  0  0  0  0  0
    1.7102   -0.8649   -5.0748 C   0  0  0  0  0  0  0  0  0  0  0  0
    2.6794   -0.1176   -4.3317 C   0  0  0  0  0  0  0  0  0  0  0  0
    1.4294   -1.5987   -6.1596 C   0  0  0  0  0  0  0  0  0  0  0  0
   -0.7935    0.3575   -4.4127 C   0  0  0  0  0  0  0  0  0  0  0  0
    0.9530    2.3994   -1.7722 C   0  0  0  0  0  0  0  0  0  0  0  0
    2.3695    0.6820   -3.2544 C   0  0  0  0  0  0  0  0  0  0  0  0
    0.0027   -2.0560   -6.6202 C   0  0  2  0  0  0  0  0  0  0  0  0
   -0.3540    1.3045   -3.3254 C   0  0  1  0  0  0  0  0  0  0  0  0
    0.9718    1.0532   -2.5479 C   0  0  2  0  0  0  0  0  0  0  0  0
   -1.0218   -1.0964   -3.7868 C   0  0  0  0  0  0  0  0  0  0  0  0
   -0.2908    2.7832   -3.7470 C   0  0  1  0  0  0  0  0  0  0  0  0
   -0.1534   -3.5672   -6.5357 C   0  0  0  0  0  0  0  0  0  0  0  0
   -1.7075    3.3621   -3.6508 C   0  0  0  0  0  0  0  0  0  0  0  0
    0.6744    3.4190   -2.7965 N   0  0  0  0  0  0  0  0  0  0  0  0
   -1.8575   -1.9158   -4.1734 O   0  0  0  0  0  0  0  0  0  0  0  0
   -0.0670   -1.5268   -2.9156 O   0  0  0  0  0  0  0  0  0  0  0  0
   -0.9997   -4.2044   -5.9298 O   0  0  0  0  0  0  0  0  0  0  0  0
    0.8136   -4.2119   -7.2177 O   0  0  0  0  0  0  0  0  0  0  0  0
   -2.7299    2.7165   -3.4582 O   0  0  0  0  0  0  0  0  0  0  0  0
   -1.8211    4.6765   -3.9023 O   0  0  0  0  0  0  0  0  0  0  0  0
    0.9280   -0.7797   -4.4099 H   0  0  0  0  0  0  0  0  0  0  0  0
    3.7063   -0.2699   -4.6478 H   0  0  0  0  0  0  0  0  0  0  0  0
    2.2241   -1.8654   -6.8360 H   0  0  0  0  0  0  0  0  0  0  0  0
   -0.8278   -1.6303   -6.0635 H   0  0  0  0  0  0  0  0  0  0  0  0
   -1.1607    1.1880   -2.5873 H   0  0  0  0  0  0  0  0  0  0  0  0
    0.7862    0.2854   -1.7848 H   0  0  0  0  0  0  0  0  0  0  0  0
    0.0756    2.9267   -4.7716 H   0  0  0  0  0  0  0  0  0  0  0  0
    4.5058    0.9265   -2.9888 H   0  0  0  0  0  0  0  0  0  0  0  0
    3.5873    0.8932   -1.4822 H   0  0  0  0  0  0  0  0  0  0  0  0
    3.5593    2.3343   -2.5427 H   0  0  0  0  0  0  0  0  0  0  0  0
    0.4572   -1.8581   -8.7273 H   0  0  0  0  0  0  0  0  0  0  0  0
   -1.2815   -1.9408   -8.3842 H   0  0  0  0  0  0  0  0  0  0  0  0
   -0.3928   -0.4585   -8.0255 H   0  0  0  0  0  0  0  0  0  0  0  0
   -1.6936    0.6373   -4.9687 H   0  0  0  0  0  0  0  0  0  0  0  0
   -0.0701    0.5062   -5.2313 H   0  0  0  0  0  0  0  0  0  0  0  0
    0.1353    2.4249   -1.0347 H   0  0  0  0  0  0  0  0  0  0  0  0
    1.8619    2.6064   -1.2041 H   0  0  0  0  0  0  0  0  0  0  0  0
    1.5519    3.5577   -3.3051 H   0  0  0  0  0  0  0  0  0  0  0  0
    0.1112   -2.4881   -3.0519 H   0  0  0  0  0  0  0  0  0  0  0  0
    0.6279   -5.1573   -7.0484 H   0  0  0  0  0  0  0  0  0  0  0  0
   -2.7913    4.8105   -3.8265 H   0  0  0  0  0  0  0  0  0  0  0  0
  1 30  1  0  0  0  0
  1 31  1  0  0  0  0
  1 32  1  0  0  0  0
  2 33  1  0  0  0  0
  2 34  1  0  0  0  0
  2 35  1  0  0  0  0
  4  3  1  0  0  0  0
  5  3  2  0  0  0  0
  6 36  1  0  0  0  0
  6 37  1  0  0  0  0
  7 38  1  0  0  0  0
  7 39  1  0  0  0  0
  8  1  1  0  0  0  0
  8  4  2  0  0  0  0
  9  2  1  0  0  0  0
  9  5  1  0  0  0  0
  9 26  1  1  0  0  0
 10  6  1  0  0  0  0
 10 27  1  1  0  0  0
 11  7  1  0  0  0  0
 11 10  1  0  0  0  0
 11 28  1  1  0  0  0
 11  8  1  0  0  0  0
 12  6  1  0  0  0  0
 13 10  1  0  0  0  0
 13 29  1  6  0  0  0
 13 15  1  0  0  0  0
 14  9  1  0  0  0  0
 16  7  1  0  0  0  0
 16 13  1  0  0  0  0
 16 40  1  0  0  0  0
 17 12  2  0  0  0  0
 18 12  1  0  0  0  0
 18 41  1  0  0  0  0
 19 14  2  0  0  0  0
 20 14  1  0  0  0  0
 20 42  1  0  0  0  0
 21 15  2  0  0  0  0
 22 15  1  0  0  0  0
 22 43  1  0  0  0  0
 23  3  1  0  0  0  0
 24  4  1  0  0  0  0
 25  5  1  0  0  0  0
M  END
>  <DRUGBANK_ID>
DB02852

>  <SECONDARY_ACCESSION_NUMBERS>
EXPT01248

>  <COMMON_NAME>
Domoic Acid

>  <CAS_NUMBER>
14277-97-5

>  <UNII>
M02525818H

>  <SYNONYMS>
(-)-domoic acid; L-domoic acid

$$$$
