OX5
 OpenBabel10282417173D

 34 34  0  0  0  0  0  0  0  0999 V2000
    2.2398   -0.0034    0.0104 O   0  0  0  0  0  0  0  0  0  0  0  0
    0.8761   -0.0252    0.0088 C   0  0  0  0  0  0  0  0  0  0  0  0
    0.1415   -1.2094    0.0059 C   0  0  0  0  0  0  0  0  0  0  0  0
   -1.2675   -1.1571   -0.0086 C   0  0  0  0  0  0  0  0  0  0  0  0
   -1.9262    0.0830   -0.0182 C   0  0  0  0  0  0  0  0  0  0  0  0
   -1.1654    1.2571   -0.0054 C   0  0  0  0  0  0  0  0  0  0  0  0
    0.2291    1.2027    0.0096 C   0  0  0  0  0  0  0  0  0  0  0  0
   -3.4161    0.1977   -0.0132 C   0  0  0  0  0  0  0  0  0  0  0  0
   -3.9819    1.3660    0.0185 N   0  0  0  0  0  0  0  0  0  0  0  0
   -5.3923    1.2887    0.0788 O   0  0  0  0  0  0  0  0  0  0  0  0
   -5.9429    2.5523   -0.0312 C   0  0  0  0  0  0  0  0  0  0  0  0
   -7.4691    2.5119   -0.1112 C   0  0  0  0  0  0  0  0  0  0  0  0
   -7.6622    0.3636   -1.4348 C   0  0  0  0  0  0  0  0  0  0  0  0
   -9.5851    1.9344   -1.3896 C   0  0  0  0  0  0  0  0  0  0  0  0
   -8.0431    1.8489   -1.3859 C   0  0  0  0  0  0  0  0  0  0  0  0
   -7.5202    2.5726   -2.6366 C   0  0  0  0  0  0  0  0  0  0  0  0
   -5.3206    3.6151   -0.0646 O   0  0  0  0  0  0  0  0  0  0  0  0
    2.5876   -0.9086   -0.0201 H   0  0  0  0  0  0  0  0  0  0  0  0
    0.6462   -2.1724    0.0188 H   0  0  0  0  0  0  0  0  0  0  0  0
   -1.8257   -2.0901   -0.0062 H   0  0  0  0  0  0  0  0  0  0  0  0
   -1.6546    2.2285   -0.0026 H   0  0  0  0  0  0  0  0  0  0  0  0
    0.8059    2.1228    0.0231 H   0  0  0  0  0  0  0  0  0  0  0  0
   -4.0012   -0.7402   -0.0264 H   0  0  0  0  0  0  0  0  0  0  0  0
   -7.8607    2.0445    0.8000 H   0  0  0  0  0  0  0  0  0  0  0  0
   -7.8161    3.5566   -0.0754 H   0  0  0  0  0  0  0  0  0  0  0  0
   -8.0056   -0.1506   -0.5295 H   0  0  0  0  0  0  0  0  0  0  0  0
   -8.1003   -0.1363   -2.3029 H   0  0  0  0  0  0  0  0  0  0  0  0
   -6.5838    0.2210   -1.5214 H   0  0  0  0  0  0  0  0  0  0  0  0
   -9.9373    2.9718   -1.3952 H   0  0  0  0  0  0  0  0  0  0  0  0
   -9.9990    1.4448   -2.2809 H   0  0  0  0  0  0  0  0  0  0  0  0
  -10.0168    1.4365   -0.5142 H   0  0  0  0  0  0  0  0  0  0  0  0
   -7.8428    3.6207   -2.6491 H   0  0  0  0  0  0  0  0  0  0  0  0
   -6.4267    2.5597   -2.6791 H   0  0  0  0  0  0  0  0  0  0  0  0
   -7.8916    2.0987   -3.5515 H   0  0  0  0  0  0  0  0  0  0  0  0
  1  2  1  0  0  0  0
  1 18  1  0  0  0  0
  2  3  2  0  0  0  0
  2  7  1  0  0  0  0
  3  4  1  0  0  0  0
  3 19  1  0  0  0  0
  4  5  2  0  0  0  0
  4 20  1  0  0  0  0
  5  8  1  0  0  0  0
  5  6  1  0  0  0  0
  6  7  2  0  0  0  0
  6 21  1  0  0  0  0
  7 22  1  0  0  0  0
  8  9  2  0  0  0  0
  8 23  1  0  0  0  0
  9 10  1  0  0  0  0
 10 11  1  0  0  0  0
 11 17  2  0  0  0  0
 11 12  1  0  0  0  0
 12 15  1  0  0  0  0
 12 24  1  0  0  0  0
 12 25  1  0  0  0  0
 13 15  1  0  0  0  0
 13 26  1  0  0  0  0
 13 27  1  0  0  0  0
 13 28  1  0  0  0  0
 14 15  1  0  0  0  0
 14 29  1  0  0  0  0
 14 30  1  0  0  0  0
 14 31  1  0  0  0  0
 15 16  1  0  0  0  0
 16 32  1  0  0  0  0
 16 33  1  0  0  0  0
 16 34  1  0  0  0  0
M  END
>  <DRUGBANK_ID>
DB08335

>  <COMMON_NAME>
4-HYDROXYBENZALDEHYDE O-(3,3-DIMETHYLBUTANOYL)OXIME

$$$$
