
 OpenBabel10282417133D

 31 32  0  0  0  0  0  0  0  0999 V2000
    1.2790    0.5539   -0.3253 O   0  0  0  0  0  0  0  0  0  0  0  0
   -1.7659    0.0723   -0.6371 O   0  0  0  0  0  0  0  0  0  0  0  0
    0.0292    2.9252    2.0419 O   0  0  0  0  0  0  0  0  0  0  0  0
    3.0742   -2.6696   -1.8722 O   0  0  0  0  0  0  0  0  0  0  0  0
    5.8150   -2.9014    1.7541 O   0  0  0  0  0  0  0  0  0  0  0  0
    3.8452   -1.7304    1.9480 N   0  0  0  0  0  0  0  0  0  0  0  0
    4.4361   -2.7720   -0.0458 N   0  0  0  0  0  0  0  0  0  0  0  0
   -0.8888    0.0326    0.4858 C   0  0  1  0  0  0  0  0  0  0  0  0
    1.1235   -0.8873   -0.4388 C   0  0  2  0  0  0  0  0  0  0  0  0
   -0.0958   -1.2511    0.4233 C   0  0  0  0  0  0  0  0  0  0  0  0
    0.1659    1.1314    0.3915 C   0  0  1  0  0  0  0  0  0  0  0  0
    2.3843   -1.5025    0.0815 C   0  0  0  0  0  0  0  0  0  0  0  0
    0.6126    1.6511    1.7730 C   0  0  0  0  0  0  0  0  0  0  0  0
    2.7228   -1.2590    1.3494 C   0  0  0  0  0  0  0  0  0  0  0  0
    3.3049   -2.3520   -0.7087 C   0  0  0  0  0  0  0  0  0  0  0  0
    4.7718   -2.4940    1.2617 C   0  0  0  0  0  0  0  0  0  0  0  0
    4.0801   -1.3604    3.3301 C   0  0  0  0  0  0  0  0  0  0  0  0
   -1.2251    0.0776   -1.4464 H   0  0  0  0  0  0  0  0  0  0  0  0
    0.3644    3.5467    1.3702 H   0  0  0  0  0  0  0  0  0  0  0  0
    5.0972   -3.3396   -0.5541 H   0  0  0  0  0  0  0  0  0  0  0  0
   -1.5037    0.1065    1.3883 H   0  0  0  0  0  0  0  0  0  0  0  0
    0.9394   -1.1052   -1.4967 H   0  0  0  0  0  0  0  0  0  0  0  0
    0.1816   -1.5387    1.4447 H   0  0  0  0  0  0  0  0  0  0  0  0
   -0.6453   -2.0976    0.0018 H   0  0  0  0  0  0  0  0  0  0  0  0
   -0.1910    1.9700   -0.2147 H   0  0  0  0  0  0  0  0  0  0  0  0
    0.2893    0.9850    2.5805 H   0  0  0  0  0  0  0  0  0  0  0  0
    1.6993    1.7594    1.8536 H   0  0  0  0  0  0  0  0  0  0  0  0
    2.0845   -0.6432    1.9673 H   0  0  0  0  0  0  0  0  0  0  0  0
    4.1761   -2.2691    3.9267 H   0  0  0  0  0  0  0  0  0  0  0  0
    4.9972   -0.7711    3.3818 H   0  0  0  0  0  0  0  0  0  0  0  0
    3.2492   -0.7623    3.7257 H   0  0  0  0  0  0  0  0  0  0  0  0
  1  9  1  0  0  0  0
  1 11  1  0  0  0  0
  2 18  1  0  0  0  0
  3 13  1  0  0  0  0
  3 19  1  0  0  0  0
  4 15  2  0  0  0  0
  5 16  2  0  0  0  0
  6 14  1  0  0  0  0
  6 16  1  0  0  0  0
  6 17  1  0  0  0  0
  7 15  1  0  0  0  0
  7 16  1  0  0  0  0
  7 20  1  0  0  0  0
  8  2  1  0  0  0  0
  8 10  1  0  0  0  0
  8 11  1  0  0  0  0
  8 21  1  1  0  0  0
  9 10  1  0  0  0  0
  9 22  1  6  0  0  0
  9 12  1  0  0  0  0
 10 23  1  0  0  0  0
 10 24  1  0  0  0  0
 11 25  1  6  0  0  0
 11 13  1  0  0  0  0
 12 14  2  0  0  0  0
 12 15  1  0  0  0  0
 13 26  1  0  0  0  0
 13 27  1  0  0  0  0
 14 28  1  0  0  0  0
 17 29  1  0  0  0  0
 17 30  1  0  0  0  0
 17 31  1  0  0  0  0
M  END
>  <DRUGBANK_ID>
DB03763

>  <SECONDARY_ACCESSION_NUMBERS>
EXPT00252

>  <COMMON_NAME>
5-methyl-2'-deoxypseudouridine

>  <CAS_NUMBER>
65358-15-8

$$$$
