
 OpenBabel10282417183D

 47 49  0  0  0  0  0  0  0  0999 V2000
   -3.7659    0.1574    0.4101 S   0  0  0  0  0  0  0  0  0  0  0  0
    0.1162   -1.6386    0.1568 N   0  0  0  0  0  0  0  0  0  0  0  0
   -2.4861   -4.4014   -1.5795 N   0  0  0  0  0  0  0  0  0  0  0  0
   -2.6100   -1.3633    0.0777 C   0  0  3  0  0  0  0  0  0  0  0  0
   -1.0977   -0.9009    0.1403 C   0  0  0  0  0  0  0  0  0  0  0  0
   -0.6835    0.4372    0.0644 C   0  0  0  0  0  0  0  0  0  0  0  0
   -3.0041   -1.8272   -1.4144 C   0  0  0  0  0  0  0  0  0  0  0  0
   -1.5602    1.6564    0.0339 C   0  0  0  0  0  0  0  0  0  0  0  0
    0.7365    0.5121    0.0541 C   0  0  0  0  0  0  0  0  0  0  0  0
    1.2216   -0.8047    0.0461 C   0  0  0  0  0  0  0  0  0  0  0  0
   -2.9479    1.4266   -0.5178 C   0  0  0  0  0  0  0  0  0  0  0  0
   -3.2328   -2.0536    1.3626 C   0  0  0  0  0  0  0  0  0  0  0  0
   -2.2487   -3.0387   -2.1312 C   0  0  0  0  0  0  0  0  0  0  0  0
    0.4146   -3.0654    0.2553 C   0  0  0  0  0  0  0  0  0  0  0  0
    1.6700    1.5519    0.0479 C   0  0  0  0  0  0  0  0  0  0  0  0
    2.5933   -1.0758   -0.0225 C   0  0  0  0  0  0  0  0  0  0  0  0
   -0.0007   -3.6962    1.5735 C   0  0  0  0  0  0  0  0  0  0  0  0
    3.0406    1.2840    0.0359 C   0  0  0  0  0  0  0  0  0  0  0  0
    3.5008   -0.0310   -0.0101 C   0  0  0  0  0  0  0  0  0  0  0  0
   -1.5192   -5.4426   -1.8785 C   0  0  0  0  0  0  0  0  0  0  0  0
   -2.5205   -4.2811   -0.1674 C   0  0  0  0  0  0  0  0  0  0  0  0
   -4.0861   -2.0188   -1.4731 H   0  0  0  0  0  0  0  0  0  0  0  0
   -2.8363   -0.9730   -2.0919 H   0  0  0  0  0  0  0  0  0  0  0  0
   -1.0975    2.4292   -0.5879 H   0  0  0  0  0  0  0  0  0  0  0  0
   -1.6137    2.0586    1.0541 H   0  0  0  0  0  0  0  0  0  0  0  0
   -2.9523    1.1479   -1.5711 H   0  0  0  0  0  0  0  0  0  0  0  0
   -3.5565    2.3291   -0.4070 H   0  0  0  0  0  0  0  0  0  0  0  0
   -2.8555   -1.6086    2.2882 H   0  0  0  0  0  0  0  0  0  0  0  0
   -4.3414   -2.0329    1.3380 H   0  0  0  0  0  0  0  0  0  0  0  0
   -3.0763   -3.1042    1.5987 H   0  0  0  0  0  0  0  0  0  0  0  0
   -2.5735   -3.0661   -3.1793 H   0  0  0  0  0  0  0  0  0  0  0  0
   -1.1856   -2.7787   -2.1645 H   0  0  0  0  0  0  0  0  0  0  0  0
    0.0625   -3.5154   -0.6671 H   0  0  0  0  0  0  0  0  0  0  0  0
    1.4817   -3.2738    0.1552 H   0  0  0  0  0  0  0  0  0  0  0  0
    1.3232    2.5866    0.0782 H   0  0  0  0  0  0  0  0  0  0  0  0
    2.9905   -2.0940   -0.0564 H   0  0  0  0  0  0  0  0  0  0  0  0
   -0.9610   -3.3217    1.9249 H   0  0  0  0  0  0  0  0  0  0  0  0
   -0.0736   -4.7840    1.4643 H   0  0  0  0  0  0  0  0  0  0  0  0
    0.7102   -3.4682    2.3689 H   0  0  0  0  0  0  0  0  0  0  0  0
    3.7552    2.0946    0.0657 H   0  0  0  0  0  0  0  0  0  0  0  0
    4.5630   -0.2443   -0.0197 H   0  0  0  0  0  0  0  0  0  0  0  0
   -0.4779   -5.1345   -1.7632 H   0  0  0  0  0  0  0  0  0  0  0  0
   -1.6641   -6.2769   -1.1711 H   0  0  0  0  0  0  0  0  0  0  0  0
   -1.6893   -5.8466   -2.8722 H   0  0  0  0  0  0  0  0  0  0  0  0
   -1.6766   -3.6845    0.0964 H   0  0  0  0  0  0  0  0  0  0  0  0
   -3.4377   -3.7457   -0.0253 H   0  0  0  0  0  0  0  0  0  0  0  0
   -2.5246   -5.1254    0.5216 H   0  0  0  0  0  0  0  0  0  0  0  0
  1  4  1  0  0  0  0
  1 11  1  0  0  0  0
  2  5  1  0  0  0  0
  2 10  1  0  0  0  0
  2 14  1  0  0  0  0
  3 13  1  0  0  0  0
  3 20  1  0  0  0  0
  3 21  1  0  0  0  0
  4  5  1  0  0  0  0
  4  7  1  0  0  0  0
  4 12  1  0  0  0  0
  5  6  2  0  0  0  0
  6  8  1  0  0  0  0
  6  9  1  0  0  0  0
  7 13  1  0  0  0  0
  7 22  1  0  0  0  0
  7 23  1  0  0  0  0
  8 11  1  0  0  0  0
  8 24  1  0  0  0  0
  8 25  1  0  0  0  0
  9 10  1  0  0  0  0
  9 15  2  0  0  0  0
 10 16  2  0  0  0  0
 11 26  1  0  0  0  0
 11 27  1  0  0  0  0
 12 28  1  0  0  0  0
 12 29  1  0  0  0  0
 12 30  1  0  0  0  0
 13 31  1  0  0  0  0
 13 32  1  0  0  0  0
 14 17  1  0  0  0  0
 14 33  1  0  0  0  0
 14 34  1  0  0  0  0
 15 18  1  0  0  0  0
 15 35  1  0  0  0  0
 16 19  1  0  0  0  0
 16 36  1  0  0  0  0
 17 37  1  0  0  0  0
 17 38  1  0  0  0  0
 17 39  1  0  0  0  0
 18 19  2  0  0  0  0
 18 40  1  0  0  0  0
 19 41  1  0  0  0  0
 20 42  1  0  0  0  0
 20 43  1  0  0  0  0
 20 44  1  0  0  0  0
 21 45  1  0  0  0  0
 21 46  1  0  0  0  0
 21 47  1  0  0  0  0
M  END
>  <DRUGBANK_ID>
DB09192

>  <COMMON_NAME>
Tandamine

>  <CAS_NUMBER>
42408-80-0

>  <UNII>
6L5FH5A43E

>  <SYNONYMS>
Tandamine

$$$$
