
 OpenBabel10282417163D

 40 40  0  0  0  0  0  0  0  0999 V2000
    0.7941    0.3594   -0.0563 O   0  0  0  0  0  0  0  0  0  0  0  0
    1.7992   -2.3517    3.9827 O   0  0  0  0  0  0  0  0  0  0  0  0
    2.3177   -1.3004    2.0467 N   0  0  0  0  0  0  0  0  0  0  0  0
    5.3190   -3.3678   -0.7455 N   0  0  0  0  0  0  0  0  0  0  0  0
    2.8802    1.0522   -0.6365 N   0  0  0  0  0  0  0  0  0  0  0  0
    6.2304   -4.5220    1.0528 N   0  0  0  0  0  0  0  0  0  0  0  0
    2.4186   -2.2371   -0.2976 C   0  0  0  0  0  0  0  0  0  0  0  0
    2.6713   -1.0391    0.6073 C   0  0  1  0  0  0  0  0  0  0  0  0
    3.1237   -2.3478   -1.6230 C   0  0  0  0  0  0  0  0  0  0  0  0
    4.6609   -2.2599   -1.4804 C   0  0  0  0  0  0  0  0  0  0  0  0
    2.0257    0.1773   -0.0252 C   0  0  0  0  0  0  0  0  0  0  0  0
    1.9366   -2.4475    2.7635 C   0  0  0  0  0  0  0  0  0  0  0  0
    1.7235   -3.8061    2.1286 C   0  0  0  0  0  0  0  0  0  0  0  0
    2.7856   -4.5798    1.6497 C   0  0  0  0  0  0  0  0  0  0  0  0
    0.4663   -4.3624    1.9714 C   0  0  0  0  0  0  0  0  0  0  0  0
    5.5869   -3.4384    0.5164 C   0  0  0  0  0  0  0  0  0  0  0  0
    2.6176   -5.4920    0.6038 C   0  0  0  0  0  0  0  0  0  0  0  0
    0.3146   -5.5185    1.1755 C   0  0  0  0  0  0  0  0  0  0  0  0
    1.3585   -5.9879    0.3752 C   0  0  0  0  0  0  0  0  0  0  0  0
    5.1518   -2.4716    1.5809 C   0  0  0  0  0  0  0  0  0  0  0  0
    2.5781   -0.5457    2.6786 H   0  0  0  0  0  0  0  0  0  0  0  0
    3.8932    0.9822   -0.6083 H   0  0  0  0  0  0  0  0  0  0  0  0
    2.4814    1.8460   -1.1196 H   0  0  0  0  0  0  0  0  0  0  0  0
    5.9591   -4.8010    1.9941 H   0  0  0  0  0  0  0  0  0  0  0  0
    6.4278   -5.2953    0.4341 H   0  0  0  0  0  0  0  0  0  0  0  0
    2.8748   -3.0855    0.1449 H   0  0  0  0  0  0  0  0  0  0  0  0
    1.3501   -2.4649   -0.3399 H   0  0  0  0  0  0  0  0  0  0  0  0
    3.7310   -0.7560    0.6225 H   0  0  0  0  0  0  0  0  0  0  0  0
    2.8555   -3.3263   -2.0497 H   0  0  0  0  0  0  0  0  0  0  0  0
    2.7171   -1.5889   -2.2988 H   0  0  0  0  0  0  0  0  0  0  0  0
    5.0428   -2.2985   -2.5093 H   0  0  0  0  0  0  0  0  0  0  0  0
    4.9645   -1.2868   -1.0896 H   0  0  0  0  0  0  0  0  0  0  0  0
    3.7894   -4.3620    1.9381 H   0  0  0  0  0  0  0  0  0  0  0  0
   -0.3896   -3.9192    2.4679 H   0  0  0  0  0  0  0  0  0  0  0  0
    3.4620   -5.7583   -0.0335 H   0  0  0  0  0  0  0  0  0  0  0  0
   -0.6321   -6.0458    1.1552 H   0  0  0  0  0  0  0  0  0  0  0  0
    1.2147   -6.7583   -0.3777 H   0  0  0  0  0  0  0  0  0  0  0  0
    5.5259   -1.4605    1.4943 H   0  0  0  0  0  0  0  0  0  0  0  0
    4.1039   -2.4590    1.4495 H   0  0  0  0  0  0  0  0  0  0  0  0
    5.2049   -2.8503    2.6084 H   0  0  0  0  0  0  0  0  0  0  0  0
  1 11  2  0  0  0  0
  2 12  2  0  0  0  0
  3 12  1  0  0  0  0
  3 21  1  0  0  0  0
  4 10  1  0  0  0  0
  4 16  2  0  0  0  0
  5 11  1  0  0  0  0
  5 22  1  0  0  0  0
  5 23  1  0  0  0  0
  6 16  1  0  0  0  0
  6 24  1  0  0  0  0
  6 25  1  0  0  0  0
  7  8  1  0  0  0  0
  7  9  1  0  0  0  0
  7 26  1  0  0  0  0
  7 27  1  0  0  0  0
  8  3  1  0  0  0  0
  8 11  1  0  0  0  0
  8 28  1  6  0  0  0
  9 10  1  0  0  0  0
  9 29  1  0  0  0  0
  9 30  1  0  0  0  0
 10 31  1  0  0  0  0
 10 32  1  0  0  0  0
 12 13  1  0  0  0  0
 13 14  2  0  0  0  0
 13 15  1  0  0  0  0
 14 17  1  0  0  0  0
 14 33  1  0  0  0  0
 15 18  2  0  0  0  0
 15 34  1  0  0  0  0
 16 20  1  0  0  0  0
 17 19  2  0  0  0  0
 17 35  1  0  0  0  0
 18 19  1  0  0  0  0
 18 36  1  0  0  0  0
 19 37  1  0  0  0  0
 20 38  1  0  0  0  0
 20 39  1  0  0  0  0
 20 40  1  0  0  0  0
M  END
>  <DRUGBANK_ID>
DB07449

>  <COMMON_NAME>
N-[(1S)-1-(aminocarbonyl)-4-(ethanimidoylamino)butyl]benzamide

$$$$
