701
 OpenBabel10282417103D

 70 72  0  0  1  0  0  0  0  0999 V2000
    1.1754   -0.1906    0.2026 S   0  0  0  0  0  0  0  0  0  0  0  0
   -0.5738    2.0103   -2.5374 O   0  0  0  0  0  0  0  0  0  0  0  0
    4.5868    1.7390   -4.7818 O   0  0  0  0  0  0  0  0  0  0  0  0
    4.7329    2.8844   -1.4832 O   0  0  0  0  0  0  0  0  0  0  0  0
    1.1622   -0.9781   -1.0161 O   0  0  0  0  0  0  0  0  0  0  0  0
    0.6238   -0.7115    1.4320 O   0  0  0  0  0  0  0  0  0  0  0  0
    2.7543    1.0382   -5.7961 O   0  0  0  0  0  0  0  0  0  0  0  0
    0.4450    1.3634   -0.0887 N   0  0  0  0  0  0  0  0  0  0  0  0
    2.5282    2.3817   -3.9450 N   0  0  0  0  0  0  0  0  0  0  0  0
    7.0374   -0.0888   -0.0291 N   0  0  0  0  0  0  0  0  0  0  0  0
    0.7769    1.7630   -2.5458 C   0  0  1  0  0  0  0  0  0  0  0  0
    1.1094    2.4073   -3.8479 C   0  0  2  0  0  0  0  0  0  0  0  0
    1.0540    2.2975   -1.1559 C   0  0  0  0  0  0  0  0  0  0  0  0
   -1.1496    1.4815    0.1587 C   0  0  0  0  0  0  0  0  0  0  0  0
    0.3633    1.6606   -5.0034 C   0  0  0  0  0  0  0  0  0  0  0  0
   -2.1117    0.7118   -0.8437 C   0  0  0  0  0  0  0  0  0  0  0  0
    5.2482    2.3852   -3.7103 C   0  0  1  0  0  0  0  0  0  0  0  0
   -1.1454    1.6299   -4.9957 C   0  0  0  0  0  0  0  0  0  0  0  0
   -1.6098   -0.6766   -1.1523 C   0  0  0  0  0  0  0  0  0  0  0  0
   -3.6003    0.8115   -0.8256 C   0  0  0  0  0  0  0  0  0  0  0  0
    4.9503    3.8689   -3.5886 C   0  0  0  0  0  0  0  0  0  0  0  0
    2.9043   -0.0759    0.4240 C   0  0  0  0  0  0  0  0  0  0  0  0
    4.8772    1.7798   -2.3848 C   0  0  0  0  0  0  0  0  0  0  0  0
    3.2349    1.6737   -4.8947 C   0  0  0  0  0  0  0  0  0  0  0  0
    5.0754    4.1127   -2.1127 C   0  0  0  0  0  0  0  0  0  0  0  0
   -1.8136    0.3984   -4.8928 C   0  0  0  0  0  0  0  0  0  0  0  0
   -1.8709    2.8234   -4.9288 C   0  0  0  0  0  0  0  0  0  0  0  0
    3.5931    1.1064    0.5379 C   0  0  0  0  0  0  0  0  0  0  0  0
    3.5911   -1.2925    0.2526 C   0  0  0  0  0  0  0  0  0  0  0  0
   -3.1930    0.3668   -4.7211 C   0  0  0  0  0  0  0  0  0  0  0  0
   -3.2374    2.7856   -4.6757 C   0  0  0  0  0  0  0  0  0  0  0  0
    4.9857    1.0605    0.4991 C   0  0  0  0  0  0  0  0  0  0  0  0
    4.9754   -1.3179    0.1917 C   0  0  0  0  0  0  0  0  0  0  0  0
    5.6884   -0.1335    0.3161 C   0  0  0  0  0  0  0  0  0  0  0  0
   -3.9034    1.5615   -4.6172 C   0  0  0  0  0  0  0  0  0  0  0  0
   -0.6879    1.2223   -2.0173 H   0  0  0  0  0  0  0  0  0  0  0  0
    2.9584    2.7533   -3.1188 H   0  0  0  0  0  0  0  0  0  0  0  0
    7.5596   -0.9392    0.1483 H   0  0  0  0  0  0  0  0  0  0  0  0
    7.5244    0.7693    0.2035 H   0  0  0  0  0  0  0  0  0  0  0  0
    0.9976    0.6891   -2.6109 H   0  0  0  0  0  0  0  0  0  0  0  0
    0.7873    3.4547   -3.7933 H   0  0  0  0  0  0  0  0  0  0  0  0
    0.5832    3.2834   -1.0153 H   0  0  0  0  0  0  0  0  0  0  0  0
    2.1132    2.4538   -1.0369 H   0  0  0  0  0  0  0  0  0  0  0  0
   -1.3462    1.1403    1.1812 H   0  0  0  0  0  0  0  0  0  0  0  0
   -1.3910    2.5550    0.1426 H   0  0  0  0  0  0  0  0  0  0  0  0
    0.6686    2.1110   -5.9485 H   0  0  0  0  0  0  0  0  0  0  0  0
    0.6884    0.6102   -4.9763 H   0  0  0  0  0  0  0  0  0  0  0  0
   -2.1608    1.2540   -1.7788 H   0  0  0  0  0  0  0  0  0  0  0  0
    6.3202    2.2301   -3.8596 H   0  0  0  0  0  0  0  0  0  0  0  0
   -1.5807   -1.3248   -0.2758 H   0  0  0  0  0  0  0  0  0  0  0  0
   -1.9951   -1.1740   -2.0401 H   0  0  0  0  0  0  0  0  0  0  0  0
   -0.6230   -0.5078   -1.5112 H   0  0  0  0  0  0  0  0  0  0  0  0
   -3.8826    1.8697   -0.9058 H   0  0  0  0  0  0  0  0  0  0  0  0
   -3.9469    0.3389   -1.7644 H   0  0  0  0  0  0  0  0  0  0  0  0
   -4.0313    0.3081    0.0219 H   0  0  0  0  0  0  0  0  0  0  0  0
    5.5984    4.4884   -4.2042 H   0  0  0  0  0  0  0  0  0  0  0  0
    3.9430    4.1505   -3.9046 H   0  0  0  0  0  0  0  0  0  0  0  0
    3.9416    1.2068   -2.3619 H   0  0  0  0  0  0  0  0  0  0  0  0
    5.6365    1.0623   -2.0727 H   0  0  0  0  0  0  0  0  0  0  0  0
    6.0912    4.3929   -1.8259 H   0  0  0  0  0  0  0  0  0  0  0  0
    4.3771    4.8712   -1.7467 H   0  0  0  0  0  0  0  0  0  0  0  0
   -1.2536   -0.5355   -4.8900 H   0  0  0  0  0  0  0  0  0  0  0  0
   -1.3536    3.7771   -4.9788 H   0  0  0  0  0  0  0  0  0  0  0  0
    3.1047    2.0712    0.5487 H   0  0  0  0  0  0  0  0  0  0  0  0
    3.0347   -2.2188    0.0980 H   0  0  0  0  0  0  0  0  0  0  0  0
   -3.7026   -0.5870   -4.6189 H   0  0  0  0  0  0  0  0  0  0  0  0
   -3.7738    3.7102   -4.4878 H   0  0  0  0  0  0  0  0  0  0  0  0
    5.5261    2.0039    0.4708 H   0  0  0  0  0  0  0  0  0  0  0  0
    5.4781   -2.2621    0.0117 H   0  0  0  0  0  0  0  0  0  0  0  0
   -4.9782    1.5402   -4.4700 H   0  0  0  0  0  0  0  0  0  0  0  0
  1  5  2  0  0  0  0
  1  6  2  0  0  0  0
  1  8  1  0  0  0  0
  1 22  1  0  0  0  0
  2 36  1  0  0  0  0
  3 24  1  0  0  0  0
  4 23  1  0  0  0  0
  4 25  1  0  0  0  0
  7 24  2  0  0  0  0
  8 13  1  0  0  0  0
  8 14  1  0  0  0  0
  9 24  1  0  0  0  0
  9 37  1  0  0  0  0
 10 34  1  0  0  0  0
 10 38  1  0  0  0  0
 10 39  1  0  0  0  0
 11  2  1  0  0  0  0
 11 12  1  0  0  0  0
 11 13  1  0  0  0  0
 11 40  1  6  0  0  0
 12  9  1  0  0  0  0
 12 15  1  0  0  0  0
 12 41  1  1  0  0  0
 13 42  1  0  0  0  0
 13 43  1  0  0  0  0
 14 16  1  0  0  0  0
 14 44  1  0  0  0  0
 14 45  1  0  0  0  0
 15 18  1  0  0  0  0
 15 46  1  0  0  0  0
 15 47  1  0  0  0  0
 16 19  1  0  0  0  0
 16 20  1  0  0  0  0
 16 48  1  0  0  0  0
 17  3  1  0  0  0  0
 17 21  1  0  0  0  0
 17 23  1  0  0  0  0
 17 49  1  6  0  0  0
 18 26  2  0  0  0  0
 18 27  1  0  0  0  0
 19 50  1  0  0  0  0
 19 51  1  0  0  0  0
 19 52  1  0  0  0  0
 20 53  1  0  0  0  0
 20 54  1  0  0  0  0
 20 55  1  0  0  0  0
 21 25  1  0  0  0  0
 21 56  1  0  0  0  0
 21 57  1  0  0  0  0
 22 28  2  0  0  0  0
 22 29  1  0  0  0  0
 23 58  1  0  0  0  0
 23 59  1  0  0  0  0
 25 60  1  0  0  0  0
 25 61  1  0  0  0  0
 26 30  1  0  0  0  0
 26 62  1  0  0  0  0
 27 31  2  0  0  0  0
 27 63  1  0  0  0  0
 28 32  1  0  0  0  0
 28 64  1  0  0  0  0
 29 33  2  0  0  0  0
 29 65  1  0  0  0  0
 30 35  2  0  0  0  0
 30 66  1  0  0  0  0
 31 35  1  0  0  0  0
 31 67  1  0  0  0  0
 32 34  2  0  0  0  0
 32 68  1  0  0  0  0
 33 34  1  0  0  0  0
 33 69  1  0  0  0  0
 35 70  1  0  0  0  0
M  END
>  <DRUGBANK_ID>
DB00701

>  <SECONDARY_ACCESSION_NUMBERS>
APRD00605

>  <COMMON_NAME>
Amprenavir

>  <CAS_NUMBER>
161814-49-9

>  <UNII>
5S0W860XNR

>  <SYNONYMS>
(3S)-Tetrahydro-3-furanyl ((1S,2R)-3-(((4-aminophenyl)sulfonyl)(2-methylpropyl)amino)-2-hydroxy-1-(phenylmethyl)propyl)carbamate; Amprenavir; Ampr√©navir; Amprenavirum

$$$$
