1535
 OpenBabel10282417113D

 59 61  0  0  0  0  0  0  0  0999 V2000
    0.9992   -0.0120    0.0540 O   0  0  0  0  0  0  0  0  0  0  0  0
    1.0454   -2.0488    1.0740 O   0  0  0  0  0  0  0  0  0  0  0  0
   -3.9183   -1.0472    1.3700 O   0  0  0  0  0  0  0  0  0  0  0  0
   -1.9814   -1.0515   -2.2491 N   0  0  0  0  0  0  0  0  0  0  0  0
   -1.6969   -1.0204    2.0459 N   0  0  0  0  0  0  0  0  0  0  0  0
   -1.2016   -1.0232    0.6237 C   0  0  0  0  0  0  0  0  0  0  0  0
   -1.7793   -2.2997   -0.0488 C   0  0  0  0  0  0  0  0  0  0  0  0
   -1.7015    0.2304   -0.1383 C   0  0  0  0  0  0  0  0  0  0  0  0
   -1.5841   -2.2619   -1.5362 C   0  0  0  0  0  0  0  0  0  0  0  0
   -1.4229    0.1541   -1.6355 C   0  0  0  0  0  0  0  0  0  0  0  0
   -1.5830   -1.1370   -3.6809 C   0  0  0  0  0  0  0  0  0  0  0  0
    0.3929   -1.1166    0.5862 C   0  0  0  0  0  0  0  0  0  0  0  0
   -0.7222   -0.9768    3.0800 C   0  0  0  0  0  0  0  0  0  0  0  0
   -0.0524   -1.1811   -4.0284 C   0  0  0  0  0  0  0  0  0  0  0  0
   -3.0827   -1.0502    2.2832 C   0  0  0  0  0  0  0  0  0  0  0  0
   -3.6449   -0.9922    3.6902 C   0  0  0  0  0  0  0  0  0  0  0  0
    0.6638   -2.4222   -3.5101 C   0  0  0  0  0  0  0  0  0  0  0  0
    0.1131    0.1306    3.2315 C   0  0  0  0  0  0  0  0  0  0  0  0
   -0.5364   -2.0650    3.9259 C   0  0  0  0  0  0  0  0  0  0  0  0
   -3.4596   -2.2447    4.5123 C   0  0  0  0  0  0  0  0  0  0  0  0
    2.4393    0.0034    0.0470 C   0  0  0  0  0  0  0  0  0  0  0  0
    0.9830    0.2056    4.3205 C   0  0  0  0  0  0  0  0  0  0  0  0
    0.1656   -1.9068    5.1191 C   0  0  0  0  0  0  0  0  0  0  0  0
    1.4818   -2.3359   -2.3719 C   0  0  0  0  0  0  0  0  0  0  0  0
    0.2503   -3.6872   -3.9295 C   0  0  0  0  0  0  0  0  0  0  0  0
    0.9512   -0.7786    5.3053 C   0  0  0  0  0  0  0  0  0  0  0  0
    1.7215   -3.4607   -1.5655 C   0  0  0  0  0  0  0  0  0  0  0  0
    0.4927   -4.8090   -3.1283 C   0  0  0  0  0  0  0  0  0  0  0  0
    1.2133   -4.6975   -1.9402 C   0  0  0  0  0  0  0  0  0  0  0  0
   -1.2731   -3.1888    0.3556 H   0  0  0  0  0  0  0  0  0  0  0  0
   -2.8412   -2.4711    0.1210 H   0  0  0  0  0  0  0  0  0  0  0  0
   -2.7793    0.3733   -0.0218 H   0  0  0  0  0  0  0  0  0  0  0  0
   -1.2397    1.1354    0.2734 H   0  0  0  0  0  0  0  0  0  0  0  0
   -0.5278   -2.3205   -1.5663 H   0  0  0  0  0  0  0  0  0  0  0  0
   -1.9858   -3.1678   -2.0032 H   0  0  0  0  0  0  0  0  0  0  0  0
   -1.8431    1.0423   -2.1210 H   0  0  0  0  0  0  0  0  0  0  0  0
   -0.3466    0.2073   -1.7958 H   0  0  0  0  0  0  0  0  0  0  0  0
   -2.0857   -2.0066   -4.1259 H   0  0  0  0  0  0  0  0  0  0  0  0
   -2.0253   -0.2706   -4.1916 H   0  0  0  0  0  0  0  0  0  0  0  0
    0.0651   -1.1400   -5.1152 H   0  0  0  0  0  0  0  0  0  0  0  0
    0.4334   -0.2728   -3.6504 H   0  0  0  0  0  0  0  0  0  0  0  0
   -3.2677   -0.0967    4.1884 H   0  0  0  0  0  0  0  0  0  0  0  0
   -4.7304   -0.8541    3.5782 H   0  0  0  0  0  0  0  0  0  0  0  0
    0.1068    0.9347    2.5024 H   0  0  0  0  0  0  0  0  0  0  0  0
   -1.0190   -3.0175    3.7137 H   0  0  0  0  0  0  0  0  0  0  0  0
   -2.4665   -2.2929    4.9205 H   0  0  0  0  0  0  0  0  0  0  0  0
   -4.0684   -2.2376    5.4155 H   0  0  0  0  0  0  0  0  0  0  0  0
   -3.6371   -3.1549    3.9305 H   0  0  0  0  0  0  0  0  0  0  0  0
    2.7653    0.8610   -0.5520 H   0  0  0  0  0  0  0  0  0  0  0  0
    2.8271    0.1031    1.0615 H   0  0  0  0  0  0  0  0  0  0  0  0
    2.8674   -0.8925   -0.4110 H   0  0  0  0  0  0  0  0  0  0  0  0
    1.6532    1.0531    4.4208 H   0  0  0  0  0  0  0  0  0  0  0  0
    0.0657   -2.6491    5.9073 H   0  0  0  0  0  0  0  0  0  0  0  0
    1.7005   -1.3489   -1.9886 H   0  0  0  0  0  0  0  0  0  0  0  0
   -0.3754   -3.7826   -4.8111 H   0  0  0  0  0  0  0  0  0  0  0  0
    1.5509   -0.6814    6.2052 H   0  0  0  0  0  0  0  0  0  0  0  0
    2.1741   -3.3558   -0.5792 H   0  0  0  0  0  0  0  0  0  0  0  0
    0.0444   -5.7614   -3.3938 H   0  0  0  0  0  0  0  0  0  0  0  0
    1.3423   -5.5579   -1.2880 H   0  0  0  0  0  0  0  0  0  0  0  0
  1 12  1  0  0  0  0
  1 21  1  0  0  0  0
  2 12  2  0  0  0  0
  3 15  2  0  0  0  0
  4  9  1  0  0  0  0
  4 10  1  0  0  0  0
  4 11  1  0  0  0  0
  5  6  1  0  0  0  0
  5 13  1  0  0  0  0
  5 15  1  0  0  0  0
  6  7  1  0  0  0  0
  6  8  1  0  0  0  0
  6 12  1  0  0  0  0
  7  9  1  0  0  0  0
  7 30  1  0  0  0  0
  7 31  1  0  0  0  0
  8 10  1  0  0  0  0
  8 32  1  0  0  0  0
  8 33  1  0  0  0  0
  9 34  1  0  0  0  0
  9 35  1  0  0  0  0
 10 36  1  0  0  0  0
 10 37  1  0  0  0  0
 11 14  1  0  0  0  0
 11 38  1  0  0  0  0
 11 39  1  0  0  0  0
 13 18  2  0  0  0  0
 13 19  1  0  0  0  0
 14 17  1  0  0  0  0
 14 40  1  0  0  0  0
 14 41  1  0  0  0  0
 15 16  1  0  0  0  0
 16 20  1  0  0  0  0
 16 42  1  0  0  0  0
 16 43  1  0  0  0  0
 17 24  2  0  0  0  0
 17 25  1  0  0  0  0
 18 22  1  0  0  0  0
 18 44  1  0  0  0  0
 19 23  2  0  0  0  0
 19 45  1  0  0  0  0
 20 46  1  0  0  0  0
 20 47  1  0  0  0  0
 20 48  1  0  0  0  0
 21 49  1  0  0  0  0
 21 50  1  0  0  0  0
 21 51  1  0  0  0  0
 22 26  2  0  0  0  0
 22 52  1  0  0  0  0
 23 26  1  0  0  0  0
 23 53  1  0  0  0  0
 24 27  1  0  0  0  0
 24 54  1  0  0  0  0
 25 28  2  0  0  0  0
 25 55  1  0  0  0  0
 26 56  1  0  0  0  0
 27 29  2  0  0  0  0
 27 57  1  0  0  0  0
 28 29  1  0  0  0  0
 28 58  1  0  0  0  0
 29 59  1  0  0  0  0
M  END
>  <DRUGBANK_ID>
DB01535

>  <COMMON_NAME>
Carfentanil

>  <CAS_NUMBER>
59708-52-0

>  <UNII>
LA9DTA2L8F

>  <SYNONYMS>
Carfentanil; carfentanila; Carfentanyl

$$$$
