1170
 OpenBabel10282417113D

 36 36  0  0  0  0  0  0  0  0999 V2000
   -1.3900    0.0304    0.7703 N   0  0  0  0  0  0  0  0  0  0  0  0
   -4.0313   -1.2720   -0.1937 N   0  0  0  0  0  0  0  0  0  0  0  0
   -2.6815   -0.3755   -1.9096 N   0  0  0  0  0  0  0  0  0  0  0  0
   -3.3780   -2.4640   -2.0738 N   0  0  0  0  0  0  0  0  0  0  0  0
   -1.2154    1.3463    0.1127 C   0  0  0  0  0  0  0  0  0  0  0  0
   -1.0188   -1.3161    0.2963 C   0  0  0  0  0  0  0  0  0  0  0  0
    0.1135    1.5596   -0.5895 C   0  0  0  0  0  0  0  0  0  0  0  0
    0.2611   -1.5521   -0.4647 C   0  0  0  0  0  0  0  0  0  0  0  0
    1.2549    1.2997    0.3894 C   0  0  0  0  0  0  0  0  0  0  0  0
    1.4028   -1.2566    0.4667 C   0  0  0  0  0  0  0  0  0  0  0  0
    2.0792    0.0483    0.0820 C   0  0  0  0  0  0  0  0  0  0  0  0
   -2.6352   -0.0343    1.5483 C   0  0  0  0  0  0  0  0  0  0  0  0
   -3.9196   -0.0758    0.6806 C   0  0  0  0  0  0  0  0  0  0  0  0
   -3.4749   -1.3172   -1.3702 C   0  0  0  0  0  0  0  0  0  0  0  0
   -1.8394   -0.7182   -2.3617 H   0  0  0  0  0  0  0  0  0  0  0  0
   -2.3361    0.0966   -1.0965 H   0  0  0  0  0  0  0  0  0  0  0  0
   -3.7112   -3.2506   -1.5286 H   0  0  0  0  0  0  0  0  0  0  0  0
   -2.4340   -2.6591   -2.3972 H   0  0  0  0  0  0  0  0  0  0  0  0
   -2.0022    1.6479   -0.5951 H   0  0  0  0  0  0  0  0  0  0  0  0
   -1.3268    2.1351    0.8710 H   0  0  0  0  0  0  0  0  0  0  0  0
   -1.0641   -2.0171    1.1432 H   0  0  0  0  0  0  0  0  0  0  0  0
   -1.7184   -1.7985   -0.3492 H   0  0  0  0  0  0  0  0  0  0  0  0
    0.1726    0.9729   -1.5103 H   0  0  0  0  0  0  0  0  0  0  0  0
    0.1556    2.6012   -0.9386 H   0  0  0  0  0  0  0  0  0  0  0  0
    0.2933   -0.9995   -1.4072 H   0  0  0  0  0  0  0  0  0  0  0  0
    0.2887   -2.6027   -0.7910 H   0  0  0  0  0  0  0  0  0  0  0  0
    1.9179    2.1681    0.3678 H   0  0  0  0  0  0  0  0  0  0  0  0
    0.8706    1.2430    1.4166 H   0  0  0  0  0  0  0  0  0  0  0  0
    2.1057   -2.0936    0.4237 H   0  0  0  0  0  0  0  0  0  0  0  0
    1.0511   -1.2099    1.5065 H   0  0  0  0  0  0  0  0  0  0  0  0
    2.3435    0.0280   -0.9815 H   0  0  0  0  0  0  0  0  0  0  0  0
    3.0066    0.1041    0.6545 H   0  0  0  0  0  0  0  0  0  0  0  0
   -2.5990   -0.8910    2.2358 H   0  0  0  0  0  0  0  0  0  0  0  0
   -2.6597    0.8367    2.2213 H   0  0  0  0  0  0  0  0  0  0  0  0
   -4.7661   -0.0877    1.3772 H   0  0  0  0  0  0  0  0  0  0  0  0
   -4.0124    0.8582    0.1150 H   0  0  0  0  0  0  0  0  0  0  0  0
  1  5  1  0  0  0  0
  1  6  1  0  0  0  0
  1 12  1  0  0  0  0
  2 13  1  0  0  0  0
  2 14  2  0  0  0  0
  3 14  1  0  0  0  0
  3 15  1  0  0  0  0
  3 16  1  0  0  0  0
  4 14  1  0  0  0  0
  4 17  1  0  0  0  0
  4 18  1  0  0  0  0
  5  7  1  0  0  0  0
  5 19  1  0  0  0  0
  5 20  1  0  0  0  0
  6  8  1  0  0  0  0
  6 21  1  0  0  0  0
  6 22  1  0  0  0  0
  7  9  1  0  0  0  0
  7 23  1  0  0  0  0
  7 24  1  0  0  0  0
  8 10  1  0  0  0  0
  8 25  1  0  0  0  0
  8 26  1  0  0  0  0
  9 11  1  0  0  0  0
  9 27  1  0  0  0  0
  9 28  1  0  0  0  0
 10 11  1  0  0  0  0
 10 29  1  0  0  0  0
 10 30  1  0  0  0  0
 11 31  1  0  0  0  0
 11 32  1  0  0  0  0
 12 13  1  0  0  0  0
 12 33  1  0  0  0  0
 12 34  1  0  0  0  0
 13 35  1  0  0  0  0
 13 36  1  0  0  0  0
M  END
>  <DRUGBANK_ID>
DB01170

>  <SECONDARY_ACCESSION_NUMBERS>
APRD01007

>  <COMMON_NAME>
Guanethidine

>  <CAS_NUMBER>
55-65-2

>  <UNII>
ZTI6C33Q2Q

>  <SYNONYMS>
(2-(hexahydro-1(2h)-azocinyl)ethyl)guanidine; (2-(Octahydro-1-azocinyl)ethyl)guanidine; 2-(1-N,N-Heptamethyleneimino)ethylguanidine; 2-(1'-Azacyclooctyl)ethylguanidine; Azocine, 1-(2-guanidinoethyl)octahydro-; Guanethidine; guan√©thidine; guanethidinum; guanetidina; Guanidine, (2-(hexahydro-1(2H)-azocinyl)ethyl)-; Heptamethylenimine, 1-(2-guanidinoethyl)-; N-(2-Perhydroazocin-1-ylethyl)guanidine

$$$$
