ZYT
 OpenBabel10282417173D

 24 25  0  0  0  0  0  0  0  0999 V2000
    0.9315   -0.0191    0.1566 C   0  0  0  0  0  0  0  0  0  0  0  0
    0.4490    0.0767    1.8980 S   0  0  0  0  0  0  0  0  0  0  0  0
    0.8729   -1.4908    2.4782 C   0  0  0  0  0  0  0  0  0  0  0  0
    1.6296   -1.6331    3.6105 N   0  0  0  0  0  0  0  0  0  0  0  0
    0.4873   -2.6455    1.9925 N   0  0  0  0  0  0  0  0  0  0  0  0
    1.0329   -3.5586    2.8371 C   0  0  0  0  0  0  0  0  0  0  0  0
    0.8893   -4.8740    2.7016 O   0  0  0  0  0  0  0  0  0  0  0  0
    1.7233   -2.9788    3.8800 C   0  0  0  0  0  0  0  0  0  0  0  0
    2.4172   -3.5745    5.0587 C   0  0  0  0  0  0  0  0  0  0  0  0
    1.4748   -4.3212    5.9736 C   0  0  0  0  0  0  0  0  0  0  0  0
    0.6484   -5.3948    5.6877 C   0  0  0  0  0  0  0  0  0  0  0  0
   -0.1253   -5.8191    6.7995 C   0  0  0  0  0  0  0  0  0  0  0  0
    0.1816   -5.1005    7.9292 C   0  0  0  0  0  0  0  0  0  0  0  0
    1.3499   -3.8875    7.6285 S   0  0  0  0  0  0  0  0  0  0  0  0
    0.5620    0.8728   -0.3608 H   0  0  0  0  0  0  0  0  0  0  0  0
    0.5218   -0.8975   -0.3501 H   0  0  0  0  0  0  0  0  0  0  0  0
    2.0218   -0.0262    0.0714 H   0  0  0  0  0  0  0  0  0  0  0  0
    2.0239   -0.8683    4.1441 H   0  0  0  0  0  0  0  0  0  0  0  0
    0.1760   -5.0103    2.0563 H   0  0  0  0  0  0  0  0  0  0  0  0
    3.1897   -4.2710    4.7073 H   0  0  0  0  0  0  0  0  0  0  0  0
    2.9497   -2.7906    5.6149 H   0  0  0  0  0  0  0  0  0  0  0  0
    0.5711   -5.8605    4.7159 H   0  0  0  0  0  0  0  0  0  0  0  0
   -0.8521   -6.6213    6.7635 H   0  0  0  0  0  0  0  0  0  0  0  0
   -0.2284   -5.2270    8.9200 H   0  0  0  0  0  0  0  0  0  0  0  0
  1  2  1  0  0  0  0
  1 15  1  0  0  0  0
  1 16  1  0  0  0  0
  1 17  1  0  0  0  0
  2  3  1  0  0  0  0
  3  4  1  0  0  0  0
  3  5  2  0  0  0  0
  4  8  1  0  0  0  0
  4 18  1  0  0  0  0
  5  6  1  0  0  0  0
  6  7  1  0  0  0  0
  6  8  2  0  0  0  0
  7 19  1  0  0  0  0
  8  9  1  0  0  0  0
  9 10  1  0  0  0  0
  9 20  1  0  0  0  0
  9 21  1  0  0  0  0
 10 11  2  0  0  0  0
 10 14  1  0  0  0  0
 11 12  1  0  0  0  0
 11 22  1  0  0  0  0
 12 13  2  0  0  0  0
 12 23  1  0  0  0  0
 13 14  1  0  0  0  0
 13 24  1  0  0  0  0
M  END
>  <DRUGBANK_ID>
DB08779

>  <COMMON_NAME>
2-(methylsulfanyl)-5-(thiophen-2-ylmethyl)-1H-imidazol-4-ol

$$$$
