170
 OpenBabel10282417103D

 21 22  0  0  0  0  0  0  0  0999 V2000
   -1.4677    2.2267   -0.0345 O   0  0  0  0  0  0  0  0  0  0  0  0
    0.1273   -2.8687   -0.0094 O   0  0  0  0  0  0  0  0  0  0  0  0
    0.3490    0.7306   -0.0088 C   0  0  0  0  0  0  0  0  0  0  0  0
    0.7745   -0.5967   -0.0040 C   0  0  0  0  0  0  0  0  0  0  0  0
   -2.0650   -0.0624    0.0191 C   0  0  0  0  0  0  0  0  0  0  0  0
   -1.0910    1.0614   -0.0141 C   0  0  0  0  0  0  0  0  0  0  0  0
   -0.2101   -1.6930    0.0134 C   0  0  0  0  0  0  0  0  0  0  0  0
   -1.6392   -1.3309    0.0550 C   0  0  0  0  0  0  0  0  0  0  0  0
    1.2938    1.7651   -0.0038 C   0  0  0  0  0  0  0  0  0  0  0  0
    2.1431   -0.8955   -0.0040 C   0  0  0  0  0  0  0  0  0  0  0  0
   -3.5159    0.3041    0.0037 C   0  0  0  0  0  0  0  0  0  0  0  0
    2.6573    1.4663    0.0129 C   0  0  0  0  0  0  0  0  0  0  0  0
    3.0816    0.1377    0.0111 C   0  0  0  0  0  0  0  0  0  0  0  0
   -2.3293   -2.1667    0.0992 H   0  0  0  0  0  0  0  0  0  0  0  0
    0.9707    2.8048   -0.0076 H   0  0  0  0  0  0  0  0  0  0  0  0
    2.4808   -1.9306   -0.0099 H   0  0  0  0  0  0  0  0  0  0  0  0
   -3.7715    0.9128    0.8766 H   0  0  0  0  0  0  0  0  0  0  0  0
   -3.7576    0.8696   -0.9025 H   0  0  0  0  0  0  0  0  0  0  0  0
   -4.1569   -0.5841    0.0167 H   0  0  0  0  0  0  0  0  0  0  0  0
    3.3884    2.2717    0.0275 H   0  0  0  0  0  0  0  0  0  0  0  0
    4.1444   -0.0939    0.0244 H   0  0  0  0  0  0  0  0  0  0  0  0
  1  6  2  0  0  0  0
  2  7  2  0  0  0  0
  3  4  1  0  0  0  0
  3  6  1  0  0  0  0
  3  9  2  0  0  0  0
  4  7  1  0  0  0  0
  4 10  2  0  0  0  0
  5  6  1  0  0  0  0
  5  8  2  0  0  0  0
  5 11  1  0  0  0  0
  7  8  1  0  0  0  0
  8 14  1  0  0  0  0
  9 12  1  0  0  0  0
  9 15  1  0  0  0  0
 10 13  1  0  0  0  0
 10 16  1  0  0  0  0
 11 17  1  0  0  0  0
 11 18  1  0  0  0  0
 11 19  1  0  0  0  0
 12 13  2  0  0  0  0
 12 20  1  0  0  0  0
 13 21  1  0  0  0  0
M  END
>  <DRUGBANK_ID>
DB00170

>  <SECONDARY_ACCESSION_NUMBERS>
NUTR00062

>  <COMMON_NAME>
Menadione

>  <CAS_NUMBER>
58-27-5

>  <UNII>
723JX6CXY5

>  <SYNONYMS>
2-Methyl-1,4-Naphthalenedione; 2-Methyl-1,4-naphthochinon; 2-Methyl-1,4-naphthoquinone; Menadione; Vitamin K 3; Vitamin K3

$$$$
