
 OpenBabel10282417223D

 62 61  0  0  0  0  0  0  0  0999 V2000
    1.1591   -0.0121    0.0989 C   0  0  0  0  0  0  0  0  0  0  0  0
    0.2957   -1.2246    0.3815 C   0  0  0  0  0  0  0  0  0  0  0  0
    0.5657    1.1495   -0.1747 C   0  0  0  0  0  0  0  0  0  0  0  0
    2.6383   -0.0884    0.1207 C   0  0  0  0  0  0  0  0  0  0  0  0
   -0.5865   -1.0891    1.6491 C   0  0  0  0  0  0  0  0  0  0  0  0
    1.1008    2.5116   -0.4334 C   0  0  0  0  0  0  0  0  0  0  0  0
   -1.6783   -0.0397    1.5765 C   0  0  0  0  0  0  0  0  0  0  0  0
    0.6106    3.0160   -1.7963 C   0  0  0  0  0  0  0  0  0  0  0  0
   -2.9986   -0.2792    1.5317 C   0  0  0  0  0  0  0  0  0  0  0  0
   -0.8938    3.2878   -1.8965 C   0  0  0  0  0  0  0  0  0  0  0  0
   -3.9948    0.8246    1.2172 C   0  0  0  0  0  0  0  0  0  0  0  0
   -3.4947   -1.6617    1.8233 C   0  0  0  0  0  0  0  0  0  0  0  0
   -1.3290    4.5330   -2.1372 C   0  0  0  0  0  0  0  0  0  0  0  0
   -1.8739    2.1583   -1.7354 C   0  0  0  0  0  0  0  0  0  0  0  0
   -4.8291    0.5870   -0.0608 C   0  0  0  0  0  0  0  0  0  0  0  0
   -2.7654    4.9697   -2.1705 C   0  0  0  0  0  0  0  0  0  0  0  0
   -5.7042   -0.6321    0.0274 C   0  0  0  0  0  0  0  0  0  0  0  0
   -3.0865    5.9464   -1.0549 C   0  0  0  0  0  0  0  0  0  0  0  0
   -7.0389   -0.6518    0.1550 C   0  0  0  0  0  0  0  0  0  0  0  0
   -2.3506    7.2499   -1.2403 C   0  0  0  0  0  0  0  0  0  0  0  0
   -7.7647   -1.9354    0.4425 C   0  0  0  0  0  0  0  0  0  0  0  0
   -7.8403    0.5997   -0.0012 C   0  0  0  0  0  0  0  0  0  0  0  0
   -3.1511    8.4729   -1.5479 C   0  0  0  0  0  0  0  0  0  0  0  0
   -1.1162    7.3284   -1.1628 O   0  0  0  0  0  0  0  0  0  0  0  0
   -0.3382   -1.4403   -0.4936 H   0  0  0  0  0  0  0  0  0  0  0  0
    0.9331   -2.1074    0.5040 H   0  0  0  0  0  0  0  0  0  0  0  0
   -0.4946    1.0742   -0.2208 H   0  0  0  0  0  0  0  0  0  0  0  0
    2.9939   -1.0992    0.3141 H   0  0  0  0  0  0  0  0  0  0  0  0
    3.0280    0.2381   -0.8505 H   0  0  0  0  0  0  0  0  0  0  0  0
    3.0191    0.5802    0.8989 H   0  0  0  0  0  0  0  0  0  0  0  0
   -1.0215   -2.0783    1.8221 H   0  0  0  0  0  0  0  0  0  0  0  0
    0.0389   -0.8675    2.5175 H   0  0  0  0  0  0  0  0  0  0  0  0
    0.7705    3.1865    0.3675 H   0  0  0  0  0  0  0  0  0  0  0  0
    2.1952    2.5080   -0.4084 H   0  0  0  0  0  0  0  0  0  0  0  0
   -1.3589    0.9987    1.5365 H   0  0  0  0  0  0  0  0  0  0  0  0
    1.1757    3.9359   -2.0032 H   0  0  0  0  0  0  0  0  0  0  0  0
    0.9015    2.3049   -2.5789 H   0  0  0  0  0  0  0  0  0  0  0  0
   -4.6482    0.9857    2.0828 H   0  0  0  0  0  0  0  0  0  0  0  0
   -3.4680    1.7800    1.0721 H   0  0  0  0  0  0  0  0  0  0  0  0
   -3.2561   -2.3283    0.9866 H   0  0  0  0  0  0  0  0  0  0  0  0
   -3.0296   -2.0442    2.7356 H   0  0  0  0  0  0  0  0  0  0  0  0
   -4.5649   -1.6886    2.0282 H   0  0  0  0  0  0  0  0  0  0  0  0
   -0.5826    5.3132   -2.2872 H   0  0  0  0  0  0  0  0  0  0  0  0
   -1.5704    1.2889   -2.3223 H   0  0  0  0  0  0  0  0  0  0  0  0
   -1.9966    1.9237   -0.6805 H   0  0  0  0  0  0  0  0  0  0  0  0
   -2.8952    2.3726   -2.0393 H   0  0  0  0  0  0  0  0  0  0  0  0
   -5.4261    1.4890   -0.2385 H   0  0  0  0  0  0  0  0  0  0  0  0
   -4.1784    0.4780   -0.9343 H   0  0  0  0  0  0  0  0  0  0  0  0
   -2.9818    5.3863   -3.1582 H   0  0  0  0  0  0  0  0  0  0  0  0
   -3.4645    4.1430   -2.0406 H   0  0  0  0  0  0  0  0  0  0  0  0
   -5.1875   -1.5867    0.0212 H   0  0  0  0  0  0  0  0  0  0  0  0
   -4.1679    6.1249   -1.0543 H   0  0  0  0  0  0  0  0  0  0  0  0
   -2.8403    5.5364   -0.0677 H   0  0  0  0  0  0  0  0  0  0  0  0
   -8.3756   -1.8353    1.3465 H   0  0  0  0  0  0  0  0  0  0  0  0
   -8.4082   -2.2074   -0.3970 H   0  0  0  0  0  0  0  0  0  0  0  0
   -7.0729   -2.7686    0.6210 H   0  0  0  0  0  0  0  0  0  0  0  0
   -7.5873    1.3277    0.7760 H   0  0  0  0  0  0  0  0  0  0  0  0
   -7.6209    1.0392   -0.9822 H   0  0  0  0  0  0  0  0  0  0  0  0
   -8.9132    0.4038    0.0363 H   0  0  0  0  0  0  0  0  0  0  0  0
   -2.9153    9.2263   -0.7936 H   0  0  0  0  0  0  0  0  0  0  0  0
   -2.8863    8.8284   -2.5461 H   0  0  0  0  0  0  0  0  0  0  0  0
   -4.2217    8.2614   -1.5153 H   0  0  0  0  0  0  0  0  0  0  0  0
  1  2  1  0  0  0  0
  1  3  2  0  0  0  0
  1  4  1  0  0  0  0
  2  5  1  0  0  0  0
  2 25  1  0  0  0  0
  2 26  1  0  0  0  0
  3  6  1  0  0  0  0
  3 27  1  0  0  0  0
  4 28  1  0  0  0  0
  4 29  1  0  0  0  0
  4 30  1  0  0  0  0
  5  7  1  0  0  0  0
  5 31  1  0  0  0  0
  5 32  1  0  0  0  0
  6  8  1  0  0  0  0
  6 33  1  0  0  0  0
  6 34  1  0  0  0  0
  7  9  2  0  0  0  0
  7 35  1  0  0  0  0
  8 10  1  0  0  0  0
  8 36  1  0  0  0  0
  8 37  1  0  0  0  0
  9 11  1  0  0  0  0
  9 12  1  0  0  0  0
 10 13  2  0  0  0  0
 10 14  1  0  0  0  0
 11 15  1  0  0  0  0
 11 38  1  0  0  0  0
 11 39  1  0  0  0  0
 12 40  1  0  0  0  0
 12 41  1  0  0  0  0
 12 42  1  0  0  0  0
 13 16  1  0  0  0  0
 13 43  1  0  0  0  0
 14 44  1  0  0  0  0
 14 45  1  0  0  0  0
 14 46  1  0  0  0  0
 15 17  1  0  0  0  0
 15 47  1  0  0  0  0
 15 48  1  0  0  0  0
 16 18  1  0  0  0  0
 16 49  1  0  0  0  0
 16 50  1  0  0  0  0
 17 19  2  0  0  0  0
 17 51  1  0  0  0  0
 18 20  1  0  0  0  0
 18 52  1  0  0  0  0
 18 53  1  0  0  0  0
 19 21  1  0  0  0  0
 19 22  1  0  0  0  0
 20 23  1  0  0  0  0
 20 24  2  0  0  0  0
 21 54  1  0  0  0  0
 21 55  1  0  0  0  0
 21 56  1  0  0  0  0
 22 57  1  0  0  0  0
 22 58  1  0  0  0  0
 22 59  1  0  0  0  0
 23 60  1  0  0  0  0
 23 61  1  0  0  0  0
 23 62  1  0  0  0  0
M  END
>  <DRUGBANK_ID>
DB15955

>  <COMMON_NAME>
Teprenone

>  <CAS_NUMBER>
6809-52-5

>  <UNII>
57B67OXM8F

>  <SYNONYMS>
Geranylgeranylacetone; Teprenona; Teprenone; Teprenonum; Tetraprenylacetone

$$$$
