751
 OpenBabel10282417113D

 34 37  0  0  1  0  0  0  0  0999 V2000
   -0.1701    4.3466    0.3775 N   0  0  0  0  0  0  0  0  0  0  0  0
   -0.4951    2.1640    1.0301 N   0  0  0  0  0  0  0  0  0  0  0  0
    1.0956    2.4893   -0.3842 N   0  0  0  0  0  0  0  0  0  0  0  0
   -1.5751    4.1141    0.0354 C   0  0  3  0  0  0  0  0  0  0  0  0
   -1.7610    4.8736   -1.2719 C   0  0  0  0  0  0  0  0  0  0  0  0
   -1.6802    2.5860    0.2054 C   0  0  0  0  0  0  0  0  0  0  0  0
   -0.0656    5.4915    1.2691 C   0  0  0  0  0  0  0  0  0  0  0  0
   -1.9339    6.2715   -1.1353 C   0  0  0  0  0  0  0  0  0  0  0  0
   -2.0921    6.8539    0.2408 C   0  0  0  0  0  0  0  0  0  0  0  0
   -0.8837    6.6778    1.1570 C   0  0  0  0  0  0  0  0  0  0  0  0
    0.3666    3.0870    0.6240 C   0  0  0  0  0  0  0  0  0  0  0  0
   -1.4877    4.3575   -2.5380 C   0  0  0  0  0  0  0  0  0  0  0  0
   -1.8685    7.1241   -2.2553 C   0  0  0  0  0  0  0  0  0  0  0  0
    0.9068    5.4913    2.2840 C   0  0  0  0  0  0  0  0  0  0  0  0
   -0.6542    7.7812    2.0149 C   0  0  0  0  0  0  0  0  0  0  0  0
   -1.4328    5.2169   -3.6559 C   0  0  0  0  0  0  0  0  0  0  0  0
   -1.6245    6.5871   -3.5056 C   0  0  0  0  0  0  0  0  0  0  0  0
    1.1132    6.6031    3.1177 C   0  0  0  0  0  0  0  0  0  0  0  0
    0.3501    7.7555    2.9667 C   0  0  0  0  0  0  0  0  0  0  0  0
    0.4084    1.9627   -0.9355 H   0  0  0  0  0  0  0  0  0  0  0  0
    1.5492    1.6745    0.0256 H   0  0  0  0  0  0  0  0  0  0  0  0
   -2.2753    4.4734    0.7974 H   0  0  0  0  0  0  0  0  0  0  0  0
   -2.5688    2.2503    0.7399 H   0  0  0  0  0  0  0  0  0  0  0  0
   -1.6366    2.0629   -0.7531 H   0  0  0  0  0  0  0  0  0  0  0  0
   -2.9770    6.4095    0.7201 H   0  0  0  0  0  0  0  0  0  0  0  0
   -2.3541    7.9169    0.1505 H   0  0  0  0  0  0  0  0  0  0  0  0
   -1.2314    3.3150   -2.6813 H   0  0  0  0  0  0  0  0  0  0  0  0
   -1.9658    8.1993   -2.1330 H   0  0  0  0  0  0  0  0  0  0  0  0
    1.5227    4.6114    2.4524 H   0  0  0  0  0  0  0  0  0  0  0  0
   -1.2683    8.6800    1.9343 H   0  0  0  0  0  0  0  0  0  0  0  0
   -1.1952    4.8134   -4.6338 H   0  0  0  0  0  0  0  0  0  0  0  0
   -1.5493    7.2506   -4.3715 H   0  0  0  0  0  0  0  0  0  0  0  0
    1.8828    6.5723    3.8825 H   0  0  0  0  0  0  0  0  0  0  0  0
    0.5313    8.6277    3.5905 H   0  0  0  0  0  0  0  0  0  0  0  0
  1  4  1  0  0  0  0
  1  7  1  0  0  0  0
  1 11  1  0  0  0  0
  2  6  1  0  0  0  0
  2 11  2  0  0  0  0
  3 11  1  0  0  0  0
  3 20  1  0  0  0  0
  3 21  1  0  0  0  0
  4  5  1  0  0  0  0
  4  6  1  0  0  0  0
  4 22  1  0  0  0  0
  5  8  1  0  0  0  0
  5 12  2  0  0  0  0
  6 23  1  0  0  0  0
  6 24  1  0  0  0  0
  7 10  1  0  0  0  0
  7 14  2  0  0  0  0
  8  9  1  0  0  0  0
  8 13  2  0  0  0  0
  9 10  1  0  0  0  0
  9 25  1  0  0  0  0
  9 26  1  0  0  0  0
 10 15  2  0  0  0  0
 12 16  1  0  0  0  0
 12 27  1  0  0  0  0
 13 17  1  0  0  0  0
 13 28  1  0  0  0  0
 14 18  1  0  0  0  0
 14 29  1  0  0  0  0
 15 19  1  0  0  0  0
 15 30  1  0  0  0  0
 16 17  2  0  0  0  0
 16 31  1  0  0  0  0
 17 32  1  0  0  0  0
 18 19  2  0  0  0  0
 18 33  1  0  0  0  0
 19 34  1  0  0  0  0
M  END
>  <DRUGBANK_ID>
DB00751

>  <SECONDARY_ACCESSION_NUMBERS>
APRD00043

>  <COMMON_NAME>
Epinastine

>  <CAS_NUMBER>
80012-43-7

>  <UNII>
Q13WX941EF

>  <SYNONYMS>
(±)-epinastine; 3-amino-9,13b-dihydro-1H-dibenz(c,f)imidazo(1,5-a)azepine; Epinastin; Epinastina; Epinastine; épinastine; Epinastinum

$$$$
