
 OpenBabel10282417183D

 35 37  0  0  0  0  0  0  0  0999 V2000
   -2.3158   -0.0519   -0.0033 C   0  0  0  0  0  0  0  0  0  0  0  0
   -1.6048    1.0456   -0.1036 N   0  0  0  0  0  0  0  0  0  0  0  0
   -3.7948   -0.0850    0.0060 C   0  0  0  0  0  0  0  0  0  0  0  0
   -1.5168   -1.1653    0.0662 N   0  0  0  0  0  0  0  0  0  0  0  0
   -0.3100    0.6212   -0.0254 C   0  0  0  0  0  0  0  0  0  0  0  0
    3.4641    2.9167   -0.0794 C   0  0  0  0  0  0  0  0  0  0  0  0
   -4.4970   -0.8085    0.9486 N   0  0  0  0  0  0  0  0  0  0  0  0
   -0.2081   -0.7575    0.0207 C   0  0  0  0  0  0  0  0  0  0  0  0
    0.8455    1.3926   -0.0131 C   0  0  0  0  0  0  0  0  0  0  0  0
    3.2988    1.5495   -0.0482 N   0  0  0  0  0  0  0  0  0  0  0  0
   -6.2139    0.3140   -0.6249 S   0  0  0  0  0  0  0  0  0  0  0  0
   -5.7824   -0.5981    0.7649 C   0  0  0  0  0  0  0  0  0  0  0  0
   -4.5498    0.5752   -0.9408 C   0  0  0  0  0  0  0  0  0  0  0  0
    2.1052    0.7929   -0.0162 C   0  0  0  0  0  0  0  0  0  0  0  0
    4.5883    3.4116   -0.1173 O   0  0  0  0  0  0  0  0  0  0  0  0
    2.3138    3.6224   -0.0646 O   0  0  0  0  0  0  0  0  0  0  0  0
    1.0222   -1.4205    0.0189 C   0  0  0  0  0  0  0  0  0  0  0  0
    2.1806   -0.6112   -0.0035 C   0  0  0  0  0  0  0  0  0  0  0  0
    2.2490    5.0586   -0.0844 C   0  0  0  0  0  0  0  0  0  0  0  0
    2.8833    5.6411    1.1644 C   0  0  0  0  0  0  0  0  0  0  0  0
    2.8216    5.6046   -1.3787 C   0  0  0  0  0  0  0  0  0  0  0  0
   -1.8594   -2.1129    0.0541 H   0  0  0  0  0  0  0  0  0  0  0  0
    0.6577    2.4496   -0.0102 H   0  0  0  0  0  0  0  0  0  0  0  0
    4.1811    1.0560   -0.0654 H   0  0  0  0  0  0  0  0  0  0  0  0
   -6.5342   -0.9971    1.4327 H   0  0  0  0  0  0  0  0  0  0  0  0
   -4.2067    1.1331   -1.8016 H   0  0  0  0  0  0  0  0  0  0  0  0
    1.0872   -2.5032    0.0326 H   0  0  0  0  0  0  0  0  0  0  0  0
    3.1481   -1.1128   -0.0062 H   0  0  0  0  0  0  0  0  0  0  0  0
    1.1778    5.3079   -0.0621 H   0  0  0  0  0  0  0  0  0  0  0  0
    3.9340    5.3550    1.2430 H   0  0  0  0  0  0  0  0  0  0  0  0
    2.8201    6.7321    1.1680 H   0  0  0  0  0  0  0  0  0  0  0  0
    2.3817    5.2537    2.0585 H   0  0  0  0  0  0  0  0  0  0  0  0
    2.2776    5.1924   -2.2360 H   0  0  0  0  0  0  0  0  0  0  0  0
    2.7576    6.6952   -1.4103 H   0  0  0  0  0  0  0  0  0  0  0  0
    3.8676    5.3157   -1.4998 H   0  0  0  0  0  0  0  0  0  0  0  0
  2  1  2  0  0  0  0
  3  1  1  0  0  0  0
  4  1  1  0  0  0  0
  4 22  1  0  0  0  0
  5  2  1  0  0  0  0
  5  8  2  0  0  0  0
  6 10  1  0  0  0  0
  7  3  1  0  0  0  0
  8  4  1  0  0  0  0
  9  5  1  0  0  0  0
  9 23  1  0  0  0  0
 10 14  1  0  0  0  0
 10 24  1  0  0  0  0
 11 13  1  0  0  0  0
 11 12  1  0  0  0  0
 12  7  2  0  0  0  0
 12 25  1  0  0  0  0
 13  3  2  0  0  0  0
 13 26  1  0  0  0  0
 14  9  2  0  0  0  0
 14 18  1  0  0  0  0
 15  6  2  0  0  0  0
 16  6  1  0  0  0  0
 17  8  1  0  0  0  0
 17 27  1  0  0  0  0
 18 17  2  0  0  0  0
 18 28  1  0  0  0  0
 19 16  1  0  0  0  0
 19 29  1  0  0  0  0
 20 19  1  0  0  0  0
 20 30  1  0  0  0  0
 20 31  1  0  0  0  0
 20 32  1  0  0  0  0
 21 19  1  0  0  0  0
 21 33  1  0  0  0  0
 21 34  1  0  0  0  0
 21 35  1  0  0  0  0
M  END
>  <DRUGBANK_ID>
DB11380

>  <COMMON_NAME>
Cambendazole

>  <CAS_NUMBER>
26097-80-3

>  <UNII>
079X63S3DU

>  <SYNONYMS>
Cambendazol; Cambendazole; Cambendazolum

$$$$
