600
 OpenBabel10282417103D

 27 28  0  0  0  0  0  0  0  0999 V2000
    2.2004    0.0383   -0.0103 O   0  0  0  0  0  0  0  0  0  0  0  0
   -3.3090    0.1560   -0.0183 O   0  0  0  0  0  0  0  0  0  0  0  0
    2.7738   -2.0266    1.2189 C   0  0  0  0  0  0  0  0  0  0  0  0
    2.9371   -1.1866   -0.0289 C   0  0  0  0  0  0  0  0  0  0  0  0
    0.8348   -0.0370   -0.0429 C   0  0  0  0  0  0  0  0  0  0  0  0
    2.7044   -3.4230    1.1150 C   0  0  0  0  0  0  0  0  0  0  0  0
    2.7094   -1.4299    2.4856 C   0  0  0  0  0  0  0  0  0  0  0  0
    0.0793   -1.2146   -0.0681 C   0  0  0  0  0  0  0  0  0  0  0  0
    0.1788    1.1919   -0.0125 C   0  0  0  0  0  0  0  0  0  0  0  0
    2.6059   -4.2105    2.2601 C   0  0  0  0  0  0  0  0  0  0  0  0
    2.6517   -2.2212    3.6309 C   0  0  0  0  0  0  0  0  0  0  0  0
    2.6017   -3.6089    3.5177 C   0  0  0  0  0  0  0  0  0  0  0  0
   -1.3134   -1.1645   -0.0394 C   0  0  0  0  0  0  0  0  0  0  0  0
   -1.2156    1.2477   -0.0090 C   0  0  0  0  0  0  0  0  0  0  0  0
   -1.9498    0.0656   -0.0212 C   0  0  0  0  0  0  0  0  0  0  0  0
   -3.6729   -0.7449   -0.0433 H   0  0  0  0  0  0  0  0  0  0  0  0
    2.7029   -1.7461   -0.9437 H   0  0  0  0  0  0  0  0  0  0  0  0
    3.9989   -0.9200   -0.0963 H   0  0  0  0  0  0  0  0  0  0  0  0
    2.7072   -3.9026    0.1381 H   0  0  0  0  0  0  0  0  0  0  0  0
    2.6923   -0.3460    2.5806 H   0  0  0  0  0  0  0  0  0  0  0  0
    0.5357   -2.1944   -0.0870 H   0  0  0  0  0  0  0  0  0  0  0  0
    0.7561    2.1138    0.0143 H   0  0  0  0  0  0  0  0  0  0  0  0
    2.5459   -5.2912    2.1713 H   0  0  0  0  0  0  0  0  0  0  0  0
    2.6520   -1.7511    4.6109 H   0  0  0  0  0  0  0  0  0  0  0  0
    2.5555   -4.2237    4.4122 H   0  0  0  0  0  0  0  0  0  0  0  0
   -1.8689   -2.0981   -0.0265 H   0  0  0  0  0  0  0  0  0  0  0  0
   -1.7244    2.2044    0.0086 H   0  0  0  0  0  0  0  0  0  0  0  0
  1  4  1  0  0  0  0
  1  5  1  0  0  0  0
  2 15  1  0  0  0  0
  2 16  1  0  0  0  0
  3  4  1  0  0  0  0
  3  6  2  0  0  0  0
  3  7  1  0  0  0  0
  4 17  1  0  0  0  0
  4 18  1  0  0  0  0
  5  8  2  0  0  0  0
  5  9  1  0  0  0  0
  6 10  1  0  0  0  0
  6 19  1  0  0  0  0
  7 11  2  0  0  0  0
  7 20  1  0  0  0  0
  8 13  1  0  0  0  0
  8 21  1  0  0  0  0
  9 14  2  0  0  0  0
  9 22  1  0  0  0  0
 10 12  2  0  0  0  0
 10 23  1  0  0  0  0
 11 12  1  0  0  0  0
 11 24  1  0  0  0  0
 12 25  1  0  0  0  0
 13 15  2  0  0  0  0
 13 26  1  0  0  0  0
 14 15  1  0  0  0  0
 14 27  1  0  0  0  0
M  END
>  <DRUGBANK_ID>
DB00600

>  <SECONDARY_ACCESSION_NUMBERS>
APRD01121

>  <COMMON_NAME>
Monobenzone

>  <CAS_NUMBER>
103-16-2

>  <UNII>
9L2KA76MG5

>  <SYNONYMS>
4-(Benzyloxy)phenol; 4-(Benzyloxyl)phenol; 4-(Phenylmethoxy)phenol; 4-Benzyloxy-phenol; 4-Benzyloxyphenol; Benzyl p-hydroxyphenyl ether; Hydrochinon monobenzylether; Hydroquinone benzyl ether; Hydroquinone monobenzyl ether; Monobenzona; Monobenzone; Monobenzonum; Monobenzyl hydroquinone; p-(Benzyloxy)phenol; p-Hydroxyphenyl benzyl ether

$$$$
