
 OpenBabel10282417183D

 74 77  0  0  0  0  0  0  0  0999 V2000
    0.9949   -0.0918   -0.1677 C   0  0  0  0  0  0  0  0  0  0  0  0
    0.4855   -1.0669    0.8767 C   0  0  0  0  0  0  0  0  0  0  0  0
    0.9422   -0.6972    2.3049 C   0  0  0  0  0  0  0  0  0  0  0  0
    0.4765    0.7008    2.8045 C   0  0  0  0  0  0  0  0  0  0  0  0
    1.0563    1.8503    2.3061 C   0  0  0  0  0  0  0  0  0  0  0  0
    0.4211    2.9547    2.8357 N   0  0  0  0  0  0  0  0  0  0  0  0
   -0.5699    2.6020    3.7088 C   0  0  0  0  0  0  0  0  0  0  0  0
   -0.3956    1.2770    3.8292 C   0  0  0  0  0  0  0  0  0  0  0  0
   -1.0043    0.7250    4.9354 N   0  0  0  0  0  0  0  0  0  0  0  0
   -2.0340    1.1874    5.5730 C   0  0  0  0  0  0  0  0  0  0  0  0
   -2.3605    2.4916    5.3408 N   0  0  0  0  0  0  0  0  0  0  0  0
   -1.5032    3.3257    4.5781 C   0  0  0  0  0  0  0  0  0  0  0  0
   -1.5370    4.5206    4.7222 O   0  0  0  0  0  0  0  0  0  0  0  0
   -2.9640    0.1614    6.5529 C   0  0  0  0  0  0  0  0  0  0  0  0
   -4.3353    0.1214    6.3160 C   0  0  0  0  0  0  0  0  0  0  0  0
   -5.4452   -0.5339    6.8990 C   0  0  0  0  0  0  0  0  0  0  0  0
   -5.0850   -1.4433    7.8363 C   0  0  0  0  0  0  0  0  0  0  0  0
   -3.7270   -1.8121    7.8312 C   0  0  0  0  0  0  0  0  0  0  0  0
   -2.6770   -1.0230    7.2187 C   0  0  0  0  0  0  0  0  0  0  0  0
   -1.4607   -1.6385    7.3175 O   0  0  0  0  0  0  0  0  0  0  0  0
   -0.5117   -1.0487    6.4698 C   0  0  0  0  0  0  0  0  0  0  0  0
   -0.7569   -1.4987    4.9418 C   0  0  0  0  0  0  0  0  0  0  0  0
   -2.1385   -1.1613    4.0179 C   0  0  0  0  0  0  0  0  0  0  0  0
   -7.2145   -0.3050    6.4893 S   0  0  0  0  0  0  0  0  0  0  0  0
   -7.7758   -1.5700    6.1113 O   0  0  0  0  0  0  0  0  0  0  0  0
   -7.7637    0.4564    7.6114 O   0  0  0  0  0  0  0  0  0  0  0  0
   -7.4011    0.7009    5.1441 N   0  0  0  0  0  0  0  0  0  0  0  0
   -7.0882    0.1439    3.7860 C   0  0  0  0  0  0  0  0  0  0  0  0
   -5.5909    0.1915    3.5559 C   0  0  0  0  0  0  0  0  0  0  0  0
   -5.0033    1.5530    3.8848 N   0  0  0  0  0  0  0  0  0  0  0  0
   -5.5383    2.2850    5.1163 C   0  0  0  0  0  0  0  0  0  0  0  0
   -7.0434    2.1168    5.3636 C   0  0  0  0  0  0  0  0  0  0  0  0
   -4.8303    2.3636    2.6729 C   0  0  0  0  0  0  0  0  0  0  0  0
   -6.1599    2.8734    2.1075 C   0  0  0  0  0  0  0  0  0  0  0  0
   -6.7264    3.8063    3.0023 O   0  0  0  0  0  0  0  0  0  0  0  0
    0.9000    4.2932    2.6339 C   0  0  0  0  0  0  0  0  0  0  0  0
    2.3387    4.4222    3.0908 C   0  0  0  0  0  0  0  0  0  0  0  0
    0.6025    0.9084    0.0176 H   0  0  0  0  0  0  0  0  0  0  0  0
    0.6635   -0.3692   -1.1701 H   0  0  0  0  0  0  0  0  0  0  0  0
    2.0893   -0.0510   -0.1538 H   0  0  0  0  0  0  0  0  0  0  0  0
   -0.6075   -1.1222    0.8389 H   0  0  0  0  0  0  0  0  0  0  0  0
    0.8534   -2.0727    0.6145 H   0  0  0  0  0  0  0  0  0  0  0  0
    0.6373   -1.5518    2.9050 H   0  0  0  0  0  0  0  0  0  0  0  0
    2.0431   -0.7419    2.3274 H   0  0  0  0  0  0  0  0  0  0  0  0
    1.8996    1.9412    1.6263 H   0  0  0  0  0  0  0  0  0  0  0  0
   -3.0036    2.9500    5.9600 H   0  0  0  0  0  0  0  0  0  0  0  0
   -4.4504    0.4554    5.3450 H   0  0  0  0  0  0  0  0  0  0  0  0
   -5.8290   -1.8988    8.4785 H   0  0  0  0  0  0  0  0  0  0  0  0
   -3.4729   -2.7853    8.2455 H   0  0  0  0  0  0  0  0  0  0  0  0
   -0.4298    0.0226    6.7609 H   0  0  0  0  0  0  0  0  0  0  0  0
    0.5087   -1.3202    6.7670 H   0  0  0  0  0  0  0  0  0  0  0  0
    0.1338   -1.0321    4.5203 H   0  0  0  0  0  0  0  0  0  0  0  0
   -0.5669   -2.5537    4.8052 H   0  0  0  0  0  0  0  0  0  0  0  0
   -2.5602   -0.1368    3.8995 H   0  0  0  0  0  0  0  0  0  0  0  0
   -1.9885   -1.3388    2.9469 H   0  0  0  0  0  0  0  0  0  0  0  0
   -2.9971   -1.6835    4.4263 H   0  0  0  0  0  0  0  0  0  0  0  0
   -7.4520   -0.8835    3.6886 H   0  0  0  0  0  0  0  0  0  0  0  0
   -7.6149    0.6733    2.9932 H   0  0  0  0  0  0  0  0  0  0  0  0
   -5.2306   -0.6484    4.1748 H   0  0  0  0  0  0  0  0  0  0  0  0
   -5.2236   -0.1807    2.5882 H   0  0  0  0  0  0  0  0  0  0  0  0
   -5.1382    2.0001    6.0970 H   0  0  0  0  0  0  0  0  0  0  0  0
   -5.1078    3.2942    5.1785 H   0  0  0  0  0  0  0  0  0  0  0  0
   -7.7047    2.7268    4.7532 H   0  0  0  0  0  0  0  0  0  0  0  0
   -7.2687    2.4701    6.3793 H   0  0  0  0  0  0  0  0  0  0  0  0
   -4.1788    3.2027    2.9395 H   0  0  0  0  0  0  0  0  0  0  0  0
   -4.2933    1.7776    1.9163 H   0  0  0  0  0  0  0  0  0  0  0  0
   -6.0785    3.3990    1.1657 H   0  0  0  0  0  0  0  0  0  0  0  0
   -6.8616    2.0572    1.9671 H   0  0  0  0  0  0  0  0  0  0  0  0
   -6.3502    3.5261    3.8343 H   0  0  0  0  0  0  0  0  0  0  0  0
    0.7661    4.5089    1.5721 H   0  0  0  0  0  0  0  0  0  0  0  0
    0.2656    4.9542    3.2196 H   0  0  0  0  0  0  0  0  0  0  0  0
    3.0094    3.7846    2.5035 H   0  0  0  0  0  0  0  0  0  0  0  0
    2.6566    5.4573    2.9782 H   0  0  0  0  0  0  0  0  0  0  0  0
    2.4479    4.1220    4.1406 H   0  0  0  0  0  0  0  0  0  0  0  0
  1  2  1  0  0  0  0
  1 38  1  0  0  0  0
  1 39  1  0  0  0  0
  1 40  1  0  0  0  0
  2  3  1  0  0  0  0
  2 41  1  0  0  0  0
  2 42  1  0  0  0  0
  3  4  1  0  0  0  0
  3 43  1  0  0  0  0
  3 44  1  0  0  0  0
  4  5  2  0  0  0  0
  4  8  1  0  0  0  0
  5  6  1  0  0  0  0
  5 45  1  0  0  0  0
  6  7  1  0  0  0  0
  6 36  1  0  0  0  0
  7  8  2  0  0  0  0
  7 12  1  0  0  0  0
  8  9  1  0  0  0  0
  9 10  2  0  0  0  0
 10 11  1  0  0  0  0
 10 14  1  0  0  0  0
 11 12  1  0  0  0  0
 11 46  1  0  0  0  0
 12 13  2  0  0  0  0
 14 15  2  0  0  0  0
 14 19  1  0  0  0  0
 15 16  1  0  0  0  0
 15 47  1  0  0  0  0
 16 17  2  0  0  0  0
 16 24  1  0  0  0  0
 17 18  1  0  0  0  0
 17 48  1  0  0  0  0
 18 19  2  0  0  0  0
 18 49  1  0  0  0  0
 19 20  1  0  0  0  0
 20 21  1  0  0  0  0
 21 22  1  0  0  0  0
 21 50  1  0  0  0  0
 21 51  1  0  0  0  0
 22 23  1  0  0  0  0
 22 52  1  0  0  0  0
 22 53  1  0  0  0  0
 23 54  1  0  0  0  0
 23 55  1  0  0  0  0
 23 56  1  0  0  0  0
 24 25  2  0  0  0  0
 24 26  2  0  0  0  0
 24 27  1  0  0  0  0
 27 28  1  0  0  0  0
 27 32  1  0  0  0  0
 28 29  1  0  0  0  0
 28 57  1  0  0  0  0
 28 58  1  0  0  0  0
 29 30  1  0  0  0  0
 29 59  1  0  0  0  0
 29 60  1  0  0  0  0
 30 31  1  0  0  0  0
 30 33  1  0  0  0  0
 31 32  1  0  0  0  0
 31 61  1  0  0  0  0
 31 62  1  0  0  0  0
 32 63  1  0  0  0  0
 32 64  1  0  0  0  0
 33 34  1  0  0  0  0
 33 65  1  0  0  0  0
 33 66  1  0  0  0  0
 34 35  1  0  0  0  0
 34 67  1  0  0  0  0
 34 68  1  0  0  0  0
 35 69  1  0  0  0  0
 36 37  1  0  0  0  0
 36 70  1  0  0  0  0
 36 71  1  0  0  0  0
 37 72  1  0  0  0  0
 37 73  1  0  0  0  0
 37 74  1  0  0  0  0
M  END
>  <DRUGBANK_ID>
DB11792

>  <COMMON_NAME>
Mirodenafil

>  <CAS_NUMBER>
862189-95-5

>  <UNII>
504G362H0H

>  <SYNONYMS>
Mirodenafil

$$$$
