
 OpenBabel10282417153D

 36 37  0  0  0  0  0  0  0  0999 V2000
   -1.1485   -1.4475    0.3834 C   0  0  2  0  0  0  0  0  0  0  0  0
    0.4472   -1.5336    0.5575 C   0  0  1  0  0  0  0  0  0  0  0  0
   -1.8974   -2.1863    1.5246 C   0  0  0  0  0  0  0  0  0  0  0  0
    0.9742   -1.6493    2.0044 C   0  0  0  0  0  0  0  0  0  0  0  0
    1.2041   -2.5845   -0.1721 N   0  0  0  0  0  0  0  0  0  0  0  0
   -2.2784   -3.4880    1.4775 O   0  0  0  0  0  0  0  0  0  0  0  0
   -2.0146   -1.6082    2.6248 O   0  0  0  0  0  0  0  0  0  0  0  0
    0.7850   -3.0524    2.6081 C   0  0  0  0  0  0  0  0  0  0  0  0
    0.7471   -3.8994    0.2254 C   0  0  0  0  0  0  0  0  0  0  0  0
   -2.7840   -4.2235    0.3511 C   0  0  0  0  0  0  0  0  0  0  0  0
    1.1819   -4.1760    1.6475 C   0  0  0  0  0  0  0  0  0  0  0  0
   -1.6620   -1.6626   -1.0512 C   0  0  0  0  0  0  0  0  0  0  0  0
   -1.4021   -0.3918    0.5835 H   0  0  0  0  0  0  0  0  0  0  0  0
   -0.8075   -1.7029   -2.1578 C   0  0  0  0  0  0  0  0  0  0  0  0
   -2.9939   -1.9862   -1.2866 C   0  0  0  0  0  0  0  0  0  0  0  0
   -1.1238   -2.4783   -3.2722 C   0  0  0  0  0  0  0  0  0  0  0  0
   -3.3036   -2.8314   -2.3610 C   0  0  0  0  0  0  0  0  0  0  0  0
   -2.3575   -3.1048   -3.3412 C   0  0  0  0  0  0  0  0  0  0  0  0
    0.8276   -0.5779    0.1630 H   0  0  0  0  0  0  0  0  0  0  0  0
    0.5389   -0.8719    2.6414 H   0  0  0  0  0  0  0  0  0  0  0  0
    2.0562   -1.4447    1.9909 H   0  0  0  0  0  0  0  0  0  0  0  0
    1.1229   -2.5051   -1.1772 H   0  0  0  0  0  0  0  0  0  0  0  0
    1.3364   -3.1367    3.5483 H   0  0  0  0  0  0  0  0  0  0  0  0
   -0.2509   -3.2219    2.8966 H   0  0  0  0  0  0  0  0  0  0  0  0
    1.0958   -4.6653   -0.4721 H   0  0  0  0  0  0  0  0  0  0  0  0
   -0.3249   -3.9352    0.1613 H   0  0  0  0  0  0  0  0  0  0  0  0
   -3.7464   -3.8024    0.0699 H   0  0  0  0  0  0  0  0  0  0  0  0
   -2.0712   -4.2700   -0.4714 H   0  0  0  0  0  0  0  0  0  0  0  0
   -3.0055   -5.2563    0.6244 H   0  0  0  0  0  0  0  0  0  0  0  0
    2.2674   -4.3067    1.6646 H   0  0  0  0  0  0  0  0  0  0  0  0
    0.7203   -5.1133    1.9770 H   0  0  0  0  0  0  0  0  0  0  0  0
    0.1649   -1.2199   -2.1328 H   0  0  0  0  0  0  0  0  0  0  0  0
   -3.7418   -1.8087   -0.5144 H   0  0  0  0  0  0  0  0  0  0  0  0
   -0.3777   -2.6437   -4.0446 H   0  0  0  0  0  0  0  0  0  0  0  0
   -4.2376   -3.3907   -2.3495 H   0  0  0  0  0  0  0  0  0  0  0  0
   -2.5881   -3.7867   -4.1540 H   0  0  0  0  0  0  0  0  0  0  0  0
  1  3  1  0  0  0  0
  1 13  1  1  0  0  0
  2  4  1  0  0  0  0
  2  5  1  0  0  0  0
  2 19  1  6  0  0  0
  2  1  1  0  0  0  0
  3  6  1  0  0  0  0
  3  7  2  0  0  0  0
  4  8  1  0  0  0  0
  4 20  1  0  0  0  0
  4 21  1  0  0  0  0
  5  9  1  0  0  0  0
  5 22  1  0  0  0  0
  6 10  1  0  0  0  0
  8 11  1  0  0  0  0
  8 23  1  0  0  0  0
  8 24  1  0  0  0  0
  9 11  1  0  0  0  0
  9 25  1  0  0  0  0
  9 26  1  0  0  0  0
 10 27  1  0  0  0  0
 10 28  1  0  0  0  0
 10 29  1  0  0  0  0
 11 30  1  0  0  0  0
 11 31  1  0  0  0  0
 12  1  1  0  0  0  0
 14 12  1  0  0  0  0
 14 32  1  0  0  0  0
 15 12  2  0  0  0  0
 15 33  1  0  0  0  0
 16 14  2  0  0  0  0
 16 34  1  0  0  0  0
 17 15  1  0  0  0  0
 17 35  1  0  0  0  0
 18 16  1  0  0  0  0
 18 17  2  0  0  0  0
 18 36  1  0  0  0  0
M  END
>  <DRUGBANK_ID>
DB06701

>  <COMMON_NAME>
Dexmethylphenidate

>  <CAS_NUMBER>
40431-64-9

>  <UNII>
M32RH9MFGP

>  <SYNONYMS>
(+)-threo-methylphenidate; d-threo-methylphenidate; D-TMP; Dexméthylphénidate; Dexmethylphenidate; Dexmethylphenidatum; Dexmetilfenidato; methyl (R)-phenyl[(R)-piperidin-2-yl]acetate

$$$$
