
 OpenBabel10282417223D

165172  0  0  0  0  0  0  0  0999 V2000
   -4.4202   -2.2958  -15.9782 C   0  0  0  0  0  0  0  0  0  0  0  0
   -4.2975   -1.9511  -14.6122 O   0  0  0  0  0  0  0  0  0  0  0  0
   -5.0249   -3.0787  -14.9941 C   0  0  2  0  0  0  0  0  0  0  0  0
   -3.0679   -3.3174  -14.8223 C   0  0  2  0  0  0  0  0  0  0  0  0
   -2.3000   -1.5282  -15.2827 C   0  0  0  0  0  0  0  0  0  0  0  0
   -3.5783   -0.2341  -14.8868 C   0  0  2  0  0  0  0  0  0  0  0  0
   -5.3489   -0.1811  -15.0031 C   0  0  0  0  0  0  0  0  0  0  0  0
   -6.0850   -1.4700  -14.6043 C   0  0  1  0  0  0  0  0  0  0  0  0
   -7.4073   -1.3021  -15.0630 O   0  0  0  0  0  0  0  0  0  0  0  0
   -3.2685    1.1658  -15.5345 C   0  0  0  0  0  0  0  0  0  0  0  0
   -3.2771   -0.6921  -13.0948 C   0  0  1  0  0  0  0  0  0  0  0  0
   -1.5824   -1.2936  -12.5968 C   0  0  0  0  0  0  0  0  0  0  0  0
   -3.6808    0.6934  -12.9761 C   0  0  2  0  0  0  0  0  0  0  0  0
   -2.1723    0.7774  -13.3009 C   0  0  0  0  0  0  0  0  0  0  0  0
   -1.5653   -0.4390  -14.7535 C   0  0  0  0  0  0  0  0  0  0  0  0
   -4.9063    0.6533  -12.1418 C   0  0  2  0  0  0  0  0  0  0  0  0
   -4.0636    0.6197  -11.1097 C   0  0  0  0  0  0  0  0  0  0  0  0
   -5.3807   -0.8727  -11.2948 C   0  0  1  0  0  0  0  0  0  0  0  0
   -4.3269   -2.1064  -11.1475 C   0  0  0  0  0  0  0  0  0  0  0  0
   -3.8632   -2.0122  -12.4499 C   0  0  0  0  0  0  0  0  0  0  0  0
   -5.4605   -0.6161   -9.6298 C   0  0  2  0  0  0  0  0  0  0  0  0
   -4.3000   -0.2454   -9.2533 C   0  0  0  0  0  0  0  0  0  0  0  0
   -4.4447   -0.0883   -7.9873 O   0  0  0  0  0  0  0  0  0  0  0  0
   -5.9583   -2.5906   -8.7217 C   0  0  0  0  0  0  0  0  0  0  0  0
   -6.4131    1.1141   -9.3256 C   0  0  2  0  0  0  0  0  0  0  0  0
   -5.6869    2.4129  -10.0878 C   0  0  0  0  0  0  0  0  0  0  0  0
   -5.3000    2.2337  -11.5889 C   0  0  0  0  0  0  0  0  0  0  0  0
   -6.6173    1.9661   -7.7824 O   0  0  0  0  0  0  0  0  0  0  0  0
   -5.4291    2.4889   -6.6405 C   0  0  1  0  0  0  0  0  0  0  0  0
   -3.6619    3.2518   -7.2288 C   0  0  2  0  0  0  0  0  0  0  0  0
   -2.9314    2.6337   -8.8672 O   0  0  0  0  0  0  0  0  0  0  0  0
   -2.3277    0.8861   -9.0541 C   0  0  2  0  0  0  0  0  0  0  0  0
   -2.5916   -0.9926   -8.6559 O   0  0  0  0  0  0  0  0  0  0  0  0
   -4.1699   -1.8005   -7.7922 C   0  0  2  0  0  0  0  0  0  0  0  0
   -6.1822   -0.9578   -7.8360 C   0  0  0  0  0  0  0  0  0  0  0  0
   -7.1480   -1.2970   -9.5353 O   0  0  0  0  0  0  0  0  0  0  0  0
   -4.0268   -1.1288   -6.3427 C   0  0  2  0  0  0  0  0  0  0  0  0
   -3.4759    0.8036   -6.8640 C   0  0  1  0  0  0  0  0  0  0  0  0
   -2.0618    1.1583   -7.7283 C   0  0  1  0  0  0  0  0  0  0  0  0
   -1.0012    0.3247   -8.0025 O   0  0  0  0  0  0  0  0  0  0  0  0
   -4.2546    1.6710   -7.9501 O   0  0  0  0  0  0  0  0  0  0  0  0
   -3.0781   -2.0833   -5.0863 O   0  0  0  0  0  0  0  0  0  0  0  0
   -1.8287    0.8480  -10.0614 H   0  0  0  0  0  0  0  0  0  0  0  0
   -2.4898    3.3161   -6.0806 C   0  0  1  0  0  0  0  0  0  0  0  0
   -1.3128    4.1454   -6.1828 O   0  0  0  0  0  0  0  0  0  0  0  0
   -3.1244    3.0138   -4.3886 C   0  0  1  0  0  0  0  0  0  0  0  0
   -4.7016    2.0595   -4.1686 C   0  0  2  0  0  0  0  0  0  0  0  0
   -5.7448    2.2923   -5.1723 O   0  0  0  0  0  0  0  0  0  0  0  0
   -5.0789    1.6980   -2.7064 C   0  0  0  0  0  0  0  0  0  0  0  0
   -4.0356    1.8180   -1.8372 O   0  0  0  0  0  0  0  0  0  0  0  0
   -6.0913    1.0450   -2.4454 O   0  0  0  0  0  0  0  0  0  0  0  0
   -1.6043    2.2928   -3.7022 O   0  0  0  0  0  0  0  0  0  0  0  0
   -1.2097    0.5179   -3.7532 C   0  0  2  0  0  0  0  0  0  0  0  0
   -0.3145   -0.2181   -4.6964 O   0  0  0  0  0  0  0  0  0  0  0  0
   -0.5123   -0.3905   -6.0992 C   0  0  2  0  0  0  0  0  0  0  0  0
    0.1957    1.2062   -6.7030 C   0  0  0  0  0  0  0  0  0  0  0  0
    1.5556    1.0449   -6.5992 O   0  0  0  0  0  0  0  0  0  0  0  0
   -1.9197   -0.9305   -6.2200 C   0  0  2  0  0  0  0  0  0  0  0  0
   -2.8097    0.0115   -5.0126 C   0  0  1  0  0  0  0  0  0  0  0  0
   -2.5589   -0.0580   -3.6395 C   0  0  1  0  0  0  0  0  0  0  0  0
   -3.2913   -1.1108   -3.1562 O   0  0  0  0  0  0  0  0  0  0  0  0
   -2.5749    1.3135   -5.2483 O   0  0  0  0  0  0  0  0  0  0  0  0
   -2.4802   -2.6383   -6.7082 O   0  0  0  0  0  0  0  0  0  0  0  0
   -0.6170    0.4557   -2.8966 H   0  0  0  0  0  0  0  0  0  0  0  0
   -5.4352    1.4099   -6.6540 H   0  0  0  0  0  0  0  0  0  0  0  0
   -6.3887   -0.9766  -11.6660 H   0  0  0  0  0  0  0  0  0  0  0  0
   -4.1885    1.4150  -13.5822 H   0  0  0  0  0  0  0  0  0  0  0  0
   -2.7959   -4.6377  -15.4138 C   0  0  0  0  0  0  0  0  0  0  0  0
   -3.8279   -5.7184  -14.8980 C   0  0  0  0  0  0  0  0  0  0  0  0
   -5.3575   -5.5917  -15.0626 C   0  0  2  0  0  0  0  0  0  0  0  0
   -5.8559   -4.2574  -15.4045 C   0  0  2  0  0  0  0  0  0  0  0  0
   -6.5770   -3.9784  -16.5933 O   0  0  0  0  0  0  0  0  0  0  0  0
   -6.1117   -6.1988  -13.8835 O   0  0  0  0  0  0  0  0  0  0  0  0
   -6.9540   -5.7716  -12.8756 C   0  0  0  0  0  0  0  0  0  0  0  0
   -7.4163   -4.3638  -12.6441 C   0  0  0  0  0  0  0  0  0  0  0  0
   -8.1662   -3.6594  -11.8020 C   0  0  0  0  0  0  0  0  0  0  0  0
   -8.8346   -4.3592  -10.7785 C   0  0  0  0  0  0  0  0  0  0  0  0
   -6.9417   -3.3002  -13.3815 C   0  0  0  0  0  0  0  0  0  0  0  0
   -7.3629   -6.6280  -12.0983 O   0  0  0  0  0  0  0  0  0  0  0  0
   -3.5676   -6.9048  -15.7955 C   0  0  0  0  0  0  0  0  0  0  0  0
   -3.5028   -5.9204  -13.4330 C   0  0  0  0  0  0  0  0  0  0  0  0
   -2.9361   -3.5467  -13.7853 H   0  0  0  0  0  0  0  0  0  0  0  0
   -6.4568   -3.2943  -18.7159 O   0  0  0  0  0  0  0  0  0  0  0  0
   -4.4674   -4.0595  -17.7666 C   0  0  0  0  0  0  0  0  0  0  0  0
   -5.9108   -3.7791  -17.7458 C   0  0  0  0  0  0  0  0  0  0  0  0
   -3.5175   -2.6169  -16.4649 H   0  0  0  0  0  0  0  0  0  0  0  0
   -4.9350   -1.6442  -16.6224 H   0  0  0  0  0  0  0  0  0  0  0  0
   -3.4453   -1.9010  -14.1729 H   0  0  0  0  0  0  0  0  0  0  0  0
   -5.8014    0.5615  -14.3352 H   0  0  0  0  0  0  0  0  0  0  0  0
   -5.6914   -0.0409  -16.0169 H   0  0  0  0  0  0  0  0  0  0  0  0
   -6.0505   -1.2877  -13.5202 H   0  0  0  0  0  0  0  0  0  0  0  0
   -7.7447   -2.0964  -15.4946 H   0  0  0  0  0  0  0  0  0  0  0  0
   -3.7053    2.0288  -15.0356 H   0  0  0  0  0  0  0  0  0  0  0  0
   -2.2218    1.4300  -15.4589 H   0  0  0  0  0  0  0  0  0  0  0  0
   -3.5413    1.0778  -16.5722 H   0  0  0  0  0  0  0  0  0  0  0  0
   -1.3644   -2.2048  -13.1471 H   0  0  0  0  0  0  0  0  0  0  0  0
   -0.7175   -0.6262  -12.8401 H   0  0  0  0  0  0  0  0  0  0  0  0
   -1.5372   -1.3646  -11.5138 H   0  0  0  0  0  0  0  0  0  0  0  0
   -1.7474    1.7373  -13.0647 H   0  0  0  0  0  0  0  0  0  0  0  0
   -1.8765    0.5254  -12.2487 H   0  0  0  0  0  0  0  0  0  0  0  0
   -1.4625   -0.1148  -15.8461 H   0  0  0  0  0  0  0  0  0  0  0  0
   -3.3750    1.3425  -10.8561 H   0  0  0  0  0  0  0  0  0  0  0  0
   -5.0752    0.7330  -10.6440 H   0  0  0  0  0  0  0  0  0  0  0  0
   -3.4565   -0.2632  -11.0211 H   0  0  0  0  0  0  0  0  0  0  0  0
   -3.3025   -2.1449  -10.6691 H   0  0  0  0  0  0  0  0  0  0  0  0
   -4.7425   -3.0762  -10.8805 H   0  0  0  0  0  0  0  0  0  0  0  0
   -3.1264   -2.7939  -12.4083 H   0  0  0  0  0  0  0  0  0  0  0  0
   -4.7626   -2.3661  -12.8320 H   0  0  0  0  0  0  0  0  0  0  0  0
   -3.8257   -1.0718   -9.6233 H   0  0  0  0  0  0  0  0  0  0  0  0
   -3.9752    0.7207   -9.3881 H   0  0  0  0  0  0  0  0  0  0  0  0
   -4.9680    0.0573   -7.2262 H   0  0  0  0  0  0  0  0  0  0  0  0
   -7.2047   -2.6083   -8.5258 H   0  0  0  0  0  0  0  0  0  0  0  0
   -5.3820   -3.3412   -9.0884 H   0  0  0  0  0  0  0  0  0  0  0  0
   -5.9778   -2.7375   -7.4956 H   0  0  0  0  0  0  0  0  0  0  0  0
   -7.4471    0.9638   -9.6320 H   0  0  0  0  0  0  0  0  0  0  0  0
   -5.9831    3.3838   -9.6765 H   0  0  0  0  0  0  0  0  0  0  0  0
   -4.6591    2.5225   -9.7779 H   0  0  0  0  0  0  0  0  0  0  0  0
   -6.1974    2.4815  -12.0636 H   0  0  0  0  0  0  0  0  0  0  0  0
   -4.3616    2.8519  -11.6939 H   0  0  0  0  0  0  0  0  0  0  0  0
   -4.0572    4.2177   -7.4731 H   0  0  0  0  0  0  0  0  0  0  0  0
   -3.9495   -2.8731   -8.0720 H   0  0  0  0  0  0  0  0  0  0  0  0
   -6.9907   -1.0460   -7.1876 H   0  0  0  0  0  0  0  0  0  0  0  0
   -6.2465    0.0716   -7.8270 H   0  0  0  0  0  0  0  0  0  0  0  0
   -6.3538   -1.9346  -10.1572 H   0  0  0  0  0  0  0  0  0  0  0  0
   -4.9398   -1.2582   -5.7033 H   0  0  0  0  0  0  0  0  0  0  0  0
   -4.0526    1.2775   -6.0479 H   0  0  0  0  0  0  0  0  0  0  0  0
   -1.6664    2.1820   -7.7688 H   0  0  0  0  0  0  0  0  0  0  0  0
   -1.1264   -0.5566   -8.3633 H   0  0  0  0  0  0  0  0  0  0  0  0
   -5.1324    1.5610   -8.2846 H   0  0  0  0  0  0  0  0  0  0  0  0
   -2.1974   -2.5283   -5.5259 H   0  0  0  0  0  0  0  0  0  0  0  0
   -1.7679    2.5235   -6.2542 H   0  0  0  0  0  0  0  0  0  0  0  0
   -1.0205    4.1321   -5.2546 H   0  0  0  0  0  0  0  0  0  0  0  0
   -3.3495    4.0795   -4.2114 H   0  0  0  0  0  0  0  0  0  0  0  0
   -4.7190    0.9496   -4.1535 H   0  0  0  0  0  0  0  0  0  0  0  0
   -3.1464    2.0484   -2.1989 H   0  0  0  0  0  0  0  0  0  0  0  0
   -0.0746   -1.2522   -6.6334 H   0  0  0  0  0  0  0  0  0  0  0  0
    0.0899    1.7145   -7.7380 H   0  0  0  0  0  0  0  0  0  0  0  0
   -0.0884    1.9800   -6.0101 H   0  0  0  0  0  0  0  0  0  0  0  0
    1.4622    0.8549   -5.6609 H   0  0  0  0  0  0  0  0  0  0  0  0
   -2.3605   -0.6320   -7.0787 H   0  0  0  0  0  0  0  0  0  0  0  0
   -3.9251   -0.0287   -5.0132 H   0  0  0  0  0  0  0  0  0  0  0  0
   -3.0892    0.7496   -3.2632 H   0  0  0  0  0  0  0  0  0  0  0  0
   -3.3081   -1.7551   -3.8999 H   0  0  0  0  0  0  0  0  0  0  0  0
   -1.8208    1.7700   -4.8767 H   0  0  0  0  0  0  0  0  0  0  0  0
   -3.4917   -2.8702   -6.1670 H   0  0  0  0  0  0  0  0  0  0  0  0
   -2.7341   -4.6483  -16.4799 H   0  0  0  0  0  0  0  0  0  0  0  0
   -1.7533   -4.7553  -15.1738 H   0  0  0  0  0  0  0  0  0  0  0  0
   -5.7486   -6.1275  -15.9387 H   0  0  0  0  0  0  0  0  0  0  0  0
   -6.7147   -4.5696  -14.8749 H   0  0  0  0  0  0  0  0  0  0  0  0
   -8.3160   -2.5524  -11.8323 H   0  0  0  0  0  0  0  0  0  0  0  0
   -8.4218   -3.9618   -9.8651 H   0  0  0  0  0  0  0  0  0  0  0  0
   -9.8778   -4.2045  -11.0057 H   0  0  0  0  0  0  0  0  0  0  0  0
   -8.5765   -5.3949  -10.8836 H   0  0  0  0  0  0  0  0  0  0  0  0
   -5.8991   -3.4873  -13.1882 H   0  0  0  0  0  0  0  0  0  0  0  0
   -7.4385   -3.3175  -14.3362 H   0  0  0  0  0  0  0  0  0  0  0  0
   -7.2720   -2.3147  -13.1122 H   0  0  0  0  0  0  0  0  0  0  0  0
   -2.4985   -7.0568  -15.8534 H   0  0  0  0  0  0  0  0  0  0  0  0
   -4.1106   -7.7790  -15.4388 H   0  0  0  0  0  0  0  0  0  0  0  0
   -3.9361   -6.6852  -16.8128 H   0  0  0  0  0  0  0  0  0  0  0  0
   -3.8232   -5.0552  -12.8347 H   0  0  0  0  0  0  0  0  0  0  0  0
   -3.9979   -6.7948  -13.0188 H   0  0  0  0  0  0  0  0  0  0  0  0
   -2.4219   -6.0183  -13.3577 H   0  0  0  0  0  0  0  0  0  0  0  0
   -3.9959   -4.9490  -18.1167 H   0  0  0  0  0  0  0  0  0  0  0  0
   -3.8480   -3.1830  -17.9925 H   0  0  0  0  0  0  0  0  0  0  0  0
   -4.3837   -4.3108  -16.7490 H   0  0  0  0  0  0  0  0  0  0  0  0
  1  2  1  0  0  0  0
  1 86  1  0  0  0  0
  1 87  1  0  0  0  0
  2 88  1  0  0  0  0
  3  1  1  1  0  0  0
  3  4  1  0  0  0  0
  3  8  1  0  0  0  0
  3 71  1  0  0  0  0
  4  5  1  0  0  0  0
  4 68  1  0  0  0  0
  4 82  1  1  0  0  0
  5  6  1  0  0  0  0
  5 15  2  0  0  0  0
  6 10  1  6  0  0  0
  6 11  1  0  0  0  0
  7  6  1  0  0  0  0
  7 89  1  0  0  0  0
  7 90  1  0  0  0  0
  8  7  1  0  0  0  0
  8 91  1  1  0  0  0
  8  9  1  0  0  0  0
  9 92  1  0  0  0  0
 10 93  1  0  0  0  0
 10 94  1  0  0  0  0
 10 95  1  0  0  0  0
 11 12  1  1  0  0  0
 11 13  1  0  0  0  0
 11 20  1  0  0  0  0
 12 96  1  0  0  0  0
 12 97  1  0  0  0  0
 12 98  1  0  0  0  0
 13 16  1  0  0  0  0
 13 67  1  6  0  0  0
 14 13  1  0  0  0  0
 14 99  1  0  0  0  0
 14100  1  0  0  0  0
 15 14  1  0  0  0  0
 15101  1  0  0  0  0
 16 17  1  1  0  0  0
 16 18  1  0  0  0  0
 16 27  1  0  0  0  0
 17102  1  0  0  0  0
 17103  1  0  0  0  0
 17104  1  0  0  0  0
 18 21  1  0  0  0  0
 18 66  1  6  0  0  0
 19 18  1  0  0  0  0
 19105  1  0  0  0  0
 19106  1  0  0  0  0
 20 19  1  0  0  0  0
 20107  1  0  0  0  0
 20108  1  0  0  0  0
 21 22  1  1  0  0  0
 21 24  1  0  0  0  0
 21 25  1  0  0  0  0
 22 23  1  0  0  0  0
 22109  1  0  0  0  0
 22110  1  0  0  0  0
 23111  1  0  0  0  0
 24112  1  0  0  0  0
 24113  1  0  0  0  0
 24114  1  0  0  0  0
 25 28  1  0  0  0  0
 25115  1  6  0  0  0
 26 25  1  0  0  0  0
 26116  1  0  0  0  0
 26117  1  0  0  0  0
 27 26  1  0  0  0  0
 27118  1  0  0  0  0
 27119  1  0  0  0  0
 29 30  1  0  0  0  0
 29 48  1  0  0  0  0
 29 65  1  6  0  0  0
 29 28  1  0  0  0  0
 30 31  1  0  0  0  0
 30 44  1  0  0  0  0
 30120  1  6  0  0  0
 31 32  1  0  0  0  0
 32 33  1  0  0  0  0
 32 39  1  0  0  0  0
 32 43  1  6  0  0  0
 33 34  1  0  0  0  0
 34 35  1  0  0  0  0
 34 37  1  0  0  0  0
 34121  1  1  0  0  0
 35 36  1  0  0  0  0
 35122  1  0  0  0  0
 35123  1  0  0  0  0
 36124  1  0  0  0  0
 37125  1  1  0  0  0
 37 42  1  0  0  0  0
 38 37  1  0  0  0  0
 38 41  1  0  0  0  0
 38126  1  1  0  0  0
 39 38  1  0  0  0  0
 39 40  1  0  0  0  0
 39127  1  1  0  0  0
 40128  1  0  0  0  0
 41129  1  0  0  0  0
 42130  1  0  0  0  0
 44 46  1  0  0  0  0
 44131  1  6  0  0  0
 44 45  1  0  0  0  0
 45132  1  0  0  0  0
 46 52  1  0  0  0  0
 46133  1  1  0  0  0
 47 46  1  0  0  0  0
 47134  1  6  0  0  0
 47 49  1  0  0  0  0
 48 47  1  0  0  0  0
 49 50  1  0  0  0  0
 49 51  2  0  0  0  0
 50135  1  0  0  0  0
 52 53  1  0  0  0  0
 53 54  1  0  0  0  0
 53 60  1  0  0  0  0
 53 64  1  1  0  0  0
 54 55  1  0  0  0  0
 55 56  1  0  0  0  0
 55 58  1  0  0  0  0
 55136  1  6  0  0  0
 56 57  1  0  0  0  0
 56137  1  0  0  0  0
 56138  1  0  0  0  0
 57139  1  0  0  0  0
 58140  1  6  0  0  0
 58 63  1  0  0  0  0
 59 58  1  0  0  0  0
 59 62  1  0  0  0  0
 59141  1  6  0  0  0
 60 59  1  0  0  0  0
 60 61  1  0  0  0  0
 60142  1  1  0  0  0
 61143  1  0  0  0  0
 62144  1  0  0  0  0
 63145  1  0  0  0  0
 68 69  1  0  0  0  0
 68146  1  0  0  0  0
 68147  1  0  0  0  0
 69 80  1  0  0  0  0
 69 81  1  0  0  0  0
 70 69  1  0  0  0  0
 70148  1  6  0  0  0
 70 73  1  0  0  0  0
 71 70  1  0  0  0  0
 71 72  1  0  0  0  0
 71149  1  1  0  0  0
 72 85  1  0  0  0  0
 73 74  1  0  0  0  0
 74 75  1  0  0  0  0
 74 79  2  0  0  0  0
 75 76  2  0  0  0  0
 75 78  1  0  0  0  0
 76 77  1  0  0  0  0
 76150  1  0  0  0  0
 77151  1  0  0  0  0
 77152  1  0  0  0  0
 77153  1  0  0  0  0
 78154  1  0  0  0  0
 78155  1  0  0  0  0
 78156  1  0  0  0  0
 80157  1  0  0  0  0
 80158  1  0  0  0  0
 80159  1  0  0  0  0
 81160  1  0  0  0  0
 81161  1  0  0  0  0
 81162  1  0  0  0  0
 84163  1  0  0  0  0
 84164  1  0  0  0  0
 84165  1  0  0  0  0
 85 84  1  0  0  0  0
 85 83  2  0  0  0  0
M  END
>  <DRUGBANK_ID>
DB15774

>  <COMMON_NAME>
beta-Escin

>  <CAS_NUMBER>
26339-90-2

>  <UNII>
QYK0D6H79O

>  <SYNONYMS>
Aescin B; beta-Aescin; beta-Escin

$$$$
