
 OpenBabel10282417203D

 40 41  0  0  0  0  0  0  0  0999 V2000
   -0.1214    0.9081    0.1768 C   0  0  0  0  0  0  0  0  0  0  0  0
    0.6631   -0.2760    0.7581 C   0  0  3  0  0  0  0  0  0  0  0  0
   -0.7028   -0.3837    0.3104 O   0  0  0  0  0  0  0  0  0  0  0  0
    1.6584   -0.9711   -0.0185 C   0  0  0  0  0  0  0  0  0  0  0  0
    2.8698   -0.1901   -0.2360 O   0  0  0  0  0  0  0  0  0  0  0  0
    2.7317    1.1842   -0.7129 C   0  0  0  0  0  0  0  0  0  0  0  0
    2.0360    1.5472   -2.1211 C   0  0  0  0  0  0  0  0  0  0  0  0
    1.0272    0.6798   -2.6240 O   0  0  0  0  0  0  0  0  0  0  0  0
    1.4615   -0.6799   -2.6914 C   0  0  0  0  0  0  0  0  0  0  0  0
    2.7975   -1.4870   -2.7994 C   0  0  0  0  0  0  0  0  0  0  0  0
    4.1309   -1.0507   -3.1175 O   0  0  0  0  0  0  0  0  0  0  0  0
    4.2531    0.3144   -3.4616 C   0  0  0  0  0  0  0  0  0  0  0  0
    3.5745    0.7574   -4.8244 C   0  0  0  0  0  0  0  0  0  0  0  0
    2.3019    0.2011   -5.2081 O   0  0  0  0  0  0  0  0  0  0  0  0
    2.2393   -1.1616   -5.6041 C   0  0  0  0  0  0  0  0  0  0  0  0
    3.4577   -1.7532   -6.1637 C   0  0  3  0  0  0  0  0  0  0  0  0
    3.3514   -2.1443   -7.4971 C   0  0  0  0  0  0  0  0  0  0  0  0
    3.3161   -3.1350   -6.4850 O   0  0  0  0  0  0  0  0  0  0  0  0
   -0.2488    1.7080    0.8849 H   0  0  0  0  0  0  0  0  0  0  0  0
   -0.0965    1.3020   -0.8372 H   0  0  0  0  0  0  0  0  0  0  0  0
    0.8809   -0.4377    1.7853 H   0  0  0  0  0  0  0  0  0  0  0  0
    1.8970   -2.0482   -0.0531 H   0  0  0  0  0  0  0  0  0  0  0  0
    0.9465   -1.0367   -0.8200 H   0  0  0  0  0  0  0  0  0  0  0  0
    2.2048    1.7094    0.0710 H   0  0  0  0  0  0  0  0  0  0  0  0
    3.7499    1.6081   -0.6965 H   0  0  0  0  0  0  0  0  0  0  0  0
    1.8952    2.6285   -2.2140 H   0  0  0  0  0  0  0  0  0  0  0  0
    2.6139    1.5329   -3.0071 H   0  0  0  0  0  0  0  0  0  0  0  0
    2.0009   -0.5758   -1.8465 H   0  0  0  0  0  0  0  0  0  0  0  0
    0.5816   -1.3510   -2.6829 H   0  0  0  0  0  0  0  0  0  0  0  0
    2.7441   -2.5809   -2.7417 H   0  0  0  0  0  0  0  0  0  0  0  0
    2.3377   -1.3027   -3.7003 H   0  0  0  0  0  0  0  0  0  0  0  0
    3.9453    0.7219   -2.5259 H   0  0  0  0  0  0  0  0  0  0  0  0
    5.2345    0.7995   -3.3738 H   0  0  0  0  0  0  0  0  0  0  0  0
    3.4253    1.8486   -4.8382 H   0  0  0  0  0  0  0  0  0  0  0  0
    4.2691    0.5628   -5.6352 H   0  0  0  0  0  0  0  0  0  0  0  0
    2.5826   -1.8944   -4.9075 H   0  0  0  0  0  0  0  0  0  0  0  0
    1.2202   -1.5839   -5.4899 H   0  0  0  0  0  0  0  0  0  0  0  0
    4.3622   -1.5609   -5.5483 H   0  0  0  0  0  0  0  0  0  0  0  0
    2.4035   -1.8008   -7.9254 H   0  0  0  0  0  0  0  0  0  0  0  0
    4.2694   -1.8645   -7.9989 H   0  0  0  0  0  0  0  0  0  0  0  0
  1  2  1  0  0  0  0
  1  3  1  0  0  0  0
  1 19  1  0  0  0  0
  1 20  1  0  0  0  0
  2  3  1  0  0  0  0
  2  4  1  0  0  0  0
  2 21  1  0  0  0  0
  4  5  1  0  0  0  0
  4 22  1  0  0  0  0
  4 23  1  0  0  0  0
  5  6  1  0  0  0  0
  6  7  1  0  0  0  0
  6 24  1  0  0  0  0
  6 25  1  0  0  0  0
  7  8  1  0  0  0  0
  7 26  1  0  0  0  0
  7 27  1  0  0  0  0
  8  9  1  0  0  0  0
  9 10  1  0  0  0  0
  9 28  1  0  0  0  0
  9 29  1  0  0  0  0
 10 11  1  0  0  0  0
 10 30  1  0  0  0  0
 10 31  1  0  0  0  0
 11 12  1  0  0  0  0
 12 13  1  0  0  0  0
 12 32  1  0  0  0  0
 12 33  1  0  0  0  0
 13 14  1  0  0  0  0
 13 34  1  0  0  0  0
 13 35  1  0  0  0  0
 14 15  1  0  0  0  0
 15 16  1  0  0  0  0
 15 36  1  0  0  0  0
 15 37  1  0  0  0  0
 16 17  1  0  0  0  0
 16 18  1  0  0  0  0
 16 38  1  0  0  0  0
 17 18  1  0  0  0  0
 17 39  1  0  0  0  0
 17 40  1  0  0  0  0
M  END
>  <DRUGBANK_ID>
DB13339

>  <COMMON_NAME>
Etoglucid

>  <CAS_NUMBER>
1954-28-5

>  <UNII>
4F9KUA0T4D

>  <SYNONYMS>
Etoglucid

$$$$
