
 OpenBabel10282417193D

 57 59  0  0  1  0  0  0  0  0999 V2000
    1.0562   -0.0077    0.0037 C   0  0  0  0  0  0  0  0  0  0  0  0
    0.4876   -1.3010    0.1669 O   0  0  0  0  0  0  0  0  0  0  0  0
    0.9911   -2.1582   -0.8287 N   0  0  0  0  0  0  0  0  0  0  0  0
    0.4480   -3.3357   -0.7216 C   0  0  0  0  0  0  0  0  0  0  0  0
    0.9215   -4.4398   -1.5915 C   0  0  0  0  0  0  0  0  0  0  0  0
    2.2465   -4.4946   -2.0034 C   0  0  0  0  0  0  0  0  0  0  0  0
    2.6916   -5.6415   -2.6546 C   0  0  0  0  0  0  0  0  0  0  0  0
    1.8382   -6.7594   -2.8424 C   0  0  0  0  0  0  0  0  0  0  0  0
    0.5021   -6.6598   -2.4751 C   0  0  0  0  0  0  0  0  0  0  0  0
    0.0371   -5.4830   -1.8985 C   0  0  0  0  0  0  0  0  0  0  0  0
    2.3007   -7.8519   -3.7448 C   0  0  0  0  0  0  0  0  0  0  0  0
    1.8403   -9.2129   -3.7144 N   0  0  0  0  0  0  0  0  0  0  0  0
    1.0920   -9.9784   -4.6455 C   0  0  0  0  0  0  0  0  0  0  0  0
    0.9247  -11.1496   -4.2671 O   0  0  0  0  0  0  0  0  0  0  0  0
    0.4242   -9.4539   -6.0355 C   0  0  2  0  0  0  0  0  0  0  0  0
   -0.1657  -10.5224   -7.0021 C   0  0  0  0  0  0  0  0  0  0  0  0
    0.1825   -9.5889   -8.1671 C   0  0  0  0  0  0  0  0  0  0  0  0
    1.1882   -9.0434   -7.2629 N   0  0  0  0  0  0  0  0  0  0  0  0
    2.1863   -8.1794   -7.7060 C   0  0  0  0  0  0  0  0  0  0  0  0
    2.5025   -8.0690   -8.8670 O   0  0  0  0  0  0  0  0  0  0  0  0
    2.8696   -7.3399   -6.6515 C   0  0  1  0  0  0  0  0  0  0  0  0
    1.8760   -6.2079   -6.1391 C   0  0  0  0  0  0  0  0  0  0  0  0
    2.3458   -4.9692   -5.7546 C   0  0  0  0  0  0  0  0  0  0  0  0
    1.4829   -4.0114   -5.1519 C   0  0  0  0  0  0  0  0  0  0  0  0
    0.1288   -4.2739   -4.8824 C   0  0  0  0  0  0  0  0  0  0  0  0
   -0.3877   -5.4780   -5.2565 C   0  0  0  0  0  0  0  0  0  0  0  0
    0.4966   -6.3912   -5.8262 C   0  0  0  0  0  0  0  0  0  0  0  0
   -1.9542   -6.0167   -4.7404 Cl  0  0  0  0  0  0  0  0  0  0  0  0
    1.9012   -2.8024   -4.6701 O   0  0  0  0  0  0  0  0  0  0  0  0
    3.1981   -2.3941   -5.0624 C   0  0  0  0  0  0  0  0  0  0  0  0
    4.1231   -3.1095   -4.3748 F   0  0  0  0  0  0  0  0  0  0  0  0
    3.3841   -2.6250   -6.3860 F   0  0  0  0  0  0  0  0  0  0  0  0
    3.6088   -8.3113   -5.8630 O   0  0  0  0  0  0  0  0  0  0  0  0
   -0.5076   -3.6813    0.2083 N   0  0  0  0  0  0  0  0  0  0  0  0
    0.7323    0.6090    0.8466 H   0  0  0  0  0  0  0  0  0  0  0  0
    0.6973    0.4500   -0.9227 H   0  0  0  0  0  0  0  0  0  0  0  0
    2.1505   -0.0502    0.0062 H   0  0  0  0  0  0  0  0  0  0  0  0
    2.9074   -3.6399   -1.8782 H   0  0  0  0  0  0  0  0  0  0  0  0
    3.6823   -5.6086   -3.1146 H   0  0  0  0  0  0  0  0  0  0  0  0
   -0.2039   -7.4300   -2.7748 H   0  0  0  0  0  0  0  0  0  0  0  0
   -1.0340   -5.3368   -1.7733 H   0  0  0  0  0  0  0  0  0  0  0  0
    1.8388   -7.6330   -4.6525 H   0  0  0  0  0  0  0  0  0  0  0  0
    3.3829   -7.7584   -3.8670 H   0  0  0  0  0  0  0  0  0  0  0  0
    2.2552   -9.7544   -2.9696 H   0  0  0  0  0  0  0  0  0  0  0  0
   -0.4989   -8.8874   -5.8339 H   0  0  0  0  0  0  0  0  0  0  0  0
    0.3647  -11.4745   -7.0031 H   0  0  0  0  0  0  0  0  0  0  0  0
   -1.2433  -10.6979   -6.9054 H   0  0  0  0  0  0  0  0  0  0  0  0
    0.5872  -10.0500   -9.0699 H   0  0  0  0  0  0  0  0  0  0  0  0
   -0.5875   -8.8538   -8.4445 H   0  0  0  0  0  0  0  0  0  0  0  0
    3.7195   -6.7985   -7.0753 H   0  0  0  0  0  0  0  0  0  0  0  0
    3.4192   -4.8084   -5.7974 H   0  0  0  0  0  0  0  0  0  0  0  0
   -0.4523   -3.6223   -4.2342 H   0  0  0  0  0  0  0  0  0  0  0  0
    0.1350   -7.3646   -5.6313 H   0  0  0  0  0  0  0  0  0  0  0  0
    3.3270   -1.3320   -4.8655 H   0  0  0  0  0  0  0  0  0  0  0  0
    3.0691   -9.0909   -5.6269 H   0  0  0  0  0  0  0  0  0  0  0  0
   -0.5349   -3.0634    1.0103 H   0  0  0  0  0  0  0  0  0  0  0  0
   -0.5886   -4.6672    0.4359 H   0  0  0  0  0  0  0  0  0  0  0  0
  1  2  1  0  0  0  0
  1 35  1  0  0  0  0
  1 36  1  0  0  0  0
  1 37  1  0  0  0  0
  2  3  1  0  0  0  0
  3  4  2  0  0  0  0
  4  5  1  0  0  0  0
  4 34  1  0  0  0  0
  5  6  2  0  0  0  0
  5 10  1  0  0  0  0
  6  7  1  0  0  0  0
  6 38  1  0  0  0  0
  7  8  2  0  0  0  0
  7 39  1  0  0  0  0
  8  9  1  0  0  0  0
  8 11  1  0  0  0  0
  9 10  2  0  0  0  0
  9 40  1  0  0  0  0
 10 41  1  0  0  0  0
 11 12  1  0  0  0  0
 11 42  1  0  0  0  0
 11 43  1  0  0  0  0
 12 13  1  0  0  0  0
 12 44  1  0  0  0  0
 13 14  2  0  0  0  0
 15 13  1  0  0  0  0
 15 16  1  0  0  0  0
 15 18  1  0  0  0  0
 15 45  1  1  0  0  0
 16 17  1  0  0  0  0
 16 46  1  0  0  0  0
 16 47  1  0  0  0  0
 17 18  1  0  0  0  0
 17 48  1  0  0  0  0
 17 49  1  0  0  0  0
 18 19  1  0  0  0  0
 19 20  2  0  0  0  0
 19 21  1  0  0  0  0
 21 22  1  0  0  0  0
 21 33  1  0  0  0  0
 21 50  1  6  0  0  0
 22 23  2  0  0  0  0
 22 27  1  0  0  0  0
 23 24  1  0  0  0  0
 23 51  1  0  0  0  0
 24 25  2  0  0  0  0
 24 29  1  0  0  0  0
 25 26  1  0  0  0  0
 25 52  1  0  0  0  0
 26 27  2  0  0  0  0
 26 28  1  0  0  0  0
 27 53  1  0  0  0  0
 29 30  1  0  0  0  0
 30 31  1  0  0  0  0
 30 32  1  0  0  0  0
 30 54  1  0  0  0  0
 33 55  1  0  0  0  0
 34 56  1  0  0  0  0
 34 57  1  0  0  0  0
M  END
>  <DRUGBANK_ID>
DB12507

>  <SECONDARY_ACCESSION_NUMBERS>
DB05711

>  <COMMON_NAME>
Atecegatran metoxil

>  <CAS_NUMBER>
433937-93-0

>  <UNII>
4GU1D587JV

>  <SYNONYMS>
Atecegatran fexenetil; Atecegatran metoxil

$$$$
