740
 OpenBabel10282417113D

 20 21  0  0  0  0  0  0  0  0999 V2000
   -1.2300   -1.1857   -0.0013 S   0  0  0  0  0  0  0  0  0  0  0  0
    3.4060   -3.2111    1.1166 F   0  0  0  0  0  0  0  0  0  0  0  0
    3.4136   -3.2246   -1.0888 F   0  0  0  0  0  0  0  0  0  0  0  0
    5.2967   -3.1734    0.0202 F   0  0  0  0  0  0  0  0  0  0  0  0
    4.0185   -1.3082    0.0037 O   0  0  0  0  0  0  0  0  0  0  0  0
   -0.8752    1.3599    0.0032 N   0  0  0  0  0  0  0  0  0  0  0  0
   -3.1097    0.6725    0.0069 N   0  0  0  0  0  0  0  0  0  0  0  0
    0.3867   -0.6122    0.0000 C   0  0  0  0  0  0  0  0  0  0  0  0
    0.3840    0.7798    0.0010 C   0  0  0  0  0  0  0  0  0  0  0  0
    1.5688   -1.3662   -0.0001 C   0  0  0  0  0  0  0  0  0  0  0  0
    2.7934   -0.6948    0.0005 C   0  0  0  0  0  0  0  0  0  0  0  0
    1.6260    1.4482   -0.0009 C   0  0  0  0  0  0  0  0  0  0  0  0
    2.8170    0.7022   -0.0022 C   0  0  0  0  0  0  0  0  0  0  0  0
   -1.7977    0.4276    0.0029 C   0  0  0  0  0  0  0  0  0  0  0  0
    4.0211   -2.7310    0.0130 C   0  0  0  0  0  0  0  0  0  0  0  0
   -3.7874   -0.0781   -0.0231 H   0  0  0  0  0  0  0  0  0  0  0  0
   -3.4522    1.6233   -0.0085 H   0  0  0  0  0  0  0  0  0  0  0  0
    1.4857   -2.4465   -0.0005 H   0  0  0  0  0  0  0  0  0  0  0  0
    1.6519    2.5341   -0.0014 H   0  0  0  0  0  0  0  0  0  0  0  0
    3.7688    1.2316   -0.0049 H   0  0  0  0  0  0  0  0  0  0  0  0
  1  8  1  0  0  0  0
  1 14  1  0  0  0  0
  2 15  1  0  0  0  0
  3 15  1  0  0  0  0
  4 15  1  0  0  0  0
  5 11  1  0  0  0  0
  5 15  1  0  0  0  0
  6  9  1  0  0  0  0
  6 14  2  0  0  0  0
  7 14  1  0  0  0  0
  7 16  1  0  0  0  0
  7 17  1  0  0  0  0
  8  9  2  0  0  0  0
  8 10  1  0  0  0  0
  9 12  1  0  0  0  0
 10 11  2  0  0  0  0
 10 18  1  0  0  0  0
 11 13  1  0  0  0  0
 12 13  2  0  0  0  0
 12 19  1  0  0  0  0
 13 20  1  0  0  0  0
M  END
>  <DRUGBANK_ID>
DB00740

>  <SECONDARY_ACCESSION_NUMBERS>
APRD00145

>  <COMMON_NAME>
Riluzole

>  <CAS_NUMBER>
1744-22-5

>  <UNII>
7LJ087RS6F

>  <SYNONYMS>
Riluzol; Riluzole; Riluzolum

$$$$
