
 OpenBabel10282417103D

 47 49  0  0  1  0  0  0  0  0999 V2000
    0.1311    0.7490   -0.6311 C   0  0  2  0  0  0  0  0  0  0  0  0
   -0.5902   -0.4986   -0.3881 N   0  0  0  0  0  0  0  0  0  0  0  0
   -0.0083   -1.7143   -0.1567 C   0  0  0  0  0  0  0  0  0  0  0  0
    1.3454   -1.7619   -0.0200 C   0  0  0  0  0  0  0  0  0  0  0  0
    2.2520   -0.5320   -0.1232 C   0  0  0  0  0  0  0  0  0  0  0  0
    1.4476    0.9603    0.5382 S   0  0  0  0  0  0  0  0  0  0  0  0
   -1.1774    1.4710   -0.4229 C   0  0  1  0  0  0  0  0  0  0  0  0
   -1.7237    0.0891    0.0704 C   0  0  0  0  0  0  0  0  0  0  0  0
   -1.4089    2.7011    0.3172 N   0  0  0  0  0  0  0  0  0  0  0  0
   -2.1576    3.7926   -0.1450 C   0  0  0  0  0  0  0  0  0  0  0  0
   -2.1682    4.7751    0.5935 O   0  0  0  0  0  0  0  0  0  0  0  0
   -2.6776   -0.4152    0.6006 O   0  0  0  0  0  0  0  0  0  0  0  0
   -2.8833    3.8016   -1.5764 C   0  0  0  0  0  0  0  0  0  0  0  0
    2.0946   -3.0346    0.3111 C   0  0  0  0  0  0  0  0  0  0  0  0
   -2.9667    2.6313   -2.4923 C   0  0  0  0  0  0  0  0  0  0  0  0
    0.4556    0.8372   -1.6802 H   0  0  0  0  0  0  0  0  0  0  0  0
   -2.5303    2.6471   -3.8105 C   0  0  0  0  0  0  0  0  0  0  0  0
   -2.4684    1.0517   -4.4516 S   0  0  0  0  0  0  0  0  0  0  0  0
   -3.0074    0.4311   -2.9496 C   0  0  0  0  0  0  0  0  0  0  0  0
   -3.3373    1.3437   -2.0618 N   0  0  0  0  0  0  0  0  0  0  0  0
   -3.4226    4.8759   -2.0991 N   0  0  0  0  0  0  0  0  0  0  0  0
   -0.8494   -2.9930   -0.1039 C   0  0  0  0  0  0  0  0  0  0  0  0
   -2.1677   -2.8517   -0.3516 O   0  0  0  0  0  0  0  0  0  0  0  0
   -0.3821   -4.1169   -0.0024 O   0  0  0  0  0  0  0  0  0  0  0  0
   -2.9506   -0.8807   -2.6639 N   0  0  0  0  0  0  0  0  0  0  0  0
    1.6538   -3.6471    1.5476 O   0  0  0  0  0  0  0  0  0  0  0  0
    1.6126   -3.0789    2.7702 C   0  0  0  0  0  0  0  0  0  0  0  0
    2.2795   -1.7581    2.9569 C   0  0  0  0  0  0  0  0  0  0  0  0
    1.0627   -3.6352    3.7162 O   0  0  0  0  0  0  0  0  0  0  0  0
   -3.3825    5.9860   -1.2491 O   0  0  0  0  0  0  0  0  0  0  0  0
   -4.1095    7.0660   -1.8249 C   0  0  0  0  0  0  0  0  0  0  0  0
    2.5706   -0.3831   -1.1599 H   0  0  0  0  0  0  0  0  0  0  0  0
    3.1750   -0.6182    0.4475 H   0  0  0  0  0  0  0  0  0  0  0  0
   -1.3466    1.7172   -1.4454 H   0  0  0  0  0  0  0  0  0  0  0  0
   -1.0294    2.8483    1.2505 H   0  0  0  0  0  0  0  0  0  0  0  0
    1.9430   -3.7571   -0.5010 H   0  0  0  0  0  0  0  0  0  0  0  0
    3.1767   -2.8910    0.3671 H   0  0  0  0  0  0  0  0  0  0  0  0
   -2.1715    3.4831   -4.3937 H   0  0  0  0  0  0  0  0  0  0  0  0
   -2.5219   -1.9660   -0.1424 H   0  0  0  0  0  0  0  0  0  0  0  0
   -2.9483   -1.5666   -3.4122 H   0  0  0  0  0  0  0  0  0  0  0  0
   -3.4453   -1.2016   -1.8380 H   0  0  0  0  0  0  0  0  0  0  0  0
    1.5414   -0.9945    3.2148 H   0  0  0  0  0  0  0  0  0  0  0  0
    3.0653   -1.8356    3.7062 H   0  0  0  0  0  0  0  0  0  0  0  0
    2.8029   -1.4531    2.0727 H   0  0  0  0  0  0  0  0  0  0  0  0
   -3.6301    7.3994   -2.7500 H   0  0  0  0  0  0  0  0  0  0  0  0
   -5.1502    6.7848   -2.0174 H   0  0  0  0  0  0  0  0  0  0  0  0
   -4.1043    7.8968   -1.1129 H   0  0  0  0  0  0  0  0  0  0  0  0
  1  2  1  0  0  0  0
  1  6  1  0  0  0  0
  1  7  1  0  0  0  0
  1 16  1  6  0  0  0
  2  3  1  0  0  0  0
  2  8  1  0  0  0  0
  3  4  2  0  0  0  0
  3 22  1  0  0  0  0
  4  5  1  0  0  0  0
  4 14  1  0  0  0  0
  5  6  1  0  0  0  0
  5 32  1  0  0  0  0
  5 33  1  0  0  0  0
  7  8  1  0  0  0  0
  7  9  1  0  0  0  0
  7 34  1  6  0  0  0
  8 12  2  0  0  0  0
  9 10  1  0  0  0  0
  9 35  1  0  0  0  0
 10 11  2  0  0  0  0
 10 13  1  0  0  0  0
 13 15  1  0  0  0  0
 13 21  2  0  0  0  0
 14 26  1  0  0  0  0
 14 36  1  0  0  0  0
 14 37  1  0  0  0  0
 15 17  2  0  0  0  0
 15 20  1  0  0  0  0
 17 18  1  0  0  0  0
 17 38  1  0  0  0  0
 18 19  1  0  0  0  0
 19 20  2  0  0  0  0
 19 25  1  0  0  0  0
 21 30  1  0  0  0  0
 22 23  1  0  0  0  0
 22 24  2  0  0  0  0
 23 39  1  0  0  0  0
 25 40  1  0  0  0  0
 25 41  1  0  0  0  0
 26 27  1  0  0  0  0
 27 28  1  0  0  0  0
 27 29  2  0  0  0  0
 28 42  1  0  0  0  0
 28 43  1  0  0  0  0
 28 44  1  0  0  0  0
 30 31  1  0  0  0  0
 31 45  1  0  0  0  0
 31 46  1  0  0  0  0
 31 47  1  0  0  0  0
M  END
>  <DRUGBANK_ID>
DB00493

>  <SECONDARY_ACCESSION_NUMBERS>
APRD00854

>  <COMMON_NAME>
Cefotaxime

>  <CAS_NUMBER>
63527-52-6

>  <UNII>
N2GI8B1GK7

>  <SYNONYMS>
(6R,7R,Z)-3-(acetoxymethyl)-7-(2-(2-aminothiazol-4-yl)-2-(methoxyimino)acetamido)-8-oxo-5-thia-1-aza-bicyclo[4.2.0]oct-2-ene-2-carboxylic acid; (6R,7R)-3-(acetoxymethyl)-7-{[(2Z)-2-(2-amino-1,3-thiazol-4-yl)-2-(methoxyimino)acetyl]amino}-8-oxo-5-thia-1-azabicyclo[4.2.0]oct-2-ene-2-carboxylic acid; (6R,7R)-3-Acetoxymethyl-7-{2-(2-amino-thiazol-4-yl)-2-[(Z)-methoxyimino]-acetylamino}-8-oxo-5-thia-1-aza-bicyclo[4.2.0]oct-2-ene-2-carboxylic acid; Cefotaxim; Cefotaxima; Cefotaxime; CÃ©fotaxime; Cefotaximum; Cephotaxime

$$$$
