
 OpenBabel10282417233D

 71 73  0  0  1  0  0  0  0  0999 V2000
    1.9887    8.0498   -3.0966 C   0  0  0  0  0  0  0  0  0  0  0  0
    2.6331    8.9286   -2.0584 C   0  0  0  0  0  0  0  0  0  0  0  0
    2.5418   10.3133   -2.2395 C   0  0  0  0  0  0  0  0  0  0  0  0
    3.1256   11.2043   -1.3404 C   0  0  0  0  0  0  0  0  0  0  0  0
    2.9964   12.5403   -1.5863 O   0  0  0  0  0  0  0  0  0  0  0  0
    3.8153   10.7548   -0.2238 C   0  0  0  0  0  0  0  0  0  0  0  0
    4.4136   11.6780    0.5877 O   0  0  0  0  0  0  0  0  0  0  0  0
    3.8567    9.3947    0.0282 C   0  0  0  0  0  0  0  0  0  0  0  0
    3.2606    8.4851   -0.8874 C   0  0  0  0  0  0  0  0  0  0  0  0
    3.1670    7.0900   -0.4675 C   0  0  0  0  0  0  0  0  0  0  0  0
    3.0977    6.8193    0.7368 O   0  0  0  0  0  0  0  0  0  0  0  0
    3.1754    6.2452   -1.5160 O   0  0  0  0  0  0  0  0  0  0  0  0
    2.9928    4.8503   -1.2939 C   0  0  0  0  0  0  0  0  0  0  0  0
    4.3062    4.1142   -1.3681 C   0  0  2  0  0  0  0  0  0  0  0  0
    4.2245    3.0601   -0.2348 C   0  0  0  0  0  0  0  0  0  0  0  0
    3.0393    2.3102    0.1759 N   0  0  0  0  0  0  0  0  0  0  0  0
    3.3001    1.4744    1.3932 C   0  0  0  0  0  0  0  0  0  0  0  0
    3.6172    2.3607    2.6349 C   0  0  0  0  0  0  0  0  0  0  0  0
    1.9575    0.7855    1.5902 C   0  0  0  0  0  0  0  0  0  0  0  0
    4.3432    0.3092    1.3074 C   0  0  0  0  0  0  0  0  0  0  0  0
    4.4299   -0.3717    0.0275 N   0  0  0  0  0  0  0  0  0  0  0  0
    5.3762   -0.3491   -0.9522 C   0  0  0  0  0  0  0  0  0  0  0  0
    5.1089   -0.9886   -1.9796 O   0  0  0  0  0  0  0  0  0  0  0  0
    6.7292    0.4122   -0.8784 C   0  0  3  0  0  0  0  0  0  0  0  0
    7.3174    0.8164    0.4629 C   0  0  0  0  0  0  0  0  0  0  0  0
    6.8803    2.2446    0.6252 C   0  0  0  0  0  0  0  0  0  0  0  0
    6.8790    2.7905   -0.6977 O   0  0  0  0  0  0  0  0  0  0  0  0
    6.7396    1.7159   -1.6612 C   0  0  0  0  0  0  0  0  0  0  0  0
    5.4312    5.0687   -1.4029 O   0  0  0  0  0  0  0  0  0  0  0  0
    5.6088    5.7539   -0.2477 C   0  0  0  0  0  0  0  0  0  0  0  0
    5.0443    5.4316    0.7955 O   0  0  0  0  0  0  0  0  0  0  0  0
    6.6898    6.7812   -0.1328 C   0  0  0  0  0  0  0  0  0  0  0  0
    7.2953    6.5136    1.2312 C   0  0  0  0  0  0  0  0  0  0  0  0
    6.8025    8.2819   -0.4471 C   0  0  0  0  0  0  0  0  0  0  0  0
    7.2793    7.3136   -1.4538 C   0  0  0  0  0  0  0  0  0  0  0  0
    0.9137    8.2298   -3.1138 H   0  0  0  0  0  0  0  0  0  0  0  0
    2.4511    8.2378   -4.0689 H   0  0  0  0  0  0  0  0  0  0  0  0
    2.0673    6.9745   -2.9800 H   0  0  0  0  0  0  0  0  0  0  0  0
    1.9829   10.7065   -3.0822 H   0  0  0  0  0  0  0  0  0  0  0  0
    3.4727   12.9829   -0.8577 H   0  0  0  0  0  0  0  0  0  0  0  0
    4.8871   11.2217    1.3067 H   0  0  0  0  0  0  0  0  0  0  0  0
    4.3739    9.0107    0.9083 H   0  0  0  0  0  0  0  0  0  0  0  0
    2.4849    4.7137   -0.3390 H   0  0  0  0  0  0  0  0  0  0  0  0
    2.3522    4.3893   -2.0558 H   0  0  0  0  0  0  0  0  0  0  0  0
    4.4133    3.5560   -2.3062 H   0  0  0  0  0  0  0  0  0  0  0  0
    4.7985    2.2395   -0.5932 H   0  0  0  0  0  0  0  0  0  0  0  0
    4.6291    3.4957    0.6606 H   0  0  0  0  0  0  0  0  0  0  0  0
    2.3066    2.9697    0.4306 H   0  0  0  0  0  0  0  0  0  0  0  0
    2.8618    3.1430    2.7626 H   0  0  0  0  0  0  0  0  0  0  0  0
    3.6557    1.7624    3.5505 H   0  0  0  0  0  0  0  0  0  0  0  0
    4.5858    2.8758    2.5878 H   0  0  0  0  0  0  0  0  0  0  0  0
    1.7368    0.1553    0.7203 H   0  0  0  0  0  0  0  0  0  0  0  0
    1.9833    0.1505    2.4786 H   0  0  0  0  0  0  0  0  0  0  0  0
    1.1533    1.5171    1.7007 H   0  0  0  0  0  0  0  0  0  0  0  0
    5.3056    0.6653    1.5857 H   0  0  0  0  0  0  0  0  0  0  0  0
    4.1758   -0.4467    2.0854 H   0  0  0  0  0  0  0  0  0  0  0  0
    3.6152   -0.9214   -0.2319 H   0  0  0  0  0  0  0  0  0  0  0  0
    7.4305   -0.2740   -1.3644 H   0  0  0  0  0  0  0  0  0  0  0  0
    8.4037    0.8587    0.4322 H   0  0  0  0  0  0  0  0  0  0  0  0
    7.0556    0.1244    1.2645 H   0  0  0  0  0  0  0  0  0  0  0  0
    5.8931    2.2512    1.0427 H   0  0  0  0  0  0  0  0  0  0  0  0
    7.3787    2.9085    1.3305 H   0  0  0  0  0  0  0  0  0  0  0  0
    7.6091    1.8198   -2.3104 H   0  0  0  0  0  0  0  0  0  0  0  0
    5.8602    1.8437   -2.3108 H   0  0  0  0  0  0  0  0  0  0  0  0
    6.4871    6.6707    1.9737 H   0  0  0  0  0  0  0  0  0  0  0  0
    7.5469    5.4488    1.2788 H   0  0  0  0  0  0  0  0  0  0  0  0
    8.1221    7.1266    1.5659 H   0  0  0  0  0  0  0  0  0  0  0  0
    6.0435    8.9626   -0.7935 H   0  0  0  0  0  0  0  0  0  0  0  0
    7.5809    8.8675    0.0534 H   0  0  0  0  0  0  0  0  0  0  0  0
    8.3329    7.2423   -1.6663 H   0  0  0  0  0  0  0  0  0  0  0  0
    6.6616    7.2962   -2.3564 H   0  0  0  0  0  0  0  0  0  0  0  0
  1  2  1  0  0  0  0
  1 36  1  0  0  0  0
  1 37  1  0  0  0  0
  1 38  1  0  0  0  0
  2  3  2  0  0  0  0
  2  9  1  0  0  0  0
  3  4  1  0  0  0  0
  3 39  1  0  0  0  0
  4  5  1  0  0  0  0
  4  6  2  0  0  0  0
  5 40  1  0  0  0  0
  6  7  1  0  0  0  0
  6  8  1  0  0  0  0
  7 41  1  0  0  0  0
  8  9  2  0  0  0  0
  8 42  1  0  0  0  0
  9 10  1  0  0  0  0
 10 11  2  0  0  0  0
 10 12  1  0  0  0  0
 12 13  1  0  0  0  0
 13 43  1  0  0  0  0
 13 44  1  0  0  0  0
 14 29  1  0  0  0  0
 14 45  1  6  0  0  0
 14 15  1  0  0  0  0
 14 13  1  0  0  0  0
 15 16  1  0  0  0  0
 15 46  1  0  0  0  0
 15 47  1  0  0  0  0
 16 17  1  0  0  0  0
 16 48  1  0  0  0  0
 17 18  1  0  0  0  0
 17 19  1  0  0  0  0
 17 20  1  0  0  0  0
 18 49  1  0  0  0  0
 18 50  1  0  0  0  0
 18 51  1  0  0  0  0
 19 52  1  0  0  0  0
 19 53  1  0  0  0  0
 19 54  1  0  0  0  0
 20 21  1  0  0  0  0
 20 55  1  0  0  0  0
 20 56  1  0  0  0  0
 21 22  1  0  0  0  0
 21 57  1  0  0  0  0
 22 23  2  0  0  0  0
 22 24  1  0  0  0  0
 24 25  1  0  0  0  0
 24 28  1  0  0  0  0
 24 58  1  0  0  0  0
 25 26  1  0  0  0  0
 25 59  1  0  0  0  0
 25 60  1  0  0  0  0
 26 27  1  0  0  0  0
 26 61  1  0  0  0  0
 26 62  1  0  0  0  0
 27 28  1  0  0  0  0
 28 63  1  0  0  0  0
 28 64  1  0  0  0  0
 29 30  1  0  0  0  0
 30 31  2  0  0  0  0
 30 32  1  0  0  0  0
 32 33  1  0  0  0  0
 32 34  1  0  0  0  0
 32 35  1  0  0  0  0
 33 65  1  0  0  0  0
 33 66  1  0  0  0  0
 33 67  1  0  0  0  0
 34 35  1  0  0  0  0
 34 68  1  0  0  0  0
 34 69  1  0  0  0  0
 35 70  1  0  0  0  0
 35 71  1  0  0  0  0
M  END
>  <DRUGBANK_ID>
DB16112

>  <COMMON_NAME>
OT-730

>  <CAS_NUMBER>
870809-51-1

>  <UNII>
5WVS67PLAL

$$$$
