
 OpenBabel10282417123D

 56 58  0  0  1  0  0  0  0  0999 V2000
   -0.1056    0.2454   -2.2705 C   0  0  0  0  0  0  0  0  0  0  0  0
   -0.5992   -1.9879   -3.1689 C   0  0  0  0  0  0  0  0  0  0  0  0
   -1.1688    0.5025    3.7215 C   0  0  0  0  0  0  0  0  0  0  0  0
    1.6527   -0.9511   -3.5237 C   0  0  0  0  0  0  0  0  0  0  0  0
   -1.6490   -2.8659    0.5589 C   0  0  0  0  0  0  0  0  0  0  0  0
   -4.7094    0.2139    0.1720 C   0  0  0  0  0  0  0  0  0  0  0  0
   -1.0918    1.6884    2.7764 C   0  0  2  0  0  0  0  0  0  0  0  0
   -3.9162   -1.7301   -0.2104 C   0  0  0  0  0  0  0  0  0  0  0  0
   -2.1747    2.7443    3.0112 C   0  0  2  0  0  0  0  0  0  0  0  0
   -3.3780    2.1810    2.2545 C   0  0  2  0  0  0  0  0  0  0  0  0
    1.0352   -1.8558   -1.1547 C   0  0  1  0  0  0  0  0  0  0  0  0
   -3.5933   -3.0332   -0.6378 C   0  0  0  0  0  0  0  0  0  0  0  0
   -2.9851   -1.0871    0.5923 C   0  0  0  0  0  0  0  0  0  0  0  0
   -2.7311    1.4200    1.1015 C   0  0  2  0  0  0  0  0  0  0  0  0
    0.6686   -1.0850    0.1403 C   0  0  0  0  0  0  0  0  0  0  0  0
    0.5188   -1.1519   -2.5025 C   0  0  0  0  0  0  0  0  0  0  0  0
   -4.4080   -3.8219   -1.4197 N   0  0  0  0  0  0  0  0  0  0  0  0
   -2.4058   -3.5604   -0.2936 N   0  0  0  0  0  0  0  0  0  0  0  0
   -1.8734   -1.6475    1.0903 N   0  0  0  0  0  0  0  0  0  0  0  0
   -5.0135   -0.9250   -0.4146 N   0  0  0  0  0  0  0  0  0  0  0  0
   -3.4366    0.2060    0.7005 N   0  0  0  0  0  0  0  0  0  0  0  0
    2.7133   -0.1905   -2.9419 O   0  0  0  0  0  0  0  0  0  0  0  0
   -1.8069    4.0098    2.4371 O   0  0  0  0  0  0  0  0  0  0  0  0
   -4.2616    3.1941    1.7759 O   0  0  0  0  0  0  0  0  0  0  0  0
    2.4547   -2.0416   -1.1354 O   0  0  0  0  0  0  0  0  0  0  0  0
    0.1193    0.0153    0.1433 O   0  0  0  0  0  0  0  0  0  0  0  0
    1.4747   -2.0300    3.5507 O   0  0  0  0  0  0  0  0  0  0  0  0
    2.1557    0.2937    2.6962 O   0  0  0  0  0  0  0  0  0  0  0  0
   -0.2123   -0.5251    3.5707 O   0  0  0  0  0  0  0  0  0  0  0  0
   -1.3840    1.1638    1.4856 O   0  0  0  0  0  0  0  0  0  0  0  0
    0.9608   -1.6373    1.3143 O   0  0  0  0  0  0  0  0  0  0  0  0
    1.0807   -0.7428    2.6543 P   0  0  3  0  0  0  0  0  0  0  0  0
   -0.0848    2.1174    2.7530 H   0  0  0  0  0  0  0  0  0  0  0  0
   -2.3797    2.9216    4.0716 H   0  0  0  0  0  0  0  0  0  0  0  0
   -3.9462    1.5051    2.9014 H   0  0  0  0  0  0  0  0  0  0  0  0
    0.6300   -2.8766   -1.1318 H   0  0  0  0  0  0  0  0  0  0  0  0
   -2.6614    2.0411    0.1999 H   0  0  0  0  0  0  0  0  0  0  0  0
   -0.3435    0.7746   -3.1939 H   0  0  0  0  0  0  0  0  0  0  0  0
    0.5923    0.8949   -1.7285 H   0  0  0  0  0  0  0  0  0  0  0  0
   -1.0529    0.1639   -1.7227 H   0  0  0  0  0  0  0  0  0  0  0  0
   -1.0079   -1.4651   -4.0444 H   0  0  0  0  0  0  0  0  0  0  0  0
   -0.2414   -2.9647   -3.5087 H   0  0  0  0  0  0  0  0  0  0  0  0
   -1.4358   -2.1501   -2.4842 H   0  0  0  0  0  0  0  0  0  0  0  0
   -2.1062   -0.0392    3.5683 H   0  0  0  0  0  0  0  0  0  0  0  0
   -1.2026    0.8603    4.7621 H   0  0  0  0  0  0  0  0  0  0  0  0
    2.0593   -1.9096   -3.8624 H   0  0  0  0  0  0  0  0  0  0  0  0
    1.2949   -0.4152   -4.4118 H   0  0  0  0  0  0  0  0  0  0  0  0
   -0.6881   -3.3207    0.7818 H   0  0  0  0  0  0  0  0  0  0  0  0
   -5.3590    1.0802    0.2249 H   0  0  0  0  0  0  0  0  0  0  0  0
   -5.3808   -3.5574   -1.4745 H   0  0  0  0  0  0  0  0  0  0  0  0
   -4.1254   -4.7896   -1.4934 H   0  0  0  0  0  0  0  0  0  0  0  0
    2.3694    0.6950   -2.7277 H   0  0  0  0  0  0  0  0  0  0  0  0
   -1.4533    3.8694    1.5409 H   0  0  0  0  0  0  0  0  0  0  0  0
   -3.7114    3.9179    1.4145 H   0  0  0  0  0  0  0  0  0  0  0  0
    2.8613   -1.1848   -1.3889 H   0  0  0  0  0  0  0  0  0  0  0  0
    0.6484   -2.5558    3.5639 H   0  0  0  0  0  0  0  0  0  0  0  0
  1 38  1  0  0  0  0
  1 39  1  0  0  0  0
  1 40  1  0  0  0  0
  2 41  1  0  0  0  0
  2 42  1  0  0  0  0
  2 43  1  0  0  0  0
  3 44  1  0  0  0  0
  3 45  1  0  0  0  0
  4 46  1  0  0  0  0
  4 47  1  0  0  0  0
  5 48  1  0  0  0  0
  6 49  1  0  0  0  0
  7  3  1  0  0  0  0
  7 33  1  1  0  0  0
  9  7  1  0  0  0  0
  9 23  1  0  0  0  0
  9 34  1  1  0  0  0
 10  9  1  0  0  0  0
 10 24  1  0  0  0  0
 10 35  1  1  0  0  0
 11 25  1  0  0  0  0
 11 36  1  1  0  0  0
 11 16  1  0  0  0  0
 11 15  1  0  0  0  0
 12  8  2  0  0  0  0
 13  8  1  0  0  0  0
 14 10  1  0  0  0  0
 14 37  1  6  0  0  0
 14 21  1  0  0  0  0
 16  1  1  0  0  0  0
 16  2  1  0  0  0  0
 16  4  1  0  0  0  0
 17 12  1  0  0  0  0
 17 50  1  0  0  0  0
 17 51  1  0  0  0  0
 18  5  2  0  0  0  0
 18 12  1  0  0  0  0
 19  5  1  0  0  0  0
 19 13  2  0  0  0  0
 20  6  2  0  0  0  0
 20  8  1  0  0  0  0
 21  6  1  0  0  0  0
 21 13  1  0  0  0  0
 22  4  1  0  0  0  0
 22 52  1  0  0  0  0
 23 53  1  0  0  0  0
 24 54  1  0  0  0  0
 25 55  1  0  0  0  0
 26 15  2  0  0  0  0
 27 56  1  0  0  0  0
 29  3  1  0  0  0  0
 30  7  1  0  0  0  0
 30 14  1  0  0  0  0
 31 15  1  0  0  0  0
 32 27  1  0  0  0  0
 32 28  2  0  0  0  0
 32 29  1  0  0  0  0
 32 31  1  0  0  0  0
M  END
>  <DRUGBANK_ID>
DB02694

>  <SECONDARY_ACCESSION_NUMBERS>
EXPT02493

>  <COMMON_NAME>
Pantoyl Adenylate

$$$$
