
 OpenBabel10282417203D

 29 28  0  0  0  0  0  0  0  0999 V2000
    1.0836    0.1310    0.2111 C   0  0  0  0  0  0  0  0  0  0  0  0
    0.5659   -1.2675   -0.0653 C   0  0  0  0  0  0  0  0  0  0  0  0
    1.0199   -2.3295    0.9383 C   0  0  0  0  0  0  0  0  0  0  0  0
   -0.9713   -1.2846   -0.3923 C   0  0  3  0  0  0  0  0  0  0  0  0
   -1.6637   -0.1794   -1.3131 C   0  0  0  0  0  0  0  0  0  0  0  0
   -1.4454   -0.1369   -2.8155 C   0  0  0  0  0  0  0  0  0  0  0  0
   -2.2062   -0.7218   -3.7538 C   0  0  0  0  0  0  0  0  0  0  0  0
   -1.4049   -2.6738   -0.8359 C   0  0  0  0  0  0  0  0  0  0  0  0
   -2.1815   -3.3358   -0.1405 O   0  0  0  0  0  0  0  0  0  0  0  0
   -0.9267   -3.2094   -2.0256 N   0  0  0  0  0  0  0  0  0  0  0  0
   -0.0841   -2.8312   -3.0501 C   0  0  0  0  0  0  0  0  0  0  0  0
   -0.0924   -3.4085   -4.1432 O   0  0  0  0  0  0  0  0  0  0  0  0
    0.7581   -1.8016   -2.8634 N   0  0  0  0  0  0  0  0  0  0  0  0
    0.7237    0.5052    1.1694 H   0  0  0  0  0  0  0  0  0  0  0  0
    0.7799    0.8204   -0.5840 H   0  0  0  0  0  0  0  0  0  0  0  0
    2.1785    0.1327    0.2062 H   0  0  0  0  0  0  0  0  0  0  0  0
    1.1974   -1.6133   -0.8658 H   0  0  0  0  0  0  0  0  0  0  0  0
    0.6631   -2.1419    1.9479 H   0  0  0  0  0  0  0  0  0  0  0  0
    0.6998   -3.3280    0.6115 H   0  0  0  0  0  0  0  0  0  0  0  0
    2.1185   -2.3678    0.9430 H   0  0  0  0  0  0  0  0  0  0  0  0
   -1.4504   -1.1245    0.5894 H   0  0  0  0  0  0  0  0  0  0  0  0
   -2.7489   -0.2532   -1.1564 H   0  0  0  0  0  0  0  0  0  0  0  0
   -1.3812    0.8090   -0.9367 H   0  0  0  0  0  0  0  0  0  0  0  0
   -0.5270    0.3316   -3.1731 H   0  0  0  0  0  0  0  0  0  0  0  0
   -1.8120   -0.8466   -4.7655 H   0  0  0  0  0  0  0  0  0  0  0  0
   -3.1586   -1.1937   -3.5431 H   0  0  0  0  0  0  0  0  0  0  0  0
   -1.4164   -4.0661   -2.2483 H   0  0  0  0  0  0  0  0  0  0  0  0
    0.4312   -1.0579   -2.2769 H   0  0  0  0  0  0  0  0  0  0  0  0
    1.2418   -1.4139   -3.6574 H   0  0  0  0  0  0  0  0  0  0  0  0
  1  2  1  0  0  0  0
  1 14  1  0  0  0  0
  1 15  1  0  0  0  0
  1 16  1  0  0  0  0
  2  3  1  0  0  0  0
  2  4  1  0  0  0  0
  2 17  1  0  0  0  0
  3 18  1  0  0  0  0
  3 19  1  0  0  0  0
  3 20  1  0  0  0  0
  4  5  1  0  0  0  0
  4  8  1  0  0  0  0
  4 21  1  0  0  0  0
  5  6  1  0  0  0  0
  5 22  1  0  0  0  0
  5 23  1  0  0  0  0
  6  7  2  0  0  0  0
  6 24  1  0  0  0  0
  7 25  1  0  0  0  0
  7 26  1  0  0  0  0
  8  9  2  0  0  0  0
  8 10  1  0  0  0  0
 10 11  1  0  0  0  0
 10 27  1  0  0  0  0
 11 12  2  0  0  0  0
 11 13  1  0  0  0  0
 13 28  1  0  0  0  0
 13 29  1  0  0  0  0
M  END
>  <DRUGBANK_ID>
DB13221

>  <COMMON_NAME>
Apronalide

>  <CAS_NUMBER>
528-92-7

>  <UNII>
V18J24E25E

>  <SYNONYMS>
Apronal

$$$$
