N-acetylneuraminic acid.mol
 OpenBabel10282417143D

 40 40  0  0  0  0  0  0  0  0999 V2000
    0.6721   -0.0114    2.4930 C   0  0  0  0  0  0  0  0  0  0  0  0
    0.1605    0.5857    1.1243 C   0  0  1  0  0  0  0  0  0  0  0  0
    0.8539   -0.0542    0.0661 O   0  0  0  0  0  0  0  0  0  0  0  0
   -1.2335    0.4325    0.8834 O   0  0  0  0  0  0  0  0  0  0  0  0
   -1.6646    0.9802   -0.4100 C   0  0  1  0  0  0  0  0  0  0  0  0
   -3.1661    0.6211   -0.5633 C   0  0  2  0  0  0  0  0  0  0  0  0
   -3.3878    0.0669   -1.8840 O   0  0  0  0  0  0  0  0  0  0  0  0
   -4.2313    1.7120   -0.2947 C   0  0  2  0  0  0  0  0  0  0  0  0
   -4.4376    2.3773   -1.5482 O   0  0  0  0  0  0  0  0  0  0  0  0
   -4.0730    2.5523    1.0123 C   0  0  0  0  0  0  0  0  0  0  0  0
   -3.6756    1.7677    2.1248 O   0  0  0  0  0  0  0  0  0  0  0  0
   -1.3381    2.4912   -0.4816 C   0  0  2  0  0  0  0  0  0  0  0  0
   -1.7739    3.1958   -1.6956 N   0  0  0  0  0  0  0  0  0  0  0  0
    0.1367    2.7500   -0.1759 C   0  0  1  0  0  0  0  0  0  0  0  0
    0.2611    4.1748   -0.0574 O   0  0  0  0  0  0  0  0  0  0  0  0
    0.5025    2.0793    1.1483 C   0  0  0  0  0  0  0  0  0  0  0  0
    1.7943   -0.4395    2.6683 O   0  0  0  0  0  0  0  0  0  0  0  0
   -0.2536   -0.0038    3.4894 O   0  0  0  0  0  0  0  0  0  0  0  0
   -2.5689    4.3018   -1.8690 C   0  0  0  0  0  0  0  0  0  0  0  0
   -2.7836    4.7053   -3.0141 O   0  0  0  0  0  0  0  0  0  0  0  0
   -3.2861    4.9633   -0.7130 C   0  0  0  0  0  0  0  0  0  0  0  0
    0.6539   -1.0025    0.1792 H   0  0  0  0  0  0  0  0  0  0  0  0
   -1.1116    0.4489   -1.2007 H   0  0  0  0  0  0  0  0  0  0  0  0
   -3.3947   -0.2055    0.1147 H   0  0  0  0  0  0  0  0  0  0  0  0
   -4.1774    0.5228   -2.2427 H   0  0  0  0  0  0  0  0  0  0  0  0
   -5.1727    1.1804   -0.1567 H   0  0  0  0  0  0  0  0  0  0  0  0
   -5.1991    2.9783   -1.5548 H   0  0  0  0  0  0  0  0  0  0  0  0
   -3.3577    3.3654    1.0215 H   0  0  0  0  0  0  0  0  0  0  0  0
   -5.0054    3.0844    1.2283 H   0  0  0  0  0  0  0  0  0  0  0  0
   -4.4215    1.1861    2.3349 H   0  0  0  0  0  0  0  0  0  0  0  0
   -1.7985    2.9683    0.3626 H   0  0  0  0  0  0  0  0  0  0  0  0
   -1.3941    2.8665   -2.5745 H   0  0  0  0  0  0  0  0  0  0  0  0
    0.7754    2.3951   -0.9924 H   0  0  0  0  0  0  0  0  0  0  0  0
    1.1588    4.4059    0.2222 H   0  0  0  0  0  0  0  0  0  0  0  0
   -0.0505    2.5688    1.9651 H   0  0  0  0  0  0  0  0  0  0  0  0
    1.5642    2.2475    1.3581 H   0  0  0  0  0  0  0  0  0  0  0  0
   -1.1282    0.3237    3.1994 H   0  0  0  0  0  0  0  0  0  0  0  0
   -4.1405    4.3615   -0.4288 H   0  0  0  0  0  0  0  0  0  0  0  0
   -2.6319    5.1541    0.1384 H   0  0  0  0  0  0  0  0  0  0  0  0
   -3.7831    5.8897   -1.0066 H   0  0  0  0  0  0  0  0  0  0  0  0
  1 17  2  0  0  0  0
  1 18  1  0  0  0  0
  2  4  1  0  0  0  0
  2 16  1  0  0  0  0
  2  3  1  6  0  0  0
  2  1  1  0  0  0  0
  3 22  1  0  0  0  0
  5  4  1  0  0  0  0
  5 12  1  0  0  0  0
  5 23  1  6  0  0  0
  5  6  1  0  0  0  0
  6 24  1  1  0  0  0
  6  8  1  0  0  0  0
  6  7  1  0  0  0  0
  7 25  1  0  0  0  0
  8 26  1  1  0  0  0
  8 10  1  0  0  0  0
  8  9  1  0  0  0  0
  9 27  1  0  0  0  0
 10 11  1  0  0  0  0
 10 28  1  0  0  0  0
 10 29  1  0  0  0  0
 11 30  1  0  0  0  0
 12 13  1  0  0  0  0
 12 14  1  0  0  0  0
 12 31  1  1  0  0  0
 13 19  1  0  0  0  0
 13 32  1  0  0  0  0
 14 16  1  0  0  0  0
 14 33  1  6  0  0  0
 14 15  1  0  0  0  0
 15 34  1  0  0  0  0
 16 35  1  0  0  0  0
 16 36  1  0  0  0  0
 18 37  1  0  0  0  0
 19 20  2  0  0  0  0
 19 21  1  0  0  0  0
 21 38  1  0  0  0  0
 21 39  1  0  0  0  0
 21 40  1  0  0  0  0
M  END
>  <DRUGBANK_ID>
DB04265

>  <SECONDARY_ACCESSION_NUMBERS>
EXPT02915

>  <COMMON_NAME>
N-acetyl-beta-neuraminic acid

>  <CAS_NUMBER>
19342-33-7

>  <UNII>
TIP79W5HPN

>  <SYNONYMS>
(-)-N-acetyl-beta-neuraminic acid; beta-sialic acid; N-acetyl-beta-D-neuraminic acid; N-acetyl-β-neuraminic acid; β-Neu5Ac

$$$$
