
 OpenBabel10282417133D

 23 24  0  0  0  0  0  0  0  0999 V2000
    0.9434    0.0431   -0.0771 C   0  0  0  0  0  0  0  0  0  0  0  0
    0.4628   -0.9794    0.9156 C   0  0  0  0  0  0  0  0  0  0  0  0
    0.6681   -2.3378    0.6290 C   0  0  0  0  0  0  0  0  0  0  0  0
    0.3571   -3.3270    1.5643 C   0  0  0  0  0  0  0  0  0  0  0  0
   -0.1732   -2.9748    2.8033 C   0  0  0  0  0  0  0  0  0  0  0  0
   -0.4138   -1.6289    3.0954 C   0  0  0  0  0  0  0  0  0  0  0  0
   -0.1079   -0.6197    2.1498 C   0  0  0  0  0  0  0  0  0  0  0  0
   -0.3320    0.8368    2.4946 C   0  0  0  0  0  0  0  0  0  0  0  0
   -1.2246    0.9923    3.7080 C   0  0  0  0  0  0  0  0  0  0  0  0
   -0.7905    0.0910    4.7401 N   0  0  0  0  0  0  0  0  0  0  0  0
   -0.8617   -1.2550    4.4714 C   0  0  0  0  0  0  0  0  0  0  0  0
   -1.1891   -2.0810    5.3175 O   0  0  0  0  0  0  0  0  0  0  0  0
    0.6093    1.0575    0.1521 H   0  0  0  0  0  0  0  0  0  0  0  0
    0.5720   -0.1940   -1.0775 H   0  0  0  0  0  0  0  0  0  0  0  0
    2.0378    0.0582   -0.0811 H   0  0  0  0  0  0  0  0  0  0  0  0
    1.0949   -2.6302   -0.3287 H   0  0  0  0  0  0  0  0  0  0  0  0
    0.5548   -4.3709    1.3340 H   0  0  0  0  0  0  0  0  0  0  0  0
   -0.3680   -3.7434    3.5487 H   0  0  0  0  0  0  0  0  0  0  0  0
   -0.8175    1.3530    1.6604 H   0  0  0  0  0  0  0  0  0  0  0  0
    0.6417    1.3021    2.6885 H   0  0  0  0  0  0  0  0  0  0  0  0
   -2.2560    0.7204    3.4426 H   0  0  0  0  0  0  0  0  0  0  0  0
   -1.2297    2.0190    4.0829 H   0  0  0  0  0  0  0  0  0  0  0  0
   -0.7047    0.3836    5.7043 H   0  0  0  0  0  0  0  0  0  0  0  0
  1  2  1  0  0  0  0
  1 13  1  0  0  0  0
  1 14  1  0  0  0  0
  1 15  1  0  0  0  0
  2  3  2  0  0  0  0
  2  7  1  0  0  0  0
  3  4  1  0  0  0  0
  3 16  1  0  0  0  0
  4  5  2  0  0  0  0
  4 17  1  0  0  0  0
  5  6  1  0  0  0  0
  5 18  1  0  0  0  0
  6  7  2  0  0  0  0
  6 11  1  0  0  0  0
  7  8  1  0  0  0  0
  8  9  1  0  0  0  0
  8 19  1  0  0  0  0
  8 20  1  0  0  0  0
  9 10  1  0  0  0  0
  9 21  1  0  0  0  0
  9 22  1  0  0  0  0
 10 11  1  0  0  0  0
 10 23  1  0  0  0  0
 11 12  2  0  0  0  0
M  END
>  <DRUGBANK_ID>
DB03722

>  <SECONDARY_ACCESSION_NUMBERS>
EXPT01196

>  <COMMON_NAME>
3,4-Dihydro-5-Methyl-Isoquinolinone

>  <UNII>
FI8AN8XP0W

$$$$
