
 OpenBabel10282417203D

 94 91  0  0  0  0  0  0  0  0999 V2000
    0.9627    0.0883    0.0284 C   0  0  0  0  0  0  0  0  0  0  0  0
    0.4560   -1.0153    0.9426 C   0  0  0  0  0  0  0  0  0  0  0  0
    0.9627   -0.7754    2.3554 C   0  0  0  0  0  0  0  0  0  0  0  0
    0.4560    0.5681    2.8541 C   0  0  0  0  0  0  0  0  0  0  0  0
   -1.0640    0.5681    2.8541 C   0  0  0  0  0  0  0  0  0  0  0  0
   -1.5706   -0.5355    3.7683 C   0  0  0  0  0  0  0  0  0  0  0  0
   -1.0640   -0.2956    5.1811 C   0  0  0  0  0  0  0  0  0  0  0  0
   -1.5707    1.0479    5.6798 C   0  0  0  0  0  0  0  0  0  0  0  0
   -3.0907    1.0479    5.6798 C   0  0  0  0  0  0  0  0  0  0  0  0
   -3.5973   -0.0557    6.5940 C   0  0  0  0  0  0  0  0  0  0  0  0
   -3.0907    0.1841    8.0068 C   0  0  0  0  0  0  0  0  0  0  0  0
   -3.5973    1.5276    8.5055 C   0  0  0  0  0  0  0  0  0  0  0  0
   -5.1173    1.5276    8.5055 C   0  0  0  0  0  0  0  0  0  0  0  0
   -5.6240    0.4240    9.4197 C   0  0  0  0  0  0  0  0  0  0  0  0
   -5.1173    0.6639   10.8325 C   0  0  0  0  0  0  0  0  0  0  0  0
   -5.6240    2.0074   11.3312 C   0  0  0  0  0  0  0  0  0  0  0  0
   -7.1440    2.0074   11.3312 C   0  0  0  0  0  0  0  0  0  0  0  0
   -7.6507    0.9038   12.2454 C   0  0  0  0  0  0  0  0  0  0  0  0
   -7.1607    1.1358   13.6118 N   0  0  0  0  0  0  0  0  0  0  0  0
   -7.6507    0.0685   14.4959 C   0  0  0  0  0  0  0  0  0  0  0  0
   -7.1440   -1.2750   13.9972 C   0  0  0  0  0  0  0  0  0  0  0  0
   -5.6240   -1.2750   13.9972 C   0  0  0  0  0  0  0  0  0  0  0  0
   -5.1340   -1.0430   15.3636 N   0  0  0  0  0  0  0  0  0  0  0  0
   -3.6640   -1.0430   15.3636 C   0  0  0  0  0  0  0  0  0  0  0  0
   -3.1574    0.0606   14.4494 C   0  0  0  0  0  0  0  0  0  0  0  0
   -3.6307    1.3157   14.9153 O   0  0  0  0  0  0  0  0  0  0  0  0
   -5.6240    0.2563   15.8458 C   0  0  0  0  0  0  0  0  0  0  0  0
   -5.1174    1.3599   14.9317 C   0  0  0  0  0  0  0  0  0  0  0  0
   -5.5907    1.1358   13.6118 O   0  0  0  0  0  0  0  0  0  0  0  0
   -5.6907    1.1358   13.6118 C   0  0  0  0  0  0  0  0  0  0  0  0
   -5.1840   -0.2077   13.1131 C   0  0  0  0  0  0  0  0  0  0  0  0
   -5.6573   -0.4318   11.7932 O   0  0  0  0  0  0  0  0  0  0  0  0
    0.9559    0.0785    0.0434 F   0  0  0  0  0  0  0  0  0  0  0  0
    0.9965    0.0781    0.0623 F   0  0  0  0  0  0  0  0  0  0  0  0
    0.6060    1.0341    0.3794 H   0  0  0  0  0  0  0  0  0  0  0  0
    0.6060   -0.0805   -0.9662 H   0  0  0  0  0  0  0  0  0  0  0  0
    2.0327    0.0883    0.0284 H   0  0  0  0  0  0  0  0  0  0  0  0
   -0.6140   -1.0153    0.9426 H   0  0  0  0  0  0  0  0  0  0  0  0
    0.8127   -1.9610    0.5915 H   0  0  0  0  0  0  0  0  0  0  0  0
    0.6060   -1.5523    2.9990 H   0  0  0  0  0  0  0  0  0  0  0  0
    2.0327   -0.7754    2.3554 H   0  0  0  0  0  0  0  0  0  0  0  0
    0.8127    0.7370    3.8487 H   0  0  0  0  0  0  0  0  0  0  0  0
    0.8127    1.3450    2.2106 H   0  0  0  0  0  0  0  0  0  0  0  0
   -1.4206    1.5139    3.2051 H   0  0  0  0  0  0  0  0  0  0  0  0
   -1.4206    0.3992    1.8595 H   0  0  0  0  0  0  0  0  0  0  0  0
   -2.6406   -0.5355    3.7683 H   0  0  0  0  0  0  0  0  0  0  0  0
   -1.2140   -1.4813    3.4172 H   0  0  0  0  0  0  0  0  0  0  0  0
   -1.4207   -1.0725    5.8247 H   0  0  0  0  0  0  0  0  0  0  0  0
    0.0060   -0.2956    5.1811 H   0  0  0  0  0  0  0  0  0  0  0  0
   -1.2140    1.2167    6.6744 H   0  0  0  0  0  0  0  0  0  0  0  0
   -1.2140    1.8248    5.0363 H   0  0  0  0  0  0  0  0  0  0  0  0
   -3.4473    1.9936    6.0309 H   0  0  0  0  0  0  0  0  0  0  0  0
   -3.4473    0.8790    4.6852 H   0  0  0  0  0  0  0  0  0  0  0  0
   -4.6673   -0.0557    6.5940 H   0  0  0  0  0  0  0  0  0  0  0  0
   -3.2407   -1.0015    6.2429 H   0  0  0  0  0  0  0  0  0  0  0  0
   -3.4473   -0.5927    8.6504 H   0  0  0  0  0  0  0  0  0  0  0  0
   -2.0207    0.1841    8.0068 H   0  0  0  0  0  0  0  0  0  0  0  0
   -3.2407    1.6965    9.5001 H   0  0  0  0  0  0  0  0  0  0  0  0
   -3.2407    2.3045    7.8620 H   0  0  0  0  0  0  0  0  0  0  0  0
   -5.4740    2.4734    8.8566 H   0  0  0  0  0  0  0  0  0  0  0  0
   -5.4740    1.3588    7.5109 H   0  0  0  0  0  0  0  0  0  0  0  0
   -6.6940    0.4240    9.4197 H   0  0  0  0  0  0  0  0  0  0  0  0
   -5.2673   -0.5217    9.0686 H   0  0  0  0  0  0  0  0  0  0  0  0
   -5.4740   -0.1130   11.4761 H   0  0  0  0  0  0  0  0  0  0  0  0
   -4.0473    0.6639   10.8325 H   0  0  0  0  0  0  0  0  0  0  0  0
   -5.2674    2.1763   12.3258 H   0  0  0  0  0  0  0  0  0  0  0  0
   -5.2673    2.7843   10.6877 H   0  0  0  0  0  0  0  0  0  0  0  0
   -7.5007    2.9532   11.6823 H   0  0  0  0  0  0  0  0  0  0  0  0
   -7.5007    1.8386   10.3366 H   0  0  0  0  0  0  0  0  0  0  0  0
   -8.7207    0.9038   12.2454 H   0  0  0  0  0  0  0  0  0  0  0  0
   -7.2940   -0.0420   11.8943 H   0  0  0  0  0  0  0  0  0  0  0  0
   -7.2940    0.2373   15.4904 H   0  0  0  0  0  0  0  0  0  0  0  0
   -8.7207    0.0685   14.4959 H   0  0  0  0  0  0  0  0  0  0  0  0
   -7.5007   -2.0519   14.6407 H   0  0  0  0  0  0  0  0  0  0  0  0
   -7.5007   -1.4439   13.0026 H   0  0  0  0  0  0  0  0  0  0  0  0
   -5.2674   -2.2208   13.6462 H   0  0  0  0  0  0  0  0  0  0  0  0
   -5.2674   -0.4981   13.3537 H   0  0  0  0  0  0  0  0  0  0  0  0
   -3.3074   -0.8742   16.3581 H   0  0  0  0  0  0  0  0  0  0  0  0
   -3.3074   -1.9888   15.0125 H   0  0  0  0  0  0  0  0  0  0  0  0
   -2.0874    0.0606   14.4494 H   0  0  0  0  0  0  0  0  0  0  0  0
   -3.5140   -0.1083   13.4548 H   0  0  0  0  0  0  0  0  0  0  0  0
   -4.6307    1.3157   14.9153 H   0  0  0  0  0  0  0  0  0  0  0  0
   -6.6940    0.2563   15.8458 H   0  0  0  0  0  0  0  0  0  0  0  0
   -5.2674    0.4251   16.8404 H   0  0  0  0  0  0  0  0  0  0  0  0
   -5.4740    2.3056   15.2827 H   0  0  0  0  0  0  0  0  0  0  0  0
   -4.0474    1.3599   14.9317 H   0  0  0  0  0  0  0  0  0  0  0  0
   -5.2574    0.2519   13.2837 H   0  0  0  0  0  0  0  0  0  0  0  0
   -5.3340    1.9127   12.9682 H   0  0  0  0  0  0  0  0  0  0  0  0
   -5.3340    1.3047   14.6063 H   0  0  0  0  0  0  0  0  0  0  0  0
   -4.1140   -0.2077   13.1131 H   0  0  0  0  0  0  0  0  0  0  0  0
   -5.5407   -0.9846   13.7566 H   0  0  0  0  0  0  0  0  0  0  0  0
   -6.6573   -0.4318   11.7932 H   0  0  0  0  0  0  0  0  0  0  0  0
    1.9559    0.0785    0.0434 H   0  0  0  0  0  0  0  0  0  0  0  0
    1.9965    0.0781    0.0623 H   0  0  0  0  0  0  0  0  0  0  0  0
  1  2  1  0  0  0  0
  1 35  1  0  0  0  0
  1 36  1  0  0  0  0
  1 37  1  0  0  0  0
  2  3  1  0  0  0  0
  2 38  1  0  0  0  0
  2 39  1  0  0  0  0
  3  4  1  0  0  0  0
  3 40  1  0  0  0  0
  3 41  1  0  0  0  0
  4  5  1  0  0  0  0
  4 42  1  0  0  0  0
  4 43  1  0  0  0  0
  5  6  1  0  0  0  0
  5 44  1  0  0  0  0
  5 45  1  0  0  0  0
  6  7  1  0  0  0  0
  6 46  1  0  0  0  0
  6 47  1  0  0  0  0
  7  8  1  0  0  0  0
  7 48  1  0  0  0  0
  7 49  1  0  0  0  0
  8  9  1  0  0  0  0
  8 50  1  0  0  0  0
  8 51  1  0  0  0  0
  9 10  1  0  0  0  0
  9 52  1  0  0  0  0
  9 53  1  0  0  0  0
 10 11  1  0  0  0  0
 10 54  1  0  0  0  0
 10 55  1  0  0  0  0
 11 12  1  0  0  0  0
 11 56  1  0  0  0  0
 11 57  1  0  0  0  0
 12 13  1  0  0  0  0
 12 58  1  0  0  0  0
 12 59  1  0  0  0  0
 13 14  1  0  0  0  0
 13 60  1  0  0  0  0
 13 61  1  0  0  0  0
 14 15  1  0  0  0  0
 14 62  1  0  0  0  0
 14 63  1  0  0  0  0
 15 16  1  0  0  0  0
 15 64  1  0  0  0  0
 15 65  1  0  0  0  0
 16 17  1  0  0  0  0
 16 66  1  0  0  0  0
 16 67  1  0  0  0  0
 17 18  1  0  0  0  0
 17 68  1  0  0  0  0
 17 69  1  0  0  0  0
 18 19  1  0  0  0  0
 18 70  1  0  0  0  0
 18 71  1  0  0  0  0
 19 20  1  0  0  0  0
 19 30  1  0  0  0  0
 20 21  1  0  0  0  0
 20 72  1  0  0  0  0
 20 73  1  0  0  0  0
 21 22  1  0  0  0  0
 21 74  1  0  0  0  0
 21 75  1  0  0  0  0
 22 23  1  0  0  0  0
 22 76  1  0  0  0  0
 22 77  1  0  0  0  0
 23 24  1  0  0  0  0
 23 27  1  0  0  0  0
 24 25  1  0  0  0  0
 24 78  1  0  0  0  0
 24 79  1  0  0  0  0
 25 26  1  0  0  0  0
 25 80  1  0  0  0  0
 25 81  1  0  0  0  0
 26 82  1  0  0  0  0
 27 28  1  0  0  0  0
 27 83  1  0  0  0  0
 27 84  1  0  0  0  0
 28 29  1  0  0  0  0
 28 85  1  0  0  0  0
 28 86  1  0  0  0  0
 29 87  1  0  0  0  0
 30 31  1  0  0  0  0
 30 88  1  0  0  0  0
 30 89  1  0  0  0  0
 31 32  1  0  0  0  0
 31 90  1  0  0  0  0
 31 91  1  0  0  0  0
 32 92  1  0  0  0  0
 33 93  1  0  0  0  0
 34 94  1  0  0  0  0
M  END
>  <DRUGBANK_ID>
DB13290

>  <COMMON_NAME>
Olaflur

>  <CAS_NUMBER>
6818-37-7

>  <UNII>
8NY9L8837D

>  <SYNONYMS>
Olaflur

$$$$
