
 OpenBabel10282417213D

 69 75  0  0  1  0  0  0  0  0999 V2000
    0.8051   -0.0735   -0.2919 C   0  0  0  0  0  0  0  0  0  0  0  0
    0.4169    0.8299   -1.4258 C   0  0  0  0  0  0  0  0  0  0  0  0
   -0.1508    0.6668   -2.6524 C   0  0  0  0  0  0  0  0  0  0  0  0
   -0.2665    1.8872   -3.3291 N   0  0  0  0  0  0  0  0  0  0  0  0
   -0.6685    2.4074   -4.5443 C   0  0  0  0  0  0  0  0  0  0  0  0
   -0.3779    3.7766   -4.4567 C   0  0  0  0  0  0  0  0  0  0  0  0
   -0.4105    4.8763   -5.4437 C   0  0  0  0  0  0  0  0  0  0  0  0
    0.4286    4.6461   -6.6814 C   0  0  0  0  0  0  0  0  0  0  0  0
   -0.0561    4.8563   -7.7833 O   0  0  0  0  0  0  0  0  0  0  0  0
    1.7865    4.4049   -6.5183 N   0  0  0  0  0  0  0  0  0  0  0  0
    2.4972    3.6506   -5.4858 C   0  0  0  0  0  0  0  0  0  0  0  0
    3.3792    4.5437   -4.6171 C   0  0  0  0  0  0  0  0  0  0  0  0
    4.4007    5.2064   -5.5304 C   0  0  0  0  0  0  0  0  0  0  0  0
    5.6934    4.4378   -5.9078 C   0  0  0  0  0  0  0  0  0  0  0  0
    6.4975    5.6662   -5.6529 N   0  0  0  0  0  0  0  0  0  0  0  0
    5.4111    6.1708   -4.7938 C   0  0  0  0  0  0  0  0  0  0  0  0
    6.8295    6.5083   -6.8331 C   0  0  2  0  0  0  0  0  0  0  0  0
    5.8542    7.5183   -7.5298 C   0  0  0  0  0  0  0  0  0  0  0  0
    5.8572    7.2468   -9.0500 C   0  0  0  0  0  0  0  0  0  0  0  0
    6.7448    6.0506   -9.2077 C   0  0  0  0  0  0  0  0  0  0  0  0
    7.3372    5.6818   -8.0030 C   0  0  0  0  0  0  0  0  0  0  0  0
    8.2327    4.6148   -7.9605 C   0  0  0  0  0  0  0  0  0  0  0  0
    8.4990    3.8896   -9.1309 C   0  0  0  0  0  0  0  0  0  0  0  0
    7.8902    4.2303  -10.3554 C   0  0  0  0  0  0  0  0  0  0  0  0
    7.0018    5.3289  -10.3750 C   0  0  0  0  0  0  0  0  0  0  0  0
    8.1769    3.4724  -11.5885 C   0  0  0  0  0  0  0  0  0  0  0  0
    8.7662    4.0762  -12.6885 C   0  0  0  0  0  0  0  0  0  0  0  0
    8.9071    3.3099  -13.8312 C   0  0  0  0  0  0  0  0  0  0  0  0
    9.4919    3.8830  -15.0868 C   0  0  0  0  0  0  0  0  0  0  0  0
    8.5009    2.0270  -13.8877 N   0  0  0  0  0  0  0  0  0  0  0  0
    7.9590    1.5270  -12.7668 C   0  0  0  0  0  0  0  0  0  0  0  0
    7.7843    2.1805  -11.6069 N   0  0  0  0  0  0  0  0  0  0  0  0
    3.6996    5.7653   -6.7710 C   0  0  0  0  0  0  0  0  0  0  0  0
    2.6617    4.9612   -7.4925 C   0  0  0  0  0  0  0  0  0  0  0  0
    0.1459    4.0949   -3.2293 N   0  0  0  0  0  0  0  0  0  0  0  0
    0.1894    2.9569   -2.6183 C   0  0  0  0  0  0  0  0  0  0  0  0
    0.8060    2.5391   -1.0805 S   0  0  0  0  0  0  0  0  0  0  0  0
    0.4496   -1.1023   -0.3495 H   0  0  0  0  0  0  0  0  0  0  0  0
    0.4320    0.3492    0.6535 H   0  0  0  0  0  0  0  0  0  0  0  0
    1.8998   -0.0859   -0.1988 H   0  0  0  0  0  0  0  0  0  0  0  0
   -0.4789   -0.2562   -3.1160 H   0  0  0  0  0  0  0  0  0  0  0  0
   -1.0350    1.8221   -5.3794 H   0  0  0  0  0  0  0  0  0  0  0  0
   -1.4401    5.0900   -5.7451 H   0  0  0  0  0  0  0  0  0  0  0  0
   -0.0330    5.8073   -4.9885 H   0  0  0  0  0  0  0  0  0  0  0  0
    1.8354    3.0482   -4.8907 H   0  0  0  0  0  0  0  0  0  0  0  0
    3.1343    2.9377   -6.0258 H   0  0  0  0  0  0  0  0  0  0  0  0
    2.7775    5.3108   -4.1137 H   0  0  0  0  0  0  0  0  0  0  0  0
    3.8702    3.9473   -3.8395 H   0  0  0  0  0  0  0  0  0  0  0  0
    5.9515    3.6228   -5.2160 H   0  0  0  0  0  0  0  0  0  0  0  0
    5.7093    4.0069   -6.9114 H   0  0  0  0  0  0  0  0  0  0  0  0
    5.2238    7.2478   -4.8057 H   0  0  0  0  0  0  0  0  0  0  0  0
    5.5819    5.9031   -3.7366 H   0  0  0  0  0  0  0  0  0  0  0  0
    7.6643    7.1452   -6.5137 H   0  0  0  0  0  0  0  0  0  0  0  0
    4.8367    7.5339   -7.1716 H   0  0  0  0  0  0  0  0  0  0  0  0
    6.0701    8.5600   -7.2774 H   0  0  0  0  0  0  0  0  0  0  0  0
    4.8518    7.0336   -9.4382 H   0  0  0  0  0  0  0  0  0  0  0  0
    6.2687    8.1135   -9.5689 H   0  0  0  0  0  0  0  0  0  0  0  0
    8.6868    4.3177   -7.0185 H   0  0  0  0  0  0  0  0  0  0  0  0
    9.1840    3.0440   -9.0835 H   0  0  0  0  0  0  0  0  0  0  0  0
    6.5004    5.5976  -11.3019 H   0  0  0  0  0  0  0  0  0  0  0  0
    9.0899    5.1085  -12.6526 H   0  0  0  0  0  0  0  0  0  0  0  0
   10.3740    3.3083  -15.3863 H   0  0  0  0  0  0  0  0  0  0  0  0
    8.7523    3.8384  -15.8930 H   0  0  0  0  0  0  0  0  0  0  0  0
    9.7911    4.9277  -14.9573 H   0  0  0  0  0  0  0  0  0  0  0  0
    7.6173    0.4982  -12.8135 H   0  0  0  0  0  0  0  0  0  0  0  0
    3.2483    6.7252   -6.4944 H   0  0  0  0  0  0  0  0  0  0  0  0
    4.4211    5.8061   -7.5690 H   0  0  0  0  0  0  0  0  0  0  0  0
    3.1175    4.1625   -8.0856 H   0  0  0  0  0  0  0  0  0  0  0  0
    2.1599    5.6460   -8.1911 H   0  0  0  0  0  0  0  0  0  0  0  0
  1  2  1  0  0  0  0
  1 38  1  0  0  0  0
  1 39  1  0  0  0  0
  1 40  1  0  0  0  0
  2  3  2  0  0  0  0
  2 37  1  0  0  0  0
  3  4  1  0  0  0  0
  3 41  1  0  0  0  0
  4  5  1  0  0  0  0
  4 36  1  0  0  0  0
  5  6  2  0  0  0  0
  5 42  1  0  0  0  0
  6  7  1  0  0  0  0
  6 35  1  0  0  0  0
  7  8  1  0  0  0  0
  7 43  1  0  0  0  0
  7 44  1  0  0  0  0
  8  9  2  0  0  0  0
  8 10  1  0  0  0  0
 10 11  1  0  0  0  0
 10 34  1  0  0  0  0
 11 12  1  0  0  0  0
 11 45  1  0  0  0  0
 11 46  1  0  0  0  0
 12 13  1  0  0  0  0
 12 47  1  0  0  0  0
 12 48  1  0  0  0  0
 13 14  1  0  0  0  0
 13 16  1  0  0  0  0
 13 33  1  0  0  0  0
 14 15  1  0  0  0  0
 14 49  1  0  0  0  0
 14 50  1  0  0  0  0
 15 16  1  0  0  0  0
 16 51  1  0  0  0  0
 16 52  1  0  0  0  0
 17 15  1  0  0  0  0
 17 18  1  0  0  0  0
 17 21  1  0  0  0  0
 17 53  1  1  0  0  0
 18 19  1  0  0  0  0
 18 54  1  0  0  0  0
 18 55  1  0  0  0  0
 19 20  1  0  0  0  0
 19 56  1  0  0  0  0
 19 57  1  0  0  0  0
 20 21  2  0  0  0  0
 20 25  1  0  0  0  0
 21 22  1  0  0  0  0
 22 23  2  0  0  0  0
 22 58  1  0  0  0  0
 23 24  1  0  0  0  0
 23 59  1  0  0  0  0
 24 25  2  0  0  0  0
 24 26  1  0  0  0  0
 25 60  1  0  0  0  0
 26 27  2  0  0  0  0
 26 32  1  0  0  0  0
 27 28  1  0  0  0  0
 27 61  1  0  0  0  0
 28 29  1  0  0  0  0
 28 30  2  0  0  0  0
 29 62  1  0  0  0  0
 29 63  1  0  0  0  0
 29 64  1  0  0  0  0
 30 31  1  0  0  0  0
 31 32  2  0  0  0  0
 31 65  1  0  0  0  0
 33 34  1  0  0  0  0
 33 66  1  0  0  0  0
 33 67  1  0  0  0  0
 34 68  1  0  0  0  0
 34 69  1  0  0  0  0
 35 36  2  0  0  0  0
 36 37  1  0  0  0  0
M  END
>  <DRUGBANK_ID>
DB14870

>  <COMMON_NAME>
PF-5190457

>  <CAS_NUMBER>
1334782-79-4

>  <UNII>
FF33NL9U5G

$$$$
