DBD
 OpenBabel10282417123D

 45 48  0  0  0  0  0  0  0  0999 V2000
   -1.9555    1.0137    0.3547 O   0  0  0  0  0  0  0  0  0  0  0  0
   -0.6924    1.6263   -0.0561 C   0  0  2  0  0  0  0  0  0  0  0  0
    0.4049    0.5483    0.0464 C   0  0  0  0  0  0  0  0  0  0  0  0
    0.1485   -0.8035    0.0407 C   0  0  0  0  0  0  0  0  0  0  0  0
   -1.2634   -1.2769    0.0681 C   0  0  0  0  0  0  0  0  0  0  0  0
   -2.2239   -0.1911   -0.3809 C   0  0  0  0  0  0  0  0  0  0  0  0
    2.0793    0.7942    0.2896 S   0  0  0  0  0  0  0  0  0  0  0  0
    2.4915   -0.8506    0.1031 C   0  0  0  0  0  0  0  0  0  0  0  0
    1.3380   -1.6276    0.0896 C   0  0  0  0  0  0  0  0  0  0  0  0
    1.3286   -3.0778    0.1405 C   0  0  0  0  0  0  0  0  0  0  0  0
    2.3282   -3.7926    0.1471 O   0  0  0  0  0  0  0  0  0  0  0  0
    0.0952   -3.6236    0.2118 O   0  0  0  0  0  0  0  0  0  0  0  0
    3.8313   -1.2797    0.0757 N   0  0  0  0  0  0  0  0  0  0  0  0
    4.9584   -0.4538    0.0394 C   0  0  0  0  0  0  0  0  0  0  0  0
    6.3506   -1.1680    0.0213 C   0  0  0  0  0  0  0  0  0  0  0  0
    7.4179   -0.5807   -0.0127 O   0  0  0  0  0  0  0  0  0  0  0  0
    6.3273   -2.5057    0.0824 O   0  0  0  0  0  0  0  0  0  0  0  0
    4.9861    0.7709    0.0486 O   0  0  0  0  0  0  0  0  0  0  0  0
   -0.4147    2.8482    0.8391 C   0  0  0  0  0  0  0  0  0  0  0  0
    0.1440    4.0213    0.1738 O   0  0  0  0  0  0  0  0  0  0  0  0
    1.0804    3.8669   -0.7847 C   0  0  0  0  0  0  0  0  0  0  0  0
    2.1470    4.8579   -0.7722 C   0  0  0  0  0  0  0  0  0  0  0  0
    3.0897    4.4821   -1.7150 C   0  0  0  0  0  0  0  0  0  0  0  0
    2.5152    3.0592   -2.5384 S   0  0  0  0  0  0  0  0  0  0  0  0
    1.1310    2.9249   -1.6679 N   0  0  0  0  0  0  0  0  0  0  0  0
    2.3234    5.9871    0.0021 C   0  0  0  0  0  0  0  0  0  0  0  0
    3.4957    6.7239   -0.2003 C   0  0  0  0  0  0  0  0  0  0  0  0
    4.4613    6.3122   -1.1439 C   0  0  0  0  0  0  0  0  0  0  0  0
    4.2666    5.1669   -1.9169 C   0  0  0  0  0  0  0  0  0  0  0  0
    2.1856    3.4279   -3.8964 O   0  0  0  0  0  0  0  0  0  0  0  0
    3.4297    1.9792   -2.2497 O   0  0  0  0  0  0  0  0  0  0  0  0
   -0.8770    1.9470   -1.0878 H   0  0  0  0  0  0  0  0  0  0  0  0
   -1.4787   -1.5465    1.1096 H   0  0  0  0  0  0  0  0  0  0  0  0
   -1.4052   -2.1373   -0.5844 H   0  0  0  0  0  0  0  0  0  0  0  0
   -3.2434   -0.5311   -0.1692 H   0  0  0  0  0  0  0  0  0  0  0  0
   -2.1486   -0.0158   -1.4624 H   0  0  0  0  0  0  0  0  0  0  0  0
    0.1970   -4.5922    0.2275 H   0  0  0  0  0  0  0  0  0  0  0  0
    3.9861   -2.2875    0.0513 H   0  0  0  0  0  0  0  0  0  0  0  0
    7.2883   -2.7308    0.0852 H   0  0  0  0  0  0  0  0  0  0  0  0
   -1.3331    3.1804    1.3431 H   0  0  0  0  0  0  0  0  0  0  0  0
    0.2757    2.5961    1.6516 H   0  0  0  0  0  0  0  0  0  0  0  0
    1.5854    6.2949    0.7355 H   0  0  0  0  0  0  0  0  0  0  0  0
    3.6727    7.6251    0.3836 H   0  0  0  0  0  0  0  0  0  0  0  0
    5.3704    6.8966   -1.2705 H   0  0  0  0  0  0  0  0  0  0  0  0
    5.0027    4.8271   -2.6373 H   0  0  0  0  0  0  0  0  0  0  0  0
  1  2  1  0  0  0  0
  1  6  1  0  0  0  0
  2  3  1  0  0  0  0
  2 32  1  6  0  0  0
  2 19  1  0  0  0  0
  3  4  2  0  0  0  0
  3  7  1  0  0  0  0
  4  5  1  0  0  0  0
  4  9  1  0  0  0  0
  5  6  1  0  0  0  0
  5 33  1  0  0  0  0
  5 34  1  0  0  0  0
  6 35  1  0  0  0  0
  6 36  1  0  0  0  0
  7  8  1  0  0  0  0
  8  9  2  0  0  0  0
  8 13  1  0  0  0  0
  9 10  1  0  0  0  0
 10 11  2  0  0  0  0
 10 12  1  0  0  0  0
 12 37  1  0  0  0  0
 13 14  1  0  0  0  0
 13 38  1  0  0  0  0
 14 15  1  0  0  0  0
 14 18  2  0  0  0  0
 15 16  2  0  0  0  0
 15 17  1  0  0  0  0
 17 39  1  0  0  0  0
 19 20  1  0  0  0  0
 19 40  1  0  0  0  0
 19 41  1  0  0  0  0
 20 21  1  0  0  0  0
 21 22  1  0  0  0  0
 21 25  2  0  0  0  0
 22 23  2  0  0  0  0
 22 26  1  0  0  0  0
 23 24  1  0  0  0  0
 23 29  1  0  0  0  0
 24 25  1  0  0  0  0
 24 30  2  0  0  0  0
 24 31  2  0  0  0  0
 26 27  2  0  0  0  0
 26 42  1  0  0  0  0
 27 28  1  0  0  0  0
 27 43  1  0  0  0  0
 28 29  2  0  0  0  0
 28 44  1  0  0  0  0
 29 45  1  0  0  0  0
M  END
>  <DRUGBANK_ID>
DB02827

>  <SECONDARY_ACCESSION_NUMBERS>
EXPT01119

>  <COMMON_NAME>
7-(1,1-Dioxo-1h-Benzo[D]Isothiazol-3-Yloxymethyl)-2-(Oxalyl-Amino)-4,7-Dihydro-5h-Thieno[2,3-C]Pyran-3-Carboxylic Acid

$$$$
