
 OpenBabel10282417163D

 53 52  0  0  0  0  0  0  0  0999 V2000
  -12.2973   -2.7254   -1.8266 C   0  0  0  0  0  0  0  0  0  0  0  0
  -12.0679   -1.6641   -0.7689 C   0  0  0  0  0  0  0  0  0  0  0  0
  -11.4169   -3.3166   -2.4159 O   0  0  0  0  0  0  0  0  0  0  0  0
  -11.3433   -2.2646    0.4384 C   0  0  0  0  0  0  0  0  0  0  0  0
   -9.9725   -2.8459    0.0610 C   0  0  0  0  0  0  0  0  0  0  0  0
   -9.1277   -1.7725   -0.6005 C   0  0  0  0  0  0  0  0  0  0  0  0
   -8.9589   -0.6440    0.4090 C   0  0  0  0  0  0  0  0  0  0  0  0
  -13.6015   -2.9782   -2.0636 O   0  0  0  0  0  0  0  0  0  0  0  0
   -8.0371   -1.0483    1.5679 C   0  0  0  0  0  0  0  0  0  0  0  0
   -6.6887   -1.6141    1.1018 C   0  0  0  0  0  0  0  0  0  0  0  0
   -5.7852   -0.5547    0.4242 C   0  0  2  0  0  0  0  0  0  0  0  0
   -4.9370    0.0201    1.4072 O   0  0  0  0  0  0  0  0  0  0  0  0
   -6.4939    0.6063   -0.2113 C   0  0  0  0  0  0  0  0  0  0  0  0
   -6.7141    0.6841   -1.5278 C   0  0  0  0  0  0  0  0  0  0  0  0
   -7.6799    1.5598   -2.1552 C   0  0  0  0  0  0  0  0  0  0  0  0
   -7.7772    1.6793   -3.4837 C   0  0  0  0  0  0  0  0  0  0  0  0
   -6.8965    0.9528   -4.4588 C   0  0  0  0  0  0  0  0  0  0  0  0
   -7.7145    0.1183   -5.4353 C   0  0  0  0  0  0  0  0  0  0  0  0
   -8.5439    0.9927   -6.3745 C   0  0  0  0  0  0  0  0  0  0  0  0
   -7.6805    2.0002   -7.1391 C   0  0  0  0  0  0  0  0  0  0  0  0
   -6.6396    1.2955   -7.9960 C   0  0  0  0  0  0  0  0  0  0  0  0
  -11.5142   -0.8392   -1.2356 H   0  0  0  0  0  0  0  0  0  0  0  0
  -13.0053   -1.2083   -0.4403 H   0  0  0  0  0  0  0  0  0  0  0  0
  -11.2375   -1.4869    1.2057 H   0  0  0  0  0  0  0  0  0  0  0  0
  -11.9432   -3.0335    0.9260 H   0  0  0  0  0  0  0  0  0  0  0  0
   -9.4697   -3.2342    0.9528 H   0  0  0  0  0  0  0  0  0  0  0  0
  -10.0593   -3.7123   -0.5958 H   0  0  0  0  0  0  0  0  0  0  0  0
   -8.1770   -2.1816   -0.9569 H   0  0  0  0  0  0  0  0  0  0  0  0
   -9.5728   -1.3861   -1.5235 H   0  0  0  0  0  0  0  0  0  0  0  0
   -8.6629    0.2213   -0.1529 H   0  0  0  0  0  0  0  0  0  0  0  0
   -9.8844   -0.2371    0.8165 H   0  0  0  0  0  0  0  0  0  0  0  0
  -14.2186   -2.4152   -1.5665 H   0  0  0  0  0  0  0  0  0  0  0  0
   -7.8714   -0.1959    2.2342 H   0  0  0  0  0  0  0  0  0  0  0  0
   -8.5436   -1.7995    2.1863 H   0  0  0  0  0  0  0  0  0  0  0  0
   -6.1786   -2.0485    1.9713 H   0  0  0  0  0  0  0  0  0  0  0  0
   -6.8341   -2.4782    0.4415 H   0  0  0  0  0  0  0  0  0  0  0  0
   -5.1512   -1.0646   -0.3105 H   0  0  0  0  0  0  0  0  0  0  0  0
   -5.2776   -0.2461    2.2760 H   0  0  0  0  0  0  0  0  0  0  0  0
   -7.0057    1.2974    0.4562 H   0  0  0  0  0  0  0  0  0  0  0  0
   -6.2232   -0.0620   -2.1379 H   0  0  0  0  0  0  0  0  0  0  0  0
   -8.4060    2.0904   -1.5383 H   0  0  0  0  0  0  0  0  0  0  0  0
   -8.5358    2.3495   -3.8893 H   0  0  0  0  0  0  0  0  0  0  0  0
   -6.2479    1.6825   -4.9493 H   0  0  0  0  0  0  0  0  0  0  0  0
   -6.1954    0.2667   -3.9875 H   0  0  0  0  0  0  0  0  0  0  0  0
   -7.0279   -0.5149   -6.0091 H   0  0  0  0  0  0  0  0  0  0  0  0
   -8.3654   -0.5800   -4.8940 H   0  0  0  0  0  0  0  0  0  0  0  0
   -9.0838    0.3511   -7.0786 H   0  0  0  0  0  0  0  0  0  0  0  0
   -9.3110    1.5297   -5.8045 H   0  0  0  0  0  0  0  0  0  0  0  0
   -8.3219    2.6262   -7.7654 H   0  0  0  0  0  0  0  0  0  0  0  0
   -7.1807    2.6933   -6.4525 H   0  0  0  0  0  0  0  0  0  0  0  0
   -7.1330    0.6385   -8.7180 H   0  0  0  0  0  0  0  0  0  0  0  0
   -6.0277    2.0221   -8.5338 H   0  0  0  0  0  0  0  0  0  0  0  0
   -5.9554    0.6855   -7.3969 H   0  0  0  0  0  0  0  0  0  0  0  0
  1  2  1  0  0  0  0
  1  3  2  0  0  0  0
  1  8  1  0  0  0  0
  2  4  1  0  0  0  0
  2 22  1  0  0  0  0
  2 23  1  0  0  0  0
  4  5  1  0  0  0  0
  4 24  1  0  0  0  0
  4 25  1  0  0  0  0
  5  6  1  0  0  0  0
  5 26  1  0  0  0  0
  5 27  1  0  0  0  0
  6  7  1  0  0  0  0
  6 28  1  0  0  0  0
  6 29  1  0  0  0  0
  7  9  1  0  0  0  0
  7 30  1  0  0  0  0
  7 31  1  0  0  0  0
  8 32  1  0  0  0  0
  9 10  1  0  0  0  0
  9 33  1  0  0  0  0
  9 34  1  0  0  0  0
 10 35  1  0  0  0  0
 10 36  1  0  0  0  0
 11 13  1  0  0  0  0
 11 37  1  6  0  0  0
 11 12  1  0  0  0  0
 11 10  1  0  0  0  0
 12 38  1  0  0  0  0
 13 14  2  0  0  0  0
 13 39  1  0  0  0  0
 14 15  1  0  0  0  0
 14 40  1  0  0  0  0
 15 16  2  0  0  0  0
 15 41  1  0  0  0  0
 16 17  1  0  0  0  0
 16 42  1  0  0  0  0
 17 18  1  0  0  0  0
 17 43  1  0  0  0  0
 17 44  1  0  0  0  0
 18 19  1  0  0  0  0
 18 45  1  0  0  0  0
 18 46  1  0  0  0  0
 19 20  1  0  0  0  0
 19 47  1  0  0  0  0
 19 48  1  0  0  0  0
 20 21  1  0  0  0  0
 20 49  1  0  0  0  0
 20 50  1  0  0  0  0
 21 51  1  0  0  0  0
 21 52  1  0  0  0  0
 21 53  1  0  0  0  0
M  END
>  <DRUGBANK_ID>
DB07302

>  <COMMON_NAME>
9(S)-HODE

>  <CAS_NUMBER>
73543-67-6

>  <UNII>
42KE04U9BM

>  <SYNONYMS>
(9S,10E,12Z)-9-hydroxyoctadeca-10,12-dienoic acid; 9S-Hode; alpha-Dimorphecolic acid

$$$$
