
 OpenBabel10282417183D

182187  0  0  1  0  0  0  0  0999 V2000
   -0.6644   -1.5589  -14.3389 C   0  0  1  0  0  0  0  0  0  0  0  0
   -3.0822   -1.1926  -12.0431 C   0  0  2  0  0  0  0  0  0  0  0  0
   -2.6534   -1.9312  -13.2443 C   0  0  2  0  0  0  0  0  0  0  0  0
   -5.2275   -2.3884   -9.9330 C   0  0  1  0  0  0  0  0  0  0  0  0
   -4.9586   -3.2122   -8.6567 C   0  0  1  0  0  0  0  0  0  0  0  0
   -3.6705   -2.6478   -8.0319 C   0  0  1  0  0  0  0  0  0  0  0  0
   -6.7951   -2.9985   -8.0316 C   0  0  1  0  0  0  0  0  0  0  0  0
   -3.2017   -1.5001   -8.9508 C   0  0  2  0  0  0  0  0  0  0  0  0
   -2.7530    3.3561  -13.2054 C   0  0  2  0  0  0  0  0  0  0  0  0
    1.9781    3.7539  -11.1160 C   0  0  1  0  0  0  0  0  0  0  0  0
    3.2210    4.0139  -10.2326 C   0  0  1  0  0  0  0  0  0  0  0  0
    1.0765   -2.8749  -13.3546 C   0  0  1  0  0  0  0  0  0  0  0  0
    0.2018   -1.6336  -13.0595 C   0  0  2  0  0  0  0  0  0  0  0  0
   -0.6801   -2.9722  -14.8751 N   0  0  0  0  0  0  0  0  0  0  0  0
    0.2691   -3.6888  -14.3379 C   0  0  0  0  0  0  0  0  0  0  0  0
    3.1561    5.4653   -8.0641 C   0  0  0  0  0  0  0  0  0  0  0  0
    4.2926    4.6747   -7.4367 C   0  0  0  0  0  0  0  0  0  0  0  0
    2.7078    5.1421   -9.3072 C   0  0  0  0  0  0  0  0  0  0  0  0
    1.5988    5.8056  -10.0890 N   0  0  0  0  0  0  0  0  0  0  0  0
    1.2002    5.0495  -11.0751 C   0  0  0  0  0  0  0  0  0  0  0  0
    0.0975    5.4035  -12.0595 C   0  0  0  0  0  0  0  0  0  0  0  0
   -1.0056    4.6136  -12.1582 C   0  0  0  0  0  0  0  0  0  0  0  0
   -1.3115    3.3553  -11.3807 N   0  0  0  0  0  0  0  0  0  0  0  0
   -2.2638    2.6691  -11.9509 C   0  0  0  0  0  0  0  0  0  0  0  0
   -2.7823    1.3104  -11.5088 C   0  0  0  0  0  0  0  0  0  0  0  0
   -2.6307    0.2281  -12.3190 C   0  0  0  0  0  0  0  0  0  0  0  0
   -2.0632   -1.0355  -14.0565 C   0  0  3  0  0  0  0  0  0  0  0  0
   -2.0477    0.1958  -13.5341 N   0  5  0  0  0  0  0  0  0  0  0  0
   -8.7137   -1.2384   -9.5307 N   0  0  0  0  0  4  0  0  0  0  0  0
   -7.4165   -1.4454   -9.0694 C   0  0  0  0  0  0  0  0  0  0  0  0
   -6.6690   -2.1654  -10.1149 N   0  0  0  0  0  0  0  0  0  0  0  0
   -3.7846   -2.1101   -6.7226 O   0  0  0  0  0  0  0  0  0  0  0  0
   -5.2515   -2.6630   -5.9909 P   0  0  3  0  0  0  0  0  0  0  0  0
   -5.6340   -3.5486   -7.4270 O   0  0  0  0  0  0  0  0  0  0  0  0
   -6.6072   -1.5021   -8.2209 C   0  0  0  0  0  0  0  0  0  0  0  0
   -5.1394   -1.4752   -8.2977 N   0  0  0  0  0  0  0  0  0  0  0  0
   -4.4758   -0.9495   -9.4994 C   0  0  0  0  0  0  0  0  0  0  0  0
   -2.9582   -0.9218   -9.5789 C   0  0  0  0  0  0  0  0  0  0  0  0
   -2.4973   -1.7601  -10.7601 C   0  0  0  0  0  0  0  0  0  0  0  0
   -5.1711   -0.5181  -10.4719 O   0  0  0  0  0  0  0  0  0  0  0  0
   -7.0223   -3.6555   -9.3833 C   0  0  0  0  0  0  0  0  0  0  0  0
   -6.7069   -1.7449   -6.1695 O   0  5  0  0  0  0  0  0  0  0  0  0
   -4.9092   -1.8704   -4.7056 O   0  0  0  0  0  0  0  0  0  0  0  0
   -4.4920   -1.0484   -9.6852 O   0  0  0  0  0  0  0  0  0  0  0  0
   -2.1618   -1.9947   -9.9430 C   0  0  0  0  0  0  0  0  0  0  0  0
   -1.6002   -3.2139   -9.4799 O   0  0  0  0  0  0  0  0  0  0  0  0
   -6.0486   -3.1232   -7.7509 O   0  0  0  0  0  0  0  0  0  0  0  0
   -7.6150   -2.3919  -11.2476 C   0  0  0  0  0  0  0  0  0  0  0  0
   -8.8471   -1.8259  -10.8796 C   0  0  0  0  0  0  0  0  0  0  0  0
   -9.9172   -1.8998  -11.7703 C   0  0  0  0  0  0  0  0  0  0  0  0
   -9.7141   -2.5351  -12.9908 C   0  0  0  0  0  0  0  0  0  0  0  0
   -8.4728   -3.0675  -13.2802 C   0  0  0  0  0  0  0  0  0  0  0  0
   -7.4746   -2.9842  -12.4188 C   0  0  0  0  0  0  0  0  0  0  0  0
   -8.2512   -3.7618  -14.6140 C   0  0  0  0  0  0  0  0  0  0  0  0
  -10.8481   -2.6427  -13.9973 C   0  0  0  0  0  0  0  0  0  0  0  0
   -3.8563   -2.5526  -13.9350 C   0  0  0  0  0  0  0  0  0  0  0  0
   -4.9761   -2.6634  -12.9132 C   0  0  0  0  0  0  0  0  0  0  0  0
   -6.0685   -2.0406  -13.0975 O   0  0  0  0  0  0  0  0  0  0  0  0
   -4.7956   -3.4909  -11.7117 N   0  0  0  0  0  0  0  0  0  0  0  0
   -4.5914   -1.2595  -11.8747 C   0  0  0  0  0  0  0  0  0  0  0  0
   -3.4700    1.1609  -10.1616 C   0  0  0  0  0  0  0  0  0  0  0  0
   -2.2242    4.8053  -13.0915 C   0  0  0  0  0  0  0  0  0  0  0  0
   -1.8889    5.4508  -14.4261 C   0  0  0  0  0  0  0  0  0  0  0  0
   -3.2603    5.7278  -12.4704 C   0  0  0  0  0  0  0  0  0  0  0  0
   -4.2665    3.3050  -13.3360 C   0  0  0  0  0  0  0  0  0  0  0  0
   -4.6911    4.0368  -14.5988 C   0  0  0  0  0  0  0  0  0  0  0  0
   -4.0554    3.3710  -15.8083 C   0  0  0  0  0  0  0  0  0  0  0  0
   -4.7893    2.8830  -16.7239 O   0  0  0  0  0  0  0  0  0  0  0  0
   -2.5917    3.2917  -15.9190 N   0  0  0  0  0  0  0  0  0  0  0  0
    3.7254    2.7854   -9.4932 C   0  0  0  0  0  0  0  0  0  0  0  0
    4.1549    1.7296  -10.4989 C   0  0  0  0  0  0  0  0  0  0  0  0
    5.3554    1.3126  -10.5088 O   0  0  0  0  0  0  0  0  0  0  0  0
    3.1818    1.1910  -11.4600 N   0  0  0  0  0  0  0  0  0  0  0  0
    4.4075    4.4735  -11.0640 C   0  0  0  0  0  0  0  0  0  0  0  0
    2.3537    3.3532  -12.5333 C   0  0  0  0  0  0  0  0  0  0  0  0
    3.1562    2.0628  -12.4991 C   0  0  0  0  0  0  0  0  0  0  0  0
    2.3199    0.9626  -11.8663 C   0  0  0  0  0  0  0  0  0  0  0  0
    2.0446   -0.0868  -12.5283 O   0  0  0  0  0  0  0  0  0  0  0  0
    1.8295    1.1123  -10.4887 N   0  0  0  0  0  0  0  0  0  0  0  0
   -0.6540   -1.8386  -11.8201 C   0  0  0  0  0  0  0  0  0  0  0  0
   -0.5889   -3.2983  -11.4013 C   0  0  0  0  0  0  0  0  0  0  0  0
   -0.1327   -3.6113  -10.2571 O   0  0  0  0  0  0  0  0  0  0  0  0
   -1.0535   -4.3479  -12.3196 N   0  0  0  0  0  0  0  0  0  0  0  0
    0.9948   -0.3693  -12.7716 C   0  0  0  0  0  0  0  0  0  0  0  0
    2.4421   -2.4978  -13.9052 C   0  0  0  0  0  0  0  0  0  0  0  0
    3.1874   -1.6582  -12.8805 C   0  0  0  0  0  0  0  0  0  0  0  0
    3.3608   -2.4580  -11.5997 C   0  0  0  0  0  0  0  0  0  0  0  0
    4.5265   -2.7076  -11.1592 O   0  0  0  0  0  0  0  0  0  0  0  0
    2.1801   -2.9429  -10.8704 N   0  0  0  0  0  0  0  0  0  0  0  0
   -0.0450   -0.6086  -15.3507 C   0  0  0  0  0  0  0  0  0  0  0  0
    1.0744   -0.0288   -0.0602 C   0  5  0  0  0  0  0  0  0  0  0  0
    2.3354   -0.0288   -0.0602 N   0  0  0  0  0  0  0  0  0  0  0  0
    1.0610   -0.0715    0.0343 Co  0  1  0  0  0  0  0  0  0  0  0  0
   -1.9805   -2.7234  -12.9901 H   0  0  0  0  0  0  0  0  0  0  0  0
   -4.8877   -2.8837  -10.8185 H   0  0  0  0  0  0  0  0  0  0  0  0
   -4.8269   -4.2447   -8.9048 H   0  0  0  0  0  0  0  0  0  0  0  0
   -3.0074   -3.4874   -8.0230 H   0  0  0  0  0  0  0  0  0  0  0  0
   -7.6425   -3.1748   -7.4025 H   0  0  0  0  0  0  0  0  0  0  0  0
   -2.7394   -0.7029   -8.4071 H   0  0  0  0  0  0  0  0  0  0  0  0
   -2.3571    2.8774  -14.0766 H   0  0  0  0  0  0  0  0  0  0  0  0
    1.3939    2.9505  -10.7183 H   0  0  0  0  0  0  0  0  0  0  0  0
    1.2538   -3.4328  -12.4590 H   0  0  0  0  0  0  0  0  0  0  0  0
    4.0066    3.6473   -7.3493 H   0  0  0  0  0  0  0  0  0  0  0  0
    5.1635    4.7512   -8.0536 H   0  0  0  0  0  0  0  0  0  0  0  0
    4.5077    5.0689   -6.4655 H   0  0  0  0  0  0  0  0  0  0  0  0
    0.1889    6.2741  -12.6749 H   0  0  0  0  0  0  0  0  0  0  0  0
   -2.6180   -0.9349  -14.9659 H   0  0  0  0  0  0  0  0  0  0  0  0
   -9.4538   -0.7578   -9.0191 H   0  0  0  0  0  0  0  0  0  0  0  0
   -7.0299   -1.1357   -8.1210 H   0  0  0  0  0  0  0  0  0  0  0  0
   -6.9316   -0.9119   -7.3894 H   0  0  0  0  0  0  0  0  0  0  0  0
   -7.0190   -1.1026   -9.1240 H   0  0  0  0  0  0  0  0  0  0  0  0
   -4.5815   -1.8214   -7.5172 H   0  0  0  0  0  0  0  0  0  0  0  0
   -2.5464   -1.3213   -8.6757 H   0  0  0  0  0  0  0  0  0  0  0  0
   -2.6261    0.0873   -9.7065 H   0  0  0  0  0  0  0  0  0  0  0  0
   -2.8294   -2.7692  -10.6325 H   0  0  0  0  0  0  0  0  0  0  0  0
   -1.4289   -1.7406  -10.8160 H   0  0  0  0  0  0  0  0  0  0  0  0
   -7.1546   -4.7089   -9.2501 H   0  0  0  0  0  0  0  0  0  0  0  0
   -7.8972   -3.2410   -9.8389 H   0  0  0  0  0  0  0  0  0  0  0  0
   -6.1749   -3.4792  -10.0125 H   0  0  0  0  0  0  0  0  0  0  0  0
   -2.6409   -2.1580  -10.8857 H   0  0  0  0  0  0  0  0  0  0  0  0
   -1.3868   -1.2660  -10.0583 H   0  0  0  0  0  0  0  0  0  0  0  0
   -1.1525   -3.0612   -8.5989 H   0  0  0  0  0  0  0  0  0  0  0  0
   -6.1963   -2.1665   -7.5001 H   0  0  0  0  0  0  0  0  0  0  0  0
  -10.8691   -1.4791  -11.5216 H   0  0  0  0  0  0  0  0  0  0  0  0
   -6.5269   -3.4083  -12.6775 H   0  0  0  0  0  0  0  0  0  0  0  0
   -7.4772   -3.2579  -15.1542 H   0  0  0  0  0  0  0  0  0  0  0  0
   -7.9636   -4.7782  -14.4436 H   0  0  0  0  0  0  0  0  0  0  0  0
   -9.1570   -3.7381  -15.1832 H   0  0  0  0  0  0  0  0  0  0  0  0
  -10.5658   -2.1537  -14.9062 H   0  0  0  0  0  0  0  0  0  0  0  0
  -11.0523   -3.6741  -14.1957 H   0  0  0  0  0  0  0  0  0  0  0  0
  -11.7244   -2.1759  -13.5985 H   0  0  0  0  0  0  0  0  0  0  0  0
   -4.1657   -1.9132  -14.7353 H   0  0  0  0  0  0  0  0  0  0  0  0
   -3.6292   -3.5239  -14.3220 H   0  0  0  0  0  0  0  0  0  0  0  0
   -3.9189   -3.9908  -11.5638 H   0  0  0  0  0  0  0  0  0  0  0  0
   -5.5471   -3.5653  -11.0260 H   0  0  0  0  0  0  0  0  0  0  0  0
   -5.0654   -0.8276  -12.7312 H   0  0  0  0  0  0  0  0  0  0  0  0
   -4.8944   -2.2810  -11.7765 H   0  0  0  0  0  0  0  0  0  0  0  0
   -4.8768   -0.7170  -10.9977 H   0  0  0  0  0  0  0  0  0  0  0  0
   -4.4687    0.8060  -10.3084 H   0  0  0  0  0  0  0  0  0  0  0  0
   -2.9279    0.4616   -9.5600 H   0  0  0  0  0  0  0  0  0  0  0  0
   -3.4977    2.1098   -9.6680 H   0  0  0  0  0  0  0  0  0  0  0  0
   -2.7742    5.5153  -15.0235 H   0  0  0  0  0  0  0  0  0  0  0  0
   -1.4989    6.4331  -14.2592 H   0  0  0  0  0  0  0  0  0  0  0  0
   -1.1576    4.8584  -14.9351 H   0  0  0  0  0  0  0  0  0  0  0  0
   -3.6029    5.3092  -11.5472 H   0  0  0  0  0  0  0  0  0  0  0  0
   -2.8203    6.6856  -12.2862 H   0  0  0  0  0  0  0  0  0  0  0  0
   -4.0871    5.8381  -13.1406 H   0  0  0  0  0  0  0  0  0  0  0  0
   -4.5856    2.2851  -13.3905 H   0  0  0  0  0  0  0  0  0  0  0  0
   -4.7141    3.7736  -12.4846 H   0  0  0  0  0  0  0  0  0  0  0  0
   -5.7566    4.0008  -14.6907 H   0  0  0  0  0  0  0  0  0  0  0  0
   -4.3721    5.0567  -14.5443 H   0  0  0  0  0  0  0  0  0  0  0  0
   -2.0027    3.6834  -15.1841 H   0  0  0  0  0  0  0  0  0  0  0  0
   -2.1651    2.8449  -16.7306 H   0  0  0  0  0  0  0  0  0  0  0  0
    4.5604    3.0554   -8.8810 H   0  0  0  0  0  0  0  0  0  0  0  0
    2.9432    2.3937   -8.8771 H   0  0  0  0  0  0  0  0  0  0  0  0
    2.2183    1.5257  -11.4521 H   0  0  0  0  0  0  0  0  0  0  0  0
    3.4700    0.4825  -12.1348 H   0  0  0  0  0  0  0  0  0  0  0  0
    4.1166    5.3046  -11.6719 H   0  0  0  0  0  0  0  0  0  0  0  0
    5.2051    4.7685  -10.4146 H   0  0  0  0  0  0  0  0  0  0  0  0
    4.7361    3.6709  -11.6907 H   0  0  0  0  0  0  0  0  0  0  0  0
    1.4644    3.2050  -13.1096 H   0  0  0  0  0  0  0  0  0  0  0  0
    2.9424    4.1277  -12.9787 H   0  0  0  0  0  0  0  0  0  0  0  0
    3.4206    1.7807  -13.4969 H   0  0  0  0  0  0  0  0  0  0  0  0
    4.0455    2.2110  -11.9229 H   0  0  0  0  0  0  0  0  0  0  0  0
    2.0504    1.9545   -9.9574 H   0  0  0  0  0  0  0  0  0  0  0  0
    1.2683    0.3740  -10.0640 H   0  0  0  0  0  0  0  0  0  0  0  0
   -0.2761   -1.2237  -11.0302 H   0  0  0  0  0  0  0  0  0  0  0  0
   -1.6695   -1.5714  -12.0254 H   0  0  0  0  0  0  0  0  0  0  0  0
   -1.4197   -4.0966  -13.2379 H   0  0  0  0  0  0  0  0  0  0  0  0
   -1.0099   -5.3274  -12.0385 H   0  0  0  0  0  0  0  0  0  0  0  0
    0.7993    0.6298  -13.1012 H   0  0  0  0  0  0  0  0  0  0  0  0
    1.2608   -0.3573  -11.7352 H   0  0  0  0  0  0  0  0  0  0  0  0
    1.8006   -0.7818  -13.3419 H   0  0  0  0  0  0  0  0  0  0  0  0
    3.0009   -3.3865  -14.1125 H   0  0  0  0  0  0  0  0  0  0  0  0
    2.3201   -1.9348  -14.8069 H   0  0  0  0  0  0  0  0  0  0  0  0
    4.1488   -1.3928  -13.2682 H   0  0  0  0  0  0  0  0  0  0  0  0
    2.6287   -0.7695  -12.6732 H   0  0  0  0  0  0  0  0  0  0  0  0
    1.2445   -2.7426  -11.2239 H   0  0  0  0  0  0  0  0  0  0  0  0
    2.2965   -3.4796  -10.0109 H   0  0  0  0  0  0  0  0  0  0  0  0
    0.9603   -0.9122  -15.5562 H   0  0  0  0  0  0  0  0  0  0  0  0
   -0.6158   -0.6294  -16.2555 H   0  0  0  0  0  0  0  0  0  0  0  0
   -0.0433    0.3846  -14.9527 H   0  0  0  0  0  0  0  0  0  0  0  0
  1 90  1  6  0  0  0
  2  3  1  0  0  0  0
  2 39  1  1  0  0  0
  2 60  1  0  0  0  0
  3 27  1  0  0  0  0
  3 94  1  1  0  0  0
  3 56  1  0  0  0  0
  4  5  1  0  0  0  0
  4 44  1  0  0  0  0
  4 95  1  6  0  0  0
  4 31  1  0  0  0  0
  5  6  1  0  0  0  0
  5 47  1  0  0  0  0
  5 96  1  6  0  0  0
  6 97  1  1  0  0  0
  6 32  1  0  0  0  0
  7 41  1  0  0  0  0
  7 98  1  1  0  0  0
  7 35  1  0  0  0  0
  7 34  1  0  0  0  0
  8  6  1  0  0  0  0
  8 99  1  1  0  0  0
  8 45  1  0  0  0  0
  9 24  1  0  0  0  0
  9 65  1  0  0  0  0
  9100  1  6  0  0  0
 10 11  1  0  0  0  0
 10 75  1  0  0  0  0
 10101  1  1  0  0  0
 11 18  1  0  0  0  0
 11 70  1  1  0  0  0
 11 74  1  0  0  0  0
 12 13  1  0  0  0  0
 12 85  1  0  0  0  0
 12102  1  1  0  0  0
 13  1  1  0  0  0  0
 13 84  1  1  0  0  0
 13 80  1  0  0  0  0
 14  1  1  0  0  0  0
 15 14  2  0  0  0  0
 15 12  1  0  0  0  0
 16 15  1  0  0  0  0
 17 16  1  0  0  0  0
 17103  1  0  0  0  0
 17104  1  0  0  0  0
 17105  1  0  0  0  0
 18 16  2  0  0  0  0
 19 18  1  0  0  0  0
 20 19  2  0  0  0  0
 20 10  1  0  0  0  0
 21 20  1  0  0  0  0
 21 22  2  0  0  0  0
 21106  1  0  0  0  0
 22 23  1  0  0  0  0
 22 62  1  0  0  0  0
 23 24  2  0  0  0  0
 24 25  1  0  0  0  0
 25 26  2  0  0  0  0
 26  2  1  0  0  0  0
 26 28  1  0  0  0  0
 27  1  1  0  0  0  0
 27107  1  0  0  0  0
 28 27  1  0  0  0  0
 29 30  2  0  0  0  0
 29 49  1  0  0  0  0
 29108  1  0  0  0  0
 30 31  1  0  0  0  0
 30109  1  0  0  0  0
 32 33  1  0  0  0  0
 33 34  1  0  0  0  0
 35 36  1  0  0  0  0
 35110  1  0  0  0  0
 35111  1  0  0  0  0
 36 37  1  0  0  0  0
 36112  1  0  0  0  0
 37 38  1  0  0  0  0
 38 39  1  0  0  0  0
 38113  1  0  0  0  0
 38114  1  0  0  0  0
 39115  1  0  0  0  0
 39116  1  0  0  0  0
 40 37  2  0  0  0  0
 41117  1  0  0  0  0
 41118  1  0  0  0  0
 41119  1  0  0  0  0
 42 33  1  0  0  0  0
 43 33  2  0  0  0  0
 44  8  1  0  0  0  0
 45120  1  0  0  0  0
 45121  1  0  0  0  0
 46 45  1  0  0  0  0
 46122  1  0  0  0  0
 47123  1  0  0  0  0
 48 31  1  0  0  0  0
 49 48  2  0  0  0  0
 50 49  1  0  0  0  0
 50 51  2  0  0  0  0
 50124  1  0  0  0  0
 51 52  1  0  0  0  0
 52 53  2  0  0  0  0
 53 48  1  0  0  0  0
 53125  1  0  0  0  0
 54 52  1  0  0  0  0
 54126  1  0  0  0  0
 54127  1  0  0  0  0
 54128  1  0  0  0  0
 55 51  1  0  0  0  0
 55129  1  0  0  0  0
 55130  1  0  0  0  0
 55131  1  0  0  0  0
 56132  1  0  0  0  0
 56133  1  0  0  0  0
 57 56  1  0  0  0  0
 58 57  2  0  0  0  0
 59 57  1  0  0  0  0
 59134  1  0  0  0  0
 59135  1  0  0  0  0
 60136  1  0  0  0  0
 60137  1  0  0  0  0
 60138  1  0  0  0  0
 61 25  1  0  0  0  0
 61139  1  0  0  0  0
 61140  1  0  0  0  0
 61141  1  0  0  0  0
 62  9  1  0  0  0  0
 63 62  1  0  0  0  0
 63142  1  0  0  0  0
 63143  1  0  0  0  0
 63144  1  0  0  0  0
 64 62  1  0  0  0  0
 64145  1  0  0  0  0
 64146  1  0  0  0  0
 64147  1  0  0  0  0
 65148  1  0  0  0  0
 65149  1  0  0  0  0
 66 65  1  0  0  0  0
 66150  1  0  0  0  0
 66151  1  0  0  0  0
 67 66  1  0  0  0  0
 68 67  2  0  0  0  0
 69 67  1  0  0  0  0
 69152  1  0  0  0  0
 69153  1  0  0  0  0
 70154  1  0  0  0  0
 70155  1  0  0  0  0
 71 70  1  0  0  0  0
 72 71  2  0  0  0  0
 73 71  1  0  0  0  0
 73156  1  0  0  0  0
 73157  1  0  0  0  0
 74158  1  0  0  0  0
 74159  1  0  0  0  0
 74160  1  0  0  0  0
 75161  1  0  0  0  0
 75162  1  0  0  0  0
 76 75  1  0  0  0  0
 76163  1  0  0  0  0
 76164  1  0  0  0  0
 77 76  1  0  0  0  0
 78 77  2  0  0  0  0
 79 77  1  0  0  0  0
 79165  1  0  0  0  0
 79166  1  0  0  0  0
 80167  1  0  0  0  0
 80168  1  0  0  0  0
 81 80  1  0  0  0  0
 82 81  2  0  0  0  0
 83 81  1  0  0  0  0
 83169  1  0  0  0  0
 83170  1  0  0  0  0
 84171  1  0  0  0  0
 84172  1  0  0  0  0
 84173  1  0  0  0  0
 85174  1  0  0  0  0
 85175  1  0  0  0  0
 86 85  1  0  0  0  0
 86176  1  0  0  0  0
 86177  1  0  0  0  0
 87 86  1  0  0  0  0
 88 87  2  0  0  0  0
 89 87  1  0  0  0  0
 89178  1  0  0  0  0
 89179  1  0  0  0  0
 90180  1  0  0  0  0
 90181  1  0  0  0  0
 90182  1  0  0  0  0
 91 92  3  0  0  0  0
M  ISO  1  93  57
M  CHG  4  28  -1  42  -1  91  -1  93   3
M  END
>  <DRUGBANK_ID>
DB09385

>  <COMMON_NAME>
Cyanocobalamin Co-57

>  <CAS_NUMBER>
13115-03-2

>  <UNII>
025P9I542Y

>  <SYNONYMS>
(57Co)Vitamin B12; Cianocobalamina (57 Co); Cyanocobalamin (57 Co); Cyanocobalamin (57Co); Cyanocobalamin Co 57; Cyanocobalamine (57 Co); Cyanocobalaminum (57 Co)

$$$$
