
 OpenBabel10282417133D

 11 10  0  0  0  0  0  0  0  0999 V2000
    1.0260   -0.1377    0.0289 C   0  0  0  0  0  0  0  0  0  0  0  0
    0.3604   -1.7175    0.6109 S   0  0  0  0  0  0  0  0  0  0  0  0
    1.0319   -2.8655   -0.6491 C   0  0  0  0  0  0  0  0  0  0  0  0
    0.5130   -2.4976   -2.0479 C   0  0  0  0  0  0  0  0  0  0  0  0
    1.4279   -2.2636   -2.8975 O   0  5  0  0  0  0  0  0  0  0  0  0
   -0.7358   -2.5295   -2.2252 O   0  0  0  0  0  0  0  0  0  0  0  0
    0.6923    0.6401    0.7249 H   0  0  0  0  0  0  0  0  0  0  0  0
    0.6544    0.1250   -0.9637 H   0  0  0  0  0  0  0  0  0  0  0  0
    2.1192   -0.1411    0.0379 H   0  0  0  0  0  0  0  0  0  0  0  0
    2.1258   -2.8655   -0.6105 H   0  0  0  0  0  0  0  0  0  0  0  0
    0.6876   -3.8757   -0.4056 H   0  0  0  0  0  0  0  0  0  0  0  0
  1  2  1  0  0  0  0
  1  7  1  0  0  0  0
  1  8  1  0  0  0  0
  1  9  1  0  0  0  0
  2  3  1  0  0  0  0
  3  4  1  0  0  0  0
  3 10  1  0  0  0  0
  3 11  1  0  0  0  0
  4  5  1  0  0  0  0
  4  6  2  0  0  0  0
M  CHG  1   5  -1
M  END
>  <DRUGBANK_ID>
DB03517

>  <SECONDARY_ACCESSION_NUMBERS>
EXPT02243

>  <COMMON_NAME>
[Methylthio]Acetate

$$$$
