
 OpenBabel10282417173D

 74 77  0  0  0  0  0  0  0  0999 V2000
   -1.5653    1.1796    0.2499 N   0  0  0  0  0  0  0  0  0  0  0  0
   -2.1556   -0.0112    0.4133 C   0  0  0  0  0  0  0  0  0  0  0  0
   -0.2255    1.1497    0.0881 C   0  0  0  0  0  0  0  0  0  0  0  0
   -1.4986   -1.1680    0.4750 N   0  0  0  0  0  0  0  0  0  0  0  0
    0.5294   -0.0056    0.1206 C   0  0  0  0  0  0  0  0  0  0  0  0
   -0.1740   -1.1828    0.2998 C   0  0  0  0  0  0  0  0  0  0  0  0
   -3.5385   -0.0600    0.3610 N   0  0  0  0  0  0  0  0  0  0  0  0
    0.4279   -2.4542    0.3061 N   0  0  0  0  0  0  0  0  0  0  0  0
   -0.2642   -3.6681    0.0842 C   0  0  0  0  0  0  0  0  0  0  0  0
   -1.0773   -4.0063   -1.0145 C   0  0  0  0  0  0  0  0  0  0  0  0
   -0.0792   -4.6517    1.0709 C   0  0  0  0  0  0  0  0  0  0  0  0
   -1.7754   -5.2337   -1.0225 C   0  0  0  0  0  0  0  0  0  0  0  0
   -0.6761   -5.9122    0.9873 C   0  0  0  0  0  0  0  0  0  0  0  0
   -1.5525   -6.1955   -0.0468 C   0  0  0  0  0  0  0  0  0  0  0  0
    2.2353    0.0471   -0.0468 Cl  0  0  0  0  0  0  0  0  0  0  0  0
   -4.3380   -1.2013    0.1811 C   0  0  0  0  0  0  0  0  0  0  0  0
   -4.2365   -2.1710    1.1920 C   0  0  0  0  0  0  0  0  0  0  0  0
   -5.2408   -1.4246   -0.8755 C   0  0  0  0  0  0  0  0  0  0  0  0
   -5.0040   -3.3377    1.2333 C   0  0  0  0  0  0  0  0  0  0  0  0
   -6.0554   -2.5691   -0.7947 C   0  0  0  0  0  0  0  0  0  0  0  0
   -5.9335   -3.5584    0.2381 C   0  0  0  0  0  0  0  0  0  0  0  0
   -6.8459   -4.7691    0.1118 C   0  0  0  0  0  0  0  0  0  0  0  0
   -7.6064   -5.7165    1.0671 C   0  0  0  0  0  0  0  0  0  0  0  0
   -6.4023   -5.5685   -1.1308 C   0  0  0  0  0  0  0  0  0  0  0  0
   -7.0600   -7.1294    1.2286 C   0  0  0  0  0  0  0  0  0  0  0  0
   -5.8500   -6.9639   -0.8168 C   0  0  0  0  0  0  0  0  0  0  0  0
   -6.8125   -7.7597   -0.0647 N   0  0  0  0  0  0  0  0  0  0  0  0
   -5.4151   -0.7318   -2.0588 O   0  0  0  0  0  0  0  0  0  0  0  0
   -4.5641    0.3663   -2.4305 C   0  0  0  0  0  0  0  0  0  0  0  0
   -4.8439   -4.2577    2.3856 C   0  0  0  0  0  0  0  0  0  0  0  0
   -4.8888    1.5546   -1.5419 C   0  0  0  0  0  0  0  0  0  0  0  0
   -3.1006   -0.0098   -2.5793 C   0  0  0  0  0  0  0  0  0  0  0  0
   -1.4792   -2.8807   -2.3221 S   0  0  0  0  0  0  0  0  0  0  0  0
   -0.9952   -3.5053   -3.8923 C   0  0  0  0  0  0  0  0  0  0  0  0
   -2.9438   -2.8691   -2.3567 O   0  0  0  0  0  0  0  0  0  0  0  0
   -0.6798   -1.6889   -2.2200 O   0  0  0  0  0  0  0  0  0  0  0  0
   -1.7464   -4.7592   -4.2742 C   0  0  0  0  0  0  0  0  0  0  0  0
   -1.2593   -2.4158   -4.9493 C   0  0  0  0  0  0  0  0  0  0  0  0
    0.2294    2.1230   -0.0714 H   0  0  0  0  0  0  0  0  0  0  0  0
   -3.9505    0.8033    0.6591 H   0  0  0  0  0  0  0  0  0  0  0  0
    1.3908   -2.4526   -0.0058 H   0  0  0  0  0  0  0  0  0  0  0  0
    0.4945   -4.4002    1.9602 H   0  0  0  0  0  0  0  0  0  0  0  0
   -2.5345   -5.4444   -1.7744 H   0  0  0  0  0  0  0  0  0  0  0  0
   -0.4803   -6.6563    1.7527 H   0  0  0  0  0  0  0  0  0  0  0  0
   -2.0814   -7.1443   -0.0827 H   0  0  0  0  0  0  0  0  0  0  0  0
   -3.4978   -1.9966    1.9710 H   0  0  0  0  0  0  0  0  0  0  0  0
   -6.8155   -2.7151   -1.5690 H   0  0  0  0  0  0  0  0  0  0  0  0
   -7.7211   -4.1309   -0.0468 H   0  0  0  0  0  0  0  0  0  0  0  0
   -7.8299   -5.2759    2.0403 H   0  0  0  0  0  0  0  0  0  0  0  0
   -8.5893   -5.8514    0.5731 H   0  0  0  0  0  0  0  0  0  0  0  0
   -7.2740   -5.6545   -1.7871 H   0  0  0  0  0  0  0  0  0  0  0  0
   -5.6228   -5.0538   -1.7066 H   0  0  0  0  0  0  0  0  0  0  0  0
   -6.1506   -7.1144    1.8325 H   0  0  0  0  0  0  0  0  0  0  0  0
   -7.8003   -7.7383    1.7649 H   0  0  0  0  0  0  0  0  0  0  0  0
   -5.6235   -7.4785   -1.7584 H   0  0  0  0  0  0  0  0  0  0  0  0
   -4.9052   -6.9014   -0.2622 H   0  0  0  0  0  0  0  0  0  0  0  0
   -6.4493   -8.7026    0.0774 H   0  0  0  0  0  0  0  0  0  0  0  0
   -4.8438    0.6665   -3.4500 H   0  0  0  0  0  0  0  0  0  0  0  0
   -5.7900   -4.2904    2.9299 H   0  0  0  0  0  0  0  0  0  0  0  0
   -4.5585   -5.2506    2.0352 H   0  0  0  0  0  0  0  0  0  0  0  0
   -4.0735   -3.8936    3.0714 H   0  0  0  0  0  0  0  0  0  0  0  0
   -5.1976    1.2436   -0.5484 H   0  0  0  0  0  0  0  0  0  0  0  0
   -4.0644    2.2673   -1.4737 H   0  0  0  0  0  0  0  0  0  0  0  0
   -5.7991    2.0492   -1.8815 H   0  0  0  0  0  0  0  0  0  0  0  0
   -2.9453   -0.6156   -3.4741 H   0  0  0  0  0  0  0  0  0  0  0  0
   -2.3979    0.8254   -2.6014 H   0  0  0  0  0  0  0  0  0  0  0  0
   -2.8030   -0.6555   -1.7751 H   0  0  0  0  0  0  0  0  0  0  0  0
    0.0825   -3.6847   -3.8308 H   0  0  0  0  0  0  0  0  0  0  0  0
   -2.8302   -4.5927   -4.2473 H   0  0  0  0  0  0  0  0  0  0  0  0
   -1.4698   -5.0888   -5.2753 H   0  0  0  0  0  0  0  0  0  0  0  0
   -1.5063   -5.5725   -3.5910 H   0  0  0  0  0  0  0  0  0  0  0  0
   -0.7229   -1.4857   -4.7233 H   0  0  0  0  0  0  0  0  0  0  0  0
   -0.9465   -2.7464   -5.9416 H   0  0  0  0  0  0  0  0  0  0  0  0
   -2.3256   -2.1610   -4.9989 H   0  0  0  0  0  0  0  0  0  0  0  0
  2  1  1  0  0  0  0
  2  7  1  0  0  0  0
  3  1  2  0  0  0  0
  3 39  1  0  0  0  0
  4  2  2  0  0  0  0
  5  3  1  0  0  0  0
  5 15  1  0  0  0  0
  6  4  1  0  0  0  0
  6  5  2  0  0  0  0
  6  8  1  0  0  0  0
  7 16  1  0  0  0  0
  7 40  1  0  0  0  0
  8  9  1  0  0  0  0
  8 41  1  0  0  0  0
 10  9  1  0  0  0  0
 10 33  1  0  0  0  0
 11  9  2  0  0  0  0
 11 42  1  0  0  0  0
 12 10  2  0  0  0  0
 12 43  1  0  0  0  0
 13 11  1  0  0  0  0
 13 44  1  0  0  0  0
 14 12  1  0  0  0  0
 14 13  2  0  0  0  0
 14 45  1  0  0  0  0
 17 16  1  0  0  0  0
 17 46  1  0  0  0  0
 18 16  2  0  0  0  0
 18 28  1  0  0  0  0
 19 17  2  0  0  0  0
 19 30  1  0  0  0  0
 20 18  1  0  0  0  0
 20 47  1  0  0  0  0
 21 19  1  0  0  0  0
 21 20  2  0  0  0  0
 21 22  1  0  0  0  0
 22 48  1  0  0  0  0
 23 22  1  0  0  0  0
 23 49  1  0  0  0  0
 23 50  1  0  0  0  0
 24 22  1  0  0  0  0
 24 51  1  0  0  0  0
 24 52  1  0  0  0  0
 25 23  1  0  0  0  0
 25 53  1  0  0  0  0
 25 54  1  0  0  0  0
 26 24  1  0  0  0  0
 26 55  1  0  0  0  0
 26 56  1  0  0  0  0
 27 25  1  0  0  0  0
 27 26  1  0  0  0  0
 27 57  1  0  0  0  0
 28 29  1  0  0  0  0
 29 31  1  0  0  0  0
 29 32  1  0  0  0  0
 29 58  1  0  0  0  0
 30 59  1  0  0  0  0
 30 60  1  0  0  0  0
 30 61  1  0  0  0  0
 31 62  1  0  0  0  0
 31 63  1  0  0  0  0
 31 64  1  0  0  0  0
 32 65  1  0  0  0  0
 32 66  1  0  0  0  0
 32 67  1  0  0  0  0
 33 34  1  0  0  0  0
 33 35  2  0  0  0  0
 33 36  2  0  0  0  0
 34 37  1  0  0  0  0
 34 38  1  0  0  0  0
 34 68  1  0  0  0  0
 37 69  1  0  0  0  0
 37 70  1  0  0  0  0
 37 71  1  0  0  0  0
 38 72  1  0  0  0  0
 38 73  1  0  0  0  0
 38 74  1  0  0  0  0
M  END
>  <DRUGBANK_ID>
DB09063

>  <COMMON_NAME>
Ceritinib

>  <CAS_NUMBER>
1032900-25-6

>  <UNII>
K418KG2GET

>  <SYNONYMS>
Ceritinib; CÃ©ritinib; Ceritinibum; N-{2-[(5-chloro-2-{[2-isopropoxy-5-methyl-4-(piperidin-4-yl)phenyl]amino}pyrimidin-4-yl)amino]phenyl}propane-2-sulfonamide

$$$$
