
 OpenBabel10282417243D

 29 32  0  0  0  0  0  0  0  0999 V2000
   -2.0800    0.1474    0.0012 F   0  0  0  0  0  0  0  0  0  0  0  0
   -0.7402    0.0866   -0.0174 C   0  0  0  0  0  0  0  0  0  0  0  0
   -0.0255    1.2742   -0.0298 C   0  0  0  0  0  0  0  0  0  0  0  0
    1.3762    1.2303   -0.0369 C   0  0  0  0  0  0  0  0  0  0  0  0
    1.9756   -0.0351   -0.0393 C   0  0  0  0  0  0  0  0  0  0  0  0
    1.1713   -1.1683   -0.0214 C   0  0  0  0  0  0  0  0  0  0  0  0
   -0.1760   -1.1353   -0.0059 N   0  0  0  0  0  0  0  0  0  0  0  0
    2.1870    2.4643    0.0230 C   0  0  0  0  0  0  0  0  0  0  0  0
    2.0258    3.3464    1.0963 C   0  0  0  0  0  0  0  0  0  0  0  0
    2.7920    4.5103    1.1698 C   0  0  0  0  0  0  0  0  0  0  0  0
    3.7051    4.7558    0.1356 C   0  0  0  0  0  0  0  0  0  0  0  0
    3.7848    3.8087   -0.8800 C   0  0  0  0  0  0  0  0  0  0  0  0
    3.0780    2.6599   -0.9881 N   0  0  0  0  0  0  0  0  0  0  0  0
    4.7249    4.2501   -1.7764 N   0  0  0  0  0  0  0  0  0  0  0  0
    5.2641    5.4532   -1.3691 C   0  0  0  0  0  0  0  0  0  0  0  0
    6.2387    6.2700   -1.9463 C   0  0  0  0  0  0  0  0  0  0  0  0
    6.5358    7.4279   -1.2395 C   0  0  0  0  0  0  0  0  0  0  0  0
    5.9583    7.7927   -0.0744 N   0  0  0  0  0  0  0  0  0  0  0  0
    5.0134    6.9861    0.4679 C   0  0  0  0  0  0  0  0  0  0  0  0
    4.6402    5.7929   -0.1656 C   0  0  0  0  0  0  0  0  0  0  0  0
   -0.5704    2.2114   -0.0318 H   0  0  0  0  0  0  0  0  0  0  0  0
    3.0561   -0.1403   -0.0311 H   0  0  0  0  0  0  0  0  0  0  0  0
    1.6059   -2.1647   -0.0095 H   0  0  0  0  0  0  0  0  0  0  0  0
    1.3179    3.1259    1.8898 H   0  0  0  0  0  0  0  0  0  0  0  0
    2.6818    5.1984    2.0009 H   0  0  0  0  0  0  0  0  0  0  0  0
    4.9760    3.7510   -2.6179 H   0  0  0  0  0  0  0  0  0  0  0  0
    6.7369    6.0318   -2.8774 H   0  0  0  0  0  0  0  0  0  0  0  0
    7.2831    8.1265   -1.6105 H   0  0  0  0  0  0  0  0  0  0  0  0
    4.5781    7.3207    1.4027 H   0  0  0  0  0  0  0  0  0  0  0  0
  1  2  1  0  0  0  0
  2  3  2  0  0  0  0
  2  7  1  0  0  0  0
  3  4  1  0  0  0  0
  3 21  1  0  0  0  0
  4  5  2  0  0  0  0
  4  8  1  0  0  0  0
  5  6  1  0  0  0  0
  5 22  1  0  0  0  0
  6  7  2  0  0  0  0
  6 23  1  0  0  0  0
  8  9  1  0  0  0  0
  8 13  2  0  0  0  0
  9 10  2  0  0  0  0
  9 24  1  0  0  0  0
 10 11  1  0  0  0  0
 10 25  1  0  0  0  0
 11 12  2  0  0  0  0
 11 20  1  0  0  0  0
 12 13  1  0  0  0  0
 12 14  1  0  0  0  0
 14 15  1  0  0  0  0
 14 26  1  0  0  0  0
 15 16  1  0  0  0  0
 15 20  2  0  0  0  0
 16 17  2  0  0  0  0
 16 27  1  0  0  0  0
 17 18  1  0  0  0  0
 17 28  1  0  0  0  0
 18 19  2  0  0  0  0
 19 20  1  0  0  0  0
 19 29  1  0  0  0  0
M  END
>  <DRUGBANK_ID>
DB18282

>  <COMMON_NAME>
Izaflortaucipir

>  <CAS_NUMBER>
2173361-80-1

>  <UNII>
MWJ7I16SUJ

>  <SYNONYMS>
2-(2-fluoropyridin-4-yl)-9h-pyrrolo(2,3-b:4,5-c')dipyridine; 9h-pyrido(3',4':4,5)pyrrolo(2,3-b)pyridine, 2-(2-fluoro-4-pyridinyl)-

$$$$
