
 OpenBabel10282417143D

 75 78  0  0  0  0  0  0  0  0999 V2000
    2.2095   -1.3591   -0.7151 C   0  0  0  0  0  0  0  0  0  0  0  0
    3.6969   -1.2765   -0.3853 C   0  0  0  0  0  0  0  0  0  0  0  0
    4.1930    0.1659   -0.4501 C   0  0  1  0  0  0  0  0  0  0  0  0
    3.3712    1.0842    0.4567 C   0  0  0  0  0  0  0  0  0  0  0  0
    1.8949    0.9520    0.2014 C   0  0  0  0  0  0  0  0  0  0  0  0
    1.1449    2.0629   -0.0212 C   0  0  0  0  0  0  0  0  0  0  0  0
    1.3184   -0.4664    0.1949 C   0  0  2  0  0  0  0  0  0  0  0  0
   -0.8460   -1.8433   -0.2757 C   0  0  0  0  0  0  0  0  0  0  0  0
   -2.3076   -1.7906   -0.7219 C   0  0  0  0  0  0  0  0  0  0  0  0
   -3.0693   -0.6694    0.0250 C   0  0  1  0  0  0  0  0  0  0  0  0
   -2.3828    0.6394   -0.4046 C   0  0  1  0  0  0  0  0  0  0  0  0
   -3.3587    1.7387   -0.0197 C   0  0  0  0  0  0  0  0  0  0  0  0
   -4.7222    1.1413   -0.3327 C   0  0  0  0  0  0  0  0  0  0  0  0
   -4.5098   -0.3870   -0.5017 C   0  0  2  0  0  0  0  0  0  0  0  0
   -2.9701   -0.8497    1.5637 C   0  0  0  0  0  0  0  0  0  0  0  0
    1.3393   -1.0103    1.6455 C   0  0  0  0  0  0  0  0  0  0  0  0
   -2.3166    0.6625   -1.5042 H   0  0  0  0  0  0  0  0  0  0  0  0
   -4.5003   -0.5681   -1.5903 H   0  0  0  0  0  0  0  0  0  0  0  0
    5.5655    0.2086   -0.0669 O   0  0  0  0  0  0  0  0  0  0  0  0
   -0.1322   -0.4731   -0.3987 C   0  0  1  0  0  0  0  0  0  0  0  0
   -0.0484   -0.2963   -1.4828 H   0  0  0  0  0  0  0  0  0  0  0  0
   -6.0277   -0.8001    1.5087 C   0  0  0  0  0  0  0  0  0  0  0  0
   -0.9646    0.7209    0.1474 C   0  0  1  0  0  0  0  0  0  0  0  0
   -0.9830    0.6871    1.2430 H   0  0  0  0  0  0  0  0  0  0  0  0
   -0.3274    2.0533   -0.2290 C   0  0  0  0  0  0  0  0  0  0  0  0
   -4.8497   -3.5905    0.8339 C   0  0  0  0  0  0  0  0  0  0  0  0
   -6.9049   -5.5988    1.8343 C   0  0  0  0  0  0  0  0  0  0  0  0
   -5.5240   -2.7087   -0.2293 C   0  0  0  0  0  0  0  0  0  0  0  0
   -5.6962   -1.1927    0.0634 C   0  0  2  0  0  0  0  0  0  0  0  0
   -7.5638   -3.8672    3.5862 C   0  0  0  0  0  0  0  0  0  0  0  0
   -5.4871   -3.6548    2.2267 C   0  0  0  0  0  0  0  0  0  0  0  0
   -6.9401   -4.1306    2.2229 C   0  0  0  0  0  0  0  0  0  0  0  0
   -7.7412   -3.4105    1.2926 O   0  0  0  0  0  0  0  0  0  0  0  0
    2.0770   -1.0574   -1.7638 H   0  0  0  0  0  0  0  0  0  0  0  0
    1.8971   -2.4080   -0.6541 H   0  0  0  0  0  0  0  0  0  0  0  0
    4.2681   -1.8958   -1.0868 H   0  0  0  0  0  0  0  0  0  0  0  0
    3.8949   -1.7036    0.6051 H   0  0  0  0  0  0  0  0  0  0  0  0
    4.1320    0.5244   -1.4846 H   0  0  0  0  0  0  0  0  0  0  0  0
    3.5742    0.8495    1.5095 H   0  0  0  0  0  0  0  0  0  0  0  0
    3.7155    2.1170    0.3251 H   0  0  0  0  0  0  0  0  0  0  0  0
    1.6148    3.0377   -0.0395 H   0  0  0  0  0  0  0  0  0  0  0  0
   -0.3259   -2.5982   -0.8752 H   0  0  0  0  0  0  0  0  0  0  0  0
   -0.8216   -2.2202    0.7506 H   0  0  0  0  0  0  0  0  0  0  0  0
   -2.3445   -1.6266   -1.8070 H   0  0  0  0  0  0  0  0  0  0  0  0
   -2.7368   -2.7806   -0.5777 H   0  0  0  0  0  0  0  0  0  0  0  0
   -3.2889    1.9898    1.0448 H   0  0  0  0  0  0  0  0  0  0  0  0
   -3.2019    2.6561   -0.5919 H   0  0  0  0  0  0  0  0  0  0  0  0
   -5.4100    1.4341    0.4580 H   0  0  0  0  0  0  0  0  0  0  0  0
   -5.1577    1.5606   -1.2457 H   0  0  0  0  0  0  0  0  0  0  0  0
   -3.4418   -0.0249    2.1031 H   0  0  0  0  0  0  0  0  0  0  0  0
   -3.4120   -1.7735    1.9138 H   0  0  0  0  0  0  0  0  0  0  0  0
   -1.9530   -0.9226    1.9499 H   0  0  0  0  0  0  0  0  0  0  0  0
    0.6926   -0.4249    2.3074 H   0  0  0  0  0  0  0  0  0  0  0  0
    1.0178   -2.0553    1.6971 H   0  0  0  0  0  0  0  0  0  0  0  0
    2.3411   -0.9894    2.0848 H   0  0  0  0  0  0  0  0  0  0  0  0
    5.6271   -0.1065    0.8512 H   0  0  0  0  0  0  0  0  0  0  0  0
   -5.2471   -1.0978    2.1874 H   0  0  0  0  0  0  0  0  0  0  0  0
   -6.0851    0.2652    1.7144 H   0  0  0  0  0  0  0  0  0  0  0  0
   -6.9736   -1.2141    1.8491 H   0  0  0  0  0  0  0  0  0  0  0  0
   -0.7754    2.8440    0.3873 H   0  0  0  0  0  0  0  0  0  0  0  0
   -0.5419    2.2993   -1.2752 H   0  0  0  0  0  0  0  0  0  0  0  0
   -4.7715   -4.6051    0.4284 H   0  0  0  0  0  0  0  0  0  0  0  0
   -3.8050   -3.3288    0.9569 H   0  0  0  0  0  0  0  0  0  0  0  0
   -6.2676   -6.1557    2.5286 H   0  0  0  0  0  0  0  0  0  0  0  0
   -7.9027   -6.0323    1.8084 H   0  0  0  0  0  0  0  0  0  0  0  0
   -6.4922   -5.7242    0.8260 H   0  0  0  0  0  0  0  0  0  0  0  0
   -6.4993   -3.1356   -0.4859 H   0  0  0  0  0  0  0  0  0  0  0  0
   -4.9828   -2.8382   -1.1783 H   0  0  0  0  0  0  0  0  0  0  0  0
   -6.5725   -0.8798   -0.5256 H   0  0  0  0  0  0  0  0  0  0  0  0
   -7.6240   -2.7855    3.7755 H   0  0  0  0  0  0  0  0  0  0  0  0
   -8.5930   -4.2359    3.6124 H   0  0  0  0  0  0  0  0  0  0  0  0
   -6.9848   -4.3244    4.3908 H   0  0  0  0  0  0  0  0  0  0  0  0
   -4.8624   -4.3037    2.8546 H   0  0  0  0  0  0  0  0  0  0  0  0
   -5.4305   -2.7307    2.7887 H   0  0  0  0  0  0  0  0  0  0  0  0
   -8.6097   -3.8348    1.2128 H   0  0  0  0  0  0  0  0  0  0  0  0
  1  7  1  0  0  0  0
  1 34  1  0  0  0  0
  1 35  1  0  0  0  0
  2  1  1  0  0  0  0
  2 36  1  0  0  0  0
  2 37  1  0  0  0  0
  3  4  1  0  0  0  0
  3  2  1  0  0  0  0
  3 19  1  0  0  0  0
  3 38  1  6  0  0  0
  4  5  1  0  0  0  0
  4 39  1  0  0  0  0
  4 40  1  0  0  0  0
  5  7  1  0  0  0  0
  6 25  1  0  0  0  0
  6  5  2  0  0  0  0
  6 41  1  0  0  0  0
  7 20  1  0  0  0  0
  7 16  1  1  0  0  0
  8 20  1  0  0  0  0
  8  9  1  0  0  0  0
  8 42  1  0  0  0  0
  8 43  1  0  0  0  0
  9 10  1  0  0  0  0
  9 44  1  0  0  0  0
  9 45  1  0  0  0  0
 10 15  1  1  0  0  0
 11 10  1  0  0  0  0
 11 17  1  6  0  0  0
 12 11  1  0  0  0  0
 12 46  1  0  0  0  0
 12 47  1  0  0  0  0
 13 14  1  0  0  0  0
 13 12  1  0  0  0  0
 13 48  1  0  0  0  0
 13 49  1  0  0  0  0
 14 10  1  0  0  0  0
 14 18  1  6  0  0  0
 14 29  1  0  0  0  0
 15 50  1  0  0  0  0
 15 51  1  0  0  0  0
 15 52  1  0  0  0  0
 16 53  1  0  0  0  0
 16 54  1  0  0  0  0
 16 55  1  0  0  0  0
 19 56  1  0  0  0  0
 20 21  1  6  0  0  0
 22 57  1  0  0  0  0
 22 58  1  0  0  0  0
 22 59  1  0  0  0  0
 23 11  1  0  0  0  0
 23 20  1  0  0  0  0
 23 24  1  1  0  0  0
 25 23  1  0  0  0  0
 25 60  1  0  0  0  0
 25 61  1  0  0  0  0
 26 62  1  0  0  0  0
 26 63  1  0  0  0  0
 27 32  1  0  0  0  0
 27 64  1  0  0  0  0
 27 65  1  0  0  0  0
 27 66  1  0  0  0  0
 28 26  1  0  0  0  0
 28 67  1  0  0  0  0
 28 68  1  0  0  0  0
 29 69  1  6  0  0  0
 29 28  1  0  0  0  0
 29 22  1  0  0  0  0
 30 32  1  0  0  0  0
 30 70  1  0  0  0  0
 30 71  1  0  0  0  0
 30 72  1  0  0  0  0
 31 26  1  0  0  0  0
 31 73  1  0  0  0  0
 31 74  1  0  0  0  0
 32 31  1  0  0  0  0
 32 33  1  0  0  0  0
 33 75  1  0  0  0  0
M  END
>  <DRUGBANK_ID>
DB04705

>  <COMMON_NAME>
25-Hydroxycholesterol

>  <CAS_NUMBER>
2140-46-7

>  <UNII>
767JTD2N31

>  <SYNONYMS>
5-Cholestene-3beta,25-diol; Cholest-5-ene-3beta,25-diol

$$$$
