414
 OpenBabel10282417103D

 42 43  0  0  0  0  0  0  0  0999 V2000
    0.9625   -0.2751    0.3896 S   0  0  0  0  0  0  0  0  0  0  0  0
    0.5143    4.1553    0.0017 O   0  0  0  0  0  0  0  0  0  0  0  0
    0.2185   -0.7158   -0.8546 O   0  0  0  0  0  0  0  0  0  0  0  0
    0.4313   -0.7286    1.6702 O   0  0  0  0  0  0  0  0  0  0  0  0
    8.0920   -0.9343    0.3868 O   0  0  0  0  0  0  0  0  0  0  0  0
    2.3215    3.0002    0.2889 N   0  0  0  0  0  0  0  0  0  0  0  0
    0.2799    1.7520    0.2170 N   0  0  0  0  0  0  0  0  0  0  0  0
    2.5711    1.6909    0.2066 C   0  0  0  0  0  0  0  0  0  0  0  0
    2.1957    0.3386   -1.1342 C   0  0  0  0  0  0  0  0  0  0  0  0
    3.5240    1.1399    1.8268 C   0  0  0  0  0  0  0  0  0  0  0  0
    2.3045   -1.6445   -0.5646 C   0  0  0  0  0  0  0  0  0  0  0  0
    4.2207   -0.4859    2.0875 C   0  0  0  0  0  0  0  0  0  0  0  0
    3.0904   -1.8263    1.3278 C   0  0  0  0  0  0  0  0  0  0  0  0
    1.0059    3.0457    0.1468 C   0  0  0  0  0  0  0  0  0  0  0  0
    3.4589   -0.2065    0.0608 C   0  0  0  0  0  0  0  0  0  0  0  0
    4.4124    1.0937   -0.4019 C   0  0  0  0  0  0  0  0  0  0  0  0
    4.3720   -1.2820   -0.4115 C   0  0  0  0  0  0  0  0  0  0  0  0
    6.2522    0.1279   -0.2856 C   0  0  0  0  0  0  0  0  0  0  0  0
    5.6686    1.3315   -0.2329 C   0  0  0  0  0  0  0  0  0  0  0  0
    5.6916   -1.1405   -0.4095 C   0  0  0  0  0  0  0  0  0  0  0  0
    7.5737    0.1359    0.1366 C   0  0  0  0  0  0  0  0  0  0  0  0
    8.1164    1.5065    0.1903 C   0  0  0  0  0  0  0  0  0  0  0  0
    3.0643    3.6818    0.1841 H   0  0  0  0  0  0  0  0  0  0  0  0
   -0.7179    1.8331    0.0259 H   0  0  0  0  0  0  0  0  0  0  0  0
    2.7766    1.8558   -0.9511 H   0  0  0  0  0  0  0  0  0  0  0  0
    2.0946    0.8514    0.1341 H   0  0  0  0  0  0  0  0  0  0  0  0
    1.5994    0.6393   -1.9848 H   0  0  0  0  0  0  0  0  0  0  0  0
    4.3766    1.8392    2.0080 H   0  0  0  0  0  0  0  0  0  0  0  0
    2.8220    1.1732    2.6590 H   0  0  0  0  0  0  0  0  0  0  0  0
    1.5143   -2.4070   -0.6152 H   0  0  0  0  0  0  0  0  0  0  0  0
    2.8626   -1.8653   -1.5332 H   0  0  0  0  0  0  0  0  0  0  0  0
    4.6802   -0.6857    3.0822 H   0  0  0  0  0  0  0  0  0  0  0  0
    5.2571   -0.4845    1.6699 H   0  0  0  0  0  0  0  0  0  0  0  0
    2.3573   -1.7651    2.1235 H   0  0  0  0  0  0  0  0  0  0  0  0
    3.7803   -2.7042    1.4233 H   0  0  0  0  0  0  0  0  0  0  0  0
    4.1997    2.1685   -0.6563 H   0  0  0  0  0  0  0  0  0  0  0  0
    4.1529   -2.3673   -0.4196 H   0  0  0  0  0  0  0  0  0  0  0  0
    5.9121    2.3619    0.0888 H   0  0  0  0  0  0  0  0  0  0  0  0
    6.0719   -1.9910    0.1693 H   0  0  0  0  0  0  0  0  0  0  0  0
    7.7996    2.0413   -0.7280 H   0  0  0  0  0  0  0  0  0  0  0  0
    7.7165    2.0338    1.0709 H   0  0  0  0  0  0  0  0  0  0  0  0
    9.1684    1.3617    0.1843 H   0  0  0  0  0  0  0  0  0  0  0  0
  1  3  2  0  0  0  0
  1  4  2  0  0  0  0
  1  7  1  0  0  0  0
  1 15  1  0  0  0  0
  2 14  2  0  0  0  0
  5 21  2  0  0  0  0
  6  8  1  0  0  0  0
  6 14  1  0  0  0  0
  6 23  1  0  0  0  0
  7 14  1  0  0  0  0
  7 24  1  0  0  0  0
  8  9  1  0  0  0  0
  8 10  1  0  0  0  0
  8 25  1  0  0  0  0
  9 11  1  0  0  0  0
  9 26  1  0  0  0  0
  9 27  1  0  0  0  0
 10 12  1  0  0  0  0
 10 28  1  0  0  0  0
 10 29  1  0  0  0  0
 11 13  1  0  0  0  0
 11 30  1  0  0  0  0
 11 31  1  0  0  0  0
 12 13  1  0  0  0  0
 12 32  1  0  0  0  0
 12 33  1  0  0  0  0
 13 34  1  0  0  0  0
 13 35  1  0  0  0  0
 15 16  2  0  0  0  0
 15 17  1  0  0  0  0
 16 19  1  0  0  0  0
 16 36  1  0  0  0  0
 17 20  2  0  0  0  0
 17 37  1  0  0  0  0
 18 19  2  0  0  0  0
 18 20  1  0  0  0  0
 18 21  1  0  0  0  0
 19 38  1  0  0  0  0
 20 39  1  0  0  0  0
 21 22  1  0  0  0  0
 22 40  1  0  0  0  0
 22 41  1  0  0  0  0
 22 42  1  0  0  0  0
M  END
>  <DRUGBANK_ID>
DB00414

>  <SECONDARY_ACCESSION_NUMBERS>
APRD00773

>  <COMMON_NAME>
Acetohexamide

>  <CAS_NUMBER>
968-81-0

>  <UNII>
QGC8W08I6I

>  <SYNONYMS>
1-((p-Acetylphenyl)sulfonyl)-3-cyclohexylurea; 1-[(4-acetylbenzene)sulfonyl]-3-cyclohexylurea 4-acetyl-N-(cyclohexylcarbamoyl)benzenesulfonamide; Acetohexamid; Acetohexamida; Ac√©tohexamide; Acetohexamide; Acetohexamidum; N-(p-Acetylphenylsulfonyl)-N'-cyclohexylurea

$$$$
