
 OpenBabel10282417173D

 33 34  0  0  0  0  0  0  0  0999 V2000
    1.3777   -0.2124    0.0177 C   0  0  0  0  0  0  0  0  0  0  0  0
    0.4945   -1.2887    0.0269 C   0  0  0  0  0  0  0  0  0  0  0  0
    0.8867    1.0917    0.0072 C   0  0  0  0  0  0  0  0  0  0  0  0
   -0.8813   -1.0573    0.0108 C   0  0  0  0  0  0  0  0  0  0  0  0
   -0.4884    1.3224    0.0447 C   0  0  0  0  0  0  0  0  0  0  0  0
   -3.7713   -0.0474    0.7019 C   0  0  0  0  0  0  0  0  0  0  0  0
   -3.2792    1.1611   -1.3237 C   0  0  0  0  0  0  0  0  0  0  0  0
   -5.1314    0.0290    0.4030 C   0  0  0  0  0  0  0  0  0  0  0  0
   -4.6338    1.2024   -1.6476 C   0  0  0  0  0  0  0  0  0  0  0  0
   -7.6078    1.3552   -2.2661 C   0  0  0  0  0  0  0  0  0  0  0  0
   -8.3908    0.3307   -3.0719 C   0  0  0  0  0  0  0  0  0  0  0  0
   -1.3911    0.2533    0.0028 C   0  0  0  0  0  0  0  0  0  0  0  0
   -2.8257    0.4848   -0.1793 C   0  0  0  0  0  0  0  0  0  0  0  0
   -5.5708    0.6523   -0.7752 C   0  0  0  0  0  0  0  0  0  0  0  0
   -7.0372    0.7889   -0.9766 C   0  0  0  0  0  0  0  0  0  0  0  0
   -9.6269   -0.1638   -2.3746 C   0  0  0  0  0  0  0  0  0  0  0  0
   -7.7733    0.4998   -0.0325 O   0  0  0  0  0  0  0  0  0  0  0  0
  -10.7765    0.1520   -2.6548 O   0  0  0  0  0  0  0  0  0  0  0  0
   -9.3596   -1.0148   -1.3735 O   0  0  0  0  0  0  0  0  0  0  0  0
    2.4496   -0.3896    0.0228 H   0  0  0  0  0  0  0  0  0  0  0  0
    0.8749   -2.3067    0.0212 H   0  0  0  0  0  0  0  0  0  0  0  0
    1.5723    1.9325   -0.0430 H   0  0  0  0  0  0  0  0  0  0  0  0
   -1.5579   -1.9097   -0.0276 H   0  0  0  0  0  0  0  0  0  0  0  0
   -0.8591    2.3438    0.0900 H   0  0  0  0  0  0  0  0  0  0  0  0
   -3.4555   -0.5213    1.6288 H   0  0  0  0  0  0  0  0  0  0  0  0
   -2.5711    1.6463   -1.9935 H   0  0  0  0  0  0  0  0  0  0  0  0
   -5.8492   -0.4029    1.0992 H   0  0  0  0  0  0  0  0  0  0  0  0
   -4.9033    1.6778   -2.5823 H   0  0  0  0  0  0  0  0  0  0  0  0
   -8.2309    2.2127   -1.9863 H   0  0  0  0  0  0  0  0  0  0  0  0
   -6.8331    1.7653   -2.9146 H   0  0  0  0  0  0  0  0  0  0  0  0
   -8.7161    0.8052   -4.0068 H   0  0  0  0  0  0  0  0  0  0  0  0
   -7.7678   -0.5239   -3.3549 H   0  0  0  0  0  0  0  0  0  0  0  0
  -10.1418   -1.0164   -0.7839 H   0  0  0  0  0  0  0  0  0  0  0  0
  1 20  1  0  0  0  0
  2  1  2  0  0  0  0
  2 21  1  0  0  0  0
  3  1  1  0  0  0  0
  3 22  1  0  0  0  0
  4  2  1  0  0  0  0
  4 23  1  0  0  0  0
  5  3  2  0  0  0  0
  5 24  1  0  0  0  0
  6 25  1  0  0  0  0
  7 26  1  0  0  0  0
  8  6  1  0  0  0  0
  8 27  1  0  0  0  0
  9  7  2  0  0  0  0
  9 28  1  0  0  0  0
 10 29  1  0  0  0  0
 10 30  1  0  0  0  0
 11 10  1  0  0  0  0
 11 31  1  0  0  0  0
 11 32  1  0  0  0  0
 12  4  2  0  0  0  0
 12  5  1  0  0  0  0
 13  6  2  0  0  0  0
 13  7  1  0  0  0  0
 13 12  1  0  0  0  0
 14  8  2  0  0  0  0
 14  9  1  0  0  0  0
 15 10  1  0  0  0  0
 15 14  1  0  0  0  0
 16 11  1  0  0  0  0
 17 15  2  0  0  0  0
 18 16  2  0  0  0  0
 19 16  1  0  0  0  0
 19 33  1  0  0  0  0
M  END
>  <DRUGBANK_ID>
DB08981

>  <COMMON_NAME>
Fenbufen

>  <CAS_NUMBER>
36330-85-5

>  <UNII>
9815R1WR9B

>  <SYNONYMS>
3-(4-Biphenylylcarbonyl)propionic acid; 3-(4-Phenylbenzoyl)propionic acid; 4-(4-Biphenylyl)-4-oxobutyric acid; Fenbufén; Fenbufen; Fenbufène; Fenbufenum; gamma-oxo(1,1'-biphenyl)-4-butanoic acid

$$$$
