
 OpenBabel10282417193D

 68 70  0  0  1  0  0  0  0  0999 V2000
    1.5903    0.0479   -0.9881 C   0  0  0  0  0  0  0  0  0  0  0  0
   -0.4673   -3.5825   -3.2906 C   0  0  0  0  0  0  0  0  0  0  0  0
    1.2091    0.7484    1.5360 C   0  0  0  0  0  0  0  0  0  0  0  0
    0.0500    1.2463    0.7990 C   0  0  0  0  0  0  0  0  0  0  0  0
   -1.1076   -2.6706    3.2957 C   0  0  0  0  0  0  0  0  0  0  0  0
    2.6332   -0.0247    3.3090 C   0  0  0  0  0  0  0  0  0  0  0  0
   -0.9572    0.4178   -1.9029 C   0  0  0  0  0  0  0  0  0  0  0  0
    1.4946    0.9019    2.8417 C   0  0  0  0  0  0  0  0  0  0  0  0
   -0.8640    2.1847    1.4502 C   0  0  2  0  0  0  0  0  0  0  0  0
   -0.8416   -1.1623    3.4924 C   0  0  1  0  0  0  0  0  0  0  0  0
   -1.8329   -3.0288    1.9966 C   0  0  2  0  0  0  0  0  0  0  0  0
   -2.7198   -0.6818    1.9393 C   0  0  1  0  0  0  0  0  0  0  0  0
   -0.7054   -2.1910   -0.8185 C   0  0  2  0  0  0  0  0  0  0  0  0
   -2.0621   -0.2703    3.2884 C   0  0  2  0  0  0  0  0  0  0  0  0
   -2.9403   -2.1039    1.5204 C   0  0  1  0  0  0  0  0  0  0  0  0
    0.2606   -1.7679   -1.9499 C   0  0  2  0  0  0  0  0  0  0  0  0
   -0.6808    1.9658    2.9788 C   0  0  2  0  0  0  0  0  0  0  0  0
   -2.1090   -1.5465   -0.9094 C   0  0  2  0  0  0  0  0  0  0  0  0
    0.4955   -0.2324   -1.9715 C   0  0  2  0  0  0  0  0  0  0  0  0
    2.5070   -1.4679    2.9133 N   0  0  0  0  0  0  0  0  0  0  0  0
   -2.2407    1.9576    1.0029 N   0  0  0  0  0  0  0  0  0  0  0  0
   -0.2235   -0.9344    4.8059 N   0  0  0  0  0  0  0  0  0  0  0  0
   -2.0060   -4.4125    1.5276 N   0  0  0  0  0  0  0  0  0  0  0  0
   -0.2216   -2.1547   -3.2637 N   0  0  0  0  0  0  0  0  0  0  0  0
   -3.9005    0.0503    1.6110 O   0  0  0  0  0  0  0  0  0  0  0  0
   -0.0104   -1.8403    0.3715 O   0  0  0  0  0  0  0  0  0  0  0  0
    1.2096    0.3099   -3.0771 O   0  0  0  0  0  0  0  0  0  0  0  0
   -1.9787   -0.1132   -0.9933 O   0  0  0  0  0  0  0  0  0  0  0  0
    0.6193    1.6211    3.5980 O   0  0  0  0  0  0  0  0  0  0  0  0
   -1.7959    1.1683    3.5222 O   0  0  0  0  0  0  0  0  0  0  0  0
   -3.1018   -2.1267    0.0431 O   0  0  0  0  0  0  0  0  0  0  0  0
   -0.6611    3.1849    1.0460 H   0  0  0  0  0  0  0  0  0  0  0  0
   -0.1260   -0.8843    2.7306 H   0  0  0  0  0  0  0  0  0  0  0  0
   -1.0435   -2.8582    1.3556 H   0  0  0  0  0  0  0  0  0  0  0  0
   -1.9756   -0.4304    1.2196 H   0  0  0  0  0  0  0  0  0  0  0  0
   -0.8632   -3.2702   -0.7648 H   0  0  0  0  0  0  0  0  0  0  0  0
   -2.8030   -0.4881    4.0624 H   0  0  0  0  0  0  0  0  0  0  0  0
   -3.8866   -2.4517    1.9619 H   0  0  0  0  0  0  0  0  0  0  0  0
    1.2164   -2.2694   -1.7259 H   0  0  0  0  0  0  0  0  0  0  0  0
   -0.8210    3.0031    3.3123 H   0  0  0  0  0  0  0  0  0  0  0  0
   -2.5690   -1.8219   -1.8659 H   0  0  0  0  0  0  0  0  0  0  0  0
    1.2389   -0.5268   -0.1864 H   0  0  0  0  0  0  0  0  0  0  0  0
    1.7750    1.1079   -0.8004 H   0  0  0  0  0  0  0  0  0  0  0  0
    2.6030   -0.3544   -1.0546 H   0  0  0  0  0  0  0  0  0  0  0  0
   -1.2849   -3.8844   -2.6272 H   0  0  0  0  0  0  0  0  0  0  0  0
   -0.7652   -3.8378   -4.3003 H   0  0  0  0  0  0  0  0  0  0  0  0
    0.4378   -4.1268   -3.0049 H   0  0  0  0  0  0  0  0  0  0  0  0
    1.8514   -0.0485    1.2114 H   0  0  0  0  0  0  0  0  0  0  0  0
   -0.4882    0.3542    0.5300 H   0  0  0  0  0  0  0  0  0  0  0  0
    0.2904    1.7787   -0.1135 H   0  0  0  0  0  0  0  0  0  0  0  0
   -0.1139   -3.1463    3.2592 H   0  0  0  0  0  0  0  0  0  0  0  0
   -1.6594   -3.0561    4.1449 H   0  0  0  0  0  0  0  0  0  0  0  0
    3.5379    0.2912    2.7651 H   0  0  0  0  0  0  0  0  0  0  0  0
    2.8131    0.0529    4.3759 H   0  0  0  0  0  0  0  0  0  0  0  0
   -0.9023    1.4976   -1.7192 H   0  0  0  0  0  0  0  0  0  0  0  0
   -1.3829    0.3722   -2.9099 H   0  0  0  0  0  0  0  0  0  0  0  0
    3.3143   -1.9902    3.2546 H   0  0  0  0  0  0  0  0  0  0  0  0
    1.7063   -1.8618    3.4106 H   0  0  0  0  0  0  0  0  0  0  0  0
   -2.3456    1.3176    0.1926 H   0  0  0  0  0  0  0  0  0  0  0  0
   -2.5423    1.3071    1.7270 H   0  0  0  0  0  0  0  0  0  0  0  0
   -0.0512    0.0797    4.8871 H   0  0  0  0  0  0  0  0  0  0  0  0
   -0.9195   -1.1218    5.5245 H   0  0  0  0  0  0  0  0  0  0  0  0
   -1.1083   -4.6916    1.1072 H   0  0  0  0  0  0  0  0  0  0  0  0
   -2.6000   -4.3261    0.6890 H   0  0  0  0  0  0  0  0  0  0  0  0
   -1.0966   -1.6616   -3.4450 H   0  0  0  0  0  0  0  0  0  0  0  0
   -4.5365    0.0349    2.3405 H   0  0  0  0  0  0  0  0  0  0  0  0
    0.8128   -2.3586    0.4495 H   0  0  0  0  0  0  0  0  0  0  0  0
    0.9909   -0.2302   -3.8411 H   0  0  0  0  0  0  0  0  0  0  0  0
  1 42  1  0  0  0  0
  1 43  1  0  0  0  0
  1 44  1  0  0  0  0
  2 45  1  0  0  0  0
  2 46  1  0  0  0  0
  2 47  1  0  0  0  0
  3 48  1  0  0  0  0
  4  3  1  0  0  0  0
  4 49  1  0  0  0  0
  4 50  1  0  0  0  0
  5 51  1  0  0  0  0
  5 52  1  0  0  0  0
  6 53  1  0  0  0  0
  6 54  1  0  0  0  0
  7 55  1  0  0  0  0
  7 56  1  0  0  0  0
  8  3  2  0  0  0  0
  8  6  1  0  0  0  0
  9  4  1  0  0  0  0
  9 21  1  0  0  0  0
  9 32  1  6  0  0  0
 10  5  1  0  0  0  0
 10 22  1  0  0  0  0
 10 33  1  6  0  0  0
 11  5  1  0  0  0  0
 11 34  1  6  0  0  0
 11 23  1  0  0  0  0
 12 25  1  0  0  0  0
 12 35  1  6  0  0  0
 13 36  1  6  0  0  0
 13 26  1  0  0  0  0
 14 10  1  0  0  0  0
 14 12  1  0  0  0  0
 14 37  1  1  0  0  0
 14 30  1  0  0  0  0
 15 11  1  0  0  0  0
 15 12  1  0  0  0  0
 15 31  1  0  0  0  0
 15 38  1  1  0  0  0
 16 13  1  0  0  0  0
 16 24  1  0  0  0  0
 16 39  1  1  0  0  0
 17  9  1  0  0  0  0
 17 30  1  0  0  0  0
 17 40  1  1  0  0  0
 18 13  1  0  0  0  0
 18 41  1  6  0  0  0
 18 31  1  0  0  0  0
 19  1  1  0  0  0  0
 19  7  1  0  0  0  0
 19 16  1  0  0  0  0
 19 27  1  6  0  0  0
 20  6  1  0  0  0  0
 20 57  1  0  0  0  0
 20 58  1  0  0  0  0
 21 59  1  0  0  0  0
 21 60  1  0  0  0  0
 22 61  1  0  0  0  0
 22 62  1  0  0  0  0
 23 63  1  0  0  0  0
 23 64  1  0  0  0  0
 24  2  1  0  0  0  0
 24 65  1  0  0  0  0
 25 66  1  0  0  0  0
 26 67  1  0  0  0  0
 27 68  1  0  0  0  0
 28  7  1  0  0  0  0
 28 18  1  0  0  0  0
 29  8  1  0  0  0  0
 29 17  1  0  0  0  0
M  END
>  <DRUGBANK_ID>
DB12604

>  <COMMON_NAME>
Sisomicin

>  <CAS_NUMBER>
32385-11-8

>  <UNII>
X55XSL74YQ

>  <SYNONYMS>
Sisomicin

$$$$
