
 OpenBabel10282417183D

 54 52  0  0  0  0  0  0  0  0999 V2000
   -1.0538   -0.9245    2.0900 C   0  0  0  0  0  0  0  0  0  0  0  0
    4.0933   -1.7658   -0.5255 C   0  0  0  0  0  0  0  0  0  0  0  0
    4.6500   -3.4178   -0.3636 C   0  0  3  0  0  0  0  0  0  0  0  0
   -0.0682   -1.6025    1.1753 C   0  0  2  0  0  0  0  0  0  0  0  0
    3.6674   -4.8033    0.1199 C   0  0  3  0  0  0  0  0  0  0  0  0
   -0.6480   -2.2958   -0.0673 C   0  0  2  0  0  0  0  0  0  0  0  0
    2.3853   -5.4410   -0.8426 C   0  0  3  0  0  0  0  0  0  0  0  0
    0.4586   -2.7454   -0.9152 C   0  0  1  0  0  0  0  0  0  0  0  0
    2.6758   -5.8304   -2.2715 C   0  0  3  0  0  0  0  0  0  0  0  0
    3.4971   -7.0585   -2.2162 C   0  0  3  0  0  0  0  0  0  0  0  0
    1.6031   -3.0838   -0.0361 C   0  0  2  0  0  0  0  0  0  0  0  0
    2.6002   -8.1067   -1.4937 C   0  0  0  0  0  0  0  0  0  0  0  0
    2.2559   -2.2058    1.0329 C   0  0  1  0  0  0  0  0  0  0  0  0
   -0.5597   -0.9855    3.4178 O   0  0  0  0  0  0  0  0  0  0  0  0
    5.3158   -3.7007   -1.6031 O   0  0  0  0  0  0  0  0  0  0  0  0
    4.5579   -5.8103    0.5930 O   0  0  0  0  0  0  0  0  0  0  0  0
   -1.2461   -1.2360   -0.8679 O   0  0  0  0  0  0  0  0  0  0  0  0
    1.1947   -5.9097   -0.1508 O   0  0  0  0  0  0  0  0  0  0  0  0
   -0.0139   -3.7293   -1.8234 O   0  0  0  0  0  0  0  0  0  0  0  0
    1.5109   -5.8443   -3.1258 O   0  0  0  0  0  0  0  0  0  0  0  0
    3.8351   -7.3550   -3.5664 O   0  0  0  0  0  0  0  0  0  0  0  0
    2.5597   -3.1127   -1.0594 O   0  0  0  0  0  0  0  0  0  0  0  0
    1.9842   -8.8833   -2.2143 O   0  0  0  0  0  0  0  0  0  0  0  0
    2.4653   -7.9062   -0.2123 O   0  5  0  0  0  0  0  0  0  0  0  0
    3.1758   -1.1270    0.5069 O   0  0  0  0  0  0  0  0  0  0  0  0
    1.2376   -1.6273    1.8090 O   0  0  0  0  0  0  0  0  0  0  0  0
    2.9807    1.3093    0.9769 Fe  0  3  0  0  0  0  0  0  0  0  0  0
    1.7092    0.6380   -0.5649 O   0  0  0  0  0  0  0  0  0  0  0  0
    0.9599    0.9953    0.6417 O   0  0  0  0  0  0  0  0  0  0  0  0
    5.4539   -3.3475    0.3800 H   0  0  0  0  0  0  0  0  0  0  0  0
    0.2459   -0.8358    0.5285 H   0  0  0  0  0  0  0  0  0  0  0  0
    3.2132   -4.5471    1.0813 H   0  0  0  0  0  0  0  0  0  0  0  0
   -1.3441   -3.1164    0.1312 H   0  0  0  0  0  0  0  0  0  0  0  0
    1.7583   -4.7216   -1.2616 H   0  0  0  0  0  0  0  0  0  0  0  0
    0.8468   -1.9874   -1.6124 H   0  0  0  0  0  0  0  0  0  0  0  0
    3.2394   -5.0292   -2.7623 H   0  0  0  0  0  0  0  0  0  0  0  0
    4.4104   -6.8296   -1.6845 H   0  0  0  0  0  0  0  0  0  0  0  0
    1.3181   -3.9608    0.5637 H   0  0  0  0  0  0  0  0  0  0  0  0
    2.9006   -2.7459    1.7415 H   0  0  0  0  0  0  0  0  0  0  0  0
   -2.0631   -1.3166    1.9734 H   0  0  0  0  0  0  0  0  0  0  0  0
   -1.0852    0.1445    1.8734 H   0  0  0  0  0  0  0  0  0  0  0  0
    3.5425   -1.5911   -1.4809 H   0  0  0  0  0  0  0  0  0  0  0  0
    4.9004   -1.0765   -0.8055 H   0  0  0  0  0  0  0  0  0  0  0  0
    0.4071   -1.0916    3.3886 H   0  0  0  0  0  0  0  0  0  0  0  0
    4.6781   -3.9960   -2.2758 H   0  0  0  0  0  0  0  0  0  0  0  0
    5.0494   -6.1937   -0.1475 H   0  0  0  0  0  0  0  0  0  0  0  0
   -0.8978   -1.2853   -1.7896 H   0  0  0  0  0  0  0  0  0  0  0  0
    1.4399   -6.8013    0.2011 H   0  0  0  0  0  0  0  0  0  0  0  0
   -0.1382   -4.6040   -1.3800 H   0  0  0  0  0  0  0  0  0  0  0  0
    0.8004   -6.3456   -2.6784 H   0  0  0  0  0  0  0  0  0  0  0  0
    2.9621   -7.5365   -3.9700 H   0  0  0  0  0  0  0  0  0  0  0  0
    2.3155   -3.3284   -1.9820 H   0  0  0  0  0  0  0  0  0  0  0  0
    1.5811   -0.3586   -0.6324 H   0  0  0  0  0  0  0  0  0  0  0  0
    0.0065    0.8259    0.3206 H   0  0  0  0  0  0  0  0  0  0  0  0
  1 40  1  0  0  0  0
  1 41  1  0  0  0  0
  2 42  1  0  0  0  0
  2 43  1  0  0  0  0
  3  2  1  0  0  0  0
  4 26  1  0  0  0  0
  4 31  1  6  0  0  0
  4  1  1  0  0  0  0
  5  3  1  0  0  0  0
  6  4  1  0  0  0  0
  6  8  1  0  0  0  0
  6 17  1  0  0  0  0
  6 33  1  1  0  0  0
  7  5  1  0  0  0  0
  8 11  1  0  0  0  0
  8 19  1  0  0  0  0
  8 35  1  6  0  0  0
  9  7  1  0  0  0  0
 10  9  1  0  0  0  0
 11 13  1  0  0  0  0
 11 22  1  0  0  0  0
 11 38  1  1  0  0  0
 12 10  1  0  0  0  0
 13 26  1  0  0  0  0
 13 39  1  1  0  0  0
 13 25  1  0  0  0  0
 14  1  1  0  0  0  0
 14 44  1  0  0  0  0
 15  3  1  0  0  0  0
 15 45  1  0  0  0  0
 16  5  1  0  0  0  0
 16 46  1  0  0  0  0
 17 47  1  0  0  0  0
 18  7  1  0  0  0  0
 18 48  1  0  0  0  0
 19 49  1  0  0  0  0
 20  9  1  0  0  0  0
 20 50  1  0  0  0  0
 21 10  1  0  0  0  0
 21 51  1  0  0  0  0
 22 52  1  0  0  0  0
 23 12  2  0  0  0  0
 24 12  1  0  0  0  0
 25  2  1  0  0  0  0
 28 53  1  0  0  0  0
 29 28  1  0  0  0  0
 29 54  1  0  0  0  0
 30  3  1  0  0  0  0
 32  5  1  0  0  0  0
 34  7  1  0  0  0  0
 36  9  1  0  0  0  0
 37 10  1  0  0  0  0
M  CHG  2  24  -1  27   1
M  END
>  <DRUGBANK_ID>
DB11417

>  <COMMON_NAME>
Gleptoferron

>  <CAS_NUMBER>
57680-55-4

>  <UNII>
898723IQHQ

>  <SYNONYMS>
Gleptoferron; Gleptoferronum

$$$$
