
 OpenBabel10282417153D

 67 68  0  0  1  0  0  0  0  0999 V2000
    0.4994    3.1232   -5.8693 C   0  0  0  0  0  0  0  0  0  0  0  0
   -0.4097    2.9180   -4.6876 C   0  0  0  0  0  0  0  0  0  0  0  0
   -1.3634    4.1071   -4.5617 C   0  0  0  0  0  0  0  0  0  0  0  0
   -0.9504    1.4673   -4.7644 C   0  0  0  0  0  0  0  0  0  0  0  0
   -0.4299    0.5474   -4.0539 O   0  0  0  0  0  0  0  0  0  0  0  0
   -1.9899    1.2262   -5.6710 O   0  0  0  0  0  0  0  0  0  0  0  0
   -2.7617   -0.0083   -5.7473 C   0  0  0  0  0  0  0  0  0  0  0  0
   -3.6700   -0.4385   -4.7303 C   0  0  0  0  0  0  0  0  0  0  0  0
   -4.2814   -1.6646   -4.7788 C   0  0  0  0  0  0  0  0  0  0  0  0
   -4.2934   -2.3669   -5.9453 C   0  0  0  0  0  0  0  0  0  0  0  0
   -3.6540   -1.8137   -7.0659 C   0  0  0  0  0  0  0  0  0  0  0  0
   -2.8159   -0.6798   -6.9592 C   0  0  0  0  0  0  0  0  0  0  0  0
   -5.0541   -3.6481   -5.8897 C   0  0  0  0  0  0  0  0  0  0  0  0
   -6.2237   -3.5370   -6.6716 O   0  0  0  0  0  0  0  0  0  0  0  0
   -3.9919    0.2928   -3.4669 C   0  0  2  0  0  0  0  0  0  0  0  0
   -4.1881   -0.4489   -2.0182 C   0  0  0  0  0  0  0  0  0  0  0  0
   -3.4269    0.0285   -0.6076 C   0  0  0  0  0  0  0  0  0  0  0  0
   -3.1855    1.4877   -0.2497 N   0  0  0  0  0  0  0  0  0  0  0  0
   -3.1787    1.9055    1.1307 C   0  0  0  0  0  0  0  0  0  0  0  0
   -1.7717    1.6030    1.6080 C   0  0  0  0  0  0  0  0  0  0  0  0
   -3.5136    3.4212    1.1671 C   0  0  0  0  0  0  0  0  0  0  0  0
   -2.1124    2.2620   -0.9973 C   0  0  0  0  0  0  0  0  0  0  0  0
   -0.6374    1.9144   -1.1160 C   0  0  0  0  0  0  0  0  0  0  0  0
   -2.4045    1.8083   -2.3029 C   0  0  0  0  0  0  0  0  0  0  0  0
   -4.7265    1.8343   -3.6725 C   0  0  0  0  0  0  0  0  0  0  0  0
   -4.9571    2.7670   -2.5523 C   0  0  0  0  0  0  0  0  0  0  0  0
   -4.6307    4.1393   -2.6256 C   0  0  0  0  0  0  0  0  0  0  0  0
   -4.5708    4.7125   -3.8676 C   0  0  0  0  0  0  0  0  0  0  0  0
   -4.6430    3.8782   -4.9942 C   0  0  0  0  0  0  0  0  0  0  0  0
   -4.6519    2.4624   -4.9138 C   0  0  0  0  0  0  0  0  0  0  0  0
   -0.0876    3.0946   -6.7885 H   0  0  0  0  0  0  0  0  0  0  0  0
    1.2457    2.3257   -5.8904 H   0  0  0  0  0  0  0  0  0  0  0  0
    1.0157    4.0851   -5.7946 H   0  0  0  0  0  0  0  0  0  0  0  0
    0.2372    2.9918   -3.8030 H   0  0  0  0  0  0  0  0  0  0  0  0
   -2.0657    4.1287   -5.3924 H   0  0  0  0  0  0  0  0  0  0  0  0
   -1.9072    4.1247   -3.6167 H   0  0  0  0  0  0  0  0  0  0  0  0
   -0.8292    5.0652   -4.5478 H   0  0  0  0  0  0  0  0  0  0  0  0
   -4.8059   -2.0368   -3.9050 H   0  0  0  0  0  0  0  0  0  0  0  0
   -3.8295   -2.2667   -8.0359 H   0  0  0  0  0  0  0  0  0  0  0  0
   -2.2756   -0.3131   -7.8275 H   0  0  0  0  0  0  0  0  0  0  0  0
   -4.4112   -4.4681   -6.2068 H   0  0  0  0  0  0  0  0  0  0  0  0
   -5.3701   -3.8723   -4.8573 H   0  0  0  0  0  0  0  0  0  0  0  0
   -6.6944   -2.7495   -6.3429 H   0  0  0  0  0  0  0  0  0  0  0  0
   -2.9116    0.2650   -3.4439 H   0  0  0  0  0  0  0  0  0  0  0  0
   -5.2658   -0.4437   -1.8684 H   0  0  0  0  0  0  0  0  0  0  0  0
   -3.8793   -1.5104   -2.1029 H   0  0  0  0  0  0  0  0  0  0  0  0
   -4.0454   -0.4450    0.1726 H   0  0  0  0  0  0  0  0  0  0  0  0
   -2.4632   -0.4988   -0.5534 H   0  0  0  0  0  0  0  0  0  0  0  0
   -3.9370    1.3742    1.7156 H   0  0  0  0  0  0  0  0  0  0  0  0
   -1.0731    2.2967    1.1464 H   0  0  0  0  0  0  0  0  0  0  0  0
   -1.6275    1.7592    2.6659 H   0  0  0  0  0  0  0  0  0  0  0  0
   -1.4753    0.5833    1.3200 H   0  0  0  0  0  0  0  0  0  0  0  0
   -4.5498    3.6118    0.8576 H   0  0  0  0  0  0  0  0  0  0  0  0
   -3.3292    3.8381    2.1540 H   0  0  0  0  0  0  0  0  0  0  0  0
   -2.9047    4.0487    0.5075 H   0  0  0  0  0  0  0  0  0  0  0  0
   -2.2998    3.3364   -1.0514 H   0  0  0  0  0  0  0  0  0  0  0  0
   -0.4891    0.8246   -1.1440 H   0  0  0  0  0  0  0  0  0  0  0  0
   -0.2977    2.2867   -2.0875 H   0  0  0  0  0  0  0  0  0  0  0  0
    0.0070    2.3942   -0.4089 H   0  0  0  0  0  0  0  0  0  0  0  0
   -3.4113    1.6143   -2.1660 H   0  0  0  0  0  0  0  0  0  0  0  0
   -2.3415    2.4251   -3.1654 H   0  0  0  0  0  0  0  0  0  0  0  0
   -1.9165    0.8480   -2.3803 H   0  0  0  0  0  0  0  0  0  0  0  0
   -5.0239    2.4316   -1.5146 H   0  0  0  0  0  0  0  0  0  0  0  0
   -4.3316    4.7127   -1.7368 H   0  0  0  0  0  0  0  0  0  0  0  0
   -4.4494    5.7902   -3.9478 H   0  0  0  0  0  0  0  0  0  0  0  0
   -4.5818    4.3488   -5.9688 H   0  0  0  0  0  0  0  0  0  0  0  0
   -4.5256    1.8892   -5.8270 H   0  0  0  0  0  0  0  0  0  0  0  0
  1  2  1  0  0  0  0
  1 31  1  0  0  0  0
  1 32  1  0  0  0  0
  1 33  1  0  0  0  0
  2  3  1  0  0  0  0
  2  4  1  0  0  0  0
  2 34  1  0  0  0  0
  3 35  1  0  0  0  0
  3 36  1  0  0  0  0
  3 37  1  0  0  0  0
  4  5  2  0  0  0  0
  4  6  1  0  0  0  0
  6  7  1  0  0  0  0
  7  8  2  0  0  0  0
  7 12  1  0  0  0  0
  8  9  1  0  0  0  0
  9 10  2  0  0  0  0
  9 38  1  0  0  0  0
 10 11  1  0  0  0  0
 10 13  1  0  0  0  0
 11 12  2  0  0  0  0
 11 39  1  0  0  0  0
 12 40  1  0  0  0  0
 13 14  1  0  0  0  0
 13 41  1  0  0  0  0
 13 42  1  0  0  0  0
 14 43  1  0  0  0  0
 15 25  1  0  0  0  0
 15 44  1  1  0  0  0
 15 16  1  0  0  0  0
 15  8  1  0  0  0  0
 16 17  1  0  0  0  0
 16 45  1  0  0  0  0
 16 46  1  0  0  0  0
 17 18  1  0  0  0  0
 17 47  1  0  0  0  0
 17 48  1  0  0  0  0
 18 19  1  0  0  0  0
 18 22  1  0  0  0  0
 19 20  1  0  0  0  0
 19 21  1  0  0  0  0
 19 49  1  0  0  0  0
 20 50  1  0  0  0  0
 20 51  1  0  0  0  0
 20 52  1  0  0  0  0
 21 53  1  0  0  0  0
 21 54  1  0  0  0  0
 21 55  1  0  0  0  0
 22 23  1  0  0  0  0
 22 24  1  0  0  0  0
 22 56  1  0  0  0  0
 23 57  1  0  0  0  0
 23 58  1  0  0  0  0
 23 59  1  0  0  0  0
 24 60  1  0  0  0  0
 24 61  1  0  0  0  0
 24 62  1  0  0  0  0
 25 26  2  0  0  0  0
 25 30  1  0  0  0  0
 26 27  1  0  0  0  0
 26 63  1  0  0  0  0
 27 28  2  0  0  0  0
 27 64  1  0  0  0  0
 28 29  1  0  0  0  0
 28 65  1  0  0  0  0
 29 30  2  0  0  0  0
 29 66  1  0  0  0  0
 30 67  1  0  0  0  0
M  END
>  <DRUGBANK_ID>
DB06702

>  <COMMON_NAME>
Fesoterodine

>  <CAS_NUMBER>
286930-02-7

>  <UNII>
621G617227

>  <SYNONYMS>
FESO; Fesoterodina; Fesoterodine

$$$$
