1453
 OpenBabel10282417113D

 54 56  0  0  1  0  0  0  0  0999 V2000
    0.9083   -0.0189    0.1037 O   0  0  0  0  0  0  0  0  0  0  0  0
    6.4277   -2.2879    0.2476 O   0  0  0  0  0  0  0  0  0  0  0  0
    2.5259   -2.1770   -1.1222 N   0  0  0  0  0  0  0  0  0  0  0  0
    6.6495   -2.2423   -2.0593 N   0  0  0  0  0  0  0  0  0  0  0  0
    5.1885   -2.2023   -2.2446 C   0  0  3  0  0  0  0  0  0  0  0  0
    4.5258   -3.4761   -1.6973 C   0  0  0  0  0  0  0  0  0  0  0  0
    4.5639   -0.9346   -1.6616 C   0  0  0  0  0  0  0  0  0  0  0  0
    3.0088   -3.3973   -1.7738 C   0  0  0  0  0  0  0  0  0  0  0  0
    3.0544   -0.9854   -1.7942 C   0  0  0  0  0  0  0  0  0  0  0  0
    1.0520   -2.1558   -1.0630 C   0  0  0  0  0  0  0  0  0  0  0  0
    0.5346   -1.3977    0.1866 C   0  0  3  0  0  0  0  0  0  0  0  0
    7.4331   -2.1891   -3.2444 C   0  0  0  0  0  0  0  0  0  0  0  0
    7.1667   -2.2772   -0.7556 C   0  0  0  0  0  0  0  0  0  0  0  0
    0.9783   -2.0004    1.5117 C   0  0  0  0  0  0  0  0  0  0  0  0
    8.6587   -2.2154   -0.4806 C   0  0  0  0  0  0  0  0  0  0  0  0
    7.4188   -1.0666   -4.0742 C   0  0  0  0  0  0  0  0  0  0  0  0
    8.2514   -3.2568   -3.5927 C   0  0  0  0  0  0  0  0  0  0  0  0
    1.3125   -1.1797    2.6007 C   0  0  0  0  0  0  0  0  0  0  0  0
    0.9583   -3.3910    1.7093 C   0  0  0  0  0  0  0  0  0  0  0  0
    9.4269   -3.4667   -0.8345 C   0  0  0  0  0  0  0  0  0  0  0  0
    8.3554   -0.9509   -5.1093 C   0  0  0  0  0  0  0  0  0  0  0  0
    9.2903   -3.0784   -4.5069 C   0  0  0  0  0  0  0  0  0  0  0  0
    9.3337   -1.9285   -5.2819 C   0  0  0  0  0  0  0  0  0  0  0  0
    1.5727   -1.7294    3.8539 C   0  0  0  0  0  0  0  0  0  0  0  0
    1.1668   -3.9360    2.9733 C   0  0  0  0  0  0  0  0  0  0  0  0
    1.4796   -3.1051    4.0436 C   0  0  0  0  0  0  0  0  0  0  0  0
    1.8530   -0.0184    0.3466 H   0  0  0  0  0  0  0  0  0  0  0  0
    4.9794   -2.1887   -3.3244 H   0  0  0  0  0  0  0  0  0  0  0  0
    4.8834   -4.3476   -2.2586 H   0  0  0  0  0  0  0  0  0  0  0  0
    4.8032   -3.6590   -0.6540 H   0  0  0  0  0  0  0  0  0  0  0  0
    4.8191   -0.7977   -0.6046 H   0  0  0  0  0  0  0  0  0  0  0  0
    4.9436   -0.0463   -2.1788 H   0  0  0  0  0  0  0  0  0  0  0  0
    2.6766   -3.4354   -2.8173 H   0  0  0  0  0  0  0  0  0  0  0  0
    2.6092   -4.2859   -1.2679 H   0  0  0  0  0  0  0  0  0  0  0  0
    2.6881   -0.0557   -1.3603 H   0  0  0  0  0  0  0  0  0  0  0  0
    2.7498   -0.9702   -2.8460 H   0  0  0  0  0  0  0  0  0  0  0  0
    0.6557   -3.1785   -1.0295 H   0  0  0  0  0  0  0  0  0  0  0  0
    0.6440   -1.7127   -1.9789 H   0  0  0  0  0  0  0  0  0  0  0  0
   -0.5606   -1.4145    0.1723 H   0  0  0  0  0  0  0  0  0  0  0  0
    9.0805   -1.3165   -0.9373 H   0  0  0  0  0  0  0  0  0  0  0  0
    8.7663   -2.0866    0.6072 H   0  0  0  0  0  0  0  0  0  0  0  0
    6.7178   -0.2559   -3.9031 H   0  0  0  0  0  0  0  0  0  0  0  0
    8.1559   -4.2077   -3.0733 H   0  0  0  0  0  0  0  0  0  0  0  0
    1.3597   -0.0986    2.4890 H   0  0  0  0  0  0  0  0  0  0  0  0
    0.7686   -4.0759    0.8881 H   0  0  0  0  0  0  0  0  0  0  0  0
    9.6433   -3.4989   -1.8887 H   0  0  0  0  0  0  0  0  0  0  0  0
   10.4243   -3.4765   -0.3952 H   0  0  0  0  0  0  0  0  0  0  0  0
    8.8801   -4.3752   -0.5630 H   0  0  0  0  0  0  0  0  0  0  0  0
    8.3571   -0.0720   -5.7479 H   0  0  0  0  0  0  0  0  0  0  0  0
   10.0856   -3.8177   -4.5706 H   0  0  0  0  0  0  0  0  0  0  0  0
   10.1198   -1.8049   -6.0221 H   0  0  0  0  0  0  0  0  0  0  0  0
    1.8197   -1.0759    4.6851 H   0  0  0  0  0  0  0  0  0  0  0  0
    1.0673   -5.0076    3.1187 H   0  0  0  0  0  0  0  0  0  0  0  0
    1.6525   -3.5311    5.0263 H   0  0  0  0  0  0  0  0  0  0  0  0
  1 11  1  0  0  0  0
  1 27  1  0  0  0  0
  2 13  2  0  0  0  0
  3  8  1  0  0  0  0
  3  9  1  0  0  0  0
  3 10  1  0  0  0  0
  4  5  1  0  0  0  0
  4 12  1  0  0  0  0
  4 13  1  0  0  0  0
  5  6  1  0  0  0  0
  5  7  1  0  0  0  0
  5 28  1  0  0  0  0
  6  8  1  0  0  0  0
  6 29  1  0  0  0  0
  6 30  1  0  0  0  0
  7  9  1  0  0  0  0
  7 31  1  0  0  0  0
  7 32  1  0  0  0  0
  8 33  1  0  0  0  0
  8 34  1  0  0  0  0
  9 35  1  0  0  0  0
  9 36  1  0  0  0  0
 10 11  1  0  0  0  0
 10 37  1  0  0  0  0
 10 38  1  0  0  0  0
 11 14  1  0  0  0  0
 11 39  1  0  0  0  0
 12 16  2  0  0  0  0
 12 17  1  0  0  0  0
 13 15  1  0  0  0  0
 14 18  2  0  0  0  0
 14 19  1  0  0  0  0
 15 20  1  0  0  0  0
 15 40  1  0  0  0  0
 15 41  1  0  0  0  0
 16 21  1  0  0  0  0
 16 42  1  0  0  0  0
 17 22  2  0  0  0  0
 17 43  1  0  0  0  0
 18 24  1  0  0  0  0
 18 44  1  0  0  0  0
 19 25  2  0  0  0  0
 19 45  1  0  0  0  0
 20 46  1  0  0  0  0
 20 47  1  0  0  0  0
 20 48  1  0  0  0  0
 21 23  2  0  0  0  0
 21 49  1  0  0  0  0
 22 23  1  0  0  0  0
 22 50  1  0  0  0  0
 23 51  1  0  0  0  0
 24 26  2  0  0  0  0
 24 52  1  0  0  0  0
 25 26  1  0  0  0  0
 25 53  1  0  0  0  0
 26 54  1  0  0  0  0
M  END
>  <DRUGBANK_ID>
DB01453

>  <COMMON_NAME>
Beta-hydroxyfentanyl

>  <CAS_NUMBER>
78995-10-5

>  <UNII>
6Q4XAW26T4

$$$$
