
 OpenBabel10282417153D

 36 35  0  0  0  0  0  0  0  0999 V2000
    1.1703   -0.4295    0.5280 O   0  0  0  0  0  0  0  0  0  0  0  0
    2.7903   -0.8277   -0.9777 O   0  0  0  0  0  0  0  0  0  0  0  0
    0.9792    3.8731    1.0078 O   0  0  0  0  0  0  0  0  0  0  0  0
    0.3833    2.5684   -1.9792 N   0  0  0  0  0  0  0  0  0  0  0  0
    1.9330    0.2769    3.2232 C   0  0  0  0  0  0  0  0  0  0  0  0
    2.3157    1.7644    3.0438 C   0  0  0  0  0  0  0  0  0  0  0  0
    0.4740   -0.0117    2.8943 C   0  0  0  0  0  0  0  0  0  0  0  0
    1.6169    2.8479    3.8095 C   0  0  0  0  0  0  0  0  0  0  0  0
    0.2382    0.2570    1.4378 C   0  0  0  0  0  0  0  0  0  0  0  0
    1.9890    2.5797    5.2249 C   0  0  0  0  0  0  0  0  0  0  0  0
    3.2081    1.0430    0.3945 C   0  0  0  0  0  0  0  0  0  0  0  0
    2.7870    2.5042    0.1203 C   0  0  0  0  0  0  0  0  0  0  0  0
    2.3426   -0.0943   -0.0684 C   0  0  0  0  0  0  0  0  0  0  0  0
    1.3097    2.9660    0.2302 C   0  0  0  0  0  0  0  0  0  0  0  0
    0.2253    2.2826   -0.5864 C   0  0  0  0  0  0  0  0  0  0  0  0
   -0.2748    1.9561   -2.4610 H   0  0  0  0  0  0  0  0  0  0  0  0
    0.0910    3.5286   -2.1179 H   0  0  0  0  0  0  0  0  0  0  0  0
    2.2219   -0.0856    4.2030 H   0  0  0  0  0  0  0  0  0  0  0  0
    2.5080   -0.3608    2.5429 H   0  0  0  0  0  0  0  0  0  0  0  0
    3.4021    1.9316    3.0767 H   0  0  0  0  0  0  0  0  0  0  0  0
    1.9958    2.0162    2.0721 H   0  0  0  0  0  0  0  0  0  0  0  0
   -0.1903    0.6420    3.4721 H   0  0  0  0  0  0  0  0  0  0  0  0
    0.2158   -1.0504    3.0911 H   0  0  0  0  0  0  0  0  0  0  0  0
    1.9726    3.8369    3.4748 H   0  0  0  0  0  0  0  0  0  0  0  0
    0.5389    2.8305    3.6171 H   0  0  0  0  0  0  0  0  0  0  0  0
    0.3024    1.3274    1.3940 H   0  0  0  0  0  0  0  0  0  0  0  0
   -0.7883    0.0375    1.1088 H   0  0  0  0  0  0  0  0  0  0  0  0
    3.0766    2.6761    5.3209 H   0  0  0  0  0  0  0  0  0  0  0  0
    1.4755    3.2600    5.8917 H   0  0  0  0  0  0  0  0  0  0  0  0
    1.7145    1.5522    5.4708 H   0  0  0  0  0  0  0  0  0  0  0  0
    3.5052    0.8223    1.4157 H   0  0  0  0  0  0  0  0  0  0  0  0
    4.2256    0.9085   -0.0071 H   0  0  0  0  0  0  0  0  0  0  0  0
    3.3506    3.1333    0.8361 H   0  0  0  0  0  0  0  0  0  0  0  0
    3.1432    2.8041   -0.8615 H   0  0  0  0  0  0  0  0  0  0  0  0
    0.2761    1.2098   -0.5663 H   0  0  0  0  0  0  0  0  0  0  0  0
   -0.7654    2.5278   -0.1672 H   0  0  0  0  0  0  0  0  0  0  0  0
  1  9  1  0  0  0  0
  1 13  1  0  0  0  0
  2 13  2  0  0  0  0
  3 14  2  0  0  0  0
  4 15  1  0  0  0  0
  4 16  1  0  0  0  0
  4 17  1  0  0  0  0
  5  6  1  0  0  0  0
  5  7  1  0  0  0  0
  5 18  1  0  0  0  0
  5 19  1  0  0  0  0
  6  8  1  0  0  0  0
  6 20  1  0  0  0  0
  6 21  1  0  0  0  0
  7  9  1  0  0  0  0
  7 22  1  0  0  0  0
  7 23  1  0  0  0  0
  8 10  1  0  0  0  0
  8 24  1  0  0  0  0
  8 25  1  0  0  0  0
  9 26  1  0  0  0  0
  9 27  1  0  0  0  0
 10 28  1  0  0  0  0
 10 29  1  0  0  0  0
 10 30  1  0  0  0  0
 11 12  1  0  0  0  0
 11 13  1  0  0  0  0
 11 31  1  0  0  0  0
 11 32  1  0  0  0  0
 12 14  1  0  0  0  0
 12 33  1  0  0  0  0
 12 34  1  0  0  0  0
 14 15  1  0  0  0  0
 15 35  1  0  0  0  0
 15 36  1  0  0  0  0
M  END
>  <DRUGBANK_ID>
DB06261

>  <COMMON_NAME>
Hexaminolevulinate

>  <CAS_NUMBER>
140898-97-1

>  <UNII>
G7H20TKI67

>  <SYNONYMS>
4-Hexyloxycarbonyl-2-oxobutylammoniumchloride; Hexaminolevulinato; Hexyl 5-amino-4-oxopentanoate hydrochloride; Hexyl(5-amino-4-oxopentanoat)-hydrochlorid; Pentanoic acid, 5-amino-4-oxo-, hexyl ester, hydrochloride

$$$$
