SB6
 OpenBabel10282417173D

 38 41  0  0  0  0  0  0  0  0999 V2000
    2.1913   -0.0378   -0.0409 F   0  0  0  0  0  0  0  0  0  0  0  0
    0.1877    1.1867    0.0560 C   0  0  0  0  0  0  0  0  0  0  0  0
    0.8494   -0.0284    0.0197 C   0  0  0  0  0  0  0  0  0  0  0  0
    0.1602   -1.2371    0.0398 C   0  0  0  0  0  0  0  0  0  0  0  0
   -1.2371   -1.2352    0.1054 C   0  0  0  0  0  0  0  0  0  0  0  0
   -1.9148   -0.0196    0.1693 C   0  0  0  0  0  0  0  0  0  0  0  0
   -1.2027    1.1913    0.1488 C   0  0  0  0  0  0  0  0  0  0  0  0
   -2.1347    1.2363   -4.1312 C   0  0  0  0  0  0  0  0  0  0  0  0
   -2.3042    2.5519   -4.3782 N   0  0  0  0  0  0  0  0  0  0  0  0
   -2.8907    3.2600   -3.4041 C   0  0  0  0  0  0  0  0  0  0  0  0
   -3.2797    2.6986   -2.2020 C   0  0  0  0  0  0  0  0  0  0  0  0
   -3.3873    1.3092   -2.1024 C   0  0  0  0  0  0  0  0  0  0  0  0
   -2.7013    0.5668   -3.0564 C   0  0  0  0  0  0  0  0  0  0  0  0
   -5.3740    0.4309   -0.6434 N   0  0  0  0  0  0  0  0  0  0  0  0
   -4.0271    0.6344   -0.9545 C   0  0  0  0  0  0  0  0  0  0  0  0
   -3.3613    0.0078    0.0881 C   0  0  0  0  0  0  0  0  0  0  0  0
   -4.2094   -0.5901    0.9733 N   0  0  0  0  0  0  0  0  0  0  0  0
   -5.4127   -0.2976    0.5275 C   0  0  0  0  0  0  0  0  0  0  0  0
   -6.6100    0.8055   -1.3519 C   0  0  0  0  0  0  0  0  0  0  0  0
   -6.9034    2.2889   -1.4738 C   0  0  0  0  0  0  0  0  0  0  0  0
   -6.0192    3.0419   -2.4097 C   0  0  0  0  0  0  0  0  0  0  0  0
   -5.9629    3.3022   -0.9063 C   0  0  0  0  0  0  0  0  0  0  0  0
    0.7364    2.1196    0.0008 H   0  0  0  0  0  0  0  0  0  0  0  0
    0.7058   -2.1710   -0.0087 H   0  0  0  0  0  0  0  0  0  0  0  0
   -1.7891   -2.1706    0.0699 H   0  0  0  0  0  0  0  0  0  0  0  0
   -1.7281    2.1416    0.1540 H   0  0  0  0  0  0  0  0  0  0  0  0
   -1.5033    0.7162   -4.8428 H   0  0  0  0  0  0  0  0  0  0  0  0
   -3.0979    4.3053   -3.6189 H   0  0  0  0  0  0  0  0  0  0  0  0
   -3.6113    3.3674   -1.4205 H   0  0  0  0  0  0  0  0  0  0  0  0
   -2.5550   -0.5001   -2.9371 H   0  0  0  0  0  0  0  0  0  0  0  0
   -6.3385   -0.5895    1.0060 H   0  0  0  0  0  0  0  0  0  0  0  0
   -6.5667    0.3274   -2.3369 H   0  0  0  0  0  0  0  0  0  0  0  0
   -7.4491    0.3490   -0.8109 H   0  0  0  0  0  0  0  0  0  0  0  0
   -7.9562    2.5187   -1.5577 H   0  0  0  0  0  0  0  0  0  0  0  0
   -5.4738    2.3348   -3.0284 H   0  0  0  0  0  0  0  0  0  0  0  0
   -6.2422    3.9237   -2.9915 H   0  0  0  0  0  0  0  0  0  0  0  0
   -6.2855    4.2899   -0.5990 H   0  0  0  0  0  0  0  0  0  0  0  0
   -5.2108    2.9265   -0.2191 H   0  0  0  0  0  0  0  0  0  0  0  0
  1  3  1  0  0  0  0
  2  3  2  0  0  0  0
  2  7  1  0  0  0  0
  2 23  1  0  0  0  0
  3  4  1  0  0  0  0
  4  5  2  0  0  0  0
  4 24  1  0  0  0  0
  5  6  1  0  0  0  0
  5 25  1  0  0  0  0
  6  7  2  0  0  0  0
  6 16  1  0  0  0  0
  7 26  1  0  0  0  0
  8  9  2  0  0  0  0
  8 13  1  0  0  0  0
  8 27  1  0  0  0  0
  9 10  1  0  0  0  0
 10 11  2  0  0  0  0
 10 28  1  0  0  0  0
 11 12  1  0  0  0  0
 11 29  1  0  0  0  0
 12 13  2  0  0  0  0
 12 15  1  0  0  0  0
 13 30  1  0  0  0  0
 14 15  1  0  0  0  0
 14 18  1  0  0  0  0
 14 19  1  0  0  0  0
 15 16  2  0  0  0  0
 16 17  1  0  0  0  0
 17 18  2  0  0  0  0
 18 31  1  0  0  0  0
 19 20  1  0  0  0  0
 19 32  1  0  0  0  0
 19 33  1  0  0  0  0
 20 21  1  0  0  0  0
 20 22  1  0  0  0  0
 20 34  1  0  0  0  0
 21 22  1  0  0  0  0
 21 35  1  0  0  0  0
 21 36  1  0  0  0  0
 22 37  1  0  0  0  0
 22 38  1  0  0  0  0
M  END
>  <DRUGBANK_ID>
DB08522

>  <COMMON_NAME>
4-(4-FLUOROPHENYL)-1-CYCLOROPROPYLMETHYL-5-(4-PYRIDYL)-IMIDAZOLE

$$$$
