
 OpenBabel10282417193D

 60 64  0  0  1  0  0  0  0  0999 V2000
   -0.5495    0.0700    0.3655 C   0  0  0  0  0  0  0  0  0  0  0  0
   -0.2830    1.1453    1.3743 C   0  0  0  0  0  0  0  0  0  0  0  0
    0.7627    2.2107    0.8911 C   0  0  2  0  0  0  0  0  0  0  0  0
    1.7893    2.1731   -0.2753 C   0  0  1  0  0  0  0  0  0  0  0  0
    2.1981    1.6626    1.0541 C   0  0  2  0  0  0  0  0  0  0  0  0
    2.4522    0.1732    0.9332 C   0  0  0  0  0  0  0  0  0  0  0  0
    2.1893   -0.0597   -0.4907 N   0  0  0  0  0  0  0  0  0  0  0  0
    1.7645    1.0954   -1.3003 C   0  0  0  0  0  0  0  0  0  0  0  0
    2.2224   -1.4164   -0.9996 C   0  0  0  0  0  0  0  0  0  0  0  0
    3.6944   -1.4940   -1.2867 C   0  0  0  0  0  0  0  0  0  0  0  0
    4.0567   -0.2722   -2.1749 C   0  0  0  0  0  0  0  0  0  0  0  0
    5.3180   -0.7232   -2.7268 C   0  0  0  0  0  0  0  0  0  0  0  0
    6.2891    0.1037   -3.2301 C   0  0  0  0  0  0  0  0  0  0  0  0
    7.4333   -0.5351   -3.6384 C   0  0  0  0  0  0  0  0  0  0  0  0
    7.5528   -1.9382   -3.5096 C   0  0  0  0  0  0  0  0  0  0  0  0
    6.5311   -2.7411   -2.9972 C   0  0  0  0  0  0  0  0  0  0  0  0
    5.3883   -2.1166   -2.6235 C   0  0  0  0  0  0  0  0  0  0  0  0
    4.1550   -2.7240   -2.0199 C   0  0  0  0  0  0  0  0  0  0  0  0
    4.4268   -1.5113   -0.0333 O   0  0  0  0  0  0  0  0  0  0  0  0
    0.1828    3.5806    1.1775 C   0  0  0  0  0  0  0  0  0  0  0  0
   -0.8849    4.0851    0.4378 C   0  0  0  0  0  0  0  0  0  0  0  0
   -1.7379    5.0449    0.9904 C   0  0  0  0  0  0  0  0  0  0  0  0
   -1.5633    5.4710    2.3167 C   0  0  0  0  0  0  0  0  0  0  0  0
   -0.5166    4.9525    3.0814 C   0  0  0  0  0  0  0  0  0  0  0  0
    0.4071    4.1600    2.4146 C   0  0  0  0  0  0  0  0  0  0  0  0
   -0.3643    5.3570    4.4495 N   0  0  0  0  0  0  0  0  0  0  0  0
    0.5833    4.6455    5.6425 S   0  0  0  0  0  0  0  0  0  0  0  0
    1.3175    5.7095    6.2362 O   0  0  0  0  0  0  0  0  0  0  0  0
   -0.3184    3.8261    6.4709 O   0  0  0  0  0  0  0  0  0  0  0  0
    1.7617    3.5107    4.9245 C   0  0  0  0  0  0  0  0  0  0  0  0
   -1.0655    0.3088   -0.5650 H   0  0  0  0  0  0  0  0  0  0  0  0
   -0.3972   -0.9763    0.6426 H   0  0  0  0  0  0  0  0  0  0  0  0
    0.3592    0.1528   -0.0928 H   0  0  0  0  0  0  0  0  0  0  0  0
   -1.2506    1.5876    1.6112 H   0  0  0  0  0  0  0  0  0  0  0  0
    0.1055    0.7309    2.3171 H   0  0  0  0  0  0  0  0  0  0  0  0
    2.2911    3.0635   -0.6392 H   0  0  0  0  0  0  0  0  0  0  0  0
    2.9403    2.1542    1.6646 H   0  0  0  0  0  0  0  0  0  0  0  0
    1.7836   -0.4270    1.5651 H   0  0  0  0  0  0  0  0  0  0  0  0
    3.4497   -0.0981    1.2819 H   0  0  0  0  0  0  0  0  0  0  0  0
    2.3948    1.3646   -2.1492 H   0  0  0  0  0  0  0  0  0  0  0  0
    0.7725    1.0130   -1.7642 H   0  0  0  0  0  0  0  0  0  0  0  0
    1.8985   -2.1779   -0.2716 H   0  0  0  0  0  0  0  0  0  0  0  0
    1.5992   -1.5814   -1.8953 H   0  0  0  0  0  0  0  0  0  0  0  0
    3.3582   -0.1426   -3.0139 H   0  0  0  0  0  0  0  0  0  0  0  0
    4.2244    0.6494   -1.6018 H   0  0  0  0  0  0  0  0  0  0  0  0
    6.1479    1.1812   -3.2806 H   0  0  0  0  0  0  0  0  0  0  0  0
    8.2396    0.0555   -4.0548 H   0  0  0  0  0  0  0  0  0  0  0  0
    8.4697   -2.4174   -3.8213 H   0  0  0  0  0  0  0  0  0  0  0  0
    6.6154   -3.8104   -2.8683 H   0  0  0  0  0  0  0  0  0  0  0  0
    4.3677   -3.5240   -1.3036 H   0  0  0  0  0  0  0  0  0  0  0  0
    3.4417   -3.0482   -2.7808 H   0  0  0  0  0  0  0  0  0  0  0  0
    5.1685   -0.8923   -0.1381 H   0  0  0  0  0  0  0  0  0  0  0  0
   -1.1064    3.6474   -0.5325 H   0  0  0  0  0  0  0  0  0  0  0  0
   -2.5817    5.4019    0.4056 H   0  0  0  0  0  0  0  0  0  0  0  0
   -2.2562    6.2055    2.7227 H   0  0  0  0  0  0  0  0  0  0  0  0
    1.3308    3.8425    2.8262 H   0  0  0  0  0  0  0  0  0  0  0  0
   -1.2084    5.7523    4.8764 H   0  0  0  0  0  0  0  0  0  0  0  0
    1.2307    2.6915    4.4293 H   0  0  0  0  0  0  0  0  0  0  0  0
    2.4243    4.0946    4.2781 H   0  0  0  0  0  0  0  0  0  0  0  0
    2.3929    3.0732    5.6945 H   0  0  0  0  0  0  0  0  0  0  0  0
  1  2  1  0  0  0  0
  1 31  1  0  0  0  0
  1 32  1  0  0  0  0
  1 33  1  0  0  0  0
  2 34  1  0  0  0  0
  2 35  1  0  0  0  0
  3  2  1  6  0  0  0
  3  4  1  0  0  0  0
  3  5  1  0  0  0  0
  3 20  1  0  0  0  0
  4  5  1  0  0  0  0
  4  8  1  0  0  0  0
  4 36  1  6  0  0  0
  5  6  1  0  0  0  0
  5 37  1  1  0  0  0
  6  7  1  0  0  0  0
  6 38  1  0  0  0  0
  6 39  1  0  0  0  0
  7  8  1  0  0  0  0
  7  9  1  0  0  0  0
  8 40  1  0  0  0  0
  8 41  1  0  0  0  0
  9 10  1  0  0  0  0
  9 42  1  0  0  0  0
  9 43  1  0  0  0  0
 10 11  1  0  0  0  0
 10 18  1  0  0  0  0
 10 19  1  0  0  0  0
 11 12  1  0  0  0  0
 11 44  1  0  0  0  0
 11 45  1  0  0  0  0
 12 13  2  0  0  0  0
 12 17  1  0  0  0  0
 13 14  1  0  0  0  0
 13 46  1  0  0  0  0
 14 15  2  0  0  0  0
 14 47  1  0  0  0  0
 15 16  1  0  0  0  0
 15 48  1  0  0  0  0
 16 17  2  0  0  0  0
 16 49  1  0  0  0  0
 17 18  1  0  0  0  0
 18 50  1  0  0  0  0
 18 51  1  0  0  0  0
 19 52  1  0  0  0  0
 20 21  2  0  0  0  0
 20 25  1  0  0  0  0
 21 22  1  0  0  0  0
 21 53  1  0  0  0  0
 22 23  2  0  0  0  0
 22 54  1  0  0  0  0
 23 24  1  0  0  0  0
 23 55  1  0  0  0  0
 24 25  2  0  0  0  0
 24 26  1  0  0  0  0
 25 56  1  0  0  0  0
 26 27  1  0  0  0  0
 26 57  1  0  0  0  0
 27 28  2  0  0  0  0
 27 29  2  0  0  0  0
 27 30  1  0  0  0  0
 30 58  1  0  0  0  0
 30 59  1  0  0  0  0
 30 60  1  0  0  0  0
M  END
>  <DRUGBANK_ID>
DB12196

>  <COMMON_NAME>
CP-866087

>  <CAS_NUMBER>
519052-02-9

>  <UNII>
MDH21334PI

$$$$
