
 OpenBabel10282417173D

 24 25  0  0  0  0  0  0  0  0999 V2000
    0.9994    0.1193    0.0196 O   0  0  0  0  0  0  0  0  0  0  0  0
    0.2258    1.2473   -0.1030 C   0  0  0  0  0  0  0  0  0  0  0  0
    2.3811    0.2196    0.0598 C   0  0  0  0  0  0  0  0  0  0  0  0
    0.2617    2.1068   -1.2126 C   0  0  0  0  0  0  0  0  0  0  0  0
    3.1779    1.3761    0.1167 C   0  0  0  0  0  0  0  0  0  0  0  0
   -0.3931    3.3392   -1.1506 C   0  0  0  0  0  0  0  0  0  0  0  0
    4.5702    1.2888    0.0490 C   0  0  0  0  0  0  0  0  0  0  0  0
   -0.5989    1.5514    0.9891 C   0  0  0  0  0  0  0  0  0  0  0  0
    3.0324   -1.0265    0.0240 C   0  0  0  0  0  0  0  0  0  0  0  0
   -1.1701    3.6586   -0.0380 C   0  0  0  0  0  0  0  0  0  0  0  0
    5.1929    0.0511    0.0046 C   0  0  0  0  0  0  0  0  0  0  0  0
    1.1762    1.7477   -2.6322 Cl  0  0  0  0  0  0  0  0  0  0  0  0
    2.7413    2.6634    0.2400 O   0  0  0  0  0  0  0  0  0  0  0  0
   -1.3004    2.7586    1.0189 C   0  0  0  0  0  0  0  0  0  0  0  0
    4.4318   -1.1133    0.0075 C   0  0  0  0  0  0  0  0  0  0  0  0
   -1.9649    5.1822    0.0372 Cl  0  0  0  0  0  0  0  0  0  0  0  0
    6.9100   -0.0315   -0.0281 Cl  0  0  0  0  0  0  0  0  0  0  0  0
   -0.2719    4.0605   -1.9548 H   0  0  0  0  0  0  0  0  0  0  0  0
    5.1551    2.2046    0.0442 H   0  0  0  0  0  0  0  0  0  0  0  0
   -0.6681    0.8681    1.8336 H   0  0  0  0  0  0  0  0  0  0  0  0
    2.4518   -1.9480    0.0038 H   0  0  0  0  0  0  0  0  0  0  0  0
    1.8424    2.6719    0.5998 H   0  0  0  0  0  0  0  0  0  0  0  0
   -1.9221    3.0051    1.8773 H   0  0  0  0  0  0  0  0  0  0  0  0
    4.9196   -2.0839   -0.0123 H   0  0  0  0  0  0  0  0  0  0  0  0
  2  1  1  0  0  0  0
  3  1  1  0  0  0  0
  4  2  2  0  0  0  0
  5  3  1  0  0  0  0
  6  4  1  0  0  0  0
  6 10  2  0  0  0  0
  6 18  1  0  0  0  0
  7  5  2  0  0  0  0
  7 11  1  0  0  0  0
  7 19  1  0  0  0  0
  8  2  1  0  0  0  0
  8 20  1  0  0  0  0
  9  3  2  0  0  0  0
  9 21  1  0  0  0  0
 10 14  1  0  0  0  0
 11 15  2  0  0  0  0
 12  4  1  0  0  0  0
 13  5  1  0  0  0  0
 13 22  1  0  0  0  0
 14  8  2  0  0  0  0
 14 23  1  0  0  0  0
 15  9  1  0  0  0  0
 15 24  1  0  0  0  0
 16 10  1  0  0  0  0
 17 11  1  0  0  0  0
M  END
>  <DRUGBANK_ID>
DB08604

>  <COMMON_NAME>
Triclosan

>  <CAS_NUMBER>
3380-34-5

>  <UNII>
4NM5039Y5X

>  <SYNONYMS>
2,4,4'-Trichloro-2'-hydroxydiphenyl ether; 5-Chloro-2-(2,4-dichloro-phenoxy)-phenol; Triclos√°n; Triclosan; Triclosanum

$$$$
