INW
 OpenBabel10282417133D

 34 35  0  0  0  0  0  0  0  0999 V2000
    1.2142   -0.3104    0.2111 C   0  0  0  0  0  0  0  0  0  0  0  0
    0.3472   -1.3735    0.0632 C   0  0  0  0  0  0  0  0  0  0  0  0
   -1.0007   -1.1185   -0.0217 C   0  0  0  0  0  0  0  0  0  0  0  0
   -1.4604    0.2022   -0.0176 C   0  0  0  0  0  0  0  0  0  0  0  0
   -0.5341    1.2694   -0.0015 C   0  0  0  0  0  0  0  0  0  0  0  0
    0.8457    1.0211    0.0179 C   0  0  0  0  0  0  0  0  0  0  0  0
    1.8092    2.1647   -0.2099 C   0  0  0  0  0  0  0  0  0  0  0  0
    1.3670    3.3103   -0.3135 O   0  0  0  0  0  0  0  0  0  0  0  0
    3.1666    1.9905   -0.3818 N   0  0  0  0  0  0  0  0  0  0  0  0
    3.9829    0.8037   -0.4033 C   0  0  0  0  0  0  0  0  0  0  0  0
   -2.0677   -2.5209   -0.0065 S   0  0  0  0  0  0  0  0  0  0  0  0
   -2.9178   -2.3278    1.4324 N   0  0  0  0  0  0  0  0  0  0  0  0
   -2.9863   -2.4158   -1.1024 O   0  0  0  0  0  0  0  0  0  0  0  0
   -1.2550   -3.7059    0.2133 O   0  0  0  0  0  0  0  0  0  0  0  0
    4.6022    0.4280   -1.7008 C   0  0  0  0  0  0  0  0  0  0  0  0
    5.2627    1.3797   -2.4563 C   0  0  0  0  0  0  0  0  0  0  0  0
    5.9356    1.0156   -3.6044 C   0  0  0  0  0  0  0  0  0  0  0  0
    5.9628   -0.3235   -3.9801 C   0  0  0  0  0  0  0  0  0  0  0  0
    5.3220   -1.3057   -3.2345 C   0  0  0  0  0  0  0  0  0  0  0  0
    4.5973   -0.9249   -2.1151 C   0  0  0  0  0  0  0  0  0  0  0  0
    6.6110   -0.6754   -5.0955 F   0  0  0  0  0  0  0  0  0  0  0  0
    5.2471    2.6618   -2.0680 F   0  0  0  0  0  0  0  0  0  0  0  0
    2.1601   -0.6424    0.5893 H   0  0  0  0  0  0  0  0  0  0  0  0
    0.7564   -2.3813    0.0822 H   0  0  0  0  0  0  0  0  0  0  0  0
   -2.5257    0.4122   -0.0450 H   0  0  0  0  0  0  0  0  0  0  0  0
   -0.8987    2.2971    0.0251 H   0  0  0  0  0  0  0  0  0  0  0  0
    3.6550    2.8573   -0.5939 H   0  0  0  0  0  0  0  0  0  0  0  0
    4.6877    0.8182    0.4319 H   0  0  0  0  0  0  0  0  0  0  0  0
    3.3772   -0.0436   -0.2635 H   0  0  0  0  0  0  0  0  0  0  0  0
   -3.6233   -3.0667    1.4788 H   0  0  0  0  0  0  0  0  0  0  0  0
   -2.3008   -2.3762    2.2444 H   0  0  0  0  0  0  0  0  0  0  0  0
    6.4453    1.7715   -4.1840 H   0  0  0  0  0  0  0  0  0  0  0  0
    5.3967   -2.3503   -3.5227 H   0  0  0  0  0  0  0  0  0  0  0  0
    4.0360   -1.6862   -1.5694 H   0  0  0  0  0  0  0  0  0  0  0  0
  1  2  2  0  0  0  0
  1  6  1  0  0  0  0
  1 23  1  0  0  0  0
  2  3  1  0  0  0  0
  2 24  1  0  0  0  0
  3  4  2  0  0  0  0
  3 11  1  0  0  0  0
  4  5  1  0  0  0  0
  4 25  1  0  0  0  0
  5  6  2  0  0  0  0
  5 26  1  0  0  0  0
  6  7  1  0  0  0  0
  7  8  2  0  0  0  0
  7  9  1  0  0  0  0
  9 10  1  0  0  0  0
  9 27  1  0  0  0  0
 10 15  1  0  0  0  0
 10 28  1  0  0  0  0
 10 29  1  0  0  0  0
 11 12  1  0  0  0  0
 11 13  2  0  0  0  0
 11 14  2  0  0  0  0
 12 30  1  0  0  0  0
 12 31  1  0  0  0  0
 15 16  2  0  0  0  0
 15 20  1  0  0  0  0
 16 17  1  0  0  0  0
 16 22  1  0  0  0  0
 17 18  2  0  0  0  0
 17 32  1  0  0  0  0
 18 19  1  0  0  0  0
 18 21  1  0  0  0  0
 19 20  2  0  0  0  0
 19 33  1  0  0  0  0
 20 34  1  0  0  0  0
M  END
>  <DRUGBANK_ID>
DB04180

>  <SECONDARY_ACCESSION_NUMBERS>
EXPT01896

>  <COMMON_NAME>
4-(Aminosulfonyl)-N-[(2,4-Difluorophenyl)Methyl]-Benzamide

$$$$
