ET1
 OpenBabel10282417163D

 46 48  0  0  0  0  0  0  0  0999 V2000
   -0.2144   -0.0087   -0.3406 C   0  0  0  0  0  0  0  0  0  0  0  0
    1.9253   -2.3818    0.9630 C   0  0  0  0  0  0  0  0  0  0  0  0
   -0.7098   -2.7502    2.7497 C   0  0  0  0  0  0  0  0  0  0  0  0
   -0.3701   -1.7424    1.9265 C   0  0  0  0  0  0  0  0  0  0  0  0
    2.2333    1.9522    1.5009 N   0  0  0  0  0  0  0  0  0  0  0  0
    1.1783    2.3403    2.5984 C   0  0  0  0  0  0  0  0  0  0  0  0
    1.1005    1.0028    2.8186 C   0  0  0  0  0  0  0  0  0  0  0  0
    2.5986    0.8868    3.1127 C   0  0  0  0  0  0  0  0  0  0  0  0
    3.2935    1.3922    2.0279 C   0  0  0  0  0  0  0  0  0  0  0  0
    4.5340    1.8792    4.0785 C   0  0  0  0  0  0  0  0  0  0  0  0
    5.2559    1.8069    2.8561 C   0  0  0  0  0  0  0  0  0  0  0  0
    4.6216    1.4876    1.6864 C   0  0  0  0  0  0  0  0  0  0  0  0
    3.2580    1.3233    4.2477 C   0  0  0  0  0  0  0  0  0  0  0  0
    4.9138    2.5711    5.1808 O   0  0  0  0  0  0  0  0  0  0  0  0
    6.2087    3.1043    5.0809 C   0  0  0  0  0  0  0  0  0  0  0  0
   -0.1671    0.4162    1.6268 C   0  0  0  0  0  0  0  0  0  0  0  0
   -0.2698    1.4642   -1.4716 C   0  0  0  0  0  0  0  0  0  0  0  0
    1.7896    0.7964    0.4073 S   0  0  0  0  0  0  0  0  0  0  0  0
    1.1236   -1.3111    1.1060 C   0  0  0  0  0  0  0  0  0  0  0  0
    1.4329   -3.5160    1.7106 C   0  0  0  0  0  0  0  0  0  0  0  0
    0.2475   -3.6652    2.6255 C   0  0  0  0  0  0  0  0  0  0  0  0
    0.6901    1.7043    0.3586 O   0  0  0  0  0  0  0  0  0  0  0  0
    2.6231    0.7437   -0.8577 O   0  0  0  0  0  0  0  0  0  0  0  0
    0.3199    2.5510   -1.4880 O   0  0  0  0  0  0  0  0  0  0  0  0
   -1.0529    1.2075   -2.5043 O   0  0  0  0  0  0  0  0  0  0  0  0
   -0.0490   -4.6970    3.4614 O   0  0  0  0  0  0  0  0  0  0  0  0
    0.8093   -5.7716    3.2396 C   0  0  0  0  0  0  0  0  0  0  0  0
   -0.6597   -0.9576   -0.7410 H   0  0  0  0  0  0  0  0  0  0  0  0
    0.7576   -0.5207   -0.8096 H   0  0  0  0  0  0  0  0  0  0  0  0
    2.8210   -2.3664    0.3736 H   0  0  0  0  0  0  0  0  0  0  0  0
   -1.5092   -2.6787    3.5102 H   0  0  0  0  0  0  0  0  0  0  0  0
   -1.1109   -1.0327    2.4193 H   0  0  0  0  0  0  0  0  0  0  0  0
    0.1644    2.7090    2.3769 H   0  0  0  0  0  0  0  0  0  0  0  0
    6.2916    2.1059    2.7675 H   0  0  0  0  0  0  0  0  0  0  0  0
    5.0354    1.6628    0.6884 H   0  0  0  0  0  0  0  0  0  0  0  0
    2.6326    1.4892    5.1087 H   0  0  0  0  0  0  0  0  0  0  0  0
    6.9198    2.2890    4.9215 H   0  0  0  0  0  0  0  0  0  0  0  0
    6.2750    3.8591    4.2879 H   0  0  0  0  0  0  0  0  0  0  0  0
    6.4062    3.5728    6.0391 H   0  0  0  0  0  0  0  0  0  0  0  0
   -1.1712    0.6830    1.9024 H   0  0  0  0  0  0  0  0  0  0  0  0
    0.3980   -0.2491    2.4553 H   0  0  0  0  0  0  0  0  0  0  0  0
    2.0380   -4.4047    1.6059 H   0  0  0  0  0  0  0  0  0  0  0  0
   -0.9524    0.2566   -2.5473 H   0  0  0  0  0  0  0  0  0  0  0  0
    0.7259   -6.0848    2.1944 H   0  0  0  0  0  0  0  0  0  0  0  0
    1.8255   -5.4716    3.5064 H   0  0  0  0  0  0  0  0  0  0  0  0
    0.4774   -6.5730    3.8877 H   0  0  0  0  0  0  0  0  0  0  0  0
  1 16  1  0  0  0  0
  1 17  1  0  0  0  0
  1 28  1  0  0  0  0
  1 29  1  0  0  0  0
  2 20  1  0  0  0  0
  2 30  1  0  0  0  0
  3 21  1  0  0  0  0
  3 31  1  0  0  0  0
  4  3  2  0  0  0  0
  4 32  1  0  0  0  0
  5  6  1  0  0  0  0
  5 18  1  0  0  0  0
  6 33  1  0  0  0  0
  7  6  2  0  0  0  0
  7 16  1  0  0  0  0
  8  7  1  0  0  0  0
  8  9  1  0  0  0  0
  9  5  1  0  0  0  0
 10 11  2  0  0  0  0
 10 13  1  0  0  0  0
 11 12  1  0  0  0  0
 11 34  1  0  0  0  0
 12  9  2  0  0  0  0
 12 35  1  0  0  0  0
 13  8  2  0  0  0  0
 13 36  1  0  0  0  0
 14 10  1  0  0  0  0
 14 15  1  0  0  0  0
 15 37  1  0  0  0  0
 15 38  1  0  0  0  0
 15 39  1  0  0  0  0
 16 40  1  0  0  0  0
 16 41  1  0  0  0  0
 17 25  1  0  0  0  0
 18 19  1  0  0  0  0
 19  2  2  0  0  0  0
 19  4  1  0  0  0  0
 20 21  2  0  0  0  0
 20 42  1  0  0  0  0
 21 26  1  0  0  0  0
 22 18  2  0  0  0  0
 23 18  2  0  0  0  0
 24 17  2  0  0  0  0
 25 43  1  0  0  0  0
 26 27  1  0  0  0  0
 27 44  1  0  0  0  0
 27 45  1  0  0  0  0
 27 46  1  0  0  0  0
M  END
>  <DRUGBANK_ID>
DB07724

>  <COMMON_NAME>
Indeglitazar

>  <CAS_NUMBER>
835619-41-5

>  <UNII>
JMC809G4ZH

>  <SYNONYMS>
Indeglitazar

$$$$
