
 OpenBabel10282417193D

 49 52  0  0  0  0  0  0  0  0999 V2000
    2.6357   -0.2757   -0.1832 C   0  0  0  0  0  0  0  0  0  0  0  0
   -2.1102    4.2636   -0.8811 C   0  0  0  0  0  0  0  0  0  0  0  0
   -2.4314    1.6493    5.8790 C   0  0  0  0  0  0  0  0  0  0  0  0
   -2.5416    5.5008   -0.4764 C   0  0  0  0  0  0  0  0  0  0  0  0
   -2.5985    2.8736    6.4386 C   0  0  0  0  0  0  0  0  0  0  0  0
   -0.6991    0.1245    2.4174 C   0  0  0  0  0  0  0  0  0  0  0  0
   -1.4131    3.5096    0.0554 C   0  0  0  0  0  0  0  0  0  0  0  0
   -2.0639    1.6035    4.5394 C   0  0  0  0  0  0  0  0  0  0  0  0
   -2.2915    5.8753    0.8465 C   0  0  0  0  0  0  0  0  0  0  0  0
   -2.3302    4.0497    5.7140 C   0  0  0  0  0  0  0  0  0  0  0  0
   -1.9464   -0.2713    1.6027 C   0  0  0  0  0  0  0  0  0  0  0  0
   -0.2414    1.6347    2.3508 C   0  0  0  0  0  0  0  0  0  0  0  0
    0.5991   -1.6383   -0.1022 C   0  0  0  0  0  0  0  0  0  0  0  0
    0.5092    0.6981   -0.3418 C   0  0  0  0  0  0  0  0  0  0  0  0
   -0.9591   -1.6807   -0.2562 C   0  0  0  0  0  0  0  0  0  0  0  0
   -1.0501    0.6161   -0.4493 C   0  0  0  0  0  0  0  0  0  0  0  0
   -1.4442    3.6756    1.4569 C   0  0  0  0  0  0  0  0  0  0  0  0
   -1.7133    2.7590    3.7972 C   0  0  0  0  0  0  0  0  0  0  0  0
   -1.8097    4.9689    1.8219 C   0  0  0  0  0  0  0  0  0  0  0  0
   -1.8606    3.9918    4.3883 C   0  0  0  0  0  0  0  0  0  0  0  0
    1.2707   -0.4724   -0.7464 N   0  0  0  0  0  0  0  0  0  0  0  0
   -1.7145   -0.5117    0.1633 N   0  0  0  0  0  0  0  0  0  0  0  0
   -1.2984    2.6389    2.4418 N   0  0  0  0  0  0  0  0  0  0  0  0
   -1.5575    5.5163    3.5055 S   0  0  0  0  0  0  0  0  0  0  0  0
    3.0687    0.6746   -0.5319 H   0  0  0  0  0  0  0  0  0  0  0  0
    2.6479   -0.2184    0.9196 H   0  0  0  0  0  0  0  0  0  0  0  0
    3.2979   -1.0837   -0.4851 H   0  0  0  0  0  0  0  0  0  0  0  0
   -2.2355    3.9044   -1.9010 H   0  0  0  0  0  0  0  0  0  0  0  0
   -2.6535    0.7092    6.3849 H   0  0  0  0  0  0  0  0  0  0  0  0
   -2.9842    6.1640   -1.2069 H   0  0  0  0  0  0  0  0  0  0  0  0
   -3.0105    2.9371    7.4466 H   0  0  0  0  0  0  0  0  0  0  0  0
   -0.7904   -0.2174    3.4535 H   0  0  0  0  0  0  0  0  0  0  0  0
    0.1155   -0.5410    2.1725 H   0  0  0  0  0  0  0  0  0  0  0  0
   -0.8012    2.7959   -0.4599 H   0  0  0  0  0  0  0  0  0  0  0  0
   -2.1939    0.6408    4.1032 H   0  0  0  0  0  0  0  0  0  0  0  0
   -2.5078    6.9011    1.1278 H   0  0  0  0  0  0  0  0  0  0  0  0
   -2.5264    5.0068    6.1593 H   0  0  0  0  0  0  0  0  0  0  0  0
   -2.7074    0.5232    1.7237 H   0  0  0  0  0  0  0  0  0  0  0  0
   -2.4548   -1.1425    2.0372 H   0  0  0  0  0  0  0  0  0  0  0  0
    0.5811    1.7481    3.0762 H   0  0  0  0  0  0  0  0  0  0  0  0
    0.2666    1.9814    1.4725 H   0  0  0  0  0  0  0  0  0  0  0  0
    1.0123   -2.5506   -0.5234 H   0  0  0  0  0  0  0  0  0  0  0  0
    0.8505   -1.6749    0.9590 H   0  0  0  0  0  0  0  0  0  0  0  0
    0.8165    0.6839    0.6855 H   0  0  0  0  0  0  0  0  0  0  0  0
    0.9034    1.6525   -0.7210 H   0  0  0  0  0  0  0  0  0  0  0  0
   -1.1644   -1.7635   -1.3322 H   0  0  0  0  0  0  0  0  0  0  0  0
   -1.3940   -2.5618    0.2149 H   0  0  0  0  0  0  0  0  0  0  0  0
   -1.3416    0.7653   -1.4908 H   0  0  0  0  0  0  0  0  0  0  0  0
   -1.5648    1.3762    0.1022 H   0  0  0  0  0  0  0  0  0  0  0  0
  1 25  1  0  0  0  0
  1 26  1  0  0  0  0
  1 27  1  0  0  0  0
  2 28  1  0  0  0  0
  3 29  1  0  0  0  0
  4  2  2  0  0  0  0
  4 30  1  0  0  0  0
  5  3  2  0  0  0  0
  5 31  1  0  0  0  0
  6 32  1  0  0  0  0
  6 33  1  0  0  0  0
  7  2  1  0  0  0  0
  7 34  1  0  0  0  0
  8  3  1  0  0  0  0
  8 35  1  0  0  0  0
  9  4  1  0  0  0  0
  9 36  1  0  0  0  0
 10  5  1  0  0  0  0
 10 37  1  0  0  0  0
 11  6  1  0  0  0  0
 11 38  1  0  0  0  0
 11 39  1  0  0  0  0
 12  6  1  0  0  0  0
 12 40  1  0  0  0  0
 12 41  1  0  0  0  0
 13 42  1  0  0  0  0
 13 43  1  0  0  0  0
 14 44  1  0  0  0  0
 14 45  1  0  0  0  0
 15 13  1  0  0  0  0
 15 46  1  0  0  0  0
 15 47  1  0  0  0  0
 16 14  1  0  0  0  0
 16 48  1  0  0  0  0
 16 49  1  0  0  0  0
 17  7  2  0  0  0  0
 18  8  2  0  0  0  0
 19  9  2  0  0  0  0
 19 17  1  0  0  0  0
 20 10  2  0  0  0  0
 20 18  1  0  0  0  0
 21  1  1  0  0  0  0
 21 13  1  0  0  0  0
 21 14  1  0  0  0  0
 22 11  1  0  0  0  0
 22 15  1  0  0  0  0
 22 16  1  0  0  0  0
 23 12  1  0  0  0  0
 23 17  1  0  0  0  0
 23 18  1  0  0  0  0
 24 19  1  0  0  0  0
 24 20  1  0  0  0  0
M  END
>  <DRUGBANK_ID>
DB12710

>  <COMMON_NAME>
Perazine

>  <CAS_NUMBER>
84-97-9

>  <UNII>
8915147A2B

$$$$
