
 OpenBabel10282417243D

 72 76  0  0  1  0  0  0  0  0999 V2000
   -0.1480    0.2987   -2.8097 C   0  0  0  0  0  0  0  0  0  0  0  0
   -1.4490   -0.2363   -3.3707 C   0  0  0  0  0  0  0  0  0  0  0  0
   -1.1876   -1.3400   -4.2650 O   0  0  0  0  0  0  0  0  0  0  0  0
   -0.5109   -1.0803   -5.4106 C   0  0  0  0  0  0  0  0  0  0  0  0
   -0.1037    0.0347   -5.7187 O   0  0  0  0  0  0  0  0  0  0  0  0
   -0.2543   -2.2795   -6.3247 C   0  0  2  0  0  0  0  0  0  0  0  0
   -1.4679   -3.0466   -6.7301 C   0  0  0  0  0  0  0  0  0  0  0  0
   -1.5116   -4.1738   -5.7028 C   0  0  3  0  0  0  0  0  0  0  0  0
   -0.1293   -4.3280   -5.1156 C   0  0  0  0  0  0  0  0  0  0  0  0
    0.6562   -3.3178   -5.7981 N   0  0  0  0  0  0  0  0  0  0  0  0
   -1.7936   -5.4314   -6.4393 C   0  0  0  0  0  0  0  0  0  0  0  0
   -3.1625   -5.1947   -7.0404 C   0  0  0  0  0  0  0  0  0  0  0  0
   -4.3181   -4.8875   -5.8731 N   0  0  0  0  0  0  0  0  0  0  0  0
   -3.9996   -3.7100   -5.1113 C   0  0  0  0  0  0  0  0  0  0  0  0
   -2.5712   -3.9144   -4.5960 C   0  0  0  0  0  0  0  0  0  0  0  0
   -5.4845   -5.7960   -5.3049 C   0  0  0  0  0  0  0  0  0  0  0  0
   -5.5618   -7.8407   -5.4617 C   0  0  0  0  0  0  0  0  0  0  0  0
   -6.8355   -8.7453   -5.5192 C   0  0  0  0  0  0  0  0  0  0  0  0
   -6.5336   -9.7626   -4.4477 O   0  0  0  0  0  0  0  0  0  0  0  0
   -5.0931  -10.3298   -4.1848 C   0  0  2  0  0  0  0  0  0  0  0  0
   -3.8738   -9.6150   -3.3912 C   0  0  0  0  0  0  0  0  0  0  0  0
   -2.9313  -10.3554   -2.6638 C   0  0  0  0  0  0  0  0  0  0  0  0
   -1.8260   -9.7083   -2.0258 C   0  0  0  0  0  0  0  0  0  0  0  0
   -1.5926   -8.3427   -2.1315 C   0  0  0  0  0  0  0  0  0  0  0  0
   -0.3506   -7.4662   -1.3674 Cl  0  0  0  0  0  0  0  0  0  0  0  0
   -2.4356   -7.6170   -2.8712 C   0  0  0  0  0  0  0  0  0  0  0  0
   -3.5172   -8.2482   -3.4280 C   0  0  0  0  0  0  0  0  0  0  0  0
   -4.2140   -7.2180   -4.0551 C   0  0  0  0  0  0  0  0  0  0  0  0
   -5.7412   -7.1221   -3.3902 C   0  0  0  0  0  0  0  0  0  0  0  0
   -6.8868   -6.8519   -4.4616 C   0  0  0  0  0  0  0  0  0  0  0  0
   -6.6732   -6.7084   -6.4904 C   0  0  0  0  0  0  0  0  0  0  0  0
   -5.0431   -6.8007   -7.1334 C   0  0  0  0  0  0  0  0  0  0  0  0
   -3.7648   -7.0605   -5.8118 C   0  0  0  0  0  0  0  0  0  0  0  0
   -4.5817  -11.0624   -5.4491 C   0  0  0  0  0  0  0  0  0  0  0  0
   -3.5959  -11.9493   -5.1752 F   0  0  0  0  0  0  0  0  0  0  0  0
   -5.5889  -11.7544   -6.0281 F   0  0  0  0  0  0  0  0  0  0  0  0
   -4.0866  -10.2206   -6.3822 F   0  0  0  0  0  0  0  0  0  0  0  0
   -8.3166   -7.9228   -5.6091 N   0  0  0  0  0  0  0  0  0  0  0  0
   -8.4188   -6.1619   -5.5558 C   0  0  0  0  0  0  0  0  0  0  0  0
   -9.6501   -5.6898   -5.2084 N   0  0  0  0  0  0  0  0  0  0  0  0
   -7.0713   -5.0297   -5.3414 N   0  0  0  0  0  0  0  0  0  0  0  0
    0.3974   -0.4999   -2.2982 H   0  0  0  0  0  0  0  0  0  0  0  0
   -0.3223    1.1292   -2.1241 H   0  0  0  0  0  0  0  0  0  0  0  0
    0.5030    0.6604   -3.6074 H   0  0  0  0  0  0  0  0  0  0  0  0
   -2.0701   -0.6053   -2.5414 H   0  0  0  0  0  0  0  0  0  0  0  0
   -2.0305    0.5392   -3.8822 H   0  0  0  0  0  0  0  0  0  0  0  0
    0.1642   -1.8464   -7.2354 H   0  0  0  0  0  0  0  0  0  0  0  0
   -1.3439   -3.4468   -7.7529 H   0  0  0  0  0  0  0  0  0  0  0  0
   -2.3788   -2.4499   -6.7615 H   0  0  0  0  0  0  0  0  0  0  0  0
   -0.1571   -4.1751   -4.0366 H   0  0  0  0  0  0  0  0  0  0  0  0
    0.2938   -5.3320   -5.2859 H   0  0  0  0  0  0  0  0  0  0  0  0
    1.3476   -2.9352   -5.1640 H   0  0  0  0  0  0  0  0  0  0  0  0
   -1.6820   -6.2492   -5.7134 H   0  0  0  0  0  0  0  0  0  0  0  0
   -1.0852   -5.7302   -7.2324 H   0  0  0  0  0  0  0  0  0  0  0  0
   -3.2304   -6.0865   -7.6965 H   0  0  0  0  0  0  0  0  0  0  0  0
   -3.2522   -4.4231   -7.8077 H   0  0  0  0  0  0  0  0  0  0  0  0
   -4.0541   -2.8689   -5.8098 H   0  0  0  0  0  0  0  0  0  0  0  0
   -4.6925   -3.5019   -4.2957 H   0  0  0  0  0  0  0  0  0  0  0  0
   -2.5528   -4.7365   -3.8801 H   0  0  0  0  0  0  0  0  0  0  0  0
   -2.3003   -3.0531   -4.0093 H   0  0  0  0  0  0  0  0  0  0  0  0
   -4.7572   -8.5558   -5.6224 H   0  0  0  0  0  0  0  0  0  0  0  0
   -5.3537  -11.1382   -3.4787 H   0  0  0  0  0  0  0  0  0  0  0  0
   -3.0108  -11.4364   -2.5589 H   0  0  0  0  0  0  0  0  0  0  0  0
   -1.1298  -10.2737   -1.4244 H   0  0  0  0  0  0  0  0  0  0  0  0
   -2.3385   -6.5458   -3.0261 H   0  0  0  0  0  0  0  0  0  0  0  0
   -6.1381   -7.9209   -2.7148 H   0  0  0  0  0  0  0  0  0  0  0  0
   -7.8120   -6.8140   -3.8410 H   0  0  0  0  0  0  0  0  0  0  0  0
   -7.1797   -5.9406   -7.1477 H   0  0  0  0  0  0  0  0  0  0  0  0
   -5.1047   -5.7676   -7.6668 H   0  0  0  0  0  0  0  0  0  0  0  0
   -2.8897   -7.6233   -6.1114 H   0  0  0  0  0  0  0  0  0  0  0  0
   -9.6560   -4.8292   -5.7369 H   0  0  0  0  0  0  0  0  0  0  0  0
  -10.2223   -6.5152   -5.3542 H   0  0  0  0  0  0  0  0  0  0  0  0
  1  2  1  0  0  0  0
  1 42  1  0  0  0  0
  1 43  1  0  0  0  0
  1 44  1  0  0  0  0
  2  3  1  0  0  0  0
  2 45  1  0  0  0  0
  2 46  1  0  0  0  0
  3  4  1  0  0  0  0
  4  5  2  0  0  0  0
  6  4  1  0  0  0  0
  6  7  1  0  0  0  0
  6 10  1  0  0  0  0
  6 47  1  6  0  0  0
  7  8  1  0  0  0  0
  7 48  1  0  0  0  0
  7 49  1  0  0  0  0
  8  9  1  0  0  0  0
  8 11  1  0  0  0  0
  8 15  1  0  0  0  0
  9 10  1  0  0  0  0
  9 50  1  0  0  0  0
  9 51  1  0  0  0  0
 10 52  1  0  0  0  0
 11 12  1  0  0  0  0
 11 53  1  0  0  0  0
 11 54  1  0  0  0  0
 12 13  1  0  0  0  0
 12 55  1  0  0  0  0
 12 56  1  0  0  0  0
 13 14  1  0  0  0  0
 13 16  1  0  0  0  0
 14 15  1  0  0  0  0
 14 57  1  0  0  0  0
 14 58  1  0  0  0  0
 15 59  1  0  0  0  0
 15 60  1  0  0  0  0
 16 17  2  0  0  0  0
 16 41  1  0  0  0  0
 17 18  1  0  0  0  0
 17 61  1  0  0  0  0
 18 19  1  0  0  0  0
 18 38  2  0  0  0  0
 20 34  1  0  0  0  0
 20 62  1  1  0  0  0
 20 21  1  0  0  0  0
 20 19  1  0  0  0  0
 21 22  2  0  0  0  0
 21 27  1  0  0  0  0
 22 23  1  0  0  0  0
 22 63  1  0  0  0  0
 23 24  2  0  0  0  0
 23 64  1  0  0  0  0
 24 25  1  0  0  0  0
 24 26  1  0  0  0  0
 26 27  2  0  0  0  0
 26 65  1  0  0  0  0
 27 28  1  0  0  0  0
 28 29  2  0  0  0  0
 28 33  1  0  0  0  0
 29 30  1  0  0  0  0
 29 66  1  0  0  0  0
 30 31  2  0  0  0  0
 30 67  1  0  0  0  0
 31 32  1  0  0  0  0
 31 68  1  0  0  0  0
 32 33  2  0  0  0  0
 32 69  1  0  0  0  0
 33 70  1  0  0  0  0
 34 35  1  0  0  0  0
 34 36  1  0  0  0  0
 34 37  1  0  0  0  0
 38 39  1  0  0  0  0
 39 40  1  0  0  0  0
 39 41  2  0  0  0  0
 40 71  1  0  0  0  0
 40 72  1  0  0  0  0
M  END
>  <DRUGBANK_ID>
DB18479

>  <COMMON_NAME>
Rodatristat ethyl

>  <CAS_NUMBER>
1673571-51-1

>  <UNII>
507FY6OL37

>  <SYNONYMS>
2,8-diazaspiro(4.5)decane-3-carboxylic acid, 8-(2-amino-6-((1r)-1-(5-chloro(1,1'-biphenyl)-2-yl)-2,2,2-trifluoroethoxy)-4-pyrimidinyl)-, ethyl ester, (3s)-; Ethyl (3s)-8-(2-amino-6-((1r)-1-(5-chloro(1,1'-biphenyl)-2-yl)-2,2,2-trifluoroethoxy)pyrimidin-4-yl)-2,8-diazaspiro(4.5)decane-3-carboxylate

$$$$
