FR4
 OpenBabel10282417163D

 60 63  0  0  0  0  0  0  0  0999 V2000
   -0.7232    0.0188   -1.2890 C   0  0  0  0  0  0  0  0  0  0  0  0
   -0.0409   -1.0314   -0.6204 N   0  0  0  0  0  0  0  0  0  0  0  0
    1.1683   -0.5035   -0.2620 C   0  0  0  0  0  0  0  0  0  0  0  0
    1.2380    0.7865   -0.4990 N   0  0  0  0  0  0  0  0  0  0  0  0
    0.0135    1.1936   -1.0442 C   0  0  0  0  0  0  0  0  0  0  0  0
   -0.4054    2.6589   -0.9495 C   0  0  0  0  0  0  0  0  0  0  0  0
    0.2863    3.5068   -0.3738 O   0  0  0  0  0  0  0  0  0  0  0  0
   -1.6923    3.0752   -1.2748 N   0  0  0  0  0  0  0  0  0  0  0  0
   -0.5148   -2.4052   -0.2301 C   0  0  1  0  0  0  0  0  0  0  0  0
   -0.0962   -3.3096   -1.3889 C   0  0  0  0  0  0  0  0  0  0  0  0
    1.3217   -3.3913   -1.4458 O   0  0  0  0  0  0  0  0  0  0  0  0
   -0.0519   -3.0724    1.1989 C   0  0  0  0  0  0  0  0  0  0  0  0
   -0.2806   -2.4393    2.6748 C   0  0  0  0  0  0  0  0  0  0  0  0
   -1.5985   -2.3724    3.2959 N   0  0  0  0  0  0  0  0  0  0  0  0
   -2.4429   -3.4125    3.0718 C   0  0  0  0  0  0  0  0  0  0  0  0
   -3.6166   -2.7329    3.0244 C   0  0  0  0  0  0  0  0  0  0  0  0
   -3.3627   -1.2214    3.1008 C   0  0  0  0  0  0  0  0  0  0  0  0
   -2.3379   -1.3738    3.9780 C   0  0  0  0  0  0  0  0  0  0  0  0
   -3.7603    0.4486    2.8167 C   0  0  0  0  0  0  0  0  0  0  0  0
   -3.6689    1.4739    3.6905 C   0  0  0  0  0  0  0  0  0  0  0  0
   -3.8961    0.6511    4.4901 C   0  0  0  0  0  0  0  0  0  0  0  0
   -2.4769   -0.1506    4.6240 C   0  0  0  0  0  0  0  0  0  0  0  0
   -5.5808    0.2098    4.0250 N   0  0  0  0  0  0  0  0  0  0  0  0
   -6.2175   -0.4993    2.8513 C   0  0  0  0  0  0  0  0  0  0  0  0
   -7.4059   -0.2806    2.5642 O   0  0  0  0  0  0  0  0  0  0  0  0
   -5.5962   -1.6333    2.0460 C   0  0  0  0  0  0  0  0  0  0  0  0
   -4.3335   -1.5900    0.7631 C   0  0  0  0  0  0  0  0  0  0  0  0
   -3.9111    0.8679    0.2277 C   0  0  0  0  0  0  0  0  0  0  0  0
   -3.3459   -0.3612    0.4977 C   0  0  0  0  0  0  0  0  0  0  0  0
   -2.0114   -0.2619    1.0419 C   0  0  0  0  0  0  0  0  0  0  0  0
   -1.2883    0.8993    1.4217 C   0  0  0  0  0  0  0  0  0  0  0  0
   -1.9470    2.0825    1.2696 C   0  0  0  0  0  0  0  0  0  0  0  0
   -3.2464    2.0556    0.6928 C   0  0  0  0  0  0  0  0  0  0  0  0
   -1.6121   -2.4154   -0.2601 H   0  0  0  0  0  0  0  0  0  0  0  0
   -1.7719   -0.0905   -1.5388 H   0  0  0  0  0  0  0  0  0  0  0  0
    1.9330   -1.1005    0.2154 H   0  0  0  0  0  0  0  0  0  0  0  0
   -2.4158    2.3727   -1.3412 H   0  0  0  0  0  0  0  0  0  0  0  0
   -1.9889    3.8391   -0.6563 H   0  0  0  0  0  0  0  0  0  0  0  0
   -0.4956   -4.3227   -1.2769 H   0  0  0  0  0  0  0  0  0  0  0  0
   -0.4761   -2.9007   -2.3327 H   0  0  0  0  0  0  0  0  0  0  0  0
    1.6559   -2.4891   -1.6103 H   0  0  0  0  0  0  0  0  0  0  0  0
   -0.4493   -4.1053    1.2059 H   0  0  0  0  0  0  0  0  0  0  0  0
    1.0355   -3.2012    1.1452 H   0  0  0  0  0  0  0  0  0  0  0  0
    0.2392   -3.0907    3.3856 H   0  0  0  0  0  0  0  0  0  0  0  0
    0.1338   -1.4403    2.7032 H   0  0  0  0  0  0  0  0  0  0  0  0
   -2.2386   -4.4249    2.7226 H   0  0  0  0  0  0  0  0  0  0  0  0
   -4.4478   -3.3766    2.7236 H   0  0  0  0  0  0  0  0  0  0  0  0
   -4.5937    0.8008    2.1760 H   0  0  0  0  0  0  0  0  0  0  0  0
   -2.8001    2.2216    3.6016 H   0  0  0  0  0  0  0  0  0  0  0  0
   -1.6065    0.5020    4.2787 H   0  0  0  0  0  0  0  0  0  0  0  0
   -5.9781    1.1405    3.7792 H   0  0  0  0  0  0  0  0  0  0  0  0
   -5.3877   -1.9877    3.0695 H   0  0  0  0  0  0  0  0  0  0  0  0
   -6.2164   -2.5268    1.8510 H   0  0  0  0  0  0  0  0  0  0  0  0
   -3.6581   -2.4741    0.8153 H   0  0  0  0  0  0  0  0  0  0  0  0
   -4.8393   -1.8326   -0.1726 H   0  0  0  0  0  0  0  0  0  0  0  0
   -5.0021    0.8618    0.1796 H   0  0  0  0  0  0  0  0  0  0  0  0
   -1.5033   -1.1490    1.3162 H   0  0  0  0  0  0  0  0  0  0  0  0
   -0.2511    0.8706    1.7811 H   0  0  0  0  0  0  0  0  0  0  0  0
   -1.4575    3.0030    1.5890 H   0  0  0  0  0  0  0  0  0  0  0  0
   -3.8287    2.9629    0.8033 H   0  0  0  0  0  0  0  0  0  0  0  0
  1  2  1  0  0  0  0
  1  5  2  0  0  0  0
  1 35  1  0  0  0  0
  2  3  1  0  0  0  0
  3  4  2  0  0  0  0
  3 36  1  0  0  0  0
  4  5  1  0  0  0  0
  5  6  1  0  0  0  0
  6  7  2  0  0  0  0
  6  8  1  0  0  0  0
  8 37  1  0  0  0  0
  8 38  1  0  0  0  0
  9  2  1  0  0  0  0
  9 10  1  0  0  0  0
  9 12  1  0  0  0  0
  9 34  1  1  0  0  0
 10 11  1  0  0  0  0
 10 39  1  0  0  0  0
 10 40  1  0  0  0  0
 11 41  1  0  0  0  0
 12 13  1  0  0  0  0
 12 42  1  0  0  0  0
 12 43  1  0  0  0  0
 13 14  1  0  0  0  0
 13 44  1  0  0  0  0
 13 45  1  0  0  0  0
 14 15  1  0  0  0  0
 14 18  1  0  0  0  0
 15 16  2  0  0  0  0
 15 46  1  0  0  0  0
 16 17  1  0  0  0  0
 16 47  1  0  0  0  0
 17 18  2  0  0  0  0
 17 19  1  0  0  0  0
 18 22  1  0  0  0  0
 19 20  2  0  0  0  0
 19 48  1  0  0  0  0
 20 21  1  0  0  0  0
 20 49  1  0  0  0  0
 21 22  2  0  0  0  0
 21 23  1  0  0  0  0
 22 50  1  0  0  0  0
 23 24  1  0  0  0  0
 23 51  1  0  0  0  0
 24 25  2  0  0  0  0
 24 26  1  0  0  0  0
 26 27  1  0  0  0  0
 26 52  1  0  0  0  0
 26 53  1  0  0  0  0
 27 29  1  0  0  0  0
 27 54  1  0  0  0  0
 27 55  1  0  0  0  0
 28 29  2  0  0  0  0
 28 33  1  0  0  0  0
 28 56  1  0  0  0  0
 29 30  1  0  0  0  0
 30 31  2  0  0  0  0
 30 57  1  0  0  0  0
 31 32  1  0  0  0  0
 31 58  1  0  0  0  0
 32 33  2  0  0  0  0
 32 59  1  0  0  0  0
 33 60  1  0  0  0  0
M  END
>  <DRUGBANK_ID>
DB07783

>  <COMMON_NAME>
1-((1R)-1-(HYDROXYMETHYL)-3-{6-[(3-PHENYLPROPANOYL)AMINO]-1H-INDOL-1-YL}PROPYL)-1H-IMIDAZOLE-4-CARBOXAMIDE

$$$$
