1165
 OpenBabel10282417113D

 46 49  0  0  1  0  0  0  0  0999 V2000
    0.8894    0.0098    0.0695 F   0  0  0  0  0  0  0  0  0  0  0  0
    4.9237    2.4730    0.1315 O   0  0  0  0  0  0  0  0  0  0  0  0
    4.3448   -3.4858    0.0671 O   0  0  0  0  0  0  0  0  0  0  0  0
    8.6042   -3.6770    0.0563 O   0  0  0  0  0  0  0  0  0  0  0  0
    6.7163   -4.8491    0.0570 O   0  0  0  0  0  0  0  0  0  0  0  0
    2.2346    2.4907    0.1737 N   0  0  0  0  0  0  0  0  0  0  0  0
    6.4398   -0.0115    0.0981 N   0  0  0  0  0  0  0  0  0  0  0  0
    1.0034    5.0504    0.6541 N   0  0  0  0  0  0  0  0  0  0  0  0
    2.2304    3.5023   -0.8933 C   0  0  0  0  0  0  0  0  0  0  0  0
    1.1465    2.5996    1.1465 C   0  0  0  0  0  0  0  0  0  0  0  0
    7.1668    1.2607   -0.0110 C   0  0  3  0  0  0  0  0  0  0  0  0
    2.9040    1.2813    0.0432 C   0  0  0  0  0  0  0  0  0  0  0  0
    5.0393    0.0434    0.0484 C   0  0  0  0  0  0  0  0  0  0  0  0
    4.3229    1.2494    0.0393 C   0  0  0  0  0  0  0  0  0  0  0  0
    2.1695    4.9150   -0.2541 C   0  0  0  0  0  0  0  0  0  0  0  0
    1.1341    4.0323    1.7223 C   0  0  0  0  0  0  0  0  0  0  0  0
    6.3317    2.5439    0.0826 C   0  0  0  0  0  0  0  0  0  0  0  0
    4.3066   -1.1557    0.0500 C   0  0  0  0  0  0  0  0  0  0  0  0
    2.2311    0.0494    0.0481 C   0  0  0  0  0  0  0  0  0  0  0  0
    7.0801   -1.2475    0.1081 C   0  0  0  0  0  0  0  0  0  0  0  0
    2.9114   -1.1571    0.0483 C   0  0  0  0  0  0  0  0  0  0  0  0
    7.9095    1.2983   -1.3501 C   0  0  0  0  0  0  0  0  0  0  0  0
    5.0142   -2.4586    0.0677 C   0  0  0  0  0  0  0  0  0  0  0  0
    0.9277    6.3881    1.2249 C   0  0  0  0  0  0  0  0  0  0  0  0
    6.5076   -2.4640    0.0837 C   0  0  0  0  0  0  0  0  0  0  0  0
    7.2548   -3.7501    0.0666 C   0  0  0  0  0  0  0  0  0  0  0  0
    9.0378   -2.8116    0.0574 H   0  0  0  0  0  0  0  0  0  0  0  0
    1.3485    3.3633   -1.5334 H   0  0  0  0  0  0  0  0  0  0  0  0
    3.1133    3.4362   -1.5392 H   0  0  0  0  0  0  0  0  0  0  0  0
    0.1831    2.3687    0.6775 H   0  0  0  0  0  0  0  0  0  0  0  0
    1.3036    1.9035    1.9793 H   0  0  0  0  0  0  0  0  0  0  0  0
    7.9106    1.2934    0.7987 H   0  0  0  0  0  0  0  0  0  0  0  0
    2.1140    5.6674   -1.0493 H   0  0  0  0  0  0  0  0  0  0  0  0
    3.1010    5.0930    0.3021 H   0  0  0  0  0  0  0  0  0  0  0  0
    2.0677    4.1982    2.2800 H   0  0  0  0  0  0  0  0  0  0  0  0
    0.3065    4.1145    2.4343 H   0  0  0  0  0  0  0  0  0  0  0  0
    6.5585    3.1952   -0.7713 H   0  0  0  0  0  0  0  0  0  0  0  0
    6.6579    3.1188    0.9574 H   0  0  0  0  0  0  0  0  0  0  0  0
    8.1545   -1.1186    0.1204 H   0  0  0  0  0  0  0  0  0  0  0  0
    2.3496   -2.0871    0.0645 H   0  0  0  0  0  0  0  0  0  0  0  0
    8.5066    2.2121   -1.4330 H   0  0  0  0  0  0  0  0  0  0  0  0
    8.5838    0.4478   -1.4769 H   0  0  0  0  0  0  0  0  0  0  0  0
    7.1862    1.2798   -2.1730 H   0  0  0  0  0  0  0  0  0  0  0  0
    0.0554    6.4690    1.8833 H   0  0  0  0  0  0  0  0  0  0  0  0
    1.8224    6.6460    1.8009 H   0  0  0  0  0  0  0  0  0  0  0  0
    0.7932    7.1326    0.4331 H   0  0  0  0  0  0  0  0  0  0  0  0
  1 19  1  0  0  0  0
  2 14  1  0  0  0  0
  2 17  1  0  0  0  0
  3 23  2  0  0  0  0
  4 26  1  0  0  0  0
  4 27  1  0  0  0  0
  5 26  2  0  0  0  0
  6  9  1  0  0  0  0
  6 10  1  0  0  0  0
  6 12  1  0  0  0  0
  7 11  1  0  0  0  0
  7 13  1  0  0  0  0
  7 20  1  0  0  0  0
  8 15  1  0  0  0  0
  8 16  1  0  0  0  0
  8 24  1  0  0  0  0
  9 15  1  0  0  0  0
  9 28  1  0  0  0  0
  9 29  1  0  0  0  0
 10 16  1  0  0  0  0
 10 30  1  0  0  0  0
 10 31  1  0  0  0  0
 11 17  1  0  0  0  0
 11 22  1  0  0  0  0
 11 32  1  0  0  0  0
 12 14  1  0  0  0  0
 12 19  2  0  0  0  0
 13 14  2  0  0  0  0
 13 18  1  0  0  0  0
 15 33  1  0  0  0  0
 15 34  1  0  0  0  0
 16 35  1  0  0  0  0
 16 36  1  0  0  0  0
 17 37  1  0  0  0  0
 17 38  1  0  0  0  0
 18 21  2  0  0  0  0
 18 23  1  0  0  0  0
 19 21  1  0  0  0  0
 20 25  2  0  0  0  0
 20 39  1  0  0  0  0
 21 40  1  0  0  0  0
 22 41  1  0  0  0  0
 22 42  1  0  0  0  0
 22 43  1  0  0  0  0
 23 25  1  0  0  0  0
 24 44  1  0  0  0  0
 24 45  1  0  0  0  0
 24 46  1  0  0  0  0
 25 26  1  0  0  0  0
M  END
>  <DRUGBANK_ID>
DB01165

>  <SECONDARY_ACCESSION_NUMBERS>
APRD00502

>  <COMMON_NAME>
Ofloxacin

>  <CAS_NUMBER>
82419-36-1

>  <UNII>
A4P49JAZ9H

>  <SYNONYMS>
8-Fluoro-3-methyl-9-(4-methyl-piperazin-1-yl)-6-oxo-2,3-dihydro-6H-1-oxa-3a-aza-phenalene-5-carboxylic acid; Ofloxacin; Ofloxacine; Ofloxacino; Ofloxacinum; OFLX

$$$$
