
 OpenBabel10282417133D

 29 30  0  0  0  0  0  0  0  0999 V2000
    1.4168   -0.0733    0.4178 C   0  0  0  0  0  0  0  0  0  0  0  0
    0.5413   -1.1076    0.7725 C   0  0  0  0  0  0  0  0  0  0  0  0
    0.8682    1.1860    0.1503 C   0  0  0  0  0  0  0  0  0  0  0  0
    2.8655   -0.4391    0.2689 C   0  0  0  0  0  0  0  0  0  0  0  0
   -0.8520   -0.9208    0.7790 C   0  0  0  0  0  0  0  0  0  0  0  0
   -0.5273    1.3797    0.1976 C   0  0  0  0  0  0  0  0  0  0  0  0
    3.7270    0.5967    0.1669 O   0  0  0  0  0  0  0  0  0  0  0  0
    3.2506   -1.5885    0.2535 O   0  0  0  0  0  0  0  0  0  0  0  0
   -1.3936    0.2977    0.3857 C   0  0  0  0  0  0  0  0  0  0  0  0
   -2.6863    0.4908   -0.0367 O   0  0  0  0  0  0  0  0  0  0  0  0
   -3.5102   -0.6625   -0.2972 C   0  0  0  0  0  0  0  0  0  0  0  0
   -3.2497   -1.4379   -1.6163 C   0  0  0  0  0  0  0  0  0  0  0  0
   -1.9488   -2.0557   -1.7817 N   0  0  0  0  0  0  0  0  0  0  0  0
   -0.7857   -1.4081   -2.1090 C   0  0  0  0  0  0  0  0  0  0  0  0
   -1.6286   -3.3631   -1.5434 C   0  0  0  0  0  0  0  0  0  0  0  0
    0.2102   -2.3348   -1.8868 C   0  0  0  0  0  0  0  0  0  0  0  0
   -0.3266   -3.5438   -1.5321 N   0  0  0  0  0  0  0  0  0  0  0  0
    0.9162   -2.1322    0.8458 H   0  0  0  0  0  0  0  0  0  0  0  0
    1.4770    2.0211   -0.1787 H   0  0  0  0  0  0  0  0  0  0  0  0
   -1.4615   -1.8146    0.8746 H   0  0  0  0  0  0  0  0  0  0  0  0
   -0.9390    2.3655   -0.0069 H   0  0  0  0  0  0  0  0  0  0  0  0
    3.3575    1.4895    0.2264 H   0  0  0  0  0  0  0  0  0  0  0  0
   -3.5540   -1.3142    0.5816 H   0  0  0  0  0  0  0  0  0  0  0  0
   -4.5303   -0.2598   -0.3930 H   0  0  0  0  0  0  0  0  0  0  0  0
   -3.9875   -2.2486   -1.6892 H   0  0  0  0  0  0  0  0  0  0  0  0
   -3.3942   -0.7838   -2.4822 H   0  0  0  0  0  0  0  0  0  0  0  0
   -0.7398   -0.3343   -2.2337 H   0  0  0  0  0  0  0  0  0  0  0  0
   -2.3592   -4.1325   -1.3362 H   0  0  0  0  0  0  0  0  0  0  0  0
    1.2777   -2.1503   -1.8199 H   0  0  0  0  0  0  0  0  0  0  0  0
  1  2  2  0  0  0  0
  1  3  1  0  0  0  0
  1  4  1  0  0  0  0
  2  5  1  0  0  0  0
  2 18  1  0  0  0  0
  3  6  2  0  0  0  0
  3 19  1  0  0  0  0
  4  7  1  0  0  0  0
  4  8  2  0  0  0  0
  5  9  2  0  0  0  0
  5 20  1  0  0  0  0
  6  9  1  0  0  0  0
  6 21  1  0  0  0  0
  7 22  1  0  0  0  0
  9 10  1  0  0  0  0
 10 11  1  0  0  0  0
 11 12  1  0  0  0  0
 11 23  1  0  0  0  0
 11 24  1  0  0  0  0
 12 13  1  0  0  0  0
 12 25  1  0  0  0  0
 12 26  1  0  0  0  0
 13 14  1  0  0  0  0
 13 15  1  0  0  0  0
 14 16  2  0  0  0  0
 14 27  1  0  0  0  0
 15 17  2  0  0  0  0
 15 28  1  0  0  0  0
 16 17  1  0  0  0  0
 16 29  1  0  0  0  0
M  END
>  <DRUGBANK_ID>
DB03052

>  <SECONDARY_ACCESSION_NUMBERS>
EXPT03297

>  <COMMON_NAME>
Dazoxiben

>  <CAS_NUMBER>
78218-09-4

>  <UNII>
09ZFC7974Q

>  <SYNONYMS>
Dazoxiben; Dazoxibene; Dazoxibenum

$$$$
