
 OpenBabel10282417183D

 98105  0  0  0  0  0  0  0  0999 V2000
    9.4347   12.5482    2.7587 C   0  0  0  0  0  0  0  0  0  0  0  0
    9.5841   13.3263    3.9389 C   0  0  0  0  0  0  0  0  0  0  0  0
    9.0260   12.9825    5.0872 C   0  0  0  0  0  0  0  0  0  0  0  0
    8.1787   11.9869    4.8581 C   0  0  0  0  0  0  0  0  0  0  0  0
    7.9367   11.0846    3.7352 C   0  0  0  0  0  0  0  0  0  0  0  0
    8.6980   11.3467    2.6374 C   0  0  0  0  0  0  0  0  0  0  0  0
    7.0476    9.9225    3.6637 C   0  0  0  0  0  0  0  0  0  0  0  0
    7.1455    9.0725    2.5523 N   0  0  0  0  0  0  0  0  0  0  0  0
    7.8616    9.3378    1.4959 C   0  0  0  0  0  0  0  0  0  0  0  0
    8.6117   10.5136    1.4741 C   0  0  0  0  0  0  0  0  0  0  0  0
    9.1987   10.8617    0.2754 C   0  0  0  0  0  0  0  0  0  0  0  0
    9.0258   10.0675   -0.8509 C   0  0  0  0  0  0  0  0  0  0  0  0
    8.2796    8.8953   -0.8029 C   0  0  0  0  0  0  0  0  0  0  0  0
    7.7131    8.5129    0.3922 C   0  0  0  0  0  0  0  0  0  0  0  0
    5.9104    9.5491    5.0361 O   0  0  0  0  0  0  0  0  0  0  0  0
    5.8420    9.9396    6.7964 C   0  0  2  0  0  0  0  0  0  0  0  0
    4.7138   10.6209    7.9035 C   0  0  0  0  0  0  0  0  0  0  0  0
    3.7222   10.5574    6.8186 C   0  0  2  0  0  0  0  0  0  0  0  0
    4.4849   11.2188    5.8395 N   0  0  0  0  0  0  0  0  0  0  0  0
    5.8149   11.3439    6.3748 C   0  0  0  0  0  0  0  0  0  0  0  0
    3.5255    9.0458    6.7353 C   0  0  0  0  0  0  0  0  0  0  0  0
    2.2576    8.7449    6.7235 N   0  0  0  0  0  0  0  0  0  0  0  0
    4.3430    8.1360    6.7122 O   0  0  0  0  0  0  0  0  0  0  0  0
    4.0127   11.0194    4.5528 C   0  0  0  0  0  0  0  0  0  0  0  0
    4.7631   10.3074    3.4154 C   0  0  2  0  0  0  0  0  0  0  0  0
    2.8802   11.4391    4.3331 O   0  0  0  0  0  0  0  0  0  0  0  0
    4.2146   10.4644    2.0379 C   0  0  0  0  0  0  0  0  0  0  0  0
    4.9731    8.5824    3.6718 N   0  0  0  0  0  0  0  0  0  0  0  0
    4.4413    9.1891    1.2641 C   0  0  0  0  0  0  0  0  0  0  0  0
    3.1472    8.5416    0.9680 C   0  0  0  0  0  0  0  0  0  0  0  0
    3.3596    7.1954    0.3142 C   0  0  0  0  0  0  0  0  0  0  0  0
    2.3300    6.2177    0.9667 C   0  0  0  0  0  0  0  0  0  0  0  0
    2.6960    6.1708    2.6020 C   0  0  0  0  0  0  0  0  0  0  0  0
    1.7855    6.6952    3.4479 C   0  0  0  0  0  0  0  0  0  0  0  0
    2.1335    6.6898    5.0244 C   0  0  1  0  0  0  0  0  0  0  0  0
    1.8220    7.4397    6.6585 C   0  0  1  0  0  0  0  0  0  0  0  0
    0.8632    7.1811    5.6190 C   0  0  0  0  0  0  0  0  0  0  0  0
    1.4281    7.0517    8.2539 C   0  0  0  0  0  0  0  0  0  0  0  0
    1.5440    5.9235    8.7238 O   0  0  0  0  0  0  0  0  0  0  0  0
    1.0624    8.1643    9.2340 N   0  0  0  0  0  0  0  0  0  0  0  0
    0.8176    9.8365    9.0194 S   0  0  0  0  0  0  0  0  0  0  0  0
   -0.8247   10.3679    9.3843 C   0  0  0  0  0  0  0  0  0  0  0  0
   -1.2388   10.7479   10.7602 C   0  0  0  0  0  0  0  0  0  0  0  0
   -1.6844    9.4179   10.1579 C   0  0  0  0  0  0  0  0  0  0  0  0
    1.7603   10.5996    9.8062 O   0  0  0  0  0  0  0  0  0  0  0  0
    0.7032   10.1505    7.6128 O   0  0  0  0  0  0  0  0  0  0  0  0
    2.9347    5.9703    5.0488 H   0  0  0  0  0  0  0  0  0  0  0  0
    2.8392   11.1930    6.8102 H   0  0  0  0  0  0  0  0  0  0  0  0
    6.3347    7.6541    4.0419 C   0  0  0  0  0  0  0  0  0  0  0  0
    7.7560    8.2399    5.0729 C   0  0  0  0  0  0  0  0  0  0  0  0
    6.4721    6.6588    3.2950 O   0  0  0  0  0  0  0  0  0  0  0  0
    9.0281    7.9080    4.9237 N   0  0  0  0  0  0  0  0  0  0  0  0
    9.9165    8.7605    5.6376 C   0  0  0  0  0  0  0  0  0  0  0  0
    9.6407    9.8942    6.4354 C   0  0  0  0  0  0  0  0  0  0  0  0
    8.4405   10.1737    6.7011 N   0  0  0  0  0  0  0  0  0  0  0  0
    7.7725    9.4828    5.8019 C   0  0  0  0  0  0  0  0  0  0  0  0
   10.5001   10.7903    7.1833 C   0  0  0  0  0  0  0  0  0  0  0  0
    9.8780   12.9639    1.8793 H   0  0  0  0  0  0  0  0  0  0  0  0
   10.0957   14.2573    3.9750 H   0  0  0  0  0  0  0  0  0  0  0  0
    9.0286   13.3884    6.0951 H   0  0  0  0  0  0  0  0  0  0  0  0
    7.7905   11.9064    5.8532 H   0  0  0  0  0  0  0  0  0  0  0  0
    9.7691   11.7760    0.2093 H   0  0  0  0  0  0  0  0  0  0  0  0
    9.4952   10.3758   -1.7713 H   0  0  0  0  0  0  0  0  0  0  0  0
    8.1361    8.2843   -1.6844 H   0  0  0  0  0  0  0  0  0  0  0  0
    7.0984    7.6125    0.4610 H   0  0  0  0  0  0  0  0  0  0  0  0
    6.4204    9.1028    7.3183 H   0  0  0  0  0  0  0  0  0  0  0  0
    3.8977   10.6361    8.6627 H   0  0  0  0  0  0  0  0  0  0  0  0
    5.2166   10.1409    8.7545 H   0  0  0  0  0  0  0  0  0  0  0  0
    6.2283   11.8711    7.2568 H   0  0  0  0  0  0  0  0  0  0  0  0
    6.1414   11.9180    5.5397 H   0  0  0  0  0  0  0  0  0  0  0  0
    1.5952    9.4855    6.8733 H   0  0  0  0  0  0  0  0  0  0  0  0
    5.6031   11.0265    3.3070 H   0  0  0  0  0  0  0  0  0  0  0  0
    4.7436   11.2765    1.5142 H   0  0  0  0  0  0  0  0  0  0  0  0
    3.1732   10.7502    2.1443 H   0  0  0  0  0  0  0  0  0  0  0  0
    4.0661    8.1762    3.7773 H   0  0  0  0  0  0  0  0  0  0  0  0
    4.9758    8.4032    1.7757 H   0  0  0  0  0  0  0  0  0  0  0  0
    5.0392    9.3583    0.3855 H   0  0  0  0  0  0  0  0  0  0  0  0
    2.6136    9.1962    0.3006 H   0  0  0  0  0  0  0  0  0  0  0  0
    2.6200    8.4467    1.9199 H   0  0  0  0  0  0  0  0  0  0  0  0
    4.4106    6.8459    0.4557 H   0  0  0  0  0  0  0  0  0  0  0  0
    3.2096    7.2922   -0.7597 H   0  0  0  0  0  0  0  0  0  0  0  0
    2.5209    5.1924    0.4990 H   0  0  0  0  0  0  0  0  0  0  0  0
    1.2908    6.4887    0.7502 H   0  0  0  0  0  0  0  0  0  0  0  0
    3.3851    5.7858    1.9039 H   0  0  0  0  0  0  0  0  0  0  0  0
    0.8432    7.1722    3.0282 H   0  0  0  0  0  0  0  0  0  0  0  0
    0.1344    6.4139    5.7135 H   0  0  0  0  0  0  0  0  0  0  0  0
    0.5875    8.1316    5.1537 H   0  0  0  0  0  0  0  0  0  0  0  0
    1.0201    7.8960   10.2331 H   0  0  0  0  0  0  0  0  0  0  0  0
   -1.1833   10.9336    8.5341 H   0  0  0  0  0  0  0  0  0  0  0  0
   -0.5340   10.8084   11.5796 H   0  0  0  0  0  0  0  0  0  0  0  0
   -1.9340   11.5789   10.8487 H   0  0  0  0  0  0  0  0  0  0  0  0
   -2.7234    9.2416    9.8912 H   0  0  0  0  0  0  0  0  0  0  0  0
   -1.2758    8.4773   10.5040 H   0  0  0  0  0  0  0  0  0  0  0  0
   10.8926    8.3726    5.7426 H   0  0  0  0  0  0  0  0  0  0  0  0
    7.2077   10.3637    5.4353 H   0  0  0  0  0  0  0  0  0  0  0  0
   10.7065   10.1863    8.0520 H   0  0  0  0  0  0  0  0  0  0  0  0
   11.3253   11.0548    6.5414 H   0  0  0  0  0  0  0  0  0  0  0  0
    9.9910   11.7210    7.5171 H   0  0  0  0  0  0  0  0  0  0  0  0
  1  2  2  0  0  0  0
  1 58  1  0  0  0  0
  2  3  1  0  0  0  0
  2 59  1  0  0  0  0
  3  4  2  0  0  0  0
  3 60  1  0  0  0  0
  4  5  1  0  0  0  0
  4 61  1  0  0  0  0
  5  7  1  0  0  0  0
  6  1  1  0  0  0  0
  6  5  2  0  0  0  0
  7  8  2  0  0  0  0
  7 15  1  0  0  0  0
  8  9  1  0  0  0  0
  9 10  2  0  0  0  0
 10  6  1  0  0  0  0
 10 11  1  0  0  0  0
 11 12  2  0  0  0  0
 11 62  1  0  0  0  0
 12 13  1  0  0  0  0
 12 63  1  0  0  0  0
 13 14  2  0  0  0  0
 13 64  1  0  0  0  0
 14  9  1  0  0  0  0
 14 65  1  0  0  0  0
 16 15  1  0  0  0  0
 16 17  1  0  0  0  0
 16 20  1  0  0  0  0
 16 66  1  1  0  0  0
 17 18  1  0  0  0  0
 17 67  1  0  0  0  0
 17 68  1  0  0  0  0
 18 19  1  0  0  0  0
 18 21  1  0  0  0  0
 18 48  1  6  0  0  0
 19 20  1  0  0  0  0
 19 24  1  0  0  0  0
 20 69  1  0  0  0  0
 20 70  1  0  0  0  0
 21 22  1  0  0  0  0
 21 23  2  0  0  0  0
 22 71  1  0  0  0  0
 24 25  1  0  0  0  0
 24 26  2  0  0  0  0
 25 27  1  0  0  0  0
 25 28  1  0  0  0  0
 25 72  1  6  0  0  0
 27 29  1  0  0  0  0
 27 73  1  0  0  0  0
 27 74  1  0  0  0  0
 28 49  1  0  0  0  0
 28 75  1  0  0  0  0
 29 30  1  0  0  0  0
 29 76  1  0  0  0  0
 29 77  1  0  0  0  0
 30 31  1  0  0  0  0
 30 78  1  0  0  0  0
 30 79  1  0  0  0  0
 31 32  1  0  0  0  0
 31 80  1  0  0  0  0
 31 81  1  0  0  0  0
 32 33  1  0  0  0  0
 32 82  1  0  0  0  0
 32 83  1  0  0  0  0
 33 34  2  0  0  0  0
 33 84  1  0  0  0  0
 34 35  1  0  0  0  0
 34 85  1  0  0  0  0
 35 37  1  0  0  0  0
 35 47  1  1  0  0  0
 36 22  1  0  0  0  0
 36 35  1  0  0  0  0
 36 38  1  6  0  0  0
 37 36  1  0  0  0  0
 37 86  1  0  0  0  0
 37 87  1  0  0  0  0
 38 39  2  0  0  0  0
 38 40  1  0  0  0  0
 40 41  1  0  0  0  0
 40 88  1  0  0  0  0
 41 42  1  0  0  0  0
 41 45  2  0  0  0  0
 41 46  2  0  0  0  0
 42 43  1  0  0  0  0
 42 89  1  0  0  0  0
 43 44  1  0  0  0  0
 43 90  1  0  0  0  0
 43 91  1  0  0  0  0
 44 42  1  0  0  0  0
 44 92  1  0  0  0  0
 44 93  1  0  0  0  0
 49 50  1  0  0  0  0
 49 51  2  0  0  0  0
 50 52  1  0  0  0  0
 50 56  2  0  0  0  0
 52 53  2  0  0  0  0
 53 54  1  0  0  0  0
 53 94  1  0  0  0  0
 54 55  2  0  0  0  0
 54 57  1  0  0  0  0
 55 56  1  0  0  0  0
 56 95  1  0  0  0  0
 57 96  1  0  0  0  0
 57 97  1  0  0  0  0
 57 98  1  0  0  0  0
M  END
>  <DRUGBANK_ID>
DB09297

>  <COMMON_NAME>
Paritaprevir

>  <CAS_NUMBER>
1216941-48-8

>  <UNII>
OU2YM37K86

>  <SYNONYMS>
(2R,6S,12Z,13aR,14aR,16aS)-N-(cyclopropanesulfonyl)-6-[(5-methylpyrazine-2-carbonyl)amino]-5,16-dioxo-2-[(phenanthridin-6-yl)oxy]-1,2,3,6,7,8,9,10,11,13a,14,15,16,16a-tetradecahydrocyclopropa[e]pyrrolo[1,2-a][1,4]diazacyclopentadecine-14a(5H)-carboxamide; Paritaprevir; Veruprevir

$$$$
