
 OpenBabel10282417183D

 32 33  0  0  1  0  0  0  0  0999 V2000
    0.2264    1.3290   -0.3595 C   0  0  2  0  0  0  0  0  0  0  0  0
    0.9856   -0.0081   -0.0479 C   0  0  0  0  0  0  0  0  0  0  0  0
    2.1886   -0.0500    0.2044 O   0  0  0  0  0  0  0  0  0  0  0  0
   -1.2091    1.2185    0.2497 C   0  0  0  0  0  0  0  0  0  0  0  0
    0.2147   -1.3105   -0.2584 C   0  0  0  0  0  0  0  0  0  0  0  0
   -1.9945   -0.0422   -0.0609 C   0  0  0  0  0  0  0  0  0  0  0  0
   -1.1966   -1.2806    0.3158 C   0  0  0  0  0  0  0  0  0  0  0  0
    0.2764    1.5851   -1.8921 C   0  0  0  0  0  0  0  0  0  0  0  0
    0.8632    2.4095    0.4491 N   0  0  0  0  0  0  0  0  0  0  0  0
   -0.4343    0.7099   -2.7463 C   0  0  0  0  0  0  0  0  0  0  0  0
   -0.5502    0.8982   -4.1200 C   0  0  0  0  0  0  0  0  0  0  0  0
    0.0265    2.0057   -4.7023 C   0  0  0  0  0  0  0  0  0  0  0  0
    0.9854    2.6139   -2.5552 C   0  0  0  0  0  0  0  0  0  0  0  0
    0.7817    2.8658   -3.9193 C   0  0  0  0  0  0  0  0  0  0  0  0
    0.1719    3.6997    0.3809 C   0  0  0  0  0  0  0  0  0  0  0  0
    2.2483    3.5968   -1.8745 Cl  0  0  0  0  0  0  0  0  0  0  0  0
   -1.1335    1.2604    1.3501 H   0  0  0  0  0  0  0  0  0  0  0  0
   -1.8230    2.0751   -0.0528 H   0  0  0  0  0  0  0  0  0  0  0  0
    0.1991   -1.5343   -1.3283 H   0  0  0  0  0  0  0  0  0  0  0  0
    0.7742   -2.1313    0.2035 H   0  0  0  0  0  0  0  0  0  0  0  0
   -2.9398   -0.0240    0.4940 H   0  0  0  0  0  0  0  0  0  0  0  0
   -2.3095   -0.0575   -1.1040 H   0  0  0  0  0  0  0  0  0  0  0  0
   -1.1321   -1.3296    1.4092 H   0  0  0  0  0  0  0  0  0  0  0  0
   -1.7460   -2.1701   -0.0119 H   0  0  0  0  0  0  0  0  0  0  0  0
    1.8307    2.5014    0.1229 H   0  0  0  0  0  0  0  0  0  0  0  0
   -0.9080   -0.1926   -2.3892 H   0  0  0  0  0  0  0  0  0  0  0  0
   -1.0960    0.1714   -4.7156 H   0  0  0  0  0  0  0  0  0  0  0  0
   -0.0634    2.1736   -5.7689 H   0  0  0  0  0  0  0  0  0  0  0  0
    1.2548    3.7268   -4.3842 H   0  0  0  0  0  0  0  0  0  0  0  0
    0.8244    4.4892    0.7634 H   0  0  0  0  0  0  0  0  0  0  0  0
   -0.1259    3.9863   -0.6326 H   0  0  0  0  0  0  0  0  0  0  0  0
   -0.7374    3.7031    0.9843 H   0  0  0  0  0  0  0  0  0  0  0  0
  1  9  1  1  0  0  0
  1  8  1  0  0  0  0
  2  1  1  0  0  0  0
  3  2  2  0  0  0  0
  4  1  1  0  0  0  0
  4 17  1  0  0  0  0
  4 18  1  0  0  0  0
  5  2  1  0  0  0  0
  5 19  1  0  0  0  0
  5 20  1  0  0  0  0
  6  4  1  0  0  0  0
  6 21  1  0  0  0  0
  6 22  1  0  0  0  0
  7  5  1  0  0  0  0
  7  6  1  0  0  0  0
  7 23  1  0  0  0  0
  7 24  1  0  0  0  0
  8 10  2  0  0  0  0
  9 15  1  0  0  0  0
  9 25  1  0  0  0  0
 10 26  1  0  0  0  0
 11 10  1  0  0  0  0
 11 27  1  0  0  0  0
 12 11  2  0  0  0  0
 12 28  1  0  0  0  0
 13  8  1  0  0  0  0
 13 16  1  0  0  0  0
 14 12  1  0  0  0  0
 14 13  2  0  0  0  0
 14 29  1  0  0  0  0
 15 30  1  0  0  0  0
 15 31  1  0  0  0  0
 15 32  1  0  0  0  0
M  END
>  <DRUGBANK_ID>
DB11823

>  <COMMON_NAME>
Esketamine

>  <CAS_NUMBER>
33643-46-8

>  <UNII>
50LFG02TXD

>  <SYNONYMS>
(-)-Ketamine; (−)-ketamine; (S)-(−)-ketamine; (S)-2-(o-chlorophenyl)-2-(methylamino)cyclohexanone; (S)-ketamine; Esketamine; L-ketamine; S-(-)-Ketamine; S-ketamine

$$$$
