
 OpenBabel10282417203D

 43 44  0  0  0  0  0  0  0  0999 V2000
    0.8642    0.0243    0.0318 C   0  0  0  0  0  0  0  0  0  0  0  0
    2.2737    0.3258    0.1660 C   0  0  0  0  0  0  0  0  0  0  0  0
    0.2120   -1.2648    0.0605 C   0  0  0  0  0  0  0  0  0  0  0  0
    3.3337    0.8412   -1.2788 C   0  0  0  0  0  0  0  0  0  0  0  0
    5.6206   -0.7557    0.2543 N   0  0  0  0  0  0  0  0  0  0  0  0
    0.7020   -2.5797    0.0343 O   0  0  0  0  0  0  0  0  0  0  0  0
    0.3032    1.2892    0.0132 C   0  0  0  0  0  0  0  0  0  0  0  0
   -1.1497   -1.1218    0.0115 C   0  0  0  0  0  0  0  0  0  0  0  0
    4.1825   -0.9112    0.1821 C   0  0  0  0  0  0  0  0  0  0  0  0
    5.8750    0.1534    1.4276 C   0  0  0  0  0  0  0  0  0  0  0  0
    2.0726   -3.1323    0.0336 C   0  0  0  0  0  0  0  0  0  0  0  0
    3.4043    2.1279   -1.5072 C   0  0  0  0  0  0  0  0  0  0  0  0
    4.4909   -0.0261   -2.0924 C   0  0  0  0  0  0  0  0  0  0  0  0
    2.9702   -1.4936   -1.2092 C   0  0  0  0  0  0  0  0  0  0  0  0
    2.9122   -2.9077   -1.1971 C   0  0  0  0  0  0  0  0  0  0  0  0
   -1.0053    1.3776    0.0589 C   0  0  0  0  0  0  0  0  0  0  0  0
   -1.7420    0.1857    0.0030 C   0  0  0  0  0  0  0  0  0  0  0  0
    4.2707    2.4954   -2.5648 C   0  0  0  0  0  0  0  0  0  0  0  0
    5.3101    0.3244   -3.1304 C   0  0  0  0  0  0  0  0  0  0  0  0
    5.1162    1.6163   -3.3800 C   0  0  0  0  0  0  0  0  0  0  0  0
    2.5107    0.8503    1.1183 H   0  0  0  0  0  0  0  0  0  0  0  0
    2.3492   -0.6790    0.5981 H   0  0  0  0  0  0  0  0  0  0  0  0
    5.9455   -1.6928    0.3911 H   0  0  0  0  0  0  0  0  0  0  0  0
    0.9823    2.1476    0.0151 H   0  0  0  0  0  0  0  0  0  0  0  0
   -1.7858   -2.0034   -0.0374 H   0  0  0  0  0  0  0  0  0  0  0  0
    4.0979    0.1747    0.4177 H   0  0  0  0  0  0  0  0  0  0  0  0
    3.8609   -1.3174    1.1478 H   0  0  0  0  0  0  0  0  0  0  0  0
    5.3336   -0.1969    2.3203 H   0  0  0  0  0  0  0  0  0  0  0  0
    6.9381    0.2023    1.6165 H   0  0  0  0  0  0  0  0  0  0  0  0
    5.5288    1.2045    1.2912 H   0  0  0  0  0  0  0  0  0  0  0  0
    2.5961   -2.8214    0.9418 H   0  0  0  0  0  0  0  0  0  0  0  0
    2.0674   -4.2235    0.0690 H   0  0  0  0  0  0  0  0  0  0  0  0
    2.8744    2.8304   -0.8653 H   0  0  0  0  0  0  0  0  0  0  0  0
    4.7456   -1.1074   -1.9731 H   0  0  0  0  0  0  0  0  0  0  0  0
    2.9856   -1.2001   -2.2947 H   0  0  0  0  0  0  0  0  0  0  0  0
    1.9456   -1.1041   -1.3087 H   0  0  0  0  0  0  0  0  0  0  0  0
    3.9673   -3.1708   -1.1424 H   0  0  0  0  0  0  0  0  0  0  0  0
    2.4767   -3.1791   -2.1653 H   0  0  0  0  0  0  0  0  0  0  0  0
   -1.3940    2.3879    0.1229 H   0  0  0  0  0  0  0  0  0  0  0  0
   -2.8049    0.2936   -0.0746 H   0  0  0  0  0  0  0  0  0  0  0  0
    4.3220    3.5373   -2.7872 H   0  0  0  0  0  0  0  0  0  0  0  0
    5.9524   -0.4171   -3.6236 H   0  0  0  0  0  0  0  0  0  0  0  0
    5.6463    2.0098   -4.2395 H   0  0  0  0  0  0  0  0  0  0  0  0
  1  2  1  0  0  0  0
  1  3  1  0  0  0  0
  1  7  2  0  0  0  0
  2  4  1  0  0  0  0
  2 21  1  0  0  0  0
  2 22  1  0  0  0  0
  3  6  1  0  0  0  0
  3  8  2  0  0  0  0
  4 12  1  0  0  0  0
  4 13  2  0  0  0  0
  5  9  1  0  0  0  0
  5 10  1  0  0  0  0
  5 23  1  0  0  0  0
  6 11  1  0  0  0  0
  7 16  1  0  0  0  0
  7 24  1  0  0  0  0
  8 17  1  0  0  0  0
  8 25  1  0  0  0  0
  9 14  1  0  0  0  0
  9 26  1  0  0  0  0
  9 27  1  0  0  0  0
 10 28  1  0  0  0  0
 10 29  1  0  0  0  0
 10 30  1  0  0  0  0
 11 15  1  0  0  0  0
 11 31  1  0  0  0  0
 11 32  1  0  0  0  0
 12 18  2  0  0  0  0
 12 33  1  0  0  0  0
 13 19  1  0  0  0  0
 13 34  1  0  0  0  0
 14 15  1  0  0  0  0
 14 35  1  0  0  0  0
 14 36  1  0  0  0  0
 15 37  1  0  0  0  0
 15 38  1  0  0  0  0
 16 17  2  0  0  0  0
 16 39  1  0  0  0  0
 17 40  1  0  0  0  0
 18 20  1  0  0  0  0
 18 41  1  0  0  0  0
 19 20  2  0  0  0  0
 19 42  1  0  0  0  0
 20 43  1  0  0  0  0
M  END
>  <DRUGBANK_ID>
DB13550

>  <COMMON_NAME>
Bifemelane

>  <CAS_NUMBER>
90293-01-9

>  <UNII>
Z4501GN13G

>  <SYNONYMS>
Bifemelane; Bifemelano; Bifemelanum

$$$$
