
 OpenBabel10282417133D

 15 14  0  0  0  0  0  0  0  0999 V2000
    1.0313    0.0017    0.0538 O   0  0  0  0  0  0  0  0  0  0  0  0
    2.2582    0.0171    0.0753 C   0  0  0  0  0  0  0  0  0  0  0  0
    3.0629    0.4924    1.2586 C   0  0  0  0  0  0  0  0  0  0  0  0
    3.9949   -0.6009    1.7795 C   0  0  0  0  0  0  0  0  0  0  0  0
    5.0350   -1.0648    0.7607 C   0  0  0  0  0  0  0  0  0  0  0  0
    5.9515    0.0609    0.3526 C   0  0  0  0  0  0  0  0  0  0  0  0
    7.1699    0.0268    0.4953 O   0  0  0  0  0  0  0  0  0  0  0  0
    2.8346   -0.2928   -0.8125 H   0  0  0  0  0  0  0  0  0  0  0  0
    3.6221    1.3839    0.9593 H   0  0  0  0  0  0  0  0  0  0  0  0
    2.3719    0.8003    2.0503 H   0  0  0  0  0  0  0  0  0  0  0  0
    4.5086   -0.2301    2.6759 H   0  0  0  0  0  0  0  0  0  0  0  0
    3.3963   -1.4659    2.0927 H   0  0  0  0  0  0  0  0  0  0  0  0
    5.6403   -1.8709    1.1881 H   0  0  0  0  0  0  0  0  0  0  0  0
    4.5601   -1.4660   -0.1396 H   0  0  0  0  0  0  0  0  0  0  0  0
    5.4712    0.9299   -0.1276 H   0  0  0  0  0  0  0  0  0  0  0  0
  1  2  2  0  0  0  0
  2  3  1  0  0  0  0
  2  8  1  0  0  0  0
  3  4  1  0  0  0  0
  3  9  1  0  0  0  0
  3 10  1  0  0  0  0
  4  5  1  0  0  0  0
  4 11  1  0  0  0  0
  4 12  1  0  0  0  0
  5  6  1  0  0  0  0
  5 13  1  0  0  0  0
  5 14  1  0  0  0  0
  6  7  2  0  0  0  0
  6 15  1  0  0  0  0
M  END
>  <DRUGBANK_ID>
DB03266

>  <SECONDARY_ACCESSION_NUMBERS>
EXPT02681

>  <COMMON_NAME>
Glutaral

>  <CAS_NUMBER>
111-30-8

>  <UNII>
T3C89M417N

>  <SYNONYMS>
Glutaral; Pentanedial

$$$$
