BTD
 OpenBabel10282417133D

 35 37  0  0  0  0  0  0  0  0999 V2000
    0.9142    0.1155    0.1432 O   0  0  0  0  0  0  0  0  0  0  0  0
    0.5068   -1.0397    0.8752 C   0  0  0  0  0  0  0  0  0  0  0  0
    1.1642   -2.3063    0.3085 C   0  0  1  0  0  0  0  0  0  0  0  0
    2.4656   -1.9147   -0.1950 O   0  0  0  0  0  0  0  0  0  0  0  0
    3.4717   -2.2807    0.7673 C   0  0  1  0  0  0  0  0  0  0  0  0
    4.2939   -1.1058    1.0736 N   0  0  0  0  0  0  0  0  0  0  0  0
    3.7531    0.0278    1.6664 C   0  0  0  0  0  0  0  0  0  0  0  0
    5.6166   -1.1162    0.6435 C   0  0  0  0  0  0  0  0  0  0  0  0
    6.1516   -2.0519    0.0582 O   0  0  0  0  0  0  0  0  0  0  0  0
    6.3344    0.0178    0.9265 N   0  0  0  0  0  0  0  0  0  0  0  0
    5.8094    1.2270    1.2832 C   0  0  0  0  0  0  0  0  0  0  0  0
    6.4922    2.2510    1.2653 O   0  0  0  0  0  0  0  0  0  0  0  0
    4.3961    1.2040    1.7272 C   0  0  0  0  0  0  0  0  0  0  0  0
    3.7349    2.3682    2.2152 C   0  0  0  0  0  0  0  0  0  0  0  0
    3.1889    2.6033    3.4678 C   0  0  0  0  0  0  0  0  0  0  0  0
    2.5768    3.8876    3.5815 C   0  0  0  0  0  0  0  0  0  0  0  0
    2.6919    4.5953    2.4141 C   0  0  0  0  0  0  0  0  0  0  0  0
    3.4866    3.7387    1.1901 S   0  0  0  0  0  0  0  0  0  0  0  0
    2.0344    6.3369    2.1966 Br  0  0  0  0  0  0  0  0  0  0  0  0
    2.7625   -2.9069    1.9640 C   0  0  0  0  0  0  0  0  0  0  0  0
    1.4378   -3.3567    1.3832 C   0  0  2  0  0  0  0  0  0  0  0  0
    1.5842   -4.6633    0.8292 O   0  0  0  0  0  0  0  0  0  0  0  0
    0.5761   -2.7033   -0.5276 H   0  0  0  0  0  0  0  0  0  0  0  0
    4.0717   -3.0497    0.2678 H   0  0  0  0  0  0  0  0  0  0  0  0
    0.6446   -3.4151    2.1345 H   0  0  0  0  0  0  0  0  0  0  0  0
    1.8445   -0.0424   -0.1226 H   0  0  0  0  0  0  0  0  0  0  0  0
    0.7934   -0.8783    1.9172 H   0  0  0  0  0  0  0  0  0  0  0  0
   -0.5832   -1.1047    0.8513 H   0  0  0  0  0  0  0  0  0  0  0  0
    2.7445   -0.0493    2.0489 H   0  0  0  0  0  0  0  0  0  0  0  0
    7.2991    0.0201    0.6350 H   0  0  0  0  0  0  0  0  0  0  0  0
    3.2361    1.8842    4.2759 H   0  0  0  0  0  0  0  0  0  0  0  0
    2.0941    4.2607    4.4761 H   0  0  0  0  0  0  0  0  0  0  0  0
    2.5865   -2.1741    2.7565 H   0  0  0  0  0  0  0  0  0  0  0  0
    3.3605   -3.7172    2.3902 H   0  0  0  0  0  0  0  0  0  0  0  0
    2.2246   -4.6372    0.0959 H   0  0  0  0  0  0  0  0  0  0  0  0
  1  2  1  0  0  0  0
  1 26  1  0  0  0  0
  2 27  1  0  0  0  0
  2 28  1  0  0  0  0
  3  2  1  0  0  0  0
  3  4  1  0  0  0  0
  3 21  1  0  0  0  0
  3 23  1  6  0  0  0
  4  5  1  0  0  0  0
  5 20  1  0  0  0  0
  5 24  1  6  0  0  0
  5  6  1  0  0  0  0
  6  7  1  0  0  0  0
  6  8  1  0  0  0  0
  7 13  2  0  0  0  0
  7 29  1  0  0  0  0
  8  9  2  0  0  0  0
  8 10  1  0  0  0  0
 10 11  1  0  0  0  0
 10 30  1  0  0  0  0
 11 12  2  0  0  0  0
 11 13  1  0  0  0  0
 13 14  1  0  0  0  0
 14 15  2  0  0  0  0
 14 18  1  0  0  0  0
 15 16  1  0  0  0  0
 15 31  1  0  0  0  0
 16 17  2  0  0  0  0
 16 32  1  0  0  0  0
 17 18  1  0  0  0  0
 17 19  1  0  0  0  0
 20 21  1  0  0  0  0
 20 33  1  0  0  0  0
 20 34  1  0  0  0  0
 21 22  1  0  0  0  0
 21 25  1  1  0  0  0
 22 35  1  0  0  0  0
M  END
>  <DRUGBANK_ID>
DB03804

>  <SECONDARY_ACCESSION_NUMBERS>
EXPT00766

>  <COMMON_NAME>
5-Bromothienyldeoxyuridine

$$$$
