
 OpenBabel10282417153D

 55 57  0  0  0  0  0  0  0  0999 V2000
    1.4640   -1.7569    0.1917 C   0  0  0  0  0  0  0  0  0  0  0  0
    2.7714   -0.8049    0.4847 C   0  0  0  0  0  0  0  0  0  0  0  0
    2.7352    0.7464    0.0431 C   0  0  0  0  0  0  0  0  0  0  0  0
    1.3542    1.5231    0.4277 C   0  0  2  0  0  0  0  0  0  0  0  0
   -0.0170   -0.9832    0.5641 C   0  0  1  0  0  0  0  0  0  0  0  0
    0.0623    0.5759    0.1106 C   0  0  1  0  0  0  0  0  0  0  0  0
   -1.2747    1.3555   -0.1223 C   0  0  0  0  0  0  0  0  0  0  0  0
   -2.6215    0.6797   -0.0986 C   0  0  0  0  0  0  0  0  0  0  0  0
   -2.6351   -0.7842    0.3000 C   0  0  2  0  0  0  0  0  0  0  0  0
   -1.3998   -1.6139   -0.2078 C   0  0  2  0  0  0  0  0  0  0  0  0
   -3.8672   -1.3173   -0.1997 O   0  0  0  0  0  0  0  0  0  0  0  0
   -1.5019   -3.0731    0.2339 C   0  0  0  0  0  0  0  0  0  0  0  0
   -1.5031   -1.6398   -1.8333 C   0  0  0  0  0  0  0  0  0  0  0  0
   -0.1650   -1.1093    1.6591 H   0  0  0  0  0  0  0  0  0  0  0  0
    0.4929    0.2467   -1.2826 C   0  0  0  0  0  0  0  0  0  0  0  0
    1.1060    2.8573   -0.4296 C   0  0  0  0  0  0  0  0  0  0  0  0
    1.4473    6.2668    1.2531 C   0  0  0  0  0  0  0  0  0  0  0  0
    2.5797    6.9902    1.1928 O   0  0  0  0  0  0  0  0  0  0  0  0
    3.1931    6.7390   -0.0787 C   0  0  0  0  0  0  0  0  0  0  0  0
    2.7598    5.3642   -0.5148 C   0  0  2  0  0  0  0  0  0  0  0  0
    1.5954    5.1259    0.3670 C   0  0  0  0  0  0  0  0  0  0  0  0
    0.8199    4.0355    0.4290 C   0  0  0  0  0  0  0  0  0  0  0  0
    3.7964    4.4123   -0.3129 O   0  0  0  0  0  0  0  0  0  0  0  0
    0.4497    6.5239    1.9706 O   0  0  0  0  0  0  0  0  0  0  0  0
    3.5952    1.2107   -0.9092 C   0  0  0  0  0  0  0  0  0  0  0  0
   -0.5394   -2.4862   -2.4789 O   0  0  0  0  0  0  0  0  0  0  0  0
    1.5359   -1.9839   -0.8933 H   0  0  0  0  0  0  0  0  0  0  0  0
    1.5460   -2.7984    0.5571 H   0  0  0  0  0  0  0  0  0  0  0  0
    3.6334   -1.2732   -0.0339 H   0  0  0  0  0  0  0  0  0  0  0  0
    2.9613   -0.8278    1.5549 H   0  0  0  0  0  0  0  0  0  0  0  0
    1.4356    1.7858    1.4919 H   0  0  0  0  0  0  0  0  0  0  0  0
   -1.2435    1.6997   -1.1699 H   0  0  0  0  0  0  0  0  0  0  0  0
   -1.3480    2.2833    0.4560 H   0  0  0  0  0  0  0  0  0  0  0  0
   -3.0785    0.8099   -1.0944 H   0  0  0  0  0  0  0  0  0  0  0  0
   -3.2910    1.2612    0.5523 H   0  0  0  0  0  0  0  0  0  0  0  0
   -2.7008   -0.8300    1.3928 H   0  0  0  0  0  0  0  0  0  0  0  0
   -3.9021   -1.1668   -1.1614 H   0  0  0  0  0  0  0  0  0  0  0  0
   -1.5275   -3.1512    1.3237 H   0  0  0  0  0  0  0  0  0  0  0  0
   -2.3922   -3.5626   -0.1748 H   0  0  0  0  0  0  0  0  0  0  0  0
   -0.6256   -3.6179   -0.1264 H   0  0  0  0  0  0  0  0  0  0  0  0
   -2.4631   -2.0015   -2.1996 H   0  0  0  0  0  0  0  0  0  0  0  0
   -1.4677   -0.6263   -2.2757 H   0  0  0  0  0  0  0  0  0  0  0  0
    0.8719    0.8960   -2.0387 H   0  0  0  0  0  0  0  0  0  0  0  0
    1.4114   -0.1622   -1.0415 H   0  0  0  0  0  0  0  0  0  0  0  0
    0.2074   -0.6851   -1.6248 H   0  0  0  0  0  0  0  0  0  0  0  0
    1.8940    3.0740   -1.1433 H   0  0  0  0  0  0  0  0  0  0  0  0
    0.2763    2.8001   -1.1422 H   0  0  0  0  0  0  0  0  0  0  0  0
    4.2808    6.8150    0.0060 H   0  0  0  0  0  0  0  0  0  0  0  0
    2.8232    7.5064   -0.7637 H   0  0  0  0  0  0  0  0  0  0  0  0
    2.4871    5.3504   -1.5765 H   0  0  0  0  0  0  0  0  0  0  0  0
   -0.0164    3.9797    1.1220 H   0  0  0  0  0  0  0  0  0  0  0  0
    3.9604    4.3180    0.6414 H   0  0  0  0  0  0  0  0  0  0  0  0
    3.5228    2.1840   -1.3970 H   0  0  0  0  0  0  0  0  0  0  0  0
    4.3821    0.6146   -1.3678 H   0  0  0  0  0  0  0  0  0  0  0  0
    0.3121   -2.0304   -2.6090 H   0  0  0  0  0  0  0  0  0  0  0  0
  1  2  1  0  0  0  0
  1 27  1  0  0  0  0
  1 28  1  0  0  0  0
  2  3  1  0  0  0  0
  2 29  1  0  0  0  0
  2 30  1  0  0  0  0
  3  4  1  0  0  0  0
  3 25  2  0  0  0  0
  4  6  1  0  0  0  0
  4 31  1  1  0  0  0
  4 16  1  0  0  0  0
  5  1  1  0  0  0  0
  5 14  1  1  0  0  0
  5 10  1  0  0  0  0
  5  6  1  0  0  0  0
  6 15  1  6  0  0  0
  6  7  1  0  0  0  0
  7  8  1  0  0  0  0
  7 32  1  0  0  0  0
  7 33  1  0  0  0  0
  8  9  1  0  0  0  0
  8 34  1  0  0  0  0
  8 35  1  0  0  0  0
  9 10  1  0  0  0  0
  9 11  1  0  0  0  0
  9 36  1  1  0  0  0
 10 13  1  6  0  0  0
 10 12  1  0  0  0  0
 11 37  1  0  0  0  0
 12 38  1  0  0  0  0
 12 39  1  0  0  0  0
 12 40  1  0  0  0  0
 13 26  1  0  0  0  0
 13 41  1  0  0  0  0
 13 42  1  0  0  0  0
 15 43  1  0  0  0  0
 15 44  1  0  0  0  0
 15 45  1  0  0  0  0
 16 22  1  0  0  0  0
 16 46  1  0  0  0  0
 16 47  1  0  0  0  0
 17 18  1  0  0  0  0
 17 24  2  0  0  0  0
 18 19  1  0  0  0  0
 19 20  1  0  0  0  0
 19 48  1  0  0  0  0
 19 49  1  0  0  0  0
 20 21  1  0  0  0  0
 20 23  1  0  0  0  0
 20 50  1  6  0  0  0
 21 17  1  0  0  0  0
 21 22  2  0  0  0  0
 22 51  1  0  0  0  0
 23 52  1  0  0  0  0
 25 53  1  0  0  0  0
 25 54  1  0  0  0  0
 26 55  1  0  0  0  0
M  END
>  <DRUGBANK_ID>
DB05767

>  <COMMON_NAME>
Andrographolide

>  <CAS_NUMBER>
5508-58-7

>  <UNII>
410105JHGR

>  <SYNONYMS>
3α,14,15,18-tetrahydroxy-5b,9bH,10a-labda-8(20),12-dien-16-oic acid γ-Lactone

$$$$
