
 OpenBabel10282417243D

 55 58  0  0  1  0  0  0  0  0999 V2000
   -1.8635    0.7460    0.4248 H   0  0  0  0  0  0  0  0  0  0  0  0
   -1.9395    0.8649   -0.6401 C   0  0  2  0  0  0  0  0  0  0  0  0
   -1.8401    2.8167   -1.3711 C   0  0  0  0  0  0  0  0  0  0  0  0
   -2.1848    4.0194   -0.3976 C   0  0  1  0  0  0  0  0  0  0  0  0
   -3.2466    4.6936   -1.1790 O   0  0  0  0  0  0  0  0  0  0  0  0
   -2.0999    2.7245    0.3190 C   0  0  2  0  0  0  0  0  0  0  0  0
   -2.5449    2.8830    1.6734 O   0  0  0  0  0  0  0  0  0  0  0  0
   -0.3974    2.2575    0.4822 C   0  0  0  0  0  0  0  0  0  0  0  0
   -0.0264    1.5562    1.7451 C   0  0  0  0  0  0  0  0  0  0  0  0
    0.4277    2.1992   -0.4549 O   0  0  0  0  0  0  0  0  0  0  0  0
   -3.0804    1.7181   -0.8912 C   0  0  2  0  0  0  0  0  0  0  0  0
   -2.5260    1.2367   -2.6765 C   0  0  0  0  0  0  0  0  0  0  0  0
   -4.4662    1.4998   -0.4265 C   0  0  0  0  0  0  0  0  0  0  0  0
   -4.9559    0.3580   -1.2103 C   0  0  0  0  0  0  0  0  0  0  0  0
   -4.2502   -0.8970   -0.7824 C   0  0  1  0  0  0  0  0  0  0  0  0
   -4.5388   -1.1191    0.2600 H   0  0  0  0  0  0  0  0  0  0  0  0
   -2.7294   -0.7661   -0.8568 C   0  0  1  0  0  0  0  0  0  0  0  0
   -2.2563   -0.9906   -1.7724 H   0  0  0  0  0  0  0  0  0  0  0  0
   -2.4012   -2.2718   -0.3305 C   0  0  0  0  0  0  0  0  0  0  0  0
   -3.1781   -3.5796   -1.3569 C   0  0  0  0  0  0  0  0  0  0  0  0
   -4.7135   -3.3388   -2.1059 C   0  0  0  0  0  0  0  0  0  0  0  0
   -5.6254   -3.2366   -3.2725 C   0  0  0  0  0  0  0  0  0  0  0  0
   -5.8609   -1.5631   -3.7144 C   0  0  0  0  0  0  0  0  0  0  0  0
   -6.9492   -0.9138   -3.5949 O   0  0  0  0  0  0  0  0  0  0  0  0
   -4.5582   -0.9543   -4.0708 C   0  0  0  0  0  0  0  0  0  0  0  0
   -3.8156   -1.8870   -3.2303 C   0  0  0  0  0  0  0  0  0  0  0  0
   -4.8064   -1.9768   -1.6896 C   0  0  2  0  0  0  0  0  0  0  0  0
   -6.3317   -2.2839   -1.0974 C   0  0  0  0  0  0  0  0  0  0  0  0
   -2.5559    3.1082   -2.2128 H   0  0  0  0  0  0  0  0  0  0  0  0
   -0.8919    3.0379   -1.8601 H   0  0  0  0  0  0  0  0  0  0  0  0
   -2.9003    4.2660    0.3921 H   0  0  0  0  0  0  0  0  0  0  0  0
   -3.4647    5.5403   -0.7249 H   0  0  0  0  0  0  0  0  0  0  0  0
   -2.0733    3.6929    1.9864 H   0  0  0  0  0  0  0  0  0  0  0  0
    0.2051    0.5074    1.5181 H   0  0  0  0  0  0  0  0  0  0  0  0
    0.8397    2.0761    2.1427 H   0  0  0  0  0  0  0  0  0  0  0  0
   -0.8529    1.5574    2.4486 H   0  0  0  0  0  0  0  0  0  0  0  0
   -2.0293    0.2757   -2.8104 H   0  0  0  0  0  0  0  0  0  0  0  0
   -3.2536    1.4970   -3.4277 H   0  0  0  0  0  0  0  0  0  0  0  0
   -1.6103    1.7548   -3.0676 H   0  0  0  0  0  0  0  0  0  0  0  0
   -5.1136    2.3503   -0.6720 H   0  0  0  0  0  0  0  0  0  0  0  0
   -4.5054    1.3500    0.6555 H   0  0  0  0  0  0  0  0  0  0  0  0
   -6.0349    0.2985   -1.3139 H   0  0  0  0  0  0  0  0  0  0  0  0
   -4.6700    0.6072   -2.2055 H   0  0  0  0  0  0  0  0  0  0  0  0
   -2.6941   -2.4384    0.7236 H   0  0  0  0  0  0  0  0  0  0  0  0
   -1.3128   -2.4048   -0.3526 H   0  0  0  0  0  0  0  0  0  0  0  0
   -3.2237   -4.4834   -0.7396 H   0  0  0  0  0  0  0  0  0  0  0  0
   -2.4038   -3.7339   -2.1161 H   0  0  0  0  0  0  0  0  0  0  0  0
   -5.6686   -3.5238   -4.3336 H   0  0  0  0  0  0  0  0  0  0  0  0
   -4.3765   -0.9194   -5.1325 H   0  0  0  0  0  0  0  0  0  0  0  0
   -4.1587   -0.0600   -3.6661 H   0  0  0  0  0  0  0  0  0  0  0  0
   -3.6802   -2.8125   -3.8727 H   0  0  0  0  0  0  0  0  0  0  0  0
   -2.7407   -1.7961   -3.1178 H   0  0  0  0  0  0  0  0  0  0  0  0
   -7.1178   -2.6248   -1.7952 H   0  0  0  0  0  0  0  0  0  0  0  0
   -6.3176   -3.0939   -0.3387 H   0  0  0  0  0  0  0  0  0  0  0  0
   -6.7799   -1.4144   -0.6289 H   0  0  0  0  0  0  0  0  0  0  0  0
  2  3  1  0  0  0  0
  2 11  1  0  0  0  0
  2 17  1  0  0  0  0
  2  1  1  6  0  0  0
  3 29  1  0  0  0  0
  3 30  1  0  0  0  0
  4  3  1  0  0  0  0
  4  5  1  0  0  0  0
  4 31  1  1  0  0  0
  5 32  1  0  0  0  0
  6  4  1  0  0  0  0
  6  7  1  1  0  0  0
  6  8  1  0  0  0  0
  7 33  1  0  0  0  0
  8  9  1  0  0  0  0
  8 10  2  0  0  0  0
  9 34  1  0  0  0  0
  9 35  1  0  0  0  0
  9 36  1  0  0  0  0
 11  6  1  0  0  0  0
 11 13  1  0  0  0  0
 11 12  1  1  0  0  0
 12 37  1  0  0  0  0
 12 38  1  0  0  0  0
 12 39  1  0  0  0  0
 13 14  1  0  0  0  0
 13 40  1  0  0  0  0
 13 41  1  0  0  0  0
 14 42  1  0  0  0  0
 14 43  1  0  0  0  0
 15 14  1  0  0  0  0
 15 27  1  0  0  0  0
 15 16  1  6  0  0  0
 17 15  1  0  0  0  0
 17 19  1  0  0  0  0
 17 18  1  1  0  0  0
 19 20  1  0  0  0  0
 19 44  1  0  0  0  0
 19 45  1  0  0  0  0
 20 21  1  0  0  0  0
 20 46  1  0  0  0  0
 20 47  1  0  0  0  0
 21 22  2  0  0  0  0
 22 23  1  0  0  0  0
 22 48  1  0  0  0  0
 23 25  1  0  0  0  0
 23 24  2  0  0  0  0
 25 26  1  0  0  0  0
 25 49  1  0  0  0  0
 25 50  1  0  0  0  0
 26 51  1  0  0  0  0
 26 52  1  0  0  0  0
 27 26  1  0  0  0  0
 27 21  1  0  0  0  0
 27 28  1  6  0  0  0
 28 53  1  0  0  0  0
 28 54  1  0  0  0  0
 28 55  1  0  0  0  0
M  END
>  <DRUGBANK_ID>
DB18000

>  <COMMON_NAME>
Algestone

>  <CAS_NUMBER>
595-77-7

>  <UNII>
3JEB53B3WT

>  <SYNONYMS>
(16.alpha.)-16,17-dihydroxypregn-4-ene-3,20-dione; 16.alpha.,17-dihydroxypregn-4-ene-3,20-dione; 16.alpha.,17-dihydroxyprogesterone; 4-pregnene-16.alpha.,17.alpha.-diol-3,20-dione; Alphasone

$$$$
