IOC
 OpenBabel10282417143D

 34 35  0  0  0  0  0  0  0  0999 V2000
    1.2142   -0.3105    0.2110 C   0  0  0  0  0  0  0  0  0  0  0  0
    0.3473   -1.3736    0.0629 C   0  0  0  0  0  0  0  0  0  0  0  0
   -1.0007   -1.1185   -0.0218 C   0  0  0  0  0  0  0  0  0  0  0  0
   -1.4605    0.2022   -0.0177 C   0  0  0  0  0  0  0  0  0  0  0  0
   -0.5343    1.2694   -0.0015 C   0  0  0  0  0  0  0  0  0  0  0  0
    0.8454    1.0210    0.0180 C   0  0  0  0  0  0  0  0  0  0  0  0
    1.8087    2.1644   -0.2097 C   0  0  0  0  0  0  0  0  0  0  0  0
    1.3669    3.3101   -0.3129 O   0  0  0  0  0  0  0  0  0  0  0  0
    3.1658    1.9901   -0.3837 N   0  0  0  0  0  0  0  0  0  0  0  0
    3.9821    0.8041   -0.4029 C   0  0  0  0  0  0  0  0  0  0  0  0
   -2.0677   -2.5211   -0.0063 S   0  0  0  0  0  0  0  0  0  0  0  0
   -2.9176   -2.3281    1.4324 N   0  0  0  0  0  0  0  0  0  0  0  0
   -2.9856   -2.4159   -1.1027 O   0  0  0  0  0  0  0  0  0  0  0  0
   -1.2541   -3.7056    0.2130 O   0  0  0  0  0  0  0  0  0  0  0  0
    4.6008    0.4302   -1.7015 C   0  0  0  0  0  0  0  0  0  0  0  0
    5.2603    1.3855   -2.4544 C   0  0  0  0  0  0  0  0  0  0  0  0
    5.9337    1.0143   -3.5997 C   0  0  0  0  0  0  0  0  0  0  0  0
    5.9646   -0.3224   -3.9859 C   0  0  0  0  0  0  0  0  0  0  0  0
    5.3221   -1.3042   -3.2392 C   0  0  0  0  0  0  0  0  0  0  0  0
    4.5979   -0.9232   -2.1181 C   0  0  0  0  0  0  0  0  0  0  0  0
    6.6139   -0.6807   -5.0995 F   0  0  0  0  0  0  0  0  0  0  0  0
    5.2425    2.6657   -2.0574 F   0  0  0  0  0  0  0  0  0  0  0  0
    6.5837    1.9444   -4.3085 F   0  0  0  0  0  0  0  0  0  0  0  0
    2.1597   -0.6421    0.5905 H   0  0  0  0  0  0  0  0  0  0  0  0
    0.7561   -2.3815    0.0826 H   0  0  0  0  0  0  0  0  0  0  0  0
   -2.5258    0.4122   -0.0449 H   0  0  0  0  0  0  0  0  0  0  0  0
   -0.8989    2.2970    0.0252 H   0  0  0  0  0  0  0  0  0  0  0  0
    3.6532    2.8594   -0.5900 H   0  0  0  0  0  0  0  0  0  0  0  0
    4.6873    0.8195    0.4320 H   0  0  0  0  0  0  0  0  0  0  0  0
    3.3776   -0.0442   -0.2630 H   0  0  0  0  0  0  0  0  0  0  0  0
   -3.6240   -3.0662    1.4788 H   0  0  0  0  0  0  0  0  0  0  0  0
   -2.3013   -2.3764    2.2449 H   0  0  0  0  0  0  0  0  0  0  0  0
    5.3978   -2.3495   -3.5260 H   0  0  0  0  0  0  0  0  0  0  0  0
    4.0380   -1.6857   -1.5713 H   0  0  0  0  0  0  0  0  0  0  0  0
  1  2  2  0  0  0  0
  1  6  1  0  0  0  0
  1 24  1  0  0  0  0
  2  3  1  0  0  0  0
  2 25  1  0  0  0  0
  3  4  2  0  0  0  0
  3 11  1  0  0  0  0
  4  5  1  0  0  0  0
  4 26  1  0  0  0  0
  5  6  2  0  0  0  0
  5 27  1  0  0  0  0
  6  7  1  0  0  0  0
  7  8  2  0  0  0  0
  7  9  1  0  0  0  0
  9 10  1  0  0  0  0
  9 28  1  0  0  0  0
 10 15  1  0  0  0  0
 10 29  1  0  0  0  0
 10 30  1  0  0  0  0
 11 12  1  0  0  0  0
 11 13  2  0  0  0  0
 11 14  2  0  0  0  0
 12 31  1  0  0  0  0
 12 32  1  0  0  0  0
 15 16  2  0  0  0  0
 15 20  1  0  0  0  0
 16 17  1  0  0  0  0
 16 22  1  0  0  0  0
 17 18  2  0  0  0  0
 17 23  1  0  0  0  0
 18 19  1  0  0  0  0
 18 21  1  0  0  0  0
 19 20  2  0  0  0  0
 19 33  1  0  0  0  0
 20 34  1  0  0  0  0
M  END
>  <DRUGBANK_ID>
DB04549

>  <SECONDARY_ACCESSION_NUMBERS>
EXPT01902

>  <COMMON_NAME>
4-(Aminosulfonyl)-N-[(2,3,4-Trifluorophenyl)Methyl]-Benzamide

$$$$
