
 OpenBabel10282417203D

 24 23  0  0  1  0  0  0  0  0999 V2000
   -0.6103    1.7787   -0.6590 C   0  0  0  0  0  0  0  0  0  0  0  0
    1.5620   -0.0376    3.1142 C   0  0  0  0  0  0  0  0  0  0  0  0
    0.1718    1.2079    0.5059 C   0  0  2  0  0  0  0  0  0  0  0  0
    1.8739   -1.2052    2.1704 C   0  0  2  0  0  0  0  0  0  0  0  0
    1.0518    0.0091    0.0576 C   0  0  2  0  0  0  0  0  0  0  0  0
    0.9574   -1.2749    0.9197 C   0  0  2  0  0  0  0  0  0  0  0  0
   -0.3742    2.8639   -1.1647 O   0  0  0  0  0  0  0  0  0  0  0  0
    0.2594   -0.2214    3.6706 O   0  0  0  0  0  0  0  0  0  0  0  0
   -0.7733    0.9064    1.5410 O   0  0  0  0  0  0  0  0  0  0  0  0
    1.7872   -2.4298    2.9043 O   0  0  0  0  0  0  0  0  0  0  0  0
    2.4264    0.4273   -0.0478 O   0  0  0  0  0  0  0  0  0  0  0  0
   -0.4141   -1.5873    1.2161 O   0  0  0  0  0  0  0  0  0  0  0  0
    0.8079    2.0178    0.8797 H   0  0  0  0  0  0  0  0  0  0  0  0
    2.9135   -1.1216    1.8353 H   0  0  0  0  0  0  0  0  0  0  0  0
    0.7733   -0.2699   -0.9652 H   0  0  0  0  0  0  0  0  0  0  0  0
    1.3098   -2.1250    0.3202 H   0  0  0  0  0  0  0  0  0  0  0  0
   -1.4344    1.1412   -1.0283 H   0  0  0  0  0  0  0  0  0  0  0  0
    2.2881    0.0132    3.9288 H   0  0  0  0  0  0  0  0  0  0  0  0
    1.6047    0.9337    2.6155 H   0  0  0  0  0  0  0  0  0  0  0  0
   -0.3354    0.3881    3.1804 H   0  0  0  0  0  0  0  0  0  0  0  0
   -1.4543    0.3227    1.1457 H   0  0  0  0  0  0  0  0  0  0  0  0
    0.9050   -2.4356    3.3205 H   0  0  0  0  0  0  0  0  0  0  0  0
    2.7171    0.8448    0.7833 H   0  0  0  0  0  0  0  0  0  0  0  0
   -0.6105   -1.2136    2.0968 H   0  0  0  0  0  0  0  0  0  0  0  0
  1 17  1  0  0  0  0
  2 18  1  0  0  0  0
  2 19  1  0  0  0  0
  3  9  1  0  0  0  0
  3 13  1  1  0  0  0
  3  5  1  0  0  0  0
  3  1  1  0  0  0  0
  4  2  1  0  0  0  0
  4 10  1  0  0  0  0
  4 14  1  6  0  0  0
  5 15  1  6  0  0  0
  5 11  1  0  0  0  0
  5  6  1  0  0  0  0
  6  4  1  0  0  0  0
  6 12  1  0  0  0  0
  6 16  1  6  0  0  0
  7  1  2  0  0  0  0
  8  2  1  0  0  0  0
  8 20  1  0  0  0  0
  9 21  1  0  0  0  0
 10 22  1  0  0  0  0
 11 23  1  0  0  0  0
 12 24  1  0  0  0  0
M  END
>  <DRUGBANK_ID>
DB12907

>  <COMMON_NAME>
Mannose

>  <CAS_NUMBER>
3458-28-4

>  <UNII>
PHA4727WTP

>  <SYNONYMS>
D-mannose

$$$$
