
 OpenBabel10282417203D

 55 57  0  0  0  0  0  0  0  0999 V2000
    2.1756   -0.0963   -0.0250 C   0  0  0  0  0  0  0  0  0  0  0  0
    0.7414    0.0116    0.0183 N   0  0  0  0  0  0  0  0  0  0  0  0
   -0.1809   -0.9825   -0.1062 C   0  0  0  0  0  0  0  0  0  0  0  0
   -1.3881   -0.4640   -0.0208 N   0  0  0  0  0  0  0  0  0  0  0  0
   -1.1542    0.8701    0.0126 C   0  0  0  0  0  0  0  0  0  0  0  0
    0.1419    1.2196    0.0607 N   0  0  0  0  0  0  0  0  0  0  0  0
   -2.2952    1.8228   -0.0191 C   0  0  0  0  0  0  0  0  0  0  0  0
   -2.3649    2.6539    1.1388 O   0  0  0  0  0  0  0  0  0  0  0  0
    0.1055   -2.2578   -0.3770 N   0  0  0  0  0  0  0  0  0  0  0  0
   -1.0592   -3.1143   -0.3971 C   0  0  0  0  0  0  0  0  0  0  0  0
   -0.8180   -4.3266   -1.2863 C   0  0  0  0  0  0  0  0  0  0  0  0
    0.5144   -5.0826   -1.1249 C   0  0  0  0  0  0  0  0  0  0  0  0
    0.7008   -5.9906   -0.0172 O   0  0  0  0  0  0  0  0  0  0  0  0
    0.5209   -5.4843    1.2337 C   0  0  0  0  0  0  0  0  0  0  0  0
   -0.7172   -5.0392    1.6417 C   0  0  0  0  0  0  0  0  0  0  0  0
   -0.8551   -4.2685    2.7933 C   0  0  0  0  0  0  0  0  0  0  0  0
    0.0737   -4.4192    3.7879 C   0  0  0  0  0  0  0  0  0  0  0  0
    1.1225   -5.3036    3.5492 C   0  0  0  0  0  0  0  0  0  0  0  0
    1.4755   -5.6287    2.2200 C   0  0  0  0  0  0  0  0  0  0  0  0
    1.6134   -6.1306    4.7169 C   0  0  0  0  0  0  0  0  0  0  0  0
    1.2001   -7.5561    4.6781 N   0  0  0  0  0  0  0  0  0  0  0  0
   -0.2584   -7.7513    4.7689 C   0  0  0  0  0  0  0  0  0  0  0  0
   -0.5718   -9.2442    4.9326 C   0  0  0  0  0  0  0  0  0  0  0  0
    0.0102  -10.0710    3.7879 C   0  0  0  0  0  0  0  0  0  0  0  0
    1.4943   -9.7729    3.6099 C   0  0  0  0  0  0  0  0  0  0  0  0
    1.7190   -8.2755    3.5071 C   0  0  0  0  0  0  0  0  0  0  0  0
    2.5223    0.3619   -0.9531 H   0  0  0  0  0  0  0  0  0  0  0  0
    2.5849    0.4213    0.8448 H   0  0  0  0  0  0  0  0  0  0  0  0
    2.4847   -1.1445    0.0034 H   0  0  0  0  0  0  0  0  0  0  0  0
   -2.2287    2.4499   -0.9119 H   0  0  0  0  0  0  0  0  0  0  0  0
   -3.2408    1.2688   -0.0763 H   0  0  0  0  0  0  0  0  0  0  0  0
   -2.2770    2.0481    1.8948 H   0  0  0  0  0  0  0  0  0  0  0  0
    0.9176   -2.6789    0.0807 H   0  0  0  0  0  0  0  0  0  0  0  0
   -1.3297   -3.2599    0.6353 H   0  0  0  0  0  0  0  0  0  0  0  0
   -1.9798   -2.6318   -0.7482 H   0  0  0  0  0  0  0  0  0  0  0  0
   -1.6614   -5.0220   -1.2129 H   0  0  0  0  0  0  0  0  0  0  0  0
   -0.8420   -3.9234   -2.3075 H   0  0  0  0  0  0  0  0  0  0  0  0
    0.5940   -5.7196   -2.0180 H   0  0  0  0  0  0  0  0  0  0  0  0
    1.3762   -4.4083   -1.1936 H   0  0  0  0  0  0  0  0  0  0  0  0
   -1.5702   -5.1782    0.9904 H   0  0  0  0  0  0  0  0  0  0  0  0
   -1.7163   -3.6223    2.9292 H   0  0  0  0  0  0  0  0  0  0  0  0
   -0.1296   -4.0061    4.7715 H   0  0  0  0  0  0  0  0  0  0  0  0
    2.3721   -6.2051    2.0074 H   0  0  0  0  0  0  0  0  0  0  0  0
    2.7001   -6.0382    4.7927 H   0  0  0  0  0  0  0  0  0  0  0  0
    1.2181   -5.7019    5.6503 H   0  0  0  0  0  0  0  0  0  0  0  0
   -0.7770   -7.3772    3.8756 H   0  0  0  0  0  0  0  0  0  0  0  0
   -0.6708   -7.2140    5.6310 H   0  0  0  0  0  0  0  0  0  0  0  0
   -1.6561   -9.3954    4.9799 H   0  0  0  0  0  0  0  0  0  0  0  0
   -0.1536   -9.5991    5.8824 H   0  0  0  0  0  0  0  0  0  0  0  0
   -0.1316  -11.1397    3.9746 H   0  0  0  0  0  0  0  0  0  0  0  0
   -0.5266   -9.8310    2.8602 H   0  0  0  0  0  0  0  0  0  0  0  0
    2.0731  -10.1742    4.4473 H   0  0  0  0  0  0  0  0  0  0  0  0
    1.8589  -10.2501    2.6925 H   0  0  0  0  0  0  0  0  0  0  0  0
    2.7886   -8.0775    3.3811 H   0  0  0  0  0  0  0  0  0  0  0  0
    1.1994   -7.9757    2.5915 H   0  0  0  0  0  0  0  0  0  0  0  0
  1  2  1  0  0  0  0
  1 27  1  0  0  0  0
  1 28  1  0  0  0  0
  1 29  1  0  0  0  0
  2  3  1  0  0  0  0
  2  6  1  0  0  0  0
  3  4  2  0  0  0  0
  3  9  1  0  0  0  0
  4  5  1  0  0  0  0
  5  6  2  0  0  0  0
  5  7  1  0  0  0  0
  7  8  1  0  0  0  0
  7 30  1  0  0  0  0
  7 31  1  0  0  0  0
  8 32  1  0  0  0  0
  9 10  1  0  0  0  0
  9 33  1  0  0  0  0
 10 11  1  0  0  0  0
 10 34  1  0  0  0  0
 10 35  1  0  0  0  0
 11 12  1  0  0  0  0
 11 36  1  0  0  0  0
 11 37  1  0  0  0  0
 12 13  1  0  0  0  0
 12 38  1  0  0  0  0
 12 39  1  0  0  0  0
 13 14  1  0  0  0  0
 14 15  2  0  0  0  0
 14 19  1  0  0  0  0
 15 16  1  0  0  0  0
 15 40  1  0  0  0  0
 16 17  2  0  0  0  0
 16 41  1  0  0  0  0
 17 18  1  0  0  0  0
 17 42  1  0  0  0  0
 18 19  2  0  0  0  0
 18 20  1  0  0  0  0
 19 43  1  0  0  0  0
 20 21  1  0  0  0  0
 20 44  1  0  0  0  0
 20 45  1  0  0  0  0
 21 22  1  0  0  0  0
 21 26  1  0  0  0  0
 22 23  1  0  0  0  0
 22 46  1  0  0  0  0
 22 47  1  0  0  0  0
 23 24  1  0  0  0  0
 23 48  1  0  0  0  0
 23 49  1  0  0  0  0
 24 25  1  0  0  0  0
 24 50  1  0  0  0  0
 24 51  1  0  0  0  0
 25 26  1  0  0  0  0
 25 52  1  0  0  0  0
 25 53  1  0  0  0  0
 26 54  1  0  0  0  0
 26 55  1  0  0  0  0
M  END
>  <DRUGBANK_ID>
DB12884

>  <COMMON_NAME>
Lavoltidine

>  <CAS_NUMBER>
76956-02-0

>  <UNII>
X16K5179V5

>  <SYNONYMS>
lavoltidina; Lavoltidine; Loxtidina

$$$$
