
 OpenBabel10282417153D

 39 40  0  0  1  0  0  0  0  0999 V2000
    0.9287   -0.0114    0.0521 C   0  0  0  0  0  0  0  0  0  0  0  0
    0.4174    1.4167   -0.0904 C   0  0  0  0  0  0  0  0  0  0  0  0
    0.8987    2.1071   -1.3654 C   0  0  0  0  0  0  0  0  0  0  0  0
    0.3207    1.4959   -2.6200 C   0  0  0  0  0  0  0  0  0  0  0  0
   -0.3268    2.1136   -3.4588 O   0  0  0  0  0  0  0  0  0  0  0  0
    0.6523    0.1851   -2.7212 O   0  0  0  0  0  0  0  0  0  0  0  0
    0.2205   -0.5286   -3.9030 C   0  0  1  0  0  0  0  0  0  0  0  0
    1.1517   -0.1202   -5.0486 C   0  0  0  0  0  0  0  0  0  0  0  0
    1.8707   -1.1623   -5.7115 N   0  0  3  0  0  0  0  0  0  0  0  0
    2.5626   -0.8829   -6.9432 C   0  0  0  0  0  0  0  0  0  0  0  0
    2.9761   -2.2578   -7.4518 C   0  0  0  0  0  0  0  0  0  0  0  0
    2.0197   -3.2336   -6.7673 C   0  0  1  0  0  0  0  0  0  0  0  0
    1.7478   -2.5676   -5.4104 C   0  0  2  0  0  0  0  0  0  0  0  0
    0.4239   -2.9450   -4.7491 C   0  0  2  0  0  0  0  0  0  0  0  0
    0.1858   -2.0289   -3.5381 C   0  0  2  0  0  0  0  0  0  0  0  0
   -1.1024   -2.3398   -2.9668 O   0  0  0  0  0  0  0  0  0  0  0  0
    0.4638   -4.3251   -4.3595 O   0  0  0  0  0  0  0  0  0  0  0  0
    0.8508   -3.3728   -7.5729 O   0  0  0  0  0  0  0  0  0  0  0  0
    0.5278   -0.6712   -0.7181 H   0  0  0  0  0  0  0  0  0  0  0  0
    0.6074   -0.4492    0.9988 H   0  0  0  0  0  0  0  0  0  0  0  0
    2.0213   -0.0391   -0.0061 H   0  0  0  0  0  0  0  0  0  0  0  0
   -0.6781    1.4184   -0.0615 H   0  0  0  0  0  0  0  0  0  0  0  0
    0.7643    1.9933    0.7757 H   0  0  0  0  0  0  0  0  0  0  0  0
    0.5798    3.1568   -1.3400 H   0  0  0  0  0  0  0  0  0  0  0  0
    1.9930    2.1129   -1.4309 H   0  0  0  0  0  0  0  0  0  0  0  0
   -0.8053   -0.2199   -4.1424 H   0  0  0  0  0  0  0  0  0  0  0  0
    0.5271    0.4065   -5.7797 H   0  0  0  0  0  0  0  0  0  0  0  0
    1.8865    0.6104   -4.6894 H   0  0  0  0  0  0  0  0  0  0  0  0
    1.8994   -0.3889   -7.6620 H   0  0  0  0  0  0  0  0  0  0  0  0
    3.4325   -0.2412   -6.7715 H   0  0  0  0  0  0  0  0  0  0  0  0
    2.9182   -2.3058   -8.5432 H   0  0  0  0  0  0  0  0  0  0  0  0
    4.0046   -2.4624   -7.1348 H   0  0  0  0  0  0  0  0  0  0  0  0
    2.4707   -4.2240   -6.6526 H   0  0  0  0  0  0  0  0  0  0  0  0
    2.5758   -2.8317   -4.7353 H   0  0  0  0  0  0  0  0  0  0  0  0
   -0.4174   -2.8391   -5.4423 H   0  0  0  0  0  0  0  0  0  0  0  0
    0.9103   -2.2627   -2.7476 H   0  0  0  0  0  0  0  0  0  0  0  0
   -1.3942   -1.5754   -2.4410 H   0  0  0  0  0  0  0  0  0  0  0  0
    1.1125   -4.4286   -3.6448 H   0  0  0  0  0  0  0  0  0  0  0  0
    0.3762   -2.5244   -7.5553 H   0  0  0  0  0  0  0  0  0  0  0  0
  1  2  1  0  0  0  0
  1 19  1  0  0  0  0
  1 20  1  0  0  0  0
  1 21  1  0  0  0  0
  2  3  1  0  0  0  0
  2 22  1  0  0  0  0
  2 23  1  0  0  0  0
  3  4  1  0  0  0  0
  3 24  1  0  0  0  0
  3 25  1  0  0  0  0
  4  5  2  0  0  0  0
  4  6  1  0  0  0  0
  7  6  1  0  0  0  0
  7  8  1  0  0  0  0
  7 15  1  0  0  0  0
  7 26  1  6  0  0  0
  8  9  1  0  0  0  0
  8 27  1  0  0  0  0
  8 28  1  0  0  0  0
  9 10  1  0  0  0  0
 10 11  1  0  0  0  0
 10 29  1  0  0  0  0
 10 30  1  0  0  0  0
 11 12  1  0  0  0  0
 11 31  1  0  0  0  0
 11 32  1  0  0  0  0
 12 13  1  0  0  0  0
 12 18  1  0  0  0  0
 12 33  1  1  0  0  0
 13  9  1  0  0  0  0
 13 14  1  0  0  0  0
 13 34  1  1  0  0  0
 14 15  1  0  0  0  0
 14 17  1  0  0  0  0
 14 35  1  6  0  0  0
 15 36  1  1  0  0  0
 15 16  1  0  0  0  0
 16 37  1  0  0  0  0
 17 38  1  0  0  0  0
 18 39  1  0  0  0  0
M  END
>  <DRUGBANK_ID>
DB06580

>  <COMMON_NAME>
Celgosivir

>  <CAS_NUMBER>
121104-96-9

>  <UNII>
895VG117HN

>  <SYNONYMS>
6-O-Butanoylcastanospermine; Celgosivir

$$$$
