
 OpenBabel10282417223D

 50 53  0  0  1  0  0  0  0  0999 V2000
   -0.7103    0.7743    1.4849 C   0  0  2  0  0  0  0  0  0  0  0  0
    0.7066    1.1079    0.6521 C   0  0  2  0  0  0  0  0  0  0  0  0
    1.4985    2.1620    1.5485 N   0  0  1  0  0  0  0  0  0  0  0  0
    2.7052    2.6318    0.8259 C   0  0  0  0  0  0  0  0  0  0  0  0
    2.4938    3.4600   -0.4139 C   0  0  0  0  0  0  0  0  0  0  0  0
    1.0513    3.4259   -0.6182 C   0  0  2  0  0  0  0  0  0  0  0  0
   -0.0779    4.4658    0.7490 C   0  0  2  0  0  0  0  0  0  0  0  0
    0.7523    3.4682    2.0305 C   0  0  0  0  0  0  0  0  0  0  0  0
   -2.1934    4.5079    0.1134 C   0  0  0  0  0  0  0  0  0  0  0  0
   -2.7031    3.6479   -1.4115 C   0  0  0  0  0  0  0  0  0  0  0  0
    0.5963    1.6487   -0.8449 C   0  0  0  0  0  0  0  0  0  0  0  0
    1.1985    0.1361    0.5063 H   0  0  0  0  0  0  0  0  0  0  0  0
   -1.5992    1.9037    2.0347 C   0  0  0  0  0  0  0  0  0  0  0  0
   -2.3851    1.9433    3.1577 C   0  0  0  0  0  0  0  0  0  0  0  0
   -3.0440    3.1465    3.5886 C   0  0  0  0  0  0  0  0  0  0  0  0
   -2.8895    4.4514    3.1882 N   0  0  0  0  0  0  0  0  0  0  0  0
   -2.0304    4.6319    2.2097 C   0  0  0  0  0  0  0  0  0  0  0  0
   -1.7840    6.1593    1.4097 C   0  0  0  0  0  0  0  0  0  0  0  0
   -1.0904    6.3400   -0.1610 C   0  0  0  0  0  0  0  0  0  0  0  0
   -0.6799    4.9125   -1.0364 C   0  0  0  0  0  0  0  0  0  0  0  0
    0.0515    5.0530   -2.1767 O   0  0  0  0  0  0  0  0  0  0  0  0
    0.2347    6.3336   -2.6948 C   0  0  0  0  0  0  0  0  0  0  0  0
   -0.9940    3.2121   -0.2285 C   0  0  0  0  0  0  0  0  0  0  0  0
   -1.5762    3.1276    1.4435 C   0  0  0  0  0  0  0  0  0  0  0  0
   -0.2143    0.1263    2.6625 O   0  0  0  0  0  0  0  0  0  0  0  0
   -1.3460    0.0950    0.9020 H   0  0  0  0  0  0  0  0  0  0  0  0
    3.2929    1.7572    0.5539 H   0  0  0  0  0  0  0  0  0  0  0  0
    3.2659    3.2598    1.5135 H   0  0  0  0  0  0  0  0  0  0  0  0
    2.9183    2.9970   -1.3220 H   0  0  0  0  0  0  0  0  0  0  0  0
    2.7860    4.5110   -0.3685 H   0  0  0  0  0  0  0  0  0  0  0  0
    0.9007    3.5477   -1.6895 H   0  0  0  0  0  0  0  0  0  0  0  0
    0.4991    5.4350    0.8681 H   0  0  0  0  0  0  0  0  0  0  0  0
    0.1184    3.2028    2.8835 H   0  0  0  0  0  0  0  0  0  0  0  0
    1.4223    4.1476    2.5893 H   0  0  0  0  0  0  0  0  0  0  0  0
   -3.0406    3.8925    0.6136 H   0  0  0  0  0  0  0  0  0  0  0  0
   -2.8101    5.3974   -0.1156 H   0  0  0  0  0  0  0  0  0  0  0  0
   -2.4805    2.5578   -1.3747 H   0  0  0  0  0  0  0  0  0  0  0  0
   -3.7615    3.7579   -1.3952 H   0  0  0  0  0  0  0  0  0  0  0  0
   -2.1658    4.0593   -2.2672 H   0  0  0  0  0  0  0  0  0  0  0  0
    1.0523    1.2695   -1.7682 H   0  0  0  0  0  0  0  0  0  0  0  0
   -0.4746    1.4721   -1.1695 H   0  0  0  0  0  0  0  0  0  0  0  0
   -2.4726    1.0460    3.7538 H   0  0  0  0  0  0  0  0  0  0  0  0
   -3.7491    3.0705    4.4075 H   0  0  0  0  0  0  0  0  0  0  0  0
   -2.7185    6.8045    1.4917 H   0  0  0  0  0  0  0  0  0  0  0  0
   -1.3952    7.1868   -0.7945 H   0  0  0  0  0  0  0  0  0  0  0  0
   -0.7411    6.5968   -3.0910 H   0  0  0  0  0  0  0  0  0  0  0  0
    0.6325    7.0616   -1.9768 H   0  0  0  0  0  0  0  0  0  0  0  0
    0.9611    6.2090   -3.4990 H   0  0  0  0  0  0  0  0  0  0  0  0
   -0.2793    2.6423    0.2915 H   0  0  0  0  0  0  0  0  0  0  0  0
    0.4496    0.7742    2.9904 H   0  0  0  0  0  0  0  0  0  0  0  0
  1 13  1  0  0  0  0
  1 25  1  0  0  0  0
  1 26  1  6  0  0  0
  2  3  1  0  0  0  0
  2 11  1  0  0  0  0
  2 12  1  6  0  0  0
  2  1  1  0  0  0  0
  3  4  1  6  0  0  0
  3  8  1  0  0  0  0
  4  5  1  0  0  0  0
  4 27  1  0  0  0  0
  4 28  1  0  0  0  0
  5 29  1  0  0  0  0
  5 30  1  0  0  0  0
  6  5  1  0  0  0  0
  6  7  1  0  0  0  0
  6 31  1  6  0  0  0
  7 32  1  1  0  0  0
  7  9  1  0  0  0  0
  8  7  1  0  0  0  0
  8 33  1  0  0  0  0
  8 34  1  0  0  0  0
  9 10  1  0  0  0  0
  9 35  1  0  0  0  0
  9 36  1  0  0  0  0
 10 37  1  0  0  0  0
 10 38  1  0  0  0  0
 10 39  1  0  0  0  0
 11  6  1  0  0  0  0
 11 40  1  0  0  0  0
 11 41  1  0  0  0  0
 13 14  2  0  0  0  0
 13 24  1  0  0  0  0
 14 15  1  0  0  0  0
 14 42  1  0  0  0  0
 15 16  2  0  0  0  0
 15 43  1  0  0  0  0
 17 16  1  0  0  0  0
 17 18  2  0  0  0  0
 18 19  1  0  0  0  0
 18 44  1  0  0  0  0
 19 45  1  0  0  0  0
 20 19  2  0  0  0  0
 20 21  1  0  0  0  0
 21 22  1  0  0  0  0
 22 46  1  0  0  0  0
 22 47  1  0  0  0  0
 22 48  1  0  0  0  0
 23 20  1  0  0  0  0
 23 49  1  0  0  0  0
 24 23  2  0  0  0  0
 24 17  1  0  0  0  0
 25 50  1  0  0  0  0
M  END
>  <DRUGBANK_ID>
DB15300

>  <COMMON_NAME>
Hydroquinidine

>  <CAS_NUMBER>
1435-55-8

>  <UNII>
8P68XPY4HG

$$$$
