1028
 OpenBabel10282417113D

 12 11  0  0  0  0  0  0  0  0999 V2000
    1.0281    0.0678   -0.1029 Cl  0  0  0  0  0  0  0  0  0  0  0  0
    3.4099    0.9959    1.3025 Cl  0  0  0  0  0  0  0  0  0  0  0  0
    2.9034   -2.1925   -1.0171 F   0  0  0  0  0  0  0  0  0  0  0  0
    4.6783   -1.5009    0.0302 F   0  0  0  0  0  0  0  0  0  0  0  0
    2.8832   -2.1417    1.2396 O   0  0  0  0  0  0  0  0  0  0  0  0
    3.3186   -1.4744    0.0610 C   0  0  0  0  0  0  0  0  0  0  0  0
    2.8161   -0.0270   -0.0431 C   0  0  0  0  0  0  0  0  0  0  0  0
    3.3656   -3.4734    1.3014 C   0  0  0  0  0  0  0  0  0  0  0  0
    3.1864    0.4233   -0.9680 H   0  0  0  0  0  0  0  0  0  0  0  0
    2.9930   -4.0635    0.4591 H   0  0  0  0  0  0  0  0  0  0  0  0
    4.4590   -3.4922    1.3242 H   0  0  0  0  0  0  0  0  0  0  0  0
    2.9958   -3.9249    2.2263 H   0  0  0  0  0  0  0  0  0  0  0  0
  1  7  1  0  0  0  0
  2  7  1  0  0  0  0
  3  6  1  0  0  0  0
  4  6  1  0  0  0  0
  5  6  1  0  0  0  0
  5  8  1  0  0  0  0
  6  7  1  0  0  0  0
  7  9  1  0  0  0  0
  8 10  1  0  0  0  0
  8 11  1  0  0  0  0
  8 12  1  0  0  0  0
M  END
>  <DRUGBANK_ID>
DB01028

>  <SECONDARY_ACCESSION_NUMBERS>
APRD00744

>  <COMMON_NAME>
Methoxyflurane

>  <CAS_NUMBER>
76-38-0

>  <UNII>
30905R8O7B

>  <SYNONYMS>
Methoflurane; Methoxyfluoran; Methoxyfluran; Methoxyflurane; Methoxyfluranum; Methyl 1,1-difluoro-2,2-dichloroethyl ether; Metoxiflurano

$$$$
