
 OpenBabel10282417153D

 42 43  0  0  0  0  0  0  0  0999 V2000
    7.3055    1.3053   -1.8231 C   0  0  0  0  0  0  0  0  0  0  0  0
    5.9942   -0.8159    0.5346 C   0  0  0  0  0  0  0  0  0  0  0  0
    7.1960   -0.3440    0.7167 C   0  0  0  0  0  0  0  0  0  0  0  0
    8.5557    1.4255   -1.3088 N   0  0  0  0  0  0  0  0  0  0  0  0
    4.1553   -1.6044   -0.8947 O   0  0  0  0  0  0  0  0  0  0  0  0
    6.6239    2.2587   -2.1398 O   0  0  0  0  0  0  0  0  0  0  0  0
    4.6744   -1.5679    0.4319 C   0  0  1  0  0  0  0  0  0  0  0  0
    6.8341    0.0520   -1.9069 N   0  0  0  0  0  0  0  0  0  0  0  0
    4.3134   -2.0583   -4.1252 O   0  0  0  0  0  0  0  0  0  0  0  0
    4.6389   -2.7646   -1.6154 C   0  0  2  0  0  0  0  0  0  0  0  0
    3.8969   -0.7553   -4.0561 C   0  0  0  0  0  0  0  0  0  0  0  0
    3.3730    2.0134   -3.7099 C   0  0  0  0  0  0  0  0  0  0  0  0
    9.0594    2.7413   -1.3653 O   0  0  0  0  0  0  0  0  0  0  0  0
    3.9475   -2.9542   -3.0155 C   0  0  0  0  0  0  0  0  0  0  0  0
    3.1745    3.3283   -3.5653 F   0  0  0  0  0  0  0  0  0  0  0  0
    3.4580   -0.0087   -5.1211 C   0  0  0  0  0  0  0  0  0  0  0  0
    4.1177   -0.0300   -2.9185 C   0  0  0  0  0  0  0  0  0  0  0  0
    3.2020    1.3785   -4.9457 C   0  0  0  0  0  0  0  0  0  0  0  0
    3.8230    1.2936   -2.6498 C   0  0  0  0  0  0  0  0  0  0  0  0
    4.7139   -3.0584    0.7530 C   0  0  0  0  0  0  0  0  0  0  0  0
    4.3328   -3.7942   -0.5536 C   0  0  0  0  0  0  0  0  0  0  0  0
    8.5969    0.2061    0.9289 C   0  0  0  0  0  0  0  0  0  0  0  0
    9.2801    0.5007   -0.4335 C   0  0  0  0  0  0  0  0  0  0  0  0
    3.9320   -1.0302    1.0308 H   0  0  0  0  0  0  0  0  0  0  0  0
    7.3592   -0.7202   -1.5333 H   0  0  0  0  0  0  0  0  0  0  0  0
    5.9586    0.1184   -1.4086 H   0  0  0  0  0  0  0  0  0  0  0  0
    5.7211   -2.6687   -1.7739 H   0  0  0  0  0  0  0  0  0  0  0  0
    8.3718    3.1709   -1.9300 H   0  0  0  0  0  0  0  0  0  0  0  0
    4.2410   -3.9504   -3.3803 H   0  0  0  0  0  0  0  0  0  0  0  0
    2.8563   -2.9592   -2.9326 H   0  0  0  0  0  0  0  0  0  0  0  0
    3.3506   -0.4708   -6.0928 H   0  0  0  0  0  0  0  0  0  0  0  0
    4.7500   -0.5353   -2.2618 H   0  0  0  0  0  0  0  0  0  0  0  0
    2.8914    1.9883   -5.7822 H   0  0  0  0  0  0  0  0  0  0  0  0
    4.0744    1.7406   -1.6924 H   0  0  0  0  0  0  0  0  0  0  0  0
    5.6937   -3.3698    1.1183 H   0  0  0  0  0  0  0  0  0  0  0  0
    3.9689   -3.2859    1.5240 H   0  0  0  0  0  0  0  0  0  0  0  0
    4.8616   -4.7407   -0.6857 H   0  0  0  0  0  0  0  0  0  0  0  0
    3.2538   -4.0032   -0.5541 H   0  0  0  0  0  0  0  0  0  0  0  0
    9.1947   -0.5205    1.4888 H   0  0  0  0  0  0  0  0  0  0  0  0
    8.5291    1.1267    1.5187 H   0  0  0  0  0  0  0  0  0  0  0  0
    9.3727   -0.4398   -0.9891 H   0  0  0  0  0  0  0  0  0  0  0  0
   10.2821    0.9073   -0.2788 H   0  0  0  0  0  0  0  0  0  0  0  0
  2  3  3  0  0  0  0
  3 22  1  0  0  0  0
  4  1  1  0  0  0  0
  5  7  1  0  0  0  0
  6  1  2  0  0  0  0
  7 24  1  1  0  0  0
  7  2  1  0  0  0  0
  8  1  1  0  0  0  0
  8 25  1  0  0  0  0
  8 26  1  0  0  0  0
  9 14  1  0  0  0  0
 10  5  1  0  0  0  0
 10 14  1  0  0  0  0
 10 27  1  6  0  0  0
 11  9  1  0  0  0  0
 12 19  1  0  0  0  0
 13  4  1  0  0  0  0
 13 28  1  0  0  0  0
 14 29  1  0  0  0  0
 14 30  1  0  0  0  0
 15 12  1  0  0  0  0
 16 11  2  0  0  0  0
 16 31  1  0  0  0  0
 17 11  1  0  0  0  0
 17 32  1  0  0  0  0
 18 16  1  0  0  0  0
 18 12  2  0  0  0  0
 18 33  1  0  0  0  0
 19 17  2  0  0  0  0
 19 34  1  0  0  0  0
 20  7  1  0  0  0  0
 20 35  1  0  0  0  0
 20 36  1  0  0  0  0
 21 20  1  0  0  0  0
 21 10  1  0  0  0  0
 21 37  1  0  0  0  0
 21 38  1  0  0  0  0
 22 23  1  0  0  0  0
 22 39  1  0  0  0  0
 22 40  1  0  0  0  0
 23  4  1  0  0  0  0
 23 41  1  0  0  0  0
 23 42  1  0  0  0  0
M  END
>  <DRUGBANK_ID>
DB05431

>  <COMMON_NAME>
MLN-977

>  <CAS_NUMBER>
175212-04-1

>  <UNII>
VNR0T3Q498

$$$$
