1603
 OpenBabel10282417123D

 46 48  0  0  1  0  0  0  0  0999 V2000
    1.1934   -1.0805   -0.4747 S   0  0  0  0  0  0  0  0  0  0  0  0
   -2.5203    0.9726   -0.4639 O   0  0  0  0  0  0  0  0  0  0  0  0
   -0.4641    3.6229    0.9198 O   0  0  0  0  0  0  0  0  0  0  0  0
    1.1432    2.6827    2.1360 O   0  0  0  0  0  0  0  0  0  0  0  0
   -2.5910   -3.7116   -2.4356 O   0  0  0  0  0  0  0  0  0  0  0  0
   -4.2176   -2.5720    0.7287 O   0  0  0  0  0  0  0  0  0  0  0  0
   -0.7381   -5.9195   -0.6580 O   0  0  0  0  0  0  0  0  0  0  0  0
   -0.6058    0.4168    0.7499 N   0  0  0  0  0  0  0  0  0  0  0  0
   -1.5555   -2.1252   -1.1865 N   0  0  0  0  0  0  0  0  0  0  0  0
   -0.1762   -1.0058    0.6878 C   0  0  1  0  0  0  0  0  0  0  0  0
    1.6513    0.6271    0.0273 C   0  0  0  0  0  0  0  0  0  0  0  0
    0.3202    1.4036    0.2134 C   0  0  2  0  0  0  0  0  0  0  0  0
   -1.5030   -1.3546    0.1104 C   0  0  1  0  0  0  0  0  0  0  0  0
   -1.7505    0.1787    0.0664 C   0  0  0  0  0  0  0  0  0  0  0  0
    2.4959    1.1490   -1.1133 C   0  0  0  0  0  0  0  0  0  0  0  0
    2.4372    0.4127    1.3235 C   0  0  0  0  0  0  0  0  0  0  0  0
    0.4047    2.6146    1.1635 C   0  0  0  0  0  0  0  0  0  0  0  0
   -2.1987   -3.3388   -1.3356 C   0  0  0  0  0  0  0  0  0  0  0  0
   -2.4598   -4.1512   -0.1411 C   0  0  0  0  0  0  0  0  0  0  0  0
   -3.4380   -3.7096    0.7779 C   0  0  0  0  0  0  0  0  0  0  0  0
   -1.7635   -5.3646    0.0726 C   0  0  0  0  0  0  0  0  0  0  0  0
   -3.6246   -4.4432    1.9608 C   0  0  0  0  0  0  0  0  0  0  0  0
   -2.1028   -6.1463    1.1914 C   0  0  0  0  0  0  0  0  0  0  0  0
   -2.9819   -5.6647    2.1599 C   0  0  0  0  0  0  0  0  0  0  0  0
   -4.3591   -1.7821   -0.4515 C   0  0  0  0  0  0  0  0  0  0  0  0
   -0.1572   -5.1684   -1.7185 C   0  0  0  0  0  0  0  0  0  0  0  0
   -0.0194   -1.4523    1.6742 H   0  0  0  0  0  0  0  0  0  0  0  0
   -1.1486    3.4774    0.2396 H   0  0  0  0  0  0  0  0  0  0  0  0
   -1.5693   -1.6102   -2.0654 H   0  0  0  0  0  0  0  0  0  0  0  0
   -0.0514    1.7598   -0.7615 H   0  0  0  0  0  0  0  0  0  0  0  0
   -2.0760   -1.8022    0.9146 H   0  0  0  0  0  0  0  0  0  0  0  0
    2.8486    2.1557   -0.8893 H   0  0  0  0  0  0  0  0  0  0  0  0
    3.3671    0.5041   -1.2779 H   0  0  0  0  0  0  0  0  0  0  0  0
    1.9272    1.1851   -2.0524 H   0  0  0  0  0  0  0  0  0  0  0  0
    3.2348   -0.3267    1.2094 H   0  0  0  0  0  0  0  0  0  0  0  0
    2.9157    1.3381    1.6414 H   0  0  0  0  0  0  0  0  0  0  0  0
    1.7873    0.0717    2.1433 H   0  0  0  0  0  0  0  0  0  0  0  0
   -4.3016   -4.0723    2.7286 H   0  0  0  0  0  0  0  0  0  0  0  0
   -1.6703   -7.1390    1.3195 H   0  0  0  0  0  0  0  0  0  0  0  0
   -3.1722   -6.2437    3.0626 H   0  0  0  0  0  0  0  0  0  0  0  0
   -3.4667   -1.2743   -0.7501 H   0  0  0  0  0  0  0  0  0  0  0  0
   -4.6656   -2.3504   -1.3269 H   0  0  0  0  0  0  0  0  0  0  0  0
   -4.9691   -0.9040   -0.2375 H   0  0  0  0  0  0  0  0  0  0  0  0
   -0.8426   -5.1270   -2.5655 H   0  0  0  0  0  0  0  0  0  0  0  0
    0.1686   -4.1793   -1.3809 H   0  0  0  0  0  0  0  0  0  0  0  0
    0.7341   -5.6783   -2.0915 H   0  0  0  0  0  0  0  0  0  0  0  0
  1 10  1  0  0  0  0
  1 11  1  0  0  0  0
  2 14  2  0  0  0  0
  3 17  1  0  0  0  0
  3 28  1  0  0  0  0
  4 17  2  0  0  0  0
  5 18  2  0  0  0  0
  6 20  1  0  0  0  0
  6 25  1  0  0  0  0
  7 21  1  0  0  0  0
  7 26  1  0  0  0  0
  8 10  1  0  0  0  0
  8 12  1  0  0  0  0
  8 14  1  0  0  0  0
  9 18  1  0  0  0  0
  9 29  1  0  0  0  0
 10 13  1  0  0  0  0
 10 27  1  1  0  0  0
 11 12  1  0  0  0  0
 11 15  1  0  0  0  0
 11 16  1  0  0  0  0
 12 30  1  6  0  0  0
 12 17  1  0  0  0  0
 13 14  1  0  0  0  0
 13 31  1  1  0  0  0
 13  9  1  0  0  0  0
 15 32  1  0  0  0  0
 15 33  1  0  0  0  0
 15 34  1  0  0  0  0
 16 35  1  0  0  0  0
 16 36  1  0  0  0  0
 16 37  1  0  0  0  0
 18 19  1  0  0  0  0
 19 20  2  0  0  0  0
 19 21  1  0  0  0  0
 20 22  1  0  0  0  0
 21 23  2  0  0  0  0
 22 24  2  0  0  0  0
 22 38  1  0  0  0  0
 23 24  1  0  0  0  0
 23 39  1  0  0  0  0
 24 40  1  0  0  0  0
 25 41  1  0  0  0  0
 25 42  1  0  0  0  0
 25 43  1  0  0  0  0
 26 44  1  0  0  0  0
 26 45  1  0  0  0  0
 26 46  1  0  0  0  0
M  END
>  <DRUGBANK_ID>
DB01603

>  <COMMON_NAME>
Meticillin

>  <CAS_NUMBER>
61-32-5

>  <UNII>
Q91FH1328A

>  <SYNONYMS>
(2,6-Dimethoxyphenyl)penicillin; (2S,5R,6R)-6-[(2,6-dimethoxybenzoyl)amino]-3,3-dimethyl-7-oxo-4-thia-1-azabicyclo[3.2.0]heptane-2-carboxylic acid; 6-(2,6-Dimethoxybenzamido)penicillanic acid; 6Î²-(2,6-dimethoxybenzamido)penicillanic acid; Methicillin; Methicillinum; Methycillin; Meticilina; Meticillin; Meticillina; Meticilline; Meticillinum

$$$$
