
 OpenBabel10282417183D

 96 98  0  0  1  0  0  0  0  0999 V2000
    3.3596   -9.5840    4.5376 C   0  0  0  0  0  0  0  0  0  0  0  0
    2.8245  -14.8797    9.3111 C   0  0  0  0  0  0  0  0  0  0  0  0
    8.2073  -12.7497    5.1950 C   0  0  0  0  0  0  0  0  0  0  0  0
    0.4581   -8.1901    8.6708 C   0  0  0  0  0  0  0  0  0  0  0  0
   -0.5143  -10.3278   14.3283 C   0  0  0  0  0  0  0  0  0  0  0  0
    6.7575   -8.6500    9.2106 C   0  0  0  0  0  0  0  0  0  0  0  0
    3.7671   -7.5706    9.6923 C   0  0  0  0  0  0  0  0  0  0  0  0
    5.3968  -15.1664    5.6982 C   0  0  0  0  0  0  0  0  0  0  0  0
    4.1816  -10.3741    5.5485 C   0  0  0  0  0  0  0  0  0  0  0  0
    4.0024  -15.1220    8.3896 C   0  0  0  0  0  0  0  0  0  0  0  0
    8.6955  -12.2640    6.5526 C   0  0  0  0  0  0  0  0  0  0  0  0
    0.6686  -10.8527    7.8207 C   0  0  0  0  0  0  0  0  0  0  0  0
    0.6687  -11.7268   12.6346 C   0  0  0  0  0  0  0  0  0  0  0  0
    0.7004  -11.9417    8.8773 C   0  0  0  0  0  0  0  0  0  0  0  0
    0.8932  -12.1035   11.3180 C   0  0  0  0  0  0  0  0  0  0  0  0
    5.9658  -12.9013    9.3251 C   0  0  0  0  0  0  0  0  0  0  0  0
    4.6376  -12.7515    8.5926 C   0  0  0  0  0  0  0  0  0  0  0  0
    8.0133  -10.6774    8.4260 C   0  0  0  0  0  0  0  0  0  0  0  0
    1.2478   -9.4440    8.2331 C   0  0  2  0  0  0  0  0  0  0  0  0
   -0.2515  -10.7208   12.9056 C   0  0  0  0  0  0  0  0  0  0  0  0
    7.1146   -9.5113    8.0294 C   0  0  1  0  0  0  0  0  0  0  0  0
    3.6749   -8.8773    8.9128 C   0  0  1  0  0  0  0  0  0  0  0  0
    5.5871  -14.0484    6.7130 C   0  0  1  0  0  0  0  0  0  0  0  0
    0.1764  -11.5144   10.2288 C   0  0  0  0  0  0  0  0  0  0  0  0
    4.9093   -9.4652    6.5862 C   0  0  1  0  0  0  0  0  0  0  0  0
    7.1165  -13.1250    8.3419 C   0  0  2  0  0  0  0  0  0  0  0  0
   -0.8290  -10.5246   10.4903 C   0  0  0  0  0  0  0  0  0  0  0  0
    2.4102   -9.6314    9.2292 C   0  0  1  0  0  0  0  0  0  0  0  0
   -0.9516  -10.1159   11.8398 C   0  0  0  0  0  0  0  0  0  0  0  0
    3.9220   -8.6329    7.4175 C   0  0  0  0  0  0  0  0  0  0  0  0
    5.9238  -10.2110    7.4485 C   0  0  1  0  0  0  0  0  0  0  0  0
   -1.7269   -9.7314    9.5023 C   0  0  0  0  0  0  0  0  0  0  0  0
    4.3546  -13.8690    7.6115 C   0  0  1  0  0  0  0  0  0  0  0  0
    7.5758  -11.8539    7.5279 C   0  0  2  0  0  0  0  0  0  0  0  0
    2.0545   -9.3797   10.5964 O   0  0  0  0  0  0  0  0  0  0  0  0
   -1.7764   -9.0566   12.1225 O   0  0  0  0  0  0  0  0  0  0  0  0
    3.3011   -7.7192    6.8590 O   0  0  0  0  0  0  0  0  0  0  0  0
   -2.3070   -8.6534    9.7322 O   0  0  0  0  0  0  0  0  0  0  0  0
   -1.7848  -10.1386    8.2347 O   0  0  0  0  0  0  0  0  0  0  0  0
    3.2680  -13.4833    6.7578 O   0  0  0  0  0  0  0  0  0  0  0  0
    6.7779  -14.2492    7.4914 O   0  0  0  0  0  0  0  0  0  0  0  0
    6.4934  -11.3060    6.7572 O   0  0  0  0  0  0  0  0  0  0  0  0
    1.6043   -9.1357    7.2543 H   0  0  0  0  0  0  0  0  0  0  0  0
    7.5619   -8.9017    7.2434 H   0  0  0  0  0  0  0  0  0  0  0  0
    4.4160   -9.5243    9.3626 H   0  0  0  0  0  0  0  0  0  0  0  0
    5.6923  -13.1667    6.0799 H   0  0  0  0  0  0  0  0  0  0  0  0
    5.4806   -8.7358    6.0037 H   0  0  0  0  0  0  0  0  0  0  0  0
    7.9835  -13.4547    8.9330 H   0  0  0  0  0  0  0  0  0  0  0  0
    2.7222  -10.6691    9.2459 H   0  0  0  0  0  0  0  0  0  0  0  0
    5.4268  -10.5698    8.3286 H   0  0  0  0  0  0  0  0  0  0  0  0
    2.5119   -9.0908    5.0170 H   0  0  0  0  0  0  0  0  0  0  0  0
    2.9485  -10.2404    3.7637 H   0  0  0  0  0  0  0  0  0  0  0  0
    3.9819   -8.8267    4.0521 H   0  0  0  0  0  0  0  0  0  0  0  0
    1.9491  -14.5702    8.7353 H   0  0  0  0  0  0  0  0  0  0  0  0
    2.5844  -15.7815    9.8647 H   0  0  0  0  0  0  0  0  0  0  0  0
    3.0461  -14.1066   10.0488 H   0  0  0  0  0  0  0  0  0  0  0  0
    7.5771  -12.0017    4.7029 H   0  0  0  0  0  0  0  0  0  0  0  0
    9.0481  -12.9795    4.5411 H   0  0  0  0  0  0  0  0  0  0  0  0
    7.6410  -13.6706    5.2787 H   0  0  0  0  0  0  0  0  0  0  0  0
    0.1223   -8.2188    9.7097 H   0  0  0  0  0  0  0  0  0  0  0  0
    1.1012   -7.3039    8.6521 H   0  0  0  0  0  0  0  0  0  0  0  0
   -0.3771   -7.9328    8.0229 H   0  0  0  0  0  0  0  0  0  0  0  0
   -0.2617   -9.2753   14.4917 H   0  0  0  0  0  0  0  0  0  0  0  0
   -1.5765  -10.4885   14.5405 H   0  0  0  0  0  0  0  0  0  0  0  0
    0.0595  -10.9303   15.0373 H   0  0  0  0  0  0  0  0  0  0  0  0
    7.6077   -8.1307    9.6382 H   0  0  0  0  0  0  0  0  0  0  0  0
    6.0951   -7.8952    8.8134 H   0  0  0  0  0  0  0  0  0  0  0  0
    6.2660   -9.2097   10.0208 H   0  0  0  0  0  0  0  0  0  0  0  0
    2.9412   -6.9114    9.4438 H   0  0  0  0  0  0  0  0  0  0  0  0
    3.7775   -7.7744   10.7681 H   0  0  0  0  0  0  0  0  0  0  0  0
    4.6625   -6.9970    9.4847 H   0  0  0  0  0  0  0  0  0  0  0  0
    4.5350  -14.9424    5.0593 H   0  0  0  0  0  0  0  0  0  0  0  0
    6.2715  -15.2760    5.0538 H   0  0  0  0  0  0  0  0  0  0  0  0
    5.2485  -16.1268    6.1897 H   0  0  0  0  0  0  0  0  0  0  0  0
    3.5231  -11.1002    6.0328 H   0  0  0  0  0  0  0  0  0  0  0  0
    4.9168  -10.9513    4.9696 H   0  0  0  0  0  0  0  0  0  0  0  0
    3.7336  -15.9209    7.6985 H   0  0  0  0  0  0  0  0  0  0  0  0
    4.8680  -15.4515    8.9734 H   0  0  0  0  0  0  0  0  0  0  0  0
    9.3495  -11.4078    6.3665 H   0  0  0  0  0  0  0  0  0  0  0  0
    9.3182  -13.0377    7.0180 H   0  0  0  0  0  0  0  0  0  0  0  0
   -0.3099  -10.9390    7.3824 H   0  0  0  0  0  0  0  0  0  0  0  0
    1.2140  -11.1672    6.9180 H   0  0  0  0  0  0  0  0  0  0  0  0
    1.2301  -12.2063   13.4351 H   0  0  0  0  0  0  0  0  0  0  0  0
    0.1723  -12.8429    8.5530 H   0  0  0  0  0  0  0  0  0  0  0  0
    1.7439  -12.2760    8.9468 H   0  0  0  0  0  0  0  0  0  0  0  0
    1.6877  -12.8299   11.1463 H   0  0  0  0  0  0  0  0  0  0  0  0
    6.1552  -12.0533    9.9918 H   0  0  0  0  0  0  0  0  0  0  0  0
    5.8991  -13.7710    9.9941 H   0  0  0  0  0  0  0  0  0  0  0  0
    3.8653  -12.5008    9.3151 H   0  0  0  0  0  0  0  0  0  0  0  0
    4.5514  -11.9231    7.9229 H   0  0  0  0  0  0  0  0  0  0  0  0
    9.0492  -10.3758    8.2659 H   0  0  0  0  0  0  0  0  0  0  0  0
    7.9239  -10.9247    9.4892 H   0  0  0  0  0  0  0  0  0  0  0  0
    1.7747   -8.4535   10.7080 H   0  0  0  0  0  0  0  0  0  0  0  0
   -1.8480   -8.8886   13.0684 H   0  0  0  0  0  0  0  0  0  0  0  0
   -1.7967   -9.3397    7.6501 H   0  0  0  0  0  0  0  0  0  0  0  0
    2.5262  -13.1783    7.2967 H   0  0  0  0  0  0  0  0  0  0  0  0
  1 51  1  0  0  0  0
  1 52  1  0  0  0  0
  1 53  1  0  0  0  0
  2 54  1  0  0  0  0
  2 55  1  0  0  0  0
  2 56  1  0  0  0  0
  3 57  1  0  0  0  0
  3 58  1  0  0  0  0
  3 59  1  0  0  0  0
  4 60  1  0  0  0  0
  4 61  1  0  0  0  0
  4 62  1  0  0  0  0
  5 63  1  0  0  0  0
  5 64  1  0  0  0  0
  5 65  1  0  0  0  0
  6 66  1  0  0  0  0
  6 67  1  0  0  0  0
  6 68  1  0  0  0  0
  7 69  1  0  0  0  0
  7 70  1  0  0  0  0
  7 71  1  0  0  0  0
  8 72  1  0  0  0  0
  8 73  1  0  0  0  0
  8 74  1  0  0  0  0
  9  1  1  0  0  0  0
  9 75  1  0  0  0  0
  9 76  1  0  0  0  0
 10  2  1  0  0  0  0
 10 77  1  0  0  0  0
 10 78  1  0  0  0  0
 11  3  1  0  0  0  0
 11 79  1  0  0  0  0
 11 80  1  0  0  0  0
 12 81  1  0  0  0  0
 12 82  1  0  0  0  0
 13 83  1  0  0  0  0
 14 12  1  0  0  0  0
 14 84  1  0  0  0  0
 14 85  1  0  0  0  0
 15 13  2  0  0  0  0
 15 86  1  0  0  0  0
 16 87  1  0  0  0  0
 16 88  1  0  0  0  0
 17 16  1  0  0  0  0
 17 89  1  0  0  0  0
 17 90  1  0  0  0  0
 18 91  1  0  0  0  0
 18 92  1  0  0  0  0
 19 43  1  6  0  0  0
 19 12  1  0  0  0  0
 19  4  1  0  0  0  0
 20  5  1  0  0  0  0
 20 13  1  0  0  0  0
 21  6  1  0  0  0  0
 21 18  1  0  0  0  0
 21 44  1  6  0  0  0
 22  7  1  0  0  0  0
 22 45  1  1  0  0  0
 23  8  1  0  0  0  0
 23 46  1  6  0  0  0
 24 14  1  0  0  0  0
 24 15  1  0  0  0  0
 25  9  1  0  0  0  0
 25 30  1  0  0  0  0
 25 47  1  6  0  0  0
 26 16  1  0  0  0  0
 26 48  1  1  0  0  0
 27 24  2  0  0  0  0
 28 35  1  0  0  0  0
 28 49  1  6  0  0  0
 28 22  1  0  0  0  0
 28 19  1  0  0  0  0
 29 20  2  0  0  0  0
 29 27  1  0  0  0  0
 30 22  1  0  0  0  0
 31 21  1  0  0  0  0
 31 25  1  0  0  0  0
 31 50  1  1  0  0  0
 32 27  1  0  0  0  0
 33 10  1  0  0  0  0
 33 17  1  0  0  0  0
 33 23  1  0  0  0  0
 33 40  1  6  0  0  0
 34 18  1  0  0  0  0
 34 26  1  0  0  0  0
 34 11  1  6  0  0  0
 35 93  1  0  0  0  0
 36 29  1  0  0  0  0
 36 94  1  0  0  0  0
 37 30  2  0  0  0  0
 38 32  2  0  0  0  0
 39 32  1  0  0  0  0
 39 95  1  0  0  0  0
 40 96  1  0  0  0  0
 41 23  1  0  0  0  0
 41 26  1  0  0  0  0
 42 31  1  0  0  0  0
 42 34  1  0  0  0  0
M  END
>  <DRUGBANK_ID>
DB11423

>  <COMMON_NAME>
Lasalocid

>  <CAS_NUMBER>
25999-31-9

>  <UNII>
W7V2ZZ2FWB

>  <SYNONYMS>
Lasalocid

$$$$
