
 OpenBabel10282417123D

 28 28  0  0  0  0  0  0  0  0999 V2000
    0.9313   -0.0383    0.0251 C   0  0  0  0  0  0  0  0  0  0  0  0
    2.4369   -0.0227    0.1076 C   0  0  0  0  0  0  0  0  0  0  0  0
    0.3034   -0.2988   -1.1517 N   0  0  0  0  0  0  0  0  0  0  0  0
    0.2122    0.1989    1.0789 N   0  0  0  0  0  0  0  0  0  0  0  0
    0.9149   -0.5551   -2.4329 C   0  0  0  0  0  0  0  0  0  0  0  0
    0.5978   -1.9527   -2.8964 C   0  0  0  0  0  0  0  0  0  0  0  0
    1.4529   -2.9997   -2.5230 C   0  0  0  0  0  0  0  0  0  0  0  0
   -0.5539   -2.2487   -3.6377 C   0  0  0  0  0  0  0  0  0  0  0  0
    1.1686   -4.3257   -2.8649 C   0  0  0  0  0  0  0  0  0  0  0  0
   -0.8585   -3.5723   -3.9641 C   0  0  0  0  0  0  0  0  0  0  0  0
    0.0097   -4.6013   -3.6004 C   0  0  0  0  0  0  0  0  0  0  0  0
    2.0680   -5.4361   -2.3938 C   0  0  0  0  0  0  0  0  0  0  0  0
    1.3349   -6.3601   -1.5380 N   0  0  0  0  0  0  0  0  0  0  0  0
    2.7862    0.2085    1.1159 H   0  0  0  0  0  0  0  0  0  0  0  0
    2.8216   -1.0054   -0.1802 H   0  0  0  0  0  0  0  0  0  0  0  0
    2.8256    0.7330   -0.5811 H   0  0  0  0  0  0  0  0  0  0  0  0
   -0.7091   -0.3389   -1.1020 H   0  0  0  0  0  0  0  0  0  0  0  0
    0.8093    0.3821    1.8906 H   0  0  0  0  0  0  0  0  0  0  0  0
    0.5760    0.1836   -3.1659 H   0  0  0  0  0  0  0  0  0  0  0  0
    2.0039   -0.4472   -2.3872 H   0  0  0  0  0  0  0  0  0  0  0  0
    2.3428   -2.7762   -1.9386 H   0  0  0  0  0  0  0  0  0  0  0  0
   -1.2275   -1.4573   -3.9574 H   0  0  0  0  0  0  0  0  0  0  0  0
   -1.7850   -3.8114   -4.4803 H   0  0  0  0  0  0  0  0  0  0  0  0
   -0.2312   -5.6304   -3.8610 H   0  0  0  0  0  0  0  0  0  0  0  0
    2.4832   -5.9632   -3.2590 H   0  0  0  0  0  0  0  0  0  0  0  0
    2.9139   -5.0251   -1.8295 H   0  0  0  0  0  0  0  0  0  0  0  0
    1.9749   -7.0495   -1.1542 H   0  0  0  0  0  0  0  0  0  0  0  0
    0.9565   -5.8367   -0.7483 H   0  0  0  0  0  0  0  0  0  0  0  0
  2  1  1  0  0  0  0
  2 14  1  0  0  0  0
  2 15  1  0  0  0  0
  2 16  1  0  0  0  0
  3  1  1  0  0  0  0
  3 17  1  0  0  0  0
  4  1  2  0  0  0  0
  4 18  1  0  0  0  0
  5  3  1  0  0  0  0
  5 19  1  0  0  0  0
  5 20  1  0  0  0  0
  6  5  1  0  0  0  0
  7  6  2  0  0  0  0
  7 21  1  0  0  0  0
  8  6  1  0  0  0  0
  8 22  1  0  0  0  0
  9  7  1  0  0  0  0
 10  8  2  0  0  0  0
 10 23  1  0  0  0  0
 11  9  2  0  0  0  0
 11 10  1  0  0  0  0
 11 24  1  0  0  0  0
 12  9  1  0  0  0  0
 12 25  1  0  0  0  0
 12 26  1  0  0  0  0
 13 12  1  0  0  0  0
 13 27  1  0  0  0  0
 13 28  1  0  0  0  0
M  END
>  <DRUGBANK_ID>
DB02044

>  <SECONDARY_ACCESSION_NUMBERS>
EXPT00036

>  <COMMON_NAME>
N-[3-(aminomethyl)benzyl]acetamidine

>  <UNII>
M1VB8VP8OH

$$$$
