540
 OpenBabel10282417103D

 41 43  0  0  0  0  0  0  0  0999 V2000
    0.9249   -0.0205    0.0513 N   0  0  0  0  0  0  0  0  0  0  0  0
   -3.0309    4.0734   -2.2438 C   0  0  0  0  0  0  0  0  0  0  0  0
   -3.1640    3.9368   -3.7586 C   0  0  0  0  0  0  0  0  0  0  0  0
   -1.8989    5.0019   -1.8977 C   0  0  0  0  0  0  0  0  0  0  0  0
   -2.0874    3.1704   -4.5098 C   0  0  0  0  0  0  0  0  0  0  0  0
   -0.3068    3.2691   -2.6749 C   0  0  0  0  0  0  0  0  0  0  0  0
   -0.5840    4.5856   -2.1000 C   0  0  0  0  0  0  0  0  0  0  0  0
   -0.8041    2.8399   -4.0198 C   0  0  0  0  0  0  0  0  0  0  0  0
    0.4369    2.4254   -1.9510 C   0  0  0  0  0  0  0  0  0  0  0  0
   -2.1255    6.2987   -1.4358 C   0  0  0  0  0  0  0  0  0  0  0  0
   -2.4258    2.8001   -5.8290 C   0  0  0  0  0  0  0  0  0  0  0  0
    0.4957    5.4340   -1.8232 C   0  0  0  0  0  0  0  0  0  0  0  0
    0.0655    2.1065   -4.8573 C   0  0  0  0  0  0  0  0  0  0  0  0
    0.9391    2.4834   -0.5283 C   0  0  0  0  0  0  0  0  0  0  0  0
   -1.0470    7.1424   -1.1522 C   0  0  0  0  0  0  0  0  0  0  0  0
   -1.5441    2.0846   -6.6357 C   0  0  0  0  0  0  0  0  0  0  0  0
    0.4303    1.3297    0.3647 C   0  0  0  0  0  0  0  0  0  0  0  0
    0.2640    6.7087   -1.3344 C   0  0  0  0  0  0  0  0  0  0  0  0
   -0.3022    1.7219   -6.1433 C   0  0  0  0  0  0  0  0  0  0  0  0
    0.4543   -0.5389   -1.2245 C   0  0  0  0  0  0  0  0  0  0  0  0
    1.9437   -0.0072    0.0452 H   0  0  0  0  0  0  0  0  0  0  0  0
   -2.8829    3.0930   -1.7712 H   0  0  0  0  0  0  0  0  0  0  0  0
   -3.9669    4.4659   -1.8290 H   0  0  0  0  0  0  0  0  0  0  0  0
   -4.1205    3.4282   -3.9422 H   0  0  0  0  0  0  0  0  0  0  0  0
   -3.2402    4.9346   -4.2118 H   0  0  0  0  0  0  0  0  0  0  0  0
    0.7567    1.5506   -2.4819 H   0  0  0  0  0  0  0  0  0  0  0  0
   -3.1408    6.6629   -1.3105 H   0  0  0  0  0  0  0  0  0  0  0  0
   -3.3947    3.0826   -6.2369 H   0  0  0  0  0  0  0  0  0  0  0  0
    1.5148    5.0899   -1.9885 H   0  0  0  0  0  0  0  0  0  0  0  0
    1.0649    1.8359   -4.5256 H   0  0  0  0  0  0  0  0  0  0  0  0
    0.6419    3.4162   -0.0390 H   0  0  0  0  0  0  0  0  0  0  0  0
    2.0347    2.4740   -0.5452 H   0  0  0  0  0  0  0  0  0  0  0  0
   -1.2317    8.1498   -0.7939 H   0  0  0  0  0  0  0  0  0  0  0  0
   -1.8266    1.8204   -7.6499 H   0  0  0  0  0  0  0  0  0  0  0  0
   -0.6663    1.3329    0.4126 H   0  0  0  0  0  0  0  0  0  0  0  0
    0.7647    1.5474    1.3889 H   0  0  0  0  0  0  0  0  0  0  0  0
    1.1053    7.3570   -1.1135 H   0  0  0  0  0  0  0  0  0  0  0  0
    0.3969    1.1622   -6.7572 H   0  0  0  0  0  0  0  0  0  0  0  0
    1.0489   -0.1362   -2.0413 H   0  0  0  0  0  0  0  0  0  0  0  0
    0.6266   -1.6119   -1.3126 H   0  0  0  0  0  0  0  0  0  0  0  0
   -0.6117   -0.3404   -1.3856 H   0  0  0  0  0  0  0  0  0  0  0  0
  1 17  1  0  0  0  0
  1 20  1  0  0  0  0
  1 21  1  0  0  0  0
  2  3  1  0  0  0  0
  2  4  1  0  0  0  0
  2 22  1  0  0  0  0
  2 23  1  0  0  0  0
  3  5  1  0  0  0  0
  3 24  1  0  0  0  0
  3 25  1  0  0  0  0
  4  7  1  0  0  0  0
  4 10  2  0  0  0  0
  5  8  1  0  0  0  0
  5 11  2  0  0  0  0
  6  7  1  0  0  0  0
  6  8  1  0  0  0  0
  6  9  2  0  0  0  0
  7 12  2  0  0  0  0
  8 13  2  0  0  0  0
  9 14  1  0  0  0  0
  9 26  1  0  0  0  0
 10 15  1  0  0  0  0
 10 27  1  0  0  0  0
 11 16  1  0  0  0  0
 11 28  1  0  0  0  0
 12 18  1  0  0  0  0
 12 29  1  0  0  0  0
 13 19  1  0  0  0  0
 13 30  1  0  0  0  0
 14 17  1  0  0  0  0
 14 31  1  0  0  0  0
 14 32  1  0  0  0  0
 15 18  2  0  0  0  0
 15 33  1  0  0  0  0
 16 19  2  0  0  0  0
 16 34  1  0  0  0  0
 17 35  1  0  0  0  0
 17 36  1  0  0  0  0
 18 37  1  0  0  0  0
 19 38  1  0  0  0  0
 20 39  1  0  0  0  0
 20 40  1  0  0  0  0
 20 41  1  0  0  0  0
M  END
>  <DRUGBANK_ID>
DB00540

>  <SECONDARY_ACCESSION_NUMBERS>
APRD00602

>  <COMMON_NAME>
Nortriptyline

>  <CAS_NUMBER>
72-69-5

>  <UNII>
BL03SY4LXB

>  <SYNONYMS>
10,11-dihydro-N-methyl-5H-dibenzo[a,d]cycloheptene-Δ5,γ-propylamine; 3-(10,11-dihydro-5H-dibenzo[a,d]cyclohepten-5-ylidene)-N-methyl-1-propanamine; Demethylamitriptyline; Desmethylamitriptyline; Nortriptylina; Nortriptyline; Nortriptylinum

$$$$
