
 OpenBabel10282417143D

 44 46  0  0  0  0  0  0  0  0999 V2000
    0.9369    1.4326   -0.0253 C   0  0  0  0  0  0  0  0  0  0  0  0
    2.1717    0.7630   -0.0186 C   0  0  0  0  0  0  0  0  0  0  0  0
    2.1432   -0.6506   -0.0016 C   0  0  0  0  0  0  0  0  0  0  0  0
    0.9435   -1.3964    0.0108 C   0  0  0  0  0  0  0  0  0  0  0  0
   -0.2644    0.7169   -0.0445 C   0  0  0  0  0  0  0  0  0  0  0  0
   -0.2480   -0.6651   -0.0080 C   0  0  0  0  0  0  0  0  0  0  0  0
   -2.3308    0.1855    0.0023 C   0  0  0  0  0  0  0  0  0  0  0  0
   -1.5881   -0.9913    0.0172 N   0  0  0  0  0  0  0  0  0  0  0  0
    3.4384    1.5393   -0.0515 C   0  0  0  0  0  0  0  0  0  0  0  0
    4.6065    0.9268   -0.0753 N   0  3  0  0  0  0  0  0  0  0  0  0
    3.4327    2.8582   -0.0740 N   0  0  0  0  0  0  0  0  0  0  0  0
   -3.8081    0.2333    0.0673 C   0  0  0  0  0  0  0  0  0  0  0  0
   -6.5669   -0.0637   -0.0946 C   0  0  0  0  0  0  0  0  0  0  0  0
   -5.8681   -0.4476    1.0681 C   0  0  0  0  0  0  0  0  0  0  0  0
   -4.5092   -0.0740    1.2651 C   0  0  0  0  0  0  0  0  0  0  0  0
   -4.5057    0.6125   -1.0960 C   0  0  0  0  0  0  0  0  0  0  0  0
   -5.8925    0.5518   -1.1386 C   0  0  0  0  0  0  0  0  0  0  0  0
   -3.9221   -0.0173    2.4165 O   0  5  0  0  0  0  0  0  0  0  0  0
   -5.9744   -1.9919    2.9351 C   0  0  0  0  0  0  0  0  0  0  0  0
   -1.5240    1.2212   -0.1256 N   0  0  0  0  0  0  0  0  0  0  0  0
   -6.6298   -1.2626    1.8886 O   0  0  0  0  0  0  0  0  0  0  0  0
   -5.0914   -3.2057    2.5132 C   0  0  0  0  0  0  0  0  0  0  0  0
   -3.9588   -2.9513    1.5223 C   0  0  0  0  0  0  0  0  0  0  0  0
   -4.4400   -3.8231    3.7534 C   0  0  0  0  0  0  0  0  0  0  0  0
    0.8184    2.5059   -0.0211 H   0  0  0  0  0  0  0  0  0  0  0  0
    3.0593   -1.2360    0.0080 H   0  0  0  0  0  0  0  0  0  0  0  0
    0.9588   -2.4826    0.0342 H   0  0  0  0  0  0  0  0  0  0  0  0
   -1.9823   -1.9186    0.0663 H   0  0  0  0  0  0  0  0  0  0  0  0
    4.6691   -0.0808   -0.0628 H   0  0  0  0  0  0  0  0  0  0  0  0
    5.4795    1.4321   -0.1040 H   0  0  0  0  0  0  0  0  0  0  0  0
    4.2772    3.4104   -0.1033 H   0  0  0  0  0  0  0  0  0  0  0  0
    2.5662    3.3842   -0.0550 H   0  0  0  0  0  0  0  0  0  0  0  0
   -7.6367   -0.2394   -0.1636 H   0  0  0  0  0  0  0  0  0  0  0  0
   -3.9508    0.9967   -1.9440 H   0  0  0  0  0  0  0  0  0  0  0  0
   -6.4355    0.9379   -1.9947 H   0  0  0  0  0  0  0  0  0  0  0  0
   -5.5027   -1.3181    3.6554 H   0  0  0  0  0  0  0  0  0  0  0  0
   -6.7997   -2.4199    3.5256 H   0  0  0  0  0  0  0  0  0  0  0  0
   -5.7478   -3.9437    2.0375 H   0  0  0  0  0  0  0  0  0  0  0  0
   -3.1901   -2.3189    1.9760 H   0  0  0  0  0  0  0  0  0  0  0  0
   -3.4325   -3.8661    1.2401 H   0  0  0  0  0  0  0  0  0  0  0  0
   -4.3281   -2.5256    0.5892 H   0  0  0  0  0  0  0  0  0  0  0  0
   -5.1865   -4.2428    4.4306 H   0  0  0  0  0  0  0  0  0  0  0  0
   -3.7497   -4.6246    3.4660 H   0  0  0  0  0  0  0  0  0  0  0  0
   -3.8566   -3.0719    4.3002 H   0  0  0  0  0  0  0  0  0  0  0  0
  1  2  2  0  0  0  0
  1  5  1  0  0  0  0
  1 25  1  0  0  0  0
  2  3  1  0  0  0  0
  2  9  1  0  0  0  0
  3  4  2  0  0  0  0
  3 26  1  0  0  0  0
  4  6  1  0  0  0  0
  4 27  1  0  0  0  0
  5 20  1  0  0  0  0
  5  6  2  0  0  0  0
  6  8  1  0  0  0  0
  7 20  2  0  0  0  0
  7  8  1  0  0  0  0
  7 12  1  0  0  0  0
  8 28  1  0  0  0  0
  9 11  1  0  0  0  0
  9 10  2  0  0  0  0
 10 29  1  0  0  0  0
 10 30  1  0  0  0  0
 11 31  1  0  0  0  0
 11 32  1  0  0  0  0
 12 15  2  0  0  0  0
 12 16  1  0  0  0  0
 13 14  2  0  0  0  0
 13 17  1  0  0  0  0
 13 33  1  0  0  0  0
 14 15  1  0  0  0  0
 14 21  1  0  0  0  0
 15 18  1  0  0  0  0
 16 17  2  0  0  0  0
 16 34  1  0  0  0  0
 17 35  1  0  0  0  0
 19 21  1  0  0  0  0
 19 22  1  0  0  0  0
 19 36  1  0  0  0  0
 19 37  1  0  0  0  0
 22 23  1  0  0  0  0
 22 24  1  0  0  0  0
 22 38  1  0  0  0  0
 23 39  1  0  0  0  0
 23 40  1  0  0  0  0
 23 41  1  0  0  0  0
 24 42  1  0  0  0  0
 24 43  1  0  0  0  0
 24 44  1  0  0  0  0
M  CHG  2  10   1  18  -1
M  END
>  <DRUGBANK_ID>
DB04470

>  <SECONDARY_ACCESSION_NUMBERS>
EXPT00271

>  <COMMON_NAME>
CRA_10656

$$$$
