
 OpenBabel10282417203D

 35 37  0  0  0  0  0  0  0  0999 V2000
    1.7387    3.5266   -5.4806 C   0  0  0  0  0  0  0  0  0  0  0  0
    1.8911    4.4819   -4.7054 C   0  0  0  0  0  0  0  0  0  0  0  0
    4.9315    3.0615   -3.7878 C   0  0  0  0  0  0  0  0  0  0  0  0
    4.7379    3.6786   -2.5518 C   0  0  0  0  0  0  0  0  0  0  0  0
    4.1357    1.9982   -4.1747 C   0  0  0  0  0  0  0  0  0  0  0  0
    3.8052    3.2384   -1.6269 C   0  0  0  0  0  0  0  0  0  0  0  0
    3.0879    1.6462   -3.3182 C   0  0  0  0  0  0  0  0  0  0  0  0
    0.2431   -1.1733   -1.9007 C   0  0  0  0  0  0  0  0  0  0  0  0
   -0.2743    0.3594   -2.4532 C   0  0  0  0  0  0  0  0  0  0  0  0
    1.8187    4.7715   -3.3622 C   0  0  0  0  0  0  0  0  0  0  0  0
    1.8539   -0.0797   -1.1207 C   0  0  0  0  0  0  0  0  0  0  0  0
   -0.1605    4.2936   -1.0971 C   0  0  0  0  0  0  0  0  0  0  0  0
    2.9174    2.2697   -1.9397 C   0  0  0  0  0  0  0  0  0  0  0  0
    1.4958   -1.3152   -1.4306 C   0  0  0  0  0  0  0  0  0  0  0  0
    1.1271    1.1667   -1.7357 C   0  0  0  0  0  0  0  0  0  0  0  0
    0.2694    1.8639   -2.6729 C   0  0  0  0  0  0  0  0  0  0  0  0
    1.2227    4.5071   -1.1474 C   0  0  0  0  0  0  0  0  0  0  0  0
    1.4172    2.2122   -0.9067 C   0  0  0  0  0  0  0  0  0  0  0  0
    2.5334   -2.6583   -1.3125 Cl  0  0  0  0  0  0  0  0  0  0  0  0
    0.2084    2.8723   -0.5471 N   0  0  0  0  0  0  0  0  0  0  0  0
    1.1645    3.5449   -2.5637 N   0  0  0  0  0  0  0  0  0  0  0  0
    1.8881    4.6086   -0.1146 O   0  0  0  0  0  0  0  0  0  0  0  0
    1.5503    2.5178   -5.5609 H   0  0  0  0  0  0  0  0  0  0  0  0
    5.6601    3.4895   -4.4661 H   0  0  0  0  0  0  0  0  0  0  0  0
    5.2029    4.6266   -2.3120 H   0  0  0  0  0  0  0  0  0  0  0  0
    4.2404    1.5673   -5.1725 H   0  0  0  0  0  0  0  0  0  0  0  0
    3.5824    3.8635   -0.7964 H   0  0  0  0  0  0  0  0  0  0  0  0
    2.3042    1.0531   -3.8401 H   0  0  0  0  0  0  0  0  0  0  0  0
   -0.3445   -2.1150   -1.8803 H   0  0  0  0  0  0  0  0  0  0  0  0
   -1.3566    0.0945   -2.6096 H   0  0  0  0  0  0  0  0  0  0  0  0
    2.8523    5.1038   -2.9996 H   0  0  0  0  0  0  0  0  0  0  0  0
    1.3815    5.7728   -3.0982 H   0  0  0  0  0  0  0  0  0  0  0  0
    2.8095    0.1315   -0.6431 H   0  0  0  0  0  0  0  0  0  0  0  0
   -0.6145    5.0993   -0.5100 H   0  0  0  0  0  0  0  0  0  0  0  0
   -0.4077    4.6398   -2.1617 H   0  0  0  0  0  0  0  0  0  0  0  0
  1 23  1  0  0  0  0
  2  1  3  0  0  0  0
  3 24  1  0  0  0  0
  4  3  2  0  0  0  0
  4 25  1  0  0  0  0
  5  3  1  0  0  0  0
  5 26  1  0  0  0  0
  6  4  1  0  0  0  0
  6 27  1  0  0  0  0
  7  5  2  0  0  0  0
  7 28  1  0  0  0  0
  8 29  1  0  0  0  0
  9  8  2  0  0  0  0
  9 30  1  0  0  0  0
 10  2  1  0  0  0  0
 10 31  1  0  0  0  0
 10 32  1  0  0  0  0
 11 33  1  0  0  0  0
 12 34  1  0  0  0  0
 12 35  1  0  0  0  0
 13  6  2  0  0  0  0
 13  7  1  0  0  0  0
 14  8  1  0  0  0  0
 14 11  2  0  0  0  0
 15 11  1  0  0  0  0
 16  9  1  0  0  0  0
 16 15  2  0  0  0  0
 17 12  1  0  0  0  0
 18 13  1  0  0  0  0
 18 15  1  0  0  0  0
 19 14  1  0  0  0  0
 20 12  1  0  0  0  0
 20 18  2  0  0  0  0
 21 10  1  0  0  0  0
 21 16  1  0  0  0  0
 21 17  1  0  0  0  0
 22 17  2  0  0  0  0
M  END
>  <DRUGBANK_ID>
DB13335

>  <COMMON_NAME>
Pinazepam

>  <CAS_NUMBER>
52463-83-9

>  <UNII>
5286RBZ882

>  <SYNONYMS>
Pinazepam

$$$$
