
 OpenBabel10282417103D

 74 76  0  0  1  0  0  0  0  0999 V2000
    1.9711    3.3201    0.7712 C   0  0  0  0  0  0  0  0  0  0  0  0
    1.6986    6.1480    0.0727 C   0  0  0  0  0  0  0  0  0  0  0  0
    1.3062    5.2520   -2.4050 C   0  0  0  0  0  0  0  0  0  0  0  0
    1.2708    3.7984   -2.9205 C   0  0  0  0  0  0  0  0  0  0  0  0
    1.8843    4.3239    1.8886 C   0  0  0  0  0  0  0  0  0  0  0  0
    1.1060    7.3566   -0.0882 C   0  0  0  0  0  0  0  0  0  0  0  0
    2.2971    5.6835    1.3864 C   0  0  0  0  0  0  0  0  0  0  0  0
    1.0884    8.3929    0.9223 C   0  0  0  0  0  0  0  0  0  0  0  0
    2.1336    8.8279    1.6720 C   0  0  0  0  0  0  0  0  0  0  0  0
    3.5078    8.2811    1.6494 C   0  0  0  0  0  0  0  0  0  0  0  0
    1.9196    9.8924    2.7233 C   0  0  0  0  0  0  0  0  0  0  0  0
    4.1747    8.0435    0.5020 C   0  0  0  0  0  0  0  0  0  0  0  0
    2.4825    9.5102    4.1016 C   0  0  2  0  0  0  0  0  0  0  0  0
    3.9143    8.9813    4.0312 C   0  0  0  0  0  0  0  0  0  0  0  0
    1.6311    8.5655    4.7558 O   0  0  0  0  0  0  0  0  0  0  0  0
   -0.0610    1.0988   -0.3855 C   0  0  0  0  0  0  0  0  0  0  0  0
    0.5726    1.5775   -1.7010 C   0  0  2  0  0  0  0  0  0  0  0  0
    1.4179    0.3695   -2.1645 C   0  0  0  0  0  0  0  0  0  0  0  0
    0.5272   -0.8645   -2.3841 C   0  0  0  0  0  0  0  0  0  0  0  0
    0.7991   -1.4721   -5.2641 C   0  0  0  0  0  0  0  0  0  0  0  0
   -1.1991   -0.0190   -5.7675 C   0  0  0  0  0  0  0  0  0  0  0  0
   -0.5991   -0.5932   -3.3963 C   0  0  0  0  0  0  0  0  0  0  0  0
    1.4272    2.8680   -1.6689 C   0  0  2  0  0  0  0  0  0  0  0  0
    2.4885    2.5672   -1.6705 H   0  0  0  0  0  0  0  0  0  0  0  0
    1.8603    5.1045   -0.9899 C   0  0  2  0  0  0  0  0  0  0  0  0
    2.9464    4.9569   -1.1096 H   0  0  0  0  0  0  0  0  0  0  0  0
    1.1931    3.8076   -0.4753 C   0  0  2  0  0  0  0  0  0  0  0  0
   -0.3036    4.1472   -0.1902 C   0  0  0  0  0  0  0  0  0  0  0  0
   -0.0560   -0.2907   -4.8052 C   0  0  0  0  0  0  0  0  0  0  0  0
    0.7190    0.9079   -4.8125 O   0  0  0  0  0  0  0  0  0  0  0  0
    4.0413    7.8539    3.0205 C   0  0  2  0  0  0  0  0  0  0  0  0
    5.3965    7.4165    2.9603 O   0  0  0  0  0  0  0  0  0  0  0  0
    3.0306    3.1647    0.5146 H   0  0  0  0  0  0  0  0  0  0  0  0
    1.6220    2.3766    1.1762 H   0  0  0  0  0  0  0  0  0  0  0  0
    0.2973    5.6800   -2.4212 H   0  0  0  0  0  0  0  0  0  0  0  0
    1.9291    5.9013   -3.0294 H   0  0  0  0  0  0  0  0  0  0  0  0
    0.3428    3.6239   -3.4733 H   0  0  0  0  0  0  0  0  0  0  0  0
    2.1002    3.6378   -3.6219 H   0  0  0  0  0  0  0  0  0  0  0  0
    2.5431    4.0363    2.7161 H   0  0  0  0  0  0  0  0  0  0  0  0
    0.8699    4.3664    2.2969 H   0  0  0  0  0  0  0  0  0  0  0  0
    0.6080    7.6045   -1.0205 H   0  0  0  0  0  0  0  0  0  0  0  0
    3.3859    5.6580    1.2636 H   0  0  0  0  0  0  0  0  0  0  0  0
    2.0090    6.3398    2.2002 H   0  0  0  0  0  0  0  0  0  0  0  0
    0.1083    8.8563    1.0481 H   0  0  0  0  0  0  0  0  0  0  0  0
    0.8510   10.1196    2.8280 H   0  0  0  0  0  0  0  0  0  0  0  0
    2.4153   10.8033    2.3684 H   0  0  0  0  0  0  0  0  0  0  0  0
    3.7366    8.2421   -0.4708 H   0  0  0  0  0  0  0  0  0  0  0  0
    5.1054    7.4839    0.4977 H   0  0  0  0  0  0  0  0  0  0  0  0
    2.4771   10.4033    4.7340 H   0  0  0  0  0  0  0  0  0  0  0  0
    4.6043    9.7864    3.7546 H   0  0  0  0  0  0  0  0  0  0  0  0
    4.2342    8.6117    5.0133 H   0  0  0  0  0  0  0  0  0  0  0  0
    1.5232    7.7860    4.1830 H   0  0  0  0  0  0  0  0  0  0  0  0
    0.6972    0.9421    0.3769 H   0  0  0  0  0  0  0  0  0  0  0  0
   -0.8763    1.6982   -0.0268 H   0  0  0  0  0  0  0  0  0  0  0  0
   -0.5947    0.1579   -0.4687 H   0  0  0  0  0  0  0  0  0  0  0  0
   -0.2364    1.7889   -2.4053 H   0  0  0  0  0  0  0  0  0  0  0  0
    2.0055    0.5987   -3.0577 H   0  0  0  0  0  0  0  0  0  0  0  0
    2.1748    0.1364   -1.4053 H   0  0  0  0  0  0  0  0  0  0  0  0
    1.1405   -1.7210   -2.6668 H   0  0  0  0  0  0  0  0  0  0  0  0
    0.0861   -1.2182   -1.4485 H   0  0  0  0  0  0  0  0  0  0  0  0
    0.2043   -2.3915   -5.2671 H   0  0  0  0  0  0  0  0  0  0  0  0
    1.2211   -1.3029   -6.2552 H   0  0  0  0  0  0  0  0  0  0  0  0
    1.6635   -1.6309   -4.6099 H   0  0  0  0  0  0  0  0  0  0  0  0
   -1.7548    0.8745   -5.4564 H   0  0  0  0  0  0  0  0  0  0  0  0
   -0.8020    0.1975   -6.7651 H   0  0  0  0  0  0  0  0  0  0  0  0
   -1.8860   -0.8649   -5.8266 H   0  0  0  0  0  0  0  0  0  0  0  0
   -1.2626   -1.4656   -3.4199 H   0  0  0  0  0  0  0  0  0  0  0  0
   -1.2425    0.2273   -3.0540 H   0  0  0  0  0  0  0  0  0  0  0  0
   -0.8287    4.4780   -1.0897 H   0  0  0  0  0  0  0  0  0  0  0  0
   -0.9014    3.3601    0.2306 H   0  0  0  0  0  0  0  0  0  0  0  0
   -0.4198    4.9235    0.5679 H   0  0  0  0  0  0  0  0  0  0  0  0
    1.2233    0.9532   -5.6414 H   0  0  0  0  0  0  0  0  0  0  0  0
    3.4833    6.9941    3.4067 H   0  0  0  0  0  0  0  0  0  0  0  0
    5.9013    8.1199    2.5222 H   0  0  0  0  0  0  0  0  0  0  0  0
  1  5  1  0  0  0  0
  1 33  1  0  0  0  0
  1 34  1  0  0  0  0
  2  6  2  0  0  0  0
  2  7  1  0  0  0  0
  3  4  1  0  0  0  0
  3 35  1  0  0  0  0
  3 36  1  0  0  0  0
  4 37  1  0  0  0  0
  4 38  1  0  0  0  0
  5  7  1  0  0  0  0
  5 39  1  0  0  0  0
  5 40  1  0  0  0  0
  6  8  1  0  0  0  0
  6 41  1  0  0  0  0
  7 42  1  0  0  0  0
  7 43  1  0  0  0  0
  8  9  2  0  0  0  0
  8 44  1  0  0  0  0
  9 10  1  0  0  0  0
  9 11  1  0  0  0  0
 10 31  1  0  0  0  0
 10 12  2  0  0  0  0
 11 13  1  0  0  0  0
 11 45  1  0  0  0  0
 11 46  1  0  0  0  0
 12 47  1  0  0  0  0
 12 48  1  0  0  0  0
 13 15  1  0  0  0  0
 13 14  1  0  0  0  0
 13 49  1  1  0  0  0
 14 50  1  0  0  0  0
 14 51  1  0  0  0  0
 15 52  1  0  0  0  0
 16 53  1  0  0  0  0
 16 54  1  0  0  0  0
 16 55  1  0  0  0  0
 17 18  1  0  0  0  0
 17 56  1  6  0  0  0
 17 16  1  0  0  0  0
 18 19  1  0  0  0  0
 18 57  1  0  0  0  0
 18 58  1  0  0  0  0
 19 22  1  0  0  0  0
 19 59  1  0  0  0  0
 19 60  1  0  0  0  0
 20 61  1  0  0  0  0
 20 62  1  0  0  0  0
 20 63  1  0  0  0  0
 21 64  1  0  0  0  0
 21 65  1  0  0  0  0
 21 66  1  0  0  0  0
 22 29  1  0  0  0  0
 22 67  1  0  0  0  0
 22 68  1  0  0  0  0
 23  4  1  0  0  0  0
 23 17  1  0  0  0  0
 23 24  1  1  0  0  0
 25 27  1  0  0  0  0
 25  2  1  0  0  0  0
 25  3  1  0  0  0  0
 25 26  1  6  0  0  0
 27 23  1  0  0  0  0
 27  1  1  0  0  0  0
 27 28  1  1  0  0  0
 28 69  1  0  0  0  0
 28 70  1  0  0  0  0
 28 71  1  0  0  0  0
 29 20  1  0  0  0  0
 29 21  1  0  0  0  0
 29 30  1  0  0  0  0
 30 72  1  0  0  0  0
 31 14  1  0  0  0  0
 31 32  1  0  0  0  0
 31 73  1  1  0  0  0
 32 74  1  0  0  0  0
M  END
>  <DRUGBANK_ID>
DB00136

>  <SECONDARY_ACCESSION_NUMBERS>
NUTR00003; APRD00246; DB05314

>  <COMMON_NAME>
Calcitriol

>  <CAS_NUMBER>
32222-06-3

>  <UNII>
FXC9231JVH

>  <SYNONYMS>
(1S,3R,5Z,7E)-9,10-secocholesta-5,7,10-triene-1,3,25-triol; (1α,3β,5Z,7E)-9,10-secocholesta-5,7,10(19)-triene-1,3,25-triol; (5Z,7E)-(1S,3R)-9,10-secocholesta-5,7,10(19)-triene-1,3,25-triol; 1-alpha-25-Dihydroxyvitamin D3; 1,25-DHCC; 1,25-dihydroxycholecalciferol; 1α,25-dihydroxycholecalciferol; 1α,25-dihydroxyvitamin D3; 1α,25(OH)2D3; Calcitriol; Calcitriolum

$$$$
