
 OpenBabel10282417213D

111108  0  0  0  0  0  0  0  0999 V2000
    2.2980    0.3056   -1.1958 C   0  0  0  0  0  0  0  0  0  0  0  0
    1.0061    1.3103   -1.4201 C   0  0  0  0  0  0  0  0  0  0  0  0
    2.0143   -0.9623   -1.1385 O   0  0  0  0  0  0  0  0  0  0  0  0
   -0.1640    0.7787   -2.3717 C   0  0  0  0  0  0  0  0  0  0  0  0
   -1.3585   -0.1380   -2.0145 C   0  0  0  0  0  0  0  0  0  0  0  0
   -2.2955    0.6097   -1.1514 C   0  0  0  0  0  0  0  0  0  0  0  0
   -3.1858    1.7334   -1.4890 C   0  0  0  0  0  0  0  0  0  0  0  0
   -4.0717    1.1251   -2.5504 C   0  0  0  0  0  0  0  0  0  0  0  0
   -4.9783    0.0410   -2.0154 C   0  0  0  0  0  0  0  0  0  0  0  0
   -5.8717    0.7421   -1.0658 C   0  0  0  0  0  0  0  0  0  0  0  0
   -6.6994    1.9138   -1.4313 C   0  0  0  0  0  0  0  0  0  0  0  0
    3.4494    0.7583   -1.3310 O   0  5  0  0  0  0  0  0  0  0  0  0
   -7.6041    1.3420   -2.4935 C   0  0  0  0  0  0  0  0  0  0  0  0
   -8.5714    0.3557   -1.8718 C   0  0  0  0  0  0  0  0  0  0  0  0
   -9.4097    1.1488   -0.9076 C   0  0  0  0  0  0  0  0  0  0  0  0
  -10.2331    2.2562   -1.4434 C   0  0  0  0  0  0  0  0  0  0  0  0
  -11.1266    1.5965   -2.4898 C   0  0  0  0  0  0  0  0  0  0  0  0
  -12.1167    0.5874   -1.8831 C   0  0  0  0  0  0  0  0  0  0  0  0
  -13.0020    1.2923   -0.8763 C   0  0  0  0  0  0  0  0  0  0  0  0
  -13.7515    2.4629   -1.4220 C   0  0  0  0  0  0  0  0  0  0  0  0
    0.7451   -0.1045    1.2016 C   0  0  0  0  0  0  0  0  0  0  0  0
    0.2245   -1.2029    1.9882 C   0  0  0  0  0  0  0  0  0  0  0  0
    0.1590   -0.2627    0.1005 O   0  0  0  0  0  0  0  0  0  0  0  0
   -0.6608   -0.2563    2.7955 C   0  0  0  0  0  0  0  0  0  0  0  0
   -1.6550    0.5909    1.9960 C   0  0  0  0  0  0  0  0  0  0  0  0
   -2.4874   -0.3936    1.2069 C   0  0  0  0  0  0  0  0  0  0  0  0
   -3.3270   -1.4357    1.8279 C   0  0  0  0  0  0  0  0  0  0  0  0
   -4.1919   -0.6336    2.7812 C   0  0  0  0  0  0  0  0  0  0  0  0
   -5.1095    0.3096    2.0413 C   0  0  0  0  0  0  0  0  0  0  0  0
   -5.9596   -0.5833    1.1777 C   0  0  0  0  0  0  0  0  0  0  0  0
   -6.8024   -1.6307    1.8006 C   0  0  0  0  0  0  0  0  0  0  0  0
    1.6931    0.6444    1.5723 O   0  5  0  0  0  0  0  0  0  0  0  0
   -7.7046   -0.8476    2.7421 C   0  0  0  0  0  0  0  0  0  0  0  0
   -8.6726    0.0147    1.9505 C   0  0  0  0  0  0  0  0  0  0  0  0
   -9.4979   -0.9234    1.0795 C   0  0  0  0  0  0  0  0  0  0  0  0
  -10.3067   -1.9058    1.8548 C   0  0  0  0  0  0  0  0  0  0  0  0
  -11.2063   -1.0655    2.7797 C   0  0  0  0  0  0  0  0  0  0  0  0
  -12.1995   -0.1815    2.0068 C   0  0  0  0  0  0  0  0  0  0  0  0
  -13.0750   -1.0429    1.1042 C   0  0  0  0  0  0  0  0  0  0  0  0
  -13.8260   -2.0842    1.8760 C   0  0  0  0  0  0  0  0  0  0  0  0
    0.5210   -1.6013   -0.9049 Mg  0  2  0  0  0  0  0  0  0  0  0  0
    0.5537    1.7995   -0.5221 H   0  0  0  0  0  0  0  0  0  0  0  0
    1.4690    2.1982   -1.8609 H   0  0  0  0  0  0  0  0  0  0  0  0
   -0.6671    1.6730   -2.7555 H   0  0  0  0  0  0  0  0  0  0  0  0
    0.3400    0.2397   -3.1595 H   0  0  0  0  0  0  0  0  0  0  0  0
   -1.8799   -0.5920   -2.8633 H   0  0  0  0  0  0  0  0  0  0  0  0
   -1.1835   -1.0557   -1.4476 H   0  0  0  0  0  0  0  0  0  0  0  0
   -2.9545   -0.2121   -0.8911 H   0  0  0  0  0  0  0  0  0  0  0  0
   -1.7131    1.0279   -0.3593 H   0  0  0  0  0  0  0  0  0  0  0  0
   -3.6988    2.0602   -0.5616 H   0  0  0  0  0  0  0  0  0  0  0  0
   -2.5880    2.5935   -1.7728 H   0  0  0  0  0  0  0  0  0  0  0  0
   -4.6549    1.9191   -2.9974 H   0  0  0  0  0  0  0  0  0  0  0  0
   -3.4651    0.6573   -3.3140 H   0  0  0  0  0  0  0  0  0  0  0  0
   -5.5369   -0.4910   -2.7849 H   0  0  0  0  0  0  0  0  0  0  0  0
   -4.5248   -0.8085   -1.4772 H   0  0  0  0  0  0  0  0  0  0  0  0
   -6.5332   -0.0772   -0.8578 H   0  0  0  0  0  0  0  0  0  0  0  0
   -5.3235    1.0977   -0.2158 H   0  0  0  0  0  0  0  0  0  0  0  0
   -7.2027    2.2691   -0.5186 H   0  0  0  0  0  0  0  0  0  0  0  0
   -6.0831    2.7568   -1.7335 H   0  0  0  0  0  0  0  0  0  0  0  0
   -8.1251    2.1509   -2.9884 H   0  0  0  0  0  0  0  0  0  0  0  0
   -7.0299    0.8167   -3.2537 H   0  0  0  0  0  0  0  0  0  0  0  0
   -9.1564   -0.1676   -2.6275 H   0  0  0  0  0  0  0  0  0  0  0  0
   -8.1370   -0.5136   -1.3640 H   0  0  0  0  0  0  0  0  0  0  0  0
  -10.1501    0.4583   -0.6374 H   0  0  0  0  0  0  0  0  0  0  0  0
   -8.9138    1.5212   -0.0251 H   0  0  0  0  0  0  0  0  0  0  0  0
  -10.7825    2.6801   -0.5935 H   0  0  0  0  0  0  0  0  0  0  0  0
   -9.5956    3.0568   -1.8140 H   0  0  0  0  0  0  0  0  0  0  0  0
  -11.6492    2.3761   -3.0281 H   0  0  0  0  0  0  0  0  0  0  0  0
  -10.5286    1.0743   -3.2389 H   0  0  0  0  0  0  0  0  0  0  0  0
  -12.7198    0.1312   -2.6694 H   0  0  0  0  0  0  0  0  0  0  0  0
  -11.6373   -0.2898   -1.4167 H   0  0  0  0  0  0  0  0  0  0  0  0
  -13.7883    0.6157   -0.6008 H   0  0  0  0  0  0  0  0  0  0  0  0
  -12.4522    1.6159    0.0095 H   0  0  0  0  0  0  0  0  0  0  0  0
  -14.3827    2.0967   -2.2327 H   0  0  0  0  0  0  0  0  0  0  0  0
  -14.3729    2.8727   -0.6242 H   0  0  0  0  0  0  0  0  0  0  0  0
  -13.0793    3.2424   -1.7747 H   0  0  0  0  0  0  0  0  0  0  0  0
   -0.3147   -1.8849    1.2956 H   0  0  0  0  0  0  0  0  0  0  0  0
    1.0637   -1.7610    2.3816 H   0  0  0  0  0  0  0  0  0  0  0  0
   -1.2418   -0.8974    3.4421 H   0  0  0  0  0  0  0  0  0  0  0  0
   -0.0600    0.4458    3.3723 H   0  0  0  0  0  0  0  0  0  0  0  0
   -2.2851    1.2658    2.5831 H   0  0  0  0  0  0  0  0  0  0  0  0
   -1.1619    1.3474    1.3574 H   0  0  0  0  0  0  0  0  0  0  0  0
   -3.2093    0.2444    0.7320 H   0  0  0  0  0  0  0  0  0  0  0  0
   -1.9116   -0.9681    0.4920 H   0  0  0  0  0  0  0  0  0  0  0  0
   -3.8474   -1.9428    0.9944 H   0  0  0  0  0  0  0  0  0  0  0  0
   -2.7065   -2.2116    2.2665 H   0  0  0  0  0  0  0  0  0  0  0  0
   -4.7626   -1.3116    3.3971 H   0  0  0  0  0  0  0  0  0  0  0  0
   -3.5777   -0.0160    3.4267 H   0  0  0  0  0  0  0  0  0  0  0  0
   -5.7096    0.9660    2.6712 H   0  0  0  0  0  0  0  0  0  0  0  0
   -4.5857    1.0919    1.4731 H   0  0  0  0  0  0  0  0  0  0  0  0
   -6.6756    0.1122    0.7978 H   0  0  0  0  0  0  0  0  0  0  0  0
   -5.4181   -1.0739    0.3704 H   0  0  0  0  0  0  0  0  0  0  0  0
   -7.3225   -2.1463    0.9807 H   0  0  0  0  0  0  0  0  0  0  0  0
   -6.1865   -2.3932    2.2670 H   0  0  0  0  0  0  0  0  0  0  0  0
   -8.2246   -1.5284    3.4002 H   0  0  0  0  0  0  0  0  0  0  0  0
   -7.1288   -0.1796    3.3802 H   0  0  0  0  0  0  0  0  0  0  0  0
   -9.2854    0.6604    2.5802 H   0  0  0  0  0  0  0  0  0  0  0  0
   -8.1456    0.8018    1.4128 H   0  0  0  0  0  0  0  0  0  0  0  0
  -10.3010   -0.3864    0.6514 H   0  0  0  0  0  0  0  0  0  0  0  0
   -8.9702   -1.3923    0.2468 H   0  0  0  0  0  0  0  0  0  0  0  0
  -10.8739   -2.4980    1.1283 H   0  0  0  0  0  0  0  0  0  0  0  0
   -9.6572   -2.6050    2.3753 H   0  0  0  0  0  0  0  0  0  0  0  0
  -11.7255   -1.7262    3.4614 H   0  0  0  0  0  0  0  0  0  0  0  0
  -10.6167   -0.4082    3.4224 H   0  0  0  0  0  0  0  0  0  0  0  0
  -12.8179    0.4077    2.6886 H   0  0  0  0  0  0  0  0  0  0  0  0
  -11.6668    0.5960    1.4454 H   0  0  0  0  0  0  0  0  0  0  0  0
  -13.8851   -0.4626    0.6959 H   0  0  0  0  0  0  0  0  0  0  0  0
  -12.5127   -1.4803    0.2690 H   0  0  0  0  0  0  0  0  0  0  0  0
  -14.4525   -1.5598    2.6031 H   0  0  0  0  0  0  0  0  0  0  0  0
  -14.4611   -2.6444    1.1900 H   0  0  0  0  0  0  0  0  0  0  0  0
  -13.1593   -2.7760    2.3855 H   0  0  0  0  0  0  0  0  0  0  0  0
  1  2  1  0  0  0  0
  1  3  2  0  0  0  0
  1 12  1  0  0  0  0
  2  4  1  0  0  0  0
  2 42  1  0  0  0  0
  2 43  1  0  0  0  0
  4  5  1  0  0  0  0
  4 44  1  0  0  0  0
  4 45  1  0  0  0  0
  5  6  1  0  0  0  0
  5 46  1  0  0  0  0
  5 47  1  0  0  0  0
  6  7  1  0  0  0  0
  6 48  1  0  0  0  0
  6 49  1  0  0  0  0
  7  8  1  0  0  0  0
  7 50  1  0  0  0  0
  7 51  1  0  0  0  0
  8  9  1  0  0  0  0
  8 52  1  0  0  0  0
  8 53  1  0  0  0  0
  9 10  1  0  0  0  0
  9 54  1  0  0  0  0
  9 55  1  0  0  0  0
 10 11  1  0  0  0  0
 10 56  1  0  0  0  0
 10 57  1  0  0  0  0
 11 58  1  0  0  0  0
 11 59  1  0  0  0  0
 13 11  1  0  0  0  0
 13 60  1  0  0  0  0
 13 61  1  0  0  0  0
 14 13  1  0  0  0  0
 14 62  1  0  0  0  0
 14 63  1  0  0  0  0
 15 14  1  0  0  0  0
 15 64  1  0  0  0  0
 15 65  1  0  0  0  0
 16 15  1  0  0  0  0
 16 66  1  0  0  0  0
 16 67  1  0  0  0  0
 17 16  1  0  0  0  0
 17 68  1  0  0  0  0
 17 69  1  0  0  0  0
 18 17  1  0  0  0  0
 18 70  1  0  0  0  0
 18 71  1  0  0  0  0
 19 18  1  0  0  0  0
 19 72  1  0  0  0  0
 19 73  1  0  0  0  0
 20 19  1  0  0  0  0
 20 74  1  0  0  0  0
 20 75  1  0  0  0  0
 20 76  1  0  0  0  0
 21 22  1  0  0  0  0
 21 23  2  0  0  0  0
 21 32  1  0  0  0  0
 22 24  1  0  0  0  0
 22 77  1  0  0  0  0
 22 78  1  0  0  0  0
 24 25  1  0  0  0  0
 24 79  1  0  0  0  0
 24 80  1  0  0  0  0
 25 26  1  0  0  0  0
 25 81  1  0  0  0  0
 25 82  1  0  0  0  0
 26 27  1  0  0  0  0
 26 83  1  0  0  0  0
 26 84  1  0  0  0  0
 27 28  1  0  0  0  0
 27 85  1  0  0  0  0
 27 86  1  0  0  0  0
 28 29  1  0  0  0  0
 28 87  1  0  0  0  0
 28 88  1  0  0  0  0
 29 30  1  0  0  0  0
 29 89  1  0  0  0  0
 29 90  1  0  0  0  0
 30 31  1  0  0  0  0
 30 91  1  0  0  0  0
 30 92  1  0  0  0  0
 31 93  1  0  0  0  0
 31 94  1  0  0  0  0
 33 31  1  0  0  0  0
 33 95  1  0  0  0  0
 33 96  1  0  0  0  0
 34 33  1  0  0  0  0
 34 97  1  0  0  0  0
 34 98  1  0  0  0  0
 35 34  1  0  0  0  0
 35 99  1  0  0  0  0
 35100  1  0  0  0  0
 36 35  1  0  0  0  0
 36101  1  0  0  0  0
 36102  1  0  0  0  0
 37 36  1  0  0  0  0
 37103  1  0  0  0  0
 37104  1  0  0  0  0
 38 37  1  0  0  0  0
 38105  1  0  0  0  0
 38106  1  0  0  0  0
 39 38  1  0  0  0  0
 39107  1  0  0  0  0
 39108  1  0  0  0  0
 40 39  1  0  0  0  0
 40109  1  0  0  0  0
 40110  1  0  0  0  0
 40111  1  0  0  0  0
M  CHG  3  12  -1  32  -1  41   2
M  END
>  <DRUGBANK_ID>
DB14077

>  <COMMON_NAME>
Magnesium stearate

>  <CAS_NUMBER>
557-04-0

>  <UNII>
70097M6I30

>  <SYNONYMS>
Dibasic magnesium stearate; Magnesium distearate; Magnesium octadecanoate; Octadecanoic acid, magnesium salt; Stearic acid, magnesium salt

$$$$
