
 OpenBabel10282417113D

 58 60  0  0  0  0  0  0  0  0999 V2000
    0.9885    0.0013    0.0234 S   0  0  0  0  0  0  0  0  0  0  0  0
    0.3674   -1.0702    1.2076 N   0  0  0  0  0  0  0  0  0  0  0  0
   -0.0709   -0.6793    2.4642 C   0  0  0  0  0  0  0  0  0  0  0  0
    2.1653    9.1414    1.1555 C   0  0  0  0  0  0  0  0  0  0  0  0
    2.6464   10.2270    0.5041 N   0  0  0  0  0  0  0  0  0  0  0  0
    1.9280    7.9147    0.3393 C   0  0  0  0  0  0  0  0  0  0  0  0
    0.4014    1.6807    0.2513 C   0  0  0  0  0  0  0  0  0  0  0  0
    2.2806   10.2035    3.3218 N   0  0  0  0  0  0  0  0  0  0  0  0
   -0.7699   -1.5318    3.2876 N   0  0  0  0  0  0  0  0  0  0  0  0
    2.0286    9.1343    2.5395 C   0  0  0  0  0  0  0  0  0  0  0  0
    0.1711    0.4649    2.8344 O   0  0  0  0  0  0  0  0  0  0  0  0
    2.1464    7.8662   -0.8674 O   0  0  0  0  0  0  0  0  0  0  0  0
    1.6233    6.7643    1.0231 N   0  0  0  0  0  0  0  0  0  0  0  0
   -0.6751    1.9784    1.0801 C   0  0  0  0  0  0  0  0  0  0  0  0
    1.0517    2.7379   -0.3753 C   0  0  0  0  0  0  0  0  0  0  0  0
    2.9416   11.2841    1.2912 C   0  0  0  0  0  0  0  0  0  0  0  0
    2.7461   11.2863    2.6692 C   0  0  0  0  0  0  0  0  0  0  0  0
   -0.8627    3.2513    1.6012 C   0  0  0  0  0  0  0  0  0  0  0  0
    0.6962    4.0452   -0.0334 C   0  0  0  0  0  0  0  0  0  0  0  0
   -0.2139    4.3156    1.0029 C   0  0  0  0  0  0  0  0  0  0  0  0
   -1.6096   -1.0251    4.4262 C   0  0  0  0  0  0  0  0  0  0  0  0
    0.4892    6.5677    1.9154 C   0  0  0  0  0  0  0  0  0  0  0  0
   -0.6352    5.7121    1.3582 C   0  0  0  0  0  0  0  0  0  0  0  0
    3.0508   12.4927    3.4861 C   0  0  0  0  0  0  0  0  0  0  0  0
   -1.2846    0.4241    4.8574 C   0  0  0  0  0  0  0  0  0  0  0  0
   -1.4924   -1.9523    5.6448 C   0  0  0  0  0  0  0  0  0  0  0  0
   -2.0004    0.9340    6.0862 C   0  0  0  0  0  0  0  0  0  0  0  0
   -2.2103   -1.4128    6.8903 C   0  0  0  0  0  0  0  0  0  0  0  0
   -1.7704    0.0010    7.2530 C   0  0  0  0  0  0  0  0  0  0  0  0
    0.4217   -0.4350   -1.2362 O   0  0  0  0  0  0  0  0  0  0  0  0
    2.4290    0.0158    0.1957 O   0  0  0  0  0  0  0  0  0  0  0  0
    0.6771   -2.0237    1.0492 H   0  0  0  0  0  0  0  0  0  0  0  0
   -0.7045   -2.5325    3.1442 H   0  0  0  0  0  0  0  0  0  0  0  0
    1.7303    8.2655    3.1054 H   0  0  0  0  0  0  0  0  0  0  0  0
    2.0272    5.9455    0.5934 H   0  0  0  0  0  0  0  0  0  0  0  0
   -1.3538    1.2055    1.4070 H   0  0  0  0  0  0  0  0  0  0  0  0
    1.7672    2.5778   -1.1784 H   0  0  0  0  0  0  0  0  0  0  0  0
    3.3478   12.1471    0.7772 H   0  0  0  0  0  0  0  0  0  0  0  0
   -1.5523    3.3875    2.4321 H   0  0  0  0  0  0  0  0  0  0  0  0
    1.1327    4.8515   -0.6146 H   0  0  0  0  0  0  0  0  0  0  0  0
   -2.6533   -1.0464    4.0755 H   0  0  0  0  0  0  0  0  0  0  0  0
    0.0346    7.5339    2.1521 H   0  0  0  0  0  0  0  0  0  0  0  0
    0.8965    6.1152    2.8246 H   0  0  0  0  0  0  0  0  0  0  0  0
   -1.0907    6.1705    0.4741 H   0  0  0  0  0  0  0  0  0  0  0  0
   -1.4285    5.6835    2.1225 H   0  0  0  0  0  0  0  0  0  0  0  0
    4.1120   12.7374    3.4007 H   0  0  0  0  0  0  0  0  0  0  0  0
    2.4450   13.3330    3.1382 H   0  0  0  0  0  0  0  0  0  0  0  0
    2.8190   12.3133    4.5412 H   0  0  0  0  0  0  0  0  0  0  0  0
   -0.2058    0.4917    5.0559 H   0  0  0  0  0  0  0  0  0  0  0  0
   -1.5500    1.1258    4.0602 H   0  0  0  0  0  0  0  0  0  0  0  0
   -1.8911   -2.9446    5.4025 H   0  0  0  0  0  0  0  0  0  0  0  0
   -0.4300   -2.0859    5.8806 H   0  0  0  0  0  0  0  0  0  0  0  0
   -1.6217    1.9365    6.3218 H   0  0  0  0  0  0  0  0  0  0  0  0
   -3.0691    1.0332    5.8693 H   0  0  0  0  0  0  0  0  0  0  0  0
   -2.0126   -2.0741    7.7401 H   0  0  0  0  0  0  0  0  0  0  0  0
   -3.2942   -1.4167    6.7206 H   0  0  0  0  0  0  0  0  0  0  0  0
   -0.7064    0.0027    7.5220 H   0  0  0  0  0  0  0  0  0  0  0  0
   -2.3256    0.3686    8.1219 H   0  0  0  0  0  0  0  0  0  0  0  0
  2  1  1  0  0  0  0
  2 32  1  0  0  0  0
  3  2  1  0  0  0  0
  5  4  1  0  0  0  0
  6  4  1  0  0  0  0
  7  1  1  0  0  0  0
  9  3  1  0  0  0  0
  9 33  1  0  0  0  0
 10  4  2  0  0  0  0
 10  8  1  0  0  0  0
 10 34  1  0  0  0  0
 11  3  2  0  0  0  0
 12  6  2  0  0  0  0
 13  6  1  0  0  0  0
 13 35  1  0  0  0  0
 14  7  2  0  0  0  0
 14 36  1  0  0  0  0
 15  7  1  0  0  0  0
 15 37  1  0  0  0  0
 16  5  2  0  0  0  0
 16 38  1  0  0  0  0
 17  8  2  0  0  0  0
 17 16  1  0  0  0  0
 18 14  1  0  0  0  0
 18 39  1  0  0  0  0
 19 15  2  0  0  0  0
 19 40  1  0  0  0  0
 20 18  2  0  0  0  0
 20 19  1  0  0  0  0
 21  9  1  0  0  0  0
 21 41  1  0  0  0  0
 22 13  1  0  0  0  0
 22 42  1  0  0  0  0
 22 43  1  0  0  0  0
 23 20  1  0  0  0  0
 23 22  1  0  0  0  0
 23 44  1  0  0  0  0
 23 45  1  0  0  0  0
 24 17  1  0  0  0  0
 24 46  1  0  0  0  0
 24 47  1  0  0  0  0
 24 48  1  0  0  0  0
 25 21  1  0  0  0  0
 25 49  1  0  0  0  0
 25 50  1  0  0  0  0
 26 21  1  0  0  0  0
 26 51  1  0  0  0  0
 26 52  1  0  0  0  0
 27 25  1  0  0  0  0
 27 53  1  0  0  0  0
 27 54  1  0  0  0  0
 28 26  1  0  0  0  0
 28 55  1  0  0  0  0
 28 56  1  0  0  0  0
 29 27  1  0  0  0  0
 29 28  1  0  0  0  0
 29 57  1  0  0  0  0
 29 58  1  0  0  0  0
 30  1  2  0  0  0  0
 31  1  2  0  0  0  0
M  END
>  <DRUGBANK_ID>
DB01067

>  <SECONDARY_ACCESSION_NUMBERS>
APRD00436

>  <COMMON_NAME>
Glipizide

>  <CAS_NUMBER>
29094-61-9

>  <UNII>
X7WDT95N5C

>  <SYNONYMS>
1-cyclohexyl-3-({p-[2-(5-methylpyrazinecarboxamido)ethyl]phenyl}sulfonyl)urea; Glipizida; Glipizide; Glipizidum; N-{4-[Î²-(5-methylpyrazine-2-carboxamido)ethyl]benzenesulphonyl}-N'-cyclohexylurea

$$$$
