ETP
 OpenBabel10282417123D

 41 43  0  0  0  0  0  0  0  0999 V2000
    1.0050   -0.0767    0.0640 B   0  0  0  0  0  0  0  0  0  0  0  0
    0.2550   -1.3753    0.0292 O   0  0  0  0  0  0  0  0  0  0  0  0
    0.2550    1.2219    0.0988 O   0  0  0  0  0  0  0  0  0  0  0  0
    2.6050   -0.0767    0.0640 C   0  0  0  0  0  0  0  0  0  0  0  0
    3.2564    1.0800    0.0950 C   0  0  0  0  0  0  0  0  0  0  0  0
    4.6212    1.1102    0.2513 C   0  0  0  0  0  0  0  0  0  0  0  0
    5.3069    2.4039    0.3822 N   0  0  0  0  0  0  0  0  0  0  0  0
    5.3506   -0.0457    0.2868 C   0  0  0  0  0  0  0  0  0  0  0  0
    4.6635   -1.1727    0.3283 C   0  0  0  0  0  0  0  0  0  0  0  0
    3.2845   -1.2833    0.0317 C   0  0  0  0  0  0  0  0  0  0  0  0
    7.0546    2.4571    0.5829 S   0  0  0  0  0  0  0  0  0  0  0  0
    7.6771    3.2439   -0.5728 O   0  0  0  0  0  0  0  0  0  0  0  0
    7.3952    3.1422    1.9084 O   0  0  0  0  0  0  0  0  0  0  0  0
    9.3918    0.3963    0.5688 S   0  0  0  0  0  0  0  0  0  0  0  0
    9.0448   -1.2911    0.5676 C   0  0  0  0  0  0  0  0  0  0  0  0
    7.6897   -1.5260    0.5939 C   0  0  0  0  0  0  0  0  0  0  0  0
    6.9374   -0.3465    0.6084 C   0  0  0  0  0  0  0  0  0  0  0  0
    7.7129    0.7711    0.5886 C   0  0  0  0  0  0  0  0  0  0  0  0
    6.9589   -3.1818    0.6084 S   0  0  0  0  0  0  0  0  0  0  0  0
    6.1173   -3.3570    1.8746 O   0  0  0  0  0  0  0  0  0  0  0  0
    6.0687   -3.3574   -0.6241 O   0  0  0  0  0  0  0  0  0  0  0  0
    8.2761   -4.4229    0.5830 C   0  0  0  0  0  0  0  0  0  0  0  0
    9.1630   -4.4426    1.5711 C   0  0  0  0  0  0  0  0  0  0  0  0
   10.0807   -5.4607    1.6670 C   0  0  0  0  0  0  0  0  0  0  0  0
   10.1639   -6.4256    0.7019 C   0  0  0  0  0  0  0  0  0  0  0  0
    9.2204   -6.4151   -0.2220 C   0  0  0  0  0  0  0  0  0  0  0  0
    8.3430   -5.3310   -0.4608 C   0  0  0  0  0  0  0  0  0  0  0  0
    0.9049   -2.1351    0.0088 H   0  0  0  0  0  0  0  0  0  0  0  0
   -0.7281    1.0392    0.0939 H   0  0  0  0  0  0  0  0  0  0  0  0
    2.7136    1.9969   -0.0026 H   0  0  0  0  0  0  0  0  0  0  0  0
    4.7698    3.2706    0.3567 H   0  0  0  0  0  0  0  0  0  0  0  0
    6.4205   -0.0375    0.2812 H   0  0  0  0  0  0  0  0  0  0  0  0
    5.1861   -2.0643    0.6056 H   0  0  0  0  0  0  0  0  0  0  0  0
    2.8096   -2.2145   -0.1969 H   0  0  0  0  0  0  0  0  0  0  0  0
    9.7893   -2.0594    0.5486 H   0  0  0  0  0  0  0  0  0  0  0  0
    5.8679   -0.3257    0.6324 H   0  0  0  0  0  0  0  0  0  0  0  0
    9.1629   -3.6585    2.2992 H   0  0  0  0  0  0  0  0  0  0  0  0
   10.7397   -5.4990    2.5091 H   0  0  0  0  0  0  0  0  0  0  0  0
   10.9512   -7.1502    0.6956 H   0  0  0  0  0  0  0  0  0  0  0  0
    9.1119   -7.2871   -0.8326 H   0  0  0  0  0  0  0  0  0  0  0  0
    7.7821   -5.2226   -1.3655 H   0  0  0  0  0  0  0  0  0  0  0  0
  1  2  1  0  0  0  0
  1  3  1  0  0  0  0
  1  4  1  0  0  0  0
  2 28  1  0  0  0  0
  3 29  1  0  0  0  0
  4  5  2  0  0  0  0
  4 10  1  0  0  0  0
  5  6  1  0  0  0  0
  5 30  1  0  0  0  0
  6  7  1  0  0  0  0
  6  8  2  0  0  0  0
  7 11  1  0  0  0  0
  7 31  1  0  0  0  0
  8  9  1  0  0  0  0
  8 32  1  0  0  0  0
  9 10  2  0  0  0  0
  9 33  1  0  0  0  0
 10 34  1  0  0  0  0
 11 12  2  0  0  0  0
 11 13  2  0  0  0  0
 11 18  1  0  0  0  0
 14 15  1  0  0  0  0
 14 18  1  0  0  0  0
 15 16  2  0  0  0  0
 15 35  1  0  0  0  0
 16 17  1  0  0  0  0
 16 19  1  0  0  0  0
 17 18  2  0  0  0  0
 17 36  1  0  0  0  0
 19 20  2  0  0  0  0
 19 21  2  0  0  0  0
 19 22  1  0  0  0  0
 22 23  2  0  0  0  0
 22 27  1  0  0  0  0
 23 24  1  0  0  0  0
 23 37  1  0  0  0  0
 24 25  2  0  0  0  0
 24 38  1  0  0  0  0
 25 26  1  0  0  0  0
 25 39  1  0  0  0  0
 26 27  2  0  0  0  0
 26 40  1  0  0  0  0
 27 41  1  0  0  0  0
M  END
>  <DRUGBANK_ID>
DB02858

>  <SECONDARY_ACCESSION_NUMBERS>
EXPT01371

>  <COMMON_NAME>
3-(4-Benzenesulfonyl-Thiophene-2-Sulfonylamino)-Phenylboronic Acid

$$$$
