LDT
 OpenBabel10282417173D

 36 37  0  0  0  0  0  0  0  0999 V2000
    0.3816    1.0772   -0.0739 C   0  0  0  0  0  0  0  0  0  0  0  0
   -1.2448   -1.1592   -0.0068 C   0  0  0  0  0  0  0  0  0  0  0  0
   -1.0029    1.2188    0.0192 C   0  0  0  0  0  0  0  0  0  0  0  0
    0.9546   -0.1659   -0.0485 C   0  0  0  0  0  0  0  0  0  0  0  0
    0.1589   -1.2896   -0.0125 C   0  0  0  0  0  0  0  0  0  0  0  0
   -1.9034    0.1008    0.0203 C   0  0  0  0  0  0  0  0  0  0  0  0
   -4.2387    5.8646   -5.2105 Br  0  0  0  0  0  0  0  0  0  0  0  0
    2.2888   -0.2551   -0.0314 F   0  0  0  0  0  0  0  0  0  0  0  0
   -3.5050    0.0830    0.0533 C   0  0  0  0  0  0  0  0  0  0  0  0
   -4.0617    2.5779    0.0073 C   0  0  0  0  0  0  0  0  0  0  0  0
   -4.4128    1.4296   -2.5579 F   0  0  0  0  0  0  0  0  0  0  0  0
   -1.4517    2.4640    0.2474 O   0  0  0  0  0  0  0  0  0  0  0  0
   -4.3937   -1.3701   -0.0011 S   0  0  0  0  0  0  0  0  0  0  0  0
   -4.3777    1.1861    0.1027 N   0  0  0  0  0  0  0  0  0  0  0  0
   -0.8273    3.7120    0.1013 C   0  0  0  0  0  0  0  0  0  0  0  0
   -4.1820    3.3905   -1.2435 C   0  0  0  0  0  0  0  0  0  0  0  0
   -4.1127    4.8605   -3.6180 C   0  0  0  0  0  0  0  0  0  0  0  0
   -3.8644    4.7665   -1.2277 C   0  0  0  0  0  0  0  0  0  0  0  0
   -4.3221    2.7632   -2.4794 C   0  0  0  0  0  0  0  0  0  0  0  0
   -4.3305    3.4883   -3.6581 C   0  0  0  0  0  0  0  0  0  0  0  0
   -3.8307    5.5009   -2.4138 C   0  0  0  0  0  0  0  0  0  0  0  0
   -0.1093    3.8917    1.4041 C   0  0  0  0  0  0  0  0  0  0  0  0
    1.2246    4.0436    1.2454 O   0  0  0  0  0  0  0  0  0  0  0  0
   -0.6561    3.8331    2.4832 O   0  0  0  0  0  0  0  0  0  0  0  0
    1.0424    1.9268   -0.0985 H   0  0  0  0  0  0  0  0  0  0  0  0
   -1.7984   -2.0962   -0.0016 H   0  0  0  0  0  0  0  0  0  0  0  0
    0.6340   -2.2644    0.0107 H   0  0  0  0  0  0  0  0  0  0  0  0
   -4.0461    3.1017    0.9706 H   0  0  0  0  0  0  0  0  0  0  0  0
   -3.0881    2.3740   -0.2367 H   0  0  0  0  0  0  0  0  0  0  0  0
   -5.3629    0.9583    0.0363 H   0  0  0  0  0  0  0  0  0  0  0  0
   -0.2689    3.8389   -0.8303 H   0  0  0  0  0  0  0  0  0  0  0  0
   -1.6066    4.4798    0.0977 H   0  0  0  0  0  0  0  0  0  0  0  0
   -3.6081    5.2738   -0.2962 H   0  0  0  0  0  0  0  0  0  0  0  0
   -4.5247    2.9599   -4.5834 H   0  0  0  0  0  0  0  0  0  0  0  0
   -3.6108    6.5662   -2.3859 H   0  0  0  0  0  0  0  0  0  0  0  0
    1.5147    3.9991    0.3159 H   0  0  0  0  0  0  0  0  0  0  0  0
  1  3  2  0  0  0  0
  1  4  1  0  0  0  0
  1 25  1  0  0  0  0
  2  5  1  0  0  0  0
  2  6  2  0  0  0  0
  2 26  1  0  0  0  0
  3  6  1  0  0  0  0
  3 12  1  0  0  0  0
  4  5  2  0  0  0  0
  4  8  1  0  0  0  0
  5 27  1  0  0  0  0
  6  9  1  0  0  0  0
  7 17  1  0  0  0  0
  9 13  2  0  0  0  0
  9 14  1  0  0  0  0
 10 14  1  0  0  0  0
 10 16  1  0  0  0  0
 10 28  1  0  0  0  0
 10 29  1  0  0  0  0
 11 19  1  0  0  0  0
 12 15  1  0  0  0  0
 14 30  1  0  0  0  0
 15 22  1  0  0  0  0
 15 31  1  0  0  0  0
 15 32  1  0  0  0  0
 16 18  2  0  0  0  0
 16 19  1  0  0  0  0
 17 20  1  0  0  0  0
 17 21  2  0  0  0  0
 18 21  1  0  0  0  0
 18 33  1  0  0  0  0
 19 20  2  0  0  0  0
 20 34  1  0  0  0  0
 21 35  1  0  0  0  0
 22 23  1  0  0  0  0
 22 24  2  0  0  0  0
 23 36  1  0  0  0  0
M  END
>  <DRUGBANK_ID>
DB08084

>  <COMMON_NAME>
IDD594

$$$$
