
 OpenBabel10282417233D

 71 74  0  0  0  0  0  0  0  0999 V2000
    2.1196   -0.2566    3.9198 C   0  0  1  0  0  0  0  0  0  0  0  0
    3.4442   -0.1035    4.3690 O   0  0  0  0  0  0  0  0  0  0  0  0
    4.1951    0.9511    3.9578 C   0  0  0  0  0  0  0  0  0  0  0  0
    3.7249    2.3451    3.0604 C   0  0  2  0  0  0  0  0  0  0  0  0
    5.2873    3.4890    3.6023 C   0  0  0  0  0  0  0  0  0  0  0  0
    5.1206    5.0029    4.4653 O   0  0  0  0  0  0  0  0  0  0  0  0
    1.9015    3.1216    2.8425 C   0  0  0  0  0  0  0  0  0  0  0  0
    1.2388    3.9395    3.9760 C   0  0  0  0  0  0  0  0  0  0  0  0
    0.0803    4.6765    4.3224 C   0  0  0  0  0  0  0  0  0  0  0  0
   -0.6442    4.9088    3.2530 C   0  0  0  0  0  0  0  0  0  0  0  0
    0.0307    4.6672    2.0250 C   0  0  0  0  0  0  0  0  0  0  0  0
    1.2406    3.7627    1.7786 C   0  0  0  0  0  0  0  0  0  0  0  0
    5.3869    0.8606    4.2946 O   0  0  0  0  0  0  0  0  0  0  0  0
    2.1778   -0.0181    2.3891 C   0  0  0  0  0  0  0  0  0  0  0  0
    1.6589   -1.1882    1.6904 C   0  0  1  0  0  0  0  0  0  0  0  0
    2.6168   -2.2817    2.1291 C   0  0  0  0  0  0  0  0  0  0  0  0
    1.9357   -2.9386    3.3153 C   0  0  0  0  0  0  0  0  0  0  0  0
    0.6348   -2.1699    3.5878 C   0  0  1  0  0  0  0  0  0  0  0  0
    1.0991   -1.1932    4.6058 C   0  0  0  0  0  0  0  0  0  0  0  0
    0.2619   -1.4670    2.2627 N   0  3  3  0  0  0  0  0  0  0  0  0
   -0.3692   -2.4170    1.2714 C   0  0  0  0  0  0  0  0  0  0  0  0
   -0.9254   -0.2752    2.3410 C   0  0  0  0  0  0  0  0  0  0  0  0
   -0.9810    0.7209    3.4391 C   0  0  0  0  0  0  0  0  0  0  0  0
    0.0782    1.5565    3.4363 C   0  0  0  0  0  0  0  0  0  0  0  0
    0.6690    1.8547    4.7081 C   0  0  0  0  0  0  0  0  0  0  0  0
    0.2472    2.3559    5.8784 C   0  0  0  0  0  0  0  0  0  0  0  0
   -1.0853    2.0182    5.7264 C   0  0  0  0  0  0  0  0  0  0  0  0
   -1.6135    1.0584    4.6035 C   0  0  0  0  0  0  0  0  0  0  0  0
    0.9370    3.3018    6.7438 O   0  0  0  0  0  0  0  0  0  0  0  0
    2.2371    4.4243    6.5956 C   0  0  0  0  0  0  0  0  0  0  0  0
    3.5669    3.7600    6.4408 C   0  0  0  0  0  0  0  0  0  0  0  0
    3.5553    3.3013    5.0285 C   0  0  0  0  0  0  0  0  0  0  0  0
    3.4229    4.4476    3.3659 C   0  0  0  0  0  0  0  0  0  0  0  0
    1.8203    0.3780    4.6720 H   0  0  0  0  0  0  0  0  0  0  0  0
    3.9861    2.0177    2.0468 H   0  0  0  0  0  0  0  0  0  0  0  0
    5.9445    3.0898    4.3783 H   0  0  0  0  0  0  0  0  0  0  0  0
    5.8053    3.9167    2.7489 H   0  0  0  0  0  0  0  0  0  0  0  0
    4.3891    5.6426    4.2110 H   0  0  0  0  0  0  0  0  0  0  0  0
    1.6873    3.7392    4.8775 H   0  0  0  0  0  0  0  0  0  0  0  0
   -0.2695    4.7899    5.3663 H   0  0  0  0  0  0  0  0  0  0  0  0
   -1.6267    5.3177    3.4416 H   0  0  0  0  0  0  0  0  0  0  0  0
   -0.2943    5.3548    1.2549 H   0  0  0  0  0  0  0  0  0  0  0  0
    1.6659    3.7845    0.7883 H   0  0  0  0  0  0  0  0  0  0  0  0
    1.6904    0.7198    1.7725 H   0  0  0  0  0  0  0  0  0  0  0  0
    3.2045    0.1559    2.0746 H   0  0  0  0  0  0  0  0  0  0  0  0
    1.6442   -0.9972    0.6083 H   0  0  0  0  0  0  0  0  0  0  0  0
    3.6025   -1.8619    2.4190 H   0  0  0  0  0  0  0  0  0  0  0  0
    2.8269   -2.9631    1.3137 H   0  0  0  0  0  0  0  0  0  0  0  0
    2.6131   -2.8887    4.1877 H   0  0  0  0  0  0  0  0  0  0  0  0
    1.7295   -3.9775    3.1160 H   0  0  0  0  0  0  0  0  0  0  0  0
   -0.2267   -2.7328    3.9459 H   0  0  0  0  0  0  0  0  0  0  0  0
    1.5504   -1.5991    5.5214 H   0  0  0  0  0  0  0  0  0  0  0  0
    0.1971   -0.7150    5.0229 H   0  0  0  0  0  0  0  0  0  0  0  0
   -1.3313   -2.7161    1.6821 H   0  0  0  0  0  0  0  0  0  0  0  0
   -0.4981   -1.8630    0.3322 H   0  0  0  0  0  0  0  0  0  0  0  0
    0.2971   -3.2631    1.1271 H   0  0  0  0  0  0  0  0  0  0  0  0
   -0.8792    0.1797    1.3290 H   0  0  0  0  0  0  0  0  0  0  0  0
   -1.8505   -0.8233    2.4663 H   0  0  0  0  0  0  0  0  0  0  0  0
    0.5836    1.6083    2.5189 H   0  0  0  0  0  0  0  0  0  0  0  0
    1.6937    1.9056    4.4455 H   0  0  0  0  0  0  0  0  0  0  0  0
   -1.8165    2.5696    6.2865 H   0  0  0  0  0  0  0  0  0  0  0  0
   -2.4681    0.4433    4.8347 H   0  0  0  0  0  0  0  0  0  0  0  0
    2.1616    5.1416    5.7430 H   0  0  0  0  0  0  0  0  0  0  0  0
    2.2698    5.1212    7.4299 H   0  0  0  0  0  0  0  0  0  0  0  0
    4.5580    4.2143    6.5044 H   0  0  0  0  0  0  0  0  0  0  0  0
    3.5796    2.9121    7.1476 H   0  0  0  0  0  0  0  0  0  0  0  0
    4.3495    2.5537    5.1993 H   0  0  0  0  0  0  0  0  0  0  0  0
    2.8607    2.4811    5.2122 H   0  0  0  0  0  0  0  0  0  0  0  0
    4.2309    4.7198    2.6334 H   0  0  0  0  0  0  0  0  0  0  0  0
    3.3554    3.9875    2.2697 H   0  0  0  0  0  0  0  0  0  0  0  0
    2.7501    5.2900    3.3789 H   0  0  0  0  0  0  0  0  0  0  0  0
  1 14  1  0  0  0  0
  1 19  1  0  0  0  0
  1 34  1  1  0  0  0
  1  2  1  0  0  0  0
  2  3  1  0  0  0  0
  3 13  2  0  0  0  0
  4  7  1  0  0  0  0
  4 35  1  6  0  0  0
  4  5  1  0  0  0  0
  4  3  1  0  0  0  0
  5  6  1  0  0  0  0
  5 36  1  0  0  0  0
  5 37  1  0  0  0  0
  6 38  1  0  0  0  0
  7 12  2  0  0  0  0
  8  7  1  0  0  0  0
  8 39  1  0  0  0  0
  9  8  2  0  0  0  0
  9 40  1  0  0  0  0
 10  9  1  0  0  0  0
 10 41  1  0  0  0  0
 11 10  2  0  0  0  0
 11 42  1  0  0  0  0
 12 11  1  0  0  0  0
 12 43  1  0  0  0  0
 14 15  1  0  0  0  0
 14 44  1  0  0  0  0
 14 45  1  0  0  0  0
 15 16  1  0  0  0  0
 15 20  1  0  0  0  0
 15 46  1  6  0  0  0
 16 47  1  0  0  0  0
 16 48  1  0  0  0  0
 17 16  1  0  0  0  0
 17 49  1  0  0  0  0
 17 50  1  0  0  0  0
 18 17  1  0  0  0  0
 18 20  1  0  0  0  0
 18 51  1  1  0  0  0
 19 18  1  0  0  0  0
 19 52  1  0  0  0  0
 19 53  1  0  0  0  0
 20 21  1  0  0  0  0
 20 22  1  0  0  0  0
 21 54  1  0  0  0  0
 21 55  1  0  0  0  0
 21 56  1  0  0  0  0
 22 23  1  0  0  0  0
 22 57  1  0  0  0  0
 22 58  1  0  0  0  0
 23 24  2  0  0  0  0
 24 25  1  0  0  0  0
 24 59  1  0  0  0  0
 25 26  2  0  0  0  0
 25 60  1  0  0  0  0
 26 27  1  0  0  0  0
 26 29  1  0  0  0  0
 27 28  2  0  0  0  0
 27 61  1  0  0  0  0
 28 23  1  0  0  0  0
 28 62  1  0  0  0  0
 29 30  1  0  0  0  0
 30 31  1  0  0  0  0
 30 63  1  0  0  0  0
 30 64  1  0  0  0  0
 31 32  1  0  0  0  0
 31 65  1  0  0  0  0
 31 66  1  0  0  0  0
 32 33  1  0  0  0  0
 32 67  1  0  0  0  0
 32 68  1  0  0  0  0
 33 69  1  0  0  0  0
 33 70  1  0  0  0  0
 33 71  1  0  0  0  0
M  CHG  1  20   1
M  END
>  <DRUGBANK_ID>
DB15968

>  <COMMON_NAME>
Butropium

>  <CAS_NUMBER>
107080-63-7

>  <UNII>
7WSK03KXXW

$$$$
