
 OpenBabel10282417183D

 36 37  0  0  0  0  0  0  0  0999 V2000
    1.4733   -0.1785   -0.0325 C   0  0  0  0  0  0  0  0  0  0  0  0
    0.7545   -1.3518    0.0382 C   0  0  0  0  0  0  0  0  0  0  0  0
   -0.6252   -1.2842    0.2200 C   0  0  0  0  0  0  0  0  0  0  0  0
   -1.2894   -0.0673    0.2746 C   0  0  0  0  0  0  0  0  0  0  0  0
   -0.5803    1.1369    0.1692 C   0  0  0  0  0  0  0  0  0  0  0  0
    0.8257    1.0593    0.0067 C   0  0  0  0  0  0  0  0  0  0  0  0
   -1.0360    2.4313    0.2242 O   0  0  0  0  0  0  0  0  0  0  0  0
   -2.4430    2.7112    0.3722 C   0  0  0  0  0  0  0  0  0  0  0  0
   -3.2016    2.5417   -0.9700 C   0  0  3  0  0  0  0  0  0  0  0  0
   -2.6260   -0.1106    0.5590 O   0  0  0  0  0  0  0  0  0  0  0  0
   -3.4494   -1.1660    0.0174 C   0  0  0  0  0  0  0  0  0  0  0  0
   -3.1205   -1.8169   -1.3519 C   0  0  0  0  0  0  0  0  0  0  0  0
   -3.5922    1.1836   -1.1186 O   0  0  0  0  0  0  0  0  0  0  0  0
   -4.2962    0.8661   -2.2987 C   0  0  0  0  0  0  0  0  0  0  0  0
   -5.5759    1.6503   -2.3581 C   0  0  0  0  0  0  0  0  0  0  0  0
   -5.2517    3.0825   -2.3148 N   0  0  0  0  0  0  0  0  0  0  0  0
   -4.4971    3.3657   -1.0568 C   0  0  0  0  0  0  0  0  0  0  0  0
    2.5627   -0.2329   -0.0849 H   0  0  0  0  0  0  0  0  0  0  0  0
    1.2168   -2.3274    0.0055 H   0  0  0  0  0  0  0  0  0  0  0  0
   -1.1640   -2.2066    0.3598 H   0  0  0  0  0  0  0  0  0  0  0  0
    1.4196    1.9662   -0.0608 H   0  0  0  0  0  0  0  0  0  0  0  0
   -2.8523    2.1424    1.2145 H   0  0  0  0  0  0  0  0  0  0  0  0
   -2.4940    3.7650    0.6809 H   0  0  0  0  0  0  0  0  0  0  0  0
   -2.5154    2.7790   -1.7899 H   0  0  0  0  0  0  0  0  0  0  0  0
   -3.5466   -1.9312    0.7865 H   0  0  0  0  0  0  0  0  0  0  0  0
   -4.4582   -0.7298   -0.0537 H   0  0  0  0  0  0  0  0  0  0  0  0
   -2.2055   -2.4032   -1.3643 H   0  0  0  0  0  0  0  0  0  0  0  0
   -3.9357   -2.4940   -1.6285 H   0  0  0  0  0  0  0  0  0  0  0  0
   -2.9584   -1.1250   -2.1821 H   0  0  0  0  0  0  0  0  0  0  0  0
   -4.6243   -0.1724   -2.2584 H   0  0  0  0  0  0  0  0  0  0  0  0
   -3.6176    0.9810   -3.1476 H   0  0  0  0  0  0  0  0  0  0  0  0
   -6.2136    1.3625   -1.5102 H   0  0  0  0  0  0  0  0  0  0  0  0
   -6.0981    1.3639   -3.2761 H   0  0  0  0  0  0  0  0  0  0  0  0
   -4.5963    3.2369   -3.0846 H   0  0  0  0  0  0  0  0  0  0  0  0
   -5.1454    3.1358   -0.2010 H   0  0  0  0  0  0  0  0  0  0  0  0
   -4.2656    4.4326   -1.0283 H   0  0  0  0  0  0  0  0  0  0  0  0
  1  2  2  0  0  0  0
  1  6  1  0  0  0  0
  1 18  1  0  0  0  0
  2  3  1  0  0  0  0
  2 19  1  0  0  0  0
  3  4  2  0  0  0  0
  3 20  1  0  0  0  0
  4  5  1  0  0  0  0
  4 10  1  0  0  0  0
  5  6  2  0  0  0  0
  5  7  1  0  0  0  0
  6 21  1  0  0  0  0
  7  8  1  0  0  0  0
  8  9  1  0  0  0  0
  8 22  1  0  0  0  0
  8 23  1  0  0  0  0
  9 13  1  0  0  0  0
  9 17  1  0  0  0  0
  9 24  1  0  0  0  0
 10 11  1  0  0  0  0
 11 12  1  0  0  0  0
 11 25  1  0  0  0  0
 11 26  1  0  0  0  0
 12 27  1  0  0  0  0
 12 28  1  0  0  0  0
 12 29  1  0  0  0  0
 13 14  1  0  0  0  0
 14 15  1  0  0  0  0
 14 30  1  0  0  0  0
 14 31  1  0  0  0  0
 15 16  1  0  0  0  0
 15 32  1  0  0  0  0
 15 33  1  0  0  0  0
 16 17  1  0  0  0  0
 16 34  1  0  0  0  0
 17 35  1  0  0  0  0
 17 36  1  0  0  0  0
M  END
>  <DRUGBANK_ID>
DB09185

>  <COMMON_NAME>
Viloxazine

>  <CAS_NUMBER>
46817-91-8

>  <UNII>
5I5Y2789ZF

>  <SYNONYMS>
2-((2-Ethoxyphenoxy)methyl)morpholine; Viloxazina; Viloxazine; Viloxazinum

$$$$
