480
 OpenBabel10282417103D

 32 34  0  0  1  0  0  0  0  0999 V2000
   -2.6532    0.7959   -0.7664 O   0  0  0  0  0  0  0  0  0  0  0  0
   -4.2755   -3.3878   -1.4722 O   0  0  0  0  0  0  0  0  0  0  0  0
   -6.0665    0.5178   -0.0962 O   0  0  0  0  0  0  0  0  0  0  0  0
   -1.7627   -1.3505   -0.3591 N   0  0  0  0  0  0  0  0  0  0  0  0
   -5.1361   -1.4319   -0.7407 N   0  0  0  0  0  0  0  0  0  0  0  0
    2.6492   -1.5089   -0.0509 N   0  0  0  0  0  0  0  0  0  0  0  0
   -2.9202   -2.1302    0.1169 C   0  0  3  0  0  0  0  0  0  0  0  0
   -3.4154   -1.5608    1.4494 C   0  0  0  0  0  0  0  0  0  0  0  0
   -0.4047   -1.8492   -0.1427 C   0  0  0  0  0  0  0  0  0  0  0  0
    0.4174   -0.6068   -0.0470 C   0  0  0  0  0  0  0  0  0  0  0  0
   -1.7463    0.0335   -0.4621 C   0  0  0  0  0  0  0  0  0  0  0  0
   -4.2411   -0.2868    1.2582 C   0  0  0  0  0  0  0  0  0  0  0  0
   -0.4106    0.5050   -0.1360 C   0  0  0  0  0  0  0  0  0  0  0  0
   -4.1456   -2.3765   -0.7817 C   0  0  0  0  0  0  0  0  0  0  0  0
   -5.2154   -0.3487    0.0938 C   0  0  0  0  0  0  0  0  0  0  0  0
    1.7844   -0.4363    0.0365 C   0  0  0  0  0  0  0  0  0  0  0  0
    0.0289    1.8110   -0.0359 C   0  0  0  0  0  0  0  0  0  0  0  0
    2.2667    0.8861    0.0246 C   0  0  0  0  0  0  0  0  0  0  0  0
    1.4016    2.0001    0.0189 C   0  0  0  0  0  0  0  0  0  0  0  0
   -5.8976   -1.5466   -1.3959 H   0  0  0  0  0  0  0  0  0  0  0  0
    3.6447   -1.3608    0.0530 H   0  0  0  0  0  0  0  0  0  0  0  0
    2.3090   -2.4535    0.0674 H   0  0  0  0  0  0  0  0  0  0  0  0
   -2.5302   -3.1472    0.2755 H   0  0  0  0  0  0  0  0  0  0  0  0
   -4.0270   -2.3040    1.9736 H   0  0  0  0  0  0  0  0  0  0  0  0
   -2.5541   -1.3420    2.0920 H   0  0  0  0  0  0  0  0  0  0  0  0
   -0.3389   -2.4416    0.7778 H   0  0  0  0  0  0  0  0  0  0  0  0
   -0.1364   -2.4490   -1.0148 H   0  0  0  0  0  0  0  0  0  0  0  0
   -4.8003   -0.0651    2.1692 H   0  0  0  0  0  0  0  0  0  0  0  0
   -3.5946    0.5829    1.1428 H   0  0  0  0  0  0  0  0  0  0  0  0
   -0.6696    2.6415   -0.0591 H   0  0  0  0  0  0  0  0  0  0  0  0
    3.3381    1.0720    0.0007 H   0  0  0  0  0  0  0  0  0  0  0  0
    1.8079    3.0091    0.0034 H   0  0  0  0  0  0  0  0  0  0  0  0
  1 11  2  0  0  0  0
  2 14  2  0  0  0  0
  3 15  2  0  0  0  0
  4  7  1  0  0  0  0
  4  9  1  0  0  0  0
  4 11  1  0  0  0  0
  5 14  1  0  0  0  0
  5 15  1  0  0  0  0
  5 20  1  0  0  0  0
  6 16  1  0  0  0  0
  6 21  1  0  0  0  0
  6 22  1  0  0  0  0
  7  8  1  0  0  0  0
  7 14  1  0  0  0  0
  7 23  1  0  0  0  0
  8 12  1  0  0  0  0
  8 24  1  0  0  0  0
  8 25  1  0  0  0  0
  9 10  1  0  0  0  0
  9 26  1  0  0  0  0
  9 27  1  0  0  0  0
 10 13  2  0  0  0  0
 10 16  1  0  0  0  0
 11 13  1  0  0  0  0
 12 15  1  0  0  0  0
 12 28  1  0  0  0  0
 12 29  1  0  0  0  0
 13 17  1  0  0  0  0
 16 18  2  0  0  0  0
 17 19  2  0  0  0  0
 17 30  1  0  0  0  0
 18 19  1  0  0  0  0
 18 31  1  0  0  0  0
 19 32  1  0  0  0  0
M  END
>  <DRUGBANK_ID>
DB00480

>  <SECONDARY_ACCESSION_NUMBERS>
APRD01303

>  <COMMON_NAME>
Lenalidomide

>  <CAS_NUMBER>
191732-72-6

>  <UNII>
F0P408N6V4

>  <SYNONYMS>
1-oxo-2-(2,6-dioxopiperidin-3-yl)-4-aminoisoindoline; 3-(4-Amino-1-oxoisoindolin-2-yl)piperidine-2,6-dione; Lenalidomida; Lenalidomide

$$$$
