
 OpenBabel10282417203D

 57 27  0  0  0  0  0  0  0  0999 V2000
    1.0720   -0.0242   -0.0651 C   0  0  0  0  0  0  0  0  0  0  0  0
    0.4365   -0.9483   -0.6630 O   0  0  0  0  0  0  0  0  0  0  0  0
    0.3620    1.0083    0.6030 O   0  5  0  0  0  0  0  0  0  0  0  0
    2.4920   -0.0242   -0.0651 O   0  5  0  0  0  0  0  0  0  0  0  0
    0.9033   -0.0203    0.0156 O   0  0  0  0  0  0  0  0  0  0  0  0
    1.0296    0.0954    0.0056 O   0  0  0  0  0  0  0  0  0  0  0  0
    1.0920    0.0013    0.0393 O   0  0  0  0  0  0  0  0  0  0  0  0
    1.0697    0.0633    0.0338 O   0  0  0  0  0  0  0  0  0  0  0  0
    0.9384    0.0687    0.0384 O   0  0  0  0  0  0  0  0  0  0  0  0
    0.9838   -0.0711   -0.0684 O   0  0  0  0  0  0  0  0  0  0  0  0
    1.0805    0.0540   -0.0244 O   0  0  0  0  0  0  0  0  0  0  0  0
    0.9460    0.0406    0.0737 O   0  0  0  0  0  0  0  0  0  0  0  0
    0.9512    0.0624    0.0610 O   0  0  0  0  0  0  0  0  0  0  0  0
    1.0532   -0.0565    0.0630 O   0  0  0  0  0  0  0  0  0  0  0  0
    1.0500    0.0393   -0.0771 O   0  0  0  0  0  0  0  0  0  0  0  0
    1.0106    0.0970   -0.0217 O   0  0  0  0  0  0  0  0  0  0  0  0
    1.0728    0.0666    0.0160 O   0  6  0  0  0  0  0  0  0  0  0  0
    1.0601   -0.0315    0.0734 O   0  6  0  0  0  0  0  0  0  0  0  0
    1.0690   -0.0445   -0.0571 O   0  6  0  0  0  0  0  0  0  0  0  0
    0.9366   -0.0390    0.0668 O   0  6  0  0  0  0  0  0  0  0  0  0
    1.0522    0.0485    0.0701 O   0  6  0  0  0  0  0  0  0  0  0  0
    0.9988    0.0898   -0.0441 O   0  6  0  0  0  0  0  0  0  0  0  0
    0.9510   -0.0336   -0.0804 O   0  6  0  0  0  0  0  0  0  0  0  0
    0.9845    0.0953    0.0259 O   0  6  0  0  0  0  0  0  0  0  0  0
    1.0952    0.0234    0.0199 O   0  6  0  0  0  0  0  0  0  0  0  0
    0.9178   -0.0295    0.0487 Mg  0  2  0  0  0  0  0  0  0  0  0  0
    1.0570    0.0589    0.0573 Mg  0  2  0  0  0  0  0  0  0  0  0  0
    0.9512    0.0532    0.0692 Mg  0  2  0  0  0  0  0  0  0  0  0  0
    0.9872    0.0938    0.0323 Mg  0  2  0  0  0  0  0  0  0  0  0  0
    1.0617    0.0730    0.0293 Mg  0  2  0  0  0  0  0  0  0  0  0  0
    0.9570    0.0015    0.0903 Mg  0  2  0  0  0  0  0  0  0  0  0  0
    0.9434    0.0795   -0.0218 Al  0  1  0  0  0  0  0  0  0  0  0  0
    1.0182    0.0694    0.0697 Al  0  1  0  0  0  0  0  0  0  0  0  0
    0.5700    0.8085    0.4651 H   0  0  0  0  0  0  0  0  0  0  0  0
    1.9033   -0.0203    0.0156 H   0  0  0  0  0  0  0  0  0  0  0  0
    0.6962   -0.8444    0.0809 H   0  0  0  0  0  0  0  0  0  0  0  0
    2.0296    0.0954    0.0056 H   0  0  0  0  0  0  0  0  0  0  0  0
    0.7586    0.9424    0.0969 H   0  0  0  0  0  0  0  0  0  0  0  0
    2.0920    0.0013    0.0393 H   0  0  0  0  0  0  0  0  0  0  0  0
    0.7363   -0.7351    0.5353 H   0  0  0  0  0  0  0  0  0  0  0  0
    2.0697    0.0633    0.0338 H   0  0  0  0  0  0  0  0  0  0  0  0
    0.6050   -0.2095    0.9392 H   0  0  0  0  0  0  0  0  0  0  0  0
    1.9384    0.0687    0.0384 H   0  0  0  0  0  0  0  0  0  0  0  0
    0.6504   -0.7234    0.6123 H   0  0  0  0  0  0  0  0  0  0  0  0
    1.9838   -0.0711   -0.0684 H   0  0  0  0  0  0  0  0  0  0  0  0
    0.7472   -0.6671   -0.6319 H   0  0  0  0  0  0  0  0  0  0  0  0
    2.0805    0.0540   -0.0244 H   0  0  0  0  0  0  0  0  0  0  0  0
    0.6126    0.9603    0.2812 H   0  0  0  0  0  0  0  0  0  0  0  0
    1.9460    0.0406    0.0737 H   0  0  0  0  0  0  0  0  0  0  0  0
    0.6179    0.9966   -0.0662 H   0  0  0  0  0  0  0  0  0  0  0  0
    1.9512    0.0624    0.0610 H   0  0  0  0  0  0  0  0  0  0  0  0
    0.7199   -0.6587   -0.6625 H   0  0  0  0  0  0  0  0  0  0  0  0
    2.0532   -0.0565    0.0630 H   0  0  0  0  0  0  0  0  0  0  0  0
    0.7167    0.7425   -0.7052 H   0  0  0  0  0  0  0  0  0  0  0  0
    2.0500    0.0393   -0.0771 H   0  0  0  0  0  0  0  0  0  0  0  0
    0.6772   -0.7356    0.4205 H   0  0  0  0  0  0  0  0  0  0  0  0
    2.0106    0.0970   -0.0217 H   0  0  0  0  0  0  0  0  0  0  0  0
  1  2  2  0  0  0  0
  1  3  1  0  0  0  0
  1  4  1  0  0  0  0
  5 34  1  0  0  0  0
  5 35  1  0  0  0  0
  6 36  1  0  0  0  0
  6 37  1  0  0  0  0
  7 38  1  0  0  0  0
  7 39  1  0  0  0  0
  8 40  1  0  0  0  0
  8 41  1  0  0  0  0
  9 42  1  0  0  0  0
  9 43  1  0  0  0  0
 10 44  1  0  0  0  0
 10 45  1  0  0  0  0
 11 46  1  0  0  0  0
 11 47  1  0  0  0  0
 12 48  1  0  0  0  0
 12 49  1  0  0  0  0
 13 50  1  0  0  0  0
 13 51  1  0  0  0  0
 14 52  1  0  0  0  0
 14 53  1  0  0  0  0
 15 54  1  0  0  0  0
 15 55  1  0  0  0  0
 16 56  1  0  0  0  0
 16 57  1  0  0  0  0
M  CHG  8   3  -1   4  -1  17  -2  18  -2  19  -2  20  -2  21  -2  22  -2
M  CHG  8  23  -2  24  -2  25  -2  26   2  27   2  28   2  29   2  30   2
M  CHG  3  31   2  32   3  33   3
M  END
>  <DRUGBANK_ID>
DB13322

>  <COMMON_NAME>
Hydrotalcite

>  <CAS_NUMBER>
12304-65-3

>  <UNII>
17432CG1KU

>  <SYNONYMS>
Hydrotalcite

$$$$
