
 OpenBabel10282417133D

 18 17  0  0  1  0  0  0  0  0999 V2000
   -1.3985   -2.2876    0.1469 N   0  0  0  0  0  0  0  0  0  0  0  0
   -1.6658   -1.1586    1.0434 C   0  0  0  0  0  0  0  0  0  0  0  0
   -1.0660   -1.3399    2.4444 C   0  0  0  0  0  0  0  0  0  0  0  0
    0.4759   -1.3001    2.5117 C   0  0  2  0  0  0  0  0  0  0  0  0
    1.0964   -1.8855    1.3066 N   0  0  0  0  0  0  0  0  0  0  0  0
    0.9418   -2.0480    3.7818 C   0  0  0  0  0  0  0  0  0  0  0  0
    1.7066   -1.2982    4.6161 O   0  0  0  0  0  0  0  0  0  0  0  0
    0.6700   -3.2068    4.0459 O   0  0  0  0  0  0  0  0  0  0  0  0
   -0.3873   -2.4655    0.1185 H   0  0  0  0  0  0  0  0  0  0  0  0
   -1.7220   -3.1442    0.6011 H   0  0  0  0  0  0  0  0  0  0  0  0
   -1.2886   -0.2306    0.5978 H   0  0  0  0  0  0  0  0  0  0  0  0
   -2.7518   -1.0574    1.1238 H   0  0  0  0  0  0  0  0  0  0  0  0
   -1.4510   -0.5357    3.0884 H   0  0  0  0  0  0  0  0  0  0  0  0
   -1.4580   -2.2697    2.8769 H   0  0  0  0  0  0  0  0  0  0  0  0
    0.8021   -0.2554    2.5634 H   0  0  0  0  0  0  0  0  0  0  0  0
    2.1100   -1.9201    1.3730 H   0  0  0  0  0  0  0  0  0  0  0  0
    0.8836   -1.2699    0.5183 H   0  0  0  0  0  0  0  0  0  0  0  0
    1.8862   -0.3849    4.3309 H   0  0  0  0  0  0  0  0  0  0  0  0
  1  2  1  0  0  0  0
  1  9  1  0  0  0  0
  1 10  1  0  0  0  0
  2  3  1  0  0  0  0
  2 11  1  0  0  0  0
  2 12  1  0  0  0  0
  3 13  1  0  0  0  0
  3 14  1  0  0  0  0
  4  6  1  0  0  0  0
  4 15  1  1  0  0  0
  4  5  1  0  0  0  0
  4  3  1  0  0  0  0
  5 16  1  0  0  0  0
  5 17  1  0  0  0  0
  6  7  1  0  0  0  0
  6  8  2  0  0  0  0
  7 18  1  0  0  0  0
M  END
>  <DRUGBANK_ID>
DB03817

>  <SECONDARY_ACCESSION_NUMBERS>
EXPT01102

>  <COMMON_NAME>
L-2,4-diaminobutyric acid

>  <CAS_NUMBER>
1758-80-1

>  <UNII>
61HPH2F0W7

>  <SYNONYMS>
(S)-2,4-Diaminobutanoic acid; alpha,gamma-Diaminobutyrate; Dbu; L-2,4-Diaminobutanoate; L-2,4-diaminobutanoic acid; L-2,4-Diaminobutyrate; L-Dbu; L-diaminobutyric acid

$$$$
