
 OpenBabel10282417193D

 58 59  0  0  0  0  0  0  0  0999 V2000
    1.3299    0.0901    0.0876 C   0  0  0  0  0  0  0  0  0  0  0  0
    0.7183    0.8226   -1.1343 C   0  0  0  0  0  0  0  0  0  0  0  0
    4.0673    1.6833    3.5995 C   0  0  0  0  0  0  0  0  0  0  0  0
    4.9594    0.6136    3.5173 C   0  0  0  0  0  0  0  0  0  0  0  0
    2.7172    1.4430    3.7984 C   0  0  0  0  0  0  0  0  0  0  0  0
    1.2321   -1.4269    0.0251 C   0  0  0  0  0  0  0  0  0  0  0  0
    1.0703    0.2498   -2.5180 C   0  0  0  0  0  0  0  0  0  0  0  0
    4.4977   -0.7032    3.5916 C   0  0  0  0  0  0  0  0  0  0  0  0
    2.2797    0.1385    3.9873 C   0  0  0  0  0  0  0  0  0  0  0  0
   -2.3709   -3.4677    0.8720 C   0  0  0  0  0  0  0  0  0  0  0  0
   -2.8130   -2.8378    2.0544 C   0  0  0  0  0  0  0  0  0  0  0  0
    2.6415   -2.3944    3.8087 C   0  0  0  0  0  0  0  0  0  0  0  0
   -1.2005   -3.3296   -1.4039 C   0  0  0  0  0  0  0  0  0  0  0  0
    1.3509   -2.3080    1.2417 C   0  0  0  0  0  0  0  0  0  0  0  0
    0.5182   -1.1357   -2.9361 C   0  0  0  0  0  0  0  0  0  0  0  0
    1.1143   -2.5224    3.6203 C   0  0  0  0  0  0  0  0  0  0  0  0
   -1.4623   -2.6040   -2.7513 C   0  0  0  0  0  0  0  0  0  0  0  0
   -1.8489   -1.3143    0.0388 C   0  0  0  0  0  0  0  0  0  0  0  0
    3.1426   -0.9600    3.8187 C   0  0  0  0  0  0  0  0  0  0  0  0
   -1.8711   -2.6995   -0.1817 C   0  0  0  0  0  0  0  0  0  0  0  0
   -2.6629   -1.4622    2.2499 C   0  0  0  0  0  0  0  0  0  0  0  0
   -2.1448   -0.6960    1.2282 C   0  0  0  0  0  0  0  0  0  0  0  0
    0.6254   -1.8565    2.4103 N   0  0  0  0  0  0  0  0  0  0  0  0
   -0.9338   -1.2476   -2.9825 N   0  0  0  0  0  0  0  0  0  0  0  0
   -2.9719   -0.8218    3.4078 O   0  0  0  0  0  0  0  0  0  0  0  0
   -1.8274    0.6233    1.3604 O   0  0  0  0  0  0  0  0  0  0  0  0
    0.8534    0.5030    0.9822 H   0  0  0  0  0  0  0  0  0  0  0  0
    2.3904    0.3439    0.1510 H   0  0  0  0  0  0  0  0  0  0  0  0
   -0.3660    0.9445   -1.0474 H   0  0  0  0  0  0  0  0  0  0  0  0
    1.0778    1.8599   -1.0864 H   0  0  0  0  0  0  0  0  0  0  0  0
    4.4221    2.7058    3.5203 H   0  0  0  0  0  0  0  0  0  0  0  0
    6.0183    0.8078    3.3768 H   0  0  0  0  0  0  0  0  0  0  0  0
    1.9972    2.2569    3.8097 H   0  0  0  0  0  0  0  0  0  0  0  0
    0.2933   -1.6678   -0.3988 H   0  0  0  0  0  0  0  0  0  0  0  0
    1.9776   -1.8076   -0.6748 H   0  0  0  0  0  0  0  0  0  0  0  0
    0.7488    0.9785   -3.2722 H   0  0  0  0  0  0  0  0  0  0  0  0
    2.1647    0.2103   -2.5722 H   0  0  0  0  0  0  0  0  0  0  0  0
    5.1996   -1.5241    3.4629 H   0  0  0  0  0  0  0  0  0  0  0  0
    1.2256    0.0061    4.2169 H   0  0  0  0  0  0  0  0  0  0  0  0
   -2.3868   -4.5506    0.7938 H   0  0  0  0  0  0  0  0  0  0  0  0
   -3.2378   -3.4577    2.8387 H   0  0  0  0  0  0  0  0  0  0  0  0
    2.9548   -2.9243    4.7105 H   0  0  0  0  0  0  0  0  0  0  0  0
    3.1492   -2.9371    2.9988 H   0  0  0  0  0  0  0  0  0  0  0  0
   -1.5373   -4.3694   -1.5096 H   0  0  0  0  0  0  0  0  0  0  0  0
   -0.1181   -3.4452   -1.2452 H   0  0  0  0  0  0  0  0  0  0  0  0
    0.9782   -3.3143    1.0124 H   0  0  0  0  0  0  0  0  0  0  0  0
    2.4241   -2.3879    1.3731 H   0  0  0  0  0  0  0  0  0  0  0  0
    0.8959   -1.3631   -3.9360 H   0  0  0  0  0  0  0  0  0  0  0  0
    0.9597   -1.9151   -2.3255 H   0  0  0  0  0  0  0  0  0  0  0  0
    0.6008   -2.1012    4.4941 H   0  0  0  0  0  0  0  0  0  0  0  0
    0.8120   -3.5741    3.5779 H   0  0  0  0  0  0  0  0  0  0  0  0
   -2.5506   -2.5504   -2.8636 H   0  0  0  0  0  0  0  0  0  0  0  0
   -1.0972   -3.2332   -3.5709 H   0  0  0  0  0  0  0  0  0  0  0  0
   -1.3903   -0.6477   -0.6612 H   0  0  0  0  0  0  0  0  0  0  0  0
    0.7234   -0.8475    2.4821 H   0  0  0  0  0  0  0  0  0  0  0  0
   -1.3910   -0.5762   -2.3785 H   0  0  0  0  0  0  0  0  0  0  0  0
   -3.4074   -1.4739    3.9827 H   0  0  0  0  0  0  0  0  0  0  0  0
   -2.0080    0.8588    2.2865 H   0  0  0  0  0  0  0  0  0  0  0  0
  1 27  1  0  0  0  0
  1 28  1  0  0  0  0
  2  1  1  0  0  0  0
  2 29  1  0  0  0  0
  2 30  1  0  0  0  0
  3 31  1  0  0  0  0
  4  3  2  0  0  0  0
  4 32  1  0  0  0  0
  5  3  1  0  0  0  0
  5 33  1  0  0  0  0
  6  1  1  0  0  0  0
  6 34  1  0  0  0  0
  6 35  1  0  0  0  0
  7  2  1  0  0  0  0
  7 36  1  0  0  0  0
  7 37  1  0  0  0  0
  8  4  1  0  0  0  0
  8 38  1  0  0  0  0
  9  5  2  0  0  0  0
  9 39  1  0  0  0  0
 10 40  1  0  0  0  0
 11 10  2  0  0  0  0
 11 41  1  0  0  0  0
 12 42  1  0  0  0  0
 12 43  1  0  0  0  0
 13 44  1  0  0  0  0
 13 45  1  0  0  0  0
 14  6  1  0  0  0  0
 14 46  1  0  0  0  0
 14 47  1  0  0  0  0
 15  7  1  0  0  0  0
 15 48  1  0  0  0  0
 15 49  1  0  0  0  0
 16 12  1  0  0  0  0
 16 50  1  0  0  0  0
 16 51  1  0  0  0  0
 17 13  1  0  0  0  0
 17 52  1  0  0  0  0
 17 53  1  0  0  0  0
 18 54  1  0  0  0  0
 19  8  2  0  0  0  0
 19  9  1  0  0  0  0
 19 12  1  0  0  0  0
 20 10  1  0  0  0  0
 20 13  1  0  0  0  0
 20 18  2  0  0  0  0
 21 11  1  0  0  0  0
 22 18  1  0  0  0  0
 22 21  2  0  0  0  0
 23 14  1  0  0  0  0
 23 16  1  0  0  0  0
 23 55  1  0  0  0  0
 24 15  1  0  0  0  0
 24 17  1  0  0  0  0
 24 56  1  0  0  0  0
 25 21  1  0  0  0  0
 25 57  1  0  0  0  0
 26 22  1  0  0  0  0
 26 58  1  0  0  0  0
M  END
>  <DRUGBANK_ID>
DB12313

>  <COMMON_NAME>
Dopexamine

>  <CAS_NUMBER>
86197-47-9

>  <UNII>
398E7Z7JB5

>  <SYNONYMS>
Dopexamine

$$$$
