
 OpenBabel10282417233D

215221  0  0  1  0  0  0  0  0999 V2000
   -0.7160   -1.3925    1.1563 H   0  0  0  0  0  0  0  0  0  0  0  0
    0.7934   -1.2910    1.5999 C   0  0  2  0  0  0  0  0  0  0  0  0
    3.5671   -1.4133    1.3750 N   0  0  0  0  0  0  0  0  0  0  0  0
    6.1862   -1.3760    1.1167 C   0  0  0  0  0  0  0  0  0  0  0  0
    7.8771   -0.8044    0.6428 O   0  0  0  0  0  0  0  0  0  0  0  0
    8.7801   -1.6329    1.4781 C   0  0  2  0  0  0  0  0  0  0  0  0
    9.8154   -3.0163    0.9235 C   0  0  0  0  0  0  0  0  0  0  0  0
   10.7435   -3.8900    0.0858 C   0  0  0  0  0  0  0  0  0  0  0  0
   11.8787   -4.4534    0.9258 C   0  0  0  0  0  0  0  0  0  0  0  0
   11.3277   -5.2438    2.0944 C   0  0  0  0  0  0  0  0  0  0  0  0
   10.5270   -6.3607    1.6081 N   0  0  0  0  0  0  0  0  0  0  0  0
    9.4826   -1.2007    2.6616 N   0  0  0  0  0  0  0  0  0  0  0  0
    8.1548   -1.6024    2.6006 C   0  0  0  0  0  0  0  0  0  0  0  0
    7.6496   -2.5895    1.8148 O   0  0  0  0  0  0  0  0  0  0  0  0
    7.1540   -0.6954    3.2436 C   0  0  0  0  0  0  0  0  0  0  0  0
    7.8600    0.3136    4.0556 C   0  0  0  0  0  0  0  0  0  0  0  0
    6.9413    1.0255    4.8440 C   0  0  0  0  0  0  0  0  0  0  0  0
    7.3850    1.9639    5.8116 C   0  0  0  0  0  0  0  0  0  0  0  0
    6.5399    2.9401    6.5256 C   0  0  0  0  0  0  0  0  0  0  0  0
    4.9640    3.0221    6.4208 C   0  0  0  0  0  0  0  0  0  0  0  0
    4.1160    3.9572    6.7753 N   0  0  0  0  0  0  0  0  0  0  0  0
    2.7674    3.9084    6.3574 C   0  0  0  0  0  0  0  0  0  0  0  0
    1.9059    4.7781    7.0367 N   0  0  0  0  0  0  0  0  0  0  0  0
    2.2811    3.1939    5.4771 O   0  0  0  0  0  0  0  0  0  0  0  0
    4.3161    1.8033    5.7288 C   0  0  0  0  0  0  0  0  0  0  0  0
    5.5902    0.7678    4.7816 C   0  0  0  0  0  0  0  0  0  0  0  0
    6.1983    0.0454    2.3564 N   0  0  0  0  0  0  0  0  0  0  0  0
    4.8176   -0.2099    2.4804 C   0  0  0  0  0  0  0  0  0  0  0  0
    4.3667   -1.1552    3.2243 O   0  0  0  0  0  0  0  0  0  0  0  0
    3.8789    0.5677    1.3357 C   0  0  2  0  0  0  0  0  0  0  0  0
    2.8921    1.2951    2.1258 C   0  0  0  0  0  0  0  0  0  0  0  0
    3.5329    2.2227    2.7899 C   0  0  0  0  0  0  0  0  0  0  0  0
    4.2181    1.7154    3.6489 C   0  0  0  0  0  0  0  0  0  0  0  0
    5.3907    2.7713    4.2586 C   0  0  0  0  0  0  0  0  0  0  0  0
    5.3544    4.0326    4.2900 C   0  0  0  0  0  0  0  0  0  0  0  0
    6.1751    4.8676    5.0282 N   0  0  0  0  0  0  0  0  0  0  0  0
    6.4677    6.1256    4.5870 C   0  0  0  0  0  0  0  0  0  0  0  0
    7.1542    6.9110    5.2332 O   0  0  0  0  0  0  0  0  0  0  0  0
    5.9758    6.5253    3.1952 C   0  0  2  0  0  0  0  0  0  0  0  0
    6.3899    5.3450    2.3116 C   0  0  0  0  0  0  0  0  0  0  0  0
    7.7164    4.9618    2.1909 C   0  0  0  0  0  0  0  0  0  0  0  0
    8.0905    3.8050    2.1093 O   0  0  0  0  0  0  0  0  0  0  0  0
    8.4662    6.0694    2.0943 N   0  0  0  0  0  0  0  0  0  0  0  0
    8.0221    7.3728    2.1735 C   0  0  0  0  0  0  0  0  0  0  0  0
    8.7374    8.3079    1.8428 O   0  0  0  0  0  0  0  0  0  0  0  0
    6.7522    7.5747    2.6302 N   0  0  0  0  0  0  0  0  0  0  0  0
    4.5722    4.1643    3.2092 C   0  0  0  0  0  0  0  0  0  0  0  0
    3.7922    3.4133    2.4373 C   0  0  0  0  0  0  0  0  0  0  0  0
    3.2164   -0.3163   -0.0159 N   0  0  0  0  0  0  0  0  0  0  0  0
    1.6951   -0.5212   -0.1287 C   0  0  0  0  0  0  0  0  0  0  0  0
    1.5036    0.4222    0.5328 O   0  0  0  0  0  0  0  0  0  0  0  0
    1.1931   -1.8479   -0.3484 C   0  0  0  0  0  0  0  0  0  0  0  0
    0.4005   -2.8511    0.7542 C   0  0  0  0  0  0  0  0  0  0  0  0
   -0.3934   -2.5058    2.7328 S   0  0  0  0  0  0  0  0  0  0  0  0
   -0.1098   -0.8556    3.7383 S   0  0  0  0  0  0  0  0  0  0  0  0
   -1.3208    0.6781    3.8300 C   0  0  0  0  0  0  0  0  0  0  0  0
   -2.1490    1.4203    2.8281 C   0  0  0  0  0  0  0  0  0  0  0  0
   -2.8088    0.6055    1.9885 N   0  0  0  0  0  0  0  0  0  0  0  0
   -1.7667   -0.9688    1.7974 C   0  0  0  0  0  0  0  0  0  0  0  0
   -3.2105    0.0097    2.2214 O   0  0  0  0  0  0  0  0  0  0  0  0
   -1.4343    2.2961    1.8611 C   0  0  0  0  0  0  0  0  0  0  0  0
   -1.7053    3.4861    1.8605 O   0  0  0  0  0  0  0  0  0  0  0  0
   -0.4686    1.8701    0.9955 N   0  0  0  0  0  0  0  0  0  0  0  0
   -0.0600    0.6811    0.9609 C   0  0  2  0  0  0  0  0  0  0  0  0
   -1.0648   -0.0052    0.8518 C   0  0  0  0  0  0  0  0  0  0  0  0
   -1.6526   -1.9648    0.1440 C   0  0  0  0  0  0  0  0  0  0  0  0
   -2.1161   -3.1515    1.1704 C   0  0  0  0  0  0  0  0  0  0  0  0
   -2.0551   -4.2926    0.7201 C   0  0  0  0  0  0  0  0  0  0  0  0
   -1.4999   -4.4444   -0.4579 C   0  0  0  0  0  0  0  0  0  0  0  0
   -1.4059   -5.6589   -0.8977 O   0  0  0  0  0  0  0  0  0  0  0  0
   -1.0295   -3.3709   -1.1545 C   0  0  0  0  0  0  0  0  0  0  0  0
   -0.8753   -2.2012   -0.7606 C   0  0  0  0  0  0  0  0  0  0  0  0
    1.1758    0.2906    2.3565 C   0  0  0  0  0  0  0  0  0  0  0  0
    2.2486   -0.6840    1.9588 N   0  0  0  0  0  0  0  0  0  0  0  0
    1.1601    0.6785    3.5123 O   0  0  0  0  0  0  0  0  0  0  0  0
    2.0223   -2.5598   -1.0791 N   0  0  0  0  0  0  0  0  0  0  0  0
    2.0284   -2.5103   -2.4589 C   0  0  0  0  0  0  0  0  0  0  0  0
    2.7793   -3.2095   -3.1302 O   0  0  0  0  0  0  0  0  0  0  0  0
    1.3141   -1.4516   -3.2125 C   0  0  2  0  0  0  0  0  0  0  0  0
    1.4296   -1.9095   -5.0735 C   0  0  0  0  0  0  0  0  0  0  0  0
   -0.0859   -2.6920   -5.7781 C   0  0  0  0  0  0  0  0  0  0  0  0
   -1.4300   -2.0214   -5.4900 C   0  0  0  0  0  0  0  0  0  0  0  0
   -2.5037   -2.5566   -5.7543 C   0  0  0  0  0  0  0  0  0  0  0  0
   -2.4803   -3.8157   -6.2528 C   0  0  0  0  0  0  0  0  0  0  0  0
   -3.9013   -5.1516   -6.4512 Cl  0  0  0  0  0  0  0  0  0  0  0  0
   -1.4188   -4.5582   -6.2773 C   0  0  0  0  0  0  0  0  0  0  0  0
   -0.1771   -4.0375   -6.1117 C   0  0  0  0  0  0  0  0  0  0  0  0
    1.5815   -0.1448   -3.1195 N   0  0  0  0  0  0  0  0  0  0  0  0
    0.6840    0.8449   -2.6559 C   0  0  0  0  0  0  0  0  0  0  0  0
    1.0480    1.9977   -2.5667 O   0  0  0  0  0  0  0  0  0  0  0  0
   -0.7228    0.5445   -2.2788 C   0  0  0  0  0  0  0  0  0  0  0  0
   -1.4747    0.0397   -3.3910 N   0  0  0  0  0  0  0  0  0  0  0  0
   -0.5076   -0.4936   -4.3030 C   0  0  0  0  0  0  0  0  0  0  0  0
   -0.4085   -2.2701   -3.7943 C   0  0  0  0  0  0  0  0  0  0  0  0
   -1.1410   -3.4144   -3.9871 N   0  0  0  0  0  0  0  0  0  0  0  0
   -0.4475   -4.5709   -4.1134 C   0  0  0  0  0  0  0  0  0  0  0  0
    0.0188   -4.9005   -2.9107 C   0  0  0  0  0  0  0  0  0  0  0  0
   -0.4829   -6.0044   -2.4929 O   0  0  0  0  0  0  0  0  0  0  0  0
    0.7892   -4.1749   -2.3298 O   0  0  0  0  0  0  0  0  0  0  0  0
   -2.3763   -3.3118   -3.5477 C   0  0  0  0  0  0  0  0  0  0  0  0
   -3.5919   -3.7454   -4.2841 C   0  0  0  0  0  0  0  0  0  0  0  0
   -4.5094   -2.7665   -5.0116 N   0  0  0  0  0  0  0  0  0  0  0  0
   -5.0745   -3.1196   -6.2480 C   0  0  0  0  0  0  0  0  0  0  0  0
   -6.0522   -4.2504   -5.7455 C   0  0  0  0  0  0  0  0  0  0  0  0
   -7.3471   -4.0520   -6.0100 O   0  0  0  0  0  0  0  0  0  0  0  0
   -5.6897   -5.2541   -5.0960 O   0  0  0  0  0  0  0  0  0  0  0  0
   -5.3023   -2.0001   -4.2448 C   0  0  0  0  0  0  0  0  0  0  0  0
   -5.6027   -0.5983   -4.5311 C   0  0  0  0  0  0  0  0  0  0  0  0
   -4.6699    0.4131   -4.0314 N   0  0  0  0  0  0  0  0  0  0  0  0
   -4.2959    0.0855   -2.6474 C   0  0  0  0  0  0  0  0  0  0  0  0
   -3.5509   -1.2288   -2.5015 C   0  0  0  0  0  0  0  0  0  0  0  0
   -2.3473   -1.2942   -2.0250 O   0  0  0  0  0  0  0  0  0  0  0  0
   -3.8953   -2.3890   -2.6637 O   0  0  0  0  0  0  0  0  0  0  0  0
   -3.4632    0.4985   -4.8443 C   0  0  0  0  0  0  0  0  0  0  0  0
   -2.2670    1.0199   -4.0632 C   0  0  0  0  0  0  0  0  0  0  0  0
   -2.0042   -1.4491    1.9876 C   0  0  1  0  0  0  0  0  0  0  0  0
   -4.1261   -1.8763    2.9233 C   0  0  0  0  0  0  0  0  0  0  0  0
   -4.3314   -1.1383    2.1236 O   0  0  0  0  0  0  0  0  0  0  0  0
    5.3048   -1.2226    1.3922 H   0  0  0  0  0  0  0  0  0  0  0  0
   10.5334   -2.1878    2.1377 H   0  0  0  0  0  0  0  0  0  0  0  0
    9.4735   -3.5941    1.7494 H   0  0  0  0  0  0  0  0  0  0  0  0
    9.0734   -2.6847    0.2623 H   0  0  0  0  0  0  0  0  0  0  0  0
   10.1533   -4.7330   -0.2951 H   0  0  0  0  0  0  0  0  0  0  0  0
   11.1421   -3.3592   -0.7590 H   0  0  0  0  0  0  0  0  0  0  0  0
   12.5100   -5.0982    0.3218 H   0  0  0  0  0  0  0  0  0  0  0  0
   12.4847   -3.6283    1.2898 H   0  0  0  0  0  0  0  0  0  0  0  0
   12.1419   -5.6130    2.7036 H   0  0  0  0  0  0  0  0  0  0  0  0
   10.7151   -4.5945    2.7126 H   0  0  0  0  0  0  0  0  0  0  0  0
   10.1423   -6.8800    2.3925 H   0  0  0  0  0  0  0  0  0  0  0  0
    9.7508   -6.0065    1.0448 H   0  0  0  0  0  0  0  0  0  0  0  0
    9.9087   -0.4377    3.1655 H   0  0  0  0  0  0  0  0  0  0  0  0
    6.5822   -1.3859    3.8497 H   0  0  0  0  0  0  0  0  0  0  0  0
    8.5320   -0.1699    4.7402 H   0  0  0  0  0  0  0  0  0  0  0  0
    8.4067    1.0003    3.4210 H   0  0  0  0  0  0  0  0  0  0  0  0
    8.3643    1.9082    6.0819 H   0  0  0  0  0  0  0  0  0  0  0  0
    6.9407    3.6658    7.0794 H   0  0  0  0  0  0  0  0  0  0  0  0
    4.5474    4.5101    7.4586 H   0  0  0  0  0  0  0  0  0  0  0  0
    0.8982    4.8017    6.7934 H   0  0  0  0  0  0  0  0  0  0  0  0
    2.2116    5.3986    7.7781 H   0  0  0  0  0  0  0  0  0  0  0  0
    3.6177    2.4927    4.9176 H   0  0  0  0  0  0  0  0  0  0  0  0
    5.1373    0.2122    4.0624 H   0  0  0  0  0  0  0  0  0  0  0  0
    6.5673    0.6610    1.6167 H   0  0  0  0  0  0  0  0  0  0  0  0
    4.4264    1.0899    0.7101 H   0  0  0  0  0  0  0  0  0  0  0  0
    2.0955    1.7544    1.5881 H   0  0  0  0  0  0  0  0  0  0  0  0
    2.6172    0.6438    2.9540 H   0  0  0  0  0  0  0  0  0  0  0  0
    3.7767    0.7640    4.4286 H   0  0  0  0  0  0  0  0  0  0  0  0
    5.7811    2.1410    5.4030 H   0  0  0  0  0  0  0  0  0  0  0  0
    6.5423    4.5962    5.9348 H   0  0  0  0  0  0  0  0  0  0  0  0
    4.9009    6.8589    3.2102 H   0  0  0  0  0  0  0  0  0  0  0  0
    5.8154    5.4114    1.3862 H   0  0  0  0  0  0  0  0  0  0  0  0
    6.2069    4.4144    2.7934 H   0  0  0  0  0  0  0  0  0  0  0  0
    9.4439    5.9088    1.9273 H   0  0  0  0  0  0  0  0  0  0  0  0
    6.3829    8.5086    2.5991 H   0  0  0  0  0  0  0  0  0  0  0  0
    4.7926    5.0258    2.6660 H   0  0  0  0  0  0  0  0  0  0  0  0
    3.2625    3.8391    1.6452 H   0  0  0  0  0  0  0  0  0  0  0  0
    3.7233   -1.2697   -0.0717 H   0  0  0  0  0  0  0  0  0  0  0  0
    0.8313   -1.1568   -1.1703 H   0  0  0  0  0  0  0  0  0  0  0  0
    0.9611   -3.3101    1.3803 H   0  0  0  0  0  0  0  0  0  0  0  0
   -0.1030   -3.5606    0.2849 H   0  0  0  0  0  0  0  0  0  0  0  0
   -0.7716    1.3571    4.3466 H   0  0  0  0  0  0  0  0  0  0  0  0
   -1.8670   -0.0474    4.3858 H   0  0  0  0  0  0  0  0  0  0  0  0
   -2.9620    1.8866    3.3406 H   0  0  0  0  0  0  0  0  0  0  0  0
   -2.8306   -0.2235    1.3707 H   0  0  0  0  0  0  0  0  0  0  0  0
    0.1224    2.3719    0.3893 H   0  0  0  0  0  0  0  0  0  0  0  0
    0.0302    0.1042   -0.0517 H   0  0  0  0  0  0  0  0  0  0  0  0
   -1.2070   -0.2374    2.6305 H   0  0  0  0  0  0  0  0  0  0  0  0
   -1.9802    0.3444    0.4848 H   0  0  0  0  0  0  0  0  0  0  0  0
   -2.3980   -2.9739    2.3451 H   0  0  0  0  0  0  0  0  0  0  0  0
   -2.5828   -4.9562    1.2520 H   0  0  0  0  0  0  0  0  0  0  0  0
   -1.7598   -6.4367   -0.4990 H   0  0  0  0  0  0  0  0  0  0  0  0
   -0.6654   -3.4381   -2.0322 H   0  0  0  0  0  0  0  0  0  0  0  0
   -0.4620   -1.3364   -0.6764 H   0  0  0  0  0  0  0  0  0  0  0  0
    3.0993   -0.8990    2.3320 H   0  0  0  0  0  0  0  0  0  0  0  0
    2.6222   -1.0610    0.8689 H   0  0  0  0  0  0  0  0  0  0  0  0
    2.6699   -3.0958   -0.5486 H   0  0  0  0  0  0  0  0  0  0  0  0
    0.2380   -1.2140   -2.7753 H   0  0  0  0  0  0  0  0  0  0  0  0
    1.2036   -1.0583   -5.5270 H   0  0  0  0  0  0  0  0  0  0  0  0
    1.9885   -2.7573   -4.9910 H   0  0  0  0  0  0  0  0  0  0  0  0
   -1.7496   -1.3805   -4.6042 H   0  0  0  0  0  0  0  0  0  0  0  0
   -3.2391   -1.8966   -5.4936 H   0  0  0  0  0  0  0  0  0  0  0  0
   -1.4691   -5.5107   -6.6308 H   0  0  0  0  0  0  0  0  0  0  0  0
    0.6844   -4.9098   -5.7748 H   0  0  0  0  0  0  0  0  0  0  0  0
    2.4707    0.0157   -3.4951 H   0  0  0  0  0  0  0  0  0  0  0  0
   -0.6753   -0.1776   -1.4884 H   0  0  0  0  0  0  0  0  0  0  0  0
   -1.2815    1.3542   -1.8640 H   0  0  0  0  0  0  0  0  0  0  0  0
   -0.9245   -0.4497   -5.4062 H   0  0  0  0  0  0  0  0  0  0  0  0
    0.3425    0.0094   -4.4372 H   0  0  0  0  0  0  0  0  0  0  0  0
    0.4879   -2.6323   -4.0786 H   0  0  0  0  0  0  0  0  0  0  0  0
   -0.1906   -2.4941   -2.8813 H   0  0  0  0  0  0  0  0  0  0  0  0
   -1.0443   -5.2847   -4.6574 H   0  0  0  0  0  0  0  0  0  0  0  0
    0.5681   -4.3029   -4.5090 H   0  0  0  0  0  0  0  0  0  0  0  0
   -1.1878   -6.5301   -2.8933 H   0  0  0  0  0  0  0  0  0  0  0  0
   -2.1860   -3.9229   -2.7833 H   0  0  0  0  0  0  0  0  0  0  0  0
   -2.4226   -2.3042   -3.3657 H   0  0  0  0  0  0  0  0  0  0  0  0
   -3.1879   -4.5119   -4.8408 H   0  0  0  0  0  0  0  0  0  0  0  0
   -4.2027   -4.2861   -3.7206 H   0  0  0  0  0  0  0  0  0  0  0  0
   -5.5291   -2.3504   -6.7660 H   0  0  0  0  0  0  0  0  0  0  0  0
   -4.3452   -3.4282   -7.0454 H   0  0  0  0  0  0  0  0  0  0  0  0
   -7.6550   -3.2544   -6.4805 H   0  0  0  0  0  0  0  0  0  0  0  0
   -6.1127   -2.6258   -4.1875 H   0  0  0  0  0  0  0  0  0  0  0  0
   -5.1537   -1.8500   -3.2719 H   0  0  0  0  0  0  0  0  0  0  0  0
   -5.6474   -0.5344   -5.5919 H   0  0  0  0  0  0  0  0  0  0  0  0
   -6.5698   -0.4256   -4.0653 H   0  0  0  0  0  0  0  0  0  0  0  0
   -3.6688    0.8654   -2.2477 H   0  0  0  0  0  0  0  0  0  0  0  0
   -5.1802    0.0375   -2.0333 H   0  0  0  0  0  0  0  0  0  0  0  0
   -1.9509   -0.5030   -1.8313 H   0  0  0  0  0  0  0  0  0  0  0  0
   -3.2250   -0.4512   -5.2090 H   0  0  0  0  0  0  0  0  0  0  0  0
   -3.6319    1.1491   -5.6887 H   0  0  0  0  0  0  0  0  0  0  0  0
   -2.6446    1.6805   -3.3043 H   0  0  0  0  0  0  0  0  0  0  0  0
   -1.6038    1.5370   -4.7176 H   0  0  0  0  0  0  0  0  0  0  0  0
   -3.6927   -1.9691    1.5798 H   0  0  0  0  0  0  0  0  0  0  0  0
   -4.7567   -1.2280    3.8237 H   0  0  0  0  0  0  0  0  0  0  0  0
   -5.4069   -2.7072    3.7415 H   0  0  0  0  0  0  0  0  0  0  0  0
   -4.0523   -2.8387    2.9884 H   0  0  0  0  0  0  0  0  0  0  0  0
   -5.8369   -0.7062    2.5838 H   0  0  0  0  0  0  0  0  0  0  0  0
  2  3  1  0  0  0  0
  2 59  1  0  0  0  0
  2116  1  0  0  0  0
  2  1  1  6  0  0  0
  3  4  1  0  0  0  0
  3119  1  0  0  0  0
  4  5  2  0  0  0  0
  6  4  1  0  0  0  0
  6 12  1  0  0  0  0
  6120  1  6  0  0  0
  6  7  1  0  0  0  0
  7  8  1  0  0  0  0
  7121  1  0  0  0  0
  7122  1  0  0  0  0
  8  9  1  0  0  0  0
  8123  1  0  0  0  0
  8124  1  0  0  0  0
  9 10  1  0  0  0  0
  9125  1  0  0  0  0
  9126  1  0  0  0  0
 10 11  1  0  0  0  0
 10127  1  0  0  0  0
 10128  1  0  0  0  0
 11129  1  0  0  0  0
 11130  1  0  0  0  0
 12 13  1  0  0  0  0
 12131  1  0  0  0  0
 13 14  2  0  0  0  0
 15 13  1  0  0  0  0
 15 16  1  0  0  0  0
 15 27  1  0  0  0  0
 15132  1  0  0  0  0
 16 17  1  0  0  0  0
 16133  1  0  0  0  0
 16134  1  0  0  0  0
 17 18  2  0  0  0  0
 17 26  1  0  0  0  0
 18 19  1  0  0  0  0
 18135  1  0  0  0  0
 19 20  2  0  0  0  0
 19136  1  0  0  0  0
 20 21  1  0  0  0  0
 20 25  1  0  0  0  0
 21 22  1  0  0  0  0
 21137  1  0  0  0  0
 22 23  1  0  0  0  0
 22 24  2  0  0  0  0
 23138  1  0  0  0  0
 23139  1  0  0  0  0
 25 26  2  0  0  0  0
 25140  1  0  0  0  0
 26141  1  0  0  0  0
 27 28  1  0  0  0  0
 27142  1  0  0  0  0
 28 29  2  0  0  0  0
 30 28  1  0  0  0  0
 30 49  1  0  0  0  0
 30143  1  6  0  0  0
 30 31  1  0  0  0  0
 31 32  1  0  0  0  0
 31144  1  0  0  0  0
 31145  1  0  0  0  0
 32 33  2  0  0  0  0
 32 48  1  0  0  0  0
 33 34  1  0  0  0  0
 33146  1  0  0  0  0
 34 35  2  0  0  0  0
 34147  1  0  0  0  0
 35 36  1  0  0  0  0
 35 47  1  0  0  0  0
 36 37  1  0  0  0  0
 36148  1  0  0  0  0
 37 38  2  0  0  0  0
 39 37  1  0  0  0  0
 39 40  1  0  0  0  0
 39 46  1  0  0  0  0
 39149  1  6  0  0  0
 40 41  1  0  0  0  0
 40150  1  0  0  0  0
 40151  1  0  0  0  0
 41 42  2  0  0  0  0
 41 43  1  0  0  0  0
 43 44  1  0  0  0  0
 43152  1  0  0  0  0
 44 45  2  0  0  0  0
 44 46  1  0  0  0  0
 46153  1  0  0  0  0
 47 48  2  0  0  0  0
 47154  1  0  0  0  0
 48155  1  0  0  0  0
 49 50  1  0  0  0  0
 49156  1  0  0  0  0
 50 51  2  0  0  0  0
 52 50  1  0  0  0  0
 52 53  1  0  0  0  0
 52 76  1  0  0  0  0
 52157  1  0  0  0  0
 53 54  1  0  0  0  0
 53158  1  0  0  0  0
 53159  1  0  0  0  0
 54 55  1  0  0  0  0
 55 56  1  0  0  0  0
 56160  1  0  0  0  0
 56161  1  0  0  0  0
 57 56  1  0  0  0  0
 57 58  1  0  0  0  0
 57 61  1  0  0  0  0
 57162  1  0  0  0  0
 58 59  1  0  0  0  0
 58163  1  0  0  0  0
 59 60  2  0  0  0  0
 61 62  2  0  0  0  0
 61 63  1  0  0  0  0
 63164  1  0  0  0  0
 64 73  1  0  0  0  0
 64165  1  6  0  0  0
 64 65  1  0  0  0  0
 64 63  1  0  0  0  0
 65 66  1  0  0  0  0
 65166  1  0  0  0  0
 65167  1  0  0  0  0
 66 67  2  0  0  0  0
 66 72  1  0  0  0  0
 67 68  1  0  0  0  0
 67168  1  0  0  0  0
 68 69  2  0  0  0  0
 68169  1  0  0  0  0
 69 70  1  0  0  0  0
 69 71  1  0  0  0  0
 70170  1  0  0  0  0
 71 72  2  0  0  0  0
 71171  1  0  0  0  0
 72172  1  0  0  0  0
 73 74  1  0  0  0  0
 73 75  2  0  0  0  0
 74173  1  0  0  0  0
 74174  1  0  0  0  0
 76 77  1  0  0  0  0
 76175  1  0  0  0  0
 77 78  2  0  0  0  0
 79 88  1  0  0  0  0
 79176  1  1  0  0  0
 79 80  1  0  0  0  0
 79 77  1  0  0  0  0
 80 81  1  0  0  0  0
 80177  1  0  0  0  0
 80178  1  0  0  0  0
 81 82  2  0  0  0  0
 81 87  1  0  0  0  0
 82 83  1  0  0  0  0
 82179  1  0  0  0  0
 83 84  2  0  0  0  0
 83180  1  0  0  0  0
 84 85  1  0  0  0  0
 84 86  1  0  0  0  0
 86 87  2  0  0  0  0
 86181  1  0  0  0  0
 87182  1  0  0  0  0
 88 89  1  0  0  0  0
 88183  1  0  0  0  0
 89 90  2  0  0  0  0
 89 91  1  0  0  0  0
 91 92  1  0  0  0  0
 91184  1  0  0  0  0
 91185  1  0  0  0  0
 92 93  1  0  0  0  0
 92115  1  0  0  0  0
 93 94  1  0  0  0  0
 93186  1  0  0  0  0
 93187  1  0  0  0  0
 94 95  1  0  0  0  0
 94188  1  0  0  0  0
 94189  1  0  0  0  0
 95 96  1  0  0  0  0
 95100  1  0  0  0  0
 96 97  1  0  0  0  0
 96190  1  0  0  0  0
 96191  1  0  0  0  0
 97 98  1  0  0  0  0
 97 99  2  0  0  0  0
 98192  1  0  0  0  0
100101  1  0  0  0  0
100193  1  0  0  0  0
100194  1  0  0  0  0
101102  1  0  0  0  0
101195  1  0  0  0  0
101196  1  0  0  0  0
102103  1  0  0  0  0
102107  1  0  0  0  0
103104  1  0  0  0  0
103197  1  0  0  0  0
103198  1  0  0  0  0
104105  1  0  0  0  0
104106  2  0  0  0  0
105199  1  0  0  0  0
107108  1  0  0  0  0
107200  1  0  0  0  0
107201  1  0  0  0  0
108109  1  0  0  0  0
108202  1  0  0  0  0
108203  1  0  0  0  0
109110  1  0  0  0  0
109114  1  0  0  0  0
110111  1  0  0  0  0
110204  1  0  0  0  0
110205  1  0  0  0  0
111112  1  0  0  0  0
111113  2  0  0  0  0
112206  1  0  0  0  0
114115  1  0  0  0  0
114207  1  0  0  0  0
114208  1  0  0  0  0
115209  1  0  0  0  0
115210  1  0  0  0  0
116117  1  0  0  0  0
116118  1  0  0  0  0
116211  1  6  0  0  0
117212  1  0  0  0  0
117213  1  0  0  0  0
117214  1  0  0  0  0
118215  1  0  0  0  0
M  END
>  <DRUGBANK_ID>
DB16323

>  <COMMON_NAME>
Satoreotide tetraxetan

>  <CAS_NUMBER>
1039726-31-2

>  <UNII>
EC1O2FB9FV

>  <SYNONYMS>
Dota satoreotide; Satoreotide dota; Satoreotide tetraxetan

$$$$
