
 OpenBabel10282417133D

 22 23  0  0  0  0  0  0  0  0999 V2000
   -0.5723    0.8348   -0.0277 C   0  0  0  0  0  0  0  0  0  0  0  0
   -0.8122   -0.5216    0.0155 C   0  0  0  0  0  0  0  0  0  0  0  0
    0.6193    1.4780   -0.0390 N   0  0  0  0  0  0  0  0  0  0  0  0
    0.3411   -1.3889    0.0013 C   0  0  0  0  0  0  0  0  0  0  0  0
    1.6483    0.6772   -0.0110 C   0  0  0  0  0  0  0  0  0  0  0  0
    1.5399   -0.6973    0.0031 N   0  0  0  0  0  0  0  0  0  0  0  0
   -1.7750    1.4770   -0.0308 N   0  0  0  0  0  0  0  0  0  0  0  0
   -2.7818    0.5498    0.0547 C   0  0  0  0  0  0  0  0  0  0  0  0
   -2.2234   -0.7216    0.1058 C   0  0  0  0  0  0  0  0  0  0  0  0
    0.2943   -2.6170   -0.0073 O   0  0  0  0  0  0  0  0  0  0  0  0
    2.9071    1.1764    0.0045 N   0  0  0  0  0  0  0  0  0  0  0  0
   -2.9735   -2.0063    0.2327 C   0  0  0  0  0  0  0  0  0  0  0  0
   -3.7416   -1.9759    1.4756 N   0  0  0  0  0  0  0  0  0  0  0  0
    2.3684   -1.2648    0.0021 H   0  0  0  0  0  0  0  0  0  0  0  0
   -1.8881    2.4799   -0.0590 H   0  0  0  0  0  0  0  0  0  0  0  0
   -3.8178    0.8595    0.1014 H   0  0  0  0  0  0  0  0  0  0  0  0
    3.0006    2.1752    0.1478 H   0  0  0  0  0  0  0  0  0  0  0  0
    3.7170    0.6052    0.1905 H   0  0  0  0  0  0  0  0  0  0  0  0
   -3.6655   -2.1129   -0.6095 H   0  0  0  0  0  0  0  0  0  0  0  0
   -2.3066   -2.8724    0.2328 H   0  0  0  0  0  0  0  0  0  0  0  0
   -4.2307   -2.8615    1.5822 H   0  0  0  0  0  0  0  0  0  0  0  0
   -3.0922   -1.9098    2.2573 H   0  0  0  0  0  0  0  0  0  0  0  0
  2  1  2  0  0  0  0
  3  1  1  0  0  0  0
  4  2  1  0  0  0  0
  5  3  2  0  0  0  0
  6  4  1  0  0  0  0
  6  5  1  0  0  0  0
  6 14  1  0  0  0  0
  7  1  1  0  0  0  0
  7 15  1  0  0  0  0
  8  7  1  0  0  0  0
  8 16  1  0  0  0  0
  9  8  2  0  0  0  0
  9  2  1  0  0  0  0
 10  4  2  0  0  0  0
 11  5  1  0  0  0  0
 11 17  1  0  0  0  0
 11 18  1  0  0  0  0
 12  9  1  0  0  0  0
 12 19  1  0  0  0  0
 12 20  1  0  0  0  0
 13 12  1  0  0  0  0
 13 21  1  0  0  0  0
 13 22  1  0  0  0  0
M  END
>  <DRUGBANK_ID>
DB03304

>  <SECONDARY_ACCESSION_NUMBERS>
EXPT02659

>  <COMMON_NAME>
7-Deaza-7-Aminomethyl-Guanine

$$$$
