RS1
 OpenBabel10282417173D

 48 50  0  0  0  0  0  0  0  0999 V2000
    0.2841    1.2160   -0.0204 C   0  0  0  0  0  0  0  0  0  0  0  0
   -0.3746   -0.0103   -0.0065 C   0  0  0  0  0  0  0  0  0  0  0  0
    0.3540   -1.1975   -0.0050 C   0  0  0  0  0  0  0  0  0  0  0  0
    1.7552   -1.1508   -0.0051 C   0  0  0  0  0  0  0  0  0  0  0  0
    2.4282    0.0818   -0.0249 C   0  0  0  0  0  0  0  0  0  0  0  0
    1.6806    1.2604   -0.0428 C   0  0  0  0  0  0  0  0  0  0  0  0
    3.8060    0.0236   -0.0967 O   0  0  0  0  0  0  0  0  0  0  0  0
    4.5675    1.1631    0.0510 C   0  0  0  0  0  0  0  0  0  0  0  0
    4.5448    1.9333    1.2109 C   0  0  0  0  0  0  0  0  0  0  0  0
    5.4572    2.9922    1.3732 C   0  0  0  0  0  0  0  0  0  0  0  0
    6.2859    3.3830    0.3117 C   0  0  0  0  0  0  0  0  0  0  0  0
    6.3504    2.5777   -0.8259 C   0  0  0  0  0  0  0  0  0  0  0  0
    5.5012    1.4639   -0.9456 C   0  0  0  0  0  0  0  0  0  0  0  0
    7.0776    5.0094    0.2436 S   0  0  0  0  0  0  0  0  0  0  0  0
    8.4742    4.7753    0.5755 O   0  0  0  0  0  0  0  0  0  0  0  0
    6.7272    5.6320   -1.0144 O   0  0  0  0  0  0  0  0  0  0  0  0
    6.3896    6.0171    1.5481 C   0  0  0  0  0  0  0  0  0  0  0  0
    4.8625    6.3715    1.5247 C   0  0  0  0  0  0  0  0  0  0  0  0
    4.0341    5.4243    0.6326 C   0  0  0  0  0  0  0  0  0  0  0  0
    2.6247    5.8099    0.2898 C   0  0  0  0  0  0  0  0  0  0  0  0
    2.6179    7.1039   -0.2675 O   0  0  0  0  0  0  0  0  0  0  0  0
    3.1563    8.0680    0.6327 C   0  0  0  0  0  0  0  0  0  0  0  0
    4.6358    7.7946    0.9547 C   0  0  0  0  0  0  0  0  0  0  0  0
    4.2510    6.3141    2.9660 C   0  0  0  0  0  0  0  0  0  0  0  0
    5.0568    6.0891    4.0513 N   0  0  0  0  0  0  0  0  0  0  0  0
    3.0414    6.4512    3.1711 O   0  0  0  0  0  0  0  0  0  0  0  0
    4.4072    6.0151    5.3070 O   0  0  0  0  0  0  0  0  0  0  0  0
   -2.0942   -0.0488   -0.0029 Cl  0  0  0  0  0  0  0  0  0  0  0  0
   -0.2782    2.1456   -0.0307 H   0  0  0  0  0  0  0  0  0  0  0  0
   -0.1614   -2.1554   -0.0141 H   0  0  0  0  0  0  0  0  0  0  0  0
    2.3149   -2.0846   -0.0056 H   0  0  0  0  0  0  0  0  0  0  0  0
    2.1593    2.2315   -0.0892 H   0  0  0  0  0  0  0  0  0  0  0  0
    3.7821    1.7602    1.9690 H   0  0  0  0  0  0  0  0  0  0  0  0
    5.3689    3.5797    2.2829 H   0  0  0  0  0  0  0  0  0  0  0  0
    7.0557    2.8125   -1.6203 H   0  0  0  0  0  0  0  0  0  0  0  0
    5.5506    0.8452   -1.8380 H   0  0  0  0  0  0  0  0  0  0  0  0
    6.6997    5.4657    2.4369 H   0  0  0  0  0  0  0  0  0  0  0  0
    6.9819    6.9449    1.5695 H   0  0  0  0  0  0  0  0  0  0  0  0
    4.5243    5.2904   -0.3333 H   0  0  0  0  0  0  0  0  0  0  0  0
    3.8833    4.4865    1.1341 H   0  0  0  0  0  0  0  0  0  0  0  0
    2.2589    5.0865   -0.4507 H   0  0  0  0  0  0  0  0  0  0  0  0
    1.9696    5.7234    1.1603 H   0  0  0  0  0  0  0  0  0  0  0  0
    2.5418    8.0961    1.5367 H   0  0  0  0  0  0  0  0  0  0  0  0
    3.0556    9.0406    0.1477 H   0  0  0  0  0  0  0  0  0  0  0  0
    5.0028    8.5599    1.6484 H   0  0  0  0  0  0  0  0  0  0  0  0
    5.2092    7.8955    0.0230 H   0  0  0  0  0  0  0  0  0  0  0  0
    6.0629    6.0004    4.0966 H   0  0  0  0  0  0  0  0  0  0  0  0
    3.4696    6.2082    5.0818 H   0  0  0  0  0  0  0  0  0  0  0  0
  1  2  2  0  0  0  0
  1  6  1  0  0  0  0
  1 29  1  0  0  0  0
  2  3  1  0  0  0  0
  2 28  1  0  0  0  0
  3  4  2  0  0  0  0
  3 30  1  0  0  0  0
  4  5  1  0  0  0  0
  4 31  1  0  0  0  0
  5  6  2  0  0  0  0
  5  7  1  0  0  0  0
  6 32  1  0  0  0  0
  7  8  1  0  0  0  0
  8  9  2  0  0  0  0
  8 13  1  0  0  0  0
  9 10  1  0  0  0  0
  9 33  1  0  0  0  0
 10 11  2  0  0  0  0
 10 34  1  0  0  0  0
 11 12  1  0  0  0  0
 11 14  1  0  0  0  0
 12 13  2  0  0  0  0
 12 35  1  0  0  0  0
 13 36  1  0  0  0  0
 14 15  2  0  0  0  0
 14 16  2  0  0  0  0
 14 17  1  0  0  0  0
 17 18  1  0  0  0  0
 17 37  1  0  0  0  0
 17 38  1  0  0  0  0
 18 19  1  0  0  0  0
 18 23  1  0  0  0  0
 18 24  1  0  0  0  0
 19 20  1  0  0  0  0
 19 39  1  0  0  0  0
 19 40  1  0  0  0  0
 20 21  1  0  0  0  0
 20 41  1  0  0  0  0
 20 42  1  0  0  0  0
 21 22  1  0  0  0  0
 22 23  1  0  0  0  0
 22 43  1  0  0  0  0
 22 44  1  0  0  0  0
 23 45  1  0  0  0  0
 23 46  1  0  0  0  0
 24 25  1  0  0  0  0
 24 26  2  0  0  0  0
 25 27  1  0  0  0  0
 25 47  1  0  0  0  0
 27 48  1  0  0  0  0
M  END
>  <DRUGBANK_ID>
DB08490

>  <SECONDARY_ACCESSION_NUMBERS>
DB12372

>  <COMMON_NAME>
CTS-1027

>  <CAS_NUMBER>
193022-04-7

>  <UNII>
2QD3F58224

>  <SYNONYMS>
2H-PYRAN-4-CARBOXAMIDE, 4-(((4-(4-CHLOROPHENOXY)PHENYL)SULFONYL)METHYL)TETRAHYDRO-N-HYDROXY-; 4-(((4-(4-CHLOROPHENOXY)PHENYL)SULFONYL)-METHYL) TETRAHYDRO-N-HYDROXY-2H-PYRAN-4-CARBOXAMIDE; 4-(4-(4-CHLORO-PHENOXY)-BENZENESULFONYLMETHYL )-TETRAHYDRO-PYRAN-4-CARBOXYLIC ACID HYDROXYAMIDE; 4-(4-(4-CHLORO-PHENOXY)-BENZENESULFONYLMETHYL)-TETRAHYDRO-PYRAN-4-CARBOXYLIC ACID HYDROXYAMIDE; 4-[[[4-(4-Chlorophenoxy)phenyl]sulfonyl]-methyl] tetrahydro-N-hydroxy-2H-pyran-4-carboxamide

$$$$
