
 OpenBabel10282417223D

 82 85  0  0  0  0  0  0  0  0999 V2000
   -2.6232    0.8556   -1.0039 C   0  0  0  0  0  0  0  0  0  0  0  0
    0.0933   -2.1101    3.8403 C   0  0  0  0  0  0  0  0  0  0  0  0
    0.5701    2.1346    0.7078 N   0  0  0  0  0  0  0  0  0  0  0  0
   -4.8127    3.5406    0.1070 C   0  0  0  0  0  0  0  0  0  0  0  0
    1.4353   -0.0573    4.4452 C   0  0  0  0  0  0  0  0  0  0  0  0
   -3.3312    0.0160    0.7986 C   0  0  1  0  0  0  0  0  0  0  0  0
    0.5617   -1.5866    7.2195 O   0  0  0  0  0  0  0  0  0  0  0  0
   -2.5187    4.0871    1.3676 C   0  0  0  0  0  0  0  0  0  0  0  0
   -0.5798    2.0696   -0.0657 C   0  0  0  0  0  0  0  0  0  0  0  0
   -1.7620    0.4085   -1.7957 O   0  0  0  0  0  0  0  0  0  0  0  0
   -3.2461    1.5511    2.2545 N   0  0  0  0  0  0  0  0  0  0  0  0
   -1.8580   -1.1611   -0.0299 C   0  0  0  0  0  0  0  0  0  0  0  0
   -5.4047   -0.5205    3.7416 C   0  0  0  0  0  0  0  0  0  0  0  0
   -0.8077   -1.1337    0.8474 C   0  0  0  0  0  0  0  0  0  0  0  0
   -1.3006    2.0812    2.7649 P   0  0  1  0  0  0  0  0  0  0  0  0
   -3.2192    3.6760    0.0326 C   0  0  0  0  0  0  0  0  0  0  0  0
   -0.2178    0.3438    2.8512 N   0  0  0  0  0  0  0  0  0  0  0  0
   -2.9495   -1.4164   -1.1335 C   0  0  0  0  0  0  0  0  0  0  0  0
   -3.7883   -1.5046    5.9024 O   0  0  0  0  0  0  0  0  0  0  0  0
   -2.1472    1.5434    0.7889 C   0  0  0  0  0  0  0  0  0  0  0  0
   -4.9466    0.6899    1.7035 C   0  0  0  0  0  0  0  0  0  0  0  0
   -0.2564   -1.8430   -0.1249 C   0  0  0  0  0  0  0  0  0  0  0  0
   -2.7101    2.5101   -1.0668 O   0  0  0  0  0  0  0  0  0  0  0  0
   -2.0507   -0.0225    5.2586 C   0  0  2  0  0  0  0  0  0  0  0  0
   -2.7960    1.3472    5.5221 C   0  0  1  0  0  0  0  0  0  0  0  0
   -0.6024    0.5957    1.1884 O   0  0  0  0  0  0  0  0  0  0  0  0
   -0.4258    2.1786   -1.5483 N   0  0  0  0  0  0  0  0  0  0  0  0
   -2.7482   -2.1967    3.9258 C   0  0  0  0  0  0  0  0  0  0  0  0
   -4.0104    0.0720    3.8660 C   0  0  2  0  0  0  0  0  0  0  0  0
    0.8498   -1.3520    4.8922 C   0  0  0  0  0  0  0  0  0  0  0  0
   -3.6976   -0.1658    2.6457 C   0  0  0  0  0  0  0  0  0  0  0  0
   -1.1002   -2.5744   -1.3717 C   0  0  0  0  0  0  0  0  0  0  0  0
    0.7462    1.4506    2.1261 C   0  0  0  0  0  0  0  0  0  0  0  0
   -3.9753    1.5734    0.3911 C   0  0  0  0  0  0  0  0  0  0  0  0
   -2.4206    2.9646    3.6928 O   0  0  0  0  0  0  0  0  0  0  0  0
    0.0373   -1.1593    6.1892 C   0  0  0  0  0  0  0  0  0  0  0  0
   -1.9842    0.2422    2.2164 N   0  0  0  0  0  0  0  0  0  0  0  0
   -2.4575   -2.3518   -1.8246 C   0  0  0  0  0  0  0  0  0  0  0  0
   -2.3242    2.8200    5.1698 C   0  0  0  0  0  0  0  0  0  0  0  0
   -0.6380    1.8513    4.1281 O   0  0  0  0  0  0  0  0  0  0  0  0
   -3.1689   -0.9534    4.7439 C   0  0  1  0  0  0  0  0  0  0  0  0
   -4.7263   -1.1388    0.4686 C   0  0  0  0  0  0  0  0  0  0  0  0
   -1.1928   -0.5559    6.3039 O   0  0  0  0  0  0  0  0  0  0  0  0
   -4.0251    1.2556    4.7043 O   0  0  0  0  0  0  0  0  0  0  0  0
   -6.5613   -1.0120    3.6383 N   0  0  0  0  0  0  0  0  0  0  0  0
   -0.7408   -1.4881    3.6682 H   0  0  0  0  0  0  0  0  0  0  0  0
    0.4854   -2.2020    2.8282 H   0  0  0  0  0  0  0  0  0  0  0  0
   -0.2483   -3.0781    4.1979 H   0  0  0  0  0  0  0  0  0  0  0  0
   -5.3892    2.6553    0.5560 H   0  0  0  0  0  0  0  0  0  0  0  0
   -5.1958    3.8712    1.0601 H   0  0  0  0  0  0  0  0  0  0  0  0
   -5.0563    3.0644   -0.8602 H   0  0  0  0  0  0  0  0  0  0  0  0
    2.0609    0.6044    5.0190 H   0  0  0  0  0  0  0  0  0  0  0  0
    1.7608   -0.0998    3.3920 H   0  0  0  0  0  0  0  0  0  0  0  0
    0.5929    0.5506    4.6450 H   0  0  0  0  0  0  0  0  0  0  0  0
   -2.9561   -1.1042    1.3492 H   0  0  0  0  0  0  0  0  0  0  0  0
   -1.4189    4.0019    1.5398 H   0  0  0  0  0  0  0  0  0  0  0  0
   -3.2020    4.3350    2.2004 H   0  0  0  0  0  0  0  0  0  0  0  0
   -2.5810    3.1836    1.7743 H   0  0  0  0  0  0  0  0  0  0  0  0
   -3.9109    2.3273    2.0973 H   0  0  0  0  0  0  0  0  0  0  0  0
   -1.7418   -0.1721    0.1557 H   0  0  0  0  0  0  0  0  0  0  0  0
   -2.8757    4.5442   -0.4603 H   0  0  0  0  0  0  0  0  0  0  0  0
   -3.8673   -0.7892   -1.4916 H   0  0  0  0  0  0  0  0  0  0  0  0
   -3.0803   -2.0436    6.3126 H   0  0  0  0  0  0  0  0  0  0  0  0
   -5.9587    0.2673    1.5584 H   0  0  0  0  0  0  0  0  0  0  0  0
    0.7964   -1.8242    0.0411 H   0  0  0  0  0  0  0  0  0  0  0  0
   -1.4157    0.0009    4.4421 H   0  0  0  0  0  0  0  0  0  0  0  0
   -2.9305    1.3752    6.6108 H   0  0  0  0  0  0  0  0  0  0  0  0
   -1.1709    1.6630   -2.0829 H   0  0  0  0  0  0  0  0  0  0  0  0
    0.3210    1.6510   -2.0064 H   0  0  0  0  0  0  0  0  0  0  0  0
   -2.1137   -2.8280    4.5331 H   0  0  0  0  0  0  0  0  0  0  0  0
   -3.5725   -2.7936    3.5510 H   0  0  0  0  0  0  0  0  0  0  0  0
   -2.2197   -1.9786    2.9991 H   0  0  0  0  0  0  0  0  0  0  0  0
    1.7281   -1.9566    5.0547 H   0  0  0  0  0  0  0  0  0  0  0  0
   -0.5181   -3.1598   -2.0022 H   0  0  0  0  0  0  0  0  0  0  0  0
    1.3474    2.1078    2.8151 H   0  0  0  0  0  0  0  0  0  0  0  0
   -4.3870    1.3276   -0.6614 H   0  0  0  0  0  0  0  0  0  0  0  0
   -3.1518   -2.5154   -2.6289 H   0  0  0  0  0  0  0  0  0  0  0  0
   -1.3143    3.1215    5.5144 H   0  0  0  0  0  0  0  0  0  0  0  0
   -2.9410    3.6066    5.6414 H   0  0  0  0  0  0  0  0  0  0  0  0
   -4.3840   -2.0933    0.0827 H   0  0  0  0  0  0  0  0  0  0  0  0
   -5.1017   -1.5616    1.4031 H   0  0  0  0  0  0  0  0  0  0  0  0
   -5.3941   -0.5566   -0.1732 H   0  0  0  0  0  0  0  0  0  0  0  0
  1 10  2  0  0  0  0
  1 23  1  0  0  0  0
  2 46  1  0  0  0  0
  2 47  1  0  0  0  0
  2 48  1  0  0  0  0
  3  9  2  0  0  0  0
  4 49  1  0  0  0  0
  4 50  1  0  0  0  0
  4 51  1  0  0  0  0
  5 52  1  0  0  0  0
  5 53  1  0  0  0  0
  5 54  1  0  0  0  0
  6 55  1  1  0  0  0
  6  1  1  0  0  0  0
  6 42  1  0  0  0  0
  8 56  1  0  0  0  0
  8 57  1  0  0  0  0
  8 58  1  0  0  0  0
  9 27  1  0  0  0  0
  9 20  1  0  0  0  0
 11  6  1  0  0  0  0
 11 59  1  0  0  0  0
 12 14  1  0  0  0  0
 12 60  1  0  0  0  0
 13 45  3  0  0  0  0
 14 22  2  0  0  0  0
 15 40  2  1  0  0  0
 15 11  1  0  0  0  0
 15 26  1  0  0  0  0
 16  4  1  0  0  0  0
 16  8  1  0  0  0  0
 16 61  1  0  0  0  0
 17 33  2  0  0  0  0
 18 12  2  0  0  0  0
 18 62  1  0  0  0  0
 19 63  1  0  0  0  0
 20 34  2  0  0  0  0
 20 37  1  0  0  0  0
 21 31  2  0  0  0  0
 21 64  1  0  0  0  0
 22 32  1  0  0  0  0
 22 65  1  0  0  0  0
 23 16  1  0  0  0  0
 24 41  1  0  0  0  0
 24 66  1  6  0  0  0
 24 43  1  0  0  0  0
 25 24  1  0  0  0  0
 25 39  1  0  0  0  0
 25 67  1  1  0  0  0
 26 14  1  0  0  0  0
 27 68  1  0  0  0  0
 27 69  1  0  0  0  0
 28 70  1  0  0  0  0
 28 71  1  0  0  0  0
 28 72  1  0  0  0  0
 29 13  1  1  0  0  0
 29 44  1  0  0  0  0
 29 31  1  0  0  0  0
 30  2  1  0  0  0  0
 30  5  1  0  0  0  0
 30 73  1  0  0  0  0
 31 37  1  0  0  0  0
 32 38  2  0  0  0  0
 32 74  1  0  0  0  0
 33  3  1  0  0  0  0
 33 75  1  0  0  0  0
 34 21  1  0  0  0  0
 34 76  1  0  0  0  0
 35 15  1  0  0  0  0
 36  7  2  0  0  0  0
 36 30  1  0  0  0  0
 37 17  1  0  0  0  0
 38 18  1  0  0  0  0
 38 77  1  0  0  0  0
 39 35  1  0  0  0  0
 39 78  1  0  0  0  0
 39 79  1  0  0  0  0
 41 28  1  0  0  0  0
 41 29  1  0  0  0  0
 41 19  1  1  0  0  0
 42 80  1  0  0  0  0
 42 81  1  0  0  0  0
 42 82  1  0  0  0  0
 43 36  1  0  0  0  0
 44 25  1  0  0  0  0
M  END
>  <DRUGBANK_ID>
DB15222

>  <COMMON_NAME>
GS-6620

>  <CAS_NUMBER>
1350735-70-4

>  <UNII>
WD5DUG7X38

$$$$
