
 OpenBabel10282417133D

 55 59  0  0  0  0  0  0  0  0999 V2000
   -1.5139    1.2142   -0.1433 N   0  0  0  0  0  0  0  0  0  0  0  0
   -2.2475    0.0756   -0.5112 C   0  0  0  0  0  0  0  0  0  0  0  0
   -1.2677   -0.9520   -0.6922 C   0  0  0  0  0  0  0  0  0  0  0  0
   -0.9398   -4.1650    3.0640 C   0  0  0  0  0  0  0  0  0  0  0  0
   -0.9460   -5.5010    3.1722 N   0  0  0  0  0  0  0  0  0  0  0  0
   -0.0131   -5.7582    4.1573 C   0  0  0  0  0  0  0  0  0  0  0  0
    0.6117   -4.2362    4.1522 C   0  0  0  0  0  0  0  0  0  0  0  0
    0.1096   -3.4616    2.6212 C   0  0  0  0  0  0  0  0  0  0  0  0
   -0.3607   -6.4749    5.3276 C   0  0  0  0  0  0  0  0  0  0  0  0
   -0.5435   -5.3482    6.0396 C   0  0  0  0  0  0  0  0  0  0  0  0
    0.6250   -4.7939    6.5022 C   0  0  0  0  0  0  0  0  0  0  0  0
    0.9793   -3.7503    5.6440 C   0  0  0  0  0  0  0  0  0  0  0  0
   -2.0945   -6.1009    2.5304 C   0  0  0  0  0  0  0  0  0  0  0  0
   -3.5745   -5.0566    2.2108 C   0  0  0  0  0  0  0  0  0  0  0  0
   -3.3112   -3.5581    1.9886 C   0  0  0  0  0  0  0  0  0  0  0  0
   -2.4905   -3.2311    0.6539 N   0  0  0  0  0  0  0  0  0  0  0  0
   -1.9280   -1.6628    1.5443 C   0  0  0  0  0  0  0  0  0  0  0  0
   -0.8325   -4.2931   -0.3409 C   0  0  0  0  0  0  0  0  0  0  0  0
   -0.8566   -3.4607    1.1300 C   0  0  0  0  0  0  0  0  0  0  0  0
   -2.2301   -4.9843    0.4292 C   0  0  0  0  0  0  0  0  0  0  0  0
   -2.8413   -4.5334   -0.9860 N   0  0  0  0  0  0  0  0  0  0  0  0
   -2.5613   -3.2163   -1.4502 C   0  0  0  0  0  0  0  0  0  0  0  0
   -1.2049   -2.4301   -0.3676 C   0  0  0  0  0  0  0  0  0  0  0  0
   -2.4688   -6.2120    0.3068 O   0  0  0  0  0  0  0  0  0  0  0  0
   -3.2658   -2.6710   -2.2935 O   0  0  0  0  0  0  0  0  0  0  0  0
   -0.1644    0.8860   -0.1339 C   0  0  0  0  0  0  0  0  0  0  0  0
   -0.0199   -0.4489   -0.4408 C   0  0  0  0  0  0  0  0  0  0  0  0
    1.1482   -1.1903   -0.1530 C   0  0  0  0  0  0  0  0  0  0  0  0
    2.3146   -0.5417   -0.0133 C   0  0  0  0  0  0  0  0  0  0  0  0
    2.2357    0.8363   -0.0068 C   0  0  0  0  0  0  0  0  0  0  0  0
    1.0172    1.5825    0.0357 C   0  0  0  0  0  0  0  0  0  0  0  0
   -1.9115    2.1280    0.0774 H   0  0  0  0  0  0  0  0  0  0  0  0
   -3.3361    0.0770   -0.2802 H   0  0  0  0  0  0  0  0  0  0  0  0
   -1.4374   -3.6457    3.8095 H   0  0  0  0  0  0  0  0  0  0  0  0
   -0.0158   -7.3326    5.9418 H   0  0  0  0  0  0  0  0  0  0  0  0
   -1.2061   -4.6281    5.4711 H   0  0  0  0  0  0  0  0  0  0  0  0
    1.1155   -5.3366    7.3295 H   0  0  0  0  0  0  0  0  0  0  0  0
    1.2925   -2.7324    6.0539 H   0  0  0  0  0  0  0  0  0  0  0  0
   -1.3507   -6.2143    1.6955 H   0  0  0  0  0  0  0  0  0  0  0  0
   -2.3636   -7.1566    2.3873 H   0  0  0  0  0  0  0  0  0  0  0  0
   -4.1807   -5.2647    1.2778 H   0  0  0  0  0  0  0  0  0  0  0  0
   -4.3013   -5.2587    2.9772 H   0  0  0  0  0  0  0  0  0  0  0  0
   -4.1755   -2.8727    1.8631 H   0  0  0  0  0  0  0  0  0  0  0  0
   -2.8601   -3.1255    2.8881 H   0  0  0  0  0  0  0  0  0  0  0  0
   -1.2378   -1.4247    2.3815 H   0  0  0  0  0  0  0  0  0  0  0  0
   -0.8698   -1.4970    1.1900 H   0  0  0  0  0  0  0  0  0  0  0  0
   -2.7256   -1.0105    1.2805 H   0  0  0  0  0  0  0  0  0  0  0  0
    0.3156   -4.4107    0.4442 H   0  0  0  0  0  0  0  0  0  0  0  0
   -0.5785   -5.4182   -0.0799 H   0  0  0  0  0  0  0  0  0  0  0  0
   -0.0937   -3.7966   -1.0138 H   0  0  0  0  0  0  0  0  0  0  0  0
   -3.5290   -5.1738   -1.3652 H   0  0  0  0  0  0  0  0  0  0  0  0
    1.1611   -2.2756   -0.0650 H   0  0  0  0  0  0  0  0  0  0  0  0
    3.2164   -1.1425   -0.0084 H   0  0  0  0  0  0  0  0  0  0  0  0
    3.1772    1.3543   -0.0637 H   0  0  0  0  0  0  0  0  0  0  0  0
    1.0235    2.6584    0.0505 H   0  0  0  0  0  0  0  0  0  0  0  0
  1  2  1  0  0  0  0
  1 32  1  0  0  0  0
  2  3  2  0  0  0  0
  2 33  1  0  0  0  0
  3 27  1  0  0  0  0
  4  5  1  0  0  0  0
  4 34  1  0  0  0  0
  5  6  1  0  0  0  0
  5 13  1  0  0  0  0
  6  7  2  0  0  0  0
  6  9  1  0  0  0  0
  7  8  1  0  0  0  0
  8  4  2  0  0  0  0
  8 19  1  0  0  0  0
  9 10  2  0  0  0  0
  9 35  1  0  0  0  0
 10 11  1  0  0  0  0
 10 36  1  0  0  0  0
 11 12  2  0  0  0  0
 11 37  1  0  0  0  0
 12  7  1  0  0  0  0
 12 38  1  0  0  0  0
 13 14  1  0  0  0  0
 13 39  1  0  0  0  0
 13 40  1  0  0  0  0
 14 15  1  0  0  0  0
 14 41  1  0  0  0  0
 14 42  1  0  0  0  0
 15 16  1  0  0  0  0
 15 43  1  0  0  0  0
 15 44  1  0  0  0  0
 16 17  1  0  0  0  0
 16 18  1  0  0  0  0
 17 45  1  0  0  0  0
 17 46  1  0  0  0  0
 17 47  1  0  0  0  0
 18 48  1  0  0  0  0
 18 49  1  0  0  0  0
 18 50  1  0  0  0  0
 19 20  1  0  0  0  0
 20 21  1  0  0  0  0
 20 24  2  0  0  0  0
 21 22  1  0  0  0  0
 21 51  1  0  0  0  0
 22 23  1  0  0  0  0
 22 25  2  0  0  0  0
 23 19  2  0  0  0  0
 23  3  1  0  0  0  0
 26 27  2  0  0  0  0
 26  1  1  0  0  0  0
 27 28  1  0  0  0  0
 28 29  2  0  0  0  0
 28 52  1  0  0  0  0
 29 30  1  0  0  0  0
 29 53  1  0  0  0  0
 30 31  2  0  0  0  0
 30 54  1  0  0  0  0
 31 26  1  0  0  0  0
 31 55  1  0  0  0  0
M  END
>  <DRUGBANK_ID>
DB03777

>  <SECONDARY_ACCESSION_NUMBERS>
EXPT00703

>  <COMMON_NAME>
Bisindolylmaleimide I

>  <CAS_NUMBER>
133052-90-1

>  <UNII>
L79H6N0V6C

$$$$
