
 OpenBabel10282417133D

 58 59  0  0  0  0  0  0  0  0999 V2000
    5.3649   -3.0361    1.3051 N   0  0  0  0  0  0  0  0  0  0  0  0
    3.9929   -3.3594    0.9889 C   0  0  0  0  0  0  0  0  0  0  0  0
    3.6923   -4.6219    0.5401 N   0  0  0  0  0  0  0  0  0  0  0  0
    4.3198   -5.5772    1.1103 C   0  0  0  0  0  0  0  0  0  0  0  0
    5.5499   -5.3348    1.8922 C   0  0  0  0  0  0  0  0  0  0  0  0
    6.1048   -4.1193    1.7548 C   0  0  0  0  0  0  0  0  0  0  0  0
    6.4125   -0.6311    0.4021 C   0  0  1  0  0  0  0  0  0  0  0  0
    6.0065   -1.5965    1.5979 C   0  0  1  0  0  0  0  0  0  0  0  0
    5.1624   -0.8244    2.5396 O   0  0  0  0  0  0  0  0  0  0  0  0
    4.9201    0.5394    2.0240 C   0  0  1  0  0  0  0  0  0  0  0  0
    5.9486    0.7748    0.8739 C   0  0  1  0  0  0  0  0  0  0  0  0
    3.3651    0.8146    1.6608 C   0  0  0  0  0  0  0  0  0  0  0  0
    2.6632   -0.1179    0.7470 O   0  0  0  0  0  0  0  0  0  0  0  0
    3.2433   -0.3550   -0.7847 P   0  0  3  0  0  0  0  0  0  0  0  0
    4.4701   -1.2951   -1.6826 O   0  0  0  0  0  0  0  0  0  0  0  0
    3.3487   -1.7322   -2.9253 P   0  0  3  0  0  0  0  0  0  0  0  0
    4.5223   -2.6794   -3.5602 O   0  0  0  0  0  0  0  0  0  0  0  0
    3.5417    1.0531   -1.2061 O   0  0  0  0  0  0  0  0  0  0  0  0
    2.4507   -2.5209   -1.9853 O   0  0  0  0  0  0  0  0  0  0  0  0
    2.2273   -2.1693   -4.1680 O   0  0  0  0  0  0  0  0  0  0  0  0
    4.1913   -0.9525    0.3048 O   0  0  0  0  0  0  0  0  0  0  0  0
    3.7866   -6.8116    0.9274 N   0  0  0  0  0  0  0  0  0  0  0  0
    3.0481   -2.6457    1.2037 O   0  0  0  0  0  0  0  0  0  0  0  0
    7.0942    1.4846    1.3484 O   0  0  0  0  0  0  0  0  0  0  0  0
    7.6914   -0.7930   -0.1963 O   0  0  0  0  0  0  0  0  0  0  0  0
    5.3968   -2.1191   -4.5698 C   0  0  0  0  0  0  0  0  0  0  0  0
    4.7190   -1.7426   -5.9725 C   0  0  2  0  0  0  0  0  0  0  0  0
    3.2220   -1.8187   -5.9173 C   0  0  1  0  0  0  0  0  0  0  0  0
    2.7620   -0.2764   -5.2194 C   0  0  0  0  0  0  0  0  0  0  0  0
    2.7205    0.7383   -6.2068 O   0  0  0  0  0  0  0  0  0  0  0  0
    5.0547   -2.7452   -6.9296 O   0  0  0  0  0  0  0  0  0  0  0  0
    2.0347   -2.2092   -6.7709 C   0  0  0  0  0  0  0  0  0  0  0  0
    3.3180   -3.3472   -5.4112 O   0  0  0  0  0  0  0  0  0  0  0  0
    5.9991   -6.1503    2.4269 H   0  0  0  0  0  0  0  0  0  0  0  0
    7.1069   -3.9130    2.1001 H   0  0  0  0  0  0  0  0  0  0  0  0
    5.8937   -0.8359   -0.4965 H   0  0  0  0  0  0  0  0  0  0  0  0
    6.9447   -1.7770    2.1363 H   0  0  0  0  0  0  0  0  0  0  0  0
    5.1434    1.2337    2.8489 H   0  0  0  0  0  0  0  0  0  0  0  0
    5.5030    1.4051    0.0954 H   0  0  0  0  0  0  0  0  0  0  0  0
    2.7889    0.8324    2.6006 H   0  0  0  0  0  0  0  0  0  0  0  0
    3.2514    1.8005    1.2081 H   0  0  0  0  0  0  0  0  0  0  0  0
    1.3151   -2.0506   -3.8177 H   0  0  0  0  0  0  0  0  0  0  0  0
    3.6286   -1.3651    1.0186 H   0  0  0  0  0  0  0  0  0  0  0  0
    4.2354   -7.6662    1.2053 H   0  0  0  0  0  0  0  0  0  0  0  0
    2.9997   -6.8523    0.2860 H   0  0  0  0  0  0  0  0  0  0  0  0
    7.5607    0.8762    1.9393 H   0  0  0  0  0  0  0  0  0  0  0  0
    8.3566   -0.3206    0.3067 H   0  0  0  0  0  0  0  0  0  0  0  0
    5.9124   -1.2587   -4.1301 H   0  0  0  0  0  0  0  0  0  0  0  0
    6.1571   -2.8882   -4.7591 H   0  0  0  0  0  0  0  0  0  0  0  0
    5.0792   -0.7629   -6.2834 H   0  0  0  0  0  0  0  0  0  0  0  0
    1.7598   -0.2235   -4.7450 H   0  0  0  0  0  0  0  0  0  0  0  0
    3.4409    0.1028   -4.4318 H   0  0  0  0  0  0  0  0  0  0  0  0
    3.5812    0.7329   -6.6509 H   0  0  0  0  0  0  0  0  0  0  0  0
    4.4720   -3.4909   -6.6227 H   0  0  0  0  0  0  0  0  0  0  0  0
    2.0221   -3.2859   -6.9933 H   0  0  0  0  0  0  0  0  0  0  0  0
    1.1074   -2.1068   -6.1650 H   0  0  0  0  0  0  0  0  0  0  0  0
    1.9399   -1.5984   -7.6453 H   0  0  0  0  0  0  0  0  0  0  0  0
    2.8042   -3.4194   -4.5715 H   0  0  0  0  0  0  0  0  0  0  0  0
  1  2  1  0  0  0  0
  2 23  2  0  0  0  0
  2  3  1  0  0  0  0
  3  4  2  0  0  0  0
  4  5  1  0  0  0  0
  4 22  1  0  0  0  0
  5  6  2  0  0  0  0
  5 34  1  0  0  0  0
  6  1  1  0  0  0  0
  6 35  1  0  0  0  0
  7  8  1  0  0  0  0
  7 25  1  0  0  0  0
  7 36  1  6  0  0  0
  8  9  1  0  0  0  0
  8  1  1  0  0  0  0
  8 37  1  1  0  0  0
  9 10  1  0  0  0  0
 10 11  1  0  0  0  0
 10 38  1  1  0  0  0
 10 12  1  0  0  0  0
 11  7  1  0  0  0  0
 11 24  1  0  0  0  0
 11 39  1  6  0  0  0
 12 13  1  0  0  0  0
 12 40  1  0  0  0  0
 12 41  1  0  0  0  0
 13 14  1  0  0  0  0
 14 18  2  0  0  0  0
 14 21  1  0  0  0  0
 14 15  1  0  0  0  0
 15 16  1  0  0  0  0
 16 17  1  0  0  0  0
 16 19  2  0  0  0  0
 16 20  1  0  0  0  0
 17 26  1  0  0  0  0
 20 42  1  0  0  0  0
 21 43  1  0  0  0  0
 22 44  1  0  0  0  0
 22 45  1  0  0  0  0
 24 46  1  0  0  0  0
 25 47  1  0  0  0  0
 26 48  1  0  0  0  0
 26 49  1  0  0  0  0
 27 31  1  0  0  0  0
 27 50  1  6  0  0  0
 27 28  1  0  0  0  0
 27 26  1  0  0  0  0
 28 29  1  0  0  0  0
 28 32  1  0  0  0  0
 28 33  1  1  0  0  0
 29 30  1  0  0  0  0
 29 51  1  0  0  0  0
 29 52  1  0  0  0  0
 30 53  1  0  0  0  0
 31 54  1  0  0  0  0
 32 55  1  0  0  0  0
 32 56  1  0  0  0  0
 32 57  1  0  0  0  0
 33 58  1  0  0  0  0
M  END
>  <DRUGBANK_ID>
DB03687

>  <SECONDARY_ACCESSION_NUMBERS>
EXPT00873

>  <COMMON_NAME>
4-(Cytidine 5'-diphospho)-2-C-methyl-D-erythritol

>  <CAS_NUMBER>
263016-94-0

>  <UNII>
FB44VKC5JD

>  <SYNONYMS>
4-CDP-2-C-methyl-D-erythritol; 4-Diphosphocytidyl-2-C-methyl-D-erythritol

$$$$
