
 OpenBabel10282417193D

 45 47  0  0  1  0  0  0  0  0999 V2000
   -0.7554    1.4950    1.3762 C   0  0  0  0  0  0  0  0  0  0  0  0
    0.2990    1.4644    0.2534 C   0  0  1  0  0  0  0  0  0  0  0  0
   -0.1737    1.5771   -1.1926 C   0  0  0  0  0  0  0  0  0  0  0  0
   -0.0879    3.1019   -1.9785 S   0  0  0  0  0  0  0  0  0  0  0  0
    1.0779    3.1607   -2.8207 O   0  0  0  0  0  0  0  0  0  0  0  0
   -1.4169    3.3288   -2.5378 O   0  0  0  0  0  0  0  0  0  0  0  0
    0.1258    4.1906   -0.7500 N   0  0  0  0  0  0  0  0  0  0  0  0
    0.7583    3.8136    0.4401 C   0  0  0  0  0  0  0  0  0  0  0  0
    1.1200    2.6051    0.7246 N   0  0  0  0  0  0  0  0  0  0  0  0
    0.9460    4.8414    1.3051 N   0  0  0  0  0  0  0  0  0  0  0  0
    0.1143    5.5598   -1.3168 C   0  0  0  0  0  0  0  0  0  0  0  0
    0.9188    0.0285    0.1340 C   0  0  0  0  0  0  0  0  0  0  0  0
    2.0110   -0.0491   -0.7317 C   0  0  0  0  0  0  0  0  0  0  0  0
    2.4428   -1.1509   -1.4566 C   0  0  0  0  0  0  0  0  0  0  0  0
    1.6388   -2.2826   -1.4050 C   0  0  0  0  0  0  0  0  0  0  0  0
    0.5160   -2.2805   -0.5592 C   0  0  0  0  0  0  0  0  0  0  0  0
    0.1890   -1.1615    0.2235 C   0  0  0  0  0  0  0  0  0  0  0  0
   -0.9785   -1.2269    0.8725 F   0  0  0  0  0  0  0  0  0  0  0  0
    3.5758   -1.0386   -2.2911 N   0  0  0  0  0  0  0  0  0  0  0  0
    4.5078    0.0088   -2.4377 C   0  0  0  0  0  0  0  0  0  0  0  0
    5.3841   -0.1071   -3.2972 O   0  0  0  0  0  0  0  0  0  0  0  0
    4.5076    1.2593   -1.5783 C   0  0  0  0  0  0  0  0  0  0  0  0
    4.3907    1.1708   -0.1854 C   0  0  0  0  0  0  0  0  0  0  0  0
    3.9936    2.3064    0.5265 C   0  0  0  0  0  0  0  0  0  0  0  0
    3.8956    3.5189   -0.1371 C   0  0  0  0  0  0  0  0  0  0  0  0
    4.1141    3.5482   -1.5013 C   0  0  0  0  0  0  0  0  0  0  0  0
    4.3976    2.4445   -2.2444 N   0  0  0  0  0  0  0  0  0  0  0  0
    3.5289    4.6257    0.5217 F   0  0  0  0  0  0  0  0  0  0  0  0
   -1.5998    2.1149    1.0807 H   0  0  0  0  0  0  0  0  0  0  0  0
   -0.3272    1.9424    2.2920 H   0  0  0  0  0  0  0  0  0  0  0  0
   -1.1020    0.5382    1.7400 H   0  0  0  0  0  0  0  0  0  0  0  0
   -1.1478    1.1171   -1.3197 H   0  0  0  0  0  0  0  0  0  0  0  0
    0.4609    1.0395   -1.9142 H   0  0  0  0  0  0  0  0  0  0  0  0
    1.1728    4.6470    2.2713 H   0  0  0  0  0  0  0  0  0  0  0  0
    0.7042    5.7943    1.0819 H   0  0  0  0  0  0  0  0  0  0  0  0
   -0.6664    6.1406   -0.8274 H   0  0  0  0  0  0  0  0  0  0  0  0
    1.0955    6.0331   -1.2190 H   0  0  0  0  0  0  0  0  0  0  0  0
   -0.1134    5.5603   -2.3914 H   0  0  0  0  0  0  0  0  0  0  0  0
    2.3371    0.9164   -1.0886 H   0  0  0  0  0  0  0  0  0  0  0  0
    1.8116   -3.1483   -2.0398 H   0  0  0  0  0  0  0  0  0  0  0  0
   -0.1814   -3.1161   -0.5545 H   0  0  0  0  0  0  0  0  0  0  0  0
    3.7712   -1.8114   -2.9206 H   0  0  0  0  0  0  0  0  0  0  0  0
    4.3486    0.2001    0.3015 H   0  0  0  0  0  0  0  0  0  0  0  0
    3.6141    2.2149    1.5431 H   0  0  0  0  0  0  0  0  0  0  0  0
    4.0221    4.4847   -2.0433 H   0  0  0  0  0  0  0  0  0  0  0  0
  1 29  1  0  0  0  0
  1 30  1  0  0  0  0
  1 31  1  0  0  0  0
  2  3  1  0  0  0  0
  2  9  1  0  0  0  0
  2 12  1  0  0  0  0
  2  1  1  1  0  0  0
  3  4  1  0  0  0  0
  3 32  1  0  0  0  0
  3 33  1  0  0  0  0
  4  5  2  0  0  0  0
  4  6  2  0  0  0  0
  4  7  1  0  0  0  0
  7  8  1  0  0  0  0
  7 11  1  0  0  0  0
  8  9  2  0  0  0  0
  8 10  1  0  0  0  0
 10 34  1  0  0  0  0
 10 35  1  0  0  0  0
 11 36  1  0  0  0  0
 11 37  1  0  0  0  0
 11 38  1  0  0  0  0
 12 13  2  0  0  0  0
 12 17  1  0  0  0  0
 13 14  1  0  0  0  0
 13 39  1  0  0  0  0
 14 15  2  0  0  0  0
 14 19  1  0  0  0  0
 15 16  1  0  0  0  0
 15 40  1  0  0  0  0
 16 17  2  0  0  0  0
 16 41  1  0  0  0  0
 17 18  1  0  0  0  0
 19 20  1  0  0  0  0
 19 42  1  0  0  0  0
 20 21  2  0  0  0  0
 20 22  1  0  0  0  0
 22 23  2  0  0  0  0
 22 27  1  0  0  0  0
 23 24  1  0  0  0  0
 23 43  1  0  0  0  0
 24 25  2  0  0  0  0
 24 44  1  0  0  0  0
 25 26  1  0  0  0  0
 25 28  1  0  0  0  0
 26 27  2  0  0  0  0
 26 45  1  0  0  0  0
M  END
>  <DRUGBANK_ID>
DB12285

>  <SECONDARY_ACCESSION_NUMBERS>
DB08929

>  <COMMON_NAME>
Verubecestat

>  <CAS_NUMBER>
1286770-55-5

>  <UNII>
J1I0P6WT7T

>  <SYNONYMS>
Verubecestat

$$$$
