
 OpenBabel10282417193D

235240  0  0  1  0  0  0  0  0999 V2000
    0.3611    7.3954   -4.7833 C   0  0  0  0  0  0  0  0  0  0  0  0
   -0.1954    7.0346   -3.4263 C   0  0  0  0  0  0  0  0  0  0  0  0
   -1.7088    7.2320   -3.3802 C   0  0  0  0  0  0  0  0  0  0  0  0
   -2.4606    6.3117   -4.3223 C   0  0  0  0  0  0  0  0  0  0  0  0
   -2.0576    4.8599   -4.1225 C   0  0  0  0  0  0  0  0  0  0  0  0
   -2.5681    4.4806   -2.7547 C   0  0  0  0  0  0  0  0  0  0  0  0
   -4.0758    4.6883   -2.7287 C   0  0  0  0  0  0  0  0  0  0  0  0
   -4.7258    3.8098   -3.7900 C   0  0  0  0  0  0  0  0  0  0  0  0
   -4.4006    2.3494   -3.5014 C   0  0  0  0  0  0  0  0  0  0  0  0
   -4.9356    1.9615   -2.1269 C   0  0  0  0  0  0  0  0  0  0  0  0
   -6.4435    2.1612   -2.0751 C   0  0  0  0  0  0  0  0  0  0  0  0
   -7.1102    1.2962   -3.1244 C   0  0  0  0  0  0  0  0  0  0  0  0
   -0.1844    6.5176   -5.8589 C   0  0  0  0  0  0  0  0  0  0  0  0
    0.2947    6.9921   -7.1023 C   0  0  0  0  0  0  0  0  0  0  0  0
    1.1068    6.1870   -7.7019 C   0  0  0  0  0  0  0  0  0  0  0  0
    1.5927    6.7759   -8.9405 C   0  0  1  0  0  0  0  0  0  0  0  0
    2.9029    6.4512   -9.0984 O   0  0  0  0  0  0  0  0  0  0  0  0
    0.6951    6.3372   -9.9957 C   0  0  1  0  0  0  0  0  0  0  0  0
   -0.7018    6.8734   -9.9602 N   0  0  0  0  0  0  0  0  0  0  0  0
   -1.6113    7.3772  -11.3635 C   0  0  0  0  0  0  0  0  0  0  0  0
   -2.8676    7.2015  -11.3696 O   0  0  0  0  0  0  0  0  0  0  0  0
   -0.8080    7.2020  -13.0892 C   0  0  0  0  0  0  0  0  0  0  0  0
    0.3602    8.2470  -12.8564 C   0  0  0  0  0  0  0  0  0  0  0  0
    1.5348    8.0945  -11.8441 C   0  0  0  0  0  0  0  0  0  0  0  0
    2.4817    6.9605  -12.5237 C   0  0  0  0  0  0  0  0  0  0  0  0
    3.1346    6.4465  -13.7336 C   0  0  0  0  0  0  0  0  0  0  0  0
    4.1080    7.3235  -13.1023 C   0  0  0  0  0  0  0  0  0  0  0  0
    4.9244    6.6899  -11.9248 C   0  0  0  0  0  0  0  0  0  0  0  0
    5.5842    5.4032  -12.3672 C   0  0  0  0  0  0  0  0  0  0  0  0
    6.3255    5.6881  -13.6358 C   0  0  0  0  0  0  0  0  0  0  0  0
    7.3373    6.7710  -13.3413 C   0  0  0  0  0  0  0  0  0  0  0  0
    8.2832    6.2829  -12.2531 C   0  0  0  0  0  0  0  0  0  0  0  0
    8.9831    5.0168  -12.7285 C   0  0  0  0  0  0  0  0  0  0  0  0
    9.7610    5.3196  -14.0025 C   0  0  0  0  0  0  0  0  0  0  0  0
   10.7966    6.4029  -13.7220 C   0  0  0  0  0  0  0  0  0  0  0  0
   11.7707    5.9260  -12.6498 C   0  0  0  0  0  0  0  0  0  0  0  0
   12.4801    4.6607  -13.1103 C   0  0  0  0  0  0  0  0  0  0  0  0
   13.2503    4.9404  -14.3841 C   0  0  0  0  0  0  0  0  0  0  0  0
    1.0152    6.0702  -11.5473 C   0  0  0  0  0  0  0  0  0  0  0  0
    2.6205    5.3056  -11.6608 O   0  0  0  0  0  0  0  0  0  0  0  0
    2.8574    4.8786  -10.5057 C   0  0  2  0  0  0  0  0  0  0  0  0
    1.3988    4.6081  -10.7672 O   0  0  0  0  0  0  0  0  0  0  0  0
   -0.4090    4.6633  -10.3831 C   0  0  2  0  0  0  0  0  0  0  0  0
   -1.8550    5.1997  -10.7771 C   0  0  0  0  0  0  0  0  0  0  0  0
   -1.7180    5.4294  -12.1581 O   0  0  0  0  0  0  0  0  0  0  0  0
   -0.4190    4.0056   -9.1105 C   0  0  1  0  0  0  0  0  0  0  0  0
   -1.9724    3.1398   -9.0427 O   0  0  0  0  0  0  0  0  0  0  0  0
   -2.0736    1.4109   -9.2783 C   0  0  2  0  0  0  0  0  0  0  0  0
   -2.2234    0.2190  -10.1995 O   0  0  0  0  0  0  0  0  0  0  0  0
   -1.3043   -1.2293   -9.8009 C   0  0  2  0  0  0  0  0  0  0  0  0
   -1.0568   -1.7908   -8.5110 C   0  0  0  0  0  0  0  0  0  0  0  0
    0.2939   -1.7793   -7.6860 O   0  0  0  0  0  0  0  0  0  0  0  0
    0.5501   -0.9928   -9.3683 C   0  0  2  0  0  0  0  0  0  0  0  0
    1.8715   -2.2692  -10.1714 O   0  0  0  0  0  0  0  0  0  0  0  0
    1.8751   -2.4585  -12.1799 C   0  0  2  0  0  0  0  0  0  0  0  0
    2.6459   -1.0344  -13.2027 O   0  0  0  0  0  0  0  0  0  0  0  0
    1.0800    0.3094  -13.3948 C   0  0  2  0  0  0  0  0  0  0  0  0
    0.5545    0.8859  -11.1477 C   0  0  0  0  0  0  0  0  0  0  0  0
    1.1306    0.8405  -10.0615 O   0  0  0  0  0  0  0  0  0  0  0  0
   -0.6167   -0.0916  -14.3207 C   0  0  2  0  0  0  0  0  0  0  0  0
   -2.2617    0.5749  -14.5303 O   0  0  0  0  0  0  0  0  0  0  0  0
   -1.0267   -1.3115  -13.5681 C   0  0  2  0  0  0  0  0  0  0  0  0
   -1.5769   -1.1031  -12.2950 O   0  0  0  0  0  0  0  0  0  0  0  0
   -0.5451   -0.3783  -11.5986 C   0  0  2  0  0  0  0  0  0  0  0  0
    0.1478    1.3466  -12.5671 O   0  0  0  0  0  0  0  0  0  0  0  0
    1.9899    2.1337  -11.7818 C   0  0  2  0  0  0  0  0  0  0  0  0
    2.3049    3.5710  -12.5883 C   0  0  0  0  0  0  0  0  0  0  0  0
    1.1563    4.2689  -13.0751 O   0  0  0  0  0  0  0  0  0  0  0  0
    3.4334    1.3314  -11.6629 C   0  0  2  0  0  0  0  0  0  0  0  0
    3.8770    1.5880  -12.9309 O   0  0  0  0  0  0  0  0  0  0  0  0
    2.7782   -0.7102  -10.8487 C   0  0  2  0  0  0  0  0  0  0  0  0
    3.8366   -1.6361  -11.1277 O   0  0  0  0  0  0  0  0  0  0  0  0
    0.6483   -1.4625  -11.0497 C   0  0  1  0  0  0  0  0  0  0  0  0
    0.1835   -2.8591  -10.6385 O   0  0  0  0  0  0  0  0  0  0  0  0
    0.2585   -2.2605  -13.4133 C   0  0  1  0  0  0  0  0  0  0  0  0
    0.5928   -2.3045  -14.7502 N   0  0  0  0  0  0  0  0  0  0  0  0
    0.5226   -3.4600  -15.3318 C   0  0  0  0  0  0  0  0  0  0  0  0
    1.0148   -3.5418  -16.4330 O   0  0  0  0  0  0  0  0  0  0  0  0
   -0.1563   -4.4621  -14.4771 C   0  0  0  0  0  0  0  0  0  0  0  0
    0.4941    0.2979   -8.4341 C   0  0  2  0  0  0  0  0  0  0  0  0
    1.9804    0.6461   -8.1658 O   0  0  0  0  0  0  0  0  0  0  0  0
    2.4137    1.8462   -8.8430 C   0  0  2  0  0  0  0  0  0  0  0  0
    3.5065    0.6951  -10.1492 C   0  0  0  0  0  0  0  0  0  0  0  0
    2.2189    0.4567  -11.9881 C   0  0  2  0  0  0  0  0  0  0  0  0
    1.4352   -0.6421  -12.1765 O   0  0  0  0  0  0  0  0  0  0  0  0
    1.4186    2.1208  -13.2952 C   0  0  1  0  0  0  0  0  0  0  0  0
    0.9462    1.7391  -14.7868 N   0  0  0  0  0  0  0  0  0  0  0  0
    1.3846    0.7194  -15.6975 C   0  0  0  0  0  0  0  0  0  0  0  0
    0.7517    0.3079  -16.6539 O   0  0  0  0  0  0  0  0  0  0  0  0
    2.4477   -0.3011  -15.2163 C   0  0  0  0  0  0  0  0  0  0  0  0
    0.4700    3.0178  -11.6340 C   0  0  2  0  0  0  0  0  0  0  0  0
   -1.2348    2.9927  -11.9084 C   0  0  2  0  0  0  0  0  0  0  0  0
   -2.3479    3.0862  -11.1601 O   0  0  0  0  0  0  0  0  0  0  0  0
   -1.6652    2.1459  -12.9080 C   0  0  1  0  0  0  0  0  0  0  0  0
   -1.3104    2.8465  -14.4104 C   0  0  0  0  0  0  0  0  0  0  0  0
    0.0708    3.7087  -14.8619 O   0  0  0  0  0  0  0  0  0  0  0  0
   -1.5746    0.8326  -12.7239 O   0  0  0  0  0  0  0  0  0  0  0  0
    0.4383    3.2327  -10.6452 H   0  0  0  0  0  0  0  0  0  0  0  0
    1.8593    3.0513  -10.1976 O   0  0  0  0  0  0  0  0  0  0  0  0
    0.7831    2.1019   -7.4890 C   0  0  0  0  0  0  0  0  0  0  0  0
   -0.4976    2.2798   -7.9118 O   0  0  0  0  0  0  0  0  0  0  0  0
   -0.6328    1.5175   -8.9657 C   0  0  1  0  0  0  0  0  0  0  0  0
    0.4051    2.9049   -6.5789 O   0  0  0  0  0  0  0  0  0  0  0  0
    1.4432    3.7175   -8.5810 C   0  0  2  0  0  0  0  0  0  0  0  0
    2.3434    3.2097   -7.3276 O   0  0  0  0  0  0  0  0  0  0  0  0
    3.1365    4.1439   -9.3219 C   0  0  1  0  0  0  0  0  0  0  0  0
    4.2307    3.2278   -9.6123 O   0  0  0  0  0  0  0  0  0  0  0  0
    1.4475    7.2740   -4.7902 H   0  0  0  0  0  0  0  0  0  0  0  0
    0.1238    8.4408   -5.0096 H   0  0  0  0  0  0  0  0  0  0  0  0
    0.0762    6.0026   -3.1809 H   0  0  0  0  0  0  0  0  0  0  0  0
    0.2771    7.6573   -2.6663 H   0  0  0  0  0  0  0  0  0  0  0  0
   -2.0675    7.0305   -2.3706 H   0  0  0  0  0  0  0  0  0  0  0  0
   -1.9525    8.2714   -3.6032 H   0  0  0  0  0  0  0  0  0  0  0  0
   -3.5265    6.4857   -4.3227 H   0  0  0  0  0  0  0  0  0  0  0  0
   -2.4180    6.6132   -5.3322 H   0  0  0  0  0  0  0  0  0  0  0  0
   -2.4602    4.2364   -4.9236 H   0  0  0  0  0  0  0  0  0  0  0  0
   -0.9849    4.6697   -4.1621 H   0  0  0  0  0  0  0  0  0  0  0  0
   -2.2853    3.4561   -2.5284 H   0  0  0  0  0  0  0  0  0  0  0  0
   -2.0928    5.0847   -1.9819 H   0  0  0  0  0  0  0  0  0  0  0  0
   -4.4533    4.4781   -1.7327 H   0  0  0  0  0  0  0  0  0  0  0  0
   -4.3526    5.7298   -2.8951 H   0  0  0  0  0  0  0  0  0  0  0  0
   -5.8000    3.9899   -3.8070 H   0  0  0  0  0  0  0  0  0  0  0  0
   -4.3930    4.0712   -4.7962 H   0  0  0  0  0  0  0  0  0  0  0  0
   -4.8206    1.7171   -4.2815 H   0  0  0  0  0  0  0  0  0  0  0  0
   -3.3263    2.1635   -3.5482 H   0  0  0  0  0  0  0  0  0  0  0  0
   -4.6818    0.9229   -1.9113 H   0  0  0  0  0  0  0  0  0  0  0  0
   -4.4596    2.5589   -1.3429 H   0  0  0  0  0  0  0  0  0  0  0  0
   -6.8172    1.9115   -1.0825 H   0  0  0  0  0  0  0  0  0  0  0  0
   -6.7045    3.2106   -2.2464 H   0  0  0  0  0  0  0  0  0  0  0  0
   -6.8707    0.2458   -2.9402 H   0  0  0  0  0  0  0  0  0  0  0  0
   -8.1883    1.4379   -3.1078 H   0  0  0  0  0  0  0  0  0  0  0  0
   -6.7707    1.5520   -4.1321 H   0  0  0  0  0  0  0  0  0  0  0  0
   -0.0450    5.4507   -5.6705 H   0  0  0  0  0  0  0  0  0  0  0  0
   -1.1722    6.7065   -6.1637 H   0  0  0  0  0  0  0  0  0  0  0  0
    0.0458    7.9406   -7.5435 H   0  0  0  0  0  0  0  0  0  0  0  0
    1.0986    5.1566   -7.3825 H   0  0  0  0  0  0  0  0  0  0  0  0
    1.3786    7.7749   -9.1357 H   0  0  0  0  0  0  0  0  0  0  0  0
    3.4335    6.9247   -8.4803 H   0  0  0  0  0  0  0  0  0  0  0  0
    0.8900    5.3908   -9.4136 H   0  0  0  0  0  0  0  0  0  0  0  0
   -1.1075    6.1801   -9.2233 H   0  0  0  0  0  0  0  0  0  0  0  0
   -0.4861    6.0413  -13.6204 H   0  0  0  0  0  0  0  0  0  0  0  0
   -1.5540    7.1695  -13.9034 H   0  0  0  0  0  0  0  0  0  0  0  0
    0.9545    8.0979  -13.7351 H   0  0  0  0  0  0  0  0  0  0  0  0
   -0.2384    8.8814  -12.2538 H   0  0  0  0  0  0  0  0  0  0  0  0
    2.3313    8.5046  -11.2017 H   0  0  0  0  0  0  0  0  0  0  0  0
    0.9318    7.8221  -10.9573 H   0  0  0  0  0  0  0  0  0  0  0  0
    2.8286    6.8698  -11.3008 H   0  0  0  0  0  0  0  0  0  0  0  0
    2.0194    5.8610  -13.0486 H   0  0  0  0  0  0  0  0  0  0  0  0
    3.4368    5.3282  -13.8053 H   0  0  0  0  0  0  0  0  0  0  0  0
    2.2401    6.5386  -14.4031 H   0  0  0  0  0  0  0  0  0  0  0  0
    4.6247    7.5544  -13.9761 H   0  0  0  0  0  0  0  0  0  0  0  0
    3.6575    8.2786  -12.7456 H   0  0  0  0  0  0  0  0  0  0  0  0
    5.6003    7.4700  -11.6184 H   0  0  0  0  0  0  0  0  0  0  0  0
    4.4476    6.5115  -10.9533 H   0  0  0  0  0  0  0  0  0  0  0  0
    6.1854    5.0007  -11.5517 H   0  0  0  0  0  0  0  0  0  0  0  0
    4.9288    4.5817  -12.6236 H   0  0  0  0  0  0  0  0  0  0  0  0
    6.7660    4.7664  -14.0008 H   0  0  0  0  0  0  0  0  0  0  0  0
    5.6484    5.9940  -14.4332 H   0  0  0  0  0  0  0  0  0  0  0  0
    7.8550    7.0287  -14.2585 H   0  0  0  0  0  0  0  0  0  0  0  0
    6.8627    7.7010  -13.0267 H   0  0  0  0  0  0  0  0  0  0  0  0
    8.9911    7.0718  -12.0076 H   0  0  0  0  0  0  0  0  0  0  0  0
    7.7638    6.0861  -11.3140 H   0  0  0  0  0  0  0  0  0  0  0  0
    9.6315    4.6367  -11.9403 H   0  0  0  0  0  0  0  0  0  0  0  0
    8.2753    4.2072  -12.9112 H   0  0  0  0  0  0  0  0  0  0  0  0
   10.2238    4.4072  -14.3770 H   0  0  0  0  0  0  0  0  0  0  0  0
    9.1012    5.6393  -14.8103 H   0  0  0  0  0  0  0  0  0  0  0  0
   11.3186    6.6611  -14.6421 H   0  0  0  0  0  0  0  0  0  0  0  0
   10.3236    7.3342  -13.4064 H   0  0  0  0  0  0  0  0  0  0  0  0
   12.4964    6.7112  -12.4338 H   0  0  0  0  0  0  0  0  0  0  0  0
   11.2459    5.7305  -11.7095 H   0  0  0  0  0  0  0  0  0  0  0  0
   13.1524    4.3066  -12.3292 H   0  0  0  0  0  0  0  0  0  0  0  0
   11.7623    3.8530  -13.2869 H   0  0  0  0  0  0  0  0  0  0  0  0
   13.9846    5.7296  -14.2031 H   0  0  0  0  0  0  0  0  0  0  0  0
   13.7526    4.0410  -14.7324 H   0  0  0  0  0  0  0  0  0  0  0  0
   12.5887    5.2686  -15.1908 H   0  0  0  0  0  0  0  0  0  0  0  0
    0.5137    5.6069  -12.3727 H   0  0  0  0  0  0  0  0  0  0  0  0
    0.7806    6.5791  -12.4085 H   0  0  0  0  0  0  0  0  0  0  0  0
    3.7326    4.4943  -11.3156 H   0  0  0  0  0  0  0  0  0  0  0  0
   -0.3681    4.5027  -11.4102 H   0  0  0  0  0  0  0  0  0  0  0  0
   -2.7944    4.7414  -10.6998 H   0  0  0  0  0  0  0  0  0  0  0  0
   -2.3416    5.9100  -10.0398 H   0  0  0  0  0  0  0  0  0  0  0  0
   -0.8882    5.8783  -11.9828 H   0  0  0  0  0  0  0  0  0  0  0  0
   -0.5715    4.7117   -8.3857 H   0  0  0  0  0  0  0  0  0  0  0  0
   -2.6183    1.6747  -10.2175 H   0  0  0  0  0  0  0  0  0  0  0  0
   -1.5181   -1.8920  -10.6517 H   0  0  0  0  0  0  0  0  0  0  0  0
   -1.7957   -1.0292   -8.3522 H   0  0  0  0  0  0  0  0  0  0  0  0
   -0.9682   -2.6808   -9.0865 H   0  0  0  0  0  0  0  0  0  0  0  0
    1.2761   -1.7065   -8.1145 H   0  0  0  0  0  0  0  0  0  0  0  0
    1.4861   -0.5933   -9.3972 H   0  0  0  0  0  0  0  0  0  0  0  0
    2.2379   -3.3408  -12.5972 H   0  0  0  0  0  0  0  0  0  0  0  0
    2.2093    1.0575  -14.0457 H   0  0  0  0  0  0  0  0  0  0  0  0
   -0.4123    1.5599  -11.1586 H   0  0  0  0  0  0  0  0  0  0  0  0
   -0.2877    1.2138  -10.7127 H   0  0  0  0  0  0  0  0  0  0  0  0
    2.0245    0.8485  -10.1241 H   0  0  0  0  0  0  0  0  0  0  0  0
   -0.5893    0.0499  -15.3479 H   0  0  0  0  0  0  0  0  0  0  0  0
   -2.6639    1.3342  -14.0108 H   0  0  0  0  0  0  0  0  0  0  0  0
   -1.9328   -1.4515  -14.1594 H   0  0  0  0  0  0  0  0  0  0  0  0
   -0.6221    0.0474  -10.2943 H   0  0  0  0  0  0  0  0  0  0  0  0
    1.6271    1.9661  -10.9342 H   0  0  0  0  0  0  0  0  0  0  0  0
    2.9626    3.3864  -11.8173 H   0  0  0  0  0  0  0  0  0  0  0  0
    2.8290    3.4835  -13.4686 H   0  0  0  0  0  0  0  0  0  0  0  0
    0.1278    4.2185  -13.0070 H   0  0  0  0  0  0  0  0  0  0  0  0
    3.2864    2.1174  -10.8983 H   0  0  0  0  0  0  0  0  0  0  0  0
    3.3475    0.8905  -13.2946 H   0  0  0  0  0  0  0  0  0  0  0  0
    2.9717   -0.8054   -9.5950 H   0  0  0  0  0  0  0  0  0  0  0  0
    3.7553   -1.4713  -12.0713 H   0  0  0  0  0  0  0  0  0  0  0  0
    0.2084   -1.8614  -11.8375 H   0  0  0  0  0  0  0  0  0  0  0  0
    0.7058   -2.7414   -9.8101 H   0  0  0  0  0  0  0  0  0  0  0  0
   -0.3724   -2.9782  -12.9386 H   0  0  0  0  0  0  0  0  0  0  0  0
    0.7344   -1.5474  -15.4269 H   0  0  0  0  0  0  0  0  0  0  0  0
    0.3895   -4.6059  -13.5284 H   0  0  0  0  0  0  0  0  0  0  0  0
   -1.1814   -4.1174  -14.2408 H   0  0  0  0  0  0  0  0  0  0  0  0
   -0.1740   -5.3507  -15.0509 H   0  0  0  0  0  0  0  0  0  0  0  0
    0.0910    0.2411   -7.4880 H   0  0  0  0  0  0  0  0  0  0  0  0
    4.3623    0.1359  -11.1907 H   0  0  0  0  0  0  0  0  0  0  0  0
    4.6667    1.2538  -10.3566 H   0  0  0  0  0  0  0  0  0  0  0  0
    1.5842   -0.0767  -11.4369 H   0  0  0  0  0  0  0  0  0  0  0  0
    1.5841   -1.0836  -13.0214 H   0  0  0  0  0  0  0  0  0  0  0  0
    0.4588    2.7103  -13.2074 H   0  0  0  0  0  0  0  0  0  0  0  0
    0.2709    2.4059  -14.6868 H   0  0  0  0  0  0  0  0  0  0  0  0
    3.2799    0.0916  -14.6295 H   0  0  0  0  0  0  0  0  0  0  0  0
    1.6622   -0.6866  -14.5922 H   0  0  0  0  0  0  0  0  0  0  0  0
    2.6056   -1.3757  -15.1438 H   0  0  0  0  0  0  0  0  0  0  0  0
   -1.4951    3.7576  -12.5407 H   0  0  0  0  0  0  0  0  0  0  0  0
   -2.2582    3.3257  -10.2330 H   0  0  0  0  0  0  0  0  0  0  0  0
   -2.5440    1.7203  -12.4169 H   0  0  0  0  0  0  0  0  0  0  0  0
   -1.2774    2.1019  -15.2338 H   0  0  0  0  0  0  0  0  0  0  0  0
   -1.8187    3.7504  -14.3513 H   0  0  0  0  0  0  0  0  0  0  0  0
    0.8618    3.8824  -14.2558 H   0  0  0  0  0  0  0  0  0  0  0  0
   -0.6374    0.5806  -12.8437 H   0  0  0  0  0  0  0  0  0  0  0  0
   -0.3784    2.2682   -9.7252 H   0  0  0  0  0  0  0  0  0  0  0  0
    0.9881    2.7154   -9.0305 H   0  0  0  0  0  0  0  0  0  0  0  0
    1.7178    3.5886   -6.7121 H   0  0  0  0  0  0  0  0  0  0  0  0
    3.1692    4.6298   -8.3983 H   0  0  0  0  0  0  0  0  0  0  0  0
    4.2865    3.1073  -10.6001 H   0  0  0  0  0  0  0  0  0  0  0  0
  1  2  1  0  0  0  0
  1108  1  0  0  0  0
  1109  1  0  0  0  0
  2  3  1  0  0  0  0
  2110  1  0  0  0  0
  2111  1  0  0  0  0
  3  4  1  0  0  0  0
  3112  1  0  0  0  0
  3113  1  0  0  0  0
  4  5  1  0  0  0  0
  4114  1  0  0  0  0
  4115  1  0  0  0  0
  5  6  1  0  0  0  0
  5116  1  0  0  0  0
  5117  1  0  0  0  0
  6  7  1  0  0  0  0
  6118  1  0  0  0  0
  6119  1  0  0  0  0
  7  8  1  0  0  0  0
  7120  1  0  0  0  0
  7121  1  0  0  0  0
  8  9  1  0  0  0  0
  8122  1  0  0  0  0
  8123  1  0  0  0  0
  9 10  1  0  0  0  0
  9124  1  0  0  0  0
  9125  1  0  0  0  0
 10 11  1  0  0  0  0
 10126  1  0  0  0  0
 10127  1  0  0  0  0
 11 12  1  0  0  0  0
 11128  1  0  0  0  0
 11129  1  0  0  0  0
 12130  1  0  0  0  0
 12131  1  0  0  0  0
 12132  1  0  0  0  0
 13  1  1  0  0  0  0
 13133  1  0  0  0  0
 13134  1  0  0  0  0
 14 13  1  0  0  0  0
 14135  1  0  0  0  0
 15 14  2  0  0  0  0
 15136  1  0  0  0  0
 16 15  1  0  0  0  0
 16 17  1  0  0  0  0
 16137  1  1  0  0  0
 17138  1  0  0  0  0
 18 16  1  0  0  0  0
 18 19  1  0  0  0  0
 18139  1  1  0  0  0
 19 20  1  0  0  0  0
 19140  1  0  0  0  0
 20 21  2  0  0  0  0
 20 22  1  0  0  0  0
 22 23  1  0  0  0  0
 22141  1  0  0  0  0
 22142  1  0  0  0  0
 23 24  1  0  0  0  0
 23143  1  0  0  0  0
 23144  1  0  0  0  0
 24 25  1  0  0  0  0
 24145  1  0  0  0  0
 24146  1  0  0  0  0
 25 26  1  0  0  0  0
 25147  1  0  0  0  0
 25148  1  0  0  0  0
 26 27  1  0  0  0  0
 26149  1  0  0  0  0
 26150  1  0  0  0  0
 27 28  1  0  0  0  0
 27151  1  0  0  0  0
 27152  1  0  0  0  0
 28 29  1  0  0  0  0
 28153  1  0  0  0  0
 28154  1  0  0  0  0
 29 30  1  0  0  0  0
 29155  1  0  0  0  0
 29156  1  0  0  0  0
 30 31  1  0  0  0  0
 30157  1  0  0  0  0
 30158  1  0  0  0  0
 31 32  1  0  0  0  0
 31159  1  0  0  0  0
 31160  1  0  0  0  0
 32 33  1  0  0  0  0
 32161  1  0  0  0  0
 32162  1  0  0  0  0
 33 34  1  0  0  0  0
 33163  1  0  0  0  0
 33164  1  0  0  0  0
 34 35  1  0  0  0  0
 34165  1  0  0  0  0
 34166  1  0  0  0  0
 35 36  1  0  0  0  0
 35167  1  0  0  0  0
 35168  1  0  0  0  0
 36 37  1  0  0  0  0
 36169  1  0  0  0  0
 36170  1  0  0  0  0
 37 38  1  0  0  0  0
 37171  1  0  0  0  0
 37172  1  0  0  0  0
 38173  1  0  0  0  0
 38174  1  0  0  0  0
 38175  1  0  0  0  0
 39 18  1  0  0  0  0
 39176  1  0  0  0  0
 39177  1  0  0  0  0
 40 39  1  0  0  0  0
 41 42  1  0  0  0  0
 41178  1  6  0  0  0
 41 40  1  0  0  0  0
 42 43  1  0  0  0  0
 43 44  1  0  0  0  0
 43 46  1  0  0  0  0
 43179  1  6  0  0  0
 44 45  1  0  0  0  0
 44180  1  0  0  0  0
 44181  1  0  0  0  0
 45182  1  0  0  0  0
 46183  1  1  0  0  0
 46 47  1  0  0  0  0
 48 49  1  0  0  0  0
 48184  1  6  0  0  0
 48 47  1  0  0  0  0
 49 50  1  0  0  0  0
 50 53  1  0  0  0  0
 50185  1  6  0  0  0
 50 51  1  0  0  0  0
 51 52  1  0  0  0  0
 51186  1  0  0  0  0
 51187  1  0  0  0  0
 52188  1  0  0  0  0
 53 54  1  0  0  0  0
 53189  1  6  0  0  0
 55 54  1  0  0  0  0
 55 56  1  0  0  0  0
 55190  1  6  0  0  0
 56 57  1  0  0  0  0
 57 58  1  0  0  0  0
 57 60  1  0  0  0  0
 57191  1  6  0  0  0
 58 59  1  0  0  0  0
 58192  1  0  0  0  0
 58193  1  0  0  0  0
 59194  1  0  0  0  0
 60 61  1  0  0  0  0
 60195  1  6  0  0  0
 61196  1  0  0  0  0
 62 60  1  0  0  0  0
 62 63  1  0  0  0  0
 62 75  1  0  0  0  0
 62197  1  6  0  0  0
 64 65  1  0  0  0  0
 64198  1  1  0  0  0
 64 63  1  0  0  0  0
 65 66  1  0  0  0  0
 66 67  1  0  0  0  0
 66 69  1  0  0  0  0
 66199  1  1  0  0  0
 67 68  1  0  0  0  0
 67200  1  0  0  0  0
 67201  1  0  0  0  0
 68202  1  0  0  0  0
 69 70  1  0  0  0  0
 69203  1  1  0  0  0
 70204  1  0  0  0  0
 71 69  1  0  0  0  0
 71 72  1  0  0  0  0
 71 73  1  0  0  0  0
 71205  1  1  0  0  0
 72206  1  0  0  0  0
 73 64  1  0  0  0  0
 73 74  1  0  0  0  0
 73207  1  6  0  0  0
 74208  1  0  0  0  0
 75 55  1  0  0  0  0
 75 76  1  0  0  0  0
 75209  1  1  0  0  0
 76 77  1  0  0  0  0
 76210  1  0  0  0  0
 77 78  2  0  0  0  0
 77 79  1  0  0  0  0
 79211  1  0  0  0  0
 79212  1  0  0  0  0
 79213  1  0  0  0  0
 80 53  1  0  0  0  0
 80 81  1  0  0  0  0
 80102  1  0  0  0  0
 80214  1  6  0  0  0
 82 81  1  1  0  0  0
 82100  1  0  0  0  0
 83 82  1  0  0  0  0
 83215  1  0  0  0  0
 83216  1  0  0  0  0
 84 83  1  0  0  0  0
 84 85  1  0  0  0  0
 84217  1  1  0  0  0
 85218  1  0  0  0  0
 86 84  1  0  0  0  0
 86 87  1  0  0  0  0
 86219  1  6  0  0  0
 87 88  1  0  0  0  0
 87220  1  0  0  0  0
 88 89  2  0  0  0  0
 88 90  1  0  0  0  0
 90221  1  0  0  0  0
 90222  1  0  0  0  0
 90223  1  0  0  0  0
 91 86  1  0  0  0  0
 91 92  1  0  0  0  0
 91 98  1  1  0  0  0
 92224  1  6  0  0  0
 92 94  1  0  0  0  0
 92 93  1  0  0  0  0
 93225  1  0  0  0  0
 94 95  1  0  0  0  0
 94 97  1  0  0  0  0
 94226  1  1  0  0  0
 95 96  1  0  0  0  0
 95227  1  0  0  0  0
 95228  1  0  0  0  0
 96229  1  0  0  0  0
 97230  1  0  0  0  0
 99 91  1  0  0  0  0
 99 82  1  0  0  0  0
100101  1  0  0  0  0
100103  2  0  0  0  0
102101  1  0  0  0  0
102 48  1  0  0  0  0
102231  1  1  0  0  0
104 46  1  0  0  0  0
104105  1  0  0  0  0
104106  1  0  0  0  0
104232  1  6  0  0  0
105233  1  0  0  0  0
106 41  1  0  0  0  0
106107  1  0  0  0  0
106234  1  1  0  0  0
107235  1  0  0  0  0
M  END
>  <DRUGBANK_ID>
DB12351

>  <COMMON_NAME>
Siagoside

>  <CAS_NUMBER>
100345-64-0

>  <UNII>
6QFJ0908R2

>  <SYNONYMS>
Ganglioside GM1 lactone; Siagoside; Siagosido; Siagosidum

$$$$
