UFO
 OpenBabel10282417173D

 31 32  0  0  0  0  0  0  0  0999 V2000
    2.4412   -0.6935   -0.0485 C   0  0  0  0  0  0  0  0  0  0  0  0
    1.2221   -1.3840   -0.0908 C   0  0  0  0  0  0  0  0  0  0  0  0
   -0.0208    0.7184    0.0440 C   0  0  0  0  0  0  0  0  0  0  0  0
    1.2108    1.3900    0.0960 C   0  0  0  0  0  0  0  0  0  0  0  0
    2.4224    0.6971    0.0481 C   0  0  0  0  0  0  0  0  0  0  0  0
    4.5448   -1.0520   -1.2468 N   0  0  0  0  0  0  0  0  0  0  0  0
    3.7486   -1.4396   -0.0882 C   0  0  0  0  0  0  0  0  0  0  0  0
   -1.2248    1.4362    0.0383 N   0  0  0  0  0  0  0  0  0  0  0  0
   -1.3360    2.8137    0.4678 C   0  0  0  0  0  0  0  0  0  0  0  0
   -2.4110    0.6770   -0.3498 C   0  0  0  0  0  0  0  0  0  0  0  0
   -2.4079   -0.6866    0.3518 C   0  0  0  0  0  0  0  0  0  0  0  0
   -1.2159   -1.4414   -0.0314 N   0  0  0  0  0  0  0  0  0  0  0  0
   -1.3233   -2.8165   -0.4699 C   0  0  0  0  0  0  0  0  0  0  0  0
   -0.0169   -0.7156   -0.0378 C   0  0  0  0  0  0  0  0  0  0  0  0
    1.2463   -2.4671   -0.1389 H   0  0  0  0  0  0  0  0  0  0  0  0
    1.2528    2.4724    0.1414 H   0  0  0  0  0  0  0  0  0  0  0  0
    3.3568    1.2536    0.0675 H   0  0  0  0  0  0  0  0  0  0  0  0
    5.3841   -1.6247   -1.2841 H   0  0  0  0  0  0  0  0  0  0  0  0
    4.0096   -1.2590   -2.0892 H   0  0  0  0  0  0  0  0  0  0  0  0
    4.3061   -1.2348    0.8326 H   0  0  0  0  0  0  0  0  0  0  0  0
    3.5736   -2.5210   -0.1219 H   0  0  0  0  0  0  0  0  0  0  0  0
   -0.9976    2.9229    1.5044 H   0  0  0  0  0  0  0  0  0  0  0  0
   -0.7497    3.4816   -0.1713 H   0  0  0  0  0  0  0  0  0  0  0  0
   -2.3726    3.1659    0.4281 H   0  0  0  0  0  0  0  0  0  0  0  0
   -2.4014    0.5361   -1.4391 H   0  0  0  0  0  0  0  0  0  0  0  0
   -3.3311    1.2172   -0.1027 H   0  0  0  0  0  0  0  0  0  0  0  0
   -2.4008   -0.5449    1.4410 H   0  0  0  0  0  0  0  0  0  0  0  0
   -3.3247   -1.2318    0.1037 H   0  0  0  0  0  0  0  0  0  0  0  0
   -0.9841   -2.9191   -1.5070 H   0  0  0  0  0  0  0  0  0  0  0  0
   -0.7348   -3.4857    0.1658 H   0  0  0  0  0  0  0  0  0  0  0  0
   -2.3584   -3.1731   -0.4316 H   0  0  0  0  0  0  0  0  0  0  0  0
  1  2  1  0  0  0  0
  1  7  1  0  0  0  0
  2 15  1  0  0  0  0
  3 14  1  0  0  0  0
  4  3  2  0  0  0  0
  4  5  1  0  0  0  0
  4 16  1  0  0  0  0
  5  1  2  0  0  0  0
  5 17  1  0  0  0  0
  6 18  1  0  0  0  0
  6 19  1  0  0  0  0
  7  6  1  0  0  0  0
  7 20  1  0  0  0  0
  7 21  1  0  0  0  0
  8  3  1  0  0  0  0
  8 10  1  0  0  0  0
  9  8  1  0  0  0  0
  9 22  1  0  0  0  0
  9 23  1  0  0  0  0
  9 24  1  0  0  0  0
 10 11  1  0  0  0  0
 10 25  1  0  0  0  0
 10 26  1  0  0  0  0
 11 12  1  0  0  0  0
 11 27  1  0  0  0  0
 11 28  1  0  0  0  0
 12 13  1  0  0  0  0
 13 29  1  0  0  0  0
 13 30  1  0  0  0  0
 13 31  1  0  0  0  0
 14  2  2  0  0  0  0
 14 12  1  0  0  0  0
M  END
>  <DRUGBANK_ID>
DB08685

>  <COMMON_NAME>
1-(1,4-dimethyl-1,2,3,4-tetrahydroquinoxalin-6-yl)methanamine

$$$$
