
 OpenBabel10282417143D

 61 63  0  0  0  0  0  0  0  0999 V2000
    5.2961    1.1916    2.7291 C   0  0  0  0  0  0  0  0  0  0  0  0
    6.3986    0.3327    3.3164 C   0  0  0  0  0  0  0  0  0  0  0  0
    5.8324   -0.5250    4.4241 C   0  0  0  0  0  0  0  0  0  0  0  0
    4.5252   -1.2724    4.1281 C   0  0  0  0  0  0  0  0  0  0  0  0
    3.4874   -0.3249    3.6075 C   0  0  1  0  0  0  0  0  0  0  0  0
    4.0646    0.3298    2.3305 C   0  0  1  0  0  0  0  0  0  0  0  0
    2.8550    1.2047    1.8974 C   0  0  2  0  0  0  0  0  0  0  0  0
    2.0747   -0.7534    3.2076 C   0  0  0  0  0  0  0  0  0  0  0  0
    1.5728    0.4602    2.4087 C   0  0  0  0  0  0  0  0  0  0  0  0
    4.3265   -2.5902    4.3297 C   0  0  0  0  0  0  0  0  0  0  0  0
    5.3038   -3.4554    4.9466 C   0  0  0  0  0  0  0  0  0  0  0  0
    5.9065   -3.1981    6.1257 C   0  0  0  0  0  0  0  0  0  0  0  0
    6.9857   -4.1123    6.6641 C   0  0  0  0  0  0  0  0  0  0  0  0
    8.2187   -3.3316    7.1572 C   0  0  2  0  0  0  0  0  0  0  0  0
    7.7997   -2.3082    8.1932 C   0  0  0  0  0  0  0  0  0  0  0  0
    6.8135   -1.2942    7.6571 C   0  0  1  0  0  0  0  0  0  0  0  0
    5.6012   -1.9920    7.0093 C   0  0  0  0  0  0  0  0  0  0  0  0
    8.2163   -2.3560    9.4555 C   0  0  0  0  0  0  0  0  0  0  0  0
    6.3197   -0.4534    8.7044 O   0  0  0  0  0  0  0  0  0  0  0  0
    8.9439   -4.0340    7.5818 H   0  0  0  0  0  0  0  0  0  0  0  0
    7.3322   -0.6343    6.9501 H   0  0  0  0  0  0  0  0  0  0  0  0
    8.8742   -2.6618    6.0824 O   0  0  0  0  0  0  0  0  0  0  0  0
    3.3408    0.4318    4.3944 H   0  0  0  0  0  0  0  0  0  0  0  0
    2.8856    2.1194    2.5174 H   0  0  0  0  0  0  0  0  0  0  0  0
    2.8554    1.7060    0.4309 C   0  0  2  0  0  0  0  0  0  0  0  0
    1.9880    0.8681   -0.5321 C   0  0  0  0  0  0  0  0  0  0  0  0
    2.0977   -0.6506   -0.4742 C   0  0  0  0  0  0  0  0  0  0  0  0
    4.2450    2.0493   -0.1486 C   0  0  0  0  0  0  0  0  0  0  0  0
    4.4981   -0.8068    1.3500 C   0  0  0  0  0  0  0  0  0  0  0  0
    2.3619    2.6912    0.4633 H   0  0  0  0  0  0  0  0  0  0  0  0
    5.0005    1.9436    3.4760 H   0  0  0  0  0  0  0  0  0  0  0  0
    5.7336    1.7397    1.8979 H   0  0  0  0  0  0  0  0  0  0  0  0
    7.1928    0.9646    3.7283 H   0  0  0  0  0  0  0  0  0  0  0  0
    6.8802   -0.2873    2.5545 H   0  0  0  0  0  0  0  0  0  0  0  0
    5.6219    0.1765    5.2405 H   0  0  0  0  0  0  0  0  0  0  0  0
    6.6384   -1.1925    4.7230 H   0  0  0  0  0  0  0  0  0  0  0  0
    2.0692   -1.6612    2.5942 H   0  0  0  0  0  0  0  0  0  0  0  0
    1.4292   -0.9606    4.0668 H   0  0  0  0  0  0  0  0  0  0  0  0
    0.8601    0.1529    1.6413 H   0  0  0  0  0  0  0  0  0  0  0  0
    0.9841    1.1191    3.0593 H   0  0  0  0  0  0  0  0  0  0  0  0
    3.3980   -3.0734    4.0307 H   0  0  0  0  0  0  0  0  0  0  0  0
    5.5172   -4.3751    4.4023 H   0  0  0  0  0  0  0  0  0  0  0  0
    6.5579   -4.6818    7.4970 H   0  0  0  0  0  0  0  0  0  0  0  0
    7.2998   -4.8283    5.8948 H   0  0  0  0  0  0  0  0  0  0  0  0
    5.0523   -1.2048    6.5048 H   0  0  0  0  0  0  0  0  0  0  0  0
    4.8629   -2.2910    7.7578 H   0  0  0  0  0  0  0  0  0  0  0  0
    7.8951   -1.6167   10.1898 H   0  0  0  0  0  0  0  0  0  0  0  0
    8.8971   -3.1292    9.8065 H   0  0  0  0  0  0  0  0  0  0  0  0
    5.7139   -1.0012    9.2307 H   0  0  0  0  0  0  0  0  0  0  0  0
    9.1004   -3.3307    5.4147 H   0  0  0  0  0  0  0  0  0  0  0  0
    0.9430    1.1353   -0.3289 H   0  0  0  0  0  0  0  0  0  0  0  0
    2.1799    1.1808   -1.5620 H   0  0  0  0  0  0  0  0  0  0  0  0
    2.0092   -1.0561    0.5283 H   0  0  0  0  0  0  0  0  0  0  0  0
    1.2809   -1.1242   -1.0202 H   0  0  0  0  0  0  0  0  0  0  0  0
    3.0410   -1.0017   -0.8923 H   0  0  0  0  0  0  0  0  0  0  0  0
    4.1722    2.4483   -1.1621 H   0  0  0  0  0  0  0  0  0  0  0  0
    4.7434    2.8106    0.4610 H   0  0  0  0  0  0  0  0  0  0  0  0
    4.9363    1.2144   -0.2280 H   0  0  0  0  0  0  0  0  0  0  0  0
    3.7756   -1.6206    1.3081 H   0  0  0  0  0  0  0  0  0  0  0  0
    4.6853   -0.4910    0.3326 H   0  0  0  0  0  0  0  0  0  0  0  0
    5.4237   -1.3047    1.6417 H   0  0  0  0  0  0  0  0  0  0  0  0
  1  2  1  0  0  0  0
  1  6  1  0  0  0  0
  1 31  1  0  0  0  0
  1 32  1  0  0  0  0
  2  3  1  0  0  0  0
  2 33  1  0  0  0  0
  2 34  1  0  0  0  0
  3  4  1  0  0  0  0
  3 35  1  0  0  0  0
  3 36  1  0  0  0  0
  4  5  1  0  0  0  0
  4 10  2  0  0  0  0
  5  8  1  0  0  0  0
  5 23  1  1  0  0  0
  6  5  1  0  0  0  0
  6 29  1  6  0  0  0
  7  6  1  0  0  0  0
  7  9  1  0  0  0  0
  7 24  1  1  0  0  0
  8  9  1  0  0  0  0
  8 37  1  0  0  0  0
  8 38  1  0  0  0  0
  9 39  1  0  0  0  0
  9 40  1  0  0  0  0
 10 11  1  0  0  0  0
 10 41  1  0  0  0  0
 11 12  2  0  0  0  0
 11 42  1  0  0  0  0
 12 13  1  0  0  0  0
 12 17  1  0  0  0  0
 13 14  1  0  0  0  0
 13 43  1  0  0  0  0
 13 44  1  0  0  0  0
 14 15  1  0  0  0  0
 14 20  1  1  0  0  0
 14 22  1  0  0  0  0
 15 16  1  0  0  0  0
 15 18  2  0  0  0  0
 16 17  1  0  0  0  0
 16 19  1  0  0  0  0
 16 21  1  6  0  0  0
 17 45  1  0  0  0  0
 17 46  1  0  0  0  0
 18 47  1  0  0  0  0
 18 48  1  0  0  0  0
 19 49  1  0  0  0  0
 22 50  1  0  0  0  0
 25 28  1  0  0  0  0
 25 30  1  1  0  0  0
 25 26  1  0  0  0  0
 25  7  1  0  0  0  0
 26 27  1  0  0  0  0
 26 51  1  0  0  0  0
 26 52  1  0  0  0  0
 27 53  1  0  0  0  0
 27 54  1  0  0  0  0
 27 55  1  0  0  0  0
 28 56  1  0  0  0  0
 28 57  1  0  0  0  0
 28 58  1  0  0  0  0
 29 59  1  0  0  0  0
 29 60  1  0  0  0  0
 29 61  1  0  0  0  0
M  END
>  <DRUGBANK_ID>
DB04891

>  <COMMON_NAME>
Becocalcidiol

>  <CAS_NUMBER>
524067-21-8

>  <UNII>
N75R59YD0F

>  <SYNONYMS>
Becocalcidiol

$$$$
