
 OpenBabel10282417113D

 45 49  0  0  0  0  0  0  0  0999 V2000
    1.8687    4.7878   -2.1319 C   0  0  1  0  0  0  0  0  0  0  0  0
    2.0415    3.5316   -3.2866 C   0  0  0  0  0  0  0  0  0  0  0  0
    1.8444    2.3374   -2.6453 C   0  0  0  0  0  0  0  0  0  0  0  0
    0.7352    4.2073   -1.3955 C   0  0  1  0  0  0  0  0  0  0  0  0
    2.2766    6.6659   -2.5367 C   0  0  2  0  0  0  0  0  0  0  0  0
    1.2208    2.6334   -1.3825 O   0  0  0  0  0  0  0  0  0  0  0  0
    3.1035    6.6332   -4.1906 C   0  0  1  0  0  0  0  0  0  0  0  0
    2.7223    3.6881   -4.6194 C   0  0  0  0  0  0  0  0  0  0  0  0
    3.3672    5.1798   -5.1343 C   0  0  0  0  0  0  0  0  0  0  0  0
    2.0993    5.7485   -3.9612 N   0  0  0  0  0  0  0  0  0  0  0  0
    3.1317    4.6787   -1.3983 C   0  0  0  0  0  0  0  0  0  0  0  0
    1.2890    7.4954   -1.8386 C   0  0  0  0  0  0  0  0  0  0  0  0
    2.4088    1.2100   -3.3516 C   0  0  0  0  0  0  0  0  0  0  0  0
    0.7939    5.1959   -0.1571 C   0  0  2  0  0  0  0  0  0  0  0  0
    3.6138    5.1515   -2.7394 C   0  0  0  0  0  0  0  0  0  0  0  0
    3.0971    2.6037   -5.3427 C   0  0  0  0  0  0  0  0  0  0  0  0
    1.0387    6.8106   -0.4732 C   0  0  0  0  0  0  0  0  0  0  0  0
    2.9882    1.3933   -4.6892 C   0  0  0  0  0  0  0  0  0  0  0  0
   -0.1743    5.1192    0.8822 O   0  0  0  0  0  0  0  0  0  0  0  0
    2.4726   -0.0876   -2.8465 O   0  0  0  0  0  0  0  0  0  0  0  0
    0.7783    6.6407   -4.3637 C   0  0  0  0  0  0  0  0  0  0  0  0
    2.7020   -1.1098   -3.8570 C   0  0  0  0  0  0  0  0  0  0  0  0
    3.1501    7.0883   -1.9943 H   0  0  0  0  0  0  0  0  0  0  0  0
   -0.2719    4.1407   -1.8294 H   0  0  0  0  0  0  0  0  0  0  0  0
    2.9760    7.5113   -4.7969 H   0  0  0  0  0  0  0  0  0  0  0  0
    3.0417    5.2953   -6.1737 H   0  0  0  0  0  0  0  0  0  0  0  0
    4.4440    4.9903   -5.0921 H   0  0  0  0  0  0  0  0  0  0  0  0
    3.2636    5.4069   -0.5821 H   0  0  0  0  0  0  0  0  0  0  0  0
    3.3130    3.6880   -0.9492 H   0  0  0  0  0  0  0  0  0  0  0  0
    1.4637    8.5730   -1.6900 H   0  0  0  0  0  0  0  0  0  0  0  0
    0.5294    7.7093   -2.5354 H   0  0  0  0  0  0  0  0  0  0  0  0
    1.6361    4.7778    0.3944 H   0  0  0  0  0  0  0  0  0  0  0  0
    4.3428    5.9492   -2.5326 H   0  0  0  0  0  0  0  0  0  0  0  0
    4.2804    4.4155   -3.1587 H   0  0  0  0  0  0  0  0  0  0  0  0
    3.5443    2.7056   -6.3243 H   0  0  0  0  0  0  0  0  0  0  0  0
    0.2814    7.4270    0.0015 H   0  0  0  0  0  0  0  0  0  0  0  0
    1.9691    7.0392    0.0750 H   0  0  0  0  0  0  0  0  0  0  0  0
    3.3993    0.5837   -5.2903 H   0  0  0  0  0  0  0  0  0  0  0  0
   -0.8697    5.7731    0.7216 H   0  0  0  0  0  0  0  0  0  0  0  0
    1.0557    7.6571   -4.7378 H   0  0  0  0  0  0  0  0  0  0  0  0
    0.1687    6.2401   -5.1973 H   0  0  0  0  0  0  0  0  0  0  0  0
   -0.0933    6.7691   -3.6867 H   0  0  0  0  0  0  0  0  0  0  0  0
    1.9469   -1.0290   -4.6526 H   0  0  0  0  0  0  0  0  0  0  0  0
    3.7148   -1.0665   -4.2945 H   0  0  0  0  0  0  0  0  0  0  0  0
    2.6187   -2.1101   -3.4266 H   0  0  0  0  0  0  0  0  0  0  0  0
  1  2  1  1  0  0  0
  1 11  1  0  0  0  0
  3  2  2  0  0  0  0
  4  1  1  0  0  0  0
  4 24  1  6  0  0  0
  5  1  1  0  0  0  0
  5 23  1  6  0  0  0
  6  4  1  0  0  0  0
  6  3  1  0  0  0  0
  7  5  1  0  0  0  0
  7  9  1  0  0  0  0
  7 10  1  0  0  0  0
  7 25  1  6  0  0  0
  8  2  1  0  0  0  0
  9  8  1  0  0  0  0
  9 26  1  0  0  0  0
  9 27  1  0  0  0  0
 10 15  1  0  0  0  0
 11 28  1  0  0  0  0
 11 29  1  0  0  0  0
 12  5  1  0  0  0  0
 12 30  1  0  0  0  0
 12 31  1  0  0  0  0
 13  3  1  0  0  0  0
 14  4  1  0  0  0  0
 14 19  1  0  0  0  0
 14 32  1  6  0  0  0
 15 11  1  0  0  0  0
 15 33  1  0  0  0  0
 15 34  1  0  0  0  0
 16  8  2  0  0  0  0
 16 18  1  0  0  0  0
 16 35  1  0  0  0  0
 17 12  1  0  0  0  0
 17 14  1  0  0  0  0
 17 36  1  0  0  0  0
 17 37  1  0  0  0  0
 18 13  2  0  0  0  0
 18 38  1  0  0  0  0
 19 39  1  0  0  0  0
 20 13  1  0  0  0  0
 21 40  1  0  0  0  0
 21 41  1  0  0  0  0
 21 42  1  0  0  0  0
 21 10  1  0  0  0  0
 22 20  1  0  0  0  0
 22 43  1  0  0  0  0
 22 44  1  0  0  0  0
 22 45  1  0  0  0  0
M  END
>  <DRUGBANK_ID>
DB01551

>  <COMMON_NAME>
Dihydrocodeine

>  <CAS_NUMBER>
125-28-0

>  <UNII>
N9I9HDB855

>  <SYNONYMS>
DHC; Dihydrocodeine

$$$$
