
 OpenBabel10282417173D

 52 54  0  0  0  0  0  0  0  0999 V2000
   -1.9973   -0.4606    0.1362 Cl  0  0  0  0  0  0  0  0  0  0  0  0
    4.4690    3.5814    0.0609 O   0  0  0  0  0  0  0  0  0  0  0  0
   -3.2512    4.8004    1.8593 O   0  0  0  0  0  0  0  0  0  0  0  0
   -3.4133    2.9107   -2.8125 O   0  0  0  0  0  0  0  0  0  0  0  0
    2.6206    2.2740    0.0626 N   0  0  0  0  0  0  0  0  0  0  0  0
   -0.0316    3.3661    1.2699 N   0  0  0  0  0  0  0  0  0  0  0  0
   -3.1251    3.5356   -0.0257 N   0  0  0  0  0  0  0  0  0  0  0  0
    0.4238    1.1769    0.0185 C   0  0  0  0  0  0  0  0  0  0  0  0
    1.8152    1.0971    0.1336 C   0  0  0  0  0  0  0  0  0  0  0  0
   -0.3084   -0.0733   -0.0091 C   0  0  0  0  0  0  0  0  0  0  0  0
   -0.0218    2.6176    0.0188 C   0  0  0  0  0  0  0  0  0  0  0  0
    2.3574   -0.1537    0.3715 C   0  0  0  0  0  0  0  0  0  0  0  0
    3.9789    2.4431   -0.0149 C   0  0  0  0  0  0  0  0  0  0  0  0
    0.3544   -1.3006   -0.0625 C   0  0  0  0  0  0  0  0  0  0  0  0
    4.8744    1.2912   -0.1941 C   0  0  0  0  0  0  0  0  0  0  0  0
   -2.5260    4.2265    1.0350 C   0  0  0  0  0  0  0  0  0  0  0  0
    1.7012   -1.3394    0.1184 C   0  0  0  0  0  0  0  0  0  0  0  0
   -0.9611    4.5274    1.1126 C   0  0  0  0  0  0  0  0  0  0  0  0
    4.5991    0.3310   -1.1826 C   0  0  0  0  0  0  0  0  0  0  0  0
    5.8846    1.0725    0.7438 C   0  0  0  0  0  0  0  0  0  0  0  0
   -2.8320    2.2322   -0.6019 C   0  0  0  0  0  0  0  0  0  0  0  0
   -4.2701    4.0513   -0.7313 C   0  0  0  0  0  0  0  0  0  0  0  0
   -0.4379    2.5812    2.4336 C   0  0  0  0  0  0  0  0  0  0  0  0
   -2.3107    2.4117   -2.0500 C   0  0  0  0  0  0  0  0  0  0  0  0
   -3.8868    4.1542   -2.2332 C   0  0  0  0  0  0  0  0  0  0  0  0
    5.2159   -0.9169   -1.1173 C   0  0  0  0  0  0  0  0  0  0  0  0
    6.6205   -0.1099    0.6803 C   0  0  0  0  0  0  0  0  0  0  0  0
    6.2445   -1.1265   -0.2029 C   0  0  0  0  0  0  0  0  0  0  0  0
    2.1621    3.1824    0.1000 H   0  0  0  0  0  0  0  0  0  0  0  0
    0.4750    3.1690   -0.7990 H   0  0  0  0  0  0  0  0  0  0  0  0
   -0.9650    2.7754   -0.3510 H   0  0  0  0  0  0  0  0  0  0  0  0
    3.3514   -0.2513    0.7662 H   0  0  0  0  0  0  0  0  0  0  0  0
   -0.1887   -2.2431   -0.1219 H   0  0  0  0  0  0  0  0  0  0  0  0
    2.2378   -2.2773    0.1420 H   0  0  0  0  0  0  0  0  0  0  0  0
   -0.7844    5.1958    1.9722 H   0  0  0  0  0  0  0  0  0  0  0  0
   -0.6752    5.1293    0.2381 H   0  0  0  0  0  0  0  0  0  0  0  0
    3.7595    0.4743   -1.8610 H   0  0  0  0  0  0  0  0  0  0  0  0
    6.0659    1.7915    1.5407 H   0  0  0  0  0  0  0  0  0  0  0  0
   -3.7323    1.6091   -0.6243 H   0  0  0  0  0  0  0  0  0  0  0  0
   -2.2090    1.7529    0.1231 H   0  0  0  0  0  0  0  0  0  0  0  0
   -5.0685    3.3089   -0.6003 H   0  0  0  0  0  0  0  0  0  0  0  0
   -4.5845    5.0053   -0.3166 H   0  0  0  0  0  0  0  0  0  0  0  0
   -1.4941    2.3042    2.3936 H   0  0  0  0  0  0  0  0  0  0  0  0
    0.1422    1.6590    2.5302 H   0  0  0  0  0  0  0  0  0  0  0  0
   -0.2561    3.1490    3.3517 H   0  0  0  0  0  0  0  0  0  0  0  0
   -1.4997    3.1507   -2.1546 H   0  0  0  0  0  0  0  0  0  0  0  0
   -1.9258    1.4795   -2.4831 H   0  0  0  0  0  0  0  0  0  0  0  0
   -4.7555    4.4483   -2.8170 H   0  0  0  0  0  0  0  0  0  0  0  0
   -3.0894    4.8957   -2.3620 H   0  0  0  0  0  0  0  0  0  0  0  0
    4.8506   -1.7325   -1.7369 H   0  0  0  0  0  0  0  0  0  0  0  0
    7.4708   -0.2543    1.3402 H   0  0  0  0  0  0  0  0  0  0  0  0
    6.7471   -2.0895   -0.1690 H   0  0  0  0  0  0  0  0  0  0  0  0
  1 10  1  0  0  0  0
  2 13  2  0  0  0  0
  3 16  2  0  0  0  0
  4 24  1  0  0  0  0
  4 25  1  0  0  0  0
  5  9  1  0  0  0  0
  5 13  1  0  0  0  0
  5 29  1  0  0  0  0
  6 11  1  0  0  0  0
  6 18  1  0  0  0  0
  6 23  1  0  0  0  0
  7 16  1  0  0  0  0
  7 21  1  0  0  0  0
  7 22  1  0  0  0  0
  8  9  1  0  0  0  0
  8 10  2  0  0  0  0
  8 11  1  0  0  0  0
  9 12  2  0  0  0  0
 10 14  1  0  0  0  0
 11 30  1  0  0  0  0
 11 31  1  0  0  0  0
 12 17  1  0  0  0  0
 12 32  1  0  0  0  0
 13 15  1  0  0  0  0
 14 17  2  0  0  0  0
 14 33  1  0  0  0  0
 15 19  2  0  0  0  0
 15 20  1  0  0  0  0
 16 18  1  0  0  0  0
 17 34  1  0  0  0  0
 18 35  1  0  0  0  0
 18 36  1  0  0  0  0
 19 26  1  0  0  0  0
 19 37  1  0  0  0  0
 20 27  2  0  0  0  0
 20 38  1  0  0  0  0
 21 24  1  0  0  0  0
 21 39  1  0  0  0  0
 21 40  1  0  0  0  0
 22 25  1  0  0  0  0
 22 41  1  0  0  0  0
 22 42  1  0  0  0  0
 23 43  1  0  0  0  0
 23 44  1  0  0  0  0
 23 45  1  0  0  0  0
 24 46  1  0  0  0  0
 24 47  1  0  0  0  0
 25 48  1  0  0  0  0
 25 49  1  0  0  0  0
 26 28  2  0  0  0  0
 26 50  1  0  0  0  0
 27 28  1  0  0  0  0
 27 51  1  0  0  0  0
 28 52  1  0  0  0  0
M  END
>  <DRUGBANK_ID>
DB08968

>  <COMMON_NAME>
Fominoben

>  <CAS_NUMBER>
18053-31-1

>  <UNII>
TJ2KK6NYJS

>  <SYNONYMS>
Fominoben; Fominobene; Fominobenum

$$$$
