92G
 OpenBabel10282417163D

 21 22  0  0  0  0  0  0  0  0999 V2000
    2.2507    0.0040    0.0004 O   0  0  0  0  0  0  0  0  0  0  0  0
   -1.2263   -1.1874    0.0228 C   0  0  0  0  0  0  0  0  0  0  0  0
    0.1746   -1.2197    0.0198 C   0  0  0  0  0  0  0  0  0  0  0  0
    0.8873   -0.0237    0.0108 C   0  0  0  0  0  0  0  0  0  0  0  0
   -1.1707    1.2301    0.0041 C   0  0  0  0  0  0  0  0  0  0  0  0
    0.2251    1.1978    0.0110 C   0  0  0  0  0  0  0  0  0  0  0  0
   -1.9068    0.0372    0.0037 C   0  0  0  0  0  0  0  0  0  0  0  0
   -3.3590    0.0742   -0.0364 C   0  0  0  0  0  0  0  0  0  0  0  0
   -5.4108   -0.3070    0.6813 C   0  0  0  0  0  0  0  0  0  0  0  0
   -4.0564    0.6910   -1.0558 C   0  0  0  0  0  0  0  0  0  0  0  0
   -5.7377    0.5662   -0.7629 S   0  0  0  0  0  0  0  0  0  0  0  0
   -4.1432   -0.5148    0.9415 N   0  0  0  0  0  0  0  0  0  0  0  0
   -6.4106   -0.7352    1.4614 N   0  0  0  0  0  0  0  0  0  0  0  0
    2.5865   -0.9067   -0.0126 H   0  0  0  0  0  0  0  0  0  0  0  0
   -1.7866   -2.1202    0.0271 H   0  0  0  0  0  0  0  0  0  0  0  0
    0.6835   -2.1785    0.0242 H   0  0  0  0  0  0  0  0  0  0  0  0
   -1.6767    2.1923    0.0096 H   0  0  0  0  0  0  0  0  0  0  0  0
    0.7940    2.1231    0.0172 H   0  0  0  0  0  0  0  0  0  0  0  0
   -3.6717    1.1916   -1.9325 H   0  0  0  0  0  0  0  0  0  0  0  0
   -7.3799   -0.5660    1.2331 H   0  0  0  0  0  0  0  0  0  0  0  0
   -6.2046   -1.2383    2.3138 H   0  0  0  0  0  0  0  0  0  0  0  0
  1  4  1  0  0  0  0
  1 14  1  0  0  0  0
  2  7  1  0  0  0  0
  2 15  1  0  0  0  0
  3  2  2  0  0  0  0
  3  4  1  0  0  0  0
  3 16  1  0  0  0  0
  4  6  2  0  0  0  0
  5 17  1  0  0  0  0
  6  5  1  0  0  0  0
  6 18  1  0  0  0  0
  7  5  2  0  0  0  0
  7  8  1  0  0  0  0
  8 12  1  0  0  0  0
  9 13  1  0  0  0  0
 10  8  2  0  0  0  0
 10 11  1  0  0  0  0
 10 19  1  0  0  0  0
 11  9  1  0  0  0  0
 12  9  2  0  0  0  0
 13 20  1  0  0  0  0
 13 21  1  0  0  0  0
M  END
>  <DRUGBANK_ID>
DB07292

>  <COMMON_NAME>
4-(2-amino-1,3-thiazol-4-yl)phenol

>  <UNII>
MLP0GI2196

$$$$
