Lupeol
 OpenBabel10282417193D

 81 85  0  0  1  0  0  0  0  0999 V2000
    1.9512    0.9405    0.6946 C   0  0  1  0  0  0  0  0  0  0  0  0
    1.4279   -0.3269   -0.0177 C   0  0  1  0  0  0  0  0  0  0  0  0
   -1.4787   -1.1060   -0.5910 C   0  0  2  0  0  0  0  0  0  0  0  0
    0.4149    2.3278    0.7347 C   0  0  1  0  0  0  0  0  0  0  0  0
   -0.7125    0.1011   -0.1125 C   0  0  1  0  0  0  0  0  0  0  0  0
   -0.0958   -2.5201   -0.2961 C   0  0  2  0  0  0  0  0  0  0  0  0
    0.4558    3.5225   -0.5132 C   0  0  1  0  0  0  0  0  0  0  0  0
   -0.7979   -3.6877   -0.6022 C   0  0  0  0  0  0  0  0  0  0  0  0
   -0.2523    3.1459   -2.3156 C   0  0  2  0  0  0  0  0  0  0  0  0
    1.7150    2.9514   -0.8387 C   0  0  1  0  0  0  0  0  0  0  0  0
    1.9427   -1.7234    0.6004 C   0  0  0  0  0  0  0  0  0  0  0  0
    3.1788    1.6670   -0.2090 C   0  0  0  0  0  0  0  0  0  0  0  0
   -1.2262    2.3416    1.0783 C   0  0  0  0  0  0  0  0  0  0  0  0
   -3.0535   -1.5005    0.2960 C   0  0  0  0  0  0  0  0  0  0  0  0
   -1.9421    1.6144   -0.0522 C   0  0  0  0  0  0  0  0  0  0  0  0
    1.3388   -2.4539   -0.5544 C   0  0  0  0  0  0  0  0  0  0  0  0
   -1.3727    3.0702   -3.4972 C   0  0  0  0  0  0  0  0  0  0  0  0
   -0.1964    1.7178   -2.2401 C   0  0  0  0  0  0  0  0  0  0  0  0
   -1.5730   -3.0266    0.6399 C   0  0  2  0  0  0  0  0  0  0  0  0
    2.6302    2.8501    0.3971 C   0  0  0  0  0  0  0  0  0  0  0  0
    1.0736    1.6056   -1.5836 C   0  0  0  0  0  0  0  0  0  0  0  0
   -2.8446   -2.8581   -0.1004 C   0  0  0  0  0  0  0  0  0  0  0  0
   -1.5686    4.2307   -4.1133 C   0  0  0  0  0  0  0  0  0  0  0  0
    3.6357    0.3348    1.4437 C   0  0  0  0  0  0  0  0  0  0  0  0
    3.0246   -0.7709   -1.0549 C   0  0  0  0  0  0  0  0  0  0  0  0
   -2.6638   -0.3592   -1.6771 C   0  0  0  0  0  0  0  0  0  0  0  0
   -0.7806   -1.8231    1.5185 O   0  0  0  0  0  0  0  0  0  0  0  0
   -1.9822    1.8119   -4.2906 C   0  0  0  0  0  0  0  0  0  0  0  0
   -1.2635    0.1105    0.8005 H   0  0  0  0  0  0  0  0  0  0  0  0
    0.2480    4.2638    0.3185 H   0  0  0  0  0  0  0  0  0  0  0  0
    0.2986   -3.0613    0.6943 H   0  0  0  0  0  0  0  0  0  0  0  0
   -0.2766    2.4595   -0.1226 H   0  0  0  0  0  0  0  0  0  0  0  0
   -0.5148   -3.4228   -2.1074 C   0  0  0  0  0  0  0  0  0  0  0  0
   -0.9948   -5.1186   -0.2492 C   0  0  0  0  0  0  0  0  0  0  0  0
    2.3299    3.8354   -1.8047 C   0  0  0  0  0  0  0  0  0  0  0  0
    0.5494    3.3117   -3.0311 H   0  0  0  0  0  0  0  0  0  0  0  0
    2.9882   -2.2330    0.5561 H   0  0  0  0  0  0  0  0  0  0  0  0
    1.9380   -1.6654    1.6925 H   0  0  0  0  0  0  0  0  0  0  0  0
    4.2627    1.8921   -0.1547 H   0  0  0  0  0  0  0  0  0  0  0  0
    3.1479    1.4584   -1.2906 H   0  0  0  0  0  0  0  0  0  0  0  0
   -1.7911    3.3065    1.2421 H   0  0  0  0  0  0  0  0  0  0  0  0
   -1.4199    1.6711    1.8652 H   0  0  0  0  0  0  0  0  0  0  0  0
   -4.0969   -1.3785   -0.0969 H   0  0  0  0  0  0  0  0  0  0  0  0
   -3.1327   -1.4236    1.3892 H   0  0  0  0  0  0  0  0  0  0  0  0
   -2.4204    2.1788   -1.0237 H   0  0  0  0  0  0  0  0  0  0  0  0
   -3.0826    1.8349    0.2446 H   0  0  0  0  0  0  0  0  0  0  0  0
    1.2539   -1.7751   -1.3710 H   0  0  0  0  0  0  0  0  0  0  0  0
    1.9641   -3.1960   -1.0877 H   0  0  0  0  0  0  0  0  0  0  0  0
   -0.6327    0.7792   -2.5933 H   0  0  0  0  0  0  0  0  0  0  0  0
   -1.0137    1.8808   -1.6261 H   0  0  0  0  0  0  0  0  0  0  0  0
   -1.6404   -3.4817    1.6034 H   0  0  0  0  0  0  0  0  0  0  0  0
    3.2641    3.6694    0.6599 H   0  0  0  0  0  0  0  0  0  0  0  0
    2.3079    2.6215    1.4820 H   0  0  0  0  0  0  0  0  0  0  0  0
    1.6002    0.7840   -2.0173 H   0  0  0  0  0  0  0  0  0  0  0  0
    0.6237    1.1657   -0.7783 H   0  0  0  0  0  0  0  0  0  0  0  0
   -2.8092   -2.8108   -1.2212 H   0  0  0  0  0  0  0  0  0  0  0  0
   -3.4586   -3.7127    0.1025 H   0  0  0  0  0  0  0  0  0  0  0  0
   -2.2747    4.3194   -4.9239 H   0  0  0  0  0  0  0  0  0  0  0  0
   -0.9693    5.0574   -3.7744 H   0  0  0  0  0  0  0  0  0  0  0  0
    4.6388    0.3864    0.8118 H   0  0  0  0  0  0  0  0  0  0  0  0
    3.9936    0.7989    2.3542 H   0  0  0  0  0  0  0  0  0  0  0  0
    3.7956   -0.7583    1.5916 H   0  0  0  0  0  0  0  0  0  0  0  0
    3.2406   -1.7922   -1.5512 H   0  0  0  0  0  0  0  0  0  0  0  0
    3.6897   -0.1357   -1.7104 H   0  0  0  0  0  0  0  0  0  0  0  0
    3.9580   -1.0090   -0.3893 H   0  0  0  0  0  0  0  0  0  0  0  0
   -3.6743    0.1510   -1.3571 H   0  0  0  0  0  0  0  0  0  0  0  0
   -2.2785    0.6111   -1.7398 H   0  0  0  0  0  0  0  0  0  0  0  0
   -2.6169   -0.5244   -2.7332 H   0  0  0  0  0  0  0  0  0  0  0  0
   -1.3246   -1.0609    1.6962 H   0  0  0  0  0  0  0  0  0  0  0  0
   -1.3176    1.1399   -4.8795 H   0  0  0  0  0  0  0  0  0  0  0  0
   -2.5481    1.1822   -3.6246 H   0  0  0  0  0  0  0  0  0  0  0  0
   -2.7594    2.1166   -5.0080 H   0  0  0  0  0  0  0  0  0  0  0  0
    0.3076   -4.0703   -2.4641 H   0  0  0  0  0  0  0  0  0  0  0  0
   -1.4160   -3.4494   -2.6785 H   0  0  0  0  0  0  0  0  0  0  0  0
   -0.1193   -2.4115   -2.3691 H   0  0  0  0  0  0  0  0  0  0  0  0
   -1.0647   -5.2793    0.8360 H   0  0  0  0  0  0  0  0  0  0  0  0
   -1.9934   -5.3313   -0.6568 H   0  0  0  0  0  0  0  0  0  0  0  0
   -0.2778   -5.8103   -0.6699 H   0  0  0  0  0  0  0  0  0  0  0  0
    2.8319    4.5854   -1.2243 H   0  0  0  0  0  0  0  0  0  0  0  0
    2.8559    3.1507   -2.4594 H   0  0  0  0  0  0  0  0  0  0  0  0
    1.5811    4.4202   -2.3102 H   0  0  0  0  0  0  0  0  0  0  0  0
  1 24  1  6  0  0  0
  2  1  1  0  0  0  0
  2 25  1  1  0  0  0
  3 26  1  1  0  0  0
  4  1  1  0  0  0  0
  4 32  1  1  0  0  0
  5  2  1  0  0  0  0
  5  3  1  0  0  0  0
  5 29  1  6  0  0  0
  6  3  1  0  0  0  0
  6 31  1  6  0  0  0
  7  4  1  0  0  0  0
  7 30  1  6  0  0  0
  8  6  1  0  0  0  0
  9  7  1  0  0  0  0
  9 17  1  0  0  0  0
  9 36  1  6  0  0  0
 10  7  1  0  0  0  0
 10 35  1  6  0  0  0
 11  2  1  0  0  0  0
 11 37  1  0  0  0  0
 11 38  1  0  0  0  0
 12  1  1  0  0  0  0
 12 39  1  0  0  0  0
 12 40  1  0  0  0  0
 13  4  1  0  0  0  0
 13 41  1  0  0  0  0
 13 42  1  0  0  0  0
 14  3  1  0  0  0  0
 14 43  1  0  0  0  0
 14 44  1  0  0  0  0
 15  5  1  0  0  0  0
 15 13  1  0  0  0  0
 15 45  1  0  0  0  0
 15 46  1  0  0  0  0
 16  6  1  0  0  0  0
 16 11  1  0  0  0  0
 16 47  1  0  0  0  0
 16 48  1  0  0  0  0
 18  9  1  0  0  0  0
 18 49  1  0  0  0  0
 18 50  1  0  0  0  0
 19  8  1  0  0  0  0
 19 51  1  1  0  0  0
 19 27  1  0  0  0  0
 20 10  1  0  0  0  0
 20 12  1  0  0  0  0
 20 52  1  0  0  0  0
 20 53  1  0  0  0  0
 21 10  1  0  0  0  0
 21 18  1  0  0  0  0
 21 54  1  0  0  0  0
 21 55  1  0  0  0  0
 22 14  1  0  0  0  0
 22 19  1  0  0  0  0
 22 56  1  0  0  0  0
 22 57  1  0  0  0  0
 23 17  2  0  0  0  0
 23 58  1  0  0  0  0
 23 59  1  0  0  0  0
 24 60  1  0  0  0  0
 24 61  1  0  0  0  0
 24 62  1  0  0  0  0
 25 63  1  0  0  0  0
 25 64  1  0  0  0  0
 25 65  1  0  0  0  0
 26 66  1  0  0  0  0
 26 67  1  0  0  0  0
 26 68  1  0  0  0  0
 27 69  1  0  0  0  0
 28 17  1  0  0  0  0
 28 70  1  0  0  0  0
 28 71  1  0  0  0  0
 28 72  1  0  0  0  0
 33  8  1  0  0  0  0
 33 73  1  0  0  0  0
 33 74  1  0  0  0  0
 33 75  1  0  0  0  0
 34  8  1  0  0  0  0
 34 76  1  0  0  0  0
 34 77  1  0  0  0  0
 34 78  1  0  0  0  0
 35 79  1  0  0  0  0
 35 80  1  0  0  0  0
 35 81  1  0  0  0  0
M  END
>  <DRUGBANK_ID>
DB12622

>  <COMMON_NAME>
Lupeol

>  <CAS_NUMBER>
545-47-1

>  <UNII>
O268W13H3O

$$$$
