
 OpenBabel10282417223D

  2  1  0  0  0  0  0  0  0  0999 V2000
    0.9519   -0.0698    0.0531 Cl  0  0  0  0  0  0  0  0  0  0  0  0
    3.2919   -0.0698    0.0531 Cu  0  0  0  0  0  0  0  0  0  0  0  0
  1  2  1  0  0  0  0
M  END
>  <DRUGBANK_ID>
DB15535

>  <COMMON_NAME>
Cuprous chloride

>  <CAS_NUMBER>
7758-89-6

>  <UNII>
C955P95064

>  <SYNONYMS>
Copper monochloride; Copper(1+) chloride; Dicopper dichloride

$$$$
