3783
 OpenBabel10282417133D

 26 26  0  0  0  0  0  0  0  0999 V2000
    1.0051    0.0240   -0.0521 O   0  0  0  0  0  0  0  0  0  0  0  0
   -3.4924   -4.4087    4.4007 O   0  0  0  0  0  0  0  0  0  0  0  0
   -2.0013   -2.8824    3.6569 N   0  0  0  0  0  0  0  0  0  0  0  0
   -1.2435   -2.1097    2.7429 C   0  0  0  0  0  0  0  0  0  0  0  0
    0.3965   -0.7048    0.9218 C   0  0  0  0  0  0  0  0  0  0  0  0
   -0.1708   -1.3339    3.2045 C   0  0  0  0  0  0  0  0  0  0  0  0
   -1.4859   -2.0967    1.3726 C   0  0  0  0  0  0  0  0  0  0  0  0
    0.6382   -0.6180    2.2928 C   0  0  0  0  0  0  0  0  0  0  0  0
   -0.6524   -1.4675    0.4670 C   0  0  0  0  0  0  0  0  0  0  0  0
    2.4230   -0.0319   -0.0394 C   0  0  0  0  0  0  0  0  0  0  0  0
    2.9040    0.7491   -1.2498 C   0  0  0  0  0  0  0  0  0  0  0  0
   -3.0261   -3.7746    3.4440 C   0  0  0  0  0  0  0  0  0  0  0  0
   -3.5854   -3.9868    2.0667 C   0  0  0  0  0  0  0  0  0  0  0  0
   -1.7202   -2.8589    4.6326 H   0  0  0  0  0  0  0  0  0  0  0  0
    0.0449   -1.2471    4.2683 H   0  0  0  0  0  0  0  0  0  0  0  0
   -2.3339   -2.5404    0.8927 H   0  0  0  0  0  0  0  0  0  0  0  0
    1.4289    0.0220    2.6712 H   0  0  0  0  0  0  0  0  0  0  0  0
   -0.8593   -1.5689   -0.5938 H   0  0  0  0  0  0  0  0  0  0  0  0
    2.8109    0.4320    0.8705 H   0  0  0  0  0  0  0  0  0  0  0  0
    2.7649   -1.0712   -0.1109 H   0  0  0  0  0  0  0  0  0  0  0  0
    2.5299    1.7785   -1.2160 H   0  0  0  0  0  0  0  0  0  0  0  0
    3.9952    0.7678   -1.2888 H   0  0  0  0  0  0  0  0  0  0  0  0
    2.5223    0.3088   -2.1784 H   0  0  0  0  0  0  0  0  0  0  0  0
   -4.0243   -3.0470    1.7135 H   0  0  0  0  0  0  0  0  0  0  0  0
   -2.7986   -4.3732    1.4092 H   0  0  0  0  0  0  0  0  0  0  0  0
   -4.3854   -4.7263    2.0533 H   0  0  0  0  0  0  0  0  0  0  0  0
  1  5  1  0  0  0  0
  1 10  1  0  0  0  0
  2 12  2  0  0  0  0
  3  4  1  0  0  0  0
  3 12  1  0  0  0  0
  3 14  1  0  0  0  0
  4  6  2  0  0  0  0
  4  7  1  0  0  0  0
  5  8  2  0  0  0  0
  5  9  1  0  0  0  0
  6  8  1  0  0  0  0
  6 15  1  0  0  0  0
  7  9  2  0  0  0  0
  7 16  1  0  0  0  0
  8 17  1  0  0  0  0
  9 18  1  0  0  0  0
 10 11  1  0  0  0  0
 10 19  1  0  0  0  0
 10 20  1  0  0  0  0
 11 21  1  0  0  0  0
 11 22  1  0  0  0  0
 11 23  1  0  0  0  0
 12 13  1  0  0  0  0
 13 24  1  0  0  0  0
 13 25  1  0  0  0  0
 13 26  1  0  0  0  0
M  END
>  <DRUGBANK_ID>
DB03783

>  <SECONDARY_ACCESSION_NUMBERS>
EXPT03306; DB08243

>  <COMMON_NAME>
Phenacetin

>  <CAS_NUMBER>
62-44-2

>  <UNII>
ER0CTH01H9

>  <SYNONYMS>
Acetophenetidin; Acetophenetidine; Acetophenetin; Acetphenetidin; Fenacetina; Phenacetin

$$$$
