
 OpenBabel10282417183D

 56 59  0  0  0  0  0  0  0  0999 V2000
    2.9027    2.6485    0.2298 C   0  0  0  0  0  0  0  0  0  0  0  0
    2.3290    2.9100   -1.0220 C   0  0  0  0  0  0  0  0  0  0  0  0
    2.8682    3.8888   -1.8564 C   0  0  0  0  0  0  0  0  0  0  0  0
    4.0053    4.5829   -1.4572 C   0  0  0  0  0  0  0  0  0  0  0  0
    4.5247    4.4246   -0.1568 C   0  0  0  0  0  0  0  0  0  0  0  0
    3.9213    3.4736    0.6984 C   0  0  0  0  0  0  0  0  0  0  0  0
    5.6447    5.3420    0.3892 C   0  0  1  0  0  0  0  0  0  0  0  0
    6.7873    4.3652    0.6181 C   0  0  0  0  0  0  0  0  0  0  0  0
    6.0256    6.6843   -0.3812 C   0  0  0  0  0  0  0  0  0  0  0  0
    7.8758    5.0323    1.2174 O   0  0  0  0  0  0  0  0  0  0  0  0
    7.0760    6.7065   -1.0806 O   0  0  0  0  0  0  0  0  0  0  0  0
    5.3336    7.9023   -0.1166 O   0  0  0  0  0  0  0  0  0  0  0  0
    2.2547    8.6993    2.2625 C   0  0  1  0  0  0  0  0  0  0  0  0
    3.4559    6.7905    2.0286 C   0  0  2  0  0  0  0  0  0  0  0  0
    2.5349    9.0230    0.7254 C   0  0  0  0  0  0  0  0  0  0  0  0
    3.5774    7.0218    0.5430 C   0  0  0  0  0  0  0  0  0  0  0  0
    3.7147    8.2996   -0.1220 C   0  0  1  0  0  0  0  0  0  0  0  0
    4.3224    7.7224    2.8854 C   0  0  2  0  0  0  0  0  0  0  0  0
    3.4918    8.9721    3.0458 C   0  0  1  0  0  0  0  0  0  0  0  0
    4.7175    8.9734    2.3247 O   0  0  0  0  0  0  0  0  0  0  0  0
    1.9682    7.1595    2.4029 N   0  3  3  0  0  0  0  0  0  0  0  0
    1.7685    6.3916    3.7409 C   0  0  0  0  0  0  0  0  0  0  0  0
    0.5750    6.9056    1.7946 C   0  0  0  0  0  0  0  0  0  0  0  0
    0.4125    6.4447    0.3926 C   0  0  0  0  0  0  0  0  0  0  0  0
    0.9364    5.0508    0.2752 C   0  0  0  0  0  0  0  0  0  0  0  0
    0.3970    4.0024    1.2204 C   0  0  0  0  0  0  0  0  0  0  0  0
    2.4108    1.9719    0.9306 H   0  0  0  0  0  0  0  0  0  0  0  0
    1.3110    2.5625   -1.2283 H   0  0  0  0  0  0  0  0  0  0  0  0
    2.3111    4.2285   -2.7302 H   0  0  0  0  0  0  0  0  0  0  0  0
    4.3464    5.3969   -2.0951 H   0  0  0  0  0  0  0  0  0  0  0  0
    4.1390    3.4419    1.7682 H   0  0  0  0  0  0  0  0  0  0  0  0
    5.4436    5.6855    1.4059 H   0  0  0  0  0  0  0  0  0  0  0  0
    6.4680    3.5890    1.3317 H   0  0  0  0  0  0  0  0  0  0  0  0
    7.0731    3.8559   -0.3061 H   0  0  0  0  0  0  0  0  0  0  0  0
    8.1959    5.6689    0.5478 H   0  0  0  0  0  0  0  0  0  0  0  0
    1.3638    9.2197    2.6166 H   0  0  0  0  0  0  0  0  0  0  0  0
    3.6235    5.7554    2.3384 H   0  0  0  0  0  0  0  0  0  0  0  0
    1.6176    8.7726    0.1779 H   0  0  0  0  0  0  0  0  0  0  0  0
    2.5643   10.1056    0.5569 H   0  0  0  0  0  0  0  0  0  0  0  0
    2.8102    6.3604    0.3411 H   0  0  0  0  0  0  0  0  0  0  0  0
    3.8924    6.5077   -0.3388 H   0  0  0  0  0  0  0  0  0  0  0  0
    4.1838    9.2787   -0.2405 H   0  0  0  0  0  0  0  0  0  0  0  0
    5.1222    7.2526    3.4302 H   0  0  0  0  0  0  0  0  0  0  0  0
    3.4028    9.7794    3.7451 H   0  0  0  0  0  0  0  0  0  0  0  0
    0.7712    6.5968    4.1416 H   0  0  0  0  0  0  0  0  0  0  0  0
    1.8082    5.3270    3.4540 H   0  0  0  0  0  0  0  0  0  0  0  0
    2.5500    6.5443    4.4779 H   0  0  0  0  0  0  0  0  0  0  0  0
    0.0842    6.1135    2.3704 H   0  0  0  0  0  0  0  0  0  0  0  0
   -0.0407    7.7787    2.0230 H   0  0  0  0  0  0  0  0  0  0  0  0
   -0.6566    6.3869    0.1730 H   0  0  0  0  0  0  0  0  0  0  0  0
    0.8416    7.1029   -0.3642 H   0  0  0  0  0  0  0  0  0  0  0  0
    0.8383    4.8254   -0.7801 H   0  0  0  0  0  0  0  0  0  0  0  0
    1.9699    5.0219    0.5428 H   0  0  0  0  0  0  0  0  0  0  0  0
   -0.6742    4.0708    1.3117 H   0  0  0  0  0  0  0  0  0  0  0  0
    0.6152    2.9968    0.8833 H   0  0  0  0  0  0  0  0  0  0  0  0
    0.8955    4.0571    2.1958 H   0  0  0  0  0  0  0  0  0  0  0  0
  1  6  1  0  0  0  0
  1  2  2  0  0  0  0
  1 27  1  0  0  0  0
  2  3  1  0  0  0  0
  2 28  1  0  0  0  0
  3  4  2  0  0  0  0
  3 29  1  0  0  0  0
  4  5  1  0  0  0  0
  4 30  1  0  0  0  0
  5  6  2  0  0  0  0
  6 31  1  0  0  0  0
  7  8  1  0  0  0  0
  7 32  1  1  0  0  0
  7  9  1  0  0  0  0
  7  5  1  0  0  0  0
  8 10  1  0  0  0  0
  8 33  1  0  0  0  0
  8 34  1  0  0  0  0
  9 12  1  0  0  0  0
  9 11  2  0  0  0  0
 10 35  1  0  0  0  0
 13 19  1  0  0  0  0
 13 15  1  0  0  0  0
 13 21  1  0  0  0  0
 13 36  1  6  0  0  0
 14 18  1  0  0  0  0
 14 16  1  0  0  0  0
 14 21  1  0  0  0  0
 14 37  1  6  0  0  0
 15 17  1  0  0  0  0
 15 38  1  0  0  0  0
 15 39  1  0  0  0  0
 16 17  1  0  0  0  0
 16 40  1  0  0  0  0
 16 41  1  0  0  0  0
 17 12  1  0  0  0  0
 17 42  1  1  0  0  0
 18 19  1  0  0  0  0
 18 20  1  0  0  0  0
 18 43  1  1  0  0  0
 19 20  1  0  0  0  0
 19 44  1  1  0  0  0
 21 22  1  0  0  0  0
 21 23  1  0  0  0  0
 22 45  1  0  0  0  0
 22 46  1  0  0  0  0
 22 47  1  0  0  0  0
 23 24  1  0  0  0  0
 23 48  1  0  0  0  0
 23 49  1  0  0  0  0
 24 25  1  0  0  0  0
 24 50  1  0  0  0  0
 24 51  1  0  0  0  0
 25 26  1  0  0  0  0
 25 52  1  0  0  0  0
 25 53  1  0  0  0  0
 26 54  1  0  0  0  0
 26 55  1  0  0  0  0
 26 56  1  0  0  0  0
M  CHG  1  21   1
M  END
>  <DRUGBANK_ID>
DB09300

>  <SECONDARY_ACCESSION_NUMBERS>
DB11535

>  <COMMON_NAME>
Butylscopolamine

>  <CAS_NUMBER>
7182-53-8

>  <UNII>
2Z3E1OF81V

>  <SYNONYMS>
butilescopolamina; N-butylscopolammonium; N-butylscopolammonium cation; N-butylscopolammonium ion

$$$$
