
 OpenBabel10282417233D

124128  0  0  1  0  0  0  0  0999 V2000
   -2.8865   -0.3419    2.6223 H   0  0  0  0  0  0  0  0  0  0  0  0
   -1.7918   -0.3363    2.6344 C   0  0  2  0  0  0  0  0  0  0  0  0
   -1.3698   -0.2578    1.2075 O   0  0  0  0  0  0  0  0  0  0  0  0
    0.0361   -0.0761    0.9754 C   0  0  2  0  0  0  0  0  0  0  0  0
    0.5891   -1.1752    1.4416 O   0  0  0  0  0  0  0  0  0  0  0  0
    1.8471   -1.2520    1.2926 C   0  0  2  0  0  0  0  0  0  0  0  0
    2.4123   -2.3711    1.6684 C   0  0  0  0  0  0  0  0  0  0  0  0
    2.4612   -0.5529    2.3580 C   0  0  0  0  0  0  0  0  0  0  0  0
    2.5765    0.9214    2.2564 C   0  0  1  0  0  0  0  0  0  0  0  0
    0.7978    0.9073    1.7427 C   0  0  1  0  0  0  0  0  0  0  0  0
    0.4412    2.4947    1.3016 O   0  0  0  0  0  0  0  0  0  0  0  0
    3.3455    2.4653    3.5405 N   0  0  0  0  0  0  0  0  0  0  0  0
    2.2249    4.0096    3.2065 C   0  0  0  0  0  0  0  0  0  0  0  0
    2.5593    1.8400    5.2817 C   0  0  0  0  0  0  0  0  0  0  0  0
   -1.5958    0.7872    3.7088 C   0  0  1  0  0  0  0  0  0  0  0  0
   -1.2895    0.4399    5.0860 C   0  0  0  0  0  0  0  0  0  0  0  0
   -0.7087    1.6975    3.2053 C   0  0  0  0  0  0  0  0  0  0  0  0
   -1.1366    1.7905    2.0514 O   0  0  0  0  0  0  0  0  0  0  0  0
    0.5511    1.5609    3.9932 C   0  0  1  0  0  0  0  0  0  0  0  0
    1.1469    0.0031    4.2988 C   0  0  0  0  0  0  0  0  0  0  0  0
    1.7625    1.8272    3.4466 C   0  0  0  0  0  0  0  0  0  0  0  0
    1.9282    2.5244    2.3313 O   0  0  0  0  0  0  0  0  0  0  0  0
    3.3566    0.7634    3.8502 O   0  0  0  0  0  0  0  0  0  0  0  0
    4.4556    0.2374    2.6985 C   0  0  2  0  0  0  0  0  0  0  0  0
    3.8301    0.2489    0.8427 C   0  0  0  0  0  0  0  0  0  0  0  0
    3.5730    1.5755    0.2588 C   0  0  0  0  0  0  0  0  0  0  0  0
    4.3647   -1.2963    3.5600 C   0  0  1  0  0  0  0  0  0  0  0  0
    5.5655   -1.2047    4.3494 C   0  0  0  0  0  0  0  0  0  0  0  0
    3.4699   -1.8109    4.5268 O   0  0  0  0  0  0  0  0  0  0  0  0
    4.1552   -2.6662    2.5325 C   0  0  2  0  0  0  0  0  0  0  0  0
    2.8314   -4.0709    2.3991 O   0  0  0  0  0  0  0  0  0  0  0  0
    1.3653   -3.8716    1.6031 C   0  0  0  0  0  0  0  0  0  0  0  0
    0.9718   -5.0132    2.2441 C   0  0  0  0  0  0  0  0  0  0  0  0
   -0.2477   -4.3081    1.6417 C   0  0  0  0  0  0  0  0  0  0  0  0
   -0.5717   -2.5994    1.6116 O   0  0  0  0  0  0  0  0  0  0  0  0
   -1.2463   -1.6624    3.1330 C   0  0  1  0  0  0  0  0  0  0  0  0
   -0.5208   -1.8127    4.4519 C   0  0  0  0  0  0  0  0  0  0  0  0
   -2.3556   -2.2817    3.9558 C   0  0  0  0  0  0  0  0  0  0  0  0
   -1.6061   -2.9853    2.8986 C   0  0  1  0  0  0  0  0  0  0  0  0
   -2.6010   -3.4450    1.2304 C   0  0  0  0  0  0  0  0  0  0  0  0
    0.4416   -3.4090    3.5590 C   0  0  0  0  0  0  0  0  0  0  0  0
   -1.0705   -3.9683    3.8659 N   0  0  0  0  0  0  0  0  0  0  0  0
   -2.5023   -5.0831    4.2177 C   0  0  0  0  0  0  0  0  0  0  0  0
   -1.9361   -5.2294    3.0594 C   0  0  0  0  0  0  0  0  0  0  0  0
   -2.8441   -6.3596    4.1596 O   0  0  0  0  0  0  0  0  0  0  0  0
    2.8972   -3.4927    3.4196 C   0  0  2  0  0  0  0  0  0  0  0  0
    4.9813   -3.1192    2.9050 C   0  0  0  0  0  0  0  0  0  0  0  0
    1.2238   -5.5817    3.4633 N   0  0  0  0  0  0  0  0  0  0  0  0
    2.5973   -5.6319    3.8004 O   0  0  0  0  0  0  0  0  0  0  0  0
    2.9808   -6.5780    4.7256 C   0  0  0  0  0  0  0  0  0  0  0  0
    2.3998   -6.2915    6.0568 C   0  0  0  0  0  0  0  0  0  0  0  0
    2.4488   -5.0207    6.6142 C   0  0  0  0  0  0  0  0  0  0  0  0
    1.9384   -4.7079    7.8268 N   0  0  0  0  0  0  0  0  0  0  0  0
    1.3619   -5.7226    8.5255 C   0  0  0  0  0  0  0  0  0  0  0  0
    1.2688   -7.0234    8.0342 C   0  0  0  0  0  0  0  0  0  0  0  0
    1.7865   -7.3061    6.7765 C   0  0  0  0  0  0  0  0  0  0  0  0
    0.8578   -5.4573    9.8352 N   0  0  0  0  0  0  0  0  0  0  0  0
    1.2330   -6.0744   11.0113 C   0  0  0  0  0  0  0  0  0  0  0  0
    0.5040   -5.4991   12.0175 C   0  0  0  0  0  0  0  0  0  0  0  0
   -0.3172   -4.5734   11.3835 C   0  0  0  0  0  0  0  0  0  0  0  0
   -0.1132   -4.5242   10.0665 N   0  0  0  0  0  0  0  0  0  0  0  0
    0.3907    0.0258    0.0007 H   0  0  0  0  0  0  0  0  0  0  0  0
    2.2535   -1.4411    0.3636 H   0  0  0  0  0  0  0  0  0  0  0  0
    2.7889   -3.6017    0.9141 H   0  0  0  0  0  0  0  0  0  0  0  0
    3.2715   -2.4644    1.2272 H   0  0  0  0  0  0  0  0  0  0  0  0
    1.8846   -2.2827    3.0176 H   0  0  0  0  0  0  0  0  0  0  0  0
    2.4749   -0.9883    3.2803 H   0  0  0  0  0  0  0  0  0  0  0  0
    3.3616   -0.9387    2.1765 H   0  0  0  0  0  0  0  0  0  0  0  0
    2.0982    1.2447    1.3614 H   0  0  0  0  0  0  0  0  0  0  0  0
    0.3381    0.3775    2.5919 H   0  0  0  0  0  0  0  0  0  0  0  0
    0.4442    2.3611    0.3874 H   0  0  0  0  0  0  0  0  0  0  0  0
    1.0145    3.6728    3.1300 H   0  0  0  0  0  0  0  0  0  0  0  0
    2.5944    4.3474    4.0938 H   0  0  0  0  0  0  0  0  0  0  0  0
    2.5074    4.1918    2.0850 H   0  0  0  0  0  0  0  0  0  0  0  0
    1.3524    1.3882    5.5585 H   0  0  0  0  0  0  0  0  0  0  0  0
    2.7918    0.7909    5.6303 H   0  0  0  0  0  0  0  0  0  0  0  0
    2.4265    2.6995    5.8042 H   0  0  0  0  0  0  0  0  0  0  0  0
   -2.3026    1.5645    3.7155 H   0  0  0  0  0  0  0  0  0  0  0  0
   -1.0903    1.1726    5.8122 H   0  0  0  0  0  0  0  0  0  0  0  0
   -1.9868   -0.3206    5.2971 H   0  0  0  0  0  0  0  0  0  0  0  0
   -0.3245    0.0694    5.2865 H   0  0  0  0  0  0  0  0  0  0  0  0
    0.5347    2.4416    4.6137 H   0  0  0  0  0  0  0  0  0  0  0  0
    2.1214   -0.0088    4.4009 H   0  0  0  0  0  0  0  0  0  0  0  0
    1.1731   -0.6012    5.2315 H   0  0  0  0  0  0  0  0  0  0  0  0
    1.0761   -0.6850    3.4350 H   0  0  0  0  0  0  0  0  0  0  0  0
    5.4485    0.5324    2.4524 H   0  0  0  0  0  0  0  0  0  0  0  0
    3.9225   -0.7039    0.4043 H   0  0  0  0  0  0  0  0  0  0  0  0
    2.6694    0.0976    0.6074 H   0  0  0  0  0  0  0  0  0  0  0  0
    4.4568    2.0470    0.5188 H   0  0  0  0  0  0  0  0  0  0  0  0
    2.5552    1.6277   -0.2028 H   0  0  0  0  0  0  0  0  0  0  0  0
    3.1776    2.3117    0.9459 H   0  0  0  0  0  0  0  0  0  0  0  0
    5.3586   -0.3949    4.9879 H   0  0  0  0  0  0  0  0  0  0  0  0
    5.6734   -2.2108    4.7303 H   0  0  0  0  0  0  0  0  0  0  0  0
    6.3491   -0.8584    3.7061 H   0  0  0  0  0  0  0  0  0  0  0  0
    2.9951   -1.0920    4.8657 H   0  0  0  0  0  0  0  0  0  0  0  0
    4.6072   -2.3216    1.2216 H   0  0  0  0  0  0  0  0  0  0  0  0
    0.9433   -2.8944    2.0830 H   0  0  0  0  0  0  0  0  0  0  0  0
    1.3767   -3.4784    0.4791 H   0  0  0  0  0  0  0  0  0  0  0  0
   -0.8086   -4.7317    0.9133 H   0  0  0  0  0  0  0  0  0  0  0  0
   -0.3921   -4.7596    2.5298 H   0  0  0  0  0  0  0  0  0  0  0  0
   -0.8237   -1.4878    5.3732 H   0  0  0  0  0  0  0  0  0  0  0  0
    0.2141   -2.4276    4.9066 H   0  0  0  0  0  0  0  0  0  0  0  0
   -0.0119   -1.1835    3.9687 H   0  0  0  0  0  0  0  0  0  0  0  0
   -2.1333   -2.9202    4.8012 H   0  0  0  0  0  0  0  0  0  0  0  0
   -3.1400   -1.8243    4.5455 H   0  0  0  0  0  0  0  0  0  0  0  0
   -2.8730   -2.2129    2.4672 H   0  0  0  0  0  0  0  0  0  0  0  0
   -2.4952   -4.5083    1.1478 H   0  0  0  0  0  0  0  0  0  0  0  0
   -3.6252   -3.5406    0.7084 H   0  0  0  0  0  0  0  0  0  0  0  0
   -2.0117   -2.8664    0.5792 H   0  0  0  0  0  0  0  0  0  0  0  0
   -1.0442   -5.4273    4.2370 H   0  0  0  0  0  0  0  0  0  0  0  0
   -1.6951   -5.7659    2.2048 H   0  0  0  0  0  0  0  0  0  0  0  0
   -2.9040   -4.4239    2.7941 H   0  0  0  0  0  0  0  0  0  0  0  0
    4.1642   -4.2026    2.9359 H   0  0  0  0  0  0  0  0  0  0  0  0
    6.0052   -2.8495    1.8217 H   0  0  0  0  0  0  0  0  0  0  0  0
    5.8343   -1.9065    2.5082 H   0  0  0  0  0  0  0  0  0  0  0  0
    6.3521   -3.0800    3.3033 H   0  0  0  0  0  0  0  0  0  0  0  0
    2.6598   -7.5191    4.3047 H   0  0  0  0  0  0  0  0  0  0  0  0
    4.0771   -6.5628    4.7745 H   0  0  0  0  0  0  0  0  0  0  0  0
    2.9113   -4.2030    6.0652 H   0  0  0  0  0  0  0  0  0  0  0  0
    0.7651   -7.7978    8.5955 H   0  0  0  0  0  0  0  0  0  0  0  0
    1.7087   -8.3041    6.3509 H   0  0  0  0  0  0  0  0  0  0  0  0
    2.0045   -6.8215   11.0765 H   0  0  0  0  0  0  0  0  0  0  0  0
    0.5434   -5.7078   13.0696 H   0  0  0  0  0  0  0  0  0  0  0  0
   -1.0432   -3.9418   11.8765 H   0  0  0  0  0  0  0  0  0  0  0  0
  2 15  1  0  0  0  0
  2 36  1  0  0  0  0
  2  3  1  0  0  0  0
  2  1  1  6  0  0  0
  4  5  1  0  0  0  0
  4 62  1  6  0  0  0
  4  3  1  0  0  0  0
  6  5  1  0  0  0  0
  6  7  1  0  0  0  0
  6  8  1  0  0  0  0
  6 63  1  6  0  0  0
  7 64  1  0  0  0  0
  7 65  1  0  0  0  0
  7 66  1  0  0  0  0
  8 67  1  0  0  0  0
  8 68  1  0  0  0  0
  9  8  1  0  0  0  0
  9 12  1  0  0  0  0
  9 69  1  6  0  0  0
 10  9  1  0  0  0  0
 10  4  1  0  0  0  0
 10 11  1  0  0  0  0
 10 70  1  1  0  0  0
 11 71  1  0  0  0  0
 12 13  1  0  0  0  0
 12 14  1  0  0  0  0
 13 72  1  0  0  0  0
 13 73  1  0  0  0  0
 13 74  1  0  0  0  0
 14 75  1  0  0  0  0
 14 76  1  0  0  0  0
 14 77  1  0  0  0  0
 15 17  1  0  0  0  0
 15 78  1  1  0  0  0
 15 16  1  0  0  0  0
 16 79  1  0  0  0  0
 16 80  1  0  0  0  0
 16 81  1  0  0  0  0
 17 18  2  0  0  0  0
 19 17  1  0  0  0  0
 19 21  1  0  0  0  0
 19 82  1  1  0  0  0
 19 20  1  0  0  0  0
 20 83  1  0  0  0  0
 20 84  1  0  0  0  0
 20 85  1  0  0  0  0
 21 22  2  0  0  0  0
 21 23  1  0  0  0  0
 24 23  1  0  0  0  0
 24 25  1  0  0  0  0
 24 86  1  1  0  0  0
 25 26  1  0  0  0  0
 25 87  1  0  0  0  0
 25 88  1  0  0  0  0
 26 89  1  0  0  0  0
 26 90  1  0  0  0  0
 26 91  1  0  0  0  0
 27 24  1  0  0  0  0
 27 28  1  0  0  0  0
 27 29  1  1  0  0  0
 27 30  1  0  0  0  0
 28 92  1  0  0  0  0
 28 93  1  0  0  0  0
 28 94  1  0  0  0  0
 29 95  1  0  0  0  0
 30 31  1  0  0  0  0
 30 46  1  0  0  0  0
 30 96  1  1  0  0  0
 31 32  1  0  0  0  0
 32 33  1  0  0  0  0
 32 97  1  0  0  0  0
 32 98  1  0  0  0  0
 33 34  1  0  0  0  0
 33 48  2  0  0  0  0
 34 35  1  0  0  0  0
 34 99  1  0  0  0  0
 34100  1  0  0  0  0
 36 35  1  0  0  0  0
 36 37  1  1  0  0  0
 36 38  1  0  0  0  0
 37101  1  0  0  0  0
 37102  1  0  0  0  0
 37103  1  0  0  0  0
 38104  1  0  0  0  0
 38105  1  0  0  0  0
 39 38  1  0  0  0  0
 39 40  1  0  0  0  0
 39 41  1  0  0  0  0
 39106  1  1  0  0  0
 40107  1  0  0  0  0
 40108  1  0  0  0  0
 40109  1  0  0  0  0
 41 42  2  0  0  0  0
 42 43  1  0  0  0  0
 43 44  1  0  0  0  0
 43 45  2  0  0  0  0
 44110  1  0  0  0  0
 44111  1  0  0  0  0
 44112  1  0  0  0  0
 46 41  1  0  0  0  0
 46113  1  6  0  0  0
 46 47  1  0  0  0  0
 47114  1  0  0  0  0
 47115  1  0  0  0  0
 47116  1  0  0  0  0
 48 49  1  0  0  0  0
 49 50  1  0  0  0  0
 50 51  1  0  0  0  0
 50117  1  0  0  0  0
 50118  1  0  0  0  0
 51 52  2  0  0  0  0
 51 56  1  0  0  0  0
 52 53  1  0  0  0  0
 52119  1  0  0  0  0
 53 54  2  0  0  0  0
 54 55  1  0  0  0  0
 54 57  1  0  0  0  0
 55 56  2  0  0  0  0
 55120  1  0  0  0  0
 56121  1  0  0  0  0
 57 58  1  0  0  0  0
 57 61  1  0  0  0  0
 58 59  2  0  0  0  0
 58122  1  0  0  0  0
 59 60  1  0  0  0  0
 59123  1  0  0  0  0
 60 61  2  0  0  0  0
 60124  1  0  0  0  0
M  END
>  <DRUGBANK_ID>
DB16238

>  <COMMON_NAME>
Modithromycin

>  <CAS_NUMBER>
736992-12-4

>  <UNII>
9MAY4E090U

>  <SYNONYMS>
Modithromycin

$$$$
