RE9
 OpenBabel10282417173D

 50 51  0  0  0  0  0  0  0  0999 V2000
   -0.9973   -1.4688    0.0467 C   0  0  0  0  0  0  0  0  0  0  0  0
   -2.3162   -0.6753    0.0132 C   0  0  0  0  0  0  0  0  0  0  0  0
   -2.2699    0.8445   -0.0390 C   0  0  0  0  0  0  0  0  0  0  0  0
   -0.9330    1.5705   -0.0311 C   0  0  0  0  0  0  0  0  0  0  0  0
    0.2608    0.7074    0.0055 C   0  0  0  0  0  0  0  0  0  0  0  0
    1.6138    1.1941   -0.0044 C   0  0  0  0  0  0  0  0  0  0  0  0
    2.5504   -0.0189   -0.0154 C   0  0  1  0  0  0  0  0  0  0  0  0
    1.5829   -1.2284    0.0801 C   0  0  0  0  0  0  0  0  0  0  0  0
    0.2263   -0.6201    0.0430 C   0  0  0  0  0  0  0  0  0  0  0  0
    3.3885    0.0008   -1.3391 C   0  0  0  0  0  0  0  0  0  0  0  0
    3.1697   -1.1803   -2.2453 C   0  0  0  0  0  0  0  0  0  0  0  0
    2.5887   -1.1661   -3.4587 C   0  0  0  0  0  0  0  0  0  0  0  0
    2.2661   -2.3869   -4.2205 C   0  0  0  0  0  0  0  0  0  0  0  0
    1.7854   -2.3003   -5.4805 C   0  0  0  0  0  0  0  0  0  0  0  0
    1.4388   -3.3941   -6.4159 C   0  0  0  0  0  0  0  0  0  0  0  0
   -0.9749   -2.2416    1.3748 C   0  0  0  0  0  0  0  0  0  0  0  0
   -0.9724   -2.3711   -1.2036 C   0  0  0  0  0  0  0  0  0  0  0  0
    1.9861    2.4821   -0.0039 C   0  0  0  0  0  0  0  0  0  0  0  0
    3.4221    0.0196    1.2628 C   0  0  0  0  0  0  0  0  0  0  0  0
    2.4997   -3.6850   -3.4835 C   0  0  0  0  0  0  0  0  0  0  0  0
    1.0339   -3.2117   -7.5588 O   0  0  0  0  0  0  0  0  0  0  0  0
    1.6111   -4.6286   -5.9386 O   0  0  0  0  0  0  0  0  0  0  0  0
   -2.9212   -0.9474    0.8879 H   0  0  0  0  0  0  0  0  0  0  0  0
   -2.9289   -1.0120   -0.8335 H   0  0  0  0  0  0  0  0  0  0  0  0
   -2.8108    1.1542   -0.9402 H   0  0  0  0  0  0  0  0  0  0  0  0
   -2.8610    1.2163    0.8060 H   0  0  0  0  0  0  0  0  0  0  0  0
   -0.8806    2.1944   -0.9307 H   0  0  0  0  0  0  0  0  0  0  0  0
   -0.9085    2.2421    0.8353 H   0  0  0  0  0  0  0  0  0  0  0  0
    1.7379   -1.8257    0.9825 H   0  0  0  0  0  0  0  0  0  0  0  0
    1.6449   -1.9421   -0.7369 H   0  0  0  0  0  0  0  0  0  0  0  0
    3.1916    0.9171   -1.9087 H   0  0  0  0  0  0  0  0  0  0  0  0
    4.4568    0.0278   -1.1008 H   0  0  0  0  0  0  0  0  0  0  0  0
    3.4457   -2.1248   -1.7824 H   0  0  0  0  0  0  0  0  0  0  0  0
    2.3174   -0.2020   -3.8895 H   0  0  0  0  0  0  0  0  0  0  0  0
    1.6272   -1.3222   -5.9331 H   0  0  0  0  0  0  0  0  0  0  0  0
   -1.8701   -2.8556    1.4952 H   0  0  0  0  0  0  0  0  0  0  0  0
   -0.1030   -2.8931    1.4836 H   0  0  0  0  0  0  0  0  0  0  0  0
   -0.9492   -1.5232    2.2090 H   0  0  0  0  0  0  0  0  0  0  0  0
   -0.8794   -1.7548   -2.1112 H   0  0  0  0  0  0  0  0  0  0  0  0
   -0.1427   -3.0838   -1.2078 H   0  0  0  0  0  0  0  0  0  0  0  0
   -1.8969   -2.9484   -1.2984 H   0  0  0  0  0  0  0  0  0  0  0  0
    3.0362    2.7557   -0.0080 H   0  0  0  0  0  0  0  0  0  0  0  0
    1.2653    3.2921    0.0037 H   0  0  0  0  0  0  0  0  0  0  0  0
    4.4889    0.0041    1.0338 H   0  0  0  0  0  0  0  0  0  0  0  0
    3.2279    0.9079    1.8758 H   0  0  0  0  0  0  0  0  0  0  0  0
    3.2309   -0.8340    1.9231 H   0  0  0  0  0  0  0  0  0  0  0  0
    3.5525   -3.7741   -3.2020 H   0  0  0  0  0  0  0  0  0  0  0  0
    1.8593   -3.7372   -2.5971 H   0  0  0  0  0  0  0  0  0  0  0  0
    2.2898   -4.5974   -4.0241 H   0  0  0  0  0  0  0  0  0  0  0  0
    1.3725   -5.2762   -6.6280 H   0  0  0  0  0  0  0  0  0  0  0  0
  1  2  1  0  0  0  0
  1  9  1  0  0  0  0
  1 16  1  0  0  0  0
  1 17  1  0  0  0  0
  2  3  1  0  0  0  0
  2 23  1  0  0  0  0
  2 24  1  0  0  0  0
  3  4  1  0  0  0  0
  3 25  1  0  0  0  0
  3 26  1  0  0  0  0
  4  5  1  0  0  0  0
  4 27  1  0  0  0  0
  4 28  1  0  0  0  0
  5  6  1  0  0  0  0
  5  9  2  0  0  0  0
  6  7  1  0  0  0  0
  6 18  2  0  0  0  0
  7  8  1  0  0  0  0
  7 19  1  1  0  0  0
  7 10  1  0  0  0  0
  8  9  1  0  0  0  0
  8 29  1  0  0  0  0
  8 30  1  0  0  0  0
 10 11  1  0  0  0  0
 10 31  1  0  0  0  0
 10 32  1  0  0  0  0
 11 12  2  0  0  0  0
 11 33  1  0  0  0  0
 12 13  1  0  0  0  0
 12 34  1  0  0  0  0
 13 14  2  0  0  0  0
 13 20  1  0  0  0  0
 14 15  1  0  0  0  0
 14 35  1  0  0  0  0
 15 21  2  0  0  0  0
 15 22  1  0  0  0  0
 16 36  1  0  0  0  0
 16 37  1  0  0  0  0
 16 38  1  0  0  0  0
 17 39  1  0  0  0  0
 17 40  1  0  0  0  0
 17 41  1  0  0  0  0
 18 42  1  0  0  0  0
 18 43  1  0  0  0  0
 19 44  1  0  0  0  0
 19 45  1  0  0  0  0
 19 46  1  0  0  0  0
 20 47  1  0  0  0  0
 20 48  1  0  0  0  0
 20 49  1  0  0  0  0
 22 50  1  0  0  0  0
M  END
>  <DRUGBANK_ID>
DB08467

>  <COMMON_NAME>
6-(2,3,4,5,6,7-HEXAHYDRO-2,4,4-TRIMETHYL-1-METYLENEINDEN-2-YL)-3-METHYLHEXA-2,4-DIENOIC ACID

$$$$
