
 OpenBabel10282417163D

 28 29  0  0  0  0  0  0  0  0999 V2000
   -1.6262    1.8073   -0.0706 S   0  0  0  0  0  0  0  0  0  0  0  0
    0.1724   -1.6078    0.3816 O   0  0  0  0  0  0  0  0  0  0  0  0
    2.1232    0.9060    0.0718 N   0  0  0  0  0  0  0  0  0  0  0  0
    1.0724    2.5409    1.2347 N   0  0  0  0  0  0  0  0  0  0  0  0
    2.0764   -0.3029   -0.7735 C   0  0  1  0  0  0  0  0  0  0  0  0
    3.5241   -0.5508   -1.2693 C   0  0  0  0  0  0  0  0  0  0  0  0
    1.5557   -1.5147    0.0261 C   0  0  0  0  0  0  0  0  0  0  0  0
    3.6825   -1.7850   -2.1661 C   0  0  0  0  0  0  0  0  0  0  0  0
   -0.6318   -0.5502    0.1375 C   0  0  0  0  0  0  0  0  0  0  0  0
    1.0022    1.3938    0.4906 C   0  0  0  0  0  0  0  0  0  0  0  0
   -0.2783    0.7791    0.2047 C   0  0  0  0  0  0  0  0  0  0  0  0
    2.7951   -1.7078   -3.3985 C   0  0  0  0  0  0  0  0  0  0  0  0
   -2.0309   -0.7189   -0.0994 C   0  0  0  0  0  0  0  0  0  0  0  0
   -2.6835    0.4839   -0.2508 C   0  0  0  0  0  0  0  0  0  0  0  0
    1.9397    3.0565    1.1955 H   0  0  0  0  0  0  0  0  0  0  0  0
    0.2185    3.0553    1.4043 H   0  0  0  0  0  0  0  0  0  0  0  0
    1.4421   -0.1018   -1.6445 H   0  0  0  0  0  0  0  0  0  0  0  0
    3.8728    0.3316   -1.8237 H   0  0  0  0  0  0  0  0  0  0  0  0
    4.2014   -0.6479   -0.4100 H   0  0  0  0  0  0  0  0  0  0  0  0
    1.7103   -2.4183   -0.5697 H   0  0  0  0  0  0  0  0  0  0  0  0
    2.1549   -1.6471    0.9354 H   0  0  0  0  0  0  0  0  0  0  0  0
    4.7294   -1.8787   -2.4775 H   0  0  0  0  0  0  0  0  0  0  0  0
    3.4630   -2.7006   -1.6067 H   0  0  0  0  0  0  0  0  0  0  0  0
    3.0657   -0.8392   -4.0066 H   0  0  0  0  0  0  0  0  0  0  0  0
    2.9013   -2.6087   -4.0076 H   0  0  0  0  0  0  0  0  0  0  0  0
    1.7372   -1.6221   -3.1334 H   0  0  0  0  0  0  0  0  0  0  0  0
   -2.5365   -1.6755   -0.1540 H   0  0  0  0  0  0  0  0  0  0  0  0
   -3.7320    0.6609   -0.4442 H   0  0  0  0  0  0  0  0  0  0  0  0
  1 11  1  0  0  0  0
  1 14  1  0  0  0  0
  2  7  1  0  0  0  0
  2  9  1  0  0  0  0
  3  5  1  0  0  0  0
  3 10  2  0  0  0  0
  4 10  1  0  0  0  0
  4 15  1  0  0  0  0
  4 16  1  0  0  0  0
  5  6  1  0  0  0  0
  5  7  1  0  0  0  0
  5 17  1  6  0  0  0
  6  8  1  0  0  0  0
  6 18  1  0  0  0  0
  6 19  1  0  0  0  0
  7 20  1  0  0  0  0
  7 21  1  0  0  0  0
  8 12  1  0  0  0  0
  8 22  1  0  0  0  0
  8 23  1  0  0  0  0
  9 11  2  0  0  0  0
  9 13  1  0  0  0  0
 10 11  1  0  0  0  0
 12 24  1  0  0  0  0
 12 25  1  0  0  0  0
 12 26  1  0  0  0  0
 13 14  2  0  0  0  0
 13 27  1  0  0  0  0
 14 28  1  0  0  0  0
M  END
>  <DRUGBANK_ID>
DB07001

>  <COMMON_NAME>
(3S,5E)-3-propyl-3,4-dihydrothieno[2,3-f][1,4]oxazepin-5(2H)-imine

$$$$
