TQ3
 OpenBabel10282417133D

 31 33  0  0  0  0  0  0  0  0999 V2000
    0.0614    0.6315    0.0848 C   0  0  0  0  0  0  0  0  0  0  0  0
    0.0312   -0.7765    0.0679 C   0  0  0  0  0  0  0  0  0  0  0  0
    1.3142   -1.3590   -0.0071 C   0  0  0  0  0  0  0  0  0  0  0  0
    2.4505   -0.6547   -0.0399 N   0  0  0  0  0  0  0  0  0  0  0  0
    2.3439    0.6743    0.0000 C   0  0  0  0  0  0  0  0  0  0  0  0
    1.1906    1.3404    0.0824 N   0  0  0  0  0  0  0  0  0  0  0  0
    1.4738   -2.7200   -0.2691 N   0  0  0  0  0  0  0  0  0  0  0  0
   -1.1392    1.3260    0.0407 C   0  0  0  0  0  0  0  0  0  0  0  0
   -2.3538    0.6761   -0.1357 C   0  0  0  0  0  0  0  0  0  0  0  0
   -2.4066   -0.7066   -0.0328 C   0  0  0  0  0  0  0  0  0  0  0  0
   -1.2345   -1.4546    0.1153 C   0  0  0  0  0  0  0  0  0  0  0  0
    3.4960    1.3915   -0.0807 N   0  0  0  0  0  0  0  0  0  0  0  0
   -1.2794   -3.2387    0.4144 S   0  0  0  0  0  0  0  0  0  0  0  0
   -2.9607   -3.7487    0.4252 C   0  0  0  0  0  0  0  0  0  0  0  0
   -3.7832   -3.5673   -0.6868 C   0  0  0  0  0  0  0  0  0  0  0  0
   -5.1439   -3.8347   -0.5881 C   0  0  0  0  0  0  0  0  0  0  0  0
   -5.6507   -4.4284    0.5666 C   0  0  0  0  0  0  0  0  0  0  0  0
   -4.7981   -4.7604    1.6179 C   0  0  0  0  0  0  0  0  0  0  0  0
   -3.4614   -4.3795    1.5658 C   0  0  0  0  0  0  0  0  0  0  0  0
    0.7244   -3.3117    0.0733 H   0  0  0  0  0  0  0  0  0  0  0  0
    2.4115   -3.0671   -0.1301 H   0  0  0  0  0  0  0  0  0  0  0  0
   -1.1311    2.4138    0.1053 H   0  0  0  0  0  0  0  0  0  0  0  0
   -3.2612    1.2408   -0.3338 H   0  0  0  0  0  0  0  0  0  0  0  0
   -3.3871   -1.1636   -0.0613 H   0  0  0  0  0  0  0  0  0  0  0  0
    3.4415    2.3956   -0.0944 H   0  0  0  0  0  0  0  0  0  0  0  0
    4.3540    0.8784   -0.1904 H   0  0  0  0  0  0  0  0  0  0  0  0
   -3.3767   -3.1626   -1.6114 H   0  0  0  0  0  0  0  0  0  0  0  0
   -5.8046   -3.5761   -1.4102 H   0  0  0  0  0  0  0  0  0  0  0  0
   -6.7123   -4.6425    0.6436 H   0  0  0  0  0  0  0  0  0  0  0  0
   -5.1733   -5.2979    2.4839 H   0  0  0  0  0  0  0  0  0  0  0  0
   -2.8148   -4.5747    2.4192 H   0  0  0  0  0  0  0  0  0  0  0  0
  1  2  2  0  0  0  0
  1  6  1  0  0  0  0
  1  8  1  0  0  0  0
  2  3  1  0  0  0  0
  2 11  1  0  0  0  0
  3  4  2  0  0  0  0
  3  7  1  0  0  0  0
  4  5  1  0  0  0  0
  5  6  2  0  0  0  0
  5 12  1  0  0  0  0
  7 20  1  0  0  0  0
  7 21  1  0  0  0  0
  8  9  2  0  0  0  0
  8 22  1  0  0  0  0
  9 10  1  0  0  0  0
  9 23  1  0  0  0  0
 10 11  2  0  0  0  0
 10 24  1  0  0  0  0
 11 13  1  0  0  0  0
 12 25  1  0  0  0  0
 12 26  1  0  0  0  0
 13 14  1  0  0  0  0
 14 15  2  0  0  0  0
 14 19  1  0  0  0  0
 15 16  1  0  0  0  0
 15 27  1  0  0  0  0
 16 17  2  0  0  0  0
 16 28  1  0  0  0  0
 17 18  1  0  0  0  0
 17 29  1  0  0  0  0
 18 19  2  0  0  0  0
 18 30  1  0  0  0  0
 19 31  1  0  0  0  0
M  END
>  <DRUGBANK_ID>
DB04163

>  <SECONDARY_ACCESSION_NUMBERS>
EXPT03099

>  <COMMON_NAME>
5-Phenylsulfanyl-2,4-Quinazolinediamine

$$$$
