TCK
 OpenBabel10282417173D

 42 42  0  0  0  0  0  0  0  0999 V2000
    2.9623    3.3371   -0.0685 S   0  0  0  0  0  0  0  0  0  0  0  0
    3.4296    2.8633    1.2176 O   0  0  0  0  0  0  0  0  0  0  0  0
    1.7902    4.1734   -0.1875 O   0  0  0  0  0  0  0  0  0  0  0  0
    4.2971    4.2456   -0.8218 C   0  0  0  0  0  0  0  0  0  0  0  0
    4.0852    4.9869   -1.9870 C   0  0  0  0  0  0  0  0  0  0  0  0
    5.1524    5.6875   -2.5661 C   0  0  0  0  0  0  0  0  0  0  0  0
    6.4222    5.6823   -1.9716 C   0  0  0  0  0  0  0  0  0  0  0  0
    6.5968    5.0142   -0.7535 C   0  0  0  0  0  0  0  0  0  0  0  0
    5.5354    4.3127   -0.1722 C   0  0  0  0  0  0  0  0  0  0  0  0
    7.5854    6.3686   -2.6311 C   0  0  0  0  0  0  0  0  0  0  0  0
    2.6310    2.0137   -1.0693 N   0  0  0  0  0  0  0  0  0  0  0  0
    3.2538    0.6508   -0.9810 C   0  0  2  0  0  0  0  0  0  0  0  0
    2.6651   -0.1281    0.2142 C   0  0  0  0  0  0  0  0  0  0  0  0
    2.0463    0.4665    1.1037 O   0  0  0  0  0  0  0  0  0  0  0  0
    4.7795    0.6689   -1.0633 C   0  0  0  0  0  0  0  0  0  0  0  0
    5.3965   -0.7348   -1.1773 C   0  0  0  0  0  0  0  0  0  0  0  0
    4.8830   -1.5312   -2.3947 C   0  0  0  0  0  0  0  0  0  0  0  0
    5.3228   -0.8914   -3.7075 C   0  0  0  0  0  0  0  0  0  0  0  0
    6.7756   -0.8587   -3.7649 N   0  0  0  0  0  0  0  0  0  0  0  0
    2.7310   -1.6460    0.2813 C   0  0  0  0  0  0  0  0  0  0  0  0
    2.8595    0.1728   -1.8885 H   0  0  0  0  0  0  0  0  0  0  0  0
    1.6615   -2.3818   -0.9186 Cl  0  0  0  0  0  0  0  0  0  0  0  0
    3.1009    5.0337   -2.4465 H   0  0  0  0  0  0  0  0  0  0  0  0
    4.9896    6.2343   -3.4933 H   0  0  0  0  0  0  0  0  0  0  0  0
    7.5634    5.0296   -0.2529 H   0  0  0  0  0  0  0  0  0  0  0  0
    5.6830    3.8308    0.7925 H   0  0  0  0  0  0  0  0  0  0  0  0
    8.0050    7.1406   -1.9786 H   0  0  0  0  0  0  0  0  0  0  0  0
    8.3656    5.6369   -2.8688 H   0  0  0  0  0  0  0  0  0  0  0  0
    7.2875    6.8480   -3.5697 H   0  0  0  0  0  0  0  0  0  0  0  0
    1.6103    1.9190   -0.9910 H   0  0  0  0  0  0  0  0  0  0  0  0
    5.1049    1.2678   -1.9249 H   0  0  0  0  0  0  0  0  0  0  0  0
    5.2015    1.1592   -0.1822 H   0  0  0  0  0  0  0  0  0  0  0  0
    6.4869   -0.6671   -1.1979 H   0  0  0  0  0  0  0  0  0  0  0  0
    5.2520   -1.2727   -0.2444 H   0  0  0  0  0  0  0  0  0  0  0  0
    5.2218   -2.5735   -2.3378 H   0  0  0  0  0  0  0  0  0  0  0  0
    3.7927   -1.5951   -2.4158 H   0  0  0  0  0  0  0  0  0  0  0  0
    4.9221   -1.4542   -4.5559 H   0  0  0  0  0  0  0  0  0  0  0  0
    4.9183    0.1238   -3.7856 H   0  0  0  0  0  0  0  0  0  0  0  0
    7.0765   -0.3415   -4.5862 H   0  0  0  0  0  0  0  0  0  0  0  0
    7.1475   -0.3363   -2.9730 H   0  0  0  0  0  0  0  0  0  0  0  0
    3.7132   -2.0868    0.1772 H   0  0  0  0  0  0  0  0  0  0  0  0
    2.3969   -1.9569    1.2739 H   0  0  0  0  0  0  0  0  0  0  0  0
  1  2  2  0  0  0  0
  1  4  1  0  0  0  0
  3  1  2  0  0  0  0
  4  5  2  0  0  0  0
  4  9  1  0  0  0  0
  5  6  1  0  0  0  0
  5 23  1  0  0  0  0
  6  7  2  0  0  0  0
  6 24  1  0  0  0  0
  7  8  1  0  0  0  0
  7 10  1  0  0  0  0
  8  9  2  0  0  0  0
  8 25  1  0  0  0  0
  9 26  1  0  0  0  0
 10 27  1  0  0  0  0
 10 28  1  0  0  0  0
 10 29  1  0  0  0  0
 11  1  1  0  0  0  0
 11 30  1  0  0  0  0
 12 15  1  0  0  0  0
 12 21  1  6  0  0  0
 12 13  1  0  0  0  0
 12 11  1  0  0  0  0
 13 14  2  0  0  0  0
 13 20  1  0  0  0  0
 15 16  1  0  0  0  0
 15 31  1  0  0  0  0
 15 32  1  0  0  0  0
 16 17  1  0  0  0  0
 16 33  1  0  0  0  0
 16 34  1  0  0  0  0
 17 18  1  0  0  0  0
 17 35  1  0  0  0  0
 17 36  1  0  0  0  0
 18 19  1  0  0  0  0
 18 37  1  0  0  0  0
 18 38  1  0  0  0  0
 19 39  1  0  0  0  0
 19 40  1  0  0  0  0
 20 22  1  0  0  0  0
 20 41  1  0  0  0  0
 20 42  1  0  0  0  0
M  END
>  <DRUGBANK_ID>
DB08603

>  <COMMON_NAME>
N-[(1S)-5-amino-1-(chloroacetyl)pentyl]-4-methylbenzenesulfonamide

$$$$
