1588
 OpenBabel10282417123D

 40 43  0  0  0  0  0  0  0  0999 V2000
    1.0867    0.0415    0.0543 Cl  0  0  0  0  0  0  0  0  0  0  0  0
    9.0969    1.0835   -0.2136 O   0  0  0  0  0  0  0  0  0  0  0  0
    7.0574    0.0152    0.0575 N   0  0  0  0  0  0  0  0  0  0  0  0
    6.5605    3.0403   -0.3876 N   0  0  0  0  0  0  0  0  0  0  0  0
    8.4324   -2.0510   -0.2093 C   0  0  0  0  0  0  0  0  0  0  0  0
    9.6615   -1.6858   -1.0198 C   0  0  0  0  0  0  0  0  0  0  0  0
    8.3446   -1.9010   -1.7134 C   0  0  0  0  0  0  0  0  0  0  0  0
    7.7152   -1.1095    0.7271 C   0  0  0  0  0  0  0  0  0  0  0  0
    5.6282    0.0666    0.0220 C   0  0  0  0  0  0  0  0  0  0  0  0
    7.8770    1.0377   -0.4214 C   0  0  0  0  0  0  0  0  0  0  0  0
    4.9019    1.2699    0.1216 C   0  0  0  0  0  0  0  0  0  0  0  0
    7.2248    2.1016   -1.2792 C   0  0  0  0  0  0  0  0  0  0  0  0
    4.8987   -1.1367   -0.0773 C   0  0  0  0  0  0  0  0  0  0  0  0
    5.5421    2.6123    0.2775 C   0  0  0  0  0  0  0  0  0  0  0  0
    3.4937    1.2474    0.1353 C   0  0  0  0  0  0  0  0  0  0  0  0
    3.5007   -1.1493   -0.0750 C   0  0  0  0  0  0  0  0  0  0  0  0
    4.9604    3.5397    1.2822 C   0  0  0  0  0  0  0  0  0  0  0  0
    2.8049    0.0447    0.0385 C   0  0  0  0  0  0  0  0  0  0  0  0
    4.6186    4.8438    0.9167 C   0  0  0  0  0  0  0  0  0  0  0  0
    4.7624    3.0892    2.5905 C   0  0  0  0  0  0  0  0  0  0  0  0
    4.1395    5.7211    1.8889 C   0  0  0  0  0  0  0  0  0  0  0  0
    4.1863    3.9401    3.5287 C   0  0  0  0  0  0  0  0  0  0  0  0
    3.9217    5.2676    3.1916 C   0  0  0  0  0  0  0  0  0  0  0  0
    8.4760   -3.0434    0.2276 H   0  0  0  0  0  0  0  0  0  0  0  0
   10.0926   -0.6946   -0.9901 H   0  0  0  0  0  0  0  0  0  0  0  0
   10.4370   -2.4336   -1.1449 H   0  0  0  0  0  0  0  0  0  0  0  0
    8.2374   -2.7832   -2.3294 H   0  0  0  0  0  0  0  0  0  0  0  0
    7.8275   -1.0427   -2.1282 H   0  0  0  0  0  0  0  0  0  0  0  0
    8.3989   -0.7154    1.4884 H   0  0  0  0  0  0  0  0  0  0  0  0
    6.9749   -1.6908    1.2934 H   0  0  0  0  0  0  0  0  0  0  0  0
    6.5657    1.6816   -2.0471 H   0  0  0  0  0  0  0  0  0  0  0  0
    8.0305    2.6184   -1.8146 H   0  0  0  0  0  0  0  0  0  0  0  0
    5.4057   -2.0923   -0.1967 H   0  0  0  0  0  0  0  0  0  0  0  0
    2.9281    2.1721    0.2277 H   0  0  0  0  0  0  0  0  0  0  0  0
    2.9680   -2.0928   -0.1689 H   0  0  0  0  0  0  0  0  0  0  0  0
    4.7224    5.1731   -0.1142 H   0  0  0  0  0  0  0  0  0  0  0  0
    5.0585    2.0857    2.8829 H   0  0  0  0  0  0  0  0  0  0  0  0
    3.9306    6.7566    1.6329 H   0  0  0  0  0  0  0  0  0  0  0  0
    3.9548    3.5714    4.5240 H   0  0  0  0  0  0  0  0  0  0  0  0
    3.5460    5.9519    3.9481 H   0  0  0  0  0  0  0  0  0  0  0  0
  1 18  1  0  0  0  0
  2 10  2  0  0  0  0
  3  8  1  0  0  0  0
  3  9  1  0  0  0  0
  3 10  1  0  0  0  0
  4 12  1  0  0  0  0
  4 14  2  0  0  0  0
  5  6  1  0  0  0  0
  5  7  1  0  0  0  0
  5  8  1  0  0  0  0
  5 24  1  0  0  0  0
  6  7  1  0  0  0  0
  6 25  1  0  0  0  0
  6 26  1  0  0  0  0
  7 27  1  0  0  0  0
  7 28  1  0  0  0  0
  8 29  1  0  0  0  0
  8 30  1  0  0  0  0
  9 11  2  0  0  0  0
  9 13  1  0  0  0  0
 10 12  1  0  0  0  0
 11 14  1  0  0  0  0
 11 15  1  0  0  0  0
 12 31  1  0  0  0  0
 12 32  1  0  0  0  0
 13 16  2  0  0  0  0
 13 33  1  0  0  0  0
 14 17  1  0  0  0  0
 15 18  2  0  0  0  0
 15 34  1  0  0  0  0
 16 18  1  0  0  0  0
 16 35  1  0  0  0  0
 17 19  2  0  0  0  0
 17 20  1  0  0  0  0
 19 21  1  0  0  0  0
 19 36  1  0  0  0  0
 20 22  2  0  0  0  0
 20 37  1  0  0  0  0
 21 23  2  0  0  0  0
 21 38  1  0  0  0  0
 22 23  1  0  0  0  0
 22 39  1  0  0  0  0
 23 40  1  0  0  0  0
M  END
>  <DRUGBANK_ID>
DB01588

>  <COMMON_NAME>
Prazepam

>  <CAS_NUMBER>
2955-38-6

>  <UNII>
Q30VCC064M

>  <SYNONYMS>
Prazepam; Prazepamum

$$$$
