A51
 OpenBabel10282417163D

 25 26  0  0  0  0  0  0  0  0999 V2000
    1.7934   -0.3178   -0.1157 C   0  0  0  0  0  0  0  0  0  0  0  0
    1.3034    1.0708    0.2103 C   0  0  0  0  0  0  0  0  0  0  0  0
   -0.1538    0.9219    0.0347 C   0  0  0  0  0  0  0  0  0  0  0  0
   -0.4894   -0.5124    0.0289 C   0  0  0  0  0  0  0  0  0  0  0  0
    0.6782   -1.2079   -0.0078 O   0  0  0  0  0  0  0  0  0  0  0  0
   -1.6062   -1.0007    0.0554 O   0  0  0  0  0  0  0  0  0  0  0  0
   -1.0661    1.8802   -0.1540 C   0  0  0  0  0  0  0  0  0  0  0  0
   -0.8307    3.2264   -0.2659 N   0  0  0  0  0  0  0  0  0  0  0  0
   -1.7924    4.2463   -0.3063 C   0  0  0  0  0  0  0  0  0  0  0  0
   -3.0004    4.1547    0.3913 C   0  0  0  0  0  0  0  0  0  0  0  0
   -3.9389    5.1857    0.3343 C   0  0  0  0  0  0  0  0  0  0  0  0
   -3.6813    6.3211   -0.4294 C   0  0  0  0  0  0  0  0  0  0  0  0
   -2.4809    6.4294   -1.1274 C   0  0  0  0  0  0  0  0  0  0  0  0
   -1.5584    5.3807   -1.0949 C   0  0  0  0  0  0  0  0  0  0  0  0
    2.2039   -0.3804   -1.1296 H   0  0  0  0  0  0  0  0  0  0  0  0
    2.5678   -0.6378    0.5883 H   0  0  0  0  0  0  0  0  0  0  0  0
    1.7519    1.8223   -0.4458 H   0  0  0  0  0  0  0  0  0  0  0  0
    1.5320    1.3301    1.2495 H   0  0  0  0  0  0  0  0  0  0  0  0
   -2.1121    1.6030   -0.2899 H   0  0  0  0  0  0  0  0  0  0  0  0
    0.1199    3.5520   -0.1267 H   0  0  0  0  0  0  0  0  0  0  0  0
   -3.2062    3.2895    1.0153 H   0  0  0  0  0  0  0  0  0  0  0  0
   -4.8635    5.1027    0.8983 H   0  0  0  0  0  0  0  0  0  0  0  0
   -4.4189    7.1168   -0.4857 H   0  0  0  0  0  0  0  0  0  0  0  0
   -2.2646    7.3284   -1.6982 H   0  0  0  0  0  0  0  0  0  0  0  0
   -0.6673    5.4424   -1.7152 H   0  0  0  0  0  0  0  0  0  0  0  0
  1  2  1  0  0  0  0
  1  5  1  0  0  0  0
  1 15  1  0  0  0  0
  1 16  1  0  0  0  0
  2  3  1  0  0  0  0
  2 17  1  0  0  0  0
  2 18  1  0  0  0  0
  3  4  1  0  0  0  0
  3  7  2  0  0  0  0
  4  5  1  0  0  0  0
  4  6  2  0  0  0  0
  7  8  1  0  0  0  0
  7 19  1  0  0  0  0
  8  9  1  0  0  0  0
  8 20  1  0  0  0  0
  9 10  2  0  0  0  0
  9 14  1  0  0  0  0
 10 11  1  0  0  0  0
 10 21  1  0  0  0  0
 11 12  2  0  0  0  0
 11 22  1  0  0  0  0
 12 13  1  0  0  0  0
 12 23  1  0  0  0  0
 13 14  2  0  0  0  0
 13 24  1  0  0  0  0
 14 25  1  0  0  0  0
M  END
>  <DRUGBANK_ID>
DB07317

>  <COMMON_NAME>
(3E)-3-[(phenylamino)methylidene]dihydrofuran-2(3H)-one

$$$$
