
 OpenBabel10282417233D

  2  1  0  0  0  0  0  0  0  0999 V2000
    1.0685    0.0575    0.0448 Tl  0  0  0  0  0  0  0  0  0  0  0  0
    3.5385    0.0575    0.0448 Cl  0  0  0  0  0  0  0  0  0  0  0  0
  2  1  1  0  0  0  0
M  ISO  1   1 201
M  END
>  <DRUGBANK_ID>
DB16624

>  <COMMON_NAME>
Thallous chloride Tl-201

>  <CAS_NUMBER>
55172-29-7

>  <UNII>
3I8Y076A0E

>  <SYNONYMS>
Thallium (201Tl) chloride; Thallous chloride Tl 201

$$$$
