SBZ
 OpenBabel10282417133D

 30 31  0  0  0  0  0  0  0  0999 V2000
   -0.0170   -1.1260    0.0300 B   0  0  0  0  0  0  0  0  0  0  0  0
   -0.0404   -2.6230    0.1224 O   0  0  0  0  0  0  0  0  0  0  0  0
   -1.1450   -0.3660   -0.0620 O   0  0  0  0  0  0  0  0  0  0  0  0
    1.1390   -0.3930    0.0300 O   0  0  0  0  0  0  0  0  0  0  0  0
   -0.7540    1.0160    0.0990 C   0  0  0  0  0  0  0  0  0  0  0  0
    0.7790    1.0080   -0.0840 C   0  0  0  0  0  0  0  0  0  0  0  0
   -1.3854   -3.0777    0.0976 C   0  0  0  0  0  0  0  0  0  0  0  0
   -2.1423   -2.4855    1.2752 C   0  0  0  0  0  0  0  0  0  0  0  0
   -2.6931   -3.2769    2.1882 C   0  0  0  0  0  0  0  0  0  0  0  0
   -2.1485   -1.1080    1.4204 C   0  0  0  0  0  0  0  0  0  0  0  0
   -3.1488   -2.7612    3.3774 C   0  0  0  0  0  0  0  0  0  0  0  0
   -2.5095   -0.6698    2.7164 C   0  0  0  0  0  0  0  0  0  0  0  0
   -3.1308   -1.4144    3.6128 C   0  0  0  0  0  0  0  0  0  0  0  0
   -3.7902   -0.8070    4.8402 C   0  0  0  0  0  0  0  0  0  0  0  0
   -3.7515    0.4940    5.0319 N   0  3  0  0  0  0  0  0  0  0  0  0
   -4.4713   -1.6733    5.8132 N   0  0  0  0  0  0  0  0  0  0  0  0
   -1.2438    1.6614   -0.5999 H   0  0  0  0  0  0  0  0  0  0  0  0
   -1.0167    1.3723    1.0731 H   0  0  0  0  0  0  0  0  0  0  0  0
    1.0848    1.4372   -1.0152 H   0  0  0  0  0  0  0  0  0  0  0  0
    1.2561    1.5866    0.6792 H   0  0  0  0  0  0  0  0  0  0  0  0
   -1.8493   -2.7695   -0.8160 H   0  0  0  0  0  0  0  0  0  0  0  0
   -1.4021   -4.1456    0.1635 H   0  0  0  0  0  0  0  0  0  0  0  0
   -2.7829   -4.3256    1.9960 H   0  0  0  0  0  0  0  0  0  0  0  0
   -1.9026   -0.4363    0.6247 H   0  0  0  0  0  0  0  0  0  0  0  0
   -3.5233   -3.4231    4.1302 H   0  0  0  0  0  0  0  0  0  0  0  0
   -2.2619    0.3348    2.9892 H   0  0  0  0  0  0  0  0  0  0  0  0
   -4.1940    0.9016    5.8555 H   0  0  0  0  0  0  0  0  0  0  0  0
   -3.2789    1.0951    4.3567 H   0  0  0  0  0  0  0  0  0  0  0  0
   -4.5014   -2.6819    5.6646 H   0  0  0  0  0  0  0  0  0  0  0  0
   -4.9139   -1.2657    6.6368 H   0  0  0  0  0  0  0  0  0  0  0  0
  1  2  1  0  0  0  0
  1  3  1  0  0  0  0
  1  4  1  0  0  0  0
  2  7  1  0  0  0  0
  3  5  1  0  0  0  0
  4  6  1  0  0  0  0
  5  6  1  0  0  0  0
  5 17  1  0  0  0  0
  5 18  1  0  0  0  0
  6 19  1  0  0  0  0
  6 20  1  0  0  0  0
  7  8  1  0  0  0  0
  7 21  1  0  0  0  0
  7 22  1  0  0  0  0
  8  9  2  0  0  0  0
  8 10  1  0  0  0  0
  9 11  1  0  0  0  0
  9 23  1  0  0  0  0
 10 12  2  0  0  0  0
 10 24  1  0  0  0  0
 11 13  2  0  0  0  0
 11 25  1  0  0  0  0
 12 13  1  0  0  0  0
 12 26  1  0  0  0  0
 13 14  1  0  0  0  0
 14 15  2  0  0  0  0
 14 16  1  0  0  0  0
 15 27  1  0  0  0  0
 15 28  1  0  0  0  0
 16 29  1  0  0  0  0
 16 30  1  0  0  0  0
M  CHG  1  15   1
M  END
>  <DRUGBANK_ID>
DB04109

>  <SECONDARY_ACCESSION_NUMBERS>
EXPT02862

>  <COMMON_NAME>
[4-(1,3,2-Dioxaborolan-2-Yloxy)Methyl]Benzamidine

$$$$
