
 OpenBabel10282417213D

 93100  0  0  1  0  0  0  0  0999 V2000
   -2.3888   -0.2141   -0.4004 C   0  0  0  0  0  0  0  0  0  0  0  0
   -1.2206   -0.0269    0.6040 C   0  0  1  0  0  0  0  0  0  0  0  0
   -0.1724   -1.1657    0.6714 C   0  0  0  0  0  0  0  0  0  0  0  0
    0.9443   -1.1103   -0.2922 N   0  0  3  0  0  0  0  0  0  0  0  0
    1.6745    0.1553   -0.1062 C   0  0  0  0  0  0  0  0  0  0  0  0
    0.7917    1.4126   -0.2161 C   0  0  0  0  0  0  0  0  0  0  0  0
   -0.5203    1.2756    0.4746 N   0  0  0  0  0  0  0  0  0  0  0  0
   -0.8390    2.3375    1.3017 C   0  0  0  0  0  0  0  0  0  0  0  0
   -0.9602    2.2601    2.6879 C   0  0  0  0  0  0  0  0  0  0  0  0
   -1.2179    3.4191    3.4375 C   0  0  0  0  0  0  0  0  0  0  0  0
   -1.3544    4.6419    2.7852 C   0  0  0  0  0  0  0  0  0  0  0  0
   -1.7142    5.8029    3.5127 N   0  0  0  0  0  0  0  0  0  0  0  0
   -1.7237    7.0276    2.8378 C   0  0  0  0  0  0  0  0  0  0  0  0
   -2.6149    7.3220    1.8796 C   0  0  0  0  0  0  0  0  0  0  0  0
   -2.6889    8.6017    1.2053 C   0  0  0  0  0  0  0  0  0  0  0  0
   -1.7449    9.5140    1.4930 C   0  0  0  0  0  0  0  0  0  0  0  0
   -0.7440    9.2653    2.4208 N   0  0  0  0  0  0  0  0  0  0  0  0
    0.2755   10.2745    2.6582 C   0  0  0  0  0  0  0  0  0  0  0  0
   -0.6659    8.0674    3.1492 C   0  0  0  0  0  0  0  0  0  0  0  0
    0.1983    7.8331    3.9951 O   0  0  0  0  0  0  0  0  0  0  0  0
   -3.7916    8.9322    0.2591 C   0  0  0  0  0  0  0  0  0  0  0  0
   -5.1645    8.9113    0.6477 C   0  0  0  0  0  0  0  0  0  0  0  0
   -5.5102    8.5473    2.0800 C   0  0  0  0  0  0  0  0  0  0  0  0
   -5.8403    9.6532    2.9183 O   0  0  0  0  0  0  0  0  0  0  0  0
   -6.1586    9.1226   -0.3553 C   0  0  0  0  0  0  0  0  0  0  0  0
   -5.8052    9.4247   -1.6303 N   0  0  0  0  0  0  0  0  0  0  0  0
   -4.4883    9.4533   -1.9569 C   0  0  0  0  0  0  0  0  0  0  0  0
   -3.4608    9.2013   -1.0689 C   0  0  0  0  0  0  0  0  0  0  0  0
   -7.5751    9.1436   -0.0473 N   0  0  0  0  0  0  0  0  0  0  0  0
   -7.9813   10.1138    0.9479 C   0  0  0  0  0  0  0  0  0  0  0  0
   -9.4086   10.2014    1.4188 C   0  0  0  0  0  0  0  0  0  0  0  0
  -10.3024    9.3168    0.7503 N   0  0  0  0  0  0  0  0  0  0  0  0
   -9.9241    8.4371   -0.2382 C   0  0  0  0  0  0  0  0  0  0  0  0
  -11.1185    7.7598   -0.5906 C   0  0  0  0  0  0  0  0  0  0  0  0
  -12.1841    8.2750    0.2138 C   0  0  0  0  0  0  0  0  0  0  0  0
  -11.6176    9.2063    1.0264 C   0  0  0  0  0  0  0  0  0  0  0  0
  -12.5271    9.8737    1.9872 C   0  0  0  0  0  0  0  0  0  0  0  0
  -13.9402    9.5025    1.3917 C   0  0  0  0  0  0  0  0  0  0  0  0
  -14.4873   10.6536    0.5215 C   0  0  0  0  0  0  0  0  0  0  0  0
  -14.9713    9.2979    2.5162 C   0  0  0  0  0  0  0  0  0  0  0  0
  -13.6590    8.1797    0.5157 C   0  0  0  0  0  0  0  0  0  0  0  0
   -8.5140    8.3128   -0.7196 C   0  0  0  0  0  0  0  0  0  0  0  0
   -8.1885    7.4995   -1.5647 O   0  0  0  0  0  0  0  0  0  0  0  0
   -1.2501    4.7257    1.4431 N   0  0  0  0  0  0  0  0  0  0  0  0
   -1.0025    3.6004    0.7498 C   0  0  0  0  0  0  0  0  0  0  0  0
    0.6686   -1.3585   -1.7239 C   0  0  0  0  0  0  0  0  0  0  0  0
   -0.1495   -0.3199   -2.5025 C   0  0  0  0  0  0  0  0  0  0  0  0
   -1.0140   -1.3744   -3.0206 O   0  0  0  0  0  0  0  0  0  0  0  0
   -0.5317   -2.2837   -1.9836 C   0  0  0  0  0  0  0  0  0  0  0  0
   -3.0663    0.6413   -0.4015 H   0  0  0  0  0  0  0  0  0  0  0  0
   -2.1859   -0.3146   -1.4529 H   0  0  0  0  0  0  0  0  0  0  0  0
   -2.9273   -1.1462   -0.2008 H   0  0  0  0  0  0  0  0  0  0  0  0
   -1.7487   -0.0572    1.5644 H   0  0  0  0  0  0  0  0  0  0  0  0
    0.2897   -1.0913    1.6719 H   0  0  0  0  0  0  0  0  0  0  0  0
   -0.6374   -2.1563    0.7046 H   0  0  0  0  0  0  0  0  0  0  0  0
    2.1410    0.1491    0.8898 H   0  0  0  0  0  0  0  0  0  0  0  0
    2.5151    0.2160   -0.8104 H   0  0  0  0  0  0  0  0  0  0  0  0
    1.3733    2.2699    0.1504 H   0  0  0  0  0  0  0  0  0  0  0  0
    0.6297    1.6660   -1.2670 H   0  0  0  0  0  0  0  0  0  0  0  0
   -0.8278    1.3155    3.2086 H   0  0  0  0  0  0  0  0  0  0  0  0
   -1.3045    3.3563    4.5170 H   0  0  0  0  0  0  0  0  0  0  0  0
   -1.2167    5.8609    4.3966 H   0  0  0  0  0  0  0  0  0  0  0  0
   -3.3625    6.5723    1.6319 H   0  0  0  0  0  0  0  0  0  0  0  0
   -1.7381   10.4917    1.0191 H   0  0  0  0  0  0  0  0  0  0  0  0
    0.2668   10.5556    3.7157 H   0  0  0  0  0  0  0  0  0  0  0  0
    1.2565    9.8543    2.4145 H   0  0  0  0  0  0  0  0  0  0  0  0
    0.1097   11.1686    2.0481 H   0  0  0  0  0  0  0  0  0  0  0  0
   -6.2914    7.7795    2.0900 H   0  0  0  0  0  0  0  0  0  0  0  0
   -4.6863    8.1028    2.6215 H   0  0  0  0  0  0  0  0  0  0  0  0
   -5.4461   10.4531    2.5361 H   0  0  0  0  0  0  0  0  0  0  0  0
   -4.2670    9.6819   -2.9983 H   0  0  0  0  0  0  0  0  0  0  0  0
   -2.4297    9.1884   -1.4147 H   0  0  0  0  0  0  0  0  0  0  0  0
   -7.5129    9.7994    1.8527 H   0  0  0  0  0  0  0  0  0  0  0  0
   -7.5810   11.1017    0.6906 H   0  0  0  0  0  0  0  0  0  0  0  0
   -9.4458    9.9313    2.4830 H   0  0  0  0  0  0  0  0  0  0  0  0
   -9.7835   11.2213    1.3154 H   0  0  0  0  0  0  0  0  0  0  0  0
  -11.1812    6.9839   -1.3458 H   0  0  0  0  0  0  0  0  0  0  0  0
  -12.3635   10.9518    2.0483 H   0  0  0  0  0  0  0  0  0  0  0  0
  -12.4007    9.4266    2.9802 H   0  0  0  0  0  0  0  0  0  0  0  0
  -15.4778   10.4021    0.1221 H   0  0  0  0  0  0  0  0  0  0  0  0
  -14.6115   11.5664    1.1199 H   0  0  0  0  0  0  0  0  0  0  0  0
  -13.8323   10.8912   -0.3199 H   0  0  0  0  0  0  0  0  0  0  0  0
  -14.7080    8.4682    3.1771 H   0  0  0  0  0  0  0  0  0  0  0  0
  -15.0496   10.2022    3.1366 H   0  0  0  0  0  0  0  0  0  0  0  0
  -15.9717    9.1055    2.1103 H   0  0  0  0  0  0  0  0  0  0  0  0
  -14.2936    8.1505   -0.3738 H   0  0  0  0  0  0  0  0  0  0  0  0
  -13.8629    7.2966    1.1341 H   0  0  0  0  0  0  0  0  0  0  0  0
   -0.9520    3.7287   -0.3274 H   0  0  0  0  0  0  0  0  0  0  0  0
    1.5608   -1.6307   -2.2960 H   0  0  0  0  0  0  0  0  0  0  0  0
   -0.6976    0.4487   -1.9652 H   0  0  0  0  0  0  0  0  0  0  0  0
    0.3289    0.2558   -3.2972 H   0  0  0  0  0  0  0  0  0  0  0  0
   -0.3090   -3.2767   -2.3751 H   0  0  0  0  0  0  0  0  0  0  0  0
   -1.2912   -2.4242   -1.2090 H   0  0  0  0  0  0  0  0  0  0  0  0
  1 50  1  0  0  0  0
  1 51  1  0  0  0  0
  1 52  1  0  0  0  0
  2  1  1  0  0  0  0
  2  3  1  0  0  0  0
  2  7  1  0  0  0  0
  2 53  1  1  0  0  0
  3  4  1  0  0  0  0
  3 54  1  0  0  0  0
  3 55  1  0  0  0  0
  4  5  1  0  0  0  0
  4 46  1  0  0  0  0
  5  6  1  0  0  0  0
  5 56  1  0  0  0  0
  5 57  1  0  0  0  0
  6  7  1  0  0  0  0
  6 58  1  0  0  0  0
  6 59  1  0  0  0  0
  7  8  1  0  0  0  0
  8  9  2  0  0  0  0
  8 45  1  0  0  0  0
  9 10  1  0  0  0  0
  9 60  1  0  0  0  0
 10 11  2  0  0  0  0
 10 61  1  0  0  0  0
 11 12  1  0  0  0  0
 11 44  1  0  0  0  0
 12 13  1  0  0  0  0
 12 62  1  0  0  0  0
 13 14  2  0  0  0  0
 13 19  1  0  0  0  0
 14 15  1  0  0  0  0
 14 63  1  0  0  0  0
 15 16  2  0  0  0  0
 15 21  1  0  0  0  0
 16 17  1  0  0  0  0
 16 64  1  0  0  0  0
 17 18  1  0  0  0  0
 17 19  1  0  0  0  0
 18 65  1  0  0  0  0
 18 66  1  0  0  0  0
 18 67  1  0  0  0  0
 19 20  2  0  0  0  0
 21 22  2  0  0  0  0
 21 28  1  0  0  0  0
 22 23  1  0  0  0  0
 22 25  1  0  0  0  0
 23 24  1  0  0  0  0
 23 68  1  0  0  0  0
 23 69  1  0  0  0  0
 24 70  1  0  0  0  0
 25 26  2  0  0  0  0
 25 29  1  0  0  0  0
 26 27  1  0  0  0  0
 27 28  2  0  0  0  0
 27 71  1  0  0  0  0
 28 72  1  0  0  0  0
 29 30  1  0  0  0  0
 29 42  1  0  0  0  0
 30 31  1  0  0  0  0
 30 73  1  0  0  0  0
 30 74  1  0  0  0  0
 31 32  1  0  0  0  0
 31 75  1  0  0  0  0
 31 76  1  0  0  0  0
 32 33  1  0  0  0  0
 32 36  1  0  0  0  0
 33 34  2  0  0  0  0
 33 42  1  0  0  0  0
 34 35  1  0  0  0  0
 34 77  1  0  0  0  0
 35 36  2  0  0  0  0
 35 41  1  0  0  0  0
 36 37  1  0  0  0  0
 37 38  1  0  0  0  0
 37 78  1  0  0  0  0
 37 79  1  0  0  0  0
 38 39  1  0  0  0  0
 38 40  1  0  0  0  0
 38 41  1  0  0  0  0
 39 80  1  0  0  0  0
 39 81  1  0  0  0  0
 39 82  1  0  0  0  0
 40 83  1  0  0  0  0
 40 84  1  0  0  0  0
 40 85  1  0  0  0  0
 41 86  1  0  0  0  0
 41 87  1  0  0  0  0
 42 43  2  0  0  0  0
 44 45  2  0  0  0  0
 45 88  1  0  0  0  0
 46 47  1  0  0  0  0
 46 49  1  0  0  0  0
 46 89  1  0  0  0  0
 47 48  1  0  0  0  0
 47 90  1  0  0  0  0
 47 91  1  0  0  0  0
 48 49  1  0  0  0  0
 49 92  1  0  0  0  0
 49 93  1  0  0  0  0
M  END
>  <DRUGBANK_ID>
DB14785

>  <COMMON_NAME>
Fenebrutinib

>  <CAS_NUMBER>
1434048-34-6

>  <UNII>
E9L2885WUL

>  <SYNONYMS>
Fenebrutinib

$$$$
