LKM
 OpenBabel10282417173D

 53 55  0  0  0  0  0  0  0  0999 V2000
   -3.3854   -0.7082    0.0810 N   0  0  0  0  0  0  0  0  0  0  0  0
   -2.2977   -0.3423   -0.0429 C   0  0  0  0  0  0  0  0  0  0  0  0
   -0.9354    0.1018   -0.1428 C   0  0  0  0  0  0  0  0  0  0  0  0
   -0.6396    1.4704   -0.1316 C   0  0  0  0  0  0  0  0  0  0  0  0
    0.6883    1.8945   -0.0482 C   0  0  0  0  0  0  0  0  0  0  0  0
    0.0970   -0.8393   -0.1519 C   0  0  0  0  0  0  0  0  0  0  0  0
    1.4188   -0.4083   -0.1449 C   0  0  0  0  0  0  0  0  0  0  0  0
    1.7338    0.9540   -0.0815 C   0  0  0  0  0  0  0  0  0  0  0  0
    3.1625    1.3932    0.1297 C   0  0  0  0  0  0  0  0  0  0  0  0
    3.8356    0.8202    1.2675 O   0  0  0  0  0  0  0  0  0  0  0  0
    3.3404    1.1500    2.5008 C   0  0  0  0  0  0  0  0  0  0  0  0
    1.9916    1.0582    2.8390 C   0  0  0  0  0  0  0  0  0  0  0  0
    1.5026    1.3819    4.0934 C   0  0  0  0  0  0  0  0  0  0  0  0
    4.2438    1.4871    3.4998 C   0  0  0  0  0  0  0  0  0  0  0  0
    3.7673    1.7638    4.8015 C   0  0  0  0  0  0  0  0  0  0  0  0
    2.3774    1.7155    5.0978 C   0  0  0  0  0  0  0  0  0  0  0  0
    1.8604    1.9625    6.3818 C   0  0  0  0  0  0  0  0  0  0  0  0
    4.6204    2.0577    5.8498 C   0  0  0  0  0  0  0  0  0  0  0  0
    4.0776    2.2307    7.1286 C   0  0  0  0  0  0  0  0  0  0  0  0
    2.7279    2.2350    7.4145 C   0  0  0  0  0  0  0  0  0  0  0  0
    2.1389    2.5334    9.0639 S   0  0  0  0  0  0  0  0  0  0  0  0
    1.1455    3.5773    9.0349 O   0  0  0  0  0  0  0  0  0  0  0  0
    1.7853    1.2460    9.6243 O   0  0  0  0  0  0  0  0  0  0  0  0
    3.4724    3.0870   10.0218 N   0  0  0  0  0  0  0  0  0  0  0  0
    4.2202    4.3205    9.6259 C   0  0  1  0  0  0  0  0  0  0  0  0
    3.3562    5.5820    9.5230 C   0  0  0  0  0  0  0  0  0  0  0  0
    3.6412    6.6051   10.3531 O   0  0  0  0  0  0  0  0  0  0  0  0
    2.4746    5.7162    8.6871 O   0  0  0  0  0  0  0  0  0  0  0  0
    5.4848    4.4906   10.5142 C   0  0  0  0  0  0  0  0  0  0  0  0
    6.5043    3.3337   10.5380 C   0  0  0  0  0  0  0  0  0  0  0  0
    7.1694    3.0641    9.2008 C   0  0  0  0  0  0  0  0  0  0  0  0
    8.4984    3.1819    9.1214 O   0  0  0  0  0  0  0  0  0  0  0  0
    6.5754    2.7733    8.1842 O   0  0  0  0  0  0  0  0  0  0  0  0
    2.3921   -1.3246   -0.0560 F   0  0  0  0  0  0  0  0  0  0  0  0
    4.6097    4.2119    8.6169 H   0  0  0  0  0  0  0  0  0  0  0  0
   -1.4366    2.2127   -0.1345 H   0  0  0  0  0  0  0  0  0  0  0  0
    0.8996    2.9458    0.1503 H   0  0  0  0  0  0  0  0  0  0  0  0
   -0.1100   -1.9057   -0.1163 H   0  0  0  0  0  0  0  0  0  0  0  0
    3.7205    1.0876   -0.7645 H   0  0  0  0  0  0  0  0  0  0  0  0
    3.2447    2.4868    0.1766 H   0  0  0  0  0  0  0  0  0  0  0  0
    1.2416    0.6887    2.1677 H   0  0  0  0  0  0  0  0  0  0  0  0
    0.4332    1.3315    4.2669 H   0  0  0  0  0  0  0  0  0  0  0  0
    5.3090    1.5126    3.2735 H   0  0  0  0  0  0  0  0  0  0  0  0
    0.7950    1.8988    6.5805 H   0  0  0  0  0  0  0  0  0  0  0  0
    5.6989    2.1183    5.7092 H   0  0  0  0  0  0  0  0  0  0  0  0
    4.7202    2.3210    7.9692 H   0  0  0  0  0  0  0  0  0  0  0  0
    3.1405    3.0928   10.9906 H   0  0  0  0  0  0  0  0  0  0  0  0
    4.4322    6.5560   10.9122 H   0  0  0  0  0  0  0  0  0  0  0  0
    6.0198    5.3866   10.1714 H   0  0  0  0  0  0  0  0  0  0  0  0
    5.1697    4.6880   11.5488 H   0  0  0  0  0  0  0  0  0  0  0  0
    7.2893    3.5809   11.2634 H   0  0  0  0  0  0  0  0  0  0  0  0
    6.0248    2.4190   10.9054 H   0  0  0  0  0  0  0  0  0  0  0  0
    8.9922    3.4008    9.9233 H   0  0  0  0  0  0  0  0  0  0  0  0
  1  2  3  0  0  0  0
  2  3  1  0  0  0  0
  3  4  1  0  0  0  0
  3  6  2  0  0  0  0
  4  5  2  0  0  0  0
  4 36  1  0  0  0  0
  5  8  1  0  0  0  0
  5 37  1  0  0  0  0
  6  7  1  0  0  0  0
  6 38  1  0  0  0  0
  7  8  2  0  0  0  0
  7 34  1  0  0  0  0
  8  9  1  0  0  0  0
  9 10  1  0  0  0  0
  9 39  1  0  0  0  0
  9 40  1  0  0  0  0
 10 11  1  0  0  0  0
 11 12  1  0  0  0  0
 11 14  2  0  0  0  0
 12 13  2  0  0  0  0
 12 41  1  0  0  0  0
 13 16  1  0  0  0  0
 13 42  1  0  0  0  0
 14 15  1  0  0  0  0
 14 43  1  0  0  0  0
 15 16  2  0  0  0  0
 15 18  1  0  0  0  0
 16 17  1  0  0  0  0
 17 20  2  0  0  0  0
 17 44  1  0  0  0  0
 18 19  2  0  0  0  0
 18 45  1  0  0  0  0
 19 20  1  0  0  0  0
 19 46  1  0  0  0  0
 20 21  1  0  0  0  0
 21 22  2  0  0  0  0
 21 23  2  0  0  0  0
 21 24  1  0  0  0  0
 24 47  1  0  0  0  0
 25 24  1  0  0  0  0
 25 26  1  0  0  0  0
 25 29  1  0  0  0  0
 25 35  1  6  0  0  0
 26 27  1  0  0  0  0
 26 28  2  0  0  0  0
 27 48  1  0  0  0  0
 29 30  1  0  0  0  0
 29 49  1  0  0  0  0
 29 50  1  0  0  0  0
 30 31  1  0  0  0  0
 30 51  1  0  0  0  0
 30 52  1  0  0  0  0
 31 32  1  0  0  0  0
 31 33  2  0  0  0  0
 32 53  1  0  0  0  0
M  END
>  <DRUGBANK_ID>
DB08112

>  <COMMON_NAME>
N-({6-[(4-CYANO-2-FLUOROBENZYL)OXY]NAPHTHALEN-2-YL}SULFONYL)-D-GLUTAMIC ACID

$$$$
