
 OpenBabel10282417133D

114116  0  0  0  0  0  0  0  0999 V2000
    6.6486  -17.1271   -0.9216 C   0  0  2  0  0  0  0  0  0  0  0  0
    7.1376  -15.9729   -2.5057 O   0  0  0  0  0  0  0  0  0  0  0  0
    6.1217  -16.5338   -2.6096 C   0  0  1  0  0  0  0  0  0  0  0  0
    6.4041  -14.3898   -3.1697 C   0  0  1  0  0  0  0  0  0  0  0  0
    5.3288  -15.2938   -3.1215 C   0  0  1  0  0  0  0  0  0  0  0  0
    6.7501  -17.6521   -3.9182 O   0  0  0  0  0  0  0  0  0  0  0  0
    1.2107  -12.0846   -1.6774 C   0  0  0  0  0  0  0  0  0  0  0  0
    2.0506  -10.8490   -1.3533 C   0  0  0  0  0  0  0  0  0  0  0  0
    1.3014  -12.4942   -3.0616 N   0  0  0  0  0  0  0  0  0  0  0  0
    1.9212  -13.6211   -3.4772 C   0  0  0  0  0  0  0  0  0  0  0  0
    2.2490  -14.4635   -2.6503 O   0  0  0  0  0  0  0  0  0  0  0  0
    3.3278  -14.3807   -5.4770 C   0  0  0  0  0  0  0  0  0  0  0  0
    2.0438  -13.7699   -5.0062 C   0  0  0  0  0  0  0  0  0  0  0  0
    3.0278  -15.9222   -5.2179 N   0  0  0  0  0  0  0  0  0  0  0  0
    4.1439  -17.0202   -6.8370 O   0  0  0  0  0  0  0  0  0  0  0  0
    3.7433  -17.0886   -5.6607 C   0  0  0  0  0  0  0  0  0  0  0  0
    7.4368  -18.1350   -2.2959 C   0  0  0  0  0  0  0  0  0  0  0  0
    3.7814  -17.0573   -2.3152 C   0  0  0  0  0  0  0  0  0  0  0  0
    5.3227  -18.2925   -2.7901 C   0  0  0  0  0  0  0  0  0  0  0  0
    4.9466  -19.2187   -1.7408 C   0  0  0  0  0  0  0  0  0  0  0  0
    4.5613  -18.3567   -4.4838 C   0  0  1  0  0  0  0  0  0  0  0  0
    3.5001  -19.2160   -4.2016 O   0  0  0  0  0  0  0  0  0  0  0  0
    8.2088  -16.5987   -1.3523 O   0  0  0  0  0  0  0  0  0  0  0  0
    7.8907  -14.2221   -1.6594 O   0  0  0  0  0  0  0  0  0  0  0  0
    6.6648  -12.1062   -1.9898 O   0  0  0  0  0  0  0  0  0  0  0  0
    7.3275  -14.5779    0.2106 O   0  0  0  0  0  0  0  0  0  0  0  0
    5.2882  -16.0835   -0.3426 O   0  0  0  0  0  0  0  0  0  0  0  0
    9.2223  -11.8819   -2.0830 O   0  0  0  0  0  0  0  0  0  0  0  0
    8.1335  -12.5037    0.1226 O   0  0  0  0  0  0  0  0  0  0  0  0
    6.5895  -15.1528   -1.0010 P   0  0  3  0  0  0  0  0  0  0  0  0
    8.0852  -12.6228   -1.4715 P   0  0  3  0  0  0  0  0  0  0  0  0
    5.7908  -13.0387   -2.5687 C   0  0  0  0  0  0  0  0  0  0  0  0
    4.7714  -15.9516   -4.1495 O   0  0  0  0  0  0  0  0  0  0  0  0
    5.7283  -15.0620   -6.0510 O   0  0  0  0  0  0  0  0  0  0  0  0
    7.3752  -15.5840   -4.6492 O   0  0  0  0  0  0  0  0  0  0  0  0
    6.0824  -16.4103   -5.1808 P   0  0  0  0  0  0  0  0  0  0  0  0
    7.2558  -16.8209   -6.1039 O   0  0  0  0  0  0  0  0  0  0  0  0
    6.6925  -16.5758    0.8906 N   0  0  0  0  0  0  0  0  0  0  0  0
    6.0387  -17.5842    1.6024 C   0  0  0  0  0  0  0  0  0  0  0  0
    5.9610  -15.3082    1.6518 C   0  0  0  0  0  0  0  0  0  0  0  0
    5.1839  -17.0007    2.5143 C   0  0  0  0  0  0  0  0  0  0  0  0
    5.9795  -18.8466    1.1737 N   0  0  0  0  0  0  0  0  0  0  0  0
    5.0897  -15.6594    2.5320 N   0  0  0  0  0  0  0  0  0  0  0  0
    4.3711  -17.8372    3.2257 C   0  0  0  0  0  0  0  0  0  0  0  0
    5.0332  -19.5382    1.8138 C   0  0  0  0  0  0  0  0  0  0  0  0
    4.2767  -19.1234    2.8503 N   0  0  0  0  0  0  0  0  0  0  0  0
    3.6482  -17.2557    4.2474 N   0  0  0  0  0  0  0  0  0  0  0  0
    1.5735   -9.3692   -2.2962 S   0  0  0  0  0  0  0  0  0  0  0  0
    2.4469  -10.7569   -4.3546 O   0  0  0  0  0  0  0  0  0  0  0  0
    1.9134   -9.7099   -3.9960 C   0  0  0  0  0  0  0  0  0  0  0  0
    1.6030   -8.6673   -5.0327 C   0  0  0  0  0  0  0  0  0  0  0  0
    0.0384   -7.4077   -3.7110 O   0  0  0  0  0  0  0  0  0  0  0  0
    0.2669   -7.9703   -4.9904 C   0  0  2  0  0  0  0  0  0  0  0  0
   -0.9623   -8.8040   -5.3591 C   0  0  0  0  0  0  0  0  0  0  0  0
   -2.2271   -7.9335   -5.1868 C   0  0  0  0  0  0  0  0  0  0  0  0
   -2.1414   -6.6874   -6.0724 C   0  0  0  0  0  0  0  0  0  0  0  0
   -1.9948   -7.1058   -7.5370 C   0  0  0  0  0  0  0  0  0  0  0  0
   -3.2123   -7.9237   -7.9801 C   0  0  0  0  0  0  0  0  0  0  0  0
   -4.4965   -7.1101   -7.8255 C   0  0  0  0  0  0  0  0  0  0  0  0
   -4.4211   -5.8553   -8.6782 C   0  0  0  0  0  0  0  0  0  0  0  0
    7.5874  -17.8005   -0.4769 H   0  0  0  0  0  0  0  0  0  0  0  0
    5.4228  -16.9034   -1.9225 H   0  0  0  0  0  0  0  0  0  0  0  0
    7.0858  -13.9919   -3.9339 H   0  0  0  0  0  0  0  0  0  0  0  0
    4.6997  -14.8592   -2.3452 H   0  0  0  0  0  0  0  0  0  0  0  0
    7.6411  -17.4225   -4.3663 H   0  0  0  0  0  0  0  0  0  0  0  0
    0.1510  -11.8967   -1.4930 H   0  0  0  0  0  0  0  0  0  0  0  0
    1.5236  -12.9028   -1.0163 H   0  0  0  0  0  0  0  0  0  0  0  0
    1.8841  -10.6162   -0.2899 H   0  0  0  0  0  0  0  0  0  0  0  0
    3.1235  -11.0373   -1.4608 H   0  0  0  0  0  0  0  0  0  0  0  0
    1.2341  -11.7854   -3.7770 H   0  0  0  0  0  0  0  0  0  0  0  0
    4.1426  -13.8423   -4.9098 H   0  0  0  0  0  0  0  0  0  0  0  0
    3.6223  -14.2422   -6.5185 H   0  0  0  0  0  0  0  0  0  0  0  0
    1.8426  -12.8573   -5.5597 H   0  0  0  0  0  0  0  0  0  0  0  0
    1.2905  -14.5073   -5.2719 H   0  0  0  0  0  0  0  0  0  0  0  0
    2.9935  -15.8970   -4.2236 H   0  0  0  0  0  0  0  0  0  0  0  0
    8.2374  -17.6097   -2.9529 H   0  0  0  0  0  0  0  0  0  0  0  0
    8.1370  -18.9604   -2.5155 H   0  0  0  0  0  0  0  0  0  0  0  0
    3.6016  -16.0481   -2.7325 H   0  0  0  0  0  0  0  0  0  0  0  0
    2.7537  -17.2819   -2.5266 H   0  0  0  0  0  0  0  0  0  0  0  0
    3.8062  -16.5068   -1.3692 H   0  0  0  0  0  0  0  0  0  0  0  0
    5.6088  -20.0432   -1.8982 H   0  0  0  0  0  0  0  0  0  0  0  0
    5.2130  -18.7229   -0.8260 H   0  0  0  0  0  0  0  0  0  0  0  0
    3.8704  -19.2401   -1.6959 H   0  0  0  0  0  0  0  0  0  0  0  0
    5.3464  -18.8206   -5.1069 H   0  0  0  0  0  0  0  0  0  0  0  0
    2.9626  -18.6314   -3.6492 H   0  0  0  0  0  0  0  0  0  0  0  0
    4.6844  -16.1282    0.4414 H   0  0  0  0  0  0  0  0  0  0  0  0
    8.5244  -13.3754    0.4089 H   0  0  0  0  0  0  0  0  0  0  0  0
    5.2754  -12.6054   -3.4428 H   0  0  0  0  0  0  0  0  0  0  0  0
    5.0167  -13.1362   -1.8096 H   0  0  0  0  0  0  0  0  0  0  0  0
    5.3956  -15.3655   -6.9172 H   0  0  0  0  0  0  0  0  0  0  0  0
    7.7170  -15.9464   -3.8112 H   0  0  0  0  0  0  0  0  0  0  0  0
    5.7847  -14.3119    1.1699 H   0  0  0  0  0  0  0  0  0  0  0  0
    4.8758  -20.5446    1.4420 H   0  0  0  0  0  0  0  0  0  0  0  0
    3.9478  -16.2929    4.4418 H   0  0  0  0  0  0  0  0  0  0  0  0
    3.4643  -17.8798    5.0105 H   0  0  0  0  0  0  0  0  0  0  0  0
    2.3742   -7.9041   -4.9119 H   0  0  0  0  0  0  0  0  0  0  0  0
    1.7362   -9.1250   -6.0252 H   0  0  0  0  0  0  0  0  0  0  0  0
   -0.6232   -7.9794   -3.2792 H   0  0  0  0  0  0  0  0  0  0  0  0
    0.3749   -7.1183   -5.6716 H   0  0  0  0  0  0  0  0  0  0  0  0
   -0.8741   -9.1967   -6.3790 H   0  0  0  0  0  0  0  0  0  0  0  0
   -1.0568   -9.6777   -4.7087 H   0  0  0  0  0  0  0  0  0  0  0  0
   -3.1197   -8.5276   -5.4046 H   0  0  0  0  0  0  0  0  0  0  0  0
   -2.3719   -7.6165   -4.1484 H   0  0  0  0  0  0  0  0  0  0  0  0
   -3.0171   -6.0526   -5.9093 H   0  0  0  0  0  0  0  0  0  0  0  0
   -1.3081   -6.0404   -5.7827 H   0  0  0  0  0  0  0  0  0  0  0  0
   -1.8521   -6.2219   -8.1620 H   0  0  0  0  0  0  0  0  0  0  0  0
   -1.0811   -7.6845   -7.7023 H   0  0  0  0  0  0  0  0  0  0  0  0
   -3.0831   -8.2444   -9.0174 H   0  0  0  0  0  0  0  0  0  0  0  0
   -3.2963   -8.8515   -7.4013 H   0  0  0  0  0  0  0  0  0  0  0  0
   -5.3575   -7.7185   -8.1123 H   0  0  0  0  0  0  0  0  0  0  0  0
   -4.6692   -6.8339   -6.7786 H   0  0  0  0  0  0  0  0  0  0  0  0
   -4.2815   -6.1317   -9.7272 H   0  0  0  0  0  0  0  0  0  0  0  0
   -5.3272   -5.2603   -8.5716 H   0  0  0  0  0  0  0  0  0  0  0  0
   -3.5869   -5.2085   -8.3875 H   0  0  0  0  0  0  0  0  0  0  0  0
  1 38  1  0  0  0  0
  1 61  1  6  0  0  0
  2  1  1  0  0  0  0
  3  1  1  0  0  0  0
  3  6  1  0  0  0  0
  3 62  1  1  0  0  0
  4  2  1  0  0  0  0
  4 32  1  0  0  0  0
  4 63  1  6  0  0  0
  5  3  1  0  0  0  0
  5  4  1  0  0  0  0
  5 33  1  0  0  0  0
  5 64  1  1  0  0  0
  6 65  1  0  0  0  0
  7  8  1  0  0  0  0
  7 66  1  0  0  0  0
  7 67  1  0  0  0  0
  8 48  1  0  0  0  0
  8 68  1  0  0  0  0
  8 69  1  0  0  0  0
  9  7  1  0  0  0  0
  9 70  1  0  0  0  0
 10  9  1  0  0  0  0
 10 11  2  0  0  0  0
 12 14  1  0  0  0  0
 12 71  1  0  0  0  0
 12 72  1  0  0  0  0
 13 10  1  0  0  0  0
 13 12  1  0  0  0  0
 13 73  1  0  0  0  0
 13 74  1  0  0  0  0
 14 75  1  0  0  0  0
 16 14  1  0  0  0  0
 16 15  2  0  0  0  0
 17 23  1  0  0  0  0
 17 76  1  0  0  0  0
 17 77  1  0  0  0  0
 18 78  1  0  0  0  0
 18 79  1  0  0  0  0
 18 80  1  0  0  0  0
 19 17  1  0  0  0  0
 19 18  1  0  0  0  0
 19 20  1  0  0  0  0
 20 81  1  0  0  0  0
 20 82  1  0  0  0  0
 20 83  1  0  0  0  0
 21 22  1  0  0  0  0
 21 84  1  6  0  0  0
 21 19  1  0  0  0  0
 21 16  1  0  0  0  0
 22 85  1  0  0  0  0
 23 30  1  0  0  0  0
 24 31  1  0  0  0  0
 27 86  1  0  0  0  0
 29 87  1  0  0  0  0
 30 24  1  0  0  0  0
 30 26  2  0  0  0  0
 30 27  1  0  0  0  0
 31 25  1  0  0  0  0
 31 28  2  0  0  0  0
 31 29  1  0  0  0  0
 32 25  1  0  0  0  0
 32 88  1  0  0  0  0
 32 89  1  0  0  0  0
 33 36  1  0  0  0  0
 34 90  1  0  0  0  0
 35 91  1  0  0  0  0
 36 34  1  0  0  0  0
 36 35  1  0  0  0  0
 36 37  2  0  0  0  0
 39 38  1  0  0  0  0
 40 38  1  0  0  0  0
 40 92  1  0  0  0  0
 41 39  2  0  0  0  0
 42 39  1  0  0  0  0
 43 40  2  0  0  0  0
 43 41  1  0  0  0  0
 44 41  1  0  0  0  0
 45 42  2  0  0  0  0
 45 93  1  0  0  0  0
 46 44  2  0  0  0  0
 46 45  1  0  0  0  0
 47 44  1  0  0  0  0
 47 94  1  0  0  0  0
 47 95  1  0  0  0  0
 48 50  1  0  0  0  0
 50 49  2  0  0  0  0
 50 51  1  0  0  0  0
 51 96  1  0  0  0  0
 51 97  1  0  0  0  0
 52 98  1  0  0  0  0
 53 54  1  0  0  0  0
 53 99  1  6  0  0  0
 53 52  1  0  0  0  0
 53 51  1  0  0  0  0
 54 55  1  0  0  0  0
 54100  1  0  0  0  0
 54101  1  0  0  0  0
 55 56  1  0  0  0  0
 55102  1  0  0  0  0
 55103  1  0  0  0  0
 56 57  1  0  0  0  0
 56104  1  0  0  0  0
 56105  1  0  0  0  0
 57 58  1  0  0  0  0
 57106  1  0  0  0  0
 57107  1  0  0  0  0
 58 59  1  0  0  0  0
 58108  1  0  0  0  0
 58109  1  0  0  0  0
 59 60  1  0  0  0  0
 59110  1  0  0  0  0
 59111  1  0  0  0  0
 60112  1  0  0  0  0
 60113  1  0  0  0  0
 60114  1  0  0  0  0
M  END
>  <DRUGBANK_ID>
DB03192

>  <SECONDARY_ACCESSION_NUMBERS>
EXPT01712

>  <COMMON_NAME>
(R)-3-hydroxydecanoyl-CoA

>  <SYNONYMS>
(R)-3-hydroxydecanoyl-coenzyme A

$$$$
