
 OpenBabel10282417223D

 38 40  0  0  0  0  0  0  0  0999 V2000
    2.3407   -0.0846   -0.0602 O   0  0  0  0  0  0  0  0  0  0  0  0
    0.9846   -0.1194    0.0035 C   0  0  0  0  0  0  0  0  0  0  0  0
    0.2401   -1.2890   -0.0238 C   0  0  0  0  0  0  0  0  0  0  0  0
   -1.1710   -1.2258   -0.0229 C   0  0  0  0  0  0  0  0  0  0  0  0
   -1.8584   -0.0068    0.1310 C   0  0  0  0  0  0  0  0  0  0  0  0
   -1.0288    1.0873    0.3785 C   0  0  0  0  0  0  0  0  0  0  0  0
    0.3470    1.0824    0.1670 C   0  0  0  0  0  0  0  0  0  0  0  0
   -3.3065    0.1403   -0.0075 N   0  0  0  0  0  0  0  0  0  0  0  0
   -4.0490    1.3726   -0.1281 C   0  0  0  0  0  0  0  0  0  0  0  0
   -5.2762    1.4223   -0.0948 O   0  0  0  0  0  0  0  0  0  0  0  0
   -3.3896    2.7208   -0.2395 C   0  0  0  0  0  0  0  0  0  0  0  0
   -2.3773    2.9922   -1.1787 C   0  0  0  0  0  0  0  0  0  0  0  0
   -1.5721    4.1394   -1.0457 C   0  0  0  0  0  0  0  0  0  0  0  0
   -1.8853    5.0951   -0.0834 C   0  0  0  0  0  0  0  0  0  0  0  0
   -1.1313    6.2246    0.0645 O   0  0  0  0  0  0  0  0  0  0  0  0
   -2.9725    4.8896    0.7652 C   0  0  0  0  0  0  0  0  0  0  0  0
   -3.2860    5.8136    1.6858 F   0  0  0  0  0  0  0  0  0  0  0  0
   -3.7132    3.7053    0.7104 C   0  0  0  0  0  0  0  0  0  0  0  0
   -4.0824   -1.0879   -0.0288 C   0  0  0  0  0  0  0  0  0  0  0  0
   -3.9775   -2.0298    1.0136 C   0  0  0  0  0  0  0  0  0  0  0  0
   -4.7025   -3.2290    0.9835 C   0  0  0  0  0  0  0  0  0  0  0  0
   -5.5546   -3.4902   -0.0804 C   0  0  0  0  0  0  0  0  0  0  0  0
   -6.2470   -4.6375   -0.1080 F   0  0  0  0  0  0  0  0  0  0  0  0
   -5.6953   -2.5734   -1.1144 C   0  0  0  0  0  0  0  0  0  0  0  0
   -4.9687   -1.3715   -1.0852 C   0  0  0  0  0  0  0  0  0  0  0  0
    2.6846   -0.9903   -0.0333 H   0  0  0  0  0  0  0  0  0  0  0  0
    0.7271   -2.2576   -0.0621 H   0  0  0  0  0  0  0  0  0  0  0  0
   -1.6956   -2.1705   -0.1374 H   0  0  0  0  0  0  0  0  0  0  0  0
   -1.4130    2.0209    0.7507 H   0  0  0  0  0  0  0  0  0  0  0  0
    0.9016    2.0160    0.1876 H   0  0  0  0  0  0  0  0  0  0  0  0
   -2.0900    2.2295   -1.9005 H   0  0  0  0  0  0  0  0  0  0  0  0
   -0.6680    4.2247   -1.6439 H   0  0  0  0  0  0  0  0  0  0  0  0
   -0.4510    6.2664   -0.6272 H   0  0  0  0  0  0  0  0  0  0  0  0
   -4.5007    3.5476    1.4424 H   0  0  0  0  0  0  0  0  0  0  0  0
   -3.3351   -1.8320    1.8676 H   0  0  0  0  0  0  0  0  0  0  0  0
   -4.6103   -3.9567    1.7843 H   0  0  0  0  0  0  0  0  0  0  0  0
   -6.3688   -2.8005   -1.9361 H   0  0  0  0  0  0  0  0  0  0  0  0
   -5.0863   -0.6748   -1.9117 H   0  0  0  0  0  0  0  0  0  0  0  0
  1  2  1  0  0  0  0
  1 26  1  0  0  0  0
  2  3  2  0  0  0  0
  2  7  1  0  0  0  0
  3  4  1  0  0  0  0
  3 27  1  0  0  0  0
  4  5  2  0  0  0  0
  4 28  1  0  0  0  0
  5  6  1  0  0  0  0
  5  8  1  0  0  0  0
  6  7  2  0  0  0  0
  6 29  1  0  0  0  0
  7 30  1  0  0  0  0
  8  9  1  0  0  0  0
  8 19  1  0  0  0  0
  9 10  2  0  0  0  0
  9 11  1  0  0  0  0
 11 12  2  0  0  0  0
 11 18  1  0  0  0  0
 12 13  1  0  0  0  0
 12 31  1  0  0  0  0
 13 14  2  0  0  0  0
 13 32  1  0  0  0  0
 14 15  1  0  0  0  0
 14 16  1  0  0  0  0
 15 33  1  0  0  0  0
 16 17  1  0  0  0  0
 16 18  2  0  0  0  0
 18 34  1  0  0  0  0
 19 20  2  0  0  0  0
 19 25  1  0  0  0  0
 20 21  1  0  0  0  0
 20 35  1  0  0  0  0
 21 22  2  0  0  0  0
 21 36  1  0  0  0  0
 22 23  1  0  0  0  0
 22 24  1  0  0  0  0
 24 25  2  0  0  0  0
 24 37  1  0  0  0  0
 25 38  1  0  0  0  0
M  END
>  <DRUGBANK_ID>
DB14969

>  <COMMON_NAME>
GTX-758

>  <CAS_NUMBER>
938067-78-8

>  <UNII>
406GR1485Z

$$$$
