
 OpenBabel10282417183D

 33 34  0  0  1  0  0  0  0  0999 V2000
   -0.9907    0.9375   -1.2772 C   0  0  0  0  0  0  0  0  0  0  0  0
    0.4304    0.3121   -1.3235 C   0  0  2  0  0  0  0  0  0  0  0  0
    1.4509    1.3134   -2.0110 C   0  0  2  0  0  0  0  0  0  0  0  0
    0.8909    1.8618   -3.3367 C   0  0  0  0  0  0  0  0  0  0  0  0
    1.0000    0.6589   -4.2759 C   0  0  0  0  0  0  0  0  0  0  0  0
    1.6085   -0.4377   -3.3747 C   0  0  1  0  0  0  0  0  0  0  0  0
    2.5711    0.4045   -2.5358 C   0  0  0  0  0  0  0  0  0  0  0  0
    0.5770   -0.9555   -2.3068 C   0  0  0  0  0  0  0  0  0  0  0  0
    1.1509   -2.2177   -1.6063 C   0  0  0  0  0  0  0  0  0  0  0  0
   -0.7298   -1.4385   -2.9653 C   0  0  0  0  0  0  0  0  0  0  0  0
    0.9888    0.0020    0.0222 N   0  0  0  0  0  0  0  0  0  0  0  0
    0.1513    0.3004    1.1731 C   0  0  0  0  0  0  0  0  0  0  0  0
   -0.9400    2.0277   -1.1826 H   0  0  0  0  0  0  0  0  0  0  0  0
   -1.6107    0.5765   -0.4537 H   0  0  0  0  0  0  0  0  0  0  0  0
   -1.5922    0.7291   -2.1612 H   0  0  0  0  0  0  0  0  0  0  0  0
    1.7997    2.1108   -1.3475 H   0  0  0  0  0  0  0  0  0  0  0  0
    1.5133    2.6863   -3.7039 H   0  0  0  0  0  0  0  0  0  0  0  0
   -0.1305    2.2406   -3.2681 H   0  0  0  0  0  0  0  0  0  0  0  0
    1.6742    0.8997   -5.1059 H   0  0  0  0  0  0  0  0  0  0  0  0
    0.0391    0.3958   -4.7204 H   0  0  0  0  0  0  0  0  0  0  0  0
    2.0864   -1.2349   -3.9506 H   0  0  0  0  0  0  0  0  0  0  0  0
    3.1069   -0.1538   -1.7644 H   0  0  0  0  0  0  0  0  0  0  0  0
    3.3084    0.9418   -3.1458 H   0  0  0  0  0  0  0  0  0  0  0  0
    0.4733   -2.5613   -0.8153 H   0  0  0  0  0  0  0  0  0  0  0  0
    1.2588   -3.0440   -2.3196 H   0  0  0  0  0  0  0  0  0  0  0  0
    2.1370   -2.0585   -1.1602 H   0  0  0  0  0  0  0  0  0  0  0  0
   -1.2463   -0.6690   -3.5409 H   0  0  0  0  0  0  0  0  0  0  0  0
   -0.5329   -2.2567   -3.6676 H   0  0  0  0  0  0  0  0  0  0  0  0
   -1.4310   -1.8040   -2.2076 H   0  0  0  0  0  0  0  0  0  0  0  0
    1.8996    0.4298    0.1496 H   0  0  0  0  0  0  0  0  0  0  0  0
    0.6864    0.0681    2.0992 H   0  0  0  0  0  0  0  0  0  0  0  0
   -0.1179    1.3606    1.2085 H   0  0  0  0  0  0  0  0  0  0  0  0
   -0.7475   -0.3222    1.1795 H   0  0  0  0  0  0  0  0  0  0  0  0
  1 13  1  0  0  0  0
  1 14  1  0  0  0  0
  1 15  1  0  0  0  0
  2  3  1  0  0  0  0
  2  8  1  0  0  0  0
  2 11  1  1  0  0  0
  2  1  1  0  0  0  0
  3  4  1  0  0  0  0
  3  7  1  0  0  0  0
  3 16  1  1  0  0  0
  4  5  1  0  0  0  0
  4 17  1  0  0  0  0
  4 18  1  0  0  0  0
  5  6  1  0  0  0  0
  5 19  1  0  0  0  0
  5 20  1  0  0  0  0
  6  7  1  0  0  0  0
  6  8  1  0  0  0  0
  6 21  1  6  0  0  0
  7 22  1  0  0  0  0
  7 23  1  0  0  0  0
  8  9  1  0  0  0  0
  8 10  1  0  0  0  0
  9 24  1  0  0  0  0
  9 25  1  0  0  0  0
  9 26  1  0  0  0  0
 10 27  1  0  0  0  0
 10 28  1  0  0  0  0
 10 29  1  0  0  0  0
 11 12  1  0  0  0  0
 11 30  1  0  0  0  0
 12 31  1  0  0  0  0
 12 32  1  0  0  0  0
 12 33  1  0  0  0  0
M  END
>  <DRUGBANK_ID>
DB11807

>  <COMMON_NAME>
Dexmecamylamine

>  <CAS_NUMBER>
107538-05-6

>  <UNII>
5Y1141YI4U

>  <SYNONYMS>
Dexmecamylamine

$$$$
