
 OpenBabel10282417133D

 20 20  0  0  1  0  0  0  0  0999 V2000
    0.1206    0.9010   -1.9647 O   0  0  0  0  0  0  0  0  0  0  0  0
    0.4801    1.1985   -0.6165 C   0  0  1  0  0  0  0  0  0  0  0  0
    1.2189    2.5334   -0.5834 C   0  0  0  0  0  0  0  0  0  0  0  0
    1.5759    2.9101    0.7446 O   0  0  0  0  0  0  0  0  0  0  0  0
    0.4389    3.0654    1.5864 C   0  0  3  0  0  0  0  0  0  0  0  0
    0.9031    3.4990    2.8568 O   0  0  0  0  0  0  0  0  0  0  0  0
   -0.3283    1.7322    1.7011 C   0  0  1  0  0  0  0  0  0  0  0  0
   -1.4934    1.8519    2.5258 O   0  0  0  0  0  0  0  0  0  0  0  0
   -0.7462    1.2569    0.3020 C   0  0  2  0  0  0  0  0  0  0  0  0
   -1.3176   -0.0603    0.3885 O   0  0  0  0  0  0  0  0  0  0  0  0
   -0.0485   -0.0601   -2.0019 H   0  0  0  0  0  0  0  0  0  0  0  0
    1.1400    0.3953   -0.2656 H   0  0  0  0  0  0  0  0  0  0  0  0
    2.1391    2.4494   -1.1712 H   0  0  0  0  0  0  0  0  0  0  0  0
    0.6233    3.3266   -1.0514 H   0  0  0  0  0  0  0  0  0  0  0  0
   -0.2088    3.8632    1.2015 H   0  0  0  0  0  0  0  0  0  0  0  0
    1.3457    2.7338    3.2648 H   0  0  0  0  0  0  0  0  0  0  0  0
    0.3199    0.9773    2.1647 H   0  0  0  0  0  0  0  0  0  0  0  0
   -1.5532    1.0578    3.0881 H   0  0  0  0  0  0  0  0  0  0  0  0
   -1.5213    1.9151   -0.1148 H   0  0  0  0  0  0  0  0  0  0  0  0
   -1.7944   -0.1077    1.2372 H   0  0  0  0  0  0  0  0  0  0  0  0
  1 11  1  0  0  0  0
  2  3  1  0  0  0  0
  2  9  1  0  0  0  0
  2 12  1  1  0  0  0
  2  1  1  0  0  0  0
  3  4  1  0  0  0  0
  3 13  1  0  0  0  0
  3 14  1  0  0  0  0
  4  5  1  0  0  0  0
  5  6  1  0  0  0  0
  5  7  1  0  0  0  0
  5 15  1  0  0  0  0
  6 16  1  0  0  0  0
  7  9  1  0  0  0  0
  7 17  1  1  0  0  0
  7  8  1  0  0  0  0
  8 18  1  0  0  0  0
  9 19  1  6  0  0  0
  9 10  1  0  0  0  0
 10 20  1  0  0  0  0
M  END
>  <DRUGBANK_ID>
DB03911

>  <SECONDARY_ACCESSION_NUMBERS>
EXPT02070

>  <COMMON_NAME>
L-Xylopyranose

$$$$
