
 OpenBabel10282417133D

108111  0  0  0  0  0  0  0  0999 V2000
   -7.6076    3.0740   -0.3709 C   0  0  0  0  0  0  0  0  0  0  0  0
   -8.7923    3.6460    0.3978 C   0  0  1  0  0  0  0  0  0  0  0  0
   -8.5790    4.8890    1.2287 C   0  0  1  0  0  0  0  0  0  0  0  0
   -8.2235    6.0311    0.3097 C   0  0  2  0  0  0  0  0  0  0  0  0
   -7.6194    5.8209   -1.2010 C   0  0  2  0  0  0  0  0  0  0  0  0
   -6.2359    5.3309   -1.3292 C   0  0  0  0  0  0  0  0  0  0  0  0
   -5.9135    4.3309   -1.8685 O   0  0  0  0  0  0  0  0  0  0  0  0
   -7.8523    6.6303   -2.3811 O   0  0  0  0  0  0  0  0  0  0  0  0
   -7.0421    7.7897   -2.6659 C   0  0  0  0  0  0  0  0  0  0  0  0
   -7.0325    8.9137   -1.6059 C   0  0  0  0  0  0  0  0  0  0  0  0
   -7.4414   10.3092    0.8352 C   0  0  0  0  0  0  0  0  0  0  0  0
   -6.3341    9.5058    0.6650 C   0  0  0  0  0  0  0  0  0  0  0  0
   -6.0592    8.9749   -0.6007 C   0  0  0  0  0  0  0  0  0  0  0  0
   -8.1099    9.7945   -1.4487 C   0  0  0  0  0  0  0  0  0  0  0  0
   -8.2672   10.5457   -0.2627 C   0  0  0  0  0  0  0  0  0  0  0  0
   -9.8674    5.0927    1.9335 O   0  0  0  0  0  0  0  0  0  0  0  0
  -10.1815    4.7112   -1.6450 C   0  0  0  0  0  0  0  0  0  0  0  0
  -10.6920    6.2165   -1.3565 C   0  0  0  0  0  0  0  0  0  0  0  0
  -11.9651    6.3459   -0.8882 C   0  0  0  0  0  0  0  0  0  0  0  0
  -12.3477    7.4255   -0.0335 C   0  0  0  0  0  0  0  0  0  0  0  0
  -11.4675    8.3437    0.5070 C   0  0  0  0  0  0  0  0  0  0  0  0
  -10.2351    8.2552    0.0173 C   0  0  0  0  0  0  0  0  0  0  0  0
   -9.9863    7.4140   -1.0922 C   0  0  0  0  0  0  0  0  0  0  0  0
  -10.0112    3.8091   -0.4387 O   0  0  0  0  0  0  0  0  0  0  0  0
   -7.7305    2.6680   -1.5235 O   0  0  0  0  0  0  0  0  0  0  0  0
   -6.3762    3.1605    0.2296 N   0  0  0  0  0  0  0  0  0  0  0  0
   -7.7732    7.1502    1.0318 O   0  0  0  0  0  0  0  0  0  0  0  0
   -6.0835    2.3368    1.3700 C   0  0  1  0  0  0  0  0  0  0  0  0
   -4.9055    1.3964    1.0362 C   0  0  0  0  0  0  0  0  0  0  0  0
   -4.8376    0.3255    2.1126 C   0  0  0  0  0  0  0  0  0  0  0  0
   -5.1205    0.6952   -0.3171 C   0  0  0  0  0  0  0  0  0  0  0  0
   -5.9149    3.2186    2.6308 C   0  0  0  0  0  0  0  0  0  0  0  0
   -6.1132    4.4254    2.6410 O   0  0  0  0  0  0  0  0  0  0  0  0
   -5.5738    2.5902    3.7815 N   0  0  0  0  0  0  0  0  0  0  0  0
   -5.4074    6.2321   -0.7450 N   0  0  0  0  0  0  0  0  0  0  0  0
   -4.0333    5.9299   -0.5481 C   0  0  1  0  0  0  0  0  0  0  0  0
   -3.9869    5.3256    0.8578 C   0  0  0  0  0  0  0  0  0  0  0  0
   -2.6695    4.6979    1.1783 C   0  0  0  0  0  0  0  0  0  0  0  0
   -4.3767    6.3192    1.9814 C   0  0  0  0  0  0  0  0  0  0  0  0
   -3.6297    5.2025   -1.8893 C   0  0  0  0  0  0  0  0  0  0  0  0
   -4.1208    5.5234   -2.9758 O   0  0  0  0  0  0  0  0  0  0  0  0
   -2.7264    4.1837   -1.8036 N   0  0  0  0  0  0  0  0  0  0  0  0
   -5.3706    3.3282    5.0065 C   0  0  0  0  0  0  0  0  0  0  0  0
   -6.4330    2.9577    6.0010 C   0  0  0  0  0  0  0  0  0  0  0  0
   -7.3496    1.3561    7.5184 C   0  0  0  0  0  0  0  0  0  0  0  0
   -8.3955    2.2394    7.7558 C   0  0  0  0  0  0  0  0  0  0  0  0
   -8.4119    3.4451    7.0737 C   0  0  0  0  0  0  0  0  0  0  0  0
   -6.3572    1.7129    6.6206 C   0  0  0  0  0  0  0  0  0  0  0  0
   -7.4567    3.8183    6.1986 N   0  0  0  0  0  0  0  0  0  0  0  0
   -2.6396    3.2714   -2.9287 C   0  0  0  0  0  0  0  0  0  0  0  0
   -1.6993    3.7666   -3.9972 C   0  0  0  0  0  0  0  0  0  0  0  0
   -0.3899    3.3109   -4.0043 C   0  0  0  0  0  0  0  0  0  0  0  0
    0.4821    3.8134   -4.9598 C   0  0  0  0  0  0  0  0  0  0  0  0
    0.0280    4.7564   -5.8757 C   0  0  0  0  0  0  0  0  0  0  0  0
   -1.2908    5.1600   -5.8027 C   0  0  0  0  0  0  0  0  0  0  0  0
   -2.1516    4.6847   -4.8858 N   0  0  0  0  0  0  0  0  0  0  0  0
   -8.9613    2.8757    1.1610 H   0  0  0  0  0  0  0  0  0  0  0  0
   -7.9164    4.9776    2.0700 H   0  0  0  0  0  0  0  0  0  0  0  0
   -9.2514    6.2405    0.2754 H   0  0  0  0  0  0  0  0  0  0  0  0
   -8.0907    4.9307   -1.4943 H   0  0  0  0  0  0  0  0  0  0  0  0
   -6.0503    7.4128   -2.9038 H   0  0  0  0  0  0  0  0  0  0  0  0
   -7.4461    8.1910   -3.6056 H   0  0  0  0  0  0  0  0  0  0  0  0
   -7.7083   10.6619    1.8286 H   0  0  0  0  0  0  0  0  0  0  0  0
   -5.7586    9.1804    1.5328 H   0  0  0  0  0  0  0  0  0  0  0  0
   -5.1193    8.4560   -0.7073 H   0  0  0  0  0  0  0  0  0  0  0  0
   -8.9695    9.7335   -2.1219 H   0  0  0  0  0  0  0  0  0  0  0  0
   -9.1771   11.1228   -0.1156 H   0  0  0  0  0  0  0  0  0  0  0  0
  -10.5724    5.0037    1.2575 H   0  0  0  0  0  0  0  0  0  0  0  0
   -9.4317    4.5579   -2.4489 H   0  0  0  0  0  0  0  0  0  0  0  0
  -11.0002    4.2092   -2.1785 H   0  0  0  0  0  0  0  0  0  0  0  0
  -12.6428    5.5433   -1.1225 H   0  0  0  0  0  0  0  0  0  0  0  0
  -13.3630    7.4858    0.2971 H   0  0  0  0  0  0  0  0  0  0  0  0
  -11.6357    9.0814    1.2797 H   0  0  0  0  0  0  0  0  0  0  0  0
   -9.4153    8.6665    0.6178 H   0  0  0  0  0  0  0  0  0  0  0  0
   -8.9584    7.5790   -1.2649 H   0  0  0  0  0  0  0  0  0  0  0  0
   -5.6317    3.2074   -0.4801 H   0  0  0  0  0  0  0  0  0  0  0  0
   -6.8444    7.0431    1.1925 H   0  0  0  0  0  0  0  0  0  0  0  0
   -6.9834    1.7435    1.5299 H   0  0  0  0  0  0  0  0  0  0  0  0
   -3.9515    1.9410    0.9929 H   0  0  0  0  0  0  0  0  0  0  0  0
   -5.8448   -0.0734    2.2871 H   0  0  0  0  0  0  0  0  0  0  0  0
   -4.1651   -0.4893    1.8568 H   0  0  0  0  0  0  0  0  0  0  0  0
   -4.4464    0.7370    3.0412 H   0  0  0  0  0  0  0  0  0  0  0  0
   -5.0476    1.3846   -1.1655 H   0  0  0  0  0  0  0  0  0  0  0  0
   -4.3692   -0.0824   -0.4774 H   0  0  0  0  0  0  0  0  0  0  0  0
   -6.1122    0.2306   -0.3484 H   0  0  0  0  0  0  0  0  0  0  0  0
   -5.9153    1.6481    3.8869 H   0  0  0  0  0  0  0  0  0  0  0  0
   -5.8872    6.9105   -0.2023 H   0  0  0  0  0  0  0  0  0  0  0  0
   -3.5146    6.8862   -0.5593 H   0  0  0  0  0  0  0  0  0  0  0  0
   -4.7015    4.5228    0.9008 H   0  0  0  0  0  0  0  0  0  0  0  0
   -1.8921    5.4537    1.0859 H   0  0  0  0  0  0  0  0  0  0  0  0
   -2.6785    4.2638    2.1799 H   0  0  0  0  0  0  0  0  0  0  0  0
   -2.4882    3.8680    0.5001 H   0  0  0  0  0  0  0  0  0  0  0  0
   -5.4215    6.6043    1.9429 H   0  0  0  0  0  0  0  0  0  0  0  0
   -4.2672    5.8742    2.9773 H   0  0  0  0  0  0  0  0  0  0  0  0
   -3.7975    7.2390    1.9479 H   0  0  0  0  0  0  0  0  0  0  0  0
   -1.8626    4.4604   -1.3642 H   0  0  0  0  0  0  0  0  0  0  0  0
   -4.3905    3.0236    5.3867 H   0  0  0  0  0  0  0  0  0  0  0  0
   -5.3377    4.4103    4.8422 H   0  0  0  0  0  0  0  0  0  0  0  0
   -7.2997    0.4014    8.0314 H   0  0  0  0  0  0  0  0  0  0  0  0
   -9.1808    1.9953    8.4605 H   0  0  0  0  0  0  0  0  0  0  0  0
   -9.2102    4.1664    7.2234 H   0  0  0  0  0  0  0  0  0  0  0  0
   -5.5338    1.0392    6.4061 H   0  0  0  0  0  0  0  0  0  0  0  0
   -2.2927    2.3148   -2.5220 H   0  0  0  0  0  0  0  0  0  0  0  0
   -3.6322    3.0876   -3.3587 H   0  0  0  0  0  0  0  0  0  0  0  0
   -0.0616    2.5745   -3.2801 H   0  0  0  0  0  0  0  0  0  0  0  0
    1.5091    3.4669   -4.9876 H   0  0  0  0  0  0  0  0  0  0  0  0
    0.6853    5.1645   -6.6329 H   0  0  0  0  0  0  0  0  0  0  0  0
   -1.7047    5.8890   -6.4938 H   0  0  0  0  0  0  0  0  0  0  0  0
  1 26  1  0  0  0  0
  1  2  1  0  0  0  0
  1 25  2  0  0  0  0
  2  3  1  0  0  0  0
  2 24  1  0  0  0  0
  2 57  1  1  0  0  0
  3 16  1  0  0  0  0
  3 58  1  1  0  0  0
  4 27  1  0  0  0  0
  4 59  1  6  0  0  0
  4  5  1  0  0  0  0
  4  3  1  0  0  0  0
  5 60  1  6  0  0  0
  5  8  1  0  0  0  0
  5  6  1  0  0  0  0
  6 35  1  0  0  0  0
  6  7  2  0  0  0  0
  8  9  1  0  0  0  0
  9 10  1  0  0  0  0
  9 61  1  0  0  0  0
  9 62  1  0  0  0  0
 10 13  2  0  0  0  0
 10 14  1  0  0  0  0
 11 12  2  0  0  0  0
 11 15  1  0  0  0  0
 11 63  1  0  0  0  0
 12 13  1  0  0  0  0
 12 64  1  0  0  0  0
 13 65  1  0  0  0  0
 14 15  2  0  0  0  0
 14 66  1  0  0  0  0
 15 67  1  0  0  0  0
 16 68  1  0  0  0  0
 17 24  1  0  0  0  0
 17 18  1  0  0  0  0
 17 69  1  0  0  0  0
 17 70  1  0  0  0  0
 18 19  2  0  0  0  0
 18 23  1  0  0  0  0
 19 20  1  0  0  0  0
 19 71  1  0  0  0  0
 20 21  2  0  0  0  0
 20 72  1  0  0  0  0
 21 22  1  0  0  0  0
 21 73  1  0  0  0  0
 22 23  2  0  0  0  0
 22 74  1  0  0  0  0
 23 75  1  0  0  0  0
 26 76  1  0  0  0  0
 27 77  1  0  0  0  0
 28 29  1  0  0  0  0
 28 78  1  1  0  0  0
 28 32  1  0  0  0  0
 28 26  1  0  0  0  0
 29 30  1  0  0  0  0
 29 31  1  0  0  0  0
 29 79  1  0  0  0  0
 30 80  1  0  0  0  0
 30 81  1  0  0  0  0
 30 82  1  0  0  0  0
 31 83  1  0  0  0  0
 31 84  1  0  0  0  0
 31 85  1  0  0  0  0
 32 34  1  0  0  0  0
 32 33  2  0  0  0  0
 34 43  1  0  0  0  0
 34 86  1  0  0  0  0
 35 87  1  0  0  0  0
 36 37  1  0  0  0  0
 36 88  1  1  0  0  0
 36 40  1  0  0  0  0
 36 35  1  0  0  0  0
 37 38  1  0  0  0  0
 37 39  1  0  0  0  0
 37 89  1  0  0  0  0
 38 90  1  0  0  0  0
 38 91  1  0  0  0  0
 38 92  1  0  0  0  0
 39 93  1  0  0  0  0
 39 94  1  0  0  0  0
 39 95  1  0  0  0  0
 40 42  1  0  0  0  0
 40 41  2  0  0  0  0
 42 50  1  0  0  0  0
 42 96  1  0  0  0  0
 43 44  1  0  0  0  0
 43 97  1  0  0  0  0
 43 98  1  0  0  0  0
 44 49  2  0  0  0  0
 44 48  1  0  0  0  0
 45 46  1  0  0  0  0
 45 48  2  0  0  0  0
 45 99  1  0  0  0  0
 46 47  2  0  0  0  0
 46100  1  0  0  0  0
 47 49  1  0  0  0  0
 47101  1  0  0  0  0
 48102  1  0  0  0  0
 50 51  1  0  0  0  0
 50103  1  0  0  0  0
 50104  1  0  0  0  0
 51 56  1  0  0  0  0
 51 52  2  0  0  0  0
 52 53  1  0  0  0  0
 52105  1  0  0  0  0
 53 54  2  0  0  0  0
 53106  1  0  0  0  0
 54 55  1  0  0  0  0
 54107  1  0  0  0  0
 55 56  2  0  0  0  0
 55108  1  0  0  0  0
M  END
>  <DRUGBANK_ID>
DB03803

>  <SECONDARY_ACCESSION_NUMBERS>
EXPT02235

>  <COMMON_NAME>
N,N-[2,5-O-dibenzyl-glucaryl]-DI-[valinyl-aminomethanyl-pyridine]

>  <SYNONYMS>
Inhibitor MSA367

$$$$
