
 OpenBabel10282417183D

 52 52  0  0  0  0  0  0  0  0999 V2000
   -2.1690    1.0160    0.2839 C   0  0  0  0  0  0  0  0  0  0  0  0
   -3.9162    0.4941    1.0856 C   0  0  0  0  0  0  0  0  0  0  0  0
   -1.0997    2.4837    0.1242 C   0  0  0  0  0  0  0  0  0  0  0  0
   -1.0399   -0.4203    0.5149 C   0  0  0  0  0  0  0  0  0  0  0  0
   -4.3466   -1.3099    1.1154 O   0  0  0  0  0  0  0  0  0  0  0  0
   -4.8802    1.2499    0.9998 O   0  0  0  0  0  0  0  0  0  0  0  0
    0.7388    2.1773    0.4904 C   0  0  0  0  0  0  0  0  0  0  0  0
    0.7115   -0.8473    1.0030 C   0  0  0  0  0  0  0  0  0  0  0  0
   -3.5673   -2.7952    0.2236 C   0  0  0  0  0  0  0  0  0  0  0  0
    1.5983    0.5662    0.8787 C   0  0  0  0  0  0  0  0  0  0  0  0
   -2.6038   -2.8784   -1.3650 C   0  0  0  0  0  0  0  0  0  0  0  0
    2.7704    0.1920   -0.0725 N   0  0  0  0  0  0  0  0  0  0  0  0
   -1.3770   -2.0608   -1.6627 C   0  0  0  0  0  0  0  0  0  0  0  0
   -0.4128   -2.2487   -0.5030 N   0  0  0  0  0  0  0  0  0  0  0  0
    0.2269   -0.5790   -1.1388 C   0  0  0  0  0  0  0  0  0  0  0  0
   -1.2002   -2.3235    1.2689 C   0  0  0  0  0  0  0  0  0  0  0  0
   -0.3394    0.9098   -0.6052 C   0  0  0  0  0  0  0  0  0  0  0  0
   -2.5907   -1.0686    1.4132 C   0  0  0  0  0  0  0  0  0  0  0  0
   -0.7155    1.2438    1.4638 C   0  0  0  0  0  0  0  0  0  0  0  0
   -3.3972   -0.4970   -0.5007 C   0  0  0  0  0  0  0  0  0  0  0  0
   -0.0710    1.0166    2.8424 C   0  0  0  0  0  0  0  0  0  0  0  0
   -4.8769   -0.8819   -0.8660 C   0  0  0  0  0  0  0  0  0  0  0  0
   -1.7707    3.2988   -0.1416 H   0  0  0  0  0  0  0  0  0  0  0  0
   -1.7249   -1.2146   -0.0177 H   0  0  0  0  0  0  0  0  0  0  0  0
    1.4669    2.8213    0.0033 H   0  0  0  0  0  0  0  0  0  0  0  0
    1.2377   -1.9448    0.5027 H   0  0  0  0  0  0  0  0  0  0  0  0
   -3.0819   -3.4227    0.9499 H   0  0  0  0  0  0  0  0  0  0  0  0
   -4.4226   -3.4375   -0.0122 H   0  0  0  0  0  0  0  0  0  0  0  0
   -2.1407   -3.8679   -1.4385 H   0  0  0  0  0  0  0  0  0  0  0  0
   -3.2668   -2.7043   -2.2297 H   0  0  0  0  0  0  0  0  0  0  0  0
    3.1580   -0.7612    0.0763 H   0  0  0  0  0  0  0  0  0  0  0  0
    3.4046    0.9676   -0.0066 H   0  0  0  0  0  0  0  0  0  0  0  0
   -0.7735   -1.9835   -2.5924 H   0  0  0  0  0  0  0  0  0  0  0  0
   -1.6826   -1.0321   -1.8363 H   0  0  0  0  0  0  0  0  0  0  0  0
    0.4590    0.0883   -0.3559 H   0  0  0  0  0  0  0  0  0  0  0  0
    1.1626   -0.6289   -1.6664 H   0  0  0  0  0  0  0  0  0  0  0  0
   -1.7781   -3.0618    1.8199 H   0  0  0  0  0  0  0  0  0  0  0  0
   -0.5308   -1.9447    2.1428 H   0  0  0  0  0  0  0  0  0  0  0  0
    0.1520    1.7951   -1.2855 H   0  0  0  0  0  0  0  0  0  0  0  0
   -1.1191    0.9219   -1.4606 H   0  0  0  0  0  0  0  0  0  0  0  0
   -3.0756   -0.7215    2.4310 H   0  0  0  0  0  0  0  0  0  0  0  0
   -1.8694   -0.4701    2.0622 H   0  0  0  0  0  0  0  0  0  0  0  0
   -1.3458    2.2836    1.8468 H   0  0  0  0  0  0  0  0  0  0  0  0
   -1.7862    1.0841    1.9982 H   0  0  0  0  0  0  0  0  0  0  0  0
   -3.6969    0.6932   -0.7543 H   0  0  0  0  0  0  0  0  0  0  0  0
   -2.8900   -0.1731   -1.4424 H   0  0  0  0  0  0  0  0  0  0  0  0
    0.5795    1.8669    2.9349 H   0  0  0  0  0  0  0  0  0  0  0  0
   -0.8878    1.0476    3.5889 H   0  0  0  0  0  0  0  0  0  0  0  0
    0.3112    0.0241    2.8626 H   0  0  0  0  0  0  0  0  0  0  0  0
   -5.6252   -0.8882   -0.0468 H   0  0  0  0  0  0  0  0  0  0  0  0
   -5.3910   -1.0363   -1.7815 H   0  0  0  0  0  0  0  0  0  0  0  0
   -4.4759   -1.8148   -1.0661 H   0  0  0  0  0  0  0  0  0  0  0  0
  1  2  1  0  0  0  0
  1  3  1  0  0  0  0
  1  4  2  0  0  0  0
  2  5  1  0  0  0  0
  2  6  2  0  0  0  0
  3  7  2  0  0  0  0
  3 23  1  0  0  0  0
  4  8  1  0  0  0  0
  4 24  1  0  0  0  0
  5  9  1  0  0  0  0
  7 10  1  0  0  0  0
  7 25  1  0  0  0  0
  8 10  2  0  0  0  0
  8 26  1  0  0  0  0
  9 11  1  0  0  0  0
  9 27  1  0  0  0  0
  9 28  1  0  0  0  0
 10 12  1  0  0  0  0
 11 13  1  0  0  0  0
 11 29  1  0  0  0  0
 11 30  1  0  0  0  0
 12 31  1  0  0  0  0
 12 32  1  0  0  0  0
 13 14  1  0  0  0  0
 13 33  1  0  0  0  0
 13 34  1  0  0  0  0
 14 15  1  0  0  0  0
 14 16  1  0  0  0  0
 15 17  1  0  0  0  0
 15 35  1  0  0  0  0
 15 36  1  0  0  0  0
 16 18  1  0  0  0  0
 16 37  1  0  0  0  0
 16 38  1  0  0  0  0
 17 19  1  0  0  0  0
 17 39  1  0  0  0  0
 17 40  1  0  0  0  0
 18 20  1  0  0  0  0
 18 41  1  0  0  0  0
 18 42  1  0  0  0  0
 19 21  1  0  0  0  0
 19 43  1  0  0  0  0
 19 44  1  0  0  0  0
 20 22  1  0  0  0  0
 20 45  1  0  0  0  0
 20 46  1  0  0  0  0
 21 47  1  0  0  0  0
 21 48  1  0  0  0  0
 21 49  1  0  0  0  0
 22 50  1  0  0  0  0
 22 51  1  0  0  0  0
 22 52  1  0  0  0  0
M  END
>  <DRUGBANK_ID>
DB11502

>  <COMMON_NAME>
Butacaine

>  <CAS_NUMBER>
149-16-6

>  <UNII>
Z84S23CGJJ

>  <SYNONYMS>
Butacaina; Butacaine; Butacainum

$$$$
