
 OpenBabel10282417143D

166169  0  0  0  0  0  0  0  0999 V2000
    7.5437   -4.4532    0.1740 N   0  0  0  0  0  0  0  0  0  0  0  0
    5.6852   -3.3676   -0.2083 C   0  0  0  0  0  0  0  0  0  0  0  0
    9.8489   -4.6139    0.1103 C   0  0  0  0  0  0  0  0  0  0  0  0
   12.1949   -4.5952   -0.3139 C   0  0  2  0  0  0  0  0  0  0  0  0
   10.8566   -3.4243    0.1065 O   0  0  0  0  0  0  0  0  0  0  0  0
   14.4734   -5.0028   -0.2390 C   0  0  0  0  0  0  0  0  0  0  0  0
   15.9357   -5.9291   -1.3440 C   0  0  0  0  0  0  0  0  0  0  0  0
   15.1667   -5.4074   -2.4564 C   0  0  0  0  0  0  0  0  0  0  0  0
   13.4261   -5.2468   -1.7292 N   0  0  0  0  0  0  0  0  0  0  0  0
   12.6185   -6.1831   -2.1955 C   0  0  0  0  0  0  0  0  0  0  0  0
   11.7059   -6.6699   -1.1039 C   0  0  2  0  0  0  0  0  0  0  0  0
   12.7288   -6.7531   -3.2536 O   0  0  0  0  0  0  0  0  0  0  0  0
   12.3811   -6.6736    0.2411 C   0  0  0  0  0  0  0  0  0  0  0  0
   11.5567   -6.2198    1.4073 C   0  0  0  0  0  0  0  0  0  0  0  0
   10.6042   -7.3124    1.5560 C   0  0  0  0  0  0  0  0  0  0  0  0
   12.3524   -5.9790    2.6362 C   0  0  0  0  0  0  0  0  0  0  0  0
   10.0687   -8.0576   -2.0950 C   0  0  0  0  0  0  0  0  0  0  0  0
    9.0977   -7.1918   -1.4465 C   0  0  1  0  0  0  0  0  0  0  0  0
    9.8188   -8.7728   -3.0365 O   0  0  0  0  0  0  0  0  0  0  0  0
    8.6661   -8.3133   -0.5056 C   0  0  0  0  0  0  0  0  0  0  0  0
    9.0254   -6.0132   -2.4824 C   0  0  0  0  0  0  0  0  0  0  0  0
    9.4915   -4.5921   -2.1326 C   0  0  2  0  0  0  0  0  0  0  0  0
    8.2546   -6.0587   -3.4522 O   0  0  0  0  0  0  0  0  0  0  0  0
    8.9064   -3.3733   -1.1447 C   0  0  0  0  0  0  0  0  0  0  0  0
    8.1782   -2.7291   -2.3492 C   0  0  0  0  0  0  0  0  0  0  0  0
    8.7057   -3.1685    0.9152 C   0  0  0  0  0  0  0  0  0  0  0  0
    8.3913   -4.9724   -1.5033 O   0  0  0  0  0  0  0  0  0  0  0  0
    7.1277   -4.6020   -2.2128 C   0  0  0  0  0  0  0  0  0  0  0  0
    6.7849   -5.5695   -1.3194 C   0  0  0  0  0  0  0  0  0  0  0  0
    6.6382   -4.1252   -3.2230 O   0  0  0  0  0  0  0  0  0  0  0  0
    6.0335   -6.4651   -1.9886 C   0  0  2  0  0  0  0  0  0  0  0  0
    6.5236   -7.6089   -2.5822 O   0  0  0  0  0  0  0  0  0  0  0  0
    4.0690   -5.1261   -2.4468 C   0  0  1  0  0  0  0  0  0  0  0  0
    4.0001   -5.8467   -4.0129 C   0  0  2  0  0  0  0  0  0  0  0  0
    2.9995   -6.8798   -4.3221 C   0  0  0  0  0  0  0  0  0  0  0  0
    5.2780   -6.3871   -4.7071 C   0  0  0  0  0  0  0  0  0  0  0  0
    2.5710   -7.4207   -3.1873 C   0  0  0  0  0  0  0  0  0  0  0  0
    2.2395   -5.5576   -1.0947 C   0  0  0  0  0  0  0  0  0  0  0  0
    1.0465   -6.2279   -1.6260 C   0  0  1  0  0  0  0  0  0  0  0  0
    2.6690   -6.3419   -0.2906 O   0  0  0  0  0  0  0  0  0  0  0  0
    1.1199   -4.7850   -2.0787 N   0  0  0  0  0  0  0  0  0  0  0  0
    2.1665   -7.7996   -1.3717 C   0  0  2  0  0  0  0  0  0  0  0  0
    3.9299   -7.2947   -1.7735 O   0  0  0  0  0  0  0  0  0  0  0  0
    4.6264   -6.1938   -1.3607 C   0  0  0  0  0  0  0  0  0  0  0  0
    5.3812   -5.5178   -2.8268 O   0  0  0  0  0  0  0  0  0  0  0  0
    5.6377   -5.5080    0.3059 C   0  0  2  0  0  0  0  0  0  0  0  0
    3.7553   -5.1530    1.0376 C   0  0  0  0  0  0  0  0  0  0  0  0
    1.7205   -9.2484   -2.1291 C   0  0  0  0  0  0  0  0  0  0  0  0
    2.0093   -5.7970    1.4454 C   0  0  0  0  0  0  0  0  0  0  0  0
    1.9947   -7.1546    1.7513 C   0  0  0  0  0  0  0  0  0  0  0  0
    0.7910   -7.7907    1.9221 C   0  0  0  0  0  0  0  0  0  0  0  0
   -0.4160   -7.2133    1.5747 C   0  0  0  0  0  0  0  0  0  0  0  0
   -0.4164   -5.9621    1.0029 C   0  0  0  0  0  0  0  0  0  0  0  0
    0.7697   -5.2934    0.8186 C   0  0  0  0  0  0  0  0  0  0  0  0
   -1.6295   -7.8027    1.7574 O   0  0  0  0  0  0  0  0  0  0  0  0
   -1.6246   -9.1008    2.3513 C   0  0  0  0  0  0  0  0  0  0  0  0
    0.4901   -4.3305   -3.0864 C   0  0  0  0  0  0  0  0  0  0  0  0
   -0.0486   -3.0160   -3.3196 C   0  0  1  0  0  0  0  0  0  0  0  0
    0.2205   -5.2590   -3.7536 O   0  0  0  0  0  0  0  0  0  0  0  0
    0.6042   -2.2415   -4.3138 C   0  0  0  0  0  0  0  0  0  0  0  0
   -1.4408   -3.0977   -3.6323 N   0  0  0  0  0  0  0  0  0  0  0  0
   -2.2819   -2.2939   -2.8284 C   0  0  0  0  0  0  0  0  0  0  0  0
    0.3462   -2.7189   -6.0285 C   0  0  0  0  0  0  0  0  0  0  0  0
   -0.9590   -2.5142   -6.5310 C   0  0  0  0  0  0  0  0  0  0  0  0
    1.3158   -2.2976   -7.3619 C   0  0  0  0  0  0  0  0  0  0  0  0
   -2.0610   -3.9509   -4.6572 C   0  0  0  0  0  0  0  0  0  0  0  0
   -0.8833   -4.7474   -5.8779 C   0  0  1  0  0  0  0  0  0  0  0  0
   -3.1924   -3.6158   -5.1044 O   0  0  0  0  0  0  0  0  0  0  0  0
    0.3760   -5.3644   -5.7399 N   0  0  0  0  0  0  0  0  0  0  0  0
   -0.0765   -6.6827   -5.3722 C   0  0  0  0  0  0  0  0  0  0  0  0
   -1.5721   -6.6760   -5.7187 C   0  0  0  0  0  0  0  0  0  0  0  0
   -1.7980   -5.5571   -6.6545 C   0  0  0  0  0  0  0  0  0  0  0  0
    1.6956   -4.5392   -5.2928 C   0  0  0  0  0  0  0  0  0  0  0  0
    2.6773   -5.1411   -5.2136 O   0  0  0  0  0  0  0  0  0  0  0  0
    2.3857   -2.9207   -5.4121 C   0  0  0  0  0  0  0  0  0  0  0  0
    1.9570   -1.7199   -5.5993 O   0  0  0  0  0  0  0  0  0  0  0  0
    3.6450   -2.4957   -5.0200 C   0  0  0  0  0  0  0  0  0  0  0  0
    4.1692   -4.0718   -2.7543 H   0  0  0  0  0  0  0  0  0  0  0  0
   11.2959   -7.9603   -1.4726 N   0  0  0  0  0  0  0  0  0  0  0  0
    3.2295   -4.7441   -1.3968 N   0  0  0  0  0  0  0  0  0  0  0  0
   13.2859   -4.3793    0.5988 H   0  0  0  0  0  0  0  0  0  0  0  0
    4.1165   -3.5070   -0.1561 H   0  0  0  0  0  0  0  0  0  0  0  0
    4.3442   -2.6814    0.1857 H   0  0  0  0  0  0  0  0  0  0  0  0
    4.4321   -3.1997   -1.1474 H   0  0  0  0  0  0  0  0  0  0  0  0
   15.9206   -5.1664    0.2877 H   0  0  0  0  0  0  0  0  0  0  0  0
   14.9682   -5.2097    0.8855 H   0  0  0  0  0  0  0  0  0  0  0  0
   17.2676   -5.9929   -1.4534 H   0  0  0  0  0  0  0  0  0  0  0  0
   16.4315   -7.0195   -1.4818 H   0  0  0  0  0  0  0  0  0  0  0  0
   15.8848   -5.7590   -3.3605 H   0  0  0  0  0  0  0  0  0  0  0  0
   14.5644   -5.5814   -3.3254 H   0  0  0  0  0  0  0  0  0  0  0  0
   10.8007   -6.1231   -0.9630 H   0  0  0  0  0  0  0  0  0  0  0  0
   13.0850   -7.4272    0.3930 H   0  0  0  0  0  0  0  0  0  0  0  0
   13.1623   -6.0140    0.2239 H   0  0  0  0  0  0  0  0  0  0  0  0
   11.0339   -5.3045    1.2659 H   0  0  0  0  0  0  0  0  0  0  0  0
   11.1521   -8.2374    1.6825 H   0  0  0  0  0  0  0  0  0  0  0  0
    9.8984   -7.1337    2.3377 H   0  0  0  0  0  0  0  0  0  0  0  0
   10.0578   -7.3534    0.6506 H   0  0  0  0  0  0  0  0  0  0  0  0
   13.0267   -5.1269    2.5320 H   0  0  0  0  0  0  0  0  0  0  0  0
   11.6734   -5.7848    3.4638 H   0  0  0  0  0  0  0  0  0  0  0  0
   12.9303   -6.8729    2.8315 H   0  0  0  0  0  0  0  0  0  0  0  0
    8.0851   -6.9424   -1.4711 H   0  0  0  0  0  0  0  0  0  0  0  0
    9.6112   -8.8089   -0.2207 H   0  0  0  0  0  0  0  0  0  0  0  0
    8.1672   -8.2508    0.4714 H   0  0  0  0  0  0  0  0  0  0  0  0
    8.1315   -9.0020   -1.1288 H   0  0  0  0  0  0  0  0  0  0  0  0
   10.4814   -4.6721   -1.7706 H   0  0  0  0  0  0  0  0  0  0  0  0
    9.8491   -2.9709   -1.1812 H   0  0  0  0  0  0  0  0  0  0  0  0
    7.0357   -2.6554   -2.4206 H   0  0  0  0  0  0  0  0  0  0  0  0
    8.0127   -2.0669   -1.5818 H   0  0  0  0  0  0  0  0  0  0  0  0
    8.3972   -3.0243   -3.5871 H   0  0  0  0  0  0  0  0  0  0  0  0
    9.3158   -3.8654    1.6999 H   0  0  0  0  0  0  0  0  0  0  0  0
    8.6473   -2.1717    0.9917 H   0  0  0  0  0  0  0  0  0  0  0  0
    7.7178   -3.4798    1.5640 H   0  0  0  0  0  0  0  0  0  0  0  0
    7.2681   -6.0406   -0.4981 H   0  0  0  0  0  0  0  0  0  0  0  0
    6.3530   -4.7561   -0.8994 H   0  0  0  0  0  0  0  0  0  0  0  0
    5.5705   -7.4049   -1.9496 H   0  0  0  0  0  0  0  0  0  0  0  0
    6.8238   -8.1538   -1.8596 H   0  0  0  0  0  0  0  0  0  0  0  0
    4.0826   -4.8123   -4.3796 H   0  0  0  0  0  0  0  0  0  0  0  0
    1.9855   -6.5671   -4.4466 H   0  0  0  0  0  0  0  0  0  0  0  0
    3.2767   -7.7862   -4.7247 H   0  0  0  0  0  0  0  0  0  0  0  0
    6.0617   -6.6951   -4.0627 H   0  0  0  0  0  0  0  0  0  0  0  0
    5.0475   -7.2774   -5.2252 H   0  0  0  0  0  0  0  0  0  0  0  0
    5.7701   -5.6025   -5.2492 H   0  0  0  0  0  0  0  0  0  0  0  0
    2.6198   -6.4990   -2.5702 H   0  0  0  0  0  0  0  0  0  0  0  0
    1.5349   -7.6947   -3.2531 H   0  0  0  0  0  0  0  0  0  0  0  0
    3.2860   -8.4780   -2.5329 H   0  0  0  0  0  0  0  0  0  0  0  0
    0.5829   -6.5806   -2.5242 H   0  0  0  0  0  0  0  0  0  0  0  0
    1.2145   -4.0649   -1.4135 H   0  0  0  0  0  0  0  0  0  0  0  0
    2.4568   -8.2349   -0.4932 H   0  0  0  0  0  0  0  0  0  0  0  0
    4.7455   -6.5912    0.2398 H   0  0  0  0  0  0  0  0  0  0  0  0
    4.0643   -5.3974    1.9568 H   0  0  0  0  0  0  0  0  0  0  0  0
    3.2406   -4.2336    0.8820 H   0  0  0  0  0  0  0  0  0  0  0  0
    1.4360   -9.3035   -3.2171 H   0  0  0  0  0  0  0  0  0  0  0  0
    2.6111   -9.8808   -2.0160 H   0  0  0  0  0  0  0  0  0  0  0  0
    0.8971   -9.2915   -1.4950 H   0  0  0  0  0  0  0  0  0  0  0  0
    2.9402   -7.6700    1.7952 H   0  0  0  0  0  0  0  0  0  0  0  0
    0.8277   -8.7082    2.4621 H   0  0  0  0  0  0  0  0  0  0  0  0
   -1.3175   -5.4000    0.8696 H   0  0  0  0  0  0  0  0  0  0  0  0
    0.7216   -4.5044    0.0661 H   0  0  0  0  0  0  0  0  0  0  0  0
   -1.0711   -9.8178    1.7378 H   0  0  0  0  0  0  0  0  0  0  0  0
   -1.1957   -9.0633    3.3559 H   0  0  0  0  0  0  0  0  0  0  0  0
   -2.6554   -9.4580    2.4390 H   0  0  0  0  0  0  0  0  0  0  0  0
    0.2419   -2.4661   -2.4424 H   0  0  0  0  0  0  0  0  0  0  0  0
    0.3919   -1.2002   -4.4717 H   0  0  0  0  0  0  0  0  0  0  0  0
    1.6817   -2.1928   -3.8874 H   0  0  0  0  0  0  0  0  0  0  0  0
   -2.7665   -1.4969   -3.3873 H   0  0  0  0  0  0  0  0  0  0  0  0
   -3.0087   -3.0074   -2.4720 H   0  0  0  0  0  0  0  0  0  0  0  0
   -1.7133   -1.8811   -1.9964 H   0  0  0  0  0  0  0  0  0  0  0  0
    0.7625   -3.6303   -6.2461 H   0  0  0  0  0  0  0  0  0  0  0  0
   -1.3156   -1.5771   -6.3458 H   0  0  0  0  0  0  0  0  0  0  0  0
   -1.3265   -3.1605   -7.3400 H   0  0  0  0  0  0  0  0  0  0  0  0
   -1.2540   -2.9251   -5.6720 H   0  0  0  0  0  0  0  0  0  0  0  0
    2.4545   -2.3623   -7.2037 H   0  0  0  0  0  0  0  0  0  0  0  0
    1.1445   -2.9737   -8.1616 H   0  0  0  0  0  0  0  0  0  0  0  0
    1.0353   -1.2660   -7.3351 H   0  0  0  0  0  0  0  0  0  0  0  0
   -0.4359   -4.3362   -6.8003 H   0  0  0  0  0  0  0  0  0  0  0  0
    0.5680   -7.2887   -5.9379 H   0  0  0  0  0  0  0  0  0  0  0  0
    0.0044   -6.9735   -4.3219 H   0  0  0  0  0  0  0  0  0  0  0  0
   -1.8245   -7.5825   -6.1943 H   0  0  0  0  0  0  0  0  0  0  0  0
   -2.1888   -6.5299   -4.8182 H   0  0  0  0  0  0  0  0  0  0  0  0
   -2.7789   -5.0963   -6.7403 H   0  0  0  0  0  0  0  0  0  0  0  0
   -1.3799   -5.6308   -7.6575 H   0  0  0  0  0  0  0  0  0  0  0  0
    3.6792   -2.6448   -3.9731 H   0  0  0  0  0  0  0  0  0  0  0  0
    4.2327   -2.9941   -5.7263 H   0  0  0  0  0  0  0  0  0  0  0  0
    3.5549   -1.4004   -5.2288 H   0  0  0  0  0  0  0  0  0  0  0  0
   12.0342   -8.5874   -1.7522 H   0  0  0  0  0  0  0  0  0  0  0  0
    4.0230   -4.7326   -0.7592 H   0  0  0  0  0  0  0  0  0  0  0  0
  1  3  1  0  0  0  0
  1  2  1  0  0  0  0
  2 82  1  0  0  0  0
  2 83  1  0  0  0  0
  2 84  1  0  0  0  0
  3  5  2  0  0  0  0
  4  3  1  0  0  0  0
  4  6  1  0  0  0  0
  4 81  1  1  0  0  0
  6  7  1  0  0  0  0
  6 85  1  0  0  0  0
  6 86  1  0  0  0  0
  7  8  1  0  0  0  0
  7 87  1  0  0  0  0
  7 88  1  0  0  0  0
  8  9  1  0  0  0  0
  8 89  1  0  0  0  0
  8 90  1  0  0  0  0
  9  4  1  0  0  0  0
  9 10  1  0  0  0  0
 10 11  1  0  0  0  0
 10 12  2  0  0  0  0
 11 79  1  0  0  0  0
 11 13  1  0  0  0  0
 11 91  1  1  0  0  0
 13 14  1  0  0  0  0
 13 92  1  0  0  0  0
 13 93  1  0  0  0  0
 14 15  1  0  0  0  0
 14 16  1  0  0  0  0
 14 94  1  0  0  0  0
 15 95  1  0  0  0  0
 15 96  1  0  0  0  0
 15 97  1  0  0  0  0
 16 98  1  0  0  0  0
 16 99  1  0  0  0  0
 16100  1  0  0  0  0
 17 18  1  0  0  0  0
 17 79  1  0  0  0  0
 17 19  2  0  0  0  0
 18 21  1  0  0  0  0
 18 20  1  0  0  0  0
 18101  1  6  0  0  0
 20102  1  0  0  0  0
 20103  1  0  0  0  0
 20104  1  0  0  0  0
 21 22  1  0  0  0  0
 21 23  2  0  0  0  0
 22 27  1  0  0  0  0
 22105  1  6  0  0  0
 22 24  1  0  0  0  0
 24 25  1  0  0  0  0
 24 26  1  0  0  0  0
 24106  1  0  0  0  0
 25107  1  0  0  0  0
 25108  1  0  0  0  0
 25109  1  0  0  0  0
 26110  1  0  0  0  0
 26111  1  0  0  0  0
 26112  1  0  0  0  0
 27 28  1  0  0  0  0
 28 29  1  0  0  0  0
 28 30  2  0  0  0  0
 29 31  1  0  0  0  0
 29113  1  0  0  0  0
 29114  1  0  0  0  0
 31 33  1  0  0  0  0
 31 32  1  0  0  0  0
 31115  1  1  0  0  0
 32116  1  0  0  0  0
 33 80  1  0  0  0  0
 33 34  1  0  0  0  0
 33 78  1  6  0  0  0
 34117  1  6  0  0  0
 34 36  1  0  0  0  0
 34 35  1  0  0  0  0
 35 37  1  0  0  0  0
 35118  1  0  0  0  0
 35119  1  0  0  0  0
 36120  1  0  0  0  0
 36121  1  0  0  0  0
 36122  1  0  0  0  0
 37123  1  0  0  0  0
 37124  1  0  0  0  0
 37125  1  0  0  0  0
 38 80  1  0  0  0  0
 38 40  2  0  0  0  0
 39 38  1  0  0  0  0
 39126  1  1  0  0  0
 39 41  1  0  0  0  0
 41 57  1  0  0  0  0
 41127  1  0  0  0  0
 42 39  1  0  0  0  0
 42 43  1  0  0  0  0
 42 48  1  0  0  0  0
 42128  1  1  0  0  0
 43 44  1  0  0  0  0
 44 46  1  0  0  0  0
 44 45  2  0  0  0  0
 46  1  1  0  0  0  0
 46129  1  1  0  0  0
 46 47  1  0  0  0  0
 47 49  1  0  0  0  0
 47130  1  0  0  0  0
 47131  1  0  0  0  0
 48132  1  0  0  0  0
 48133  1  0  0  0  0
 48134  1  0  0  0  0
 49 50  2  0  0  0  0
 50 51  1  0  0  0  0
 50135  1  0  0  0  0
 51 52  2  0  0  0  0
 51136  1  0  0  0  0
 52 53  1  0  0  0  0
 52 55  1  0  0  0  0
 53 54  2  0  0  0  0
 53137  1  0  0  0  0
 54 49  1  0  0  0  0
 54138  1  0  0  0  0
 55 56  1  0  0  0  0
 56139  1  0  0  0  0
 56140  1  0  0  0  0
 56141  1  0  0  0  0
 57 58  1  0  0  0  0
 57 59  2  0  0  0  0
 58 60  1  0  0  0  0
 58 61  1  0  0  0  0
 58142  1  1  0  0  0
 60 63  1  0  0  0  0
 60143  1  0  0  0  0
 60144  1  0  0  0  0
 61 62  1  0  0  0  0
 61 66  1  0  0  0  0
 62145  1  0  0  0  0
 62146  1  0  0  0  0
 62147  1  0  0  0  0
 63 64  1  0  0  0  0
 63 65  1  0  0  0  0
 63148  1  0  0  0  0
 64149  1  0  0  0  0
 64150  1  0  0  0  0
 64151  1  0  0  0  0
 65152  1  0  0  0  0
 65153  1  0  0  0  0
 65154  1  0  0  0  0
 66 68  2  0  0  0  0
 67 69  1  0  0  0  0
 67155  1  6  0  0  0
 67 66  1  0  0  0  0
 69 70  1  0  0  0  0
 69 73  1  0  0  0  0
 70 71  1  0  0  0  0
 70156  1  0  0  0  0
 70157  1  0  0  0  0
 71 72  1  0  0  0  0
 71158  1  0  0  0  0
 71159  1  0  0  0  0
 72 67  1  0  0  0  0
 72160  1  0  0  0  0
 72161  1  0  0  0  0
 73 74  2  0  0  0  0
 73 75  1  0  0  0  0
 75 76  2  0  0  0  0
 75 77  1  0  0  0  0
 77162  1  0  0  0  0
 77163  1  0  0  0  0
 77164  1  0  0  0  0
 79165  1  0  0  0  0
 80166  1  0  0  0  0
M  END
>  <DRUGBANK_ID>
DB04977

>  <COMMON_NAME>
Plitidepsin

>  <CAS_NUMBER>
137219-37-5

>  <UNII>
Y76ID234HW

>  <SYNONYMS>
Dehydrodidemnin B; Plitidepsin; Plitidepsina; Plitidepsine; Plitidepsium

$$$$
