692
 OpenBabel10282417103D

 40 42  0  0  0  0  0  0  0  0999 V2000
    2.2736    0.0217    0.0039 O   0  0  0  0  0  0  0  0  0  0  0  0
   -1.9413   -2.4072   -0.0690 N   0  0  0  0  0  0  0  0  0  0  0  0
   -4.4260   -2.4528   -2.4357 N   0  0  0  0  0  0  0  0  0  0  0  0
   -4.1549   -4.4355   -1.3738 N   0  0  0  0  0  0  0  0  0  0  0  0
   -3.4438   -2.4494   -0.0572 C   0  0  0  0  0  0  0  0  0  0  0  0
   -4.0274   -3.1301   -1.2998 C   0  0  0  0  0  0  0  0  0  0  0  0
   -5.0155   -3.4015   -3.3498 C   0  0  0  0  0  0  0  0  0  0  0  0
   -4.3710   -4.6803   -2.8300 C   0  0  0  0  0  0  0  0  0  0  0  0
   -1.3151   -3.6832    0.0239 C   0  0  0  0  0  0  0  0  0  0  0  0
   -1.2368   -1.1801   -0.0173 C   0  0  0  0  0  0  0  0  0  0  0  0
   -0.5277   -4.0599    1.1187 C   0  0  0  0  0  0  0  0  0  0  0  0
   -1.3536   -4.5711   -1.0543 C   0  0  0  0  0  0  0  0  0  0  0  0
    0.1790   -1.1684   -0.0221 C   0  0  0  0  0  0  0  0  0  0  0  0
   -1.8598    0.0780   -0.0071 C   0  0  0  0  0  0  0  0  0  0  0  0
    0.0313   -6.1864    0.0631 C   0  0  0  0  0  0  0  0  0  0  0  0
    0.1656   -5.2823    1.1229 C   0  0  0  0  0  0  0  0  0  0  0  0
   -0.7650   -5.8321   -1.0182 C   0  0  0  0  0  0  0  0  0  0  0  0
    0.9091    0.0198    0.0033 C   0  0  0  0  0  0  0  0  0  0  0  0
   -1.1241    1.2712    0.0087 C   0  0  0  0  0  0  0  0  0  0  0  0
    0.2636    1.2414    0.0185 C   0  0  0  0  0  0  0  0  0  0  0  0
    0.7526   -7.4977    0.0380 C   0  0  0  0  0  0  0  0  0  0  0  0
    2.5852   -0.8983   -0.0258 H   0  0  0  0  0  0  0  0  0  0  0  0
   -4.5902   -1.4615   -2.4895 H   0  0  0  0  0  0  0  0  0  0  0  0
   -3.7955   -2.9758    0.8389 H   0  0  0  0  0  0  0  0  0  0  0  0
   -3.9069   -1.4616   -0.0130 H   0  0  0  0  0  0  0  0  0  0  0  0
   -4.7639   -3.1962   -4.3930 H   0  0  0  0  0  0  0  0  0  0  0  0
   -6.1014   -3.4615   -3.2252 H   0  0  0  0  0  0  0  0  0  0  0  0
   -4.9547   -5.5852   -2.9968 H   0  0  0  0  0  0  0  0  0  0  0  0
   -3.3936   -4.8215   -3.3147 H   0  0  0  0  0  0  0  0  0  0  0  0
   -0.4040   -3.3791    1.9568 H   0  0  0  0  0  0  0  0  0  0  0  0
   -1.8397   -4.2722   -1.9713 H   0  0  0  0  0  0  0  0  0  0  0  0
    0.7296   -2.1032   -0.0582 H   0  0  0  0  0  0  0  0  0  0  0  0
   -2.9355    0.1936   -0.0202 H   0  0  0  0  0  0  0  0  0  0  0  0
    0.8220   -5.5158    1.9569 H   0  0  0  0  0  0  0  0  0  0  0  0
   -0.9123   -6.5065   -1.8578 H   0  0  0  0  0  0  0  0  0  0  0  0
   -1.6459    2.2239    0.0082 H   0  0  0  0  0  0  0  0  0  0  0  0
    0.8371    2.1619    0.0296 H   0  0  0  0  0  0  0  0  0  0  0  0
    0.0362   -8.3248    0.0022 H   0  0  0  0  0  0  0  0  0  0  0  0
    1.3993   -7.5482   -0.8452 H   0  0  0  0  0  0  0  0  0  0  0  0
    1.3815   -7.6237    0.9233 H   0  0  0  0  0  0  0  0  0  0  0  0
  1 18  1  0  0  0  0
  1 22  1  0  0  0  0
  2  5  1  0  0  0  0
  2  9  1  0  0  0  0
  2 10  1  0  0  0  0
  3  6  1  0  0  0  0
  3  7  1  0  0  0  0
  3 23  1  0  0  0  0
  4  6  2  0  0  0  0
  4  8  1  0  0  0  0
  5  6  1  0  0  0  0
  5 24  1  0  0  0  0
  5 25  1  0  0  0  0
  7  8  1  0  0  0  0
  7 26  1  0  0  0  0
  7 27  1  0  0  0  0
  8 28  1  0  0  0  0
  8 29  1  0  0  0  0
  9 11  2  0  0  0  0
  9 12  1  0  0  0  0
 10 13  2  0  0  0  0
 10 14  1  0  0  0  0
 11 16  1  0  0  0  0
 11 30  1  0  0  0  0
 12 17  2  0  0  0  0
 12 31  1  0  0  0  0
 13 18  1  0  0  0  0
 13 32  1  0  0  0  0
 14 19  2  0  0  0  0
 14 33  1  0  0  0  0
 15 16  2  0  0  0  0
 15 17  1  0  0  0  0
 15 21  1  0  0  0  0
 16 34  1  0  0  0  0
 17 35  1  0  0  0  0
 18 20  2  0  0  0  0
 19 20  1  0  0  0  0
 19 36  1  0  0  0  0
 20 37  1  0  0  0  0
 21 38  1  0  0  0  0
 21 39  1  0  0  0  0
 21 40  1  0  0  0  0
M  END
>  <DRUGBANK_ID>
DB00692

>  <SECONDARY_ACCESSION_NUMBERS>
APRD00615

>  <COMMON_NAME>
Phentolamine

>  <CAS_NUMBER>
50-60-2

>  <UNII>
Z468598HBV

>  <SYNONYMS>
2-(N-(m-hydroxyphenyl)-p-toluidinomethyl)imidazoline; 3-((4,5-DIHYDRO-1H-IMIDAZOL-2-YLMETHYL)(4-METHYLPHENYL)AMINO)PHENOL; Fentolamina; Phentolamin; Phentolamine; Phentolaminum

$$$$
