
 OpenBabel10282417203D

 23 24  0  0  0  0  0  0  0  0999 V2000
    0.2902    1.1982   -0.0534 C   0  0  0  0  0  0  0  0  0  0  0  0
    0.3446   -1.2102   -0.0148 C   0  0  0  0  0  0  0  0  0  0  0  0
    1.6874    1.2278   -0.0874 C   0  0  0  0  0  0  0  0  0  0  0  0
    1.7455   -1.1748   -0.0132 C   0  0  0  0  0  0  0  0  0  0  0  0
    4.9146    3.8947    1.1346 C   0  0  0  0  0  0  0  0  0  0  0  0
    5.6030    2.1549   -0.9314 C   0  0  0  0  0  0  0  0  0  0  0  0
   -0.3766   -0.0190   -0.0218 C   0  0  0  0  0  0  0  0  0  0  0  0
    2.4377    0.0458   -0.0386 C   0  0  0  0  0  0  0  0  0  0  0  0
    5.7036    4.3531    0.0791 C   0  0  0  0  0  0  0  0  0  0  0  0
    6.0690    3.4760   -0.9451 C   0  0  0  0  0  0  0  0  0  0  0  0
    4.4859    2.5635    1.1713 C   0  0  0  0  0  0  0  0  0  0  0  0
    4.7821    1.6880    0.1108 C   0  0  0  0  0  0  0  0  0  0  0  0
   -2.0953   -0.0487   -0.0009 Cl  0  0  0  0  0  0  0  0  0  0  0  0
    6.1999    6.0070    0.1096 Cl  0  0  0  0  0  0  0  0  0  0  0  0
    7.0935    3.9591   -2.2498 Cl  0  0  0  0  0  0  0  0  0  0  0  0
    3.5896    2.0777    2.5708 Cl  0  0  0  0  0  0  0  0  0  0  0  0
    4.2283   -0.0117    0.0026 S   0  0  0  0  0  0  0  0  0  0  0  0
   -0.2632    2.1343   -0.0510 H   0  0  0  0  0  0  0  0  0  0  0  0
   -0.1736   -2.1647   -0.0051 H   0  0  0  0  0  0  0  0  0  0  0  0
    2.1596    2.2012   -0.1319 H   0  0  0  0  0  0  0  0  0  0  0  0
    2.2884   -2.1191    0.0093 H   0  0  0  0  0  0  0  0  0  0  0  0
    4.6371    4.5741    1.9377 H   0  0  0  0  0  0  0  0  0  0  0  0
    5.8911    1.4854   -1.7415 H   0  0  0  0  0  0  0  0  0  0  0  0
  1 18  1  0  0  0  0
  2 19  1  0  0  0  0
  3  1  1  0  0  0  0
  3 20  1  0  0  0  0
  4  2  2  0  0  0  0
  4 21  1  0  0  0  0
  5 22  1  0  0  0  0
  6 23  1  0  0  0  0
  7  1  2  0  0  0  0
  7  2  1  0  0  0  0
  8  3  2  0  0  0  0
  8  4  1  0  0  0  0
  9  5  2  0  0  0  0
 10  6  2  0  0  0  0
 10  9  1  0  0  0  0
 11  5  1  0  0  0  0
 12  6  1  0  0  0  0
 12 11  2  0  0  0  0
 13  7  1  0  0  0  0
 14  9  1  0  0  0  0
 15 10  1  0  0  0  0
 16 11  1  0  0  0  0
 17  8  1  0  0  0  0
 17 12  1  0  0  0  0
M  END
>  <DRUGBANK_ID>
DB12838

>  <COMMON_NAME>
Tetrasul

>  <CAS_NUMBER>
2227-13-6

>  <UNII>
BEO7JP5U0R

$$$$
