
 OpenBabel10282417193D

 51 52  0  0  0  0  0  0  0  0999 V2000
    1.5206   -0.0246    0.1712 C   0  0  0  0  0  0  0  0  0  0  0  0
   -1.2969    4.8769   -4.8313 C   0  0  0  0  0  0  0  0  0  0  0  0
    1.1980    4.7263   -5.2724 C   0  0  0  0  0  0  0  0  0  0  0  0
   -0.2881    2.7565   -5.6771 C   0  0  0  0  0  0  0  0  0  0  0  0
   -2.4914   -3.1503    0.7979 C   0  0  0  0  0  0  0  0  0  0  0  0
   -3.4347   -1.9858    1.0997 C   0  0  0  0  0  0  0  0  0  0  0  0
   -1.1650   -2.9448    1.4930 C   0  0  0  0  0  0  0  0  0  0  0  0
    0.1361    1.9439   -1.6229 C   0  0  0  0  0  0  0  0  0  0  0  0
    0.5592    4.1925   -0.9691 C   0  0  0  0  0  0  0  0  0  0  0  0
    0.0610    2.2789   -2.9398 C   0  0  0  0  0  0  0  0  0  0  0  0
    0.3803    4.5652   -2.2983 C   0  0  0  0  0  0  0  0  0  0  0  0
   -2.8081   -0.6328    0.7570 C   0  0  0  0  0  0  0  0  0  0  0  0
   -0.6484   -1.5707    1.1711 C   0  0  0  0  0  0  0  0  0  0  0  0
    0.9980    2.3887    0.7278 C   0  0  0  0  0  0  0  0  0  0  0  0
   -0.9178    0.8221    1.1326 C   0  0  0  0  0  0  0  0  0  0  0  0
    0.6548    0.9267    1.0784 C   0  0  3  0  0  0  0  0  0  0  0  0
    0.5231    2.8428   -0.6299 C   0  0  0  0  0  0  0  0  0  0  0  0
    0.1673    3.6102   -3.3130 C   0  0  0  0  0  0  0  0  0  0  0  0
   -0.0465    3.9877   -4.7662 C   0  0  0  0  0  0  0  0  0  0  0  0
   -1.5363   -0.4651    1.4822 N   0  0  0  0  0  0  0  0  0  0  0  0
    1.2391   -0.0804   -0.8783 H   0  0  0  0  0  0  0  0  0  0  0  0
    1.5476   -1.0712    0.4681 H   0  0  0  0  0  0  0  0  0  0  0  0
    2.5683    0.2805    0.1888 H   0  0  0  0  0  0  0  0  0  0  0  0
   -1.1832    5.7896   -4.2364 H   0  0  0  0  0  0  0  0  0  0  0  0
   -1.5146    5.1745   -5.8598 H   0  0  0  0  0  0  0  0  0  0  0  0
   -2.1728    4.3444   -4.4368 H   0  0  0  0  0  0  0  0  0  0  0  0
    2.0887    4.0894   -5.1942 H   0  0  0  0  0  0  0  0  0  0  0  0
    1.0795    5.0180   -6.3196 H   0  0  0  0  0  0  0  0  0  0  0  0
    1.3988    5.6342   -4.6939 H   0  0  0  0  0  0  0  0  0  0  0  0
    0.5697    2.0699   -5.6589 H   0  0  0  0  0  0  0  0  0  0  0  0
   -1.1733    2.1892   -5.3557 H   0  0  0  0  0  0  0  0  0  0  0  0
   -0.4557    3.0438   -6.7170 H   0  0  0  0  0  0  0  0  0  0  0  0
   -2.9228   -4.0998    1.1218 H   0  0  0  0  0  0  0  0  0  0  0  0
   -2.3213   -3.2136   -0.2849 H   0  0  0  0  0  0  0  0  0  0  0  0
   -4.3610   -2.1137    0.5328 H   0  0  0  0  0  0  0  0  0  0  0  0
   -3.6892   -1.9959    2.1660 H   0  0  0  0  0  0  0  0  0  0  0  0
   -1.2525   -3.0548    2.5787 H   0  0  0  0  0  0  0  0  0  0  0  0
   -0.4243   -3.6749    1.1444 H   0  0  0  0  0  0  0  0  0  0  0  0
   -0.1485    0.9161   -1.4293 H   0  0  0  0  0  0  0  0  0  0  0  0
    0.7159    4.9459   -0.2029 H   0  0  0  0  0  0  0  0  0  0  0  0
   -0.1077    1.4666   -3.6366 H   0  0  0  0  0  0  0  0  0  0  0  0
    0.4202    5.6268   -2.5397 H   0  0  0  0  0  0  0  0  0  0  0  0
   -2.6456   -0.5720   -0.3298 H   0  0  0  0  0  0  0  0  0  0  0  0
   -3.5078    0.1707    1.0211 H   0  0  0  0  0  0  0  0  0  0  0  0
    0.2466   -1.4689    1.7863 H   0  0  0  0  0  0  0  0  0  0  0  0
   -0.4326   -1.5519    0.0946 H   0  0  0  0  0  0  0  0  0  0  0  0
    0.6098    3.0582    1.5045 H   0  0  0  0  0  0  0  0  0  0  0  0
    2.0921    2.4910    0.7448 H   0  0  0  0  0  0  0  0  0  0  0  0
   -1.2726    1.5559    1.8744 H   0  0  0  0  0  0  0  0  0  0  0  0
   -1.3642    1.1863    0.2033 H   0  0  0  0  0  0  0  0  0  0  0  0
    1.0074    0.7491    2.1029 H   0  0  0  0  0  0  0  0  0  0  0  0
  1 21  1  0  0  0  0
  1 22  1  0  0  0  0
  1 23  1  0  0  0  0
  2 24  1  0  0  0  0
  2 25  1  0  0  0  0
  2 26  1  0  0  0  0
  3 27  1  0  0  0  0
  3 28  1  0  0  0  0
  3 29  1  0  0  0  0
  4 30  1  0  0  0  0
  4 31  1  0  0  0  0
  4 32  1  0  0  0  0
  5 33  1  0  0  0  0
  5 34  1  0  0  0  0
  6  5  1  0  0  0  0
  6 35  1  0  0  0  0
  6 36  1  0  0  0  0
  7  5  1  0  0  0  0
  7 37  1  0  0  0  0
  7 38  1  0  0  0  0
  8 39  1  0  0  0  0
  9 40  1  0  0  0  0
 10  8  1  0  0  0  0
 10 41  1  0  0  0  0
 11  9  2  0  0  0  0
 11 42  1  0  0  0  0
 12  6  1  0  0  0  0
 12 43  1  0  0  0  0
 12 44  1  0  0  0  0
 13  7  1  0  0  0  0
 13 45  1  0  0  0  0
 13 46  1  0  0  0  0
 14 47  1  0  0  0  0
 14 48  1  0  0  0  0
 15 49  1  0  0  0  0
 15 50  1  0  0  0  0
 16  1  1  0  0  0  0
 16 14  1  0  0  0  0
 16 15  1  0  0  0  0
 16 51  1  0  0  0  0
 17  8  2  0  0  0  0
 17  9  1  0  0  0  0
 17 14  1  0  0  0  0
 18 10  2  0  0  0  0
 18 11  1  0  0  0  0
 19  2  1  0  0  0  0
 19  3  1  0  0  0  0
 19  4  1  0  0  0  0
 19 18  1  0  0  0  0
 20 12  1  0  0  0  0
 20 13  1  0  0  0  0
 20 15  1  0  0  0  0
M  END
>  <DRUGBANK_ID>
DB12728

>  <COMMON_NAME>
Fenpropidin

>  <CAS_NUMBER>
67306-00-7

>  <UNII>
845XW54F31

>  <SYNONYMS>
Patrol

$$$$
