
 OpenBabel10282417183D

199208  0  0  0  0  0  0  0  0999 V2000
    1.0617   -0.0997    0.0011 C   0  0  0  0  0  0  0  0  0  0  0  0
    2.6271    0.5204   16.8697 C   0  0  0  0  0  0  0  0  0  0  0  0
    0.9555    1.2591    2.3052 C   0  0  0  0  0  0  0  0  0  0  0  0
   -1.5081  -13.4303   21.0917 C   0  0  0  0  0  0  0  0  0  0  0  0
    4.4160  -12.8391    9.9604 C   0  0  0  0  0  0  0  0  0  0  0  0
    0.9291  -11.2521   18.8007 C   0  0  0  0  0  0  0  0  0  0  0  0
    2.8657  -10.9741    7.2776 C   0  0  0  0  0  0  0  0  0  0  0  0
    1.5517  -10.8878   12.2006 C   0  0  0  0  0  0  0  0  0  0  0  0
    1.9024   -0.7661    9.9331 C   0  0  0  0  0  0  0  0  0  0  0  0
    2.5319   -5.1744   15.5430 C   0  0  0  0  0  0  0  0  0  0  0  0
    5.7449    5.1123   11.5408 C   0  0  0  0  0  0  0  0  0  0  0  0
    5.0965    2.4771   19.8922 C   0  0  0  0  0  0  0  0  0  0  0  0
    5.7245    1.4869   16.6952 C   0  0  0  0  0  0  0  0  0  0  0  0
    0.6727   -0.2856    1.6829 C   0  0  0  0  0  0  0  0  0  0  0  0
    3.4623   -0.6061   16.6126 C   0  0  0  0  0  0  0  0  0  0  0  0
    1.5586    0.4747    7.2996 C   0  0  0  0  0  0  0  0  0  0  0  0
    0.7387    0.5603    6.3336 C   0  0  0  0  0  0  0  0  0  0  0  0
    1.0603   -9.1368   14.8560 C   0  0  0  0  0  0  0  0  0  0  0  0
    1.9892   -8.2149   14.4483 C   0  0  0  0  0  0  0  0  0  0  0  0
    3.4501    2.4109    9.7993 C   0  0  0  0  0  0  0  0  0  0  0  0
    5.6230   -7.8937   13.0780 C   0  0  0  0  0  0  0  0  0  0  0  0
   -1.4846  -12.6221   15.8979 C   0  0  0  0  0  0  0  0  0  0  0  0
    6.0712    2.7237   15.2955 C   0  0  0  0  0  0  0  0  0  0  0  0
    6.0705    5.1801   13.9425 C   0  0  0  0  0  0  0  0  0  0  0  0
    5.2756   -5.6673   16.1580 C   0  0  0  0  0  0  0  0  0  0  0  0
    1.8261   -0.7265    3.4566 C   0  0  3  0  0  0  0  0  0  0  0  0
   -0.7998  -13.0535   22.1034 C   0  0  0  0  0  0  0  0  0  0  0  0
    3.7776  -12.2321   10.9019 C   0  0  0  0  0  0  0  0  0  0  0  0
    0.2687  -11.8784   19.6495 C   0  0  0  0  0  0  0  0  0  0  0  0
    3.9111   -9.2351    7.7230 C   0  0  3  0  0  0  0  0  0  0  0  0
    2.7327  -10.8691   13.0963 C   0  0  3  0  0  0  0  0  0  0  0  0
    3.1959   -0.0733    9.5753 C   0  0  3  0  0  0  0  0  0  0  0  0
    2.2222   -3.7888   15.7219 C   0  0  3  0  0  0  0  0  0  0  0  0
    5.2706    2.7972   12.1984 C   0  0  3  0  0  0  0  0  0  0  0  0
    5.4225    1.6054   18.7590 C   0  0  3  0  0  0  0  0  0  0  0  0
    2.1314    1.5781    7.9973 C   0  0  0  0  0  0  0  0  0  0  0  0
    2.9207    1.3310    9.1116 C   0  0  0  0  0  0  0  0  0  0  0  0
    4.6924   -0.9095   16.1794 C   0  0  0  0  0  0  0  0  0  0  0  0
    0.8625    1.4545    5.4312 C   0  0  3  0  0  0  0  0  0  0  0  0
    1.4995  -10.3134   15.5444 C   0  0  0  0  0  0  0  0  0  0  0  0
    3.1877    3.7041    9.3915 C   0  0  0  0  0  0  0  0  0  0  0  0
    4.6687   -7.1706   13.5909 C   0  0  0  0  0  0  0  0  0  0  0  0
   -1.0502  -12.4759   17.0789 C   0  0  0  0  0  0  0  0  0  0  0  0
    5.6531    5.9017   14.9394 C   0  0  0  0  0  0  0  0  0  0  0  0
    7.3522    1.9222   15.2976 C   0  0  3  0  0  0  0  0  0  0  0  0
    4.0702   -6.0158   17.1442 C   0  0  0  0  0  0  0  0  0  0  0  0
    2.6612   -2.6116    5.0544 C   0  0  3  0  0  0  0  0  0  0  0  0
    3.2581   -3.2346   16.7974 C   0  0  3  0  0  0  0  0  0  0  0  0
    4.9799    0.2041   12.8729 C   0  0  3  0  0  0  0  0  0  0  0  0
    1.9007    2.8857    7.6112 C   0  0  0  0  0  0  0  0  0  0  0  0
    1.0750    3.0763    6.3951 C   0  0  3  0  0  0  0  0  0  0  0  0
    4.1963   -9.1554   14.8879 C   0  0  3  0  0  0  0  0  0  0  0  0
    6.2656    3.6759   17.5380 C   0  0  3  0  0  0  0  0  0  0  0  0
   -1.3899  -13.6802   23.3125 C   0  0  0  0  0  0  0  0  0  0  0  0
    0.8485  -11.6581   21.0537 C   0  0  0  0  0  0  0  0  0  0  0  0
    3.8317  -12.7817   12.3154 C   0  0  0  0  0  0  0  0  0  0  0  0
    3.2729  -10.0220    9.4717 C   0  0  0  0  0  0  0  0  0  0  0  0
    3.6227   -9.7490   12.6403 C   0  0  0  0  0  0  0  0  0  0  0  0
   -1.5389  -13.0185   18.2301 C   0  0  0  0  0  0  0  0  0  0  0  0
    4.8731    4.7552   13.8893 C   0  0  0  0  0  0  0  0  0  0  0  0
    3.4059   -5.0608   18.2325 C   0  0  0  0  0  0  0  0  0  0  0  0
    8.1377    2.3784   16.5905 C   0  0  0  0  0  0  0  0  0  0  0  0
    3.6114   -4.9699    6.1643 C   0  0  0  0  0  0  0  0  0  0  0  0
    4.8521   -2.9592   16.4944 C   0  0  0  0  0  0  0  0  0  0  0  0
    5.5405    0.0880   15.5241 C   0  0  0  0  0  0  0  0  0  0  0  0
    0.4414  -11.1560   15.7671 C   0  0  0  0  0  0  0  0  0  0  0  0
    4.9564   -2.4759   13.0056 C   0  0  0  0  0  0  0  0  0  0  0  0
    6.1738    4.7822   16.3893 C   0  0  0  0  0  0  0  0  0  0  0  0
    3.7486    4.8560   10.1531 C   0  0  0  0  0  0  0  0  0  0  0  0
    3.6965   -7.4368   15.5727 C   0  0  0  0  0  0  0  0  0  0  0  0
    5.3080    2.5063   17.6395 C   0  0  3  0  0  0  0  0  0  0  0  0
    3.2406   -8.4166   14.6841 C   0  0  3  0  0  0  0  0  0  0  0  0
   -0.8738  -13.4699   24.4714 N   0  0  0  0  0  0  0  0  0  0  0  0
    0.3537  -12.1936   22.1369 N   0  0  0  0  0  0  0  0  0  0  0  0
    3.2094  -10.8963   10.5099 N   0  0  0  0  0  0  0  0  0  0  0  0
    3.3222  -12.1798   13.3302 N   0  0  0  0  0  0  0  0  0  0  0  0
   -0.7845  -12.5840   19.1029 N   0  0  0  0  0  0  0  0  0  0  0  0
    3.7982   -6.9536    6.9029 N   0  0  0  0  0  0  0  0  0  0  0  0
    2.0091   -0.3601    5.0139 N   0  0  0  0  0  0  0  0  0  0  0  0
    2.4109    3.9578    8.2928 N   0  0  0  0  0  0  0  0  0  0  0  0
    2.7976  -10.5394   15.6977 N   0  0  0  0  0  0  0  0  0  0  0  0
    5.3917   -1.9832   16.0032 N   0  0  0  0  0  0  0  0  0  0  0  0
    4.8250   -4.7964   13.2638 N   0  0  0  0  0  0  0  0  0  0  0  0
    6.8957    0.2666   15.2764 N   0  0  0  0  0  0  0  0  0  0  0  0
   -0.0560  -11.6875   16.7473 N   0  0  0  0  0  0  0  0  0  0  0  0
    5.5496    5.8265   16.2212 N   0  0  0  0  0  0  0  0  0  0  0  0
    3.3000   -7.0943   16.7151 N   0  0  0  0  0  0  0  0  0  0  0  0
    3.0759   -3.8085   18.1141 N   0  0  0  0  0  0  0  0  0  0  0  0
    4.8156    2.7426   13.3566 N   0  0  0  0  0  0  0  0  0  0  0  0
    7.6404    3.1351   17.5378 N   0  0  0  0  0  0  0  0  0  0  0  0
    3.3668   -8.5696   13.1882 N   0  0  0  0  0  0  0  0  0  0  0  0
    3.8665   -0.7979    8.5495 O   0  0  0  0  0  0  0  0  0  0  0  0
    0.9177   -3.7173   16.1855 O   0  0  0  0  0  0  0  0  0  0  0  0
    4.5530    0.4944   18.6986 O   0  0  0  0  0  0  0  0  0  0  0  0
   -0.1352    3.7556    6.8925 O   0  0  0  0  0  0  0  0  0  0  0  0
   -2.5162  -14.5050   23.1838 O   0  0  0  0  0  0  0  0  0  0  0  0
    1.9870  -10.8135   21.1207 O   0  0  0  0  0  0  0  0  0  0  0  0
    4.4077  -14.0330   12.4763 O   0  0  0  0  0  0  0  0  0  0  0  0
    2.6300   -8.8747    9.4634 O   0  0  0  0  0  0  0  0  0  0  0  0
    4.5691   -9.9545   11.5815 O   0  0  0  0  0  0  0  0  0  0  0  0
   -2.6355  -13.8503   18.3032 O   0  0  0  0  0  0  0  0  0  0  0  0
    5.4430    6.8224   14.5281 O   0  0  0  0  0  0  0  0  0  0  0  0
    3.2466   -5.6656   19.4413 O   0  0  0  0  0  0  0  0  0  0  0  0
    9.4043    1.8971   16.6830 O   0  0  0  0  0  0  0  0  0  0  0  0
    5.0988   -6.3901    6.9767 O   0  0  0  0  0  0  0  0  0  0  0  0
    4.2232   -3.9168   16.0667 O   0  0  0  0  0  0  0  0  0  0  0  0
    3.5515    6.0298    9.8291 O   0  0  0  0  0  0  0  0  0  0  0  0
    3.8779    3.0184   17.5897 O   0  0  0  0  0  0  0  0  0  0  0  0
    4.4710    4.3590   11.2330 O   0  0  0  0  0  0  0  0  0  0  0  0
    4.1722    2.1861   15.4547 S   0  0  0  0  0  0  0  0  0  0  0  0
   -0.6284  -11.7910   14.7959 S   0  0  0  0  0  0  0  0  0  0  0  0
    5.2809   -5.3027   12.7578 S   0  0  0  0  0  0  0  0  0  0  0  0
    7.1106    4.4763   14.7916 S   0  0  0  0  0  0  0  0  0  0  0  0
    4.9464   -6.6262   15.2943 S   0  0  0  0  0  0  0  0  0  0  0  0
    2.6922   -1.1582   16.9059 H   0  0  0  0  0  0  0  0  0  0  0  0
    0.6795    0.8180   -0.4967 H   0  0  0  0  0  0  0  0  0  0  0  0
    0.6799   -0.9313   -0.6008 H   0  0  0  0  0  0  0  0  0  0  0  0
    2.1284   -0.0802   -0.0474 H   0  0  0  0  0  0  0  0  0  0  0  0
    1.8628    0.7319   16.1981 H   0  0  0  0  0  0  0  0  0  0  0  0
    2.3757    0.7371   17.8776 H   0  0  0  0  0  0  0  0  0  0  0  0
    3.2641    1.1984   16.6483 H   0  0  0  0  0  0  0  0  0  0  0  0
   -0.3776    2.1046    1.6780 H   0  0  0  0  0  0  0  0  0  0  0  0
    0.9462    2.9237    2.1894 H   0  0  0  0  0  0  0  0  0  0  0  0
    0.9472    2.1328    0.8162 H   0  0  0  0  0  0  0  0  0  0  0  0
   -2.2949  -13.9699   20.7609 H   0  0  0  0  0  0  0  0  0  0  0  0
   -0.9756  -12.9414   20.5008 H   0  0  0  0  0  0  0  0  0  0  0  0
    4.5294  -12.5870    8.9795 H   0  0  0  0  0  0  0  0  0  0  0  0
    4.8534  -13.7609   10.0204 H   0  0  0  0  0  0  0  0  0  0  0  0
    1.6885  -10.6611   18.6409 H   0  0  0  0  0  0  0  0  0  0  0  0
    0.4868  -11.4675   18.0242 H   0  0  0  0  0  0  0  0  0  0  0  0
    2.3735  -10.1530    6.9663 H   0  0  0  0  0  0  0  0  0  0  0  0
    3.2697  -11.6092    6.4786 H   0  0  0  0  0  0  0  0  0  0  0  0
    2.0329  -11.6739    7.7474 H   0  0  0  0  0  0  0  0  0  0  0  0
    1.8021  -11.2827   11.2661 H   0  0  0  0  0  0  0  0  0  0  0  0
    0.8190  -11.5775   12.5215 H   0  0  0  0  0  0  0  0  0  0  0  0
    1.1459   -9.9037   12.0308 H   0  0  0  0  0  0  0  0  0  0  0  0
    1.2439   -0.8124    9.0810 H   0  0  0  0  0  0  0  0  0  0  0  0
    2.0874   -1.7815   10.2514 H   0  0  0  0  0  0  0  0  0  0  0  0
    1.3850   -0.2253   10.7127 H   0  0  0  0  0  0  0  0  0  0  0  0
    2.3738   -5.6352   16.5000 H   0  0  0  0  0  0  0  0  0  0  0  0
    2.0256   -5.7419   14.8642 H   0  0  0  0  0  0  0  0  0  0  0  0
    3.5231   -5.2008   15.1813 H   0  0  0  0  0  0  0  0  0  0  0  0
    5.4535    6.5216   10.5586 H   0  0  0  0  0  0  0  0  0  0  0  0
    6.2681    6.7911   11.7444 H   0  0  0  0  0  0  0  0  0  0  0  0
    6.8202    5.7595   10.8036 H   0  0  0  0  0  0  0  0  0  0  0  0
    4.0739    2.8364   19.8138 H   0  0  0  0  0  0  0  0  0  0  0  0
    5.2132    1.9157   20.7930 H   0  0  0  0  0  0  0  0  0  0  0  0
    5.7628    3.3322   19.9105 H   0  0  0  0  0  0  0  0  0  0  0  0
    6.7085    1.1862   16.6913 H   0  0  0  0  0  0  0  0  0  0  0  0
    4.7116    0.8366   16.5787 H   0  0  0  0  0  0  0  0  0  0  0  0
    5.5553    1.4232   15.0371 H   0  0  0  0  0  0  0  0  0  0  0  0
   -0.5211   -0.1825    1.4406 H   0  0  0  0  0  0  0  0  0  0  0  0
    0.8738   -1.2163    1.7835 H   0  0  0  0  0  0  0  0  0  0  0  0
    1.7089   -0.5500    7.5055 H   0  0  0  0  0  0  0  0  0  0  0  0
    0.2995   -0.1378    5.7028 H   0  0  0  0  0  0  0  0  0  0  0  0
    0.5860   -8.5727   15.6039 H   0  0  0  0  0  0  0  0  0  0  0  0
    0.5677   -9.3844   13.9398 H   0  0  0  0  0  0  0  0  0  0  0  0
    1.8589   -7.4091   15.0707 H   0  0  0  0  0  0  0  0  0  0  0  0
    1.8315   -8.0754   13.3921 H   0  0  0  0  0  0  0  0  0  0  0  0
    4.0658    2.2220   10.6452 H   0  0  0  0  0  0  0  0  0  0  0  0
    6.3671   -9.0956   13.7475 H   0  0  0  0  0  0  0  0  0  0  0  0
   -2.2641  -13.1654   15.5723 H   0  0  0  0  0  0  0  0  0  0  0  0
    5.8755    3.3093   15.9652 H   0  0  0  0  0  0  0  0  0  0  0  0
    5.7081    2.8786   14.4645 H   0  0  0  0  0  0  0  0  0  0  0  0
    6.4550    4.6913   13.1328 H   0  0  0  0  0  0  0  0  0  0  0  0
    6.3454   -5.6147   15.9646 H   0  0  0  0  0  0  0  0  0  0  0  0
    2.1725    0.6168    2.5288 H   0  0  0  0  0  0  0  0  0  0  0  0
    4.2025  -10.9478    8.3044 H   0  0  0  0  0  0  0  0  0  0  0  0
    2.3600  -10.5092   13.9852 H   0  0  0  0  0  0  0  0  0  0  0  0
    3.8333   -0.0567   10.4563 H   0  0  0  0  0  0  0  0  0  0  0  0
    2.3841   -3.3117   14.7685 H   0  0  0  0  0  0  0  0  0  0  0  0
    5.2696    4.4875   12.3854 H   0  0  0  0  0  0  0  0  0  0  0  0
    6.4407    1.2474   18.7732 H   0  0  0  0  0  0  0  0  0  0  0  0
   -0.4813    1.9890    5.8533 H   0  0  0  0  0  0  0  0  0  0  0  0
    7.8714    2.0584   14.4411 H   0  0  0  0  0  0  0  0  0  0  0  0
    1.4306   -1.5975    4.6996 H   0  0  0  0  0  0  0  0  0  0  0  0
    2.8598   -2.4052   16.8589 H   0  0  0  0  0  0  0  0  0  0  0  0
    4.2181    1.6387   12.4883 H   0  0  0  0  0  0  0  0  0  0  0  0
    1.6068    3.6751    5.6764 H   0  0  0  0  0  0  0  0  0  0  0  0
    4.3817   -9.3770   16.1359 H   0  0  0  0  0  0  0  0  0  0  0  0
    5.9695    4.2664   18.3138 H   0  0  0  0  0  0  0  0  0  0  0  0
   -0.0388  -12.8471   24.4929 H   0  0  0  0  0  0  0  0  0  0  0  0
    2.0561    1.1468    4.5152 H   0  0  0  0  0  0  0  0  0  0  0  0
    3.3102   -0.8193    7.7499 H   0  0  0  0  0  0  0  0  0  0  0  0
    0.8718   -4.1609   17.0560 H   0  0  0  0  0  0  0  0  0  0  0  0
    3.6500    0.8221   18.6450 H   0  0  0  0  0  0  0  0  0  0  0  0
   -0.5826    3.1667    7.5425 H   0  0  0  0  0  0  0  0  0  0  0  0
   -2.8904  -14.9107   24.0049 H   0  0  0  0  0  0  0  0  0  0  0  0
    2.3978  -10.6411   22.0028 H   0  0  0  0  0  0  0  0  0  0  0  0
    4.8052  -14.5068   11.7145 H   0  0  0  0  0  0  0  0  0  0  0  0
    2.6853   -8.4558    8.5622 H   0  0  0  0  0  0  0  0  0  0  0  0
    4.3565  -10.7044   10.9770 H   0  0  0  0  0  0  0  0  0  0  0  0
   -2.9936  -14.2456   19.1321 H   0  0  0  0  0  0  0  0  0  0  0  0
    6.1482    7.9028   15.4938 H   0  0  0  0  0  0  0  0  0  0  0  0
    3.4748   -6.6168   19.5256 H   0  0  0  0  0  0  0  0  0  0  0  0
    9.7662    1.3112   15.9804 H   0  0  0  0  0  0  0  0  0  0  0  0
    6.1700   -7.4091    7.6730 H   0  0  0  0  0  0  0  0  0  0  0  0
    4.6175   -4.4923   16.7070 H   0  0  0  0  0  0  0  0  0  0  0  0
    3.2950    2.2812   17.4110 H   0  0  0  0  0  0  0  0  0  0  0  0
  1116  1  0  0  0  0
  1117  1  0  0  0  0
  1118  1  0  0  0  0
  2119  1  0  0  0  0
  2120  1  0  0  0  0
  2121  1  0  0  0  0
  3122  1  0  0  0  0
  3123  1  0  0  0  0
  3124  1  0  0  0  0
  4125  1  0  0  0  0
  4126  1  0  0  0  0
  5127  1  0  0  0  0
  5128  1  0  0  0  0
  6129  1  0  0  0  0
  6130  1  0  0  0  0
  7131  1  0  0  0  0
  7132  1  0  0  0  0
  7133  1  0  0  0  0
  8134  1  0  0  0  0
  8135  1  0  0  0  0
  8136  1  0  0  0  0
  9137  1  0  0  0  0
  9138  1  0  0  0  0
  9139  1  0  0  0  0
 10140  1  0  0  0  0
 10141  1  0  0  0  0
 10142  1  0  0  0  0
 11143  1  0  0  0  0
 11144  1  0  0  0  0
 11145  1  0  0  0  0
 12146  1  0  0  0  0
 12147  1  0  0  0  0
 12148  1  0  0  0  0
 13149  1  0  0  0  0
 13150  1  0  0  0  0
 13151  1  0  0  0  0
 14  1  1  0  0  0  0
 14152  1  0  0  0  0
 14153  1  0  0  0  0
 15  2  1  0  0  0  0
 16154  1  0  0  0  0
 17 16  2  0  0  0  0
 17155  1  0  0  0  0
 18156  1  0  0  0  0
 18157  1  0  0  0  0
 19 18  1  0  0  0  0
 19158  1  0  0  0  0
 19159  1  0  0  0  0
 20160  1  0  0  0  0
 21161  1  0  0  0  0
 22162  1  0  0  0  0
 23163  1  0  0  0  0
 23164  1  0  0  0  0
 24165  1  0  0  0  0
 25166  1  0  0  0  0
 26  3  1  0  0  0  0
 26 14  1  0  0  0  0
 26167  1  0  0  0  0
 27  4  2  0  0  0  0
 28  5  2  0  0  0  0
 29  6  2  0  0  0  0
 30  7  1  0  0  0  0
 30168  1  0  0  0  0
 31  8  1  0  0  0  0
 31169  1  0  0  0  0
 32  9  1  0  0  0  0
 32170  1  0  0  0  0
 33 10  1  0  0  0  0
 33171  1  0  0  0  0
 34 11  1  0  0  0  0
 34172  1  0  0  0  0
 35 12  1  0  0  0  0
 35173  1  0  0  0  0
 36 16  1  0  0  0  0
 37 20  2  0  0  0  0
 37 32  1  0  0  0  0
 37 36  1  0  0  0  0
 38 15  2  0  0  0  0
 39 17  1  0  0  0  0
 39174  1  0  0  0  0
 40 18  1  0  0  0  0
 41 20  1  0  0  0  0
 42 21  2  0  0  0  0
 43 22  2  0  0  0  0
 44 24  2  0  0  0  0
 45 23  1  0  0  0  0
 45175  1  0  0  0  0
 46 25  2  0  0  0  0
 47 26  1  0  0  0  0
 47176  1  0  0  0  0
 48 33  1  0  0  0  0
 48177  1  0  0  0  0
 49 34  1  0  0  0  0
 49178  1  0  0  0  0
 50 36  2  0  0  0  0
 51 39  1  0  0  0  0
 51 50  1  0  0  0  0
 51179  1  0  0  0  0
 52 42  1  0  0  0  0
 52180  1  0  0  0  0
 53181  1  0  0  0  0
 54 27  1  0  0  0  0
 55 29  1  0  0  0  0
 56 28  1  0  0  0  0
 57 30  1  0  0  0  0
 58 31  1  0  0  0  0
 59 43  1  0  0  0  0
 60 44  1  0  0  0  0
 61 46  1  0  0  0  0
 62 45  1  0  0  0  0
 63 47  1  0  0  0  0
 64 48  1  0  0  0  0
 65 38  1  0  0  0  0
 66 40  1  0  0  0  0
 67 49  1  0  0  0  0
 68 53  1  0  0  0  0
 69 41  1  0  0  0  0
 71 13  1  0  0  0  0
 71 35  1  0  0  0  0
 71 53  1  0  0  0  0
 72 19  1  0  0  0  0
 72 52  1  0  0  0  0
 72 70  1  0  0  0  0
 73 54  2  0  0  0  0
 73182  1  0  0  0  0
 74 27  1  0  0  0  0
 74 55  2  3  0  0  0
 75 28  1  0  0  0  0
 75 57  2  3  0  0  0
 76 31  1  0  0  0  0
 76 56  2  3  0  0  0
 77 29  1  0  0  0  0
 77 59  2  3  0  0  0
 78 30  1  0  0  0  0
 78 63  2  3  0  0  0
 79 39  1  0  0  0  0
 79 47  1  0  0  0  0
 79183  1  0  0  0  0
 80 41  2  0  0  0  0
 80 50  1  0  0  0  0
 81 40  2  0  0  0  0
 81 52  1  0  0  0  0
 82 38  1  0  0  0  0
 82 64  2  3  0  0  0
 83 42  1  0  0  0  0
 83 67  2  0  0  0  0
 84 45  1  0  0  0  0
 84 65  2  0  0  0  0
 85 43  1  0  0  0  0
 85 66  2  0  0  0  0
 86 44  1  0  0  0  0
 86 68  2  0  0  0  0
 87 46  1  0  0  0  0
 87 70  2  0  0  0  0
 88 48  1  0  0  0  0
 88 61  2  3  0  0  0
 89 49  1  0  0  0  0
 89 60  2  3  0  0  0
 90 53  1  0  0  0  0
 90 62  2  3  0  0  0
 91 58  2  3  0  0  0
 91 72  1  0  0  0  0
 92 32  1  0  0  0  0
 92184  1  0  0  0  0
 93 33  1  0  0  0  0
 93185  1  0  0  0  0
 94 35  1  0  0  0  0
 94186  1  0  0  0  0
 95 51  1  0  0  0  0
 95187  1  0  0  0  0
 96 54  1  0  0  0  0
 96188  1  0  0  0  0
 97 55  1  0  0  0  0
 97189  1  0  0  0  0
 98 56  1  0  0  0  0
 98190  1  0  0  0  0
 99 57  1  0  0  0  0
 99191  1  0  0  0  0
100 58  1  0  0  0  0
100192  1  0  0  0  0
101 59  1  0  0  0  0
101193  1  0  0  0  0
102 60  1  0  0  0  0
102194  1  0  0  0  0
103 61  1  0  0  0  0
103195  1  0  0  0  0
104 62  1  0  0  0  0
104196  1  0  0  0  0
105 63  1  0  0  0  0
105197  1  0  0  0  0
106 64  1  0  0  0  0
106198  1  0  0  0  0
107 69  2  0  0  0  0
108 71  1  0  0  0  0
108199  1  0  0  0  0
109 34  1  0  0  0  0
109 69  1  0  0  0  0
110 23  1  0  0  0  0
110 65  1  0  0  0  0
111 22  1  0  0  0  0
111 66  1  0  0  0  0
112 21  1  0  0  0  0
112 67  1  0  0  0  0
113 24  1  0  0  0  0
113 68  1  0  0  0  0
114 25  1  0  0  0  0
114 70  1  0  0  0  0
115 15  1  0  0  0  0
M  END
>  <DRUGBANK_ID>
DB11467

>  <COMMON_NAME>
Thiostrepton

>  <UNII>
HR4S203Y18

>  <SYNONYMS>
Thiostrepton

$$$$
