
 OpenBabel10282417203D

 51 52  0  0  0  0  0  0  0  0999 V2000
    0.2592    1.0708    0.3330 C   0  0  0  0  0  0  0  0  0  0  0  0
    0.5945    2.4841    0.1224 C   0  0  0  0  0  0  0  0  0  0  0  0
    1.1527    0.0904    0.7691 N   0  0  0  0  0  0  0  0  0  0  0  0
   -1.0036    0.6206    0.2641 N   0  0  0  0  0  0  0  0  0  0  0  0
    1.3078    3.0070   -0.9746 C   0  0  0  0  0  0  0  0  0  0  0  0
    0.1002    3.3836    1.0760 C   0  0  0  0  0  0  0  0  0  0  0  0
    0.4148   -0.9718    0.9034 C   0  0  0  0  0  0  0  0  0  0  0  0
   -0.9184   -0.7280    0.6495 O   0  0  0  0  0  0  0  0  0  0  0  0
    1.5273    4.3975   -1.0831 C   0  0  0  0  0  0  0  0  0  0  0  0
    0.2869    4.7610    0.9486 C   0  0  0  0  0  0  0  0  0  0  0  0
    0.8632   -2.2897    0.9249 N   0  0  0  0  0  0  0  0  0  0  0  0
    1.0191    5.2695   -0.1182 C   0  0  0  0  0  0  0  0  0  0  0  0
    0.1248   -3.5122    0.4517 C   0  0  0  0  0  0  0  0  0  0  0  0
    0.5546   -4.4308   -0.8229 C   0  0  0  0  0  0  0  0  0  0  0  0
    1.9584   -4.7814   -1.1236 N   0  0  0  0  0  0  0  0  0  0  0  0
    2.1970   -5.5482   -2.4132 C   0  0  0  0  0  0  0  0  0  0  0  0
    2.8000   -3.6011   -1.0152 C   0  0  0  0  0  0  0  0  0  0  0  0
    2.0976   -4.9106   -3.8821 C   0  0  0  0  0  0  0  0  0  0  0  0
    2.3991   -2.4834   -1.9930 C   0  0  0  0  0  0  0  0  0  0  0  0
    3.1720   -3.8691   -4.4388 C   0  0  0  0  0  0  0  0  0  0  0  0
    1.1328   -2.0070   -2.7765 C   0  0  0  0  0  0  0  0  0  0  0  0
    4.5953   -4.2011   -4.0456 C   0  0  0  0  0  0  0  0  0  0  0  0
    0.4933   -1.0207   -1.9267 C   0  0  0  0  0  0  0  0  0  0  0  0
    1.6937    2.3663   -1.7650 H   0  0  0  0  0  0  0  0  0  0  0  0
   -0.4446    2.9960    1.9326 H   0  0  0  0  0  0  0  0  0  0  0  0
    2.0862    4.8126   -1.9220 H   0  0  0  0  0  0  0  0  0  0  0  0
   -0.1468    5.4291    1.6875 H   0  0  0  0  0  0  0  0  0  0  0  0
    1.8520   -2.2717    0.7385 H   0  0  0  0  0  0  0  0  0  0  0  0
    1.1896    6.3421   -0.1923 H   0  0  0  0  0  0  0  0  0  0  0  0
    0.1587   -4.2059    1.2939 H   0  0  0  0  0  0  0  0  0  0  0  0
   -0.9232   -3.2490    0.2696 H   0  0  0  0  0  0  0  0  0  0  0  0
    0.0203   -5.3851   -0.6957 H   0  0  0  0  0  0  0  0  0  0  0  0
    0.0712   -4.0458   -1.7169 H   0  0  0  0  0  0  0  0  0  0  0  0
    3.1911   -6.0136   -2.3365 H   0  0  0  0  0  0  0  0  0  0  0  0
    1.5226   -6.4184   -2.4021 H   0  0  0  0  0  0  0  0  0  0  0  0
    2.9501   -3.3135    0.0183 H   0  0  0  0  0  0  0  0  0  0  0  0
    3.8287   -3.9111   -1.2587 H   0  0  0  0  0  0  0  0  0  0  0  0
    2.1237   -5.7422   -4.5962 H   0  0  0  0  0  0  0  0  0  0  0  0
    1.0868   -4.4989   -3.9846 H   0  0  0  0  0  0  0  0  0  0  0  0
    3.2211   -1.7805   -2.1309 H   0  0  0  0  0  0  0  0  0  0  0  0
    2.4828   -3.2198   -2.7054 H   0  0  0  0  0  0  0  0  0  0  0  0
    2.9603   -3.6388   -5.4851 H   0  0  0  0  0  0  0  0  0  0  0  0
    3.1148   -2.8184   -4.1283 H   0  0  0  0  0  0  0  0  0  0  0  0
    1.3770   -1.5589   -3.7457 H   0  0  0  0  0  0  0  0  0  0  0  0
    0.3966   -2.7776   -3.0193 H   0  0  0  0  0  0  0  0  0  0  0  0
    5.0442   -4.8629   -4.7772 H   0  0  0  0  0  0  0  0  0  0  0  0
    5.1873   -3.2802   -3.9517 H   0  0  0  0  0  0  0  0  0  0  0  0
    4.6564   -4.6642   -3.0588 H   0  0  0  0  0  0  0  0  0  0  0  0
    1.1839   -0.2006   -1.7384 H   0  0  0  0  0  0  0  0  0  0  0  0
   -0.5244   -0.7240   -2.1498 H   0  0  0  0  0  0  0  0  0  0  0  0
    0.3920   -1.6532   -1.0841 H   0  0  0  0  0  0  0  0  0  0  0  0
  1  2  1  0  0  0  0
  1  3  1  0  0  0  0
  1  4  2  0  0  0  0
  2  5  2  0  0  0  0
  2  6  1  0  0  0  0
  3  7  2  0  0  0  0
  4  8  1  0  0  0  0
  5  9  1  0  0  0  0
  5 24  1  0  0  0  0
  6 10  2  0  0  0  0
  6 25  1  0  0  0  0
  7 11  1  0  0  0  0
  7  8  1  0  0  0  0
  9 12  2  0  0  0  0
  9 26  1  0  0  0  0
 10 12  1  0  0  0  0
 10 27  1  0  0  0  0
 11 13  1  0  0  0  0
 11 28  1  0  0  0  0
 12 29  1  0  0  0  0
 13 14  1  0  0  0  0
 13 30  1  0  0  0  0
 13 31  1  0  0  0  0
 14 15  1  0  0  0  0
 14 32  1  0  0  0  0
 14 33  1  0  0  0  0
 15 16  1  0  0  0  0
 15 17  1  0  0  0  0
 16 18  1  0  0  0  0
 16 34  1  0  0  0  0
 16 35  1  0  0  0  0
 17 19  1  0  0  0  0
 17 36  1  0  0  0  0
 17 37  1  0  0  0  0
 18 20  1  0  0  0  0
 18 38  1  0  0  0  0
 18 39  1  0  0  0  0
 19 21  1  0  0  0  0
 19 40  1  0  0  0  0
 19 41  1  0  0  0  0
 20 22  1  0  0  0  0
 20 42  1  0  0  0  0
 20 43  1  0  0  0  0
 21 23  1  0  0  0  0
 21 44  1  0  0  0  0
 21 45  1  0  0  0  0
 22 46  1  0  0  0  0
 22 47  1  0  0  0  0
 22 48  1  0  0  0  0
 23 49  1  0  0  0  0
 23 50  1  0  0  0  0
 23 51  1  0  0  0  0
M  END
>  <DRUGBANK_ID>
DB13681

>  <COMMON_NAME>
Butalamine

>  <CAS_NUMBER>
22131-35-7

>  <UNII>
140T9JTG43

>  <SYNONYMS>
Butalamina; Butalamine; Butalaminum

$$$$
