
 OpenBabel10282417153D

 28 29  0  0  0  0  0  0  0  0999 V2000
    0.8907    0.0359    0.0902 C   0  0  2  0  0  0  0  0  0  0  0  0
    0.2809   -0.4167    1.4502 C   0  0  0  0  0  0  0  0  0  0  0  0
    0.5266    0.4192    2.6105 N   0  0  0  0  0  0  0  0  0  0  0  0
   -0.0766    1.6125    2.7921 N   0  0  0  0  0  0  0  0  0  0  0  0
    0.7454    2.1640    3.6924 C   0  0  0  0  0  0  0  0  0  0  0  0
    1.7074    1.3085    4.1385 N   0  0  0  0  0  0  0  0  0  0  0  0
    1.5682    0.1889    3.4359 N   0  0  0  0  0  0  0  0  0  0  0  0
    0.4765    1.3821   -0.2053 O   0  0  0  0  0  0  0  0  0  0  0  0
    0.9997    2.5226    0.3073 C   0  0  0  0  0  0  0  0  0  0  0  0
    2.1242    2.4026    1.0735 N   0  0  0  0  0  0  0  0  0  0  0  0
    0.4709    3.6058    0.1621 O   0  0  0  0  0  0  0  0  0  0  0  0
    0.4544   -0.9293   -1.0499 C   0  0  0  0  0  0  0  0  0  0  0  0
   -0.1328   -0.5546   -2.2818 C   0  0  0  0  0  0  0  0  0  0  0  0
   -0.4090   -1.5123   -3.2761 C   0  0  0  0  0  0  0  0  0  0  0  0
   -0.1351   -2.8592   -3.0727 C   0  0  0  0  0  0  0  0  0  0  0  0
    0.4144   -3.2616   -1.8654 C   0  0  0  0  0  0  0  0  0  0  0  0
    0.7158   -2.3133   -0.8778 C   0  0  0  0  0  0  0  0  0  0  0  0
   -0.5836    1.0562   -2.7214 Cl  0  0  0  0  0  0  0  0  0  0  0  0
    1.9894    0.0004    0.0962 H   0  0  0  0  0  0  0  0  0  0  0  0
   -0.8060   -0.4936    1.3621 H   0  0  0  0  0  0  0  0  0  0  0  0
    0.6710   -1.4042    1.7205 H   0  0  0  0  0  0  0  0  0  0  0  0
    0.7057    3.2173    3.9445 H   0  0  0  0  0  0  0  0  0  0  0  0
    2.1982    3.1928    1.7033 H   0  0  0  0  0  0  0  0  0  0  0  0
    2.3806    1.5330    1.5099 H   0  0  0  0  0  0  0  0  0  0  0  0
   -0.8400   -1.2021   -4.2273 H   0  0  0  0  0  0  0  0  0  0  0  0
   -0.3468   -3.5840   -3.8552 H   0  0  0  0  0  0  0  0  0  0  0  0
    0.6248   -4.3158   -1.6960 H   0  0  0  0  0  0  0  0  0  0  0  0
    1.1756   -2.6907    0.0335 H   0  0  0  0  0  0  0  0  0  0  0  0
  1  2  1  0  0  0  0
  1  8  1  0  0  0  0
  1 12  1  0  0  0  0
  1 19  1  1  0  0  0
  2  3  1  0  0  0  0
  2 20  1  0  0  0  0
  2 21  1  0  0  0  0
  3  4  1  0  0  0  0
  3  7  1  0  0  0  0
  4  5  2  0  0  0  0
  5  6  1  0  0  0  0
  5 22  1  0  0  0  0
  7  6  2  0  0  0  0
  8  9  1  0  0  0  0
  9 10  1  0  0  0  0
  9 11  2  0  0  0  0
 10 23  1  0  0  0  0
 10 24  1  0  0  0  0
 12 13  2  0  0  0  0
 12 17  1  0  0  0  0
 13 14  1  0  0  0  0
 13 18  1  0  0  0  0
 14 15  2  0  0  0  0
 14 25  1  0  0  0  0
 15 26  1  0  0  0  0
 16 15  1  0  0  0  0
 16 27  1  0  0  0  0
 17 16  2  0  0  0  0
 17 28  1  0  0  0  0
M  END
>  <DRUGBANK_ID>
DB06119

>  <COMMON_NAME>
Cenobamate

>  <CAS_NUMBER>
913088-80-9

>  <UNII>
P85X70RZWS

>  <SYNONYMS>
Cenobamate; CÃ©nobamate; Cenobamato; Cenobamatum

$$$$
