
 OpenBabel10282417143D

 65 72  0  0  0  0  0  0  0  0999 V2000
   -5.9456    4.2526    8.0991 C   0  0  0  0  0  0  0  0  0  0  0  0
   -1.0832   -4.3485    6.6958 C   0  0  0  0  0  0  0  0  0  0  0  0
   -8.8753   -1.2541    1.6120 C   0  0  0  0  0  0  0  0  0  0  0  0
   -3.5633   -6.7228    3.7861 C   0  0  0  0  0  0  0  0  0  0  0  0
    0.4624    1.9175    2.1130 C   0  0  0  0  0  0  0  0  0  0  0  0
   -6.4990    1.4193    9.2730 C   0  0  0  0  0  0  0  0  0  0  0  0
   -6.3557    3.5759    6.9924 C   0  0  0  0  0  0  0  0  0  0  0  0
   -1.8082   -5.1159    5.8379 C   0  0  0  0  0  0  0  0  0  0  0  0
   -1.8170    1.8498    0.3532 C   0  0  0  0  0  0  0  0  0  0  0  0
   -1.5042    3.3307    0.4922 C   0  0  0  0  0  0  0  0  0  0  0  0
   -6.5745   -0.2057    1.0870 C   0  0  0  0  0  0  0  0  0  0  0  0
   -4.2501    0.5186    1.3712 C   0  0  0  0  0  0  0  0  0  0  0  0
   -5.6213   -4.0808    2.1377 C   0  0  0  0  0  0  0  0  0  0  0  0
   -5.3657    2.5995    4.4080 C   0  0  0  0  0  0  0  0  0  0  0  0
   -7.4365   -0.8794    1.9279 C   0  0  0  0  0  0  0  0  0  0  0  0
   -3.5744   -5.2208    4.0184 C   0  0  0  0  0  0  0  0  0  0  0  0
   -0.8267    1.2504    2.5644 C   0  0  0  0  0  0  0  0  0  0  0  0
   -6.0436    1.2038    7.8389 C   0  0  0  0  0  0  0  0  0  0  0  0
   -5.3838   -0.0558    1.7398 C   0  0  0  0  0  0  0  0  0  0  0  0
   -5.9587    2.1213    6.8005 C   0  0  0  0  0  0  0  0  0  0  0  0
   -2.8184   -4.4669    4.9059 C   0  0  0  0  0  0  0  0  0  0  0  0
   -1.9032    1.2184    1.7332 C   0  0  0  0  0  0  0  0  0  0  0  0
   -6.7939   -1.1455    3.0624 C   0  0  0  0  0  0  0  0  0  0  0  0
   -2.1218   -0.0022    4.3578 C   0  0  0  0  0  0  0  0  0  0  0  0
   -4.5620   -3.9668    3.2218 C   0  0  0  0  0  0  0  0  0  0  0  0
   -3.1923    0.5514    2.1846 C   0  0  0  0  0  0  0  0  0  0  0  0
   -5.5006    1.6572    5.5931 C   0  0  0  0  0  0  0  0  0  0  0  0
   -0.1765    3.5028    1.2120 C   0  0  0  0  0  0  0  0  0  0  0  0
   -5.4788   -0.2938    7.0514 C   0  0  0  0  0  0  0  0  0  0  0  0
   -3.0233   -3.1100    4.9047 C   0  0  0  0  0  0  0  0  0  0  0  0
   -4.4775   -0.6329    3.8294 Fe  0  0  3  0  0  0  0  0  0  0  0  0
   -5.5125   -0.6347    2.9638 N   0  0  0  0  0  0  0  0  0  0  0  0
   -3.2741   -0.0265    3.4454 N   0  3  0  0  0  0  0  0  0  0  0  0
   -3.9472   -2.5789    4.0592 N   0  0  0  0  0  0  0  0  0  0  0  0
   -5.1687    0.3438    5.4693 N   0  0  0  0  0  0  0  0  0  0  0  0
    0.8974    4.1742    0.5699 O   0  0  0  0  0  0  0  0  0  0  0  0
   -0.0276    3.0459    2.3885 O   0  0  0  0  0  0  0  0  0  0  0  0
   -2.2798   -2.2704    5.7757 O   0  0  0  0  0  0  0  0  0  0  0  0
   -5.3436    3.7608    8.8343 H   0  0  0  0  0  0  0  0  0  0  0  0
   -6.2251    5.2765    8.2342 H   0  0  0  0  0  0  0  0  0  0  0  0
   -0.3721   -4.8053    7.3519 H   0  0  0  0  0  0  0  0  0  0  0  0
   -1.2241   -3.2879    6.7146 H   0  0  0  0  0  0  0  0  0  0  0  0
   -9.4399   -0.3667    1.4153 H   0  0  0  0  0  0  0  0  0  0  0  0
   -8.8978   -1.8892    0.7512 H   0  0  0  0  0  0  0  0  0  0  0  0
   -9.3011   -1.7700    2.4472 H   0  0  0  0  0  0  0  0  0  0  0  0
   -4.5351   -7.1223    3.9888 H   0  0  0  0  0  0  0  0  0  0  0  0
   -3.3000   -6.9245    2.7688 H   0  0  0  0  0  0  0  0  0  0  0  0
   -2.8472   -7.1792    4.4371 H   0  0  0  0  0  0  0  0  0  0  0  0
    0.8285    1.4284    1.2346 H   0  0  0  0  0  0  0  0  0  0  0  0
    0.2734    2.9478    1.8950 H   0  0  0  0  0  0  0  0  0  0  0  0
    1.1927    1.8458    2.8917 H   0  0  0  0  0  0  0  0  0  0  0  0
   -7.3439    0.7951    9.4765 H   0  0  0  0  0  0  0  0  0  0  0  0
   -5.7018    1.1697    9.9417 H   0  0  0  0  0  0  0  0  0  0  0  0
   -6.7718    2.4447    9.4103 H   0  0  0  0  0  0  0  0  0  0  0  0
   -6.9578    4.0676    6.2572 H   0  0  0  0  0  0  0  0  0  0  0  0
   -1.6673   -6.1764    5.8192 H   0  0  0  0  0  0  0  0  0  0  0  0
   -1.0418    1.3728   -0.2093 H   0  0  0  0  0  0  0  0  0  0  0  0
   -2.7516    1.7286   -0.1535 H   0  0  0  0  0  0  0  0  0  0  0  0
   -1.4435    3.7752   -0.4792 H   0  0  0  0  0  0  0  0  0  0  0  0
   -2.2794    3.8077    1.0548 H   0  0  0  0  0  0  0  0  0  0  0  0
   -6.7989    0.1383    0.0990 H   0  0  0  0  0  0  0  0  0  0  0  0
   -4.1800    0.9656    0.4016 H   0  0  0  0  0  0  0  0  0  0  0  0
   -5.8726   -5.0392    1.7339 H   0  0  0  0  0  0  0  0  0  0  0  0
   -5.6286    3.6314    4.5124 H   0  0  0  0  0  0  0  0  0  0  0  0
    0.7802    4.5338   -0.3558 H   0  0  0  0  0  0  0  0  0  0  0  0
  1 39  1  0  0  0  0
  1 40  1  0  0  0  0
  2 41  1  0  0  0  0
  2 42  1  0  0  0  0
  3 43  1  0  0  0  0
  3 44  1  0  0  0  0
  3 45  1  0  0  0  0
  4 46  1  0  0  0  0
  4 47  1  0  0  0  0
  4 48  1  0  0  0  0
  5 49  1  0  0  0  0
  5 50  1  0  0  0  0
  5 51  1  0  0  0  0
  6 52  1  0  0  0  0
  6 53  1  0  0  0  0
  6 54  1  0  0  0  0
  7  1  2  0  0  0  0
  7 55  1  0  0  0  0
  8  2  2  0  0  0  0
  8 56  1  0  0  0  0
  9 57  1  0  0  0  0
  9 58  1  0  0  0  0
 10  9  1  0  0  0  0
 10 59  1  0  0  0  0
 10 60  1  0  0  0  0
 11 61  1  0  0  0  0
 12 62  1  0  0  0  0
 13 63  1  0  0  0  0
 14 64  1  0  0  0  0
 15  3  1  0  0  0  0
 15 11  2  0  0  0  0
 16  4  1  0  0  0  0
 17  5  1  0  0  0  0
 18  6  1  0  0  0  0
 19 11  1  0  0  0  0
 19 12  2  0  0  0  0
 20  7  1  0  0  0  0
 20 18  1  0  0  0  0
 21  8  1  0  0  0  0
 21 16  1  0  0  0  0
 22  9  1  0  0  0  0
 22 17  2  0  0  0  0
 23 13  2  0  0  0  0
 23 15  1  0  0  0  0
 24 14  2  0  0  0  0
 24 17  1  0  0  0  0
 25 13  1  0  0  0  0
 25 16  2  0  0  0  0
 26 12  1  0  0  0  0
 26 22  1  0  0  0  0
 27 14  1  0  0  0  0
 27 20  2  0  0  0  0
 28 10  1  0  0  0  0
 29 18  2  0  0  0  0
 30 21  2  0  0  0  0
 32 19  1  0  0  0  0
 32 23  1  0  0  0  0
 32 31  1  0  0  0  0
 33 24  1  0  0  0  0
 33 26  2  0  0  0  0
 33 31  1  0  0  0  0
 34 25  1  0  0  0  0
 34 30  1  0  0  0  0
 34 31  1  0  0  0  0
 35 27  1  0  0  0  0
 35 29  1  0  0  0  0
 35 31  1  0  0  0  0
 36 28  1  0  0  0  0
 36 65  1  0  0  0  0
 37 28  2  0  0  0  0
 38 29  1  0  0  0  0
 38 30  1  0  0  0  0
M  CHG  1  33   1
M  END
>  <DRUGBANK_ID>
DB04803

>  <COMMON_NAME>
Verdoheme

$$$$
