
 OpenBabel10282417133D

 84 86  0  0  0  0  0  0  0  0999 V2000
    2.2241    0.2685    0.1920 O   0  0  0  0  0  0  0  0  0  0  0  0
    1.4607   -7.3014    0.0998 O   0  0  0  0  0  0  0  0  0  0  0  0
   -2.8399   -3.6935    2.4390 O   0  0  0  0  0  0  0  0  0  0  0  0
   -3.5827   -4.4915    0.5130 O   0  0  0  0  0  0  0  0  0  0  0  0
    1.5112   -5.8560   -7.1401 O   0  0  0  0  0  0  0  0  0  0  0  0
   -2.6949   -1.2832   -0.3562 O   0  0  0  0  0  0  0  0  0  0  0  0
   -3.6006   -8.9203   -5.6751 O   0  0  0  0  0  0  0  0  0  0  0  0
    1.1756   -8.9251   -8.8698 O   0  0  0  0  0  0  0  0  0  0  0  0
   -0.1897   -2.5639    0.5433 O   0  0  0  0  0  0  0  0  0  0  0  0
   -2.1883   -7.2312   -5.8449 O   0  0  0  0  0  0  0  0  0  0  0  0
    2.1379   -7.0161   -9.3713 O   0  0  0  0  0  0  0  0  0  0  0  0
    1.1993   -1.8004   -1.1652 O   0  0  0  0  0  0  0  0  0  0  0  0
    1.8300   -5.1659    0.0200 N   0  0  0  0  0  0  0  0  0  0  0  0
   -1.5665   -5.4973    1.3318 N   0  0  0  0  0  0  0  0  0  0  0  0
    0.6387   -7.7712   -6.0780 N   0  0  0  0  0  0  0  0  0  0  0  0
   -0.7487   -6.0474   -0.0174 C   0  0  1  0  0  0  0  0  0  0  0  0
   -1.2447   -5.4024   -1.4157 C   0  0  0  0  0  0  0  0  0  0  0  0
   -0.7115   -5.9359   -2.6547 C   0  0  0  0  0  0  0  0  0  0  0  0
    1.8269   -2.9176    1.3262 C   0  0  0  0  0  0  0  0  0  0  0  0
    1.5918   -3.8214   -0.1635 C   0  0  0  0  0  0  0  0  0  0  0  0
    0.9271   -6.1872    0.0284 C   0  0  0  0  0  0  0  0  0  0  0  0
    3.0441   -2.0138    1.3045 C   0  0  0  0  0  0  0  0  0  0  0  0
    0.0317   -5.1440   -3.5429 C   0  0  0  0  0  0  0  0  0  0  0  0
   -0.9740   -7.2569   -2.8152 C   0  0  0  0  0  0  0  0  0  0  0  0
    3.1487   -0.9258    0.1526 C   0  0  0  0  0  0  0  0  0  0  0  0
    0.3450   -7.1251   -4.8294 C   0  0  0  0  0  0  0  0  0  0  0  0
    0.5559   -5.7526   -4.6445 C   0  0  0  0  0  0  0  0  0  0  0  0
   -0.3019   -7.8732   -3.8107 C   0  0  0  0  0  0  0  0  0  0  0  0
   -2.7832   -4.6794    1.4327 C   0  0  0  0  0  0  0  0  0  0  0  0
    0.1415   -9.1031   -6.1758 C   0  0  0  0  0  0  0  0  0  0  0  0
   -1.2548   -9.4468   -6.1674 C   0  0  0  0  0  0  0  0  0  0  0  0
    1.2025   -7.0513   -7.1697 C   0  0  0  0  0  0  0  0  0  0  0  0
    0.8395    0.3918    0.0612 C   0  0  0  0  0  0  0  0  0  0  0  0
    1.1209  -10.0973   -6.3681 C   0  0  0  0  0  0  0  0  0  0  0  0
   -0.1990   -0.5350   -0.0703 C   0  0  0  0  0  0  0  0  0  0  0  0
   -1.5884  -10.7810   -6.4447 C   0  0  0  0  0  0  0  0  0  0  0  0
    0.7376  -11.3672   -6.7777 C   0  0  0  0  0  0  0  0  0  0  0  0
    0.2562    1.6291    0.0488 C   0  0  0  0  0  0  0  0  0  0  0  0
   -0.6054  -11.7200   -6.7714 C   0  0  0  0  0  0  0  0  0  0  0  0
   -1.6149   -0.4701   -0.1089 C   0  0  0  0  0  0  0  0  0  0  0  0
   -2.2111   -3.8513    3.7069 C   0  0  0  0  0  0  0  0  0  0  0  0
   -2.3601   -8.4355   -5.8938 C   0  0  0  0  0  0  0  0  0  0  0  0
    1.5228   -7.6840   -8.5498 C   0  0  0  0  0  0  0  0  0  0  0  0
   -1.1752    1.7806    0.0235 C   0  0  0  0  0  0  0  0  0  0  0  0
   -2.0913    0.7517   -0.0095 C   0  0  0  0  0  0  0  0  0  0  0  0
    0.3094   -1.7575   -0.4334 C   0  0  0  0  0  0  0  0  0  0  0  0
   -2.6379   -5.2232    4.0478 C   0  0  0  0  0  0  0  0  0  0  0  0
   -1.7647   -6.2254    4.1625 C   0  0  0  0  0  0  0  0  0  0  0  0
   -1.2830   -3.1173    0.0496 C   0  0  0  0  0  0  0  0  0  0  0  0
    2.8243   -5.3063   -0.0484 H   0  0  0  0  0  0  0  0  0  0  0  0
   -0.9140   -5.3516    2.0855 H   0  0  0  0  0  0  0  0  0  0  0  0
   -2.9262   -2.1440    0.0411 H   0  0  0  0  0  0  0  0  0  0  0  0
   -3.8086   -9.8492   -5.8426 H   0  0  0  0  0  0  0  0  0  0  0  0
    0.5287   -9.3613   -8.3041 H   0  0  0  0  0  0  0  0  0  0  0  0
   -1.0468   -7.0995   -0.0188 H   0  0  0  0  0  0  0  0  0  0  0  0
   -2.3319   -5.2925   -1.4889 H   0  0  0  0  0  0  0  0  0  0  0  0
   -0.8330   -4.4264   -1.6051 H   0  0  0  0  0  0  0  0  0  0  0  0
    1.5468   -3.5497    2.1946 H   0  0  0  0  0  0  0  0  0  0  0  0
    1.1680   -2.0816    1.6870 H   0  0  0  0  0  0  0  0  0  0  0  0
    0.6267   -3.8661   -0.6662 H   0  0  0  0  0  0  0  0  0  0  0  0
    2.1338   -3.5452   -1.0866 H   0  0  0  0  0  0  0  0  0  0  0  0
    3.8631   -2.7298    1.3122 H   0  0  0  0  0  0  0  0  0  0  0  0
    3.0637   -1.4551    2.2556 H   0  0  0  0  0  0  0  0  0  0  0  0
    0.1941   -4.0706   -3.4098 H   0  0  0  0  0  0  0  0  0  0  0  0
   -1.6621   -7.7564   -2.1428 H   0  0  0  0  0  0  0  0  0  0  0  0
    3.2329   -1.3289   -0.8688 H   0  0  0  0  0  0  0  0  0  0  0  0
    4.1870   -0.5369    0.2344 H   0  0  0  0  0  0  0  0  0  0  0  0
    1.0808   -5.0890   -5.3195 H   0  0  0  0  0  0  0  0  0  0  0  0
   -0.4507   -8.9414   -3.8232 H   0  0  0  0  0  0  0  0  0  0  0  0
    2.1809   -9.8393   -6.3439 H   0  0  0  0  0  0  0  0  0  0  0  0
   -2.6119  -11.1321   -6.4783 H   0  0  0  0  0  0  0  0  0  0  0  0
    1.4808  -12.0594   -7.1689 H   0  0  0  0  0  0  0  0  0  0  0  0
    0.8850    2.5024    0.0760 H   0  0  0  0  0  0  0  0  0  0  0  0
   -0.8939  -12.7359   -7.0353 H   0  0  0  0  0  0  0  0  0  0  0  0
   -1.1308   -3.6718    3.6194 H   0  0  0  0  0  0  0  0  0  0  0  0
   -2.6142   -3.1094    4.4091 H   0  0  0  0  0  0  0  0  0  0  0  0
   -1.6478    2.7403    0.0444 H   0  0  0  0  0  0  0  0  0  0  0  0
   -3.1693    0.7911   -0.0032 H   0  0  0  0  0  0  0  0  0  0  0  0
   -3.6932   -5.4320    3.8491 H   0  0  0  0  0  0  0  0  0  0  0  0
   -2.1114   -7.2474    4.0823 H   0  0  0  0  0  0  0  0  0  0  0  0
   -0.6973   -6.0287    4.1518 H   0  0  0  0  0  0  0  0  0  0  0  0
   -1.8430   -2.8932    0.9093 H   0  0  0  0  0  0  0  0  0  0  0  0
   -1.5257   -2.8691   -0.9822 H   0  0  0  0  0  0  0  0  0  0  0  0
   -1.3713   -4.1299    0.0280 H   0  0  0  0  0  0  0  0  0  0  0  0
  1 25  1  0  0  0  0
  1 33  1  0  0  0  0
  2 21  2  0  0  0  0
  3 29  1  0  0  0  0
  3 41  1  0  0  0  0
  4 29  2  0  0  0  0
  5 32  2  0  0  0  0
  6 40  1  0  0  0  0
  6 52  1  0  0  0  0
  7 42  1  0  0  0  0
  7 53  1  0  0  0  0
  8 43  1  0  0  0  0
  8 54  1  0  0  0  0
  9 46  1  0  0  0  0
  9 49  1  0  0  0  0
 10 42  2  0  0  0  0
 11 43  2  0  0  0  0
 12 46  2  0  0  0  0
 13 20  1  0  0  0  0
 13 21  1  0  0  0  0
 13 50  1  0  0  0  0
 14 29  1  0  0  0  0
 14 51  1  0  0  0  0
 15 26  1  0  0  0  0
 15 30  1  0  0  0  0
 15 32  1  0  0  0  0
 16 14  1  0  0  0  0
 16 17  1  0  0  0  0
 16 21  1  0  0  0  0
 16 55  1  6  0  0  0
 17 18  1  0  0  0  0
 17 56  1  0  0  0  0
 17 57  1  0  0  0  0
 18 23  2  0  0  0  0
 18 24  1  0  0  0  0
 19 20  1  0  0  0  0
 19 22  1  0  0  0  0
 19 58  1  0  0  0  0
 19 59  1  0  0  0  0
 20 60  1  0  0  0  0
 20 61  1  0  0  0  0
 22 25  1  0  0  0  0
 22 62  1  0  0  0  0
 22 63  1  0  0  0  0
 23 27  1  0  0  0  0
 23 64  1  0  0  0  0
 24 28  2  0  0  0  0
 24 65  1  0  0  0  0
 25 66  1  0  0  0  0
 25 67  1  0  0  0  0
 26 27  2  0  0  0  0
 26 28  1  0  0  0  0
 27 68  1  0  0  0  0
 28 69  1  0  0  0  0
 30 31  1  0  0  0  0
 30 34  2  0  0  0  0
 31 36  2  0  0  0  0
 31 42  1  0  0  0  0
 32 43  1  0  0  0  0
 33 35  1  0  0  0  0
 33 38  2  0  0  0  0
 34 37  1  0  0  0  0
 34 70  1  0  0  0  0
 35 40  2  0  0  0  0
 35 46  1  0  0  0  0
 36 39  1  0  0  0  0
 36 71  1  0  0  0  0
 37 39  2  0  0  0  0
 37 72  1  0  0  0  0
 38 44  1  0  0  0  0
 38 73  1  0  0  0  0
 39 74  1  0  0  0  0
 40 45  1  0  0  0  0
 41 47  1  0  0  0  0
 41 75  1  0  0  0  0
 41 76  1  0  0  0  0
 44 45  2  0  0  0  0
 44 77  1  0  0  0  0
 45 78  1  0  0  0  0
 47 48  2  0  0  0  0
 47 79  1  0  0  0  0
 48 80  1  0  0  0  0
 48 81  1  0  0  0  0
 49 82  1  0  0  0  0
 49 83  1  0  0  0  0
 49 84  1  0  0  0  0
M  END
>  <DRUGBANK_ID>
DB04088

>  <SECONDARY_ACCESSION_NUMBERS>
EXPT00193

>  <COMMON_NAME>
2-[{4-[(2S)-2-{[(Allyloxy)carbonyl]amino}-3-({4-[3-hydroxy-2-(methoxycarbonyl)phenoxy]butyl}amino)-3-oxopropyl]phenyl}(carboxycarbonyl)amino]benzoic acid

$$$$
