
 OpenBabel10282417173D

 54 56  0  0  1  0  0  0  0  0999 V2000
    1.7982    0.8006   -1.0784 S   0  0  0  0  0  0  0  0  0  0  0  0
    1.6290   -4.0653    1.8369 S   0  0  0  0  0  0  0  0  0  0  0  0
    0.9659    1.5869    1.7455 S   0  0  0  0  0  0  0  0  0  0  0  0
   -2.1009    1.9588   -1.7206 O   0  0  0  0  0  0  0  0  0  0  0  0
   -2.5405   -0.3347    0.6938 O   0  0  0  0  0  0  0  0  0  0  0  0
   -2.1638   -2.9510   -0.1922 O   0  0  0  0  0  0  0  0  0  0  0  0
   -0.3117   -4.1679   -0.1824 O   0  0  0  0  0  0  0  0  0  0  0  0
   -0.7401    4.5996    1.5682 O   0  0  0  0  0  0  0  0  0  0  0  0
    1.9855    1.4617    6.6070 O   0  0  0  0  0  0  0  0  0  0  0  0
    0.0369    2.4099    6.0106 O   0  0  0  0  0  0  0  0  0  0  0  0
   -0.5544   -0.5350   -0.5549 N   0  0  0  0  0  0  0  0  0  0  0  0
   -1.2832    2.7034    0.4211 N   0  0  0  0  0  0  0  0  0  0  0  0
    1.6154   -1.8235    3.4135 N   0  0  0  0  0  0  0  0  0  0  0  0
    1.9398   -3.5667    4.5390 N   0  0  0  0  0  0  0  0  0  0  0  0
    1.7812   -1.3452    4.6383 N   0  0  0  0  0  0  0  0  0  0  0  0
    1.9421   -2.4366    5.3571 N   0  0  0  0  0  0  0  0  0  0  0  0
    1.8925    3.4287    3.8751 N   0  0  0  0  0  0  0  0  0  0  0  0
    0.0219    0.6391   -1.1787 C   0  0  1  0  0  0  0  0  0  0  0  0
   -1.2173    1.5623   -0.6180 C   0  0  2  0  0  0  0  0  0  0  0  0
   -1.6601    0.0781   -0.0112 C   0  0  0  0  0  0  0  0  0  0  0  0
   -0.0008   -1.8052   -0.4614 C   0  0  0  0  0  0  0  0  0  0  0  0
    1.3599   -1.9605   -0.3814 C   0  0  0  0  0  0  0  0  0  0  0  0
    2.3552   -0.8158   -0.5603 C   0  0  0  0  0  0  0  0  0  0  0  0
   -0.9364   -2.9834   -0.2433 C   0  0  0  0  0  0  0  0  0  0  0  0
   -0.3872    3.5943    0.9617 C   0  0  0  0  0  0  0  0  0  0  0  0
    2.1235   -3.2087    0.2337 C   0  0  0  0  0  0  0  0  0  0  0  0
   -3.4229    2.3627   -1.3735 C   0  0  0  0  0  0  0  0  0  0  0  0
    1.0055    3.1612    0.9106 C   0  0  0  0  0  0  0  0  0  0  0  0
    1.8145   -3.1392    3.2991 C   0  0  0  0  0  0  0  0  0  0  0  0
    0.4064    1.5999    3.4806 C   0  0  0  0  0  0  0  0  0  0  0  0
    1.2267   -0.9802    2.3938 C   0  0  0  0  0  0  0  0  0  0  0  0
    1.6040    2.0513    4.2828 C   0  0  2  0  0  0  0  0  0  0  0  0
    1.2627    1.9203    5.7378 C   0  0  0  0  0  0  0  0  0  0  0  0
   -0.1178    0.6256   -2.2595 H   0  0  0  0  0  0  0  0  0  0  0  0
   -0.9411   -4.8340    0.1700 H   0  0  0  0  0  0  0  0  0  0  0  0
   -0.0728    2.3250    6.9738 H   0  0  0  0  0  0  0  0  0  0  0  0
   -2.2037    3.0295    0.6871 H   0  0  0  0  0  0  0  0  0  0  0  0
    2.7100    3.7871    4.3459 H   0  0  0  0  0  0  0  0  0  0  0  0
    2.1754    3.3217    2.9072 H   0  0  0  0  0  0  0  0  0  0  0  0
    3.0803   -1.0850   -1.3255 H   0  0  0  0  0  0  0  0  0  0  0  0
    2.9602   -0.6996    0.3562 H   0  0  0  0  0  0  0  0  0  0  0  0
    2.0950   -3.9747   -0.5468 H   0  0  0  0  0  0  0  0  0  0  0  0
    3.1809   -2.9583    0.3674 H   0  0  0  0  0  0  0  0  0  0  0  0
   -3.9623    1.5474   -0.8853 H   0  0  0  0  0  0  0  0  0  0  0  0
   -3.4170    3.2402   -0.7207 H   0  0  0  0  0  0  0  0  0  0  0  0
   -3.9357    2.6664   -2.2847 H   0  0  0  0  0  0  0  0  0  0  0  0
    1.2207    3.0618   -0.1540 H   0  0  0  0  0  0  0  0  0  0  0  0
    1.7970    3.8215    1.2432 H   0  0  0  0  0  0  0  0  0  0  0  0
   -0.5780    2.0454    3.6347 H   0  0  0  0  0  0  0  0  0  0  0  0
    0.2133    0.5802    3.8464 H   0  0  0  0  0  0  0  0  0  0  0  0
    0.1897   -0.6694    2.5007 H   0  0  0  0  0  0  0  0  0  0  0  0
    2.0791   -0.3217    2.2422 H   0  0  0  0  0  0  0  0  0  0  0  0
    1.1182   -1.5405    1.5339 H   0  0  0  0  0  0  0  0  0  0  0  0
    2.4797    1.4116    4.0715 H   0  0  0  0  0  0  0  0  0  0  0  0
  1 18  1  0  0  0  0
  1 23  1  0  0  0  0
  2 26  1  0  0  0  0
  2 29  1  0  0  0  0
  3 28  1  0  0  0  0
  3 30  1  0  0  0  0
  4 27  1  0  0  0  0
  5 20  2  0  0  0  0
  6 24  2  0  0  0  0
  7 24  1  0  0  0  0
  7 35  1  0  0  0  0
  8 25  2  0  0  0  0
  9 33  2  0  0  0  0
 10 33  1  0  0  0  0
 10 36  1  0  0  0  0
 11 18  1  0  0  0  0
 11 20  1  0  0  0  0
 11 21  1  0  0  0  0
 12 25  1  0  0  0  0
 12 37  1  0  0  0  0
 13 15  1  0  0  0  0
 13 29  1  0  0  0  0
 13 31  1  0  0  0  0
 14 16  1  0  0  0  0
 14 29  2  0  0  0  0
 15 16  2  0  0  0  0
 17 38  1  0  0  0  0
 17 39  1  0  0  0  0
 18 19  1  0  0  0  0
 18 34  1  6  0  0  0
 19 20  1  0  0  0  0
 19 12  1  0  0  0  0
 19  4  1  6  0  0  0
 21 22  2  0  0  0  0
 21 24  1  0  0  0  0
 22 23  1  0  0  0  0
 22 26  1  0  0  0  0
 23 40  1  0  0  0  0
 23 41  1  0  0  0  0
 25 28  1  0  0  0  0
 26 42  1  0  0  0  0
 26 43  1  0  0  0  0
 27 44  1  0  0  0  0
 27 45  1  0  0  0  0
 27 46  1  0  0  0  0
 28 47  1  0  0  0  0
 28 48  1  0  0  0  0
 30 32  1  0  0  0  0
 30 49  1  0  0  0  0
 30 50  1  0  0  0  0
 31 51  1  0  0  0  0
 31 52  1  0  0  0  0
 31 53  1  0  0  0  0
 32 17  1  0  0  0  0
 32 33  1  0  0  0  0
 32 54  1  6  0  0  0
M  END
>  <DRUGBANK_ID>
DB09062

>  <COMMON_NAME>
Cefminox

>  <CAS_NUMBER>
84305-41-9

>  <UNII>
PW08Y13465

>  <SYNONYMS>
Cefminox; cefminoxum; CMNX

$$$$
