
 OpenBabel10282417123D

 87 92  0  0  0  0  0  0  0  0999 V2000
    1.0645   -0.0589   -0.0486 P   0  0  3  0  0  0  0  0  0  0  0  0
    2.6956   -2.3636    0.0480 P   0  0  3  0  0  0  0  0  0  0  0  0
    0.2083    4.0452   -0.3510 O   0  0  0  0  0  0  0  0  0  0  0  0
   -2.8066    4.5486   -2.2152 O   0  0  0  0  0  0  0  0  0  0  0  0
   -2.5513    2.2585   -0.8469 O   0  0  0  0  0  0  0  0  0  0  0  0
    0.9361    0.6108   -1.5373 O   0  0  0  0  0  0  0  0  0  0  0  0
    1.0645   -1.7874    0.0238 O   0  0  0  0  0  0  0  0  0  0  0  0
    6.4168    0.8462   -1.0194 O   0  0  0  0  0  0  0  0  0  0  0  0
    5.1062    1.5052    2.5021 O   0  0  0  0  0  0  0  0  0  0  0  0
    2.7206   -1.9613    1.6782 O   0  0  0  0  0  0  0  0  0  0  0  0
   -0.6655   -0.0589   -0.0486 O   0  0  0  0  0  0  0  0  0  0  0  0
    4.8318   -0.7850   -0.2397 O   0  0  0  0  0  0  0  0  0  0  0  0
    2.6129   -0.0589   -0.0486 O   0  0  0  0  0  0  0  0  0  0  0  0
    1.9910   -3.8421    0.1730 O   0  0  0  0  0  0  0  0  0  0  0  0
    4.1554   -2.8792    0.0696 O   0  0  0  0  0  0  0  0  0  0  0  0
    7.4701    1.7566    6.6440 O   0  0  0  0  0  0  0  0  0  0  0  0
    7.5888   -1.3974    3.4388 O   0  0  0  0  0  0  0  0  0  0  0  0
    0.0511    6.1632   -1.4629 N   0  0  0  0  0  0  0  0  0  0  0  0
    0.4385    8.2903   -0.7909 N   0  0  0  0  0  0  0  0  0  0  0  0
    2.3379    5.8797   -2.6220 N   0  0  0  0  0  0  0  0  0  0  0  0
    7.3731    2.9134    1.9117 N   0  0  0  0  0  0  0  0  0  0  0  0
    3.8667    7.6643   -1.8510 N   0  0  0  0  0  0  0  0  0  0  0  0
    3.0175    9.2903   -0.2917 N   0  3  0  0  0  0  0  0  0  0  0  0
    7.2205    3.7490    4.6436 N   0  0  0  0  0  0  0  0  0  0  0  0
    7.7790    0.7401    2.7504 N   0  0  0  0  0  0  0  0  0  0  0  0
    7.5873    0.1728    5.0160 N   0  0  0  0  0  0  0  0  0  0  0  0
   -1.4552    4.0999   -2.0936 C   0  0  2  0  0  0  0  0  0  0  0  0
   -1.3781    2.6620   -1.5690 C   0  0  1  0  0  0  0  0  0  0  0  0
   -0.6606    4.9252   -1.0720 C   0  0  1  0  0  0  0  0  0  0  0  0
   -0.1272    2.6833   -0.6903 C   0  0  1  0  0  0  0  0  0  0  0  0
    1.0628    2.0506   -1.4323 C   0  0  0  0  0  0  0  0  0  0  0  0
    1.3536    6.4934   -1.9061 C   0  0  0  0  0  0  0  0  0  0  0  0
   -0.4577    7.3494   -0.9267 C   0  0  0  0  0  0  0  0  0  0  0  0
    1.5557    7.7363   -1.3174 C   0  0  0  0  0  0  0  0  0  0  0  0
    6.5289    1.1042    0.3984 C   0  0  2  0  0  0  0  0  0  0  0  0
    5.1527    0.9876    1.1701 C   0  0  1  0  0  0  0  0  0  0  0  0
    7.1215    2.4876    0.5322 C   0  0  0  0  0  0  0  0  0  0  0  0
    2.8487    8.2197   -1.2241 C   0  0  0  0  0  0  0  0  0  0  0  0
    4.7812   -0.4915    1.1781 C   0  0  1  0  0  0  0  0  0  0  0  0
    7.1511    4.2673    2.2245 C   0  0  0  0  0  0  0  0  0  0  0  0
    3.4528   -0.7651    2.0086 C   0  0  0  0  0  0  0  0  0  0  0  0
    3.5359    6.5767   -2.5921 C   0  0  0  0  0  0  0  0  0  0  0  0
    7.5625    1.9985    2.9488 C   0  0  0  0  0  0  0  0  0  0  0  0
    7.1332    4.6696    3.5751 C   0  0  0  0  0  0  0  0  0  0  0  0
    6.9907    5.2451    1.2314 C   0  0  0  0  0  0  0  0  0  0  0  0
    7.4111    2.4912    4.3636 C   0  0  0  0  0  0  0  0  0  0  0  0
    6.8582    6.5993    1.5341 C   0  0  0  0  0  0  0  0  0  0  0  0
    7.0144    6.0323    3.8813 C   0  0  0  0  0  0  0  0  0  0  0  0
    6.8858    7.0060    2.8724 C   0  0  0  0  0  0  0  0  0  0  0  0
    7.4918    1.4555    5.4580 C   0  0  0  0  0  0  0  0  0  0  0  0
    6.7397    7.5690    0.3985 C   0  0  0  0  0  0  0  0  0  0  0  0
    6.8059    8.4575    3.2479 C   0  0  0  0  0  0  0  0  0  0  0  0
    7.6659   -0.2216    3.7116 C   0  0  0  0  0  0  0  0  0  0  0  0
   -3.3863    3.9951   -1.6503 H   0  0  0  0  0  0  0  0  0  0  0  0
   -2.7011    2.7801   -0.0452 H   0  0  0  0  0  0  0  0  0  0  0  0
    6.0285   -0.0593   -1.0581 H   0  0  0  0  0  0  0  0  0  0  0  0
    4.2206    1.3896    2.8782 H   0  0  0  0  0  0  0  0  0  0  0  0
   -1.0798    0.3108    0.7507 H   0  0  0  0  0  0  0  0  0  0  0  0
    4.9403   -1.7588   -0.3169 H   0  0  0  0  0  0  0  0  0  0  0  0
    1.2075   -3.8884   -0.4041 H   0  0  0  0  0  0  0  0  0  0  0  0
    2.9572   10.1732   -0.7980 H   0  0  0  0  0  0  0  0  0  0  0  0
    3.9025    9.1938    0.2056 H   0  0  0  0  0  0  0  0  0  0  0  0
    2.2290    9.2409    0.3718 H   0  0  0  0  0  0  0  0  0  0  0  0
    7.5915   -0.5786    5.6880 H   0  0  0  0  0  0  0  0  0  0  0  0
   -0.9639    4.1729   -3.0638 H   0  0  0  0  0  0  0  0  0  0  0  0
   -1.2861    1.9392   -2.3887 H   0  0  0  0  0  0  0  0  0  0  0  0
   -1.4025    5.2540   -0.3215 H   0  0  0  0  0  0  0  0  0  0  0  0
   -0.3087    2.1858    0.2663 H   0  0  0  0  0  0  0  0  0  0  0  0
    1.9861    2.3144   -0.8969 H   0  0  0  0  0  0  0  0  0  0  0  0
    1.1543    2.4918   -2.4295 H   0  0  0  0  0  0  0  0  0  0  0  0
   -1.4613    7.4242   -0.5269 H   0  0  0  0  0  0  0  0  0  0  0  0
    7.2303    0.3369    0.7251 H   0  0  0  0  0  0  0  0  0  0  0  0
    4.4275    1.5748    0.5896 H   0  0  0  0  0  0  0  0  0  0  0  0
    8.0498    2.5623   -0.0445 H   0  0  0  0  0  0  0  0  0  0  0  0
    6.3901    3.1234    0.0120 H   0  0  0  0  0  0  0  0  0  0  0  0
    5.5510   -1.1098    1.6387 H   0  0  0  0  0  0  0  0  0  0  0  0
    2.7452    0.0819    1.9662 H   0  0  0  0  0  0  0  0  0  0  0  0
    3.6593   -0.7540    3.0827 H   0  0  0  0  0  0  0  0  0  0  0  0
    4.3613    6.2266   -3.2235 H   0  0  0  0  0  0  0  0  0  0  0  0
    7.0044    4.9773    0.1795 H   0  0  0  0  0  0  0  0  0  0  0  0
    7.0452    6.3303    4.9286 H   0  0  0  0  0  0  0  0  0  0  0  0
    5.8041    8.1244    0.4949 H   0  0  0  0  0  0  0  0  0  0  0  0
    7.5905    8.2555    0.4037 H   0  0  0  0  0  0  0  0  0  0  0  0
    6.7229    7.0642   -0.5726 H   0  0  0  0  0  0  0  0  0  0  0  0
    5.9246    8.6371    3.8685 H   0  0  0  0  0  0  0  0  0  0  0  0
    7.7139    8.7652    3.7731 H   0  0  0  0  0  0  0  0  0  0  0  0
    6.7126    9.1054    2.3715 H   0  0  0  0  0  0  0  0  0  0  0  0
  1  6  1  0  0  0  0
  1  7  1  0  0  0  0
  1 11  1  0  0  0  0
  1 13  2  0  0  0  0
  2  7  1  0  0  0  0
  2 10  1  0  0  0  0
  2 14  1  0  0  0  0
  2 15  2  0  0  0  0
  3 29  1  0  0  0  0
  3 30  1  0  0  0  0
  4 54  1  0  0  0  0
  5 55  1  0  0  0  0
  6 31  1  0  0  0  0
  8 56  1  0  0  0  0
  9 57  1  0  0  0  0
 10 41  1  0  0  0  0
 11 58  1  0  0  0  0
 12 59  1  0  0  0  0
 14 60  1  0  0  0  0
 16 50  2  0  0  0  0
 17 53  2  0  0  0  0
 18 32  1  0  0  0  0
 18 33  1  0  0  0  0
 19 33  2  0  0  0  0
 19 34  1  0  0  0  0
 20 32  2  0  0  0  0
 20 42  1  0  0  0  0
 21 37  1  0  0  0  0
 21 40  1  0  0  0  0
 21 43  1  0  0  0  0
 22 38  1  0  0  0  0
 22 42  2  0  0  0  0
 23 38  1  0  0  0  0
 23 61  1  0  0  0  0
 23 62  1  0  0  0  0
 23 63  1  0  0  0  0
 24 44  1  0  0  0  0
 24 46  2  0  0  0  0
 25 43  2  0  0  0  0
 25 53  1  0  0  0  0
 26 50  1  0  0  0  0
 26 53  1  0  0  0  0
 26 64  1  0  0  0  0
 27  4  1  0  0  0  0
 27 28  1  0  0  0  0
 27 29  1  0  0  0  0
 27 65  1  6  0  0  0
 28  5  1  0  0  0  0
 28 30  1  0  0  0  0
 28 66  1  6  0  0  0
 29 67  1  1  0  0  0
 29 18  1  0  0  0  0
 30 31  1  0  0  0  0
 30 68  1  1  0  0  0
 31 69  1  0  0  0  0
 31 70  1  0  0  0  0
 32 34  1  0  0  0  0
 33 71  1  0  0  0  0
 34 38  2  0  0  0  0
 35  8  1  0  0  0  0
 35 36  1  0  0  0  0
 35 37  1  0  0  0  0
 35 72  1  1  0  0  0
 36  9  1  0  0  0  0
 36 39  1  0  0  0  0
 36 73  1  6  0  0  0
 37 74  1  0  0  0  0
 37 75  1  0  0  0  0
 39 12  1  0  0  0  0
 39 41  1  0  0  0  0
 39 76  1  1  0  0  0
 40 44  2  0  0  0  0
 40 45  1  0  0  0  0
 41 77  1  0  0  0  0
 41 78  1  0  0  0  0
 42 79  1  0  0  0  0
 43 46  1  0  0  0  0
 44 48  1  0  0  0  0
 45 47  2  0  0  0  0
 45 80  1  0  0  0  0
 46 50  1  0  0  0  0
 47 49  1  0  0  0  0
 47 51  1  0  0  0  0
 48 49  2  0  0  0  0
 48 81  1  0  0  0  0
 49 52  1  0  0  0  0
 51 82  1  0  0  0  0
 51 83  1  0  0  0  0
 51 84  1  0  0  0  0
 52 85  1  0  0  0  0
 52 86  1  0  0  0  0
 52 87  1  0  0  0  0
M  CHG  1  23   1
M  END
>  <DRUGBANK_ID>
DB02332

>  <SECONDARY_ACCESSION_NUMBERS>
EXPT01392

>  <COMMON_NAME>
Flavin-N7 protonated-adenine dinucleotide

$$$$
