NC4
 OpenBabel10282417173D

 36 36  0  0  0  0  0  0  0  0999 V2000
   -1.4346    0.3280   -0.2979 C   0  0  0  0  0  0  0  0  0  0  0  0
   -1.6232    0.3660   -1.7539 N   0  0  0  0  0  0  0  0  0  0  0  0
   -2.8457    0.6502   -2.3053 C   0  0  0  0  0  0  0  0  0  0  0  0
   -2.8434    0.7034   -3.6756 N   0  0  0  0  0  0  0  0  0  0  0  0
   -4.0818    0.9502   -4.4050 C   0  0  0  0  0  0  0  0  0  0  0  0
   -3.9463    2.1182   -5.3853 C   0  0  0  0  0  0  0  0  0  0  0  0
   -2.9198    1.8815   -6.4939 C   0  0  0  0  0  0  0  0  0  0  0  0
   -3.2664    0.6873   -7.3549 C   0  0  0  0  0  0  0  0  0  0  0  0
   -3.4449    0.9568   -8.6619 O   0  0  0  0  0  0  0  0  0  0  0  0
   -3.8439    0.8798   -1.6333 O   0  0  0  0  0  0  0  0  0  0  0  0
   -3.3596   -0.4554   -6.9234 O   0  0  0  0  0  0  0  0  0  0  0  0
   -0.9966   -1.0608    0.1851 C   0  0  0  0  0  0  0  0  0  0  0  0
    0.4309   -1.3945   -0.2427 C   0  0  0  0  0  0  0  0  0  0  0  0
    1.4172   -0.3279    0.2254 C   0  0  0  0  0  0  0  0  0  0  0  0
    1.0004    1.0649   -0.2402 C   0  0  0  0  0  0  0  0  0  0  0  0
   -0.4335    1.3923    0.1731 C   0  0  0  0  0  0  0  0  0  0  0  0
   -2.3973    0.5517    0.1762 H   0  0  0  0  0  0  0  0  0  0  0  0
   -0.8377    0.1751   -2.3566 H   0  0  0  0  0  0  0  0  0  0  0  0
   -2.0605    0.3192   -4.1843 H   0  0  0  0  0  0  0  0  0  0  0  0
   -4.3799    0.0265   -4.9075 H   0  0  0  0  0  0  0  0  0  0  0  0
   -4.8948    1.1741   -3.7065 H   0  0  0  0  0  0  0  0  0  0  0  0
   -4.9255    2.3271   -5.8345 H   0  0  0  0  0  0  0  0  0  0  0  0
   -3.6616    3.0171   -4.8217 H   0  0  0  0  0  0  0  0  0  0  0  0
   -2.8385    2.7839   -7.1103 H   0  0  0  0  0  0  0  0  0  0  0  0
   -1.9237    1.7114   -6.0709 H   0  0  0  0  0  0  0  0  0  0  0  0
   -3.3109    1.8838   -8.9299 H   0  0  0  0  0  0  0  0  0  0  0  0
   -1.0455   -1.0847    1.2831 H   0  0  0  0  0  0  0  0  0  0  0  0
   -1.6858   -1.8309   -0.1782 H   0  0  0  0  0  0  0  0  0  0  0  0
    0.7210   -2.3694    0.1644 H   0  0  0  0  0  0  0  0  0  0  0  0
    0.4761   -1.4793   -1.3345 H   0  0  0  0  0  0  0  0  0  0  0  0
    1.4806   -0.3438    1.3209 H   0  0  0  0  0  0  0  0  0  0  0  0
    2.4184   -0.5593   -0.1547 H   0  0  0  0  0  0  0  0  0  0  0  0
    1.6847    1.8121    0.1772 H   0  0  0  0  0  0  0  0  0  0  0  0
    1.0893    1.1262   -1.3308 H   0  0  0  0  0  0  0  0  0  0  0  0
   -0.7141    2.3805   -0.2081 H   0  0  0  0  0  0  0  0  0  0  0  0
   -0.4733    1.4533    1.2698 H   0  0  0  0  0  0  0  0  0  0  0  0
  1  2  1  0  0  0  0
  1 12  1  0  0  0  0
  1 16  1  0  0  0  0
  1 17  1  0  0  0  0
  2  3  1  0  0  0  0
  2 18  1  0  0  0  0
  3  4  1  0  0  0  0
  3 10  2  0  0  0  0
  4  5  1  0  0  0  0
  4 19  1  0  0  0  0
  5  6  1  0  0  0  0
  5 20  1  0  0  0  0
  5 21  1  0  0  0  0
  6  7  1  0  0  0  0
  6 22  1  0  0  0  0
  6 23  1  0  0  0  0
  7  8  1  0  0  0  0
  7 24  1  0  0  0  0
  7 25  1  0  0  0  0
  8  9  1  0  0  0  0
  8 11  2  0  0  0  0
  9 26  1  0  0  0  0
 12 13  1  0  0  0  0
 12 27  1  0  0  0  0
 12 28  1  0  0  0  0
 13 14  1  0  0  0  0
 13 29  1  0  0  0  0
 13 30  1  0  0  0  0
 14 15  1  0  0  0  0
 14 31  1  0  0  0  0
 14 32  1  0  0  0  0
 15 16  1  0  0  0  0
 15 33  1  0  0  0  0
 15 34  1  0  0  0  0
 16 35  1  0  0  0  0
 16 36  1  0  0  0  0
M  END
>  <DRUGBANK_ID>
DB08257

>  <COMMON_NAME>
4-{[(CYCLOHEXYLAMINO)CARBONYL]AMINO}BUTANOIC ACID

>  <UNII>
N2N8NLK6Q8

$$$$
