371
 OpenBabel10282417103D

 33 32  0  0  0  0  0  0  0  0999 V2000
    1.3076   -0.1456    0.0055 O   0  0  0  0  0  0  0  0  0  0  0  0
   -1.7439    0.2953    3.2156 O   0  0  0  0  0  0  0  0  0  0  0  0
    3.1376   -0.8686   -1.1061 O   0  0  0  0  0  0  0  0  0  0  0  0
   -1.6704    2.0442    1.7122 O   0  0  0  0  0  0  0  0  0  0  0  0
    3.3748    0.7675    0.3867 N   0  0  0  0  0  0  0  0  0  0  0  0
   -3.5355    0.8373    2.0173 N   0  0  0  0  0  0  0  0  0  0  0  0
    0.6490   -0.0832    2.4913 C   0  0  0  0  0  0  0  0  0  0  0  0
    2.0937    0.1470    3.0187 C   0  0  0  0  0  0  0  0  0  0  0  0
    0.5077    0.5038    1.0504 C   0  0  0  0  0  0  0  0  0  0  0  0
   -0.3606    0.5246    3.5094 C   0  0  0  0  0  0  0  0  0  0  0  0
    0.3375   -1.5914    2.4169 C   0  0  0  0  0  0  0  0  0  0  0  0
    2.5452    1.6458    3.0837 C   0  0  0  0  0  0  0  0  0  0  0  0
    1.9692    2.4855    4.1874 C   0  0  0  0  0  0  0  0  0  0  0  0
    2.6295   -0.1176   -0.3068 C   0  0  0  0  0  0  0  0  0  0  0  0
   -2.2572    1.1427    2.2902 C   0  0  0  0  0  0  0  0  0  0  0  0
    2.8474    1.1700    1.1061 H   0  0  0  0  0  0  0  0  0  0  0  0
    4.3000    0.4632    0.6618 H   0  0  0  0  0  0  0  0  0  0  0  0
   -4.0717    0.2876    2.6674 H   0  0  0  0  0  0  0  0  0  0  0  0
   -3.9704    1.3319    1.2540 H   0  0  0  0  0  0  0  0  0  0  0  0
    2.2603   -0.3261    3.9936 H   0  0  0  0  0  0  0  0  0  0  0  0
    2.7583   -0.4422    2.3696 H   0  0  0  0  0  0  0  0  0  0  0  0
    0.6388    1.5911    1.0216 H   0  0  0  0  0  0  0  0  0  0  0  0
   -0.5082    0.2944    0.7062 H   0  0  0  0  0  0  0  0  0  0  0  0
   -0.1438    0.1280    4.5136 H   0  0  0  0  0  0  0  0  0  0  0  0
   -0.2744    1.5938    3.5899 H   0  0  0  0  0  0  0  0  0  0  0  0
   -0.7272   -1.7560    2.2082 H   0  0  0  0  0  0  0  0  0  0  0  0
    0.9011   -2.0882    1.6230 H   0  0  0  0  0  0  0  0  0  0  0  0
    0.5673   -2.0888    3.3645 H   0  0  0  0  0  0  0  0  0  0  0  0
    3.6417    1.6775    3.1271 H   0  0  0  0  0  0  0  0  0  0  0  0
    2.2561    2.2335    2.2046 H   0  0  0  0  0  0  0  0  0  0  0  0
    2.0228    1.9589    5.1359 H   0  0  0  0  0  0  0  0  0  0  0  0
    2.4772    3.4502    4.2251 H   0  0  0  0  0  0  0  0  0  0  0  0
    0.9486    2.7774    3.9600 H   0  0  0  0  0  0  0  0  0  0  0  0
  1  9  1  0  0  0  0
  1 14  1  0  0  0  0
  2 10  1  0  0  0  0
  2 15  1  0  0  0  0
  3 14  2  0  0  0  0
  4 15  2  0  0  0  0
  5 14  1  0  0  0  0
  5 16  1  0  0  0  0
  5 17  1  0  0  0  0
  6 15  1  0  0  0  0
  6 18  1  0  0  0  0
  6 19  1  0  0  0  0
  7  8  1  0  0  0  0
  7  9  1  0  0  0  0
  7 10  1  0  0  0  0
  7 11  1  0  0  0  0
  8 12  1  0  0  0  0
  8 20  1  0  0  0  0
  8 21  1  0  0  0  0
  9 22  1  0  0  0  0
  9 23  1  0  0  0  0
 10 24  1  0  0  0  0
 10 25  1  0  0  0  0
 11 26  1  0  0  0  0
 11 27  1  0  0  0  0
 11 28  1  0  0  0  0
 12 13  1  0  0  0  0
 12 29  1  0  0  0  0
 12 30  1  0  0  0  0
 13 31  1  0  0  0  0
 13 32  1  0  0  0  0
 13 33  1  0  0  0  0
M  END
>  <DRUGBANK_ID>
DB00371

>  <SECONDARY_ACCESSION_NUMBERS>
APRD01095

>  <COMMON_NAME>
Meprobamate

>  <CAS_NUMBER>
57-53-4

>  <UNII>
9I7LNY769Q

>  <SYNONYMS>
Meprobamat; Meprobamate; Meprobamato; Meprobamatum; Meprobamic acid

$$$$
