
 OpenBabel10282417133D

 29 28  0  0  0  0  0  0  0  0999 V2000
    5.1457    0.1969    2.5331 O   0  0  0  0  0  0  0  0  0  0  0  0
    4.8891    1.3475    2.2245 C   0  0  0  0  0  0  0  0  0  0  0  0
    5.2901    2.0689    0.8005 C   0  0  1  0  0  0  0  0  0  0  0  0
    4.0337    2.4127   -0.3705 C   0  0  2  0  0  0  0  0  0  0  0  0
    3.0954    1.3403   -1.3495 C   0  0  1  0  0  0  0  0  0  0  0  0
    3.7956    0.1094   -2.1407 C   0  0  1  0  0  0  0  0  0  0  0  0
    4.7559   -0.9053   -1.4509 C   0  0  0  0  0  0  0  0  0  0  0  0
    4.1675   -1.5614   -0.2655 O   0  0  0  0  0  0  0  0  0  0  0  0
    3.2115   -0.5933    0.8030 P   0  0  0  0  0  0  0  0  0  0  0  0
    4.3170    0.3319    0.3612 O   0  0  0  0  0  0  0  0  0  0  0  0
    4.1748    1.9160    2.8536 H   0  0  0  0  0  0  0  0  0  0  0  0
    6.0720    3.1609    1.2344 O   0  0  0  0  0  0  0  0  0  0  0  0
    4.7054    3.1871   -1.3701 O   0  0  0  0  0  0  0  0  0  0  0  0
    1.8313    1.0048   -0.7481 O   0  0  0  0  0  0  0  0  0  0  0  0
    2.7919   -0.7087   -2.7758 O   0  0  0  0  0  0  0  0  0  0  0  0
    2.0311   -1.1593    0.0370 O   0  0  0  0  0  0  0  0  0  0  0  0
    2.2555    0.3749    1.8715 O   0  0  0  0  0  0  0  0  0  0  0  0
    6.0322    1.4356    0.2694 H   0  0  0  0  0  0  0  0  0  0  0  0
    3.2952    3.0104    0.1794 H   0  0  0  0  0  0  0  0  0  0  0  0
    2.6950    1.9601   -2.1619 H   0  0  0  0  0  0  0  0  0  0  0  0
    4.3709    0.5802   -2.9464 H   0  0  0  0  0  0  0  0  0  0  0  0
    5.0952   -1.6995   -2.1257 H   0  0  0  0  0  0  0  0  0  0  0  0
    5.6919   -0.3997   -1.1610 H   0  0  0  0  0  0  0  0  0  0  0  0
    5.0806   -0.2098    0.7040 H   0  0  0  0  0  0  0  0  0  0  0  0
    5.5883    3.5448    1.9786 H   0  0  0  0  0  0  0  0  0  0  0  0
    5.2320    2.5372   -1.8691 H   0  0  0  0  0  0  0  0  0  0  0  0
    1.6445    0.0406   -0.8919 H   0  0  0  0  0  0  0  0  0  0  0  0
    2.5227   -1.3899   -2.1209 H   0  0  0  0  0  0  0  0  0  0  0  0
    2.5015    0.4135    2.8101 H   0  0  0  0  0  0  0  0  0  0  0  0
  1  2  2  0  0  0  0
  2  3  1  0  0  0  0
  2 11  1  0  0  0  0
  3 12  1  0  0  0  0
  3 18  1  6  0  0  0
  4 13  1  0  0  0  0
  4 19  1  1  0  0  0
  4  5  1  0  0  0  0
  4  3  1  0  0  0  0
  5  6  1  0  0  0  0
  5 14  1  0  0  0  0
  5 20  1  6  0  0  0
  6  7  1  0  0  0  0
  6 15  1  0  0  0  0
  6 21  1  6  0  0  0
  7  8  1  0  0  0  0
  7 22  1  0  0  0  0
  7 23  1  0  0  0  0
  8  9  1  0  0  0  0
  9 10  1  0  0  0  0
  9 16  2  0  0  0  0
  9 17  1  0  0  0  0
 10 24  1  0  0  0  0
 12 25  1  0  0  0  0
 13 26  1  0  0  0  0
 14 27  1  0  0  0  0
 15 28  1  0  0  0  0
 17 29  1  0  0  0  0
M  END
>  <DRUGBANK_ID>
DB03581

>  <SECONDARY_ACCESSION_NUMBERS>
EXPT01538

>  <COMMON_NAME>
Glucose-6-Phosphate

>  <CAS_NUMBER>
56-73-5

>  <UNII>
375AW34SQA

$$$$
