
 OpenBabel10282417113D

 55 56  0  0  0  0  0  0  0  0999 V2000
   -0.0035    3.7010    3.4994 C   0  0  0  0  0  0  0  0  0  0  0  0
   -0.6228    4.9494    3.5780 C   0  0  0  0  0  0  0  0  0  0  0  0
   -1.4511    5.3911    2.5365 C   0  0  0  0  0  0  0  0  0  0  0  0
   -1.5736    4.5944    1.4100 C   0  0  0  0  0  0  0  0  0  0  0  0
   -0.8748    3.3702    1.2726 C   0  0  0  0  0  0  0  0  0  0  0  0
   -0.1667    2.9033    2.3868 C   0  0  0  0  0  0  0  0  0  0  0  0
   -1.0494    2.5922   -0.0203 C   0  0  2  0  0  0  0  0  0  0  0  0
   -0.3411    1.1910   -0.1594 C   0  0  0  0  0  0  0  0  0  0  0  0
   -0.9591   -0.1185    0.4367 C   0  0  0  0  0  0  0  0  0  0  0  0
   -2.0446   -0.8657   -0.2910 N   0  0  0  0  0  0  0  0  0  0  0  0
   -2.1294   -2.2916    0.1475 C   0  0  0  0  0  0  0  0  0  0  0  0
   -2.5471   -2.4994    1.6100 C   0  0  0  0  0  0  0  0  0  0  0  0
   -3.0665   -3.1000   -0.7733 C   0  0  0  0  0  0  0  0  0  0  0  0
   -3.3844   -0.2231   -0.3467 C   0  0  0  0  0  0  0  0  0  0  0  0
   -3.9693    0.2007    0.9985 C   0  0  0  0  0  0  0  0  0  0  0  0
   -3.3803    0.9336   -1.3008 C   0  0  0  0  0  0  0  0  0  0  0  0
   -2.1955    6.6882    2.6140 C   0  0  0  0  0  0  0  0  0  0  0  0
    0.3185    1.6323    2.4021 O   0  0  0  0  0  0  0  0  0  0  0  0
   -0.7810    3.3533   -1.3563 C   0  0  0  0  0  0  0  0  0  0  0  0
   -1.0901    2.7437   -2.6029 C   0  0  0  0  0  0  0  0  0  0  0  0
   -0.8839    3.3730   -3.8256 C   0  0  0  0  0  0  0  0  0  0  0  0
   -0.3370    4.6338   -3.8371 C   0  0  0  0  0  0  0  0  0  0  0  0
   -0.0177    5.2676   -2.6342 C   0  0  0  0  0  0  0  0  0  0  0  0
   -0.2156    4.6199   -1.4085 C   0  0  0  0  0  0  0  0  0  0  0  0
    0.5986    3.3506    4.3370 H   0  0  0  0  0  0  0  0  0  0  0  0
   -0.4819    5.5562    4.4600 H   0  0  0  0  0  0  0  0  0  0  0  0
   -2.2232    4.9359    0.5937 H   0  0  0  0  0  0  0  0  0  0  0  0
   -2.1392    2.5329    0.0670 H   0  0  0  0  0  0  0  0  0  0  0  0
   -0.1397    0.9442   -1.2059 H   0  0  0  0  0  0  0  0  0  0  0  0
    0.6815    1.3174    0.2194 H   0  0  0  0  0  0  0  0  0  0  0  0
   -0.0888   -0.7960    0.4502 H   0  0  0  0  0  0  0  0  0  0  0  0
   -1.2179    0.0181    1.4867 H   0  0  0  0  0  0  0  0  0  0  0  0
   -1.1347   -2.7463    0.0316 H   0  0  0  0  0  0  0  0  0  0  0  0
   -3.6027   -2.2846    1.7643 H   0  0  0  0  0  0  0  0  0  0  0  0
   -2.4291   -3.5437    1.9112 H   0  0  0  0  0  0  0  0  0  0  0  0
   -1.9592   -1.8874    2.3001 H   0  0  0  0  0  0  0  0  0  0  0  0
   -2.7035   -3.0845   -1.8065 H   0  0  0  0  0  0  0  0  0  0  0  0
   -3.1505   -4.1388   -0.4447 H   0  0  0  0  0  0  0  0  0  0  0  0
   -4.0944   -2.7271   -0.7744 H   0  0  0  0  0  0  0  0  0  0  0  0
   -4.1110   -0.8606   -0.8479 H   0  0  0  0  0  0  0  0  0  0  0  0
   -3.2142    0.5898    1.6841 H   0  0  0  0  0  0  0  0  0  0  0  0
   -4.7283    0.9753    0.8777 H   0  0  0  0  0  0  0  0  0  0  0  0
   -4.4833   -0.6286    1.4817 H   0  0  0  0  0  0  0  0  0  0  0  0
   -3.2974    0.6663   -2.3527 H   0  0  0  0  0  0  0  0  0  0  0  0
   -4.1457    1.6917   -1.1266 H   0  0  0  0  0  0  0  0  0  0  0  0
   -2.4589    1.3885   -1.1129 H   0  0  0  0  0  0  0  0  0  0  0  0
   -1.8940    7.3468    1.7920 H   0  0  0  0  0  0  0  0  0  0  0  0
   -3.2741    6.5064    2.5435 H   0  0  0  0  0  0  0  0  0  0  0  0
   -1.9988    7.2045    3.5565 H   0  0  0  0  0  0  0  0  0  0  0  0
    0.9131    1.5014    3.1572 H   0  0  0  0  0  0  0  0  0  0  0  0
   -1.4426    1.7241   -2.6776 H   0  0  0  0  0  0  0  0  0  0  0  0
   -1.1327    2.8434   -4.7434 H   0  0  0  0  0  0  0  0  0  0  0  0
   -0.1262    5.1185   -4.7857 H   0  0  0  0  0  0  0  0  0  0  0  0
    0.4036    6.2633   -2.6419 H   0  0  0  0  0  0  0  0  0  0  0  0
    0.1044    5.1280   -0.5034 H   0  0  0  0  0  0  0  0  0  0  0  0
  1  2  2  0  0  0  0
  1  6  1  0  0  0  0
  1 25  1  0  0  0  0
  2  3  1  0  0  0  0
  2 26  1  0  0  0  0
  3  4  2  0  0  0  0
  3 17  1  0  0  0  0
  4  5  1  0  0  0  0
  4 27  1  0  0  0  0
  5  6  2  0  0  0  0
  6 18  1  0  0  0  0
  7 19  1  0  0  0  0
  7 28  1  6  0  0  0
  7  8  1  0  0  0  0
  7  5  1  0  0  0  0
  8  9  1  0  0  0  0
  8 29  1  0  0  0  0
  8 30  1  0  0  0  0
  9 10  1  0  0  0  0
  9 31  1  0  0  0  0
  9 32  1  0  0  0  0
 10 11  1  0  0  0  0
 10 14  1  0  0  0  0
 11 12  1  0  0  0  0
 11 13  1  0  0  0  0
 11 33  1  0  0  0  0
 12 34  1  0  0  0  0
 12 35  1  0  0  0  0
 12 36  1  0  0  0  0
 13 37  1  0  0  0  0
 13 38  1  0  0  0  0
 13 39  1  0  0  0  0
 14 15  1  0  0  0  0
 14 16  1  0  0  0  0
 14 40  1  0  0  0  0
 15 41  1  0  0  0  0
 15 42  1  0  0  0  0
 15 43  1  0  0  0  0
 16 44  1  0  0  0  0
 16 45  1  0  0  0  0
 16 46  1  0  0  0  0
 17 47  1  0  0  0  0
 17 48  1  0  0  0  0
 17 49  1  0  0  0  0
 18 50  1  0  0  0  0
 19 20  2  0  0  0  0
 19 24  1  0  0  0  0
 20 21  1  0  0  0  0
 20 51  1  0  0  0  0
 21 22  2  0  0  0  0
 21 52  1  0  0  0  0
 22 23  1  0  0  0  0
 22 53  1  0  0  0  0
 23 24  2  0  0  0  0
 23 54  1  0  0  0  0
 24 55  1  0  0  0  0
M  END
>  <DRUGBANK_ID>
DB01036

>  <SECONDARY_ACCESSION_NUMBERS>
APRD00146

>  <COMMON_NAME>
Tolterodine

>  <CAS_NUMBER>
124937-51-5

>  <UNII>
WHE7A56U7K

>  <SYNONYMS>
(+)-(R)-2-(alpha-(2-(Diisopropylamino)ethyl)benzyl)-p-cresol; (+)-Tolterodine; Tolterodina; Tolterodine; Tolterodinum

$$$$
