
 OpenBabel10282417233D

 45 46  0  0  1  0  0  0  0  0999 V2000
    1.5916   -0.1398   -0.4732 C   0  0  0  0  0  0  0  0  0  0  0  0
    0.8451    1.0175   -0.8795 O   0  0  0  0  0  0  0  0  0  0  0  0
    1.1794    2.2596   -0.2327 C   0  0  0  0  0  0  0  0  0  0  0  0
    0.6393    2.5420    1.2068 C   0  0  0  0  0  0  0  0  0  0  0  0
    0.8917    1.5479    2.2084 O   0  0  0  0  0  0  0  0  0  0  0  0
    0.1825    0.3458    1.9533 C   0  0  0  0  0  0  0  0  0  0  0  0
   -1.2999    0.1957    1.7284 C   0  0  0  0  0  0  0  0  0  0  0  0
   -1.7824    1.2101    0.8215 O   0  0  0  0  0  0  0  0  0  0  0  0
   -2.1945    0.9626   -0.4569 C   0  0  0  0  0  0  0  0  0  0  0  0
   -2.5519   -0.2927   -0.9410 C   0  0  0  0  0  0  0  0  0  0  0  0
   -3.1799   -0.4132   -2.1800 C   0  0  0  0  0  0  0  0  0  0  0  0
   -3.5667   -1.6424   -2.6384 O   0  0  0  0  0  0  0  0  0  0  0  0
   -3.4211    0.7195   -2.9568 C   0  0  0  0  0  0  0  0  0  0  0  0
   -2.9844    1.9793   -2.5204 C   0  0  0  0  0  0  0  0  0  0  0  0
   -2.3662    2.0966   -1.2724 C   0  0  0  0  0  0  0  0  0  0  0  0
   -4.1053    0.5860   -4.2493 C   0  0  0  0  0  0  0  0  0  0  0  0
   -5.3251    0.1597   -4.4185 N   0  0  0  0  0  0  0  0  0  0  0  0
   -5.6401    0.1504   -5.8877 C   0  0  2  0  0  0  0  0  0  0  0  0
   -5.5325   -1.2693   -6.4553 C   0  0  0  0  0  0  0  0  0  0  0  0
   -4.6921    1.1056   -6.6237 C   0  0  0  0  0  0  0  0  0  0  0  0
   -3.1865    1.0852   -5.6464 S   0  0  0  0  0  0  0  0  0  0  0  0
   -7.0844    0.6040   -6.1079 C   0  0  0  0  0  0  0  0  0  0  0  0
   -7.9139    0.5420   -5.0470 O   0  0  0  0  0  0  0  0  0  0  0  0
   -7.5052    0.9632   -7.2271 O   0  0  0  0  0  0  0  0  0  0  0  0
    1.0012   -1.0364   -0.7244 H   0  0  0  0  0  0  0  0  0  0  0  0
    1.7111   -0.3169    0.5906 H   0  0  0  0  0  0  0  0  0  0  0  0
    2.6567   -0.0257   -0.5928 H   0  0  0  0  0  0  0  0  0  0  0  0
    2.2637    2.3426   -0.2510 H   0  0  0  0  0  0  0  0  0  0  0  0
    0.7727    3.0624   -0.8696 H   0  0  0  0  0  0  0  0  0  0  0  0
    1.0639    3.4843    1.5642 H   0  0  0  0  0  0  0  0  0  0  0  0
   -0.4270    2.7461    1.2194 H   0  0  0  0  0  0  0  0  0  0  0  0
    0.2496    0.2813    0.9178 H   0  0  0  0  0  0  0  0  0  0  0  0
    0.7086   -0.5265    2.3750 H   0  0  0  0  0  0  0  0  0  0  0  0
   -1.4113   -0.8148    1.3109 H   0  0  0  0  0  0  0  0  0  0  0  0
   -1.7765    0.3064    2.6867 H   0  0  0  0  0  0  0  0  0  0  0  0
   -2.3901   -1.1770   -0.3464 H   0  0  0  0  0  0  0  0  0  0  0  0
   -3.3594   -2.3310   -1.9864 H   0  0  0  0  0  0  0  0  0  0  0  0
   -3.1455    2.8696   -3.1263 H   0  0  0  0  0  0  0  0  0  0  0  0
   -2.0433    3.0809   -0.9318 H   0  0  0  0  0  0  0  0  0  0  0  0
   -5.7867   -1.2700   -7.5242 H   0  0  0  0  0  0  0  0  0  0  0  0
   -4.5234   -1.6823   -6.3585 H   0  0  0  0  0  0  0  0  0  0  0  0
   -6.2289   -1.9509   -5.9567 H   0  0  0  0  0  0  0  0  0  0  0  0
   -4.4554    0.7882   -7.6426 H   0  0  0  0  0  0  0  0  0  0  0  0
   -5.0697    2.1312   -6.6498 H   0  0  0  0  0  0  0  0  0  0  0  0
   -7.4537    0.2369   -4.2334 H   0  0  0  0  0  0  0  0  0  0  0  0
  1  2  1  0  0  0  0
  1 25  1  0  0  0  0
  1 26  1  0  0  0  0
  1 27  1  0  0  0  0
  2  3  1  0  0  0  0
  3  4  1  0  0  0  0
  3 28  1  0  0  0  0
  3 29  1  0  0  0  0
  4  5  1  0  0  0  0
  4 30  1  0  0  0  0
  4 31  1  0  0  0  0
  5  6  1  0  0  0  0
  6  7  1  0  0  0  0
  6 32  1  0  0  0  0
  6 33  1  0  0  0  0
  7  8  1  0  0  0  0
  7 34  1  0  0  0  0
  7 35  1  0  0  0  0
  8  9  1  0  0  0  0
  9 10  2  0  0  0  0
  9 15  1  0  0  0  0
 10 11  1  0  0  0  0
 10 36  1  0  0  0  0
 11 12  1  0  0  0  0
 11 13  2  0  0  0  0
 12 37  1  0  0  0  0
 13 14  1  0  0  0  0
 13 16  1  0  0  0  0
 14 15  2  0  0  0  0
 14 38  1  0  0  0  0
 15 39  1  0  0  0  0
 16 17  2  0  0  0  0
 16 21  1  0  0  0  0
 18 17  1  0  0  0  0
 18 20  1  0  0  0  0
 18 22  1  6  0  0  0
 18 19  1  0  0  0  0
 19 40  1  0  0  0  0
 19 41  1  0  0  0  0
 19 42  1  0  0  0  0
 20 21  1  0  0  0  0
 20 43  1  0  0  0  0
 20 44  1  0  0  0  0
 22 23  1  0  0  0  0
 22 24  2  0  0  0  0
 23 45  1  0  0  0  0
M  END
>  <DRUGBANK_ID>
DB16069

>  <COMMON_NAME>
SP-420

>  <CAS_NUMBER>
911714-45-9

>  <UNII>
WBX54NZ436

$$$$
