
 OpenBabel10282417123D

 27 27  0  0  1  0  0  0  0  0999 V2000
   -1.1673    0.6436    0.3282 C   0  0  1  0  0  0  0  0  0  0  0  0
   -0.8609   -0.7490   -0.2307 C   0  0  1  0  0  0  0  0  0  0  0  0
   -0.0577    1.6492   -0.0500 C   0  0  2  0  0  0  0  0  0  0  0  0
    0.5947   -1.1920   -0.0544 C   0  0  2  0  0  0  0  0  0  0  0  0
   -0.1343    1.9854   -1.5622 C   0  0  0  0  0  0  0  0  0  0  0  0
    1.5791   -0.0299   -0.3075 C   0  0  2  0  0  0  0  0  0  0  0  0
   -2.4380    1.1022   -0.1480 O   0  0  0  0  0  0  0  0  0  0  0  0
   -1.7535   -1.7699    0.2373 O   0  0  0  0  0  0  0  0  0  0  0  0
    0.1552    3.2537   -1.9026 O   0  0  0  0  0  0  0  0  0  0  0  0
   -0.4542    1.1635   -2.4108 O   0  0  0  0  0  0  0  0  0  0  0  0
    2.9081   -0.3740    0.0438 O   0  0  0  0  0  0  0  0  0  0  0  0
   -0.6493   -1.9389   -2.8947 O   0  0  0  0  0  0  0  0  0  0  0  0
    1.7199   -1.2529   -2.9320 O   0  0  0  0  0  0  0  0  0  0  0  0
    1.0524   -3.6756   -2.9478 O   0  0  0  0  0  0  0  0  0  0  0  0
    1.2028    1.1523    0.4019 O   0  0  0  0  0  0  0  0  0  0  0  0
    0.8463   -2.3595   -0.8503 O   0  0  0  0  0  0  0  0  0  0  0  0
    0.8621   -2.3167   -2.4855 S   0  0  0  0  0  0  0  0  0  0  0  0
   -1.2491    0.5636    1.4181 H   0  0  0  0  0  0  0  0  0  0  0  0
   -1.1071   -0.6885   -1.2764 H   0  0  0  0  0  0  0  0  0  0  0  0
   -0.2648    2.5782    0.4921 H   0  0  0  0  0  0  0  0  0  0  0  0
    0.7184   -1.5182    0.9916 H   0  0  0  0  0  0  0  0  0  0  0  0
    1.6239    0.2353   -1.3546 H   0  0  0  0  0  0  0  0  0  0  0  0
   -2.4331    1.0498   -1.1287 H   0  0  0  0  0  0  0  0  0  0  0  0
   -1.7053   -1.8225    1.2079 H   0  0  0  0  0  0  0  0  0  0  0  0
    0.3940    3.8523   -1.1726 H   0  0  0  0  0  0  0  0  0  0  0  0
    2.9458   -0.4905    1.0041 H   0  0  0  0  0  0  0  0  0  0  0  0
   -1.2868   -2.5213   -2.4353 H   0  0  0  0  0  0  0  0  0  0  0  0
  1  7  1  0  0  0  0
  1 18  1  1  0  0  0
  2  1  1  0  0  0  0
  2  8  1  0  0  0  0
  2 19  1  6  0  0  0
  3  1  1  0  0  0  0
  3 20  1  1  0  0  0
  3  5  1  0  0  0  0
  4  2  1  0  0  0  0
  4 16  1  0  0  0  0
  4 21  1  1  0  0  0
  6  4  1  0  0  0  0
  6 11  1  0  0  0  0
  6 22  1  6  0  0  0
  7 23  1  0  0  0  0
  8 24  1  0  0  0  0
  9  5  1  0  0  0  0
  9 25  1  0  0  0  0
 10  5  2  0  0  0  0
 11 26  1  0  0  0  0
 12 27  1  0  0  0  0
 15  3  1  0  0  0  0
 15  6  1  0  0  0  0
 17 12  1  0  0  0  0
 17 13  2  0  0  0  0
 17 14  2  0  0  0  0
 17 16  1  0  0  0  0
M  END
>  <DRUGBANK_ID>
DB02264

>  <SECONDARY_ACCESSION_NUMBERS>
EXPT01843

>  <COMMON_NAME>
O2-Sulfo-Glucuronic Acid

$$$$
