
 OpenBabel10282417183D

 56 58  0  0  0  0  0  0  0  0999 V2000
    0.5210   -0.3874   -0.2463 O   0  0  0  0  0  0  0  0  0  0  0  0
   -0.1722    2.4613   -0.7887 O   0  0  0  0  0  0  0  0  0  0  0  0
    2.7002   -0.6667   -0.7241 O   0  0  0  0  0  0  0  0  0  0  0  0
    1.8596    1.6051   -1.6702 O   0  0  0  0  0  0  0  0  0  0  0  0
    2.5973   -0.0331    2.5484 N   0  0  0  0  0  0  0  0  0  0  0  0
    2.1102    1.0809    0.7230 N   0  0  0  0  0  0  0  0  0  0  0  0
    0.4449    2.6560   -2.8998 N   0  0  0  0  0  0  0  0  0  0  0  0
    3.2419   -1.2593    2.1972 C   0  0  0  0  0  0  0  0  0  0  0  0
    3.7034    1.3655    1.9010 C   0  0  0  0  0  0  0  0  0  0  0  0
    4.7181   -0.9683    2.3791 C   0  0  0  0  0  0  0  0  0  0  0  0
    4.9826    1.5957    2.4943 C   0  0  0  0  0  0  0  0  0  0  0  0
    5.4631    0.3263    1.8781 C   0  0  0  0  0  0  0  0  0  0  0  0
    0.8305   -0.5203    2.1938 C   0  0  0  0  0  0  0  0  0  0  0  0
   -0.0021    0.3372    0.8059 C   0  0  3  0  0  0  0  0  0  0  0  0
    0.1350    2.0989    0.5128 C   0  0  0  0  0  0  0  0  0  0  0  0
    1.8159   -0.0819   -0.1276 C   0  0  0  0  0  0  0  0  0  0  0  0
    0.8128    2.1934   -1.7100 C   0  0  0  0  0  0  0  0  0  0  0  0
    1.7881    2.1472    2.1861 C   0  0  0  0  0  0  0  0  0  0  0  0
   -0.3982    3.7239   -3.0093 C   0  0  0  0  0  0  0  0  0  0  0  0
    0.9216    1.7513    3.2143 C   0  0  0  0  0  0  0  0  0  0  0  0
    2.4927    3.2376    2.8843 C   0  0  0  0  0  0  0  0  0  0  0  0
   -0.2547    4.8193   -2.1419 C   0  0  0  0  0  0  0  0  0  0  0  0
   -1.3495    3.6764   -3.9968 C   0  0  0  0  0  0  0  0  0  0  0  0
    0.6905    1.8953    4.4783 C   0  0  0  0  0  0  0  0  0  0  0  0
    2.3502    3.5792    4.2217 C   0  0  0  0  0  0  0  0  0  0  0  0
    1.3261    2.9949    4.9714 C   0  0  0  0  0  0  0  0  0  0  0  0
   -1.0709    5.9150   -2.3037 C   0  0  0  0  0  0  0  0  0  0  0  0
   -2.1169    4.8055   -4.1939 C   0  0  0  0  0  0  0  0  0  0  0  0
   -2.0098    5.9007   -3.3283 C   0  0  0  0  0  0  0  0  0  0  0  0
    3.0274    0.5781    0.5619 H   0  0  0  0  0  0  0  0  0  0  0  0
    0.8731    2.1598   -3.6612 H   0  0  0  0  0  0  0  0  0  0  0  0
    2.9551   -1.5718    1.2009 H   0  0  0  0  0  0  0  0  0  0  0  0
    2.8155   -2.0812    2.8006 H   0  0  0  0  0  0  0  0  0  0  0  0
    3.3829    2.3922    1.4227 H   0  0  0  0  0  0  0  0  0  0  0  0
    3.9612    1.6277    0.7486 H   0  0  0  0  0  0  0  0  0  0  0  0
    5.1977   -1.7928    1.8759 H   0  0  0  0  0  0  0  0  0  0  0  0
    4.8383   -0.9576    3.4623 H   0  0  0  0  0  0  0  0  0  0  0  0
    4.7999    1.7463    3.5477 H   0  0  0  0  0  0  0  0  0  0  0  0
    5.2858    2.5425    1.9879 H   0  0  0  0  0  0  0  0  0  0  0  0
    6.4997    0.3456    2.1470 H   0  0  0  0  0  0  0  0  0  0  0  0
    5.3891    0.3977    0.7674 H   0  0  0  0  0  0  0  0  0  0  0  0
    0.0580   -0.2810    3.0362 H   0  0  0  0  0  0  0  0  0  0  0  0
    0.6072   -1.6133    2.3232 H   0  0  0  0  0  0  0  0  0  0  0  0
   -1.0775    0.2209    0.8294 H   0  0  0  0  0  0  0  0  0  0  0  0
   -0.3403    2.6956    1.3164 H   0  0  0  0  0  0  0  0  0  0  0  0
    1.1130    2.6269    0.4782 H   0  0  0  0  0  0  0  0  0  0  0  0
    0.4544    1.1330    2.5137 H   0  0  0  0  0  0  0  0  0  0  0  0
    3.3392    3.7747    2.4392 H   0  0  0  0  0  0  0  0  0  0  0  0
    0.4974    4.8265   -1.3531 H   0  0  0  0  0  0  0  0  0  0  0  0
   -1.5161    2.7588   -4.5527 H   0  0  0  0  0  0  0  0  0  0  0  0
   -0.0331    1.2402    4.9872 H   0  0  0  0  0  0  0  0  0  0  0  0
    3.0188    4.3394    4.6238 H   0  0  0  0  0  0  0  0  0  0  0  0
    0.9105    3.4803    5.8169 H   0  0  0  0  0  0  0  0  0  0  0  0
   -0.9454    6.7751   -1.6565 H   0  0  0  0  0  0  0  0  0  0  0  0
   -2.7932    4.8394   -5.0369 H   0  0  0  0  0  0  0  0  0  0  0  0
   -2.6702    6.7494   -3.4562 H   0  0  0  0  0  0  0  0  0  0  0  0
  1 14  1  0  0  0  0
  1 16  1  0  0  0  0
  2 15  1  0  0  0  0
  2 17  1  0  0  0  0
  3 16  2  0  0  0  0
  4 17  2  0  0  0  0
  5  8  1  0  0  0  0
  5  9  1  0  0  0  0
  5 13  1  0  0  0  0
  6 16  1  0  0  0  0
  6 18  1  0  0  0  0
  6 30  1  0  0  0  0
  7 17  1  0  0  0  0
  7 19  1  0  0  0  0
  7 31  1  0  0  0  0
  8 10  1  0  0  0  0
  8 32  1  0  0  0  0
  8 33  1  0  0  0  0
  9 11  1  0  0  0  0
  9 34  1  0  0  0  0
  9 35  1  0  0  0  0
 10 12  1  0  0  0  0
 10 36  1  0  0  0  0
 10 37  1  0  0  0  0
 11 12  1  0  0  0  0
 11 38  1  0  0  0  0
 11 39  1  0  0  0  0
 12 40  1  0  0  0  0
 12 41  1  0  0  0  0
 13 14  1  0  0  0  0
 13 42  1  0  0  0  0
 13 43  1  0  0  0  0
 14 15  1  0  0  0  0
 14 44  1  0  0  0  0
 15 45  1  0  0  0  0
 15 46  1  0  0  0  0
 18 20  2  0  0  0  0
 18 21  1  0  0  0  0
 19 22  2  0  0  0  0
 19 23  1  0  0  0  0
 20 24  1  0  0  0  0
 20 47  1  0  0  0  0
 21 25  2  0  0  0  0
 21 48  1  0  0  0  0
 22 27  1  0  0  0  0
 22 49  1  0  0  0  0
 23 28  2  0  0  0  0
 23 50  1  0  0  0  0
 24 26  2  0  0  0  0
 24 51  1  0  0  0  0
 25 26  1  0  0  0  0
 25 52  1  0  0  0  0
 26 53  1  0  0  0  0
 27 29  2  0  0  0  0
 27 54  1  0  0  0  0
 28 29  1  0  0  0  0
 28 55  1  0  0  0  0
 29 56  1  0  0  0  0
M  END
>  <DRUGBANK_ID>
DB11513

>  <COMMON_NAME>
Diperodon

>  <CAS_NUMBER>
101-08-6

>  <UNII>
UIN4PYP84R

>  <SYNONYMS>
Diperodón; Diperodon; Dipérodon; Diperodonum

$$$$
