
 OpenBabel10282417183D

 50 52  0  0  0  0  0  0  0  0999 V2000
    0.8404   -0.1343    0.1350 C   0  0  0  0  0  0  0  0  0  0  0  0
    0.4565    1.1300   -0.6123 C   0  0  0  0  0  0  0  0  0  0  0  0
    0.8872    1.0903   -2.0396 C   0  0  0  0  0  0  0  0  0  0  0  0
   -0.0133    1.0561   -2.9117 O   0  0  0  0  0  0  0  0  0  0  0  0
    2.2463    1.0481   -2.3315 N   0  0  0  0  0  0  0  0  0  0  0  0
    3.3868    1.1411   -1.3262 C   0  0  0  0  0  0  0  0  0  0  0  0
    4.1724    2.4563   -1.3156 C   0  0  0  0  0  0  0  0  0  0  0  0
    5.1776    2.4812   -2.4432 C   0  0  0  0  0  0  0  0  0  0  0  0
    6.1671    1.3977   -2.4268 N   0  0  0  0  0  0  0  0  0  0  0  0
    7.0529    1.4432   -3.6420 C   0  0  0  0  0  0  0  0  0  0  0  0
    6.4603    1.5399   -5.0572 C   0  0  0  0  0  0  0  0  0  0  0  0
    5.6818    2.6406   -5.4576 C   0  0  0  0  0  0  0  0  0  0  0  0
    5.1467    2.7497   -6.7404 C   0  0  0  0  0  0  0  0  0  0  0  0
    5.4159    1.7737   -7.6899 C   0  0  0  0  0  0  0  0  0  0  0  0
    6.1810    0.6630   -7.3306 C   0  0  0  0  0  0  0  0  0  0  0  0
    6.6996    0.5458   -6.0267 C   0  0  0  0  0  0  0  0  0  0  0  0
    5.5098    0.0962   -2.3510 C   0  0  0  0  0  0  0  0  0  0  0  0
    4.3813   -0.0353   -1.3080 C   0  0  0  0  0  0  0  0  0  0  0  0
    2.5194    0.8758   -3.7156 C   0  0  0  0  0  0  0  0  0  0  0  0
    2.0534    1.8106   -4.6478 C   0  0  0  0  0  0  0  0  0  0  0  0
    2.3148    1.6250   -5.9969 C   0  0  0  0  0  0  0  0  0  0  0  0
    3.0737    0.5315   -6.4011 C   0  0  0  0  0  0  0  0  0  0  0  0
    3.6127   -0.3336   -5.4684 C   0  0  0  0  0  0  0  0  0  0  0  0
    3.1831   -0.2556   -4.1635 C   0  0  0  0  0  0  0  0  0  0  0  0
    0.4486   -1.0200   -0.3727 H   0  0  0  0  0  0  0  0  0  0  0  0
    0.4557   -0.0862    1.1538 H   0  0  0  0  0  0  0  0  0  0  0  0
    1.9140   -0.3034    0.2165 H   0  0  0  0  0  0  0  0  0  0  0  0
   -0.6390    1.2045   -0.6197 H   0  0  0  0  0  0  0  0  0  0  0  0
    0.8350    2.0490   -0.1569 H   0  0  0  0  0  0  0  0  0  0  0  0
    2.9206    1.1814   -0.3449 H   0  0  0  0  0  0  0  0  0  0  0  0
    3.4878    3.3076   -1.3981 H   0  0  0  0  0  0  0  0  0  0  0  0
    4.7070    2.5625   -0.3608 H   0  0  0  0  0  0  0  0  0  0  0  0
    4.5509    2.4006   -3.3228 H   0  0  0  0  0  0  0  0  0  0  0  0
    5.6841    3.4509   -2.4605 H   0  0  0  0  0  0  0  0  0  0  0  0
    7.7229    2.3008   -3.5302 H   0  0  0  0  0  0  0  0  0  0  0  0
    7.7040    0.5576   -3.6045 H   0  0  0  0  0  0  0  0  0  0  0  0
    5.3700    3.4034   -4.7553 H   0  0  0  0  0  0  0  0  0  0  0  0
    4.3836    3.5044   -6.9244 H   0  0  0  0  0  0  0  0  0  0  0  0
    4.8530    1.7761   -8.6225 H   0  0  0  0  0  0  0  0  0  0  0  0
    6.2428   -0.1760   -8.0217 H   0  0  0  0  0  0  0  0  0  0  0  0
    7.2032   -0.3806   -5.7572 H   0  0  0  0  0  0  0  0  0  0  0  0
    6.2013   -0.7485   -2.2499 H   0  0  0  0  0  0  0  0  0  0  0  0
    5.1384   -0.0275   -3.3445 H   0  0  0  0  0  0  0  0  0  0  0  0
    4.8463   -0.0897   -0.3142 H   0  0  0  0  0  0  0  0  0  0  0  0
    3.8378   -0.9812   -1.4231 H   0  0  0  0  0  0  0  0  0  0  0  0
    1.4753    2.6736   -4.3319 H   0  0  0  0  0  0  0  0  0  0  0  0
    2.0198    2.3783   -6.7201 H   0  0  0  0  0  0  0  0  0  0  0  0
    3.3574    0.4176   -7.4391 H   0  0  0  0  0  0  0  0  0  0  0  0
    4.4397   -0.9955   -5.7138 H   0  0  0  0  0  0  0  0  0  0  0  0
    3.4874   -1.0505   -3.4959 H   0  0  0  0  0  0  0  0  0  0  0  0
  1  2  1  0  0  0  0
  1 25  1  0  0  0  0
  1 26  1  0  0  0  0
  1 27  1  0  0  0  0
  2  3  1  0  0  0  0
  2 28  1  0  0  0  0
  2 29  1  0  0  0  0
  3  4  2  0  0  0  0
  3  5  1  0  0  0  0
  5  6  1  0  0  0  0
  5 19  1  0  0  0  0
  6  7  1  0  0  0  0
  6 18  1  0  0  0  0
  6 30  1  0  0  0  0
  7  8  1  0  0  0  0
  7 31  1  0  0  0  0
  7 32  1  0  0  0  0
  8  9  1  0  0  0  0
  8 33  1  0  0  0  0
  8 34  1  0  0  0  0
  9 10  1  0  0  0  0
  9 17  1  0  0  0  0
 10 11  1  0  0  0  0
 10 35  1  0  0  0  0
 10 36  1  0  0  0  0
 11 12  2  0  0  0  0
 11 16  1  0  0  0  0
 12 13  1  0  0  0  0
 12 37  1  0  0  0  0
 13 14  2  0  0  0  0
 13 38  1  0  0  0  0
 14 15  1  0  0  0  0
 14 39  1  0  0  0  0
 15 16  2  0  0  0  0
 15 40  1  0  0  0  0
 16 41  1  0  0  0  0
 17 18  1  0  0  0  0
 17 42  1  0  0  0  0
 17 43  1  0  0  0  0
 18 44  1  0  0  0  0
 18 45  1  0  0  0  0
 19 20  2  0  0  0  0
 19 24  1  0  0  0  0
 20 21  1  0  0  0  0
 20 46  1  0  0  0  0
 21 22  2  0  0  0  0
 21 47  1  0  0  0  0
 22 23  1  0  0  0  0
 22 48  1  0  0  0  0
 23 24  2  0  0  0  0
 23 49  1  0  0  0  0
 24 50  1  0  0  0  0
M  END
>  <DRUGBANK_ID>
DB09182

>  <COMMON_NAME>
Benzylfentanyl

>  <CAS_NUMBER>
1474-02-8

>  <UNII>
9BV2D1A57H

$$$$
