
 OpenBabel10282417133D

 42 44  0  0  0  0  0  0  0  0999 V2000
    0.9720   -0.0503   -0.0822 C   0  0  0  0  0  0  0  0  0  0  0  0
    0.4843   -1.0464    0.8078 O   0  0  0  0  0  0  0  0  0  0  0  0
    0.8496   -2.3206    0.4699 C   0  0  0  0  0  0  0  0  0  0  0  0
   -0.1658   -3.2645    0.5417 C   0  0  0  0  0  0  0  0  0  0  0  0
    0.1049   -4.6110    0.2394 C   0  0  0  0  0  0  0  0  0  0  0  0
    1.4073   -5.0109   -0.0883 C   0  0  0  0  0  0  0  0  0  0  0  0
    2.4492   -4.0638   -0.1283 C   0  0  0  0  0  0  0  0  0  0  0  0
    2.1445   -2.7173    0.1528 C   0  0  0  0  0  0  0  0  0  0  0  0
    1.3655   -6.3907   -0.3019 N   0  0  0  0  0  0  0  0  0  0  0  0
    0.0423   -6.7985   -0.2614 C   0  0  0  0  0  0  0  0  0  0  0  0
   -0.7286   -5.7525    0.1925 C   0  0  0  0  0  0  0  0  0  0  0  0
   -2.1792   -5.8236    0.5224 C   0  0  0  0  0  0  0  0  0  0  0  0
   -2.4363   -5.4465    1.9678 C   0  0  0  0  0  0  0  0  0  0  0  0
   -3.2877   -4.3999    2.1146 O   0  0  0  0  0  0  0  0  0  0  0  0
   -1.9633   -6.0270    2.9273 O   0  0  0  0  0  0  0  0  0  0  0  0
   -0.4581   -8.1552   -0.5643 C   0  0  0  0  0  0  0  0  0  0  0  0
    2.5133   -7.2561   -0.6401 C   0  0  0  0  0  0  0  0  0  0  0  0
    2.8321   -8.3272    0.3973 C   0  0  0  0  0  0  0  0  0  0  0  0
    1.9425   -9.3373    0.7964 C   0  0  0  0  0  0  0  0  0  0  0  0
    2.1560  -10.1711    1.8837 C   0  0  0  0  0  0  0  0  0  0  0  0
    3.4037  -10.1904    2.4565 C   0  0  0  0  0  0  0  0  0  0  0  0
    4.3961   -9.3547    1.9459 C   0  0  0  0  0  0  0  0  0  0  0  0
    4.0989   -8.3842    0.9768 C   0  0  0  0  0  0  0  0  0  0  0  0
    0.5876    0.9146    0.2622 H   0  0  0  0  0  0  0  0  0  0  0  0
    0.5999   -0.2192   -1.0987 H   0  0  0  0  0  0  0  0  0  0  0  0
    2.0630    0.0074   -0.0701 H   0  0  0  0  0  0  0  0  0  0  0  0
   -1.1680   -2.9532    0.8157 H   0  0  0  0  0  0  0  0  0  0  0  0
    3.4719   -4.3435   -0.3584 H   0  0  0  0  0  0  0  0  0  0  0  0
    2.9531   -1.9931    0.1524 H   0  0  0  0  0  0  0  0  0  0  0  0
   -2.7402   -5.1930   -0.1737 H   0  0  0  0  0  0  0  0  0  0  0  0
   -2.5685   -6.8403    0.3962 H   0  0  0  0  0  0  0  0  0  0  0  0
   -3.5877   -3.9942    1.2815 H   0  0  0  0  0  0  0  0  0  0  0  0
   -0.7078   -8.6500    0.3864 H   0  0  0  0  0  0  0  0  0  0  0  0
   -1.3673   -8.1387   -1.1616 H   0  0  0  0  0  0  0  0  0  0  0  0
    0.2578   -8.7207   -1.1604 H   0  0  0  0  0  0  0  0  0  0  0  0
    2.3142   -7.6947   -1.6248 H   0  0  0  0  0  0  0  0  0  0  0  0
    3.3812   -6.5972   -0.7700 H   0  0  0  0  0  0  0  0  0  0  0  0
    1.0367   -9.5795    0.2831 H   0  0  0  0  0  0  0  0  0  0  0  0
    1.3495  -10.8158    2.2253 H   0  0  0  0  0  0  0  0  0  0  0  0
    3.6013  -10.8827    3.2663 H   0  0  0  0  0  0  0  0  0  0  0  0
    5.4105   -9.4536    2.3152 H   0  0  0  0  0  0  0  0  0  0  0  0
    4.8762   -7.6890    0.6707 H   0  0  0  0  0  0  0  0  0  0  0  0
  1  2  1  0  0  0  0
  1 24  1  0  0  0  0
  1 25  1  0  0  0  0
  1 26  1  0  0  0  0
  3  2  1  0  0  0  0
  3  4  2  0  0  0  0
  3  8  1  0  0  0  0
  4  5  1  0  0  0  0
  4 27  1  0  0  0  0
  5  6  2  0  0  0  0
  6  7  1  0  0  0  0
  6  9  1  0  0  0  0
  7  8  2  0  0  0  0
  7 28  1  0  0  0  0
  8 29  1  0  0  0  0
 10  9  1  0  0  0  0
 10 11  2  0  0  0  0
 10 16  1  0  0  0  0
 11  5  1  0  0  0  0
 11 12  1  0  0  0  0
 12 13  1  0  0  0  0
 12 30  1  0  0  0  0
 12 31  1  0  0  0  0
 13 14  1  0  0  0  0
 13 15  2  0  0  0  0
 14 32  1  0  0  0  0
 16 33  1  0  0  0  0
 16 34  1  0  0  0  0
 16 35  1  0  0  0  0
 17  9  1  0  0  0  0
 17 18  1  0  0  0  0
 17 36  1  0  0  0  0
 17 37  1  0  0  0  0
 18 19  2  0  0  0  0
 18 23  1  0  0  0  0
 19 20  1  0  0  0  0
 19 38  1  0  0  0  0
 20 21  2  0  0  0  0
 20 39  1  0  0  0  0
 21 22  1  0  0  0  0
 21 40  1  0  0  0  0
 22 23  2  0  0  0  0
 22 41  1  0  0  0  0
 23 42  1  0  0  0  0
M  END
>  <DRUGBANK_ID>
DB03121

>  <SECONDARY_ACCESSION_NUMBERS>
EXPT01810

>  <COMMON_NAME>
(1-Benzyl-5-methoxy-2-methyl-1H-indol-3-yl)acetic acid

>  <CAS_NUMBER>
59283-35-1

>  <UNII>
5JSR5TT2JJ

$$$$
