
 OpenBabel10282417213D

 73 76  0  0  1  0  0  0  0  0999 V2000
    1.0343    0.9788    2.5254 C   0  0  0  0  0  0  0  0  0  0  0  0
    0.4814   -0.0232    1.4885 C   0  0  2  0  0  0  0  0  0  0  0  0
    1.1635    0.1991    0.1212 C   0  0  0  0  0  0  0  0  0  0  0  0
    0.4859    1.2483   -0.7611 C   0  0  0  0  0  0  0  0  0  0  0  0
    0.6189    2.6524   -0.2001 C   0  0  0  0  0  0  0  0  0  0  0  0
    2.0684    3.0433   -0.0911 C   0  0  0  0  0  0  0  0  0  0  0  0
    2.6189    3.0999   -1.5002 C   0  0  0  0  0  0  0  0  0  0  0  0
    2.1584    4.3298    0.7014 C   0  0  0  0  0  0  0  0  0  0  0  0
   -1.0756   -0.1029    1.4564 C   0  0  1  0  0  0  0  0  0  0  0  0
   -1.8951    1.1921    1.1300 C   0  0  0  0  0  0  0  0  0  0  0  0
   -2.9831    0.8154    0.1392 C   0  0  0  0  0  0  0  0  0  0  0  0
   -3.1327   -0.6605    0.3862 C   0  0  2  0  0  0  0  0  0  0  0  0
   -1.7072   -1.2174    0.5433 C   0  0  2  0  0  0  0  0  0  0  0  0
   -1.8417   -2.5866    1.2311 C   0  0  0  0  0  0  0  0  0  0  0  0
   -2.7160   -3.5207    0.3723 C   0  0  0  0  0  0  0  0  0  0  0  0
   -4.0762   -2.8835   -0.0481 C   0  0  1  0  0  0  0  0  0  0  0  0
   -3.9402   -1.4506   -0.6198 C   0  0  1  0  0  0  0  0  0  0  0  0
   -5.2896   -0.7698   -0.8398 C   0  0  0  0  0  0  0  0  0  0  0  0
   -6.3269   -1.6793   -1.3761 C   0  0  0  0  0  0  0  0  0  0  0  0
   -6.1912   -3.0285   -1.4581 C   0  0  0  0  0  0  0  0  0  0  0  0
   -4.9436   -3.7834   -0.9836 C   0  0  2  0  0  0  0  0  0  0  0  0
   -5.3657   -5.0247   -0.1487 C   0  0  0  0  0  0  0  0  0  0  0  0
   -6.4727   -5.8550   -0.7898 C   0  0  0  0  0  0  0  0  0  0  0  0
   -7.6895   -4.9739   -1.0561 C   0  0  1  0  0  0  0  0  0  0  0  0
   -7.3263   -3.8442   -2.0163 C   0  0  0  0  0  0  0  0  0  0  0  0
   -9.0174   -5.9512   -1.7340 Cl  0  0  0  0  0  0  0  0  0  0  0  0
   -4.1512   -4.2391   -2.2313 C   0  0  0  0  0  0  0  0  0  0  0  0
   -0.9986   -1.5210   -0.8055 C   0  0  0  0  0  0  0  0  0  0  0  0
    2.1069    1.1464    2.3646 H   0  0  0  0  0  0  0  0  0  0  0  0
    0.9260    0.6091    3.5478 H   0  0  0  0  0  0  0  0  0  0  0  0
    0.5411    1.9503    2.5047 H   0  0  0  0  0  0  0  0  0  0  0  0
    0.8347   -1.0026    1.8443 H   0  0  0  0  0  0  0  0  0  0  0  0
    2.2262    0.4128    0.2601 H   0  0  0  0  0  0  0  0  0  0  0  0
    1.2527   -0.7342   -0.4319 H   0  0  0  0  0  0  0  0  0  0  0  0
    0.8510    1.1658   -1.7875 H   0  0  0  0  0  0  0  0  0  0  0  0
   -0.5690    1.0634   -0.9081 H   0  0  0  0  0  0  0  0  0  0  0  0
    0.0287    3.3472   -0.8105 H   0  0  0  0  0  0  0  0  0  0  0  0
    0.2009    2.7589    0.7971 H   0  0  0  0  0  0  0  0  0  0  0  0
    2.6355    2.3065    0.4821 H   0  0  0  0  0  0  0  0  0  0  0  0
    2.0194    3.7847   -2.1074 H   0  0  0  0  0  0  0  0  0  0  0  0
    3.6638    3.3915   -1.4995 H   0  0  0  0  0  0  0  0  0  0  0  0
    2.5722    2.1158   -1.9822 H   0  0  0  0  0  0  0  0  0  0  0  0
    1.7689    4.1748    1.7183 H   0  0  0  0  0  0  0  0  0  0  0  0
    3.1994    4.6388    0.7877 H   0  0  0  0  0  0  0  0  0  0  0  0
    1.5646    5.1186    0.2350 H   0  0  0  0  0  0  0  0  0  0  0  0
   -1.3678   -0.3364    2.4938 H   0  0  0  0  0  0  0  0  0  0  0  0
   -1.3950    2.0022    0.6443 H   0  0  0  0  0  0  0  0  0  0  0  0
   -2.2830    1.6563    2.0426 H   0  0  0  0  0  0  0  0  0  0  0  0
   -2.6832    1.0161   -0.8969 H   0  0  0  0  0  0  0  0  0  0  0  0
   -3.8917    1.3962    0.3242 H   0  0  0  0  0  0  0  0  0  0  0  0
   -3.6461   -0.7332    1.3589 H   0  0  0  0  0  0  0  0  0  0  0  0
   -2.2913   -2.4841    2.2249 H   0  0  0  0  0  0  0  0  0  0  0  0
   -0.8521   -3.0380    1.3780 H   0  0  0  0  0  0  0  0  0  0  0  0
   -2.8753   -4.4471    0.9289 H   0  0  0  0  0  0  0  0  0  0  0  0
   -2.1447   -3.8212   -0.5109 H   0  0  0  0  0  0  0  0  0  0  0  0
   -4.6303   -2.7649    0.8966 H   0  0  0  0  0  0  0  0  0  0  0  0
   -3.4370   -1.4741   -1.5942 H   0  0  0  0  0  0  0  0  0  0  0  0
   -5.1561    0.0690   -1.5376 H   0  0  0  0  0  0  0  0  0  0  0  0
   -5.6640   -0.3418    0.0982 H   0  0  0  0  0  0  0  0  0  0  0  0
   -7.2405   -1.2027   -1.7082 H   0  0  0  0  0  0  0  0  0  0  0  0
   -5.7216   -4.6965    0.8384 H   0  0  0  0  0  0  0  0  0  0  0  0
   -4.5027   -5.6746    0.0375 H   0  0  0  0  0  0  0  0  0  0  0  0
   -6.7325   -6.6799   -0.1172 H   0  0  0  0  0  0  0  0  0  0  0  0
   -6.1083   -6.3054   -1.7207 H   0  0  0  0  0  0  0  0  0  0  0  0
   -8.0550   -4.5549   -0.1100 H   0  0  0  0  0  0  0  0  0  0  0  0
   -7.0240   -4.2438   -2.9923 H   0  0  0  0  0  0  0  0  0  0  0  0
   -8.2081   -3.2168   -2.1955 H   0  0  0  0  0  0  0  0  0  0  0  0
   -3.7976   -3.3878   -2.8232 H   0  0  0  0  0  0  0  0  0  0  0  0
   -3.2798   -4.8451   -1.9637 H   0  0  0  0  0  0  0  0  0  0  0  0
   -4.7567   -4.8612   -2.8976 H   0  0  0  0  0  0  0  0  0  0  0  0
   -0.8741   -0.6705   -1.4638 H   0  0  0  0  0  0  0  0  0  0  0  0
   -0.0483   -2.0270   -0.6181 H   0  0  0  0  0  0  0  0  0  0  0  0
   -1.5174   -2.2227   -1.4576 H   0  0  0  0  0  0  0  0  0  0  0  0
  1 29  1  0  0  0  0
  1 30  1  0  0  0  0
  1 31  1  0  0  0  0
  2 32  1  1  0  0  0
  2  3  1  0  0  0  0
  2  1  1  0  0  0  0
  3  4  1  0  0  0  0
  3 33  1  0  0  0  0
  3 34  1  0  0  0  0
  4  5  1  0  0  0  0
  4 35  1  0  0  0  0
  4 36  1  0  0  0  0
  5  6  1  0  0  0  0
  5 37  1  0  0  0  0
  5 38  1  0  0  0  0
  6  7  1  0  0  0  0
  6  8  1  0  0  0  0
  6 39  1  0  0  0  0
  7 40  1  0  0  0  0
  7 41  1  0  0  0  0
  7 42  1  0  0  0  0
  8 43  1  0  0  0  0
  8 44  1  0  0  0  0
  8 45  1  0  0  0  0
  9  2  1  0  0  0  0
  9 10  1  0  0  0  0
  9 13  1  0  0  0  0
  9 46  1  1  0  0  0
 10 11  1  0  0  0  0
 10 47  1  0  0  0  0
 10 48  1  0  0  0  0
 11 49  1  0  0  0  0
 11 50  1  0  0  0  0
 12 11  1  0  0  0  0
 12 13  1  0  0  0  0
 12 17  1  0  0  0  0
 12 51  1  1  0  0  0
 13 14  1  0  0  0  0
 13 28  1  6  0  0  0
 14 15  1  0  0  0  0
 14 52  1  0  0  0  0
 14 53  1  0  0  0  0
 15 54  1  0  0  0  0
 15 55  1  0  0  0  0
 16 15  1  0  0  0  0
 16 17  1  0  0  0  0
 16 21  1  0  0  0  0
 16 56  1  1  0  0  0
 17 18  1  0  0  0  0
 17 57  1  6  0  0  0
 18 19  1  0  0  0  0
 18 58  1  0  0  0  0
 18 59  1  0  0  0  0
 19 20  2  0  0  0  0
 19 60  1  0  0  0  0
 20 21  1  0  0  0  0
 20 25  1  0  0  0  0
 21 22  1  0  0  0  0
 21 27  1  6  0  0  0
 22 23  1  0  0  0  0
 22 61  1  0  0  0  0
 22 62  1  0  0  0  0
 23 24  1  0  0  0  0
 23 63  1  0  0  0  0
 23 64  1  0  0  0  0
 24 25  1  0  0  0  0
 24 26  1  0  0  0  0
 24 65  1  1  0  0  0
 25 66  1  0  0  0  0
 25 67  1  0  0  0  0
 27 68  1  0  0  0  0
 27 69  1  0  0  0  0
 27 70  1  0  0  0  0
 28 71  1  0  0  0  0
 28 72  1  0  0  0  0
 28 73  1  0  0  0  0
M  END
>  <DRUGBANK_ID>
DB14045

>  <SECONDARY_ACCESSION_NUMBERS>
DBSALT002201

>  <COMMON_NAME>
Cholesteryl chloride

>  <CAS_NUMBER>
910-31-6

>  <UNII>
39EHZ05V39

>  <SYNONYMS>
3-Chlorocholest-5-ene; 3-Chlorocholestene; Cholesterol chloride

$$$$
