
 OpenBabel10282417133D

 24 23  0  0  0  0  0  0  0  0999 V2000
    1.0822    0.0430   -0.0899 O   0  0  0  0  0  0  0  0  0  0  0  0
    0.6853    0.1043   -3.5768 C   0  0  0  0  0  0  0  0  0  0  0  0
   -0.8085    0.1839   -3.9433 C   0  0  0  0  0  0  0  0  0  0  0  0
   -1.2992    1.5722   -4.3713 C   0  0  0  0  0  0  0  0  0  0  0  0
   -0.4984    2.1400   -5.5428 C   0  0  0  0  0  0  0  0  0  0  0  0
   -0.7526    1.3353   -6.7281 N   0  0  0  0  0  0  0  0  0  0  0  0
    0.3289    0.5164   -1.1080 C   0  0  0  0  0  0  0  0  0  0  0  0
   -0.8827    0.6140   -1.0102 O   0  0  0  0  0  0  0  0  0  0  0  0
    1.1369    0.9322   -2.3578 C   0  0  2  0  0  0  0  0  0  0  0  0
    1.0716    2.3945   -2.5201 N   0  0  0  0  0  0  0  0  0  0  0  0
    2.0417    0.1255   -0.2322 H   0  0  0  0  0  0  0  0  0  0  0  0
    1.3010    0.3640   -4.4481 H   0  0  0  0  0  0  0  0  0  0  0  0
    0.9234   -0.9503   -3.3816 H   0  0  0  0  0  0  0  0  0  0  0  0
   -1.0058   -0.5328   -4.7490 H   0  0  0  0  0  0  0  0  0  0  0  0
   -1.4259   -0.1814   -3.1182 H   0  0  0  0  0  0  0  0  0  0  0  0
   -2.3611    1.5151   -4.6385 H   0  0  0  0  0  0  0  0  0  0  0  0
   -1.2914    2.2683   -3.5305 H   0  0  0  0  0  0  0  0  0  0  0  0
   -0.7735    3.1837   -5.7188 H   0  0  0  0  0  0  0  0  0  0  0  0
    0.5777    2.1401   -5.3451 H   0  0  0  0  0  0  0  0  0  0  0  0
   -0.1665    1.6489   -7.4964 H   0  0  0  0  0  0  0  0  0  0  0  0
   -0.4918    0.3664   -6.5483 H   0  0  0  0  0  0  0  0  0  0  0  0
    2.1971    0.7123   -2.1932 H   0  0  0  0  0  0  0  0  0  0  0  0
    1.3214    2.6628   -3.4698 H   0  0  0  0  0  0  0  0  0  0  0  0
    0.1047    2.6989   -2.3845 H   0  0  0  0  0  0  0  0  0  0  0  0
  1  7  1  0  0  0  0
  1 11  1  0  0  0  0
  2  9  1  0  0  0  0
  2 12  1  0  0  0  0
  2 13  1  0  0  0  0
  3  2  1  0  0  0  0
  3 14  1  0  0  0  0
  3 15  1  0  0  0  0
  4  3  1  0  0  0  0
  4 16  1  0  0  0  0
  4 17  1  0  0  0  0
  5  4  1  0  0  0  0
  5 18  1  0  0  0  0
  5 19  1  0  0  0  0
  6  5  1  0  0  0  0
  6 20  1  0  0  0  0
  6 21  1  0  0  0  0
  7  8  2  0  0  0  0
  9  7  1  0  0  0  0
  9 10  1  0  0  0  0
  9 22  1  1  0  0  0
 10 23  1  0  0  0  0
 10 24  1  0  0  0  0
M  END
>  <DRUGBANK_ID>
DB03252

>  <SECONDARY_ACCESSION_NUMBERS>
EXPT01219

>  <COMMON_NAME>
D-Lysine

>  <CAS_NUMBER>
923-27-3

>  <UNII>
3HQ6U6424Q

>  <SYNONYMS>
(R)-2,6-diaminohexanoic acid; D-2,6-Diaminohexanoic acid; D-Lysin

$$$$
