
 OpenBabel10282417233D

 52 55  0  0  0  0  0  0  0  0999 V2000
    1.5927   -0.3910    0.5869 C   0  0  0  0  0  0  0  0  0  0  0  0
    0.6713    0.7114    0.7643 N   0  0  0  0  0  0  0  0  0  0  0  0
    0.8344    1.2020    2.3877 C   0  0  0  0  0  0  0  0  0  0  0  0
    0.4463    0.9383    4.1280 C   0  0  0  0  0  0  0  0  0  0  0  0
    0.8382   -0.0584    4.9915 C   0  0  0  0  0  0  0  0  0  0  0  0
    0.5564   -0.5193    6.5042 C   0  0  0  0  0  0  0  0  0  0  0  0
   -0.2100   -1.8701    6.8520 C   0  0  0  0  0  0  0  0  0  0  0  0
    0.1596   -2.9831    6.0309 O   0  0  0  0  0  0  0  0  0  0  0  0
   -0.2590   -2.8993    4.7269 C   0  0  0  0  0  0  0  0  0  0  0  0
   -1.1457   -1.9119    4.2385 C   0  0  0  0  0  0  0  0  0  0  0  0
   -1.3554   -1.6741    2.8740 C   0  0  0  0  0  0  0  0  0  0  0  0
   -0.7231   -2.5851    2.0086 C   0  0  0  0  0  0  0  0  0  0  0  0
    0.1331   -3.6104    2.4826 C   0  0  0  0  0  0  0  0  0  0  0  0
    0.3547   -3.7788    3.8461 C   0  0  0  0  0  0  0  0  0  0  0  0
   -2.2265   -0.5193    2.4307 C   0  0  0  0  0  0  0  0  0  0  0  0
   -3.4716   -0.7582    1.9674 C   0  0  0  0  0  0  0  0  0  0  0  0
   -4.2838    0.3606    1.9393 C   0  0  0  0  0  0  0  0  0  0  0  0
   -3.8850    1.6655    2.0740 N   0  0  0  0  0  0  0  0  0  0  0  0
   -2.5964    1.8668    2.3169 C   0  0  0  0  0  0  0  0  0  0  0  0
   -2.0087    3.1988    2.2321 N   0  0  0  0  0  0  0  0  0  0  0  0
   -1.2235    3.7199    1.1408 C   0  0  0  0  0  0  0  0  0  0  0  0
   -0.4569    4.8994    1.0807 C   0  0  0  0  0  0  0  0  0  0  0  0
    0.5730    5.1197    0.1027 C   0  0  0  0  0  0  0  0  0  0  0  0
    0.9487    4.0721   -0.7409 C   0  0  0  0  0  0  0  0  0  0  0  0
    0.2742    2.8985   -0.5156 C   0  0  0  0  0  0  0  0  0  0  0  0
    0.8950    1.5404   -0.5473 C   0  0  0  0  0  0  0  0  0  0  0  0
   -0.9480    2.8109    0.1297 C   0  0  0  0  0  0  0  0  0  0  0  0
   -1.8306    0.7828    2.6302 N   0  0  0  0  0  0  0  0  0  0  0  0
    1.0400   -1.3206    0.4970 H   0  0  0  0  0  0  0  0  0  0  0  0
    2.2765   -0.3568    1.4246 H   0  0  0  0  0  0  0  0  0  0  0  0
    2.2083   -0.3130   -0.3150 H   0  0  0  0  0  0  0  0  0  0  0  0
    0.2390    2.1076    2.3372 H   0  0  0  0  0  0  0  0  0  0  0  0
    0.2871    0.2577    2.4372 H   0  0  0  0  0  0  0  0  0  0  0  0
   -0.3037    1.6466    4.5261 H   0  0  0  0  0  0  0  0  0  0  0  0
    1.4696   -0.7996    4.5204 H   0  0  0  0  0  0  0  0  0  0  0  0
    0.1337    0.2601    7.1558 H   0  0  0  0  0  0  0  0  0  0  0  0
    1.5642   -0.7041    6.9087 H   0  0  0  0  0  0  0  0  0  0  0  0
   -1.3045   -1.7749    6.8908 H   0  0  0  0  0  0  0  0  0  0  0  0
    0.0420   -2.1778    7.8834 H   0  0  0  0  0  0  0  0  0  0  0  0
   -1.5958   -1.1979    4.9207 H   0  0  0  0  0  0  0  0  0  0  0  0
   -0.8563   -2.4897    0.9351 H   0  0  0  0  0  0  0  0  0  0  0  0
    0.6549   -4.2600    1.7818 H   0  0  0  0  0  0  0  0  0  0  0  0
    1.0243   -4.5562    4.2140 H   0  0  0  0  0  0  0  0  0  0  0  0
   -3.8155   -1.7642    1.7707 H   0  0  0  0  0  0  0  0  0  0  0  0
   -5.3536    0.2117    1.8620 H   0  0  0  0  0  0  0  0  0  0  0  0
   -2.6444    3.9047    2.5922 H   0  0  0  0  0  0  0  0  0  0  0  0
   -0.5930    5.6971    1.8158 H   0  0  0  0  0  0  0  0  0  0  0  0
    1.1592    6.0322    0.0665 H   0  0  0  0  0  0  0  0  0  0  0  0
    1.7901    4.1559   -1.4331 H   0  0  0  0  0  0  0  0  0  0  0  0
    1.9451    1.6051   -0.8629 H   0  0  0  0  0  0  0  0  0  0  0  0
    0.3900    1.0586   -1.4202 H   0  0  0  0  0  0  0  0  0  0  0  0
   -1.4184    1.8457    0.1581 H   0  0  0  0  0  0  0  0  0  0  0  0
  1  2  1  0  0  0  0
  1 29  1  0  0  0  0
  1 30  1  0  0  0  0
  1 31  1  0  0  0  0
  2  3  1  0  0  0  0
  2 26  1  0  0  0  0
  3  4  1  0  0  0  0
  3 32  1  0  0  0  0
  3 33  1  0  0  0  0
  4  5  2  0  0  0  0
  4 34  1  0  0  0  0
  5  6  1  0  0  0  0
  5 35  1  0  0  0  0
  6  7  1  0  0  0  0
  6 36  1  0  0  0  0
  6 37  1  0  0  0  0
  7  8  1  0  0  0  0
  7 38  1  0  0  0  0
  7 39  1  0  0  0  0
  8  9  1  0  0  0  0
  9 10  2  0  0  0  0
  9 14  1  0  0  0  0
 10 11  1  0  0  0  0
 10 40  1  0  0  0  0
 11 12  2  0  0  0  0
 11 15  1  0  0  0  0
 12 13  1  0  0  0  0
 12 41  1  0  0  0  0
 13 14  2  0  0  0  0
 13 42  1  0  0  0  0
 14 43  1  0  0  0  0
 15 16  2  0  0  0  0
 15 28  1  0  0  0  0
 16 17  1  0  0  0  0
 16 44  1  0  0  0  0
 17 18  2  0  0  0  0
 17 45  1  0  0  0  0
 18 19  1  0  0  0  0
 19 20  1  0  0  0  0
 19 28  2  0  0  0  0
 20 21  1  0  0  0  0
 20 46  1  0  0  0  0
 21 22  2  0  0  0  0
 21 27  1  0  0  0  0
 22 23  1  0  0  0  0
 22 47  1  0  0  0  0
 23 24  2  0  0  0  0
 23 48  1  0  0  0  0
 24 25  1  0  0  0  0
 24 49  1  0  0  0  0
 25 26  1  0  0  0  0
 25 27  2  0  0  0  0
 26 50  1  0  0  0  0
 26 51  1  0  0  0  0
 27 52  1  0  0  0  0
M  END
>  <DRUGBANK_ID>
DB16656

>  <COMMON_NAME>
Zotiraciclib

>  <CAS_NUMBER>
1204918-72-8

>  <UNII>
40D08182TT

$$$$
