
 OpenBabel10282417223D

 28 29  0  0  0  0  0  0  0  0999 V2000
    0.0274    0.7537   -0.2260 C   0  0  1  0  0  0  0  0  0  0  0  0
   -1.7257    1.3225    0.0931 C   0  0  0  0  0  0  0  0  0  0  0  0
    0.1482   -0.6571    0.1874 N   0  0  0  0  0  0  0  0  0  0  0  0
   -2.6003    0.2922    0.3073 N   0  0  0  0  0  0  0  0  0  0  0  0
   -2.2394   -0.9023   -0.3272 C   0  0  0  0  0  0  0  0  0  0  0  0
   -0.9495   -1.5121    0.1962 C   0  0  0  0  0  0  0  0  0  0  0  0
    1.5717    1.1804   -0.0493 C   0  0  0  0  0  0  0  0  0  0  0  0
    2.4747   -0.0441   -0.0143 C   0  0  0  0  0  0  0  0  0  0  0  0
    1.5185   -1.2191    0.0480 C   0  0  0  0  0  0  0  0  0  0  0  0
   -2.3280    2.4402    0.1408 O   0  0  0  0  0  0  0  0  0  0  0  0
   -0.8781   -2.7002    0.4695 O   0  0  0  0  0  0  0  0  0  0  0  0
   -0.3440    2.1023    0.0286 C   0  0  0  0  0  0  0  0  0  0  0  0
   -0.9821    2.1580   -1.7532 C   0  0  0  0  0  0  0  0  0  0  0  0
   -2.2566    1.8275   -2.2833 C   0  0  0  0  0  0  0  0  0  0  0  0
   -3.2280    0.6084    0.9845 H   0  0  0  0  0  0  0  0  0  0  0  0
   -3.1099   -1.5054   -0.1388 H   0  0  0  0  0  0  0  0  0  0  0  0
   -2.0908   -0.7605   -1.4065 H   0  0  0  0  0  0  0  0  0  0  0  0
    1.8295    1.7681    0.8589 H   0  0  0  0  0  0  0  0  0  0  0  0
    1.8491    1.8083   -0.9109 H   0  0  0  0  0  0  0  0  0  0  0  0
    3.1492   -0.0296    0.8567 H   0  0  0  0  0  0  0  0  0  0  0  0
    3.1322   -0.0632   -0.8948 H   0  0  0  0  0  0  0  0  0  0  0  0
    1.7233   -1.8736    0.9029 H   0  0  0  0  0  0  0  0  0  0  0  0
    1.6541   -1.8379   -0.8614 H   0  0  0  0  0  0  0  0  0  0  0  0
   -0.8273    2.0945    1.2984 H   0  0  0  0  0  0  0  0  0  0  0  0
    0.2815    2.9253    0.4111 H   0  0  0  0  0  0  0  0  0  0  0  0
   -0.2561    2.4735   -2.5142 H   0  0  0  0  0  0  0  0  0  0  0  0
   -2.6782    2.0129   -3.2699 H   0  0  0  0  0  0  0  0  0  0  0  0
   -3.1413    1.4597   -1.7040 H   0  0  0  0  0  0  0  0  0  0  0  0
  1  2  1  0  0  0  0
  1  3  1  0  0  0  0
  1 12  1  1  0  0  0
  2  4  1  0  0  0  0
  2 10  2  0  0  0  0
  3  6  1  0  0  0  0
  4  5  1  0  0  0  0
  4 15  1  0  0  0  0
  5  6  1  0  0  0  0
  5 16  1  0  0  0  0
  5 17  1  0  0  0  0
  6 11  2  0  0  0  0
  7  8  1  0  0  0  0
  7  1  1  0  0  0  0
  7 18  1  0  0  0  0
  7 19  1  0  0  0  0
  8  9  1  0  0  0  0
  8 20  1  0  0  0  0
  8 21  1  0  0  0  0
  9  3  1  0  0  0  0
  9 22  1  0  0  0  0
  9 23  1  0  0  0  0
 12 13  1  0  0  0  0
 12 24  1  0  0  0  0
 12 25  1  0  0  0  0
 13 14  2  0  0  0  0
 13 26  1  0  0  0  0
 14 27  1  0  0  0  0
 14 28  1  0  0  0  0
M  END
>  <DRUGBANK_ID>
DB15601

>  <COMMON_NAME>
NNZ-2591

>  <CAS_NUMBER>
847952-38-9

>  <UNII>
2T1HU6069S

>  <SYNONYMS>
Cyclo(-L-glycyl-L-2-allylproline); Pyrrolo(1,2-a)pyrazine-1,4-dione, hexahydro-8a-(2-propenyl)-, (8aR)-

$$$$
