
 OpenBabel10282417153D

 52 54  0  0  0  0  0  0  0  0999 V2000
    0.9324   -0.0669   -0.0443 C   0  0  0  0  0  0  0  0  0  0  0  0
    0.4183    0.8199   -1.2027 C   0  0  0  0  0  0  0  0  0  0  0  0
    1.4836    1.8725   -1.5733 C   0  0  0  0  0  0  0  0  0  0  0  0
    1.6207    2.9080   -0.4747 C   0  0  0  0  0  0  0  0  0  0  0  0
    0.3408    3.7533   -0.3539 C   0  0  0  0  0  0  0  0  0  0  0  0
   -0.8934    2.8539   -0.3232 C   0  0  0  0  0  0  0  0  0  0  0  0
   -0.8796    1.4903   -0.7382 C   0  0  0  0  0  0  0  0  0  0  0  0
   -2.0710    0.7101   -0.6447 C   0  0  0  0  0  0  0  0  0  0  0  0
   -3.2260    1.2212   -0.0520 C   0  0  0  0  0  0  0  0  0  0  0  0
   -3.0780    2.4500    0.5470 C   0  0  0  0  0  0  0  0  0  0  0  0
   -2.0773    3.3392    0.2037 C   0  0  0  0  0  0  0  0  0  0  0  0
   -2.4393    5.0034    0.5467 Cl  0  0  0  0  0  0  0  0  0  0  0  0
   -3.8125    2.8149    1.6401 O   0  0  0  0  0  0  0  0  0  0  0  0
   -4.5193    0.4584   -0.0682 C   0  0  0  0  0  0  0  0  0  0  0  0
   -4.4816   -0.7367   -0.3739 O   0  0  0  0  0  0  0  0  0  0  0  0
   -5.7647    1.0188    0.2530 N   0  0  0  0  0  0  0  0  0  0  0  0
   -6.1011    2.3592    0.5600 C   0  0  0  0  0  0  0  0  0  0  0  0
   -5.6914    3.4204   -0.2550 C   0  0  0  0  0  0  0  0  0  0  0  0
   -5.6937    4.7379    0.2374 C   0  0  0  0  0  0  0  0  0  0  0  0
   -6.1326    5.0347    1.5302 C   0  0  0  0  0  0  0  0  0  0  0  0
   -6.6332    3.9771    2.2977 C   0  0  0  0  0  0  0  0  0  0  0  0
   -6.6455    2.6518    1.8180 C   0  0  0  0  0  0  0  0  0  0  0  0
   -7.0118    4.1750    3.5692 F   0  0  0  0  0  0  0  0  0  0  0  0
   -5.9952    6.3822    2.1525 C   0  0  0  0  0  0  0  0  0  0  0  0
   -6.4009    6.7153    3.2364 O   0  0  0  0  0  0  0  0  0  0  0  0
   -5.3332    7.2658    1.3762 O   0  0  0  0  0  0  0  0  0  0  0  0
   -5.0652    5.6561   -0.5118 F   0  0  0  0  0  0  0  0  0  0  0  0
    0.5386    4.5626    0.9587 C   0  0  0  0  0  0  0  0  0  0  0  0
    0.2031    4.6942   -1.5663 C   0  0  0  0  0  0  0  0  0  0  0  0
    0.1953   -0.0376   -2.4615 C   0  0  0  0  0  0  0  0  0  0  0  0
    0.5396   -1.0867   -0.1153 H   0  0  0  0  0  0  0  0  0  0  0  0
    0.6344    0.3223    0.9382 H   0  0  0  0  0  0  0  0  0  0  0  0
    2.0258   -0.1364   -0.0453 H   0  0  0  0  0  0  0  0  0  0  0  0
    1.2133    2.3620   -2.5159 H   0  0  0  0  0  0  0  0  0  0  0  0
    2.4545    1.3988   -1.7557 H   0  0  0  0  0  0  0  0  0  0  0  0
    1.8305    2.4038    0.4794 H   0  0  0  0  0  0  0  0  0  0  0  0
    2.4814    3.5579   -0.6692 H   0  0  0  0  0  0  0  0  0  0  0  0
   -2.0742   -0.3334   -0.9607 H   0  0  0  0  0  0  0  0  0  0  0  0
   -3.7693    3.7917    1.6330 H   0  0  0  0  0  0  0  0  0  0  0  0
   -6.4282    0.2987    0.5194 H   0  0  0  0  0  0  0  0  0  0  0  0
   -5.1852    3.2267   -1.1983 H   0  0  0  0  0  0  0  0  0  0  0  0
   -6.8997    1.8616    2.5211 H   0  0  0  0  0  0  0  0  0  0  0  0
   -5.3561    8.1135    1.8701 H   0  0  0  0  0  0  0  0  0  0  0  0
    1.4761    5.1222    0.9456 H   0  0  0  0  0  0  0  0  0  0  0  0
   -0.2033    5.3330    1.1464 H   0  0  0  0  0  0  0  0  0  0  0  0
    0.5240    3.8995    1.8335 H   0  0  0  0  0  0  0  0  0  0  0  0
    0.1106    4.1373   -2.5054 H   0  0  0  0  0  0  0  0  0  0  0  0
   -0.6923    5.3198   -1.5144 H   0  0  0  0  0  0  0  0  0  0  0  0
    1.0666    5.3586   -1.6464 H   0  0  0  0  0  0  0  0  0  0  0  0
    1.1333   -0.4962   -2.7905 H   0  0  0  0  0  0  0  0  0  0  0  0
   -0.5161   -0.8521   -2.2972 H   0  0  0  0  0  0  0  0  0  0  0  0
   -0.1952    0.5753   -3.2827 H   0  0  0  0  0  0  0  0  0  0  0  0
  1  2  1  0  0  0  0
  1 31  1  0  0  0  0
  1 32  1  0  0  0  0
  1 33  1  0  0  0  0
  2  3  1  0  0  0  0
  2  7  1  0  0  0  0
  2 30  1  0  0  0  0
  3  4  1  0  0  0  0
  3 34  1  0  0  0  0
  3 35  1  0  0  0  0
  4  5  1  0  0  0  0
  4 36  1  0  0  0  0
  4 37  1  0  0  0  0
  5  6  1  0  0  0  0
  5 28  1  0  0  0  0
  5 29  1  0  0  0  0
  6  7  2  0  0  0  0
  6 11  1  0  0  0  0
  7  8  1  0  0  0  0
  8  9  2  0  0  0  0
  8 38  1  0  0  0  0
  9 10  1  0  0  0  0
  9 14  1  0  0  0  0
 10 11  2  0  0  0  0
 10 13  1  0  0  0  0
 11 12  1  0  0  0  0
 13 39  1  0  0  0  0
 14 15  2  0  0  0  0
 14 16  1  0  0  0  0
 16 17  1  0  0  0  0
 16 40  1  0  0  0  0
 17 18  2  0  0  0  0
 17 22  1  0  0  0  0
 18 19  1  0  0  0  0
 18 41  1  0  0  0  0
 19 20  2  0  0  0  0
 19 27  1  0  0  0  0
 20 21  1  0  0  0  0
 20 24  1  0  0  0  0
 21 22  2  0  0  0  0
 21 23  1  0  0  0  0
 22 42  1  0  0  0  0
 24 25  2  0  0  0  0
 24 26  1  0  0  0  0
 26 43  1  0  0  0  0
 28 44  1  0  0  0  0
 28 45  1  0  0  0  0
 28 46  1  0  0  0  0
 29 47  1  0  0  0  0
 29 48  1  0  0  0  0
 29 49  1  0  0  0  0
 30 50  1  0  0  0  0
 30 51  1  0  0  0  0
 30 52  1  0  0  0  0
M  END
>  <DRUGBANK_ID>
DB05653

>  <COMMON_NAME>
IRX-5183

>  <CAS_NUMBER>
367273-07-2

>  <UNII>
RC87L028HU

$$$$
