
 OpenBabel10282417143D

 58 61  0  0  0  0  0  0  0  0999 V2000
   -2.4086   -1.1989    0.0256 O   0  0  0  0  0  0  0  0  0  0  0  0
   -1.1510   -3.8426   -0.1552 O   0  0  0  0  0  0  0  0  0  0  0  0
    5.8396   -4.7905    0.0966 N   0  0  0  0  0  0  0  0  0  0  0  0
    1.0569   -4.1063   -0.0765 N   0  0  0  0  0  0  0  0  0  0  0  0
   -0.6754    0.4177    0.0183 N   0  0  0  0  0  0  0  0  0  0  0  0
    3.2816   -3.8986    1.2412 C   0  0  0  0  0  0  0  0  0  0  0  0
    4.5874   -3.0496    1.3834 C   0  0  0  0  0  0  0  0  0  0  0  0
    3.6797   -5.3508    1.1912 C   0  0  0  0  0  0  0  0  0  0  0  0
    5.5528   -3.3678    0.2642 C   0  0  0  0  0  0  0  0  0  0  0  0
    4.6180   -5.5985    0.0112 C   0  0  0  0  0  0  0  0  0  0  0  0
    2.4085   -3.6628   -0.0034 C   0  0  0  0  0  0  0  0  0  0  0  0
    6.7091   -5.0654   -1.0624 C   0  0  0  0  0  0  0  0  0  0  0  0
    6.1476   -4.7171   -2.4652 C   0  0  0  0  0  0  0  0  0  0  0  0
    0.0452   -1.7257   -0.0891 C   0  0  0  0  0  0  0  0  0  0  0  0
   -0.0495   -3.2499   -0.1153 C   0  0  0  0  0  0  0  0  0  0  0  0
   -1.0932   -0.8976    0.0015 C   0  0  0  0  0  0  0  0  0  0  0  0
   -1.5833    1.5519    0.0354 C   0  0  0  0  0  0  0  0  0  0  0  0
    5.9003   -3.2344   -2.7729 C   0  0  0  0  0  0  0  0  0  0  0  0
    1.1932   -0.7552   -0.1206 C   0  0  0  0  0  0  0  0  0  0  0  0
    0.6882    0.5335    0.0180 C   0  0  0  0  0  0  0  0  0  0  0  0
   -2.9770    1.1374   -0.3872 C   0  0  0  0  0  0  0  0  0  0  0  0
   -3.3099   -0.1320    0.3797 C   0  0  0  0  0  0  0  0  0  0  0  0
    2.6234   -0.7682   -0.2519 C   0  0  0  0  0  0  0  0  0  0  0  0
    1.5337    1.6705    0.0781 C   0  0  0  0  0  0  0  0  0  0  0  0
    7.1213   -2.3817   -2.4620 C   0  0  0  0  0  0  0  0  0  0  0  0
    3.4818    0.2939   -0.0614 C   0  0  0  0  0  0  0  0  0  0  0  0
    2.9277    1.5274    0.0730 C   0  0  0  0  0  0  0  0  0  0  0  0
    0.8606   -5.0942   -0.1817 H   0  0  0  0  0  0  0  0  0  0  0  0
    2.6715   -3.6559    2.1175 H   0  0  0  0  0  0  0  0  0  0  0  0
    4.3982   -1.9696    1.3668 H   0  0  0  0  0  0  0  0  0  0  0  0
    5.0834   -3.2315    2.3429 H   0  0  0  0  0  0  0  0  0  0  0  0
    4.1562   -5.6249    2.1336 H   0  0  0  0  0  0  0  0  0  0  0  0
    2.7778   -5.9554    1.0679 H   0  0  0  0  0  0  0  0  0  0  0  0
    5.0093   -2.9927   -0.5789 H   0  0  0  0  0  0  0  0  0  0  0  0
    6.4666   -2.7683    0.3502 H   0  0  0  0  0  0  0  0  0  0  0  0
    4.8622   -6.6624   -0.0219 H   0  0  0  0  0  0  0  0  0  0  0  0
    4.0874   -5.3823   -0.9220 H   0  0  0  0  0  0  0  0  0  0  0  0
    2.8809   -3.7088   -0.9945 H   0  0  0  0  0  0  0  0  0  0  0  0
    2.1455   -2.6900    0.2136 H   0  0  0  0  0  0  0  0  0  0  0  0
    7.6845   -4.5881   -0.9085 H   0  0  0  0  0  0  0  0  0  0  0  0
    6.9501   -6.1383   -1.0510 H   0  0  0  0  0  0  0  0  0  0  0  0
    6.8600   -5.0894   -3.2098 H   0  0  0  0  0  0  0  0  0  0  0  0
    5.2254   -5.2797   -2.6499 H   0  0  0  0  0  0  0  0  0  0  0  0
   -1.1907    2.3214   -0.6362 H   0  0  0  0  0  0  0  0  0  0  0  0
   -1.5823    1.9374    1.0616 H   0  0  0  0  0  0  0  0  0  0  0  0
    5.6176   -3.1165   -3.8219 H   0  0  0  0  0  0  0  0  0  0  0  0
    5.0078   -2.8432   -2.2845 H   0  0  0  0  0  0  0  0  0  0  0  0
   -2.9892    0.9336   -1.4654 H   0  0  0  0  0  0  0  0  0  0  0  0
   -3.6934    1.9415   -0.1870 H   0  0  0  0  0  0  0  0  0  0  0  0
   -4.3377   -0.4407    0.1562 H   0  0  0  0  0  0  0  0  0  0  0  0
   -3.2516    0.0368    1.4631 H   0  0  0  0  0  0  0  0  0  0  0  0
    3.2219   -1.6267   -0.5091 H   0  0  0  0  0  0  0  0  0  0  0  0
    1.1202    2.6689    0.1286 H   0  0  0  0  0  0  0  0  0  0  0  0
    7.8940   -2.5810   -3.2065 H   0  0  0  0  0  0  0  0  0  0  0  0
    6.8665   -1.3197   -2.4689 H   0  0  0  0  0  0  0  0  0  0  0  0
    7.5679   -2.5823   -1.4846 H   0  0  0  0  0  0  0  0  0  0  0  0
    4.5528    0.1051   -0.0730 H   0  0  0  0  0  0  0  0  0  0  0  0
    3.5963    2.3771    0.1282 H   0  0  0  0  0  0  0  0  0  0  0  0
  1 16  1  0  0  0  0
  1 22  1  0  0  0  0
  2 15  2  0  0  0  0
  3  9  1  0  0  0  0
  3 10  1  0  0  0  0
  3 12  1  0  0  0  0
  4 11  1  0  0  0  0
  4 15  1  0  0  0  0
  4 28  1  0  0  0  0
  5 16  1  0  0  0  0
  5 17  1  0  0  0  0
  5 20  1  0  0  0  0
  6  7  1  0  0  0  0
  6  8  1  0  0  0  0
  6 11  1  0  0  0  0
  6 29  1  0  0  0  0
  7  9  1  0  0  0  0
  7 30  1  0  0  0  0
  7 31  1  0  0  0  0
  8 10  1  0  0  0  0
  8 32  1  0  0  0  0
  8 33  1  0  0  0  0
  9 34  1  0  0  0  0
  9 35  1  0  0  0  0
 10 36  1  0  0  0  0
 10 37  1  0  0  0  0
 11 38  1  0  0  0  0
 11 39  1  0  0  0  0
 12 13  1  0  0  0  0
 12 40  1  0  0  0  0
 12 41  1  0  0  0  0
 13 18  1  0  0  0  0
 13 42  1  0  0  0  0
 13 43  1  0  0  0  0
 14 15  1  0  0  0  0
 14 16  2  0  0  0  0
 14 19  1  0  0  0  0
 17 21  1  0  0  0  0
 17 44  1  0  0  0  0
 17 45  1  0  0  0  0
 18 25  1  0  0  0  0
 18 46  1  0  0  0  0
 18 47  1  0  0  0  0
 19 20  1  0  0  0  0
 19 23  2  0  0  0  0
 20 24  2  0  0  0  0
 21 22  1  0  0  0  0
 21 48  1  0  0  0  0
 21 49  1  0  0  0  0
 22 50  1  0  0  0  0
 22 51  1  0  0  0  0
 23 26  1  0  0  0  0
 23 52  1  0  0  0  0
 24 27  1  0  0  0  0
 24 53  1  0  0  0  0
 25 54  1  0  0  0  0
 25 55  1  0  0  0  0
 25 56  1  0  0  0  0
 26 27  2  0  0  0  0
 26 57  1  0  0  0  0
 27 58  1  0  0  0  0
M  END
>  <DRUGBANK_ID>
DB04873

>  <COMMON_NAME>
Piboserod

>  <CAS_NUMBER>
152811-62-6

>  <UNII>
4UQ3S81B25

>  <SYNONYMS>
Piboserod

$$$$
