
 OpenBabel10282417133D

 31 33  0  0  0  0  0  0  0  0999 V2000
   -1.7691   -1.9483   -0.0393 C   0  0  0  0  0  0  0  0  0  0  0  0
   -0.6769   -0.9161    0.0173 C   0  0  0  0  0  0  0  0  0  0  0  0
    0.6301   -1.2265   -0.0154 C   0  0  0  0  0  0  0  0  0  0  0  0
    1.3461   -2.4004   -0.2459 N   0  0  0  0  0  0  0  0  0  0  0  0
    1.6544   -3.5001    0.6391 C   0  0  0  0  0  0  0  0  0  0  0  0
    1.0350   -3.7094   -0.7402 C   0  0  0  0  0  0  0  0  0  0  0  0
    1.5802   -0.0229    0.0331 C   0  0  0  0  0  0  0  0  0  0  0  0
    2.7870   -0.2204    0.0926 O   0  0  0  0  0  0  0  0  0  0  0  0
    1.0660    1.4047   -0.0605 C   0  0  0  0  0  0  0  0  0  0  0  0
    2.1554    2.4380   -0.1726 C   0  0  0  0  0  0  0  0  0  0  0  0
    2.0502    3.1925   -1.3760 O   0  0  0  0  0  0  0  0  0  0  0  0
   -0.2430    1.7078   -0.0431 C   0  0  0  0  0  0  0  0  0  0  0  0
   -0.9777    2.8673   -0.2698 N   0  0  0  0  0  0  0  0  0  0  0  0
   -0.6954    4.1744   -0.7818 C   0  0  0  0  0  0  0  0  0  0  0  0
   -1.2766    3.9683    0.6137 C   0  0  0  0  0  0  0  0  0  0  0  0
   -1.1869    0.5127    0.0670 C   0  0  0  0  0  0  0  0  0  0  0  0
   -2.3940    0.7150    0.1394 O   0  0  0  0  0  0  0  0  0  0  0  0
   -1.6912   -2.5522   -0.9470 H   0  0  0  0  0  0  0  0  0  0  0  0
   -1.7108   -2.5962    0.8398 H   0  0  0  0  0  0  0  0  0  0  0  0
   -2.7783   -1.5208   -0.0428 H   0  0  0  0  0  0  0  0  0  0  0  0
    2.7224   -3.6620    0.7509 H   0  0  0  0  0  0  0  0  0  0  0  0
    1.0358   -3.8494    1.4571 H   0  0  0  0  0  0  0  0  0  0  0  0
    0.0714   -4.1994   -0.7228 H   0  0  0  0  0  0  0  0  0  0  0  0
    1.6855   -3.9769   -1.5669 H   0  0  0  0  0  0  0  0  0  0  0  0
    2.0813    3.1301    0.6727 H   0  0  0  0  0  0  0  0  0  0  0  0
    3.1701    2.0298   -0.1474 H   0  0  0  0  0  0  0  0  0  0  0  0
    2.0633    2.5670   -2.1191 H   0  0  0  0  0  0  0  0  0  0  0  0
    0.2629    4.6738   -0.7905 H   0  0  0  0  0  0  0  0  0  0  0  0
   -1.3582    4.4130   -1.6056 H   0  0  0  0  0  0  0  0  0  0  0  0
   -2.3426    4.1140    0.7518 H   0  0  0  0  0  0  0  0  0  0  0  0
   -0.6369    4.3214    1.4128 H   0  0  0  0  0  0  0  0  0  0  0  0
  1  2  1  0  0  0  0
  1 18  1  0  0  0  0
  1 19  1  0  0  0  0
  1 20  1  0  0  0  0
  2  3  2  0  0  0  0
  2 16  1  0  0  0  0
  3  4  1  0  0  0  0
  3  7  1  0  0  0  0
  4  5  1  0  0  0  0
  4  6  1  0  0  0  0
  5  6  1  0  0  0  0
  5 21  1  0  0  0  0
  5 22  1  0  0  0  0
  6 23  1  0  0  0  0
  6 24  1  0  0  0  0
  7  8  2  0  0  0  0
  7  9  1  0  0  0  0
  9 10  1  0  0  0  0
  9 12  2  0  0  0  0
 10 11  1  0  0  0  0
 10 25  1  0  0  0  0
 10 26  1  0  0  0  0
 11 27  1  0  0  0  0
 12 13  1  0  0  0  0
 12 16  1  0  0  0  0
 13 14  1  0  0  0  0
 13 15  1  0  0  0  0
 14 15  1  0  0  0  0
 14 28  1  0  0  0  0
 14 29  1  0  0  0  0
 15 30  1  0  0  0  0
 15 31  1  0  0  0  0
 16 17  2  0  0  0  0
M  END
>  <DRUGBANK_ID>
DB04090

>  <SECONDARY_ACCESSION_NUMBERS>
EXPT02778; DB06312; DB12103

>  <COMMON_NAME>
RH-1

>  <CAS_NUMBER>
221635-42-3

>  <UNII>
IJ5CEP760Y

>  <SYNONYMS>
2,5-Cyclohexadiene-1,4-dione, 2,5-bis(1-aziridinyl)-3-(hydroxymethyl)-6-methyl-

$$$$
