
 OpenBabel10282417193D

 59 62  0  0  0  0  0  0  0  0999 V2000
    2.4950    0.0049   -0.0123 C   0  0  0  0  0  0  0  0  0  0  0  0
    0.9972    0.0224    0.0009 C   0  0  0  0  0  0  0  0  0  0  0  0
    0.2906    1.2297    0.0015 C   0  0  0  0  0  0  0  0  0  0  0  0
   -1.1030    1.2365   -0.0043 C   0  0  0  0  0  0  0  0  0  0  0  0
   -1.8014    0.0338   -0.0146 C   0  0  0  0  0  0  0  0  0  0  0  0
   -1.1156   -1.1883   -0.0084 C   0  0  0  0  0  0  0  0  0  0  0  0
    0.2867   -1.1823    0.0021 C   0  0  0  0  0  0  0  0  0  0  0  0
   -1.8604   -2.4440    0.0007 C   0  0  0  0  0  0  0  0  0  0  0  0
   -2.7511   -2.7454   -1.0324 C   0  0  0  0  0  0  0  0  0  0  0  0
   -3.5105   -3.9130   -1.0165 C   0  0  0  0  0  0  0  0  0  0  0  0
   -3.3327   -4.8051    0.0561 C   0  0  0  0  0  0  0  0  0  0  0  0
   -2.4255   -4.5566    1.0885 C   0  0  0  0  0  0  0  0  0  0  0  0
   -1.6981   -3.3513    1.0602 C   0  0  0  0  0  0  0  0  0  0  0  0
   -2.4518   -5.6731    1.9860 C   0  0  0  0  0  0  0  0  0  0  0  0
   -3.3340   -6.5847    1.4378 C   0  0  0  0  0  0  0  0  0  0  0  0
   -3.8550   -6.0649    0.2817 N   0  0  0  0  0  0  0  0  0  0  0  0
   -4.7632   -6.7995   -0.6027 C   0  0  0  0  0  0  0  0  0  0  0  0
   -4.1748   -7.1266   -1.9531 C   0  0  0  0  0  0  0  0  0  0  0  0
   -2.8850   -6.7303   -2.3146 C   0  0  0  0  0  0  0  0  0  0  0  0
   -2.3860   -6.9490   -3.5795 C   0  0  0  0  0  0  0  0  0  0  0  0
   -3.1230   -7.6579   -4.5231 C   0  0  0  0  0  0  0  0  0  0  0  0
   -4.4090   -8.0990   -4.1608 C   0  0  0  0  0  0  0  0  0  0  0  0
   -4.9355   -7.8273   -2.8949 C   0  0  0  0  0  0  0  0  0  0  0  0
   -2.5254   -7.9671   -5.8915 C   0  0  0  0  0  0  0  0  0  0  0  0
   -2.4320   -9.4928   -6.0605 C   0  0  0  0  0  0  0  0  0  0  0  0
   -3.4194   -7.3657   -6.9860 C   0  0  0  0  0  0  0  0  0  0  0  0
   -1.1037   -7.3810   -6.0539 C   0  0  0  0  0  0  0  0  0  0  0  0
   -1.6851   -5.8287    3.2249 C   0  0  0  0  0  0  0  0  0  0  0  0
   -0.9079   -4.9603    3.6167 O   0  0  0  0  0  0  0  0  0  0  0  0
   -1.8447   -7.1019    4.0953 C   0  0  0  0  0  0  0  0  0  0  0  0
   -2.5612   -8.0564    3.8396 O   0  0  0  0  0  0  0  0  0  0  0  0
   -1.1078   -7.0847    5.2127 O   0  0  0  0  0  0  0  0  0  0  0  0
    2.8773   -0.5235    0.8667 H   0  0  0  0  0  0  0  0  0  0  0  0
    2.8558   -0.4915   -0.9189 H   0  0  0  0  0  0  0  0  0  0  0  0
    2.9017    1.0208    0.0005 H   0  0  0  0  0  0  0  0  0  0  0  0
    0.8231    2.1766    0.0056 H   0  0  0  0  0  0  0  0  0  0  0  0
   -1.6471    2.1761    0.0011 H   0  0  0  0  0  0  0  0  0  0  0  0
   -2.8895    0.0459   -0.0131 H   0  0  0  0  0  0  0  0  0  0  0  0
    0.8271   -2.1284    0.0032 H   0  0  0  0  0  0  0  0  0  0  0  0
   -2.8505   -2.0659   -1.8776 H   0  0  0  0  0  0  0  0  0  0  0  0
   -4.1576   -4.1463   -1.8576 H   0  0  0  0  0  0  0  0  0  0  0  0
   -1.0034   -3.1228    1.8662 H   0  0  0  0  0  0  0  0  0  0  0  0
   -3.6307   -7.5730    1.7641 H   0  0  0  0  0  0  0  0  0  0  0  0
   -5.6622   -6.1829   -0.7059 H   0  0  0  0  0  0  0  0  0  0  0  0
   -5.0275   -7.7359   -0.0977 H   0  0  0  0  0  0  0  0  0  0  0  0
   -2.2178   -6.2052   -1.6396 H   0  0  0  0  0  0  0  0  0  0  0  0
   -1.3976   -6.5465   -3.7752 H   0  0  0  0  0  0  0  0  0  0  0  0
   -5.0167   -8.6632   -4.8653 H   0  0  0  0  0  0  0  0  0  0  0  0
   -5.9380   -8.1764   -2.6559 H   0  0  0  0  0  0  0  0  0  0  0  0
   -3.4149   -9.9733   -6.0031 H   0  0  0  0  0  0  0  0  0  0  0  0
   -1.9966   -9.7526   -7.0304 H   0  0  0  0  0  0  0  0  0  0  0  0
   -1.8060   -9.9379   -5.2771 H   0  0  0  0  0  0  0  0  0  0  0  0
   -3.5050   -6.2785   -6.8695 H   0  0  0  0  0  0  0  0  0  0  0  0
   -3.0092   -7.5699   -7.9800 H   0  0  0  0  0  0  0  0  0  0  0  0
   -4.4341   -7.7777   -6.9593 H   0  0  0  0  0  0  0  0  0  0  0  0
   -1.1113   -6.2880   -5.9474 H   0  0  0  0  0  0  0  0  0  0  0  0
   -0.4182   -7.7872   -5.2977 H   0  0  0  0  0  0  0  0  0  0  0  0
   -0.6768   -7.6100   -7.0331 H   0  0  0  0  0  0  0  0  0  0  0  0
   -1.3099   -7.9331    5.6557 H   0  0  0  0  0  0  0  0  0  0  0  0
  1  2  1  0  0  0  0
  1 33  1  0  0  0  0
  1 34  1  0  0  0  0
  1 35  1  0  0  0  0
  2  3  2  0  0  0  0
  2  7  1  0  0  0  0
  3  4  1  0  0  0  0
  3 36  1  0  0  0  0
  4  5  2  0  0  0  0
  4 37  1  0  0  0  0
  5  6  1  0  0  0  0
  5 38  1  0  0  0  0
  6  7  2  0  0  0  0
  6  8  1  0  0  0  0
  7 39  1  0  0  0  0
  8  9  2  0  0  0  0
  8 13  1  0  0  0  0
  9 10  1  0  0  0  0
  9 40  1  0  0  0  0
 10 11  2  0  0  0  0
 10 41  1  0  0  0  0
 11 12  1  0  0  0  0
 11 16  1  0  0  0  0
 12 13  2  0  0  0  0
 12 14  1  0  0  0  0
 13 42  1  0  0  0  0
 14 15  2  0  0  0  0
 14 28  1  0  0  0  0
 15 16  1  0  0  0  0
 15 43  1  0  0  0  0
 16 17  1  0  0  0  0
 17 18  1  0  0  0  0
 17 44  1  0  0  0  0
 17 45  1  0  0  0  0
 18 19  2  0  0  0  0
 18 23  1  0  0  0  0
 19 20  1  0  0  0  0
 19 46  1  0  0  0  0
 20 21  2  0  0  0  0
 20 47  1  0  0  0  0
 21 22  1  0  0  0  0
 21 24  1  0  0  0  0
 22 23  2  0  0  0  0
 22 48  1  0  0  0  0
 23 49  1  0  0  0  0
 24 25  1  0  0  0  0
 24 26  1  0  0  0  0
 24 27  1  0  0  0  0
 25 50  1  0  0  0  0
 25 51  1  0  0  0  0
 25 52  1  0  0  0  0
 26 53  1  0  0  0  0
 26 54  1  0  0  0  0
 26 55  1  0  0  0  0
 27 56  1  0  0  0  0
 27 57  1  0  0  0  0
 27 58  1  0  0  0  0
 28 29  2  0  0  0  0
 28 30  1  0  0  0  0
 30 31  2  0  0  0  0
 30 32  1  0  0  0  0
 32 59  1  0  0  0  0
M  END
>  <DRUGBANK_ID>
DB12635

>  <COMMON_NAME>
Aleplasinin

>  <CAS_NUMBER>
481629-87-2

>  <UNII>
LL56J87F3X

>  <SYNONYMS>
Aleplasinin

$$$$
