S57
 OpenBabel10282417173D

 42 43  0  0  0  0  0  0  0  0999 V2000
    0.9908    0.0722    0.0335 C   0  0  0  0  0  0  0  0  0  0  0  0
    0.3597    0.9602    0.9606 O   0  0  0  0  0  0  0  0  0  0  0  0
    0.7191    0.8278    2.2732 C   0  0  0  0  0  0  0  0  0  0  0  0
    2.0206    0.9254    2.7088 C   0  0  0  0  0  0  0  0  0  0  0  0
    2.2363    1.1426    4.0828 C   0  0  0  0  0  0  0  0  0  0  0  0
    3.2171    2.5291    4.5218 Cl  0  0  0  0  0  0  0  0  0  0  0  0
    1.3441    0.7051    5.0411 C   0  0  0  0  0  0  0  0  0  0  0  0
    0.0235    0.7351    4.6207 C   0  0  0  0  0  0  0  0  0  0  0  0
   -0.2824    0.8872    3.2456 C   0  0  0  0  0  0  0  0  0  0  0  0
    1.6529    0.3555    6.3281 O   0  0  0  0  0  0  0  0  0  0  0  0
    3.0110   -0.0090    6.6966 C   0  0  0  0  0  0  0  0  0  0  0  0
    3.5822   -1.3117    6.1026 C   0  0  0  0  0  0  0  0  0  0  0  0
    3.7206   -1.3681    4.5886 C   0  0  0  0  0  0  0  0  0  0  0  0
    4.7056   -0.3678    3.9772 C   0  0  0  0  0  0  0  0  0  0  0  0
    6.1469   -0.5673    4.3964 C   0  0  0  0  0  0  0  0  0  0  0  0
    6.6534   -1.8075    3.6963 C   0  0  0  0  0  0  0  0  0  0  0  0
    6.5505   -1.6811    2.2487 N   0  0  0  0  0  0  0  0  0  0  0  0
    6.2018   -2.6880    1.3929 C   0  0  0  0  0  0  0  0  0  0  0  0
    6.0097   -2.2521    0.1747 N   0  0  0  0  0  0  0  0  0  0  0  0
    6.1981   -0.8953    0.2427 C   0  0  0  0  0  0  0  0  0  0  0  0
    6.5227   -0.5202    1.5095 C   0  0  0  0  0  0  0  0  0  0  0  0
    0.6426    0.3431   -0.9718 H   0  0  0  0  0  0  0  0  0  0  0  0
    0.6744   -0.9583    0.2215 H   0  0  0  0  0  0  0  0  0  0  0  0
    2.0834    0.1456    0.0218 H   0  0  0  0  0  0  0  0  0  0  0  0
    2.8458    0.9774    2.0074 H   0  0  0  0  0  0  0  0  0  0  0  0
   -0.7758    0.7334    5.3556 H   0  0  0  0  0  0  0  0  0  0  0  0
   -1.3060    1.0715    2.9338 H   0  0  0  0  0  0  0  0  0  0  0  0
    3.7095    0.8270    6.5913 H   0  0  0  0  0  0  0  0  0  0  0  0
    2.9787   -0.1835    7.7842 H   0  0  0  0  0  0  0  0  0  0  0  0
    4.5633   -1.5203    6.5516 H   0  0  0  0  0  0  0  0  0  0  0  0
    2.9409   -2.1474    6.4018 H   0  0  0  0  0  0  0  0  0  0  0  0
    4.0243   -2.3755    4.2930 H   0  0  0  0  0  0  0  0  0  0  0  0
    2.7320   -1.2997    4.1304 H   0  0  0  0  0  0  0  0  0  0  0  0
    4.5426   -0.4220    2.8963 H   0  0  0  0  0  0  0  0  0  0  0  0
    4.5655    0.6729    4.1908 H   0  0  0  0  0  0  0  0  0  0  0  0
    6.7496    0.3082    4.1143 H   0  0  0  0  0  0  0  0  0  0  0  0
    6.2194   -0.6110    5.4867 H   0  0  0  0  0  0  0  0  0  0  0  0
    7.6899   -2.0153    3.9560 H   0  0  0  0  0  0  0  0  0  0  0  0
    6.0486   -2.6685    4.0054 H   0  0  0  0  0  0  0  0  0  0  0  0
    6.0799   -3.7173    1.7235 H   0  0  0  0  0  0  0  0  0  0  0  0
    6.0508   -0.2497   -0.6191 H   0  0  0  0  0  0  0  0  0  0  0  0
    6.6282    0.4714    1.9501 H   0  0  0  0  0  0  0  0  0  0  0  0
  1  2  1  0  0  0  0
  1 22  1  0  0  0  0
  1 23  1  0  0  0  0
  1 24  1  0  0  0  0
  2  3  1  0  0  0  0
  3  4  2  0  0  0  0
  3  9  1  0  0  0  0
  4  5  1  0  0  0  0
  4 25  1  0  0  0  0
  5  6  1  0  0  0  0
  5  7  2  0  0  0  0
  7  8  1  0  0  0  0
  7 10  1  0  0  0  0
  8  9  2  0  0  0  0
  8 26  1  0  0  0  0
  9 27  1  0  0  0  0
 10 11  1  0  0  0  0
 11 12  1  0  0  0  0
 11 28  1  0  0  0  0
 11 29  1  0  0  0  0
 12 13  1  0  0  0  0
 12 30  1  0  0  0  0
 12 31  1  0  0  0  0
 13 14  1  0  0  0  0
 13 32  1  0  0  0  0
 13 33  1  0  0  0  0
 14 15  1  0  0  0  0
 14 34  1  0  0  0  0
 14 35  1  0  0  0  0
 15 16  1  0  0  0  0
 15 36  1  0  0  0  0
 15 37  1  0  0  0  0
 16 17  1  0  0  0  0
 16 38  1  0  0  0  0
 16 39  1  0  0  0  0
 17 18  1  0  0  0  0
 17 21  1  0  0  0  0
 18 19  2  0  0  0  0
 18 40  1  0  0  0  0
 19 20  1  0  0  0  0
 20 21  2  0  0  0  0
 20 41  1  0  0  0  0
 21 42  1  0  0  0  0
M  END
>  <DRUGBANK_ID>
DB08509

>  <COMMON_NAME>
1-[6-(2-CHLORO-4-METHYXYPHENOXY)-HEXYL]-IMIDAZOLE

$$$$
