1407
 OpenBabel10282417113D

 35 35  0  0  1  0  0  0  0  0999 V2000
    2.7358   -0.6060    0.0082 Cl  0  0  0  0  0  0  0  0  0  0  0  0
   -2.7268   -0.5933    0.0244 Cl  0  0  0  0  0  0  0  0  0  0  0  0
   -0.6616    4.3196   -1.2179 O   0  0  0  0  0  0  0  0  0  0  0  0
   -0.0102    3.9297    2.4438 N   0  0  0  0  0  0  0  0  0  0  0  0
    0.0002   -1.9152    0.1500 N   0  0  0  0  0  0  0  0  0  0  0  0
   -0.6941    4.4044    3.6603 C   0  0  0  0  0  0  0  0  0  0  0  0
   -0.6456    4.3788    1.1927 C   0  0  0  0  0  0  0  0  0  0  0  0
    0.0352    3.8288   -0.0724 C   0  0  3  0  0  0  0  0  0  0  0  0
   -2.1339    3.8676    3.7394 C   0  0  0  0  0  0  0  0  0  0  0  0
    0.0898    3.8637    4.8705 C   0  0  0  0  0  0  0  0  0  0  0  0
   -0.6788    5.9390    3.7147 C   0  0  0  0  0  0  0  0  0  0  0  0
    0.0169    2.3190   -0.1018 C   0  0  0  0  0  0  0  0  0  0  0  0
   -1.1922    1.6068   -0.0737 C   0  0  0  0  0  0  0  0  0  0  0  0
    1.2191    1.6043   -0.0783 C   0  0  0  0  0  0  0  0  0  0  0  0
    1.2091    0.2092   -0.0410 C   0  0  0  0  0  0  0  0  0  0  0  0
   -1.1959    0.2132   -0.0345 C   0  0  0  0  0  0  0  0  0  0  0  0
    0.0046   -0.5227   -0.0521 C   0  0  0  0  0  0  0  0  0  0  0  0
   -0.2246    3.9387   -1.9977 H   0  0  0  0  0  0  0  0  0  0  0  0
    0.0176    2.9078    2.4590 H   0  0  0  0  0  0  0  0  0  0  0  0
   -0.8614   -2.3864   -0.1145 H   0  0  0  0  0  0  0  0  0  0  0  0
    0.8574   -2.3932   -0.1181 H   0  0  0  0  0  0  0  0  0  0  0  0
   -0.6310    5.4699    1.1146 H   0  0  0  0  0  0  0  0  0  0  0  0
   -1.7000    4.0862    1.1623 H   0  0  0  0  0  0  0  0  0  0  0  0
    1.0607    4.2140   -0.1239 H   0  0  0  0  0  0  0  0  0  0  0  0
   -2.1501    2.7715    3.6997 H   0  0  0  0  0  0  0  0  0  0  0  0
   -2.6171    4.1774    4.6713 H   0  0  0  0  0  0  0  0  0  0  0  0
   -2.7637    4.2394    2.9253 H   0  0  0  0  0  0  0  0  0  0  0  0
    1.1291    4.2126    4.8681 H   0  0  0  0  0  0  0  0  0  0  0  0
   -0.3676    4.1990    5.8090 H   0  0  0  0  0  0  0  0  0  0  0  0
    0.1054    2.7673    4.8874 H   0  0  0  0  0  0  0  0  0  0  0  0
    0.3470    6.3230    3.6549 H   0  0  0  0  0  0  0  0  0  0  0  0
   -1.2515    6.3883    2.8970 H   0  0  0  0  0  0  0  0  0  0  0  0
   -1.1225    6.3048    4.6453 H   0  0  0  0  0  0  0  0  0  0  0  0
   -2.1391    2.1478   -0.0539 H   0  0  0  0  0  0  0  0  0  0  0  0
    2.1673    2.1406   -0.0562 H   0  0  0  0  0  0  0  0  0  0  0  0
  1 15  1  0  0  0  0
  2 16  1  0  0  0  0
  3  8  1  0  0  0  0
  3 18  1  0  0  0  0
  4  6  1  0  0  0  0
  4  7  1  0  0  0  0
  4 19  1  0  0  0  0
  5 17  1  0  0  0  0
  5 20  1  0  0  0  0
  5 21  1  0  0  0  0
  6  9  1  0  0  0  0
  6 10  1  0  0  0  0
  6 11  1  0  0  0  0
  7  8  1  0  0  0  0
  7 22  1  0  0  0  0
  7 23  1  0  0  0  0
  8 12  1  0  0  0  0
  8 24  1  0  0  0  0
  9 25  1  0  0  0  0
  9 26  1  0  0  0  0
  9 27  1  0  0  0  0
 10 28  1  0  0  0  0
 10 29  1  0  0  0  0
 10 30  1  0  0  0  0
 11 31  1  0  0  0  0
 11 32  1  0  0  0  0
 11 33  1  0  0  0  0
 12 13  2  0  0  0  0
 12 14  1  0  0  0  0
 13 16  1  0  0  0  0
 13 34  1  0  0  0  0
 14 15  2  0  0  0  0
 14 35  1  0  0  0  0
 15 17  1  0  0  0  0
 16 17  2  0  0  0  0
M  END
>  <DRUGBANK_ID>
DB01407

>  <COMMON_NAME>
Clenbuterol

>  <CAS_NUMBER>
37148-27-9

>  <UNII>
XTZ6AXU7KN

>  <SYNONYMS>
(±)-clenbuterol; 1-(4-Amino-3,5-dichloro-phenyl)-2-tert-butylamino-ethanol; 4-amino-3,5-dichloro-α-(((1,1-dimethylethyl)amino)methyl)benzenemethanol; 4-amino-α-((tert-butylamino)methyl)-3,5-dichlorobenzyl alcohol; Clenbuterol; Clenbutérol; Clenbuterolum

$$$$
