
 OpenBabel10282417143D

 35 36  0  0  0  0  0  0  0  0999 V2000
    1.0617    0.0711   -0.0338 P   0  0  0  0  0  0  0  0  0  0  0  0
   -1.2066   -1.0386   -3.4657 O   0  0  0  0  0  0  0  0  0  0  0  0
   -2.0021    1.8801   -2.2281 O   0  0  0  0  0  0  0  0  0  0  0  0
    0.9855   -0.9847   -1.2215 O   0  0  0  0  0  0  0  0  0  0  0  0
    0.3699   -3.0709   -1.5448 O   0  0  0  0  0  0  0  0  0  0  0  0
   -1.6632   -6.3524   -1.9714 O   0  0  0  0  0  0  0  0  0  0  0  0
    0.9640   -0.7332    1.3678 O   0  0  0  0  0  0  0  0  0  0  0  0
   -0.6683    0.0711   -0.0338 O   0  0  0  0  0  0  0  0  0  0  0  0
    2.6100    0.0711   -0.0338 O   0  0  0  0  0  0  0  0  0  0  0  0
   -1.9707   -2.8633   -1.9540 N   0  0  0  0  0  0  0  0  0  0  0  0
   -0.8613   -4.6124   -0.8134 N   0  0  0  0  0  0  0  0  0  0  0  0
   -1.1882    0.7595   -1.9445 C   0  0  2  0  0  0  0  0  0  0  0  0
   -0.3793    0.0720   -3.0198 C   0  0  1  0  0  0  0  0  0  0  0  0
   -2.1358   -1.4404   -2.4519 C   0  0  1  0  0  0  0  0  0  0  0  0
   -2.0703   -0.4840   -1.3466 C   0  0  0  0  0  0  0  0  0  0  0  0
    0.9923   -0.5157   -2.5629 C   0  0  0  0  0  0  0  0  0  0  0  0
   -0.7642   -3.4254   -1.4695 C   0  0  0  0  0  0  0  0  0  0  0  0
   -3.1648   -3.4941   -1.6598 C   0  0  0  0  0  0  0  0  0  0  0  0
   -1.9434   -5.4894   -0.9035 C   0  0  1  0  0  0  0  0  0  0  0  0
   -3.1833   -4.7488   -1.2039 C   0  0  0  0  0  0  0  0  0  0  0  0
    0.0597   -4.9798   -0.6021 H   0  0  0  0  0  0  0  0  0  0  0  0
   -2.8995    1.5508   -2.3344 H   0  0  0  0  0  0  0  0  0  0  0  0
   -1.4819   -5.7457   -2.7123 H   0  0  0  0  0  0  0  0  0  0  0  0
    1.8642   -0.6575    1.7514 H   0  0  0  0  0  0  0  0  0  0  0  0
   -0.9433    0.6627    0.6951 H   0  0  0  0  0  0  0  0  0  0  0  0
   -0.4119    1.3353   -1.3935 H   0  0  0  0  0  0  0  0  0  0  0  0
   -0.1919    0.7742   -3.8371 H   0  0  0  0  0  0  0  0  0  0  0  0
   -3.1508   -1.2764   -2.8163 H   0  0  0  0  0  0  0  0  0  0  0  0
   -1.6095   -1.2369   -0.6511 H   0  0  0  0  0  0  0  0  0  0  0  0
   -2.9161   -0.2135   -0.6946 H   0  0  0  0  0  0  0  0  0  0  0  0
    1.8343    0.1798   -2.6851 H   0  0  0  0  0  0  0  0  0  0  0  0
    1.2196   -1.3784   -3.1999 H   0  0  0  0  0  0  0  0  0  0  0  0
   -4.0796   -2.9455   -1.8462 H   0  0  0  0  0  0  0  0  0  0  0  0
   -1.9964   -6.0253    0.0464 H   0  0  0  0  0  0  0  0  0  0  0  0
   -4.1181   -5.2728   -1.0872 H   0  0  0  0  0  0  0  0  0  0  0  0
  1  4  1  0  0  0  0
  1  7  1  0  0  0  0
  1  8  1  0  0  0  0
  1  9  2  0  0  0  0
  2 13  1  0  0  0  0
  2 14  1  0  0  0  0
  3 22  1  0  0  0  0
  4 16  1  0  0  0  0
  5 17  2  0  0  0  0
  6 23  1  0  0  0  0
  7 24  1  0  0  0  0
  8 25  1  0  0  0  0
 10 17  1  0  0  0  0
 10 18  1  0  0  0  0
 11 17  1  0  0  0  0
 11 19  1  0  0  0  0
 11 21  1  0  0  0  0
 12  3  1  0  0  0  0
 12 13  1  0  0  0  0
 12 15  1  0  0  0  0
 12 26  1  1  0  0  0
 13 16  1  0  0  0  0
 13 27  1  6  0  0  0
 14 15  1  0  0  0  0
 14 28  1  6  0  0  0
 14 10  1  0  0  0  0
 15 29  1  0  0  0  0
 15 30  1  0  0  0  0
 16 31  1  0  0  0  0
 16 32  1  0  0  0  0
 18 20  2  0  0  0  0
 18 33  1  0  0  0  0
 19  6  1  0  0  0  0
 19 20  1  0  0  0  0
 19 34  1  1  0  0  0
 20 35  1  0  0  0  0
M  END
>  <DRUGBANK_ID>
DB04280

>  <SECONDARY_ACCESSION_NUMBERS>
EXPT01146

>  <COMMON_NAME>
3,4-Dihydro-2'-deoxyuridine-5'-monophosphate

$$$$
