396
 OpenBabel10282417103D

 53 56  0  0  1  0  0  0  0  0999 V2000
    1.0242   -0.2335    0.1481 O   0  0  0  0  0  0  0  0  0  0  0  0
    2.5028   10.9341    0.8486 O   0  0  0  0  0  0  0  0  0  0  0  0
    3.0487    3.4787   -0.9589 C   0  0  2  0  0  0  0  0  0  0  0  0
    2.1453    2.5300   -0.1385 C   0  0  1  0  0  0  0  0  0  0  0  0
    2.4204    4.8635   -1.1503 C   0  0  1  0  0  0  0  0  0  0  0  0
    2.1721    5.5232    0.2414 C   0  0  1  0  0  0  0  0  0  0  0  0
    1.4701    6.9298    0.0901 C   0  0  2  0  0  0  0  0  0  0  0  0
    2.9666    1.2115   -0.2315 C   0  0  2  0  0  0  0  0  0  0  0  0
    2.0526    3.1323    1.2708 C   0  0  0  0  0  0  0  0  0  0  0  0
    1.4806    4.5647    1.2511 C   0  0  0  0  0  0  0  0  0  0  0  0
    3.3945    2.6640   -2.1993 C   0  0  0  0  0  0  0  0  0  0  0  0
    3.3137    5.7690   -2.0061 C   0  0  0  0  0  0  0  0  0  0  0  0
    3.5033    1.2179   -1.6826 C   0  0  0  0  0  0  0  0  0  0  0  0
    2.3425    7.7970   -0.8290 C   0  0  0  0  0  0  0  0  0  0  0  0
    0.7317    2.3795   -0.7559 C   0  0  0  0  0  0  0  0  0  0  0  0
    2.7600    7.1820   -2.1429 C   0  0  0  0  0  0  0  0  0  0  0  0
    1.3374    7.6035    1.4860 C   0  0  0  0  0  0  0  0  0  0  0  0
    0.0606    6.8026   -0.5344 C   0  0  0  0  0  0  0  0  0  0  0  0
    2.2496   -0.1054    0.1049 C   0  0  0  0  0  0  0  0  0  0  0  0
    1.0547    9.0995    1.4007 C   0  0  0  0  0  0  0  0  0  0  0  0
    2.7148    9.0573   -0.5410 C   0  0  0  0  0  0  0  0  0  0  0  0
    2.1485    9.7807    0.6209 C   0  0  0  0  0  0  0  0  0  0  0  0
    3.0839   -1.3222    0.3860 C   0  0  0  0  0  0  0  0  0  0  0  0
    3.9962    3.6302   -0.4164 H   0  0  0  0  0  0  0  0  0  0  0  0
    1.4701    4.7468   -1.6813 H   0  0  0  0  0  0  0  0  0  0  0  0
    3.1703    5.7137    0.6699 H   0  0  0  0  0  0  0  0  0  0  0  0
    3.8216    1.2857    0.4573 H   0  0  0  0  0  0  0  0  0  0  0  0
    3.0505    3.1665    1.7293 H   0  0  0  0  0  0  0  0  0  0  0  0
    1.4369    2.4984    1.9187 H   0  0  0  0  0  0  0  0  0  0  0  0
    1.5816    4.9741    2.2636 H   0  0  0  0  0  0  0  0  0  0  0  0
    0.4070    4.5102    1.0537 H   0  0  0  0  0  0  0  0  0  0  0  0
    2.6167    2.7424   -2.9673 H   0  0  0  0  0  0  0  0  0  0  0  0
    4.3339    2.9990   -2.6525 H   0  0  0  0  0  0  0  0  0  0  0  0
    3.4193    5.3431   -3.0107 H   0  0  0  0  0  0  0  0  0  0  0  0
    4.3186    5.8139   -1.5696 H   0  0  0  0  0  0  0  0  0  0  0  0
    2.9380    0.5422   -2.3333 H   0  0  0  0  0  0  0  0  0  0  0  0
    4.5485    0.8874   -1.7039 H   0  0  0  0  0  0  0  0  0  0  0  0
    0.7707    1.9977   -1.7807 H   0  0  0  0  0  0  0  0  0  0  0  0
    0.1028    1.7074   -0.1698 H   0  0  0  0  0  0  0  0  0  0  0  0
    0.1696    3.3146   -0.7780 H   0  0  0  0  0  0  0  0  0  0  0  0
    1.8862    7.1667   -2.8060 H   0  0  0  0  0  0  0  0  0  0  0  0
    3.5126    7.8019   -2.6455 H   0  0  0  0  0  0  0  0  0  0  0  0
    2.2697    7.4650    2.0510 H   0  0  0  0  0  0  0  0  0  0  0  0
    0.5410    7.1268    2.0700 H   0  0  0  0  0  0  0  0  0  0  0  0
    0.0804    6.3577   -1.5334 H   0  0  0  0  0  0  0  0  0  0  0  0
   -0.5993    6.1861    0.0832 H   0  0  0  0  0  0  0  0  0  0  0  0
   -0.4223    7.7790   -0.6468 H   0  0  0  0  0  0  0  0  0  0  0  0
    1.0221    9.5265    2.4081 H   0  0  0  0  0  0  0  0  0  0  0  0
    0.0973    9.3097    0.9127 H   0  0  0  0  0  0  0  0  0  0  0  0
    3.3662    9.6427   -1.1806 H   0  0  0  0  0  0  0  0  0  0  0  0
    2.8385   -1.6808    1.3905 H   0  0  0  0  0  0  0  0  0  0  0  0
    2.8341   -2.0931   -0.3486 H   0  0  0  0  0  0  0  0  0  0  0  0
    4.1504   -1.1027    0.3338 H   0  0  0  0  0  0  0  0  0  0  0  0
  1 19  2  0  0  0  0
  2 22  2  0  0  0  0
  3  4  1  0  0  0  0
  3  5  1  0  0  0  0
  3 11  1  0  0  0  0
  3 24  1  1  0  0  0
  4  8  1  0  0  0  0
  4  9  1  0  0  0  0
  4 15  1  6  0  0  0
  5  6  1  0  0  0  0
  5 12  1  0  0  0  0
  5 25  1  6  0  0  0
  6  7  1  0  0  0  0
  6 10  1  0  0  0  0
  6 26  1  1  0  0  0
  7 14  1  0  0  0  0
  7 17  1  0  0  0  0
  7 18  1  6  0  0  0
  8 13  1  0  0  0  0
  8 19  1  0  0  0  0
  8 27  1  1  0  0  0
  9 10  1  0  0  0  0
  9 28  1  0  0  0  0
  9 29  1  0  0  0  0
 10 30  1  0  0  0  0
 10 31  1  0  0  0  0
 11 13  1  0  0  0  0
 11 32  1  0  0  0  0
 11 33  1  0  0  0  0
 12 16  1  0  0  0  0
 12 34  1  0  0  0  0
 12 35  1  0  0  0  0
 13 36  1  0  0  0  0
 13 37  1  0  0  0  0
 14 16  1  0  0  0  0
 14 21  2  0  0  0  0
 15 38  1  0  0  0  0
 15 39  1  0  0  0  0
 15 40  1  0  0  0  0
 16 41  1  0  0  0  0
 16 42  1  0  0  0  0
 17 20  1  0  0  0  0
 17 43  1  0  0  0  0
 17 44  1  0  0  0  0
 18 45  1  0  0  0  0
 18 46  1  0  0  0  0
 18 47  1  0  0  0  0
 19 23  1  0  0  0  0
 20 22  1  0  0  0  0
 20 48  1  0  0  0  0
 20 49  1  0  0  0  0
 21 22  1  0  0  0  0
 21 50  1  0  0  0  0
 23 51  1  0  0  0  0
 23 52  1  0  0  0  0
 23 53  1  0  0  0  0
M  END
>  <DRUGBANK_ID>
DB00396

>  <SECONDARY_ACCESSION_NUMBERS>
APRD00700

>  <COMMON_NAME>
Progesterone

>  <CAS_NUMBER>
57-83-0

>  <UNII>
4G7DS2Q64Y

>  <SYNONYMS>
(S)-4-Pregnene-3,20-dione; (S)-Pregn-4-en-3,20-dione; (S)-Progesterone; 17alpha-Progesterone; 17α-progesterone; 4-Pregnene-3,20-dione; Agolutin; Akrolutin; Corpus Luteum Hormone; delta(4)-Pregnene-3,20-dione; Gelbkörperhormon; Luteohormone; Lutogynon; Pregn-4-ene-3,20-dione; Progesteron; Progesterona; Progestérone; Progesterone; Progesteronum

$$$$
