269
 OpenBabel10282417103D

 48 50  0  0  0  0  0  0  0  0999 V2000
    1.0380    0.0976    0.2145 Cl  0  0  0  0  0  0  0  0  0  0  0  0
    9.1292   -1.3714   -0.3418 O   0  0  0  0  0  0  0  0  0  0  0  0
    0.5490   -5.3544   -2.8462 O   0  0  0  0  0  0  0  0  0  0  0  0
    5.7992    3.9946    2.7145 O   0  0  0  0  0  0  0  0  0  0  0  0
    3.4407   -1.0944   -0.4341 C   0  0  0  0  0  0  0  0  0  0  0  0
    4.9403   -1.1988   -0.3724 C   0  0  0  0  0  0  0  0  0  0  0  0
    2.6583   -2.2130   -1.0500 C   0  0  0  0  0  0  0  0  0  0  0  0
    2.7970    0.0132    0.0605 C   0  0  0  0  0  0  0  0  0  0  0  0
    3.4671    1.1993    0.6599 C   0  0  0  0  0  0  0  0  0  0  0  0
    5.6424   -0.9232    0.8076 C   0  0  0  0  0  0  0  0  0  0  0  0
    1.6521   -1.9397   -1.9784 C   0  0  0  0  0  0  0  0  0  0  0  0
    5.6810   -1.5914   -1.5000 C   0  0  0  0  0  0  0  0  0  0  0  0
    2.9788   -3.5603   -0.8023 C   0  0  0  0  0  0  0  0  0  0  0  0
    7.0358   -0.9214    0.8436 C   0  0  0  0  0  0  0  0  0  0  0  0
    0.9077   -2.9544   -2.5668 C   0  0  0  0  0  0  0  0  0  0  0  0
    7.0775   -1.6910   -1.4315 C   0  0  0  0  0  0  0  0  0  0  0  0
    2.2844   -4.5847   -1.4616 C   0  0  0  0  0  0  0  0  0  0  0  0
    3.0535    1.6495    1.9207 C   0  0  0  0  0  0  0  0  0  0  0  0
    4.6051    1.7913    0.0856 C   0  0  0  0  0  0  0  0  0  0  0  0
    7.7638   -1.3174   -0.2760 C   0  0  0  0  0  0  0  0  0  0  0  0
    1.2192   -4.2883   -2.3110 C   0  0  0  0  0  0  0  0  0  0  0  0
    3.7912    2.5970    2.6240 C   0  0  0  0  0  0  0  0  0  0  0  0
    5.3946    2.6695    0.8327 C   0  0  0  0  0  0  0  0  0  0  0  0
    4.9776    3.0977    2.0907 C   0  0  0  0  0  0  0  0  0  0  0  0
    9.8276   -0.8528    0.7878 C   0  0  0  0  0  0  0  0  0  0  0  0
   -0.6318   -5.0304   -3.5781 C   0  0  0  0  0  0  0  0  0  0  0  0
    5.2595    4.6062    3.8817 C   0  0  0  0  0  0  0  0  0  0  0  0
    5.1154   -0.6198    1.7107 H   0  0  0  0  0  0  0  0  0  0  0  0
    1.4079   -0.9142   -2.2488 H   0  0  0  0  0  0  0  0  0  0  0  0
    5.1829   -1.8176   -2.4399 H   0  0  0  0  0  0  0  0  0  0  0  0
    3.7748   -3.8260   -0.1105 H   0  0  0  0  0  0  0  0  0  0  0  0
    7.5115   -0.5964    1.7603 H   0  0  0  0  0  0  0  0  0  0  0  0
    0.1023   -2.6592   -3.2252 H   0  0  0  0  0  0  0  0  0  0  0  0
    7.6325   -2.0504   -2.2968 H   0  0  0  0  0  0  0  0  0  0  0  0
    2.5786   -5.6219   -1.3042 H   0  0  0  0  0  0  0  0  0  0  0  0
    2.1714    1.2326    2.4028 H   0  0  0  0  0  0  0  0  0  0  0  0
    4.9597    1.4829   -0.8961 H   0  0  0  0  0  0  0  0  0  0  0  0
    3.4304    2.8822    3.6045 H   0  0  0  0  0  0  0  0  0  0  0  0
    6.3594    2.9862    0.4405 H   0  0  0  0  0  0  0  0  0  0  0  0
    9.5789    0.2016    0.9573 H   0  0  0  0  0  0  0  0  0  0  0  0
    9.6256   -1.4516    1.6830 H   0  0  0  0  0  0  0  0  0  0  0  0
   10.9000   -0.9118    0.5842 H   0  0  0  0  0  0  0  0  0  0  0  0
   -1.3429   -4.4692   -2.9594 H   0  0  0  0  0  0  0  0  0  0  0  0
   -0.3836   -4.4740   -4.4891 H   0  0  0  0  0  0  0  0  0  0  0  0
   -1.1179   -5.9616   -3.8782 H   0  0  0  0  0  0  0  0  0  0  0  0
    4.2811    5.0592    3.6811 H   0  0  0  0  0  0  0  0  0  0  0  0
    5.1952    3.8806    4.6996 H   0  0  0  0  0  0  0  0  0  0  0  0
    5.9366    5.4057    4.1910 H   0  0  0  0  0  0  0  0  0  0  0  0
  1  8  1  0  0  0  0
  2 20  1  0  0  0  0
  2 25  1  0  0  0  0
  3 21  1  0  0  0  0
  3 26  1  0  0  0  0
  4 24  1  0  0  0  0
  4 27  1  0  0  0  0
  5  6  1  0  0  0  0
  5  7  1  0  0  0  0
  5  8  2  0  0  0  0
  6 10  2  0  0  0  0
  6 12  1  0  0  0  0
  7 11  2  0  0  0  0
  7 13  1  0  0  0  0
  8  9  1  0  0  0  0
  9 18  2  0  0  0  0
  9 19  1  0  0  0  0
 10 14  1  0  0  0  0
 10 28  1  0  0  0  0
 11 15  1  0  0  0  0
 11 29  1  0  0  0  0
 12 16  2  0  0  0  0
 12 30  1  0  0  0  0
 13 17  2  0  0  0  0
 13 31  1  0  0  0  0
 14 20  2  0  0  0  0
 14 32  1  0  0  0  0
 15 21  2  0  0  0  0
 15 33  1  0  0  0  0
 16 20  1  0  0  0  0
 16 34  1  0  0  0  0
 17 21  1  0  0  0  0
 17 35  1  0  0  0  0
 18 22  1  0  0  0  0
 18 36  1  0  0  0  0
 19 23  2  0  0  0  0
 19 37  1  0  0  0  0
 22 24  2  0  0  0  0
 22 38  1  0  0  0  0
 23 24  1  0  0  0  0
 23 39  1  0  0  0  0
 25 40  1  0  0  0  0
 25 41  1  0  0  0  0
 25 42  1  0  0  0  0
 26 43  1  0  0  0  0
 26 44  1  0  0  0  0
 26 45  1  0  0  0  0
 27 46  1  0  0  0  0
 27 47  1  0  0  0  0
 27 48  1  0  0  0  0
M  END
>  <DRUGBANK_ID>
DB00269

>  <SECONDARY_ACCESSION_NUMBERS>
APRD00715

>  <COMMON_NAME>
Chlorotrianisene

>  <CAS_NUMBER>
569-57-3

>  <UNII>
6V5034L121

>  <SYNONYMS>
Chloortrianisestrol; Chlorestrolo; Chlorotrianisene; Chlorotrianisenum; Chlorotrianisine; Chlorotrianizen; Chlortrianisen; Chlortrianisestrol; Chlortrianisoestrolum; Chlortrianizen; Clorotrianiseno

$$$$
