
 OpenBabel10282417193D

 43 47  0  0  1  0  0  0  0  0999 V2000
    1.0009   -0.0630   -0.0038 C   0  0  0  0  0  0  0  0  0  0  0  0
    0.6586    1.2526   -0.6719 C   0  0  0  0  0  0  0  0  0  0  0  0
    1.6285    1.6127   -1.8182 C   0  0  2  0  0  0  0  0  0  0  0  0
    2.8782    2.2783   -1.2232 C   0  0  0  0  0  0  0  0  0  0  0  0
    3.4326    2.0205    0.1181 C   0  0  0  0  0  0  0  0  0  0  0  0
    3.8173    3.0718    0.8515 C   0  0  0  0  0  0  0  0  0  0  0  0
    3.8120    4.3227    0.2599 N   0  0  0  0  0  0  0  0  0  0  0  0
    3.5964    4.5675   -1.0796 C   0  0  0  0  0  0  0  0  0  0  0  0
    3.5705    5.6784   -1.5780 O   0  0  0  0  0  0  0  0  0  0  0  0
    3.2690    3.3686   -1.8969 C   0  0  0  0  0  0  0  0  0  0  0  0
    2.9090    3.5009   -3.3301 C   0  0  0  0  0  0  0  0  0  0  0  0
    1.4959    3.5228   -3.4733 O   0  0  0  0  0  0  0  0  0  0  0  0
    0.7867    2.5952   -2.7729 C   0  0  0  0  0  0  0  0  0  0  0  0
   -0.4317    2.5393   -2.9246 O   0  0  0  0  0  0  0  0  0  0  0  0
    4.0946    5.3712    1.2264 C   0  0  0  0  0  0  0  0  0  0  0  0
    4.3769    4.5990    2.4721 C   0  0  0  0  0  0  0  0  0  0  0  0
    4.2520    3.2319    2.2539 C   0  0  0  0  0  0  0  0  0  0  0  0
    4.4253    2.2919    3.2006 N   0  0  0  0  0  0  0  0  0  0  0  0
    4.7522    2.7478    4.4451 C   0  0  0  0  0  0  0  0  0  0  0  0
    4.9648    1.8618    5.5007 C   0  0  0  0  0  0  0  0  0  0  0  0
    5.2992    2.2991    6.7939 C   0  0  0  0  0  0  0  0  0  0  0  0
    5.4250    3.6538    7.0566 C   0  0  0  0  0  0  0  0  0  0  0  0
    5.2209    4.5784    6.0441 C   0  0  0  0  0  0  0  0  0  0  0  0
    4.8908    4.1360    4.7484 C   0  0  0  0  0  0  0  0  0  0  0  0
    4.6919    5.0686    3.7283 C   0  0  0  0  0  0  0  0  0  0  0  0
    5.7528    4.0344    8.3234 O   0  0  0  0  0  0  0  0  0  0  0  0
    2.0723    0.4724   -2.5438 O   0  0  0  0  0  0  0  0  0  0  0  0
    0.5852   -0.8984   -0.5706 H   0  0  0  0  0  0  0  0  0  0  0  0
    0.6084   -0.0751    1.0146 H   0  0  0  0  0  0  0  0  0  0  0  0
    2.0747   -0.2336    0.0455 H   0  0  0  0  0  0  0  0  0  0  0  0
   -0.3905    1.2019   -0.9913 H   0  0  0  0  0  0  0  0  0  0  0  0
    0.6692    2.0746    0.0593 H   0  0  0  0  0  0  0  0  0  0  0  0
    3.5422    1.0179    0.5166 H   0  0  0  0  0  0  0  0  0  0  0  0
    3.2787    2.6419   -3.9088 H   0  0  0  0  0  0  0  0  0  0  0  0
    3.3506    4.3793   -3.8015 H   0  0  0  0  0  0  0  0  0  0  0  0
    4.9557    5.9508    0.8890 H   0  0  0  0  0  0  0  0  0  0  0  0
    3.2043    5.9985    1.3301 H   0  0  0  0  0  0  0  0  0  0  0  0
    4.8702    0.7937    5.3200 H   0  0  0  0  0  0  0  0  0  0  0  0
    5.4607    1.5785    7.5919 H   0  0  0  0  0  0  0  0  0  0  0  0
    5.3180    5.6415    6.2478 H   0  0  0  0  0  0  0  0  0  0  0  0
    4.7716    6.1353    3.9099 H   0  0  0  0  0  0  0  0  0  0  0  0
    5.8090    5.0035    8.3702 H   0  0  0  0  0  0  0  0  0  0  0  0
    2.7117    0.7782   -3.2099 H   0  0  0  0  0  0  0  0  0  0  0  0
  1  2  1  0  0  0  0
  1 28  1  0  0  0  0
  1 29  1  0  0  0  0
  1 30  1  0  0  0  0
  2 31  1  0  0  0  0
  2 32  1  0  0  0  0
  3  2  1  0  0  0  0
  3  4  1  0  0  0  0
  3 13  1  0  0  0  0
  3 27  1  6  0  0  0
  4  5  1  0  0  0  0
  4 10  2  0  0  0  0
  5  6  2  0  0  0  0
  5 33  1  0  0  0  0
  6  7  1  0  0  0  0
  6 17  1  0  0  0  0
  7  8  1  0  0  0  0
  7 15  1  0  0  0  0
  8  9  2  0  0  0  0
  8 10  1  0  0  0  0
 10 11  1  0  0  0  0
 11 12  1  0  0  0  0
 11 34  1  0  0  0  0
 11 35  1  0  0  0  0
 12 13  1  0  0  0  0
 13 14  2  0  0  0  0
 15 16  1  0  0  0  0
 15 36  1  0  0  0  0
 15 37  1  0  0  0  0
 16 17  2  0  0  0  0
 16 25  1  0  0  0  0
 17 18  1  0  0  0  0
 18 19  2  0  0  0  0
 19 20  1  0  0  0  0
 19 24  1  0  0  0  0
 20 21  2  0  0  0  0
 20 38  1  0  0  0  0
 21 22  1  0  0  0  0
 21 39  1  0  0  0  0
 22 23  2  0  0  0  0
 22 26  1  0  0  0  0
 23 24  1  0  0  0  0
 23 40  1  0  0  0  0
 24 25  2  0  0  0  0
 25 41  1  0  0  0  0
 26 42  1  0  0  0  0
 27 43  1  0  0  0  0
M  END
>  <DRUGBANK_ID>
DB12385

>  <COMMON_NAME>
10-hydroxycamptothecin

>  <CAS_NUMBER>
19685-09-7

>  <UNII>
9Z01632KRV

$$$$
