
 OpenBabel10282417223D

 25 24  0  0  0  0  0  0  0  0999 V2000
    1.1137   -0.0417   -0.1290 C   0  0  0  0  0  0  0  0  0  0  0  0
    0.3018   -1.0927   -0.8219 C   0  0  0  0  0  0  0  0  0  0  0  0
    2.3446   -0.0422   -0.2255 O   0  0  0  0  0  0  0  0  0  0  0  0
    0.3679    1.0020    0.6732 C   0  0  0  0  0  0  0  0  0  0  0  0
    0.6992    0.9144    2.1564 C   0  0  0  0  0  0  0  0  0  0  0  0
    2.1319    1.2735    2.4512 C   0  0  0  0  0  0  0  0  0  0  0  0
    2.5712    2.3195    3.1634 C   0  0  0  0  0  0  0  0  0  0  0  0
    1.7023    3.2681    3.8079 C   0  0  0  0  0  0  0  0  0  0  0  0
    2.1297    4.3023    4.5380 C   0  0  0  0  0  0  0  0  0  0  0  0
    1.1963    5.1991    5.1742 C   0  0  0  0  0  0  0  0  0  0  0  0
    1.5957    6.2368    5.9137 C   0  0  0  0  0  0  0  0  0  0  0  0
   -0.3053   -1.6348   -0.0934 H   0  0  0  0  0  0  0  0  0  0  0  0
   -0.3284   -0.6204   -1.5780 H   0  0  0  0  0  0  0  0  0  0  0  0
    0.9807   -1.7973   -1.3103 H   0  0  0  0  0  0  0  0  0  0  0  0
    0.5988    1.9925    0.2639 H   0  0  0  0  0  0  0  0  0  0  0  0
   -0.7111    0.8523    0.5432 H   0  0  0  0  0  0  0  0  0  0  0  0
   -0.0000    1.5747    2.6751 H   0  0  0  0  0  0  0  0  0  0  0  0
    0.4985   -0.0896    2.5452 H   0  0  0  0  0  0  0  0  0  0  0  0
    2.8893    0.6141    2.0244 H   0  0  0  0  0  0  0  0  0  0  0  0
    3.6474    2.4591    3.2631 H   0  0  0  0  0  0  0  0  0  0  0  0
    0.6322    3.1294    3.7072 H   0  0  0  0  0  0  0  0  0  0  0  0
    3.1930    4.4799    4.6700 H   0  0  0  0  0  0  0  0  0  0  0  0
    0.1306    5.0139    5.0449 H   0  0  0  0  0  0  0  0  0  0  0  0
    0.8696    6.8921    6.3812 H   0  0  0  0  0  0  0  0  0  0  0  0
    2.6478    6.4509    6.0665 H   0  0  0  0  0  0  0  0  0  0  0  0
  1  4  1  0  0  0  0
  1  3  2  0  0  0  0
  2  1  1  0  0  0  0
  2 12  1  0  0  0  0
  2 13  1  0  0  0  0
  2 14  1  0  0  0  0
  4  5  1  0  0  0  0
  4 15  1  0  0  0  0
  4 16  1  0  0  0  0
  5  6  1  0  0  0  0
  5 17  1  0  0  0  0
  5 18  1  0  0  0  0
  6  7  2  0  0  0  0
  6 19  1  0  0  0  0
  7  8  1  0  0  0  0
  7 20  1  0  0  0  0
  8  9  2  0  0  0  0
  8 21  1  0  0  0  0
  9 10  1  0  0  0  0
  9 22  1  0  0  0  0
 10 11  2  0  0  0  0
 10 23  1  0  0  0  0
 11 24  1  0  0  0  0
 11 25  1  0  0  0  0
M  END
>  <DRUGBANK_ID>
DB15618

>  <COMMON_NAME>
(5E,7E,9)-decatrien-2-one

$$$$
