
 OpenBabel10282417113D

 48 51  0  0  1  0  0  0  0  0999 V2000
   -9.4871   -5.2326    3.7015 C   0  0  0  0  0  0  0  0  0  0  0  0
   -9.2960   -6.3674    2.1941 C   0  0  2  0  0  0  0  0  0  0  0  0
   -9.1711   -5.6365    0.8637 C   0  0  0  0  0  0  0  0  0  0  0  0
   -8.4461   -4.4206    1.1402 C   0  0  0  0  0  0  0  0  0  0  0  0
   -7.1189   -4.9023    1.6801 C   0  0  1  0  0  0  0  0  0  0  0  0
   -7.0830   -5.9191    2.8349 C   0  0  2  0  0  0  0  0  0  0  0  0
   -8.5832   -7.0350    3.1821 C   0  0  2  0  0  0  0  0  0  0  0  0
  -10.5650   -7.0871    3.2408 C   0  0  0  0  0  0  0  0  0  0  0  0
  -11.2251   -7.4915    1.8486 C   0  0  0  0  0  0  0  0  0  0  0  0
   -9.8850   -7.9614    1.6694 C   0  0  2  0  0  0  0  0  0  0  0  0
   -9.9207   -9.2330    2.4106 O   0  0  0  0  0  0  0  0  0  0  0  0
   -5.4511   -6.0471    2.8148 C   0  0  0  0  0  0  0  0  0  0  0  0
   -4.6146   -4.4514    2.7968 C   0  0  0  0  0  0  0  0  0  0  0  0
   -5.0826   -2.9173    2.0849 C   0  0  0  0  0  0  0  0  0  0  0  0
   -5.8354   -1.6755    1.8220 C   0  0  0  0  0  0  0  0  0  0  0  0
   -7.4915   -1.2924    1.8904 C   0  0  2  0  0  0  0  0  0  0  0  0
   -7.9082   -2.1578    3.1614 C   0  0  0  0  0  0  0  0  0  0  0  0
   -6.7909   -3.0614    3.4280 C   0  0  0  0  0  0  0  0  0  0  0  0
   -6.3962   -3.6169    2.0128 C   0  0  2  0  0  0  0  0  0  0  0  0
   -7.5581   -1.4336    0.4236 O   0  0  0  0  0  0  0  0  0  0  0  0
   -8.5975   -5.0375    4.3108 H   0  0  0  0  0  0  0  0  0  0  0  0
  -10.0026   -5.6900    4.5920 H   0  0  0  0  0  0  0  0  0  0  0  0
  -10.0225   -4.3198    3.4945 H   0  0  0  0  0  0  0  0  0  0  0  0
  -10.1546   -5.3532    0.4875 H   0  0  0  0  0  0  0  0  0  0  0  0
   -8.6665   -6.1738    0.0588 H   0  0  0  0  0  0  0  0  0  0  0  0
   -9.0980   -3.8449    1.7760 H   0  0  0  0  0  0  0  0  0  0  0  0
   -8.3240   -3.7907    0.2570 H   0  0  0  0  0  0  0  0  0  0  0  0
   -6.6167   -5.3879    0.8202 H   0  0  0  0  0  0  0  0  0  0  0  0
   -7.0512   -5.4458    3.7979 H   0  0  0  0  0  0  0  0  0  0  0  0
   -8.1557   -8.0316    2.9532 H   0  0  0  0  0  0  0  0  0  0  0  0
  -11.0169   -7.6449    4.0778 H   0  0  0  0  0  0  0  0  0  0  0  0
  -11.1818   -6.1302    3.3204 H   0  0  0  0  0  0  0  0  0  0  0  0
  -12.0921   -8.1389    1.9312 H   0  0  0  0  0  0  0  0  0  0  0  0
  -11.4576   -6.7039    1.1135 H   0  0  0  0  0  0  0  0  0  0  0  0
   -9.3283   -8.2315    0.7815 H   0  0  0  0  0  0  0  0  0  0  0  0
   -9.9326   -9.1481    3.3811 H   0  0  0  0  0  0  0  0  0  0  0  0
   -5.1526   -6.6554    3.6798 H   0  0  0  0  0  0  0  0  0  0  0  0
   -5.0105   -6.5662    1.9483 H   0  0  0  0  0  0  0  0  0  0  0  0
   -4.4828   -4.2488    3.8775 H   0  0  0  0  0  0  0  0  0  0  0  0
   -3.5790   -4.6069    2.4531 H   0  0  0  0  0  0  0  0  0  0  0  0
   -5.3848   -0.6876    1.6856 H   0  0  0  0  0  0  0  0  0  0  0  0
   -8.5411   -1.5616    1.6439 H   0  0  0  0  0  0  0  0  0  0  0  0
   -8.8220   -2.7409    3.1051 H   0  0  0  0  0  0  0  0  0  0  0  0
   -8.0608   -1.5534    4.0508 H   0  0  0  0  0  0  0  0  0  0  0  0
   -6.8044   -3.7536    4.2580 H   0  0  0  0  0  0  0  0  0  0  0  0
   -6.0408   -2.3771    3.9002 H   0  0  0  0  0  0  0  0  0  0  0  0
   -6.5208   -3.2937    0.9475 H   0  0  0  0  0  0  0  0  0  0  0  0
   -7.1115   -0.6524    0.0579 H   0  0  0  0  0  0  0  0  0  0  0  0
  1 21  1  0  0  0  0
  1 22  1  0  0  0  0
  1 23  1  0  0  0  0
  2  3  1  0  0  0  0
  2  7  1  0  0  0  0
  2 10  1  0  0  0  0
  2  1  1  6  0  0  0
  3  4  1  0  0  0  0
  3 24  1  0  0  0  0
  3 25  1  0  0  0  0
  4 26  1  0  0  0  0
  4 27  1  0  0  0  0
  5  4  1  0  0  0  0
  5  6  1  0  0  0  0
  5 19  1  0  0  0  0
  5 28  1  1  0  0  0
  6  7  1  0  0  0  0
  6 12  1  0  0  0  0
  6 29  1  6  0  0  0
  7  8  1  0  0  0  0
  7 30  1  1  0  0  0
  8  9  1  0  0  0  0
  8 31  1  0  0  0  0
  8 32  1  0  0  0  0
  9 10  1  0  0  0  0
  9 33  1  0  0  0  0
  9 34  1  0  0  0  0
 10 11  1  0  0  0  0
 10 35  1  6  0  0  0
 11 36  1  0  0  0  0
 12 13  1  0  0  0  0
 12 37  1  0  0  0  0
 12 38  1  0  0  0  0
 13 14  1  0  0  0  0
 13 39  1  0  0  0  0
 13 40  1  0  0  0  0
 14 15  2  0  0  0  0
 14 19  1  0  0  0  0
 15 16  1  0  0  0  0
 15 41  1  0  0  0  0
 16 17  1  0  0  0  0
 16 42  1  1  0  0  0
 16 20  1  0  0  0  0
 17 18  1  0  0  0  0
 17 43  1  0  0  0  0
 17 44  1  0  0  0  0
 18 45  1  0  0  0  0
 18 46  1  0  0  0  0
 19 18  1  0  0  0  0
 19 47  1  6  0  0  0
 20 48  1  0  0  0  0
M  END
>  <DRUGBANK_ID>
DB01554

>  <COMMON_NAME>
Bolandiol

>  <CAS_NUMBER>
19793-20-5

>  <UNII>
49SD6G16U5

>  <SYNONYMS>
19-nor-4-androstenediol; 3beta,17beta-dihydroxyestr-4-ene; 4-norendiol; Bolandiol

$$$$
