
 OpenBabel10282417123D

 28 29  0  0  1  0  0  0  0  0999 V2000
    2.1674   -0.2926    0.0073 C   0  0  0  0  0  0  0  0  0  0  0  0
   -0.8766    2.8976   -1.5145 C   0  0  0  0  0  0  0  0  0  0  0  0
    0.0363    0.8025    0.4464 C   0  0  0  0  0  0  0  0  0  0  0  0
   -2.9401    2.1442   -2.5335 C   0  0  0  0  0  0  0  0  0  0  0  0
   -1.3553    3.4221    1.6043 C   0  0  0  0  0  0  0  0  0  0  0  0
   -2.0433    2.2423   -1.3647 C   0  0  0  0  0  0  0  0  0  0  0  0
   -1.2939    0.5296    0.2240 C   0  0  0  0  0  0  0  0  0  0  0  0
   -0.2911    3.7010    0.8235 C   0  0  0  0  0  0  0  0  0  0  0  0
   -2.4294    1.5170   -0.1025 C   0  0  1  0  0  0  0  0  0  0  0  0
    0.9053    4.0317    1.6994 C   0  0  0  0  0  0  0  0  0  0  0  0
   -0.0717    3.4968   -0.5561 N   0  0  0  0  0  0  0  0  0  0  0  0
   -1.3534   -0.8271   -0.0478 N   0  0  0  0  0  0  0  0  0  0  0  0
   -0.1030   -1.3220   -0.0918 N   0  0  0  0  0  0  0  0  0  0  0  0
    0.7319   -0.3031    0.1260 N   0  0  0  0  0  0  0  0  0  0  0  0
   -4.1089    1.7899   -2.4409 O   0  0  0  0  0  0  0  0  0  0  0  0
    0.9272    4.2047    2.8913 O   0  0  0  0  0  0  0  0  0  0  0  0
    2.0584    4.0134    0.9877 O   0  0  0  0  0  0  0  0  0  0  0  0
   -2.8726    2.7539    1.1483 S   0  0  0  0  0  0  0  0  0  0  0  0
   -3.3472    0.9311   -0.2347 H   0  0  0  0  0  0  0  0  0  0  0  0
    2.5791   -0.7453    0.9071 H   0  0  0  0  0  0  0  0  0  0  0  0
    2.4871   -0.7706   -0.9165 H   0  0  0  0  0  0  0  0  0  0  0  0
    2.5115    0.7562   -0.0267 H   0  0  0  0  0  0  0  0  0  0  0  0
   -0.3885    2.8322   -2.4896 H   0  0  0  0  0  0  0  0  0  0  0  0
    0.6238    1.6760    0.5712 H   0  0  0  0  0  0  0  0  0  0  0  0
   -2.5324    2.5183   -3.4871 H   0  0  0  0  0  0  0  0  0  0  0  0
   -1.2763    3.5270    2.6834 H   0  0  0  0  0  0  0  0  0  0  0  0
    0.9278    3.5124   -0.7866 H   0  0  0  0  0  0  0  0  0  0  0  0
    2.7154    4.2621    1.6778 H   0  0  0  0  0  0  0  0  0  0  0  0
  1 20  1  0  0  0  0
  1 21  1  0  0  0  0
  1 22  1  0  0  0  0
  2 23  1  0  0  0  0
  3 24  1  0  0  0  0
  4 25  1  0  0  0  0
  5 26  1  0  0  0  0
  6  2  2  0  0  0  0
  6  4  1  0  0  0  0
  7  3  2  0  0  0  0
  8  5  2  0  0  0  0
  9  6  1  0  0  0  0
  9  7  1  0  0  0  0
  9 19  1  6  0  0  0
 10  8  1  0  0  0  0
 11  2  1  0  0  0  0
 11  8  1  0  0  0  0
 11 27  1  0  0  0  0
 12  7  1  0  0  0  0
 13 12  2  0  0  0  0
 14  1  1  0  0  0  0
 14  3  1  0  0  0  0
 14 13  1  0  0  0  0
 15  4  2  0  0  0  0
 16 10  2  0  0  0  0
 17 10  1  0  0  0  0
 17 28  1  0  0  0  0
 18  5  1  0  0  0  0
 18  9  1  0  0  0  0
M  END
>  <DRUGBANK_ID>
DB02816

>  <SECONDARY_ACCESSION_NUMBERS>
EXPT01416

>  <COMMON_NAME>
7-(1-Methyl-1,2,3-Triazol-4-Yl)-6-Formyl-2,7-Dihydro-[1,4]Thiazepine-3-Carboxylic Acid, Brl42715, C6-(N1-Methyl-1,2,3-Triazolylmethylene)Penem

$$$$
