
 OpenBabel10282417203D

 68 72  0  0  1  0  0  0  0  0999 V2000
    0.6680    1.2735    0.0002 C   0  0  0  0  0  0  0  0  0  0  0  0
    4.8586  -10.1112    2.0202 C   0  0  0  0  0  0  0  0  0  0  0  0
    0.3152   -5.4179    2.5055 C   0  0  0  0  0  0  0  0  0  0  0  0
    4.7183   -4.7835   -1.7740 C   0  0  0  0  0  0  0  0  0  0  0  0
    1.3972    0.1007   -0.0201 C   0  0  0  0  0  0  0  0  0  0  0  0
    4.7799   -9.1882    3.0523 C   0  0  0  0  0  0  0  0  0  0  0  0
    1.3362   -4.7996    3.2704 C   0  0  0  0  0  0  0  0  0  0  0  0
    5.5052   -5.0440   -0.6404 C   0  0  0  0  0  0  0  0  0  0  0  0
   -0.7166    1.1781   -0.0016 C   0  0  0  0  0  0  0  0  0  0  0  0
    4.4160  -11.3746    2.3022 C   0  0  0  0  0  0  0  0  0  0  0  0
   -0.7480   -4.6547    2.1696 C   0  0  0  0  0  0  0  0  0  0  0  0
    4.1549   -5.8345   -2.4513 C   0  0  0  0  0  0  0  0  0  0  0  0
   -0.6857   -1.1132   -0.0232 C   0  0  0  0  0  0  0  0  0  0  0  0
    3.6102  -10.7212    4.3834 C   0  0  0  0  0  0  0  0  0  0  0  0
    0.3774   -2.7578    2.9959 C   0  0  0  0  0  0  0  0  0  0  0  0
    5.4112   -7.3049   -1.1868 C   0  0  0  0  0  0  0  0  0  0  0  0
    3.3679   -3.3917    0.1377 C   0  0  0  0  0  0  0  0  0  0  0  0
    2.5151   -7.3562    3.1194 C   0  0  0  0  0  0  0  0  0  0  0  0
    0.6943   -1.1064   -0.0370 C   0  0  0  0  0  0  0  0  0  0  0  0
    4.0256   -9.4396    4.1784 C   0  0  0  0  0  0  0  0  0  0  0  0
    1.4628   -3.4535    3.4482 C   0  0  0  0  0  0  0  0  0  0  0  0
    5.7885   -6.3309   -0.2780 C   0  0  0  0  0  0  0  0  0  0  0  0
    3.3081   -4.3687    1.2784 C   0  0  2  0  0  0  0  0  0  0  0  0
    4.3784   -4.3216    2.3235 C   0  0  2  0  0  0  0  0  0  0  0  0
    4.6286   -5.8046    2.6390 C   0  0  1  0  0  0  0  0  0  0  0  0
    1.3394   -2.3935   -0.0458 C   0  0  0  0  0  0  0  0  0  0  0  0
    3.6683   -8.3404    5.0829 C   0  0  0  0  0  0  0  0  0  0  0  0
    2.7963   -2.9079    3.8686 C   0  0  0  0  0  0  0  0  0  0  0  0
    6.5072   -6.5982    0.9828 C   0  0  0  0  0  0  0  0  0  0  0  0
    3.4340   -6.6173    2.0136 C   0  0  1  0  0  0  0  0  0  0  0  0
   -1.4103    0.0167   -0.0094 N   0  0  0  0  0  0  0  0  0  0  0  0
    3.8297  -11.7097    3.4773 N   0  0  0  0  0  0  0  0  0  0  0  0
   -0.7398   -3.3294    2.4136 N   0  0  0  0  0  0  0  0  0  0  0  0
    4.5518   -7.0950   -2.2274 N   0  0  0  0  0  0  0  0  0  0  0  0
    0.7951   -3.4586   -0.3294 O   0  0  0  0  0  0  0  0  0  0  0  0
    3.9243   -8.3319    6.2530 O   0  0  0  0  0  0  0  0  0  0  0  0
    2.8074   -1.9586    4.6400 O   0  0  0  0  0  0  0  0  0  0  0  0
    7.5582   -7.2194    0.9382 O   0  0  0  0  0  0  0  0  0  0  0  0
    3.7196   -7.6971    1.1492 O   0  0  0  0  0  0  0  0  0  0  0  0
    2.6157   -2.2149    0.3392 O   0  0  0  0  0  0  0  0  0  0  0  0
    3.0853   -7.2953    4.4499 O   0  0  0  0  0  0  0  0  0  0  0  0
    3.9890   -3.4810    3.4743 O   0  0  0  0  0  0  0  0  0  0  0  0
    5.9719   -6.2352    2.1821 O   0  0  0  0  0  0  0  0  0  0  0  0
    2.8929   -5.7169    1.0420 O   0  0  0  0  0  0  0  0  0  0  0  0
    2.4144   -3.9680    1.6424 H   0  0  0  0  0  0  0  0  0  0  0  0
    5.3328   -3.8954    1.9910 H   0  0  0  0  0  0  0  0  0  0  0  0
    4.6727   -5.8861    3.7331 H   0  0  0  0  0  0  0  0  0  0  0  0
    1.1644    2.2359    0.0161 H   0  0  0  0  0  0  0  0  0  0  0  0
    5.2247   -9.8603    1.0283 H   0  0  0  0  0  0  0  0  0  0  0  0
    0.3371   -6.4439    2.1249 H   0  0  0  0  0  0  0  0  0  0  0  0
    4.3847   -3.7796   -2.0319 H   0  0  0  0  0  0  0  0  0  0  0  0
    2.4848    0.1345   -0.0187 H   0  0  0  0  0  0  0  0  0  0  0  0
    5.2272   -8.2157    2.9748 H   0  0  0  0  0  0  0  0  0  0  0  0
    2.2456   -5.2703    3.5835 H   0  0  0  0  0  0  0  0  0  0  0  0
    5.8283   -4.2605    0.0311 H   0  0  0  0  0  0  0  0  0  0  0  0
   -1.3338    2.0680    0.0024 H   0  0  0  0  0  0  0  0  0  0  0  0
    4.5605  -12.1657    1.5744 H   0  0  0  0  0  0  0  0  0  0  0  0
   -1.6037   -5.1223    1.6887 H   0  0  0  0  0  0  0  0  0  0  0  0
    3.3596   -5.6562   -3.1737 H   0  0  0  0  0  0  0  0  0  0  0  0
   -1.2398   -2.0499    0.0030 H   0  0  0  0  0  0  0  0  0  0  0  0
    3.1013  -10.9930    5.2988 H   0  0  0  0  0  0  0  0  0  0  0  0
    0.3893   -1.6792    2.9933 H   0  0  0  0  0  0  0  0  0  0  0  0
    5.7612   -8.3252   -1.1003 H   0  0  0  0  0  0  0  0  0  0  0  0
    2.9276   -3.9191   -0.7046 H   0  0  0  0  0  0  0  0  0  0  0  0
    4.3600   -2.9895   -0.0416 H   0  0  0  0  0  0  0  0  0  0  0  0
    1.5674   -6.9494    3.3918 H   0  0  0  0  0  0  0  0  0  0  0  0
    2.1087   -8.3249    2.8011 H   0  0  0  0  0  0  0  0  0  0  0  0
    4.6628   -7.8517    1.1374 H   0  0  0  0  0  0  0  0  0  0  0  0
  1 48  1  0  0  0  0
  2 49  1  0  0  0  0
  3 50  1  0  0  0  0
  4 51  1  0  0  0  0
  5  1  2  0  0  0  0
  5 52  1  0  0  0  0
  6  2  2  0  0  0  0
  6 53  1  0  0  0  0
  7  3  2  0  0  0  0
  7 54  1  0  0  0  0
  8  4  2  0  0  0  0
  8 55  1  0  0  0  0
  9  1  1  0  0  0  0
  9 56  1  0  0  0  0
 10  2  1  0  0  0  0
 10 57  1  0  0  0  0
 11  3  1  0  0  0  0
 11 58  1  0  0  0  0
 12  4  1  0  0  0  0
 12 59  1  0  0  0  0
 13 60  1  0  0  0  0
 14 61  1  0  0  0  0
 15 62  1  0  0  0  0
 16 63  1  0  0  0  0
 17 64  1  0  0  0  0
 17 65  1  0  0  0  0
 18 66  1  0  0  0  0
 18 67  1  0  0  0  0
 19  5  1  0  0  0  0
 19 13  2  0  0  0  0
 20  6  1  0  0  0  0
 20 14  2  0  0  0  0
 21  7  1  0  0  0  0
 21 15  2  0  0  0  0
 22  8  1  0  0  0  0
 22 16  2  0  0  0  0
 23 17  1  0  0  0  0
 23 45  1  1  0  0  0
 24 23  1  0  0  0  0
 24 46  1  6  0  0  0
 24 42  1  0  0  0  0
 25 24  1  0  0  0  0
 25 43  1  0  0  0  0
 25 47  1  1  0  0  0
 26 19  1  0  0  0  0
 27 20  1  0  0  0  0
 28 21  1  0  0  0  0
 29 22  1  0  0  0  0
 30 25  1  0  0  0  0
 30 39  1  6  0  0  0
 30 18  1  0  0  0  0
 31  9  2  0  0  0  0
 31 13  1  0  0  0  0
 32 10  2  0  0  0  0
 32 14  1  0  0  0  0
 33 11  2  0  0  0  0
 33 15  1  0  0  0  0
 34 12  2  0  0  0  0
 34 16  1  0  0  0  0
 35 26  2  0  0  0  0
 36 27  2  0  0  0  0
 37 28  2  0  0  0  0
 38 29  2  0  0  0  0
 39 68  1  0  0  0  0
 40 17  1  0  0  0  0
 40 26  1  0  0  0  0
 41 18  1  0  0  0  0
 41 27  1  0  0  0  0
 42 28  1  0  0  0  0
 43 29  1  0  0  0  0
 44 23  1  0  0  0  0
 44 30  1  0  0  0  0
M  END
>  <DRUGBANK_ID>
DB13422

>  <COMMON_NAME>
Nicofuranose

>  <CAS_NUMBER>
15351-13-0

>  <UNII>
GF99P6327K

>  <SYNONYMS>
Nicofuranose

$$$$
