282
 OpenBabel10282417103D

 24 23  0  0  0  0  0  0  0  0999 V2000
    1.0404   -0.0832    0.0381 P   0  0  0  0  0  0  0  0  0  0  0  0
    3.4804    0.2735    1.7262 P   0  0  0  0  0  0  0  0  0  0  0  0
    3.4469   -1.3858   -0.2749 O   0  0  0  0  0  0  0  0  0  0  0  0
    1.1531   -1.3907   -0.9811 O   0  0  0  0  0  0  0  0  0  0  0  0
    1.1795   -1.0530    1.3815 O   0  0  0  0  0  0  0  0  0  0  0  0
    4.8546    0.8565    1.0289 O   0  0  0  0  0  0  0  0  0  0  0  0
    2.6128    1.6826    1.6217 O   0  0  0  0  0  0  0  0  0  0  0  0
   -0.5080   -0.0832    0.0381 O   0  0  0  0  0  0  0  0  0  0  0  0
    3.9965    0.5753    3.1544 O   0  0  0  0  0  0  0  0  0  0  0  0
    1.4174    1.0070   -2.7286 N   0  0  0  0  0  0  0  0  0  0  0  0
    2.8704   -0.0832    0.0381 C   0  0  0  0  0  0  0  0  0  0  0  0
    3.3134    0.9458   -1.0494 C   0  0  0  0  0  0  0  0  0  0  0  0
    2.8195    0.6987   -2.4708 C   0  0  0  0  0  0  0  0  0  0  0  0
    2.7300   -2.0171   -0.0460 H   0  0  0  0  0  0  0  0  0  0  0  0
    0.6539   -1.3441   -1.8225 H   0  0  0  0  0  0  0  0  0  0  0  0
    0.9205   -0.6816    2.2504 H   0  0  0  0  0  0  0  0  0  0  0  0
    5.6681    0.4421    1.3812 H   0  0  0  0  0  0  0  0  0  0  0  0
    1.7032    1.7087    1.9868 H   0  0  0  0  0  0  0  0  0  0  0  0
    1.1951    0.7144   -3.6824 H   0  0  0  0  0  0  0  0  0  0  0  0
    0.7265    0.5434   -2.1569 H   0  0  0  0  0  0  0  0  0  0  0  0
    3.0184    1.9575   -0.7427 H   0  0  0  0  0  0  0  0  0  0  0  0
    4.4067    0.9507   -1.1288 H   0  0  0  0  0  0  0  0  0  0  0  0
    3.3896    1.3728   -3.1217 H   0  0  0  0  0  0  0  0  0  0  0  0
    3.0666   -0.3209   -2.7799 H   0  0  0  0  0  0  0  0  0  0  0  0
  1  4  1  0  0  0  0
  1  5  1  0  0  0  0
  1  8  2  0  0  0  0
  1 11  1  0  0  0  0
  2  6  1  0  0  0  0
  2  7  1  0  0  0  0
  2  9  2  0  0  0  0
  2 11  1  0  0  0  0
  3 11  1  0  0  0  0
  3 14  1  0  0  0  0
  4 15  1  0  0  0  0
  5 16  1  0  0  0  0
  6 17  1  0  0  0  0
  7 18  1  0  0  0  0
 10 13  1  0  0  0  0
 10 19  1  0  0  0  0
 10 20  1  0  0  0  0
 11 12  1  0  0  0  0
 12 13  1  0  0  0  0
 12 21  1  0  0  0  0
 12 22  1  0  0  0  0
 13 23  1  0  0  0  0
 13 24  1  0  0  0  0
M  END
>  <DRUGBANK_ID>
DB00282

>  <SECONDARY_ACCESSION_NUMBERS>
APRD01161

>  <COMMON_NAME>
Pamidronic acid

>  <CAS_NUMBER>
40391-99-9

>  <UNII>
OYY3447OMC

>  <SYNONYMS>
Acide pamidronique; Acido pamidronico; Acidum pamidronicum; Pamidronate; Pamidronic acid

$$$$
