N69
 OpenBabel10282417173D

 44 46  0  0  0  0  0  0  0  0999 V2000
   -3.0507   -0.5904    0.1864 N   0  0  0  0  0  0  0  0  0  0  0  0
   -1.7436   -0.1999   -0.0230 C   0  0  0  0  0  0  0  0  0  0  0  0
   -1.5366    1.1169   -0.1831 N   0  0  0  0  0  0  0  0  0  0  0  0
   -0.8161   -1.1718   -0.0156 N   0  0  0  0  0  0  0  0  0  0  0  0
    0.4090   -0.6958   -0.3083 C   0  0  0  0  0  0  0  0  0  0  0  0
    1.6070   -1.3658   -0.1890 N   0  0  0  0  0  0  0  0  0  0  0  0
    2.6209   -0.4482   -0.4030 C   0  0  0  0  0  0  0  0  0  0  0  0
    4.0932   -0.7136   -0.1829 C   0  0  0  0  0  0  0  0  0  0  0  0
    4.8200   -0.0817   -1.3669 C   0  0  0  0  0  0  0  0  0  0  0  0
    4.7014   -0.1404    1.1123 C   0  0  0  0  0  0  0  0  0  0  0  0
    0.7389    0.6003   -0.6440 C   0  0  0  0  0  0  0  0  0  0  0  0
    2.1094    0.6900   -0.8457 N   0  0  0  0  0  0  0  0  0  0  0  0
   -0.2757    1.5610   -0.4543 C   0  0  0  0  0  0  0  0  0  0  0  0
   -0.0953    2.9226   -0.2172 O   0  0  0  0  0  0  0  0  0  0  0  0
    1.2519    3.3826   -0.0122 C   0  0  0  0  0  0  0  0  0  0  0  0
    1.9117    3.0271    1.3653 C   0  0  0  0  0  0  0  0  0  0  0  0
    1.5235    1.6533    1.8917 C   0  0  0  0  0  0  0  0  0  0  0  0
    2.0817    1.1809    3.1937 C   0  0  0  0  0  0  0  0  0  0  0  0
    1.6176    2.1451    4.2371 C   0  0  0  0  0  0  0  0  0  0  0  0
    2.0747    3.5534    3.8490 C   0  0  0  0  0  0  0  0  0  0  0  0
    1.5566    4.0216    2.4725 C   0  0  0  0  0  0  0  0  0  0  0  0
   -3.7363    0.1161   -0.0282 H   0  0  0  0  0  0  0  0  0  0  0  0
   -3.2380   -1.5647    0.0245 H   0  0  0  0  0  0  0  0  0  0  0  0
    1.7117   -2.3189    0.1095 H   0  0  0  0  0  0  0  0  0  0  0  0
    4.2657   -1.7952   -0.1711 H   0  0  0  0  0  0  0  0  0  0  0  0
    4.7061    1.0110   -1.3490 H   0  0  0  0  0  0  0  0  0  0  0  0
    5.8866   -0.3121   -1.3553 H   0  0  0  0  0  0  0  0  0  0  0  0
    4.3850   -0.4425   -2.3039 H   0  0  0  0  0  0  0  0  0  0  0  0
    4.2712   -0.5873    2.0147 H   0  0  0  0  0  0  0  0  0  0  0  0
    5.7818   -0.3467    1.1496 H   0  0  0  0  0  0  0  0  0  0  0  0
    4.5950    0.9488    1.1852 H   0  0  0  0  0  0  0  0  0  0  0  0
    1.8721    3.0804   -0.8641 H   0  0  0  0  0  0  0  0  0  0  0  0
    1.2149    4.4786   -0.0970 H   0  0  0  0  0  0  0  0  0  0  0  0
    3.0007    3.0695    1.2094 H   0  0  0  0  0  0  0  0  0  0  0  0
    0.4342    1.5649    1.9426 H   0  0  0  0  0  0  0  0  0  0  0  0
    1.9492    0.9215    1.2600 H   0  0  0  0  0  0  0  0  0  0  0  0
    1.7113    0.1616    3.3684 H   0  0  0  0  0  0  0  0  0  0  0  0
    3.1729    1.1253    3.1395 H   0  0  0  0  0  0  0  0  0  0  0  0
    0.5230    2.1013    4.2968 H   0  0  0  0  0  0  0  0  0  0  0  0
    2.0228    1.8305    5.2007 H   0  0  0  0  0  0  0  0  0  0  0  0
    1.7404    4.2509    4.6178 H   0  0  0  0  0  0  0  0  0  0  0  0
    3.1723    3.5667    3.8305 H   0  0  0  0  0  0  0  0  0  0  0  0
    1.9811    5.0049    2.2384 H   0  0  0  0  0  0  0  0  0  0  0  0
    0.4677    4.1363    2.5102 H   0  0  0  0  0  0  0  0  0  0  0  0
  1  2  1  0  0  0  0
  1 22  1  0  0  0  0
  1 23  1  0  0  0  0
  2  3  2  0  0  0  0
  2  4  1  0  0  0  0
  3 13  1  0  0  0  0
  4  5  2  0  0  0  0
  5  6  1  0  0  0  0
  5 11  1  0  0  0  0
  6  7  1  0  0  0  0
  6 24  1  0  0  0  0
  7  8  1  0  0  0  0
  7 12  2  0  0  0  0
  8  9  1  0  0  0  0
  8 10  1  0  0  0  0
  8 25  1  0  0  0  0
  9 26  1  0  0  0  0
  9 27  1  0  0  0  0
  9 28  1  0  0  0  0
 10 29  1  0  0  0  0
 10 30  1  0  0  0  0
 10 31  1  0  0  0  0
 11 12  1  0  0  0  0
 11 13  2  0  0  0  0
 13 14  1  0  0  0  0
 14 15  1  0  0  0  0
 15 16  1  0  0  0  0
 15 32  1  0  0  0  0
 15 33  1  0  0  0  0
 16 17  1  0  0  0  0
 16 21  1  0  0  0  0
 16 34  1  0  0  0  0
 17 18  1  0  0  0  0
 17 35  1  0  0  0  0
 17 36  1  0  0  0  0
 18 19  1  0  0  0  0
 18 37  1  0  0  0  0
 18 38  1  0  0  0  0
 19 20  1  0  0  0  0
 19 39  1  0  0  0  0
 19 40  1  0  0  0  0
 20 21  1  0  0  0  0
 20 41  1  0  0  0  0
 20 42  1  0  0  0  0
 21 43  1  0  0  0  0
 21 44  1  0  0  0  0
M  END
>  <DRUGBANK_ID>
DB08247

>  <COMMON_NAME>
6-(CYCLOHEXYLMETHOXY)-8-ISOPROPYL-9H-PURIN-2-AMINE

$$$$
