VII
 OpenBabel10282417173D

 35 37  0  0  0  0  0  0  0  0999 V2000
    1.3804   -0.1970    0.1291 C   0  0  0  0  0  0  0  0  0  0  0  0
    0.4988   -1.2833    0.0879 C   0  0  0  0  0  0  0  0  0  0  0  0
   -0.8719   -1.0606    0.0268 C   0  0  0  0  0  0  0  0  0  0  0  0
   -1.3562    0.2482    0.0424 C   0  0  0  0  0  0  0  0  0  0  0  0
   -0.4700    1.3406    0.0883 C   0  0  0  0  0  0  0  0  0  0  0  0
    0.9156    1.1301    0.0522 C   0  0  0  0  0  0  0  0  0  0  0  0
    1.8613    2.1814   -0.3720 C   0  0  0  0  0  0  0  0  0  0  0  0
    2.0618    3.2613    0.4522 O   0  0  0  0  0  0  0  0  0  0  0  0
    2.6513    2.2926   -1.5195 C   0  0  0  0  0  0  0  0  0  0  0  0
    2.6795    1.3411   -2.6275 C   0  0  0  0  0  0  0  0  0  0  0  0
    3.3899    1.3807   -3.6254 O   0  0  0  0  0  0  0  0  0  0  0  0
    1.8385    0.2934   -2.5383 O   0  0  0  0  0  0  0  0  0  0  0  0
    3.4004    3.5218   -1.3633 C   0  0  0  0  0  0  0  0  0  0  0  0
    4.3800    4.1414   -2.2426 C   0  0  0  0  0  0  0  0  0  0  0  0
    4.9850    5.1866   -2.0377 O   0  0  0  0  0  0  0  0  0  0  0  0
    4.6219    3.4821   -3.3833 O   0  0  0  0  0  0  0  0  0  0  0  0
    2.9991    4.0718   -0.1491 C   0  0  0  0  0  0  0  0  0  0  0  0
    3.3053    5.3577    0.4991 C   0  0  0  0  0  0  0  0  0  0  0  0
    3.1266    6.5433   -0.2374 C   0  0  0  0  0  0  0  0  0  0  0  0
    3.4200    7.7986    0.3007 C   0  0  0  0  0  0  0  0  0  0  0  0
    3.8731    7.8969    1.6093 C   0  0  0  0  0  0  0  0  0  0  0  0
    4.0550    6.7361    2.3626 C   0  0  0  0  0  0  0  0  0  0  0  0
    3.8213    5.4694    1.7963 C   0  0  0  0  0  0  0  0  0  0  0  0
    2.4491   -0.3971    0.0968 H   0  0  0  0  0  0  0  0  0  0  0  0
    0.8903   -2.2966    0.0426 H   0  0  0  0  0  0  0  0  0  0  0  0
   -1.5573   -1.9035   -0.0353 H   0  0  0  0  0  0  0  0  0  0  0  0
   -2.4293    0.4167   -0.0266 H   0  0  0  0  0  0  0  0  0  0  0  0
   -0.8800    2.3470    0.0884 H   0  0  0  0  0  0  0  0  0  0  0  0
    2.0408   -0.2393   -3.3328 H   0  0  0  0  0  0  0  0  0  0  0  0
    5.2974    3.9956   -3.8643 H   0  0  0  0  0  0  0  0  0  0  0  0
    2.7879    6.4956   -1.2696 H   0  0  0  0  0  0  0  0  0  0  0  0
    3.2867    8.6904   -0.3062 H   0  0  0  0  0  0  0  0  0  0  0  0
    4.0928    8.8733    2.0349 H   0  0  0  0  0  0  0  0  0  0  0  0
    4.3790    6.8231    3.3974 H   0  0  0  0  0  0  0  0  0  0  0  0
    4.0729    4.5838    2.3747 H   0  0  0  0  0  0  0  0  0  0  0  0
  1  2  2  0  0  0  0
  1  6  1  0  0  0  0
  1 24  1  0  0  0  0
  2  3  1  0  0  0  0
  2 25  1  0  0  0  0
  3  4  2  0  0  0  0
  3 26  1  0  0  0  0
  4  5  1  0  0  0  0
  4 27  1  0  0  0  0
  5  6  2  0  0  0  0
  5 28  1  0  0  0  0
  6  7  1  0  0  0  0
  7  8  1  0  0  0  0
  7  9  2  0  0  0  0
  8 17  1  0  0  0  0
  9 10  1  0  0  0  0
  9 13  1  0  0  0  0
 10 11  2  0  0  0  0
 10 12  1  0  0  0  0
 12 29  1  0  0  0  0
 13 14  1  0  0  0  0
 13 17  2  0  0  0  0
 14 15  2  0  0  0  0
 14 16  1  0  0  0  0
 16 30  1  0  0  0  0
 17 18  1  0  0  0  0
 18 19  2  0  0  0  0
 18 23  1  0  0  0  0
 19 20  1  0  0  0  0
 19 31  1  0  0  0  0
 20 21  2  0  0  0  0
 20 32  1  0  0  0  0
 21 22  1  0  0  0  0
 21 33  1  0  0  0  0
 22 23  2  0  0  0  0
 22 34  1  0  0  0  0
 23 35  1  0  0  0  0
M  END
>  <DRUGBANK_ID>
DB08702

>  <COMMON_NAME>
2,5-DIPHENYLFURAN-3,4-DICARBOXYLIC ACID

>  <UNII>
WF06BEU369

$$$$
