
 OpenBabel10282417193D

 32 34  0  0  0  0  0  0  0  0999 V2000
    1.0875    0.0807    0.0027 C   0  0  0  0  0  0  0  0  0  0  0  0
    0.4878   -1.3365    0.0456 C   0  0  0  0  0  0  0  0  0  0  0  0
   -0.6724   -1.3965   -0.9640 C   0  0  0  0  0  0  0  0  0  0  0  0
    0.0475   -1.6428    1.4858 C   0  0  0  0  0  0  0  0  0  0  0  0
   -0.5971   -3.0140    1.5447 C   0  0  0  0  0  0  0  0  0  0  0  0
    0.2309   -3.9952    0.7787 C   0  0  0  0  0  0  0  0  0  0  0  0
    1.2018   -3.6298   -0.0796 C   0  0  0  0  0  0  0  0  0  0  0  0
    1.4916   -2.2970   -0.3703 O   0  0  0  0  0  0  0  0  0  0  0  0
    2.0010   -4.6361   -0.8113 C   0  0  0  0  0  0  0  0  0  0  0  0
    3.0112   -4.2705   -1.7160 C   0  0  0  0  0  0  0  0  0  0  0  0
    3.7539   -5.2446   -2.3981 C   0  0  0  0  0  0  0  0  0  0  0  0
    3.5003   -6.5986   -2.1924 C   0  0  0  0  0  0  0  0  0  0  0  0
    2.5012   -6.9823   -1.3083 C   0  0  0  0  0  0  0  0  0  0  0  0
    1.7610   -6.0074   -0.6278 C   0  0  0  0  0  0  0  0  0  0  0  0
    0.7085   -6.4605    0.2932 C   0  0  0  0  0  0  0  0  0  0  0  0
    0.4787   -7.6516    0.4717 O   0  0  0  0  0  0  0  0  0  0  0  0
   -0.0965   -5.4156    1.0220 C   0  0  0  0  0  0  0  0  0  0  0  0
   -0.9992   -5.7450    1.7838 O   0  0  0  0  0  0  0  0  0  0  0  0
    0.7136    0.6975    0.8295 H   0  0  0  0  0  0  0  0  0  0  0  0
    0.7972    0.6078   -0.9142 H   0  0  0  0  0  0  0  0  0  0  0  0
    2.1800    0.0740    0.0404 H   0  0  0  0  0  0  0  0  0  0  0  0
   -1.4688   -0.6990   -0.6910 H   0  0  0  0  0  0  0  0  0  0  0  0
   -0.3117   -1.1573   -1.9708 H   0  0  0  0  0  0  0  0  0  0  0  0
   -1.1062   -2.3978   -1.0485 H   0  0  0  0  0  0  0  0  0  0  0  0
    0.9262   -1.6421    2.1477 H   0  0  0  0  0  0  0  0  0  0  0  0
   -0.6511   -0.8905    1.8673 H   0  0  0  0  0  0  0  0  0  0  0  0
   -0.7125   -3.3183    2.5898 H   0  0  0  0  0  0  0  0  0  0  0  0
   -1.6031   -2.9758    1.1081 H   0  0  0  0  0  0  0  0  0  0  0  0
    3.2363   -3.2219   -1.9049 H   0  0  0  0  0  0  0  0  0  0  0  0
    4.5352   -4.9449   -3.0931 H   0  0  0  0  0  0  0  0  0  0  0  0
    4.0758   -7.3569   -2.7171 H   0  0  0  0  0  0  0  0  0  0  0  0
    2.2952   -8.0391   -1.1454 H   0  0  0  0  0  0  0  0  0  0  0  0
  1  2  1  0  0  0  0
  1 19  1  0  0  0  0
  1 20  1  0  0  0  0
  1 21  1  0  0  0  0
  2  3  1  0  0  0  0
  2  4  1  0  0  0  0
  2  8  1  0  0  0  0
  3 22  1  0  0  0  0
  3 23  1  0  0  0  0
  3 24  1  0  0  0  0
  4  5  1  0  0  0  0
  4 25  1  0  0  0  0
  4 26  1  0  0  0  0
  5  6  1  0  0  0  0
  5 27  1  0  0  0  0
  5 28  1  0  0  0  0
  6  7  2  0  0  0  0
  6 17  1  0  0  0  0
  7  8  1  0  0  0  0
  7  9  1  0  0  0  0
  9 10  2  0  0  0  0
  9 14  1  0  0  0  0
 10 11  1  0  0  0  0
 10 29  1  0  0  0  0
 11 12  2  0  0  0  0
 11 30  1  0  0  0  0
 12 13  1  0  0  0  0
 12 31  1  0  0  0  0
 13 14  2  0  0  0  0
 13 32  1  0  0  0  0
 14 15  1  0  0  0  0
 15 16  2  0  0  0  0
 15 17  1  0  0  0  0
 17 18  2  0  0  0  0
M  END
>  <DRUGBANK_ID>
DB11948

>  <SECONDARY_ACCESSION_NUMBERS>
DB05515

>  <COMMON_NAME>
Lapachone

>  <CAS_NUMBER>
4707-32-8

>  <UNII>
6N4FA2QQ6A

$$$$
