
 OpenBabel10282417203D

 28 29  0  0  1  0  0  0  0  0999 V2000
    5.0183    2.5056    0.0192 C   0  0  0  0  0  0  0  0  0  0  0  0
    3.7262    2.3943    0.3300 C   0  0  0  0  0  0  0  0  0  0  0  0
    2.7073    2.7469   -0.5490 N   0  0  0  0  0  0  0  0  0  0  0  0
    2.9951    3.3929   -1.7466 C   0  0  0  0  0  0  0  0  0  0  0  0
    2.1782    3.7360   -2.5959 O   0  0  0  0  0  0  0  0  0  0  0  0
    4.3332    3.6389   -1.9699 N   0  0  0  0  0  0  0  0  0  0  0  0
    5.3729    3.1090   -1.2673 C   0  0  0  0  0  0  0  0  0  0  0  0
    6.5393    3.1334   -1.6520 O   0  0  0  0  0  0  0  0  0  0  0  0
    1.3308    2.5147   -0.0897 C   0  0  1  0  0  0  0  0  0  0  0  0
    0.9676    3.3661    1.1197 C   0  0  2  0  0  0  0  0  0  0  0  0
   -0.5354    3.3270    1.1034 C   0  0  1  0  0  0  0  0  0  0  0  0
   -0.8567    3.3027   -0.3906 C   0  0  2  0  0  0  0  0  0  0  0  0
    0.2929    2.7147   -1.0649 O   0  0  0  0  0  0  0  0  0  0  0  0
   -1.0854    4.7001   -0.9742 C   0  0  0  0  0  0  0  0  0  0  0  0
   -1.4206    4.5897   -2.3566 O   0  0  0  0  0  0  0  0  0  0  0  0
   -0.9875    2.1420    1.7733 O   0  0  0  0  0  0  0  0  0  0  0  0
    1.3907    4.6466    0.9467 F   0  0  0  0  0  0  0  0  0  0  0  0
    5.8217    2.1958    0.6743 H   0  0  0  0  0  0  0  0  0  0  0  0
    3.4439    2.0149    1.3085 H   0  0  0  0  0  0  0  0  0  0  0  0
    4.5586    4.0937   -2.8404 H   0  0  0  0  0  0  0  0  0  0  0  0
    1.2599    1.4460    0.1538 H   0  0  0  0  0  0  0  0  0  0  0  0
    1.4141    2.9744    2.0372 H   0  0  0  0  0  0  0  0  0  0  0  0
   -0.9790    4.1827    1.6200 H   0  0  0  0  0  0  0  0  0  0  0  0
   -1.7242    2.6670   -0.6059 H   0  0  0  0  0  0  0  0  0  0  0  0
   -1.9125    5.2086   -0.4677 H   0  0  0  0  0  0  0  0  0  0  0  0
   -0.1889    5.3220   -0.9026 H   0  0  0  0  0  0  0  0  0  0  0  0
   -0.6690    4.1180   -2.7712 H   0  0  0  0  0  0  0  0  0  0  0  0
   -0.7150    1.3529    1.2723 H   0  0  0  0  0  0  0  0  0  0  0  0
  1  2  2  0  0  0  0
  1  7  1  0  0  0  0
  1 18  1  0  0  0  0
  2  3  1  0  0  0  0
  2 19  1  0  0  0  0
  3  4  1  0  0  0  0
  4  5  2  0  0  0  0
  4  6  1  0  0  0  0
  6  7  1  0  0  0  0
  6 20  1  0  0  0  0
  7  8  2  0  0  0  0
  9 10  1  0  0  0  0
  9 13  1  0  0  0  0
  9 21  1  1  0  0  0
  9  3  1  0  0  0  0
 10 11  1  0  0  0  0
 10 17  1  0  0  0  0
 10 22  1  1  0  0  0
 11 12  1  0  0  0  0
 11 16  1  0  0  0  0
 11 23  1  1  0  0  0
 12 13  1  0  0  0  0
 12 14  1  0  0  0  0
 12 24  1  6  0  0  0
 14 15  1  0  0  0  0
 14 25  1  0  0  0  0
 14 26  1  0  0  0  0
 15 27  1  0  0  0  0
 16 28  1  0  0  0  0
M  END
>  <DRUGBANK_ID>
DB13030

>  <COMMON_NAME>
2'-fluoro-5-ethylarabinosyluracil

>  <CAS_NUMBER>
69123-94-0

>  <UNII>
K7386OMP29

>  <SYNONYMS>
1-(2-Deoxy-2-fluoro-beta-D-arabinofuranosyl)uracil; 2'-Fluoro-5-ethyl-1-beta-D-arabinofuranosyluracil; FAU

$$$$
