
 OpenBabel10282417203D

 51 53  0  0  0  0  0  0  0  0999 V2000
    1.1351    0.0836    0.0588 C   0  0  0  0  0  0  0  0  0  0  0  0
    0.7720   -1.2297   -0.3081 O   0  0  0  0  0  0  0  0  0  0  0  0
    1.1019   -1.5424   -1.6057 C   0  0  0  0  0  0  0  0  0  0  0  0
    2.3844   -1.5811   -2.0861 C   0  0  0  0  0  0  0  0  0  0  0  0
    2.6215   -2.1174   -3.3545 C   0  0  0  0  0  0  0  0  0  0  0  0
    1.5913   -2.6887   -4.1065 C   0  0  0  0  0  0  0  0  0  0  0  0
    0.3022   -2.6823   -3.5971 C   0  0  0  0  0  0  0  0  0  0  0  0
    0.0597   -2.0079   -2.3913 C   0  0  0  0  0  0  0  0  0  0  0  0
   -1.1734   -1.8133   -1.8625 N   0  0  0  0  0  0  0  0  0  0  0  0
   -1.8008   -0.5030   -1.7025 C   0  0  0  0  0  0  0  0  0  0  0  0
   -2.6009   -0.5050   -0.3932 C   0  0  0  0  0  0  0  0  0  0  0  0
   -3.5365   -1.6229   -0.3191 N   0  0  0  0  0  0  0  0  0  0  0  0
   -2.7929   -2.9079   -0.3546 C   0  0  0  0  0  0  0  0  0  0  0  0
   -1.9155   -2.9849   -1.5959 C   0  0  0  0  0  0  0  0  0  0  0  0
   -4.5623   -1.5141   -1.3564 C   0  0  0  0  0  0  0  0  0  0  0  0
   -4.5889   -1.8312   -2.8767 C   0  0  0  0  0  0  0  0  0  0  0  0
   -4.3342   -3.3114   -3.2511 C   0  0  0  0  0  0  0  0  0  0  0  0
   -5.3078   -4.4108   -2.9497 C   0  0  0  0  0  0  0  0  0  0  0  0
   -5.2984   -5.4110   -3.7010 O   0  0  0  0  0  0  0  0  0  0  0  0
   -5.8999   -4.5583   -1.5681 C   0  0  0  0  0  0  0  0  0  0  0  0
   -6.6338   -3.5467   -0.9146 C   0  0  0  0  0  0  0  0  0  0  0  0
   -6.9349   -3.6205    0.4462 C   0  0  0  0  0  0  0  0  0  0  0  0
   -6.8748   -4.8580    1.0403 C   0  0  0  0  0  0  0  0  0  0  0  0
   -6.3070   -5.9344    0.3635 C   0  0  0  0  0  0  0  0  0  0  0  0
   -5.6755   -5.7456   -0.8709 C   0  0  0  0  0  0  0  0  0  0  0  0
   -7.4424   -5.0341    2.2387 F   0  0  0  0  0  0  0  0  0  0  0  0
    0.7087    0.2783    1.0476 H   0  0  0  0  0  0  0  0  0  0  0  0
    0.7335    0.8322   -0.6321 H   0  0  0  0  0  0  0  0  0  0  0  0
    2.2185    0.1497    0.1257 H   0  0  0  0  0  0  0  0  0  0  0  0
    3.1876   -1.2110   -1.4698 H   0  0  0  0  0  0  0  0  0  0  0  0
    3.6321   -2.1159   -3.7422 H   0  0  0  0  0  0  0  0  0  0  0  0
    1.7906   -3.1185   -5.0850 H   0  0  0  0  0  0  0  0  0  0  0  0
   -0.4958   -3.1798   -4.1495 H   0  0  0  0  0  0  0  0  0  0  0  0
   -1.0901    0.3201   -1.7212 H   0  0  0  0  0  0  0  0  0  0  0  0
   -2.4633   -0.2861   -2.5438 H   0  0  0  0  0  0  0  0  0  0  0  0
   -1.9183   -0.5964    0.4584 H   0  0  0  0  0  0  0  0  0  0  0  0
   -3.1612    0.4245   -0.2637 H   0  0  0  0  0  0  0  0  0  0  0  0
   -2.1993   -3.0378    0.5593 H   0  0  0  0  0  0  0  0  0  0  0  0
   -3.4914   -3.7561   -0.3341 H   0  0  0  0  0  0  0  0  0  0  0  0
   -2.4852   -2.7863   -2.4564 H   0  0  0  0  0  0  0  0  0  0  0  0
   -1.4838   -3.9769   -1.7813 H   0  0  0  0  0  0  0  0  0  0  0  0
   -5.0209   -2.3835   -1.0136 H   0  0  0  0  0  0  0  0  0  0  0  0
   -5.2660   -0.7044   -1.1255 H   0  0  0  0  0  0  0  0  0  0  0  0
   -5.5819   -1.5859   -3.2747 H   0  0  0  0  0  0  0  0  0  0  0  0
   -3.9323   -1.1414   -3.4213 H   0  0  0  0  0  0  0  0  0  0  0  0
   -3.8241   -3.3407   -4.2295 H   0  0  0  0  0  0  0  0  0  0  0  0
   -3.6124   -3.8471   -2.6491 H   0  0  0  0  0  0  0  0  0  0  0  0
   -6.8395   -2.5919   -1.3916 H   0  0  0  0  0  0  0  0  0  0  0  0
   -7.2658   -2.7443    0.9997 H   0  0  0  0  0  0  0  0  0  0  0  0
   -6.3934   -6.9277    0.7856 H   0  0  0  0  0  0  0  0  0  0  0  0
   -5.0635   -6.5396   -1.2965 H   0  0  0  0  0  0  0  0  0  0  0  0
  1  2  1  0  0  0  0
  1 27  1  0  0  0  0
  1 28  1  0  0  0  0
  1 29  1  0  0  0  0
  2  3  1  0  0  0  0
  3  4  2  0  0  0  0
  3  8  1  0  0  0  0
  4  5  1  0  0  0  0
  4 30  1  0  0  0  0
  5  6  2  0  0  0  0
  5 31  1  0  0  0  0
  6  7  1  0  0  0  0
  6 32  1  0  0  0  0
  7  8  2  0  0  0  0
  7 33  1  0  0  0  0
  8  9  1  0  0  0  0
  9 10  1  0  0  0  0
  9 14  1  0  0  0  0
 10 11  1  0  0  0  0
 10 34  1  0  0  0  0
 10 35  1  0  0  0  0
 11 12  1  0  0  0  0
 11 36  1  0  0  0  0
 11 37  1  0  0  0  0
 12 13  1  0  0  0  0
 12 15  1  0  0  0  0
 13 14  1  0  0  0  0
 13 38  1  0  0  0  0
 13 39  1  0  0  0  0
 14 40  1  0  0  0  0
 14 41  1  0  0  0  0
 15 16  1  0  0  0  0
 15 42  1  0  0  0  0
 15 43  1  0  0  0  0
 16 17  1  0  0  0  0
 16 44  1  0  0  0  0
 16 45  1  0  0  0  0
 17 18  1  0  0  0  0
 17 46  1  0  0  0  0
 17 47  1  0  0  0  0
 18 19  2  0  0  0  0
 18 20  1  0  0  0  0
 20 21  2  0  0  0  0
 20 25  1  0  0  0  0
 21 22  1  0  0  0  0
 21 48  1  0  0  0  0
 22 23  2  0  0  0  0
 22 49  1  0  0  0  0
 23 24  1  0  0  0  0
 23 26  1  0  0  0  0
 24 25  2  0  0  0  0
 24 50  1  0  0  0  0
 25 51  1  0  0  0  0
M  END
>  <DRUGBANK_ID>
DB13665

>  <COMMON_NAME>
Fluanisone

>  <CAS_NUMBER>
1480-19-9

>  <UNII>
1D0W98U1I4

>  <SYNONYMS>
Fluanisone

$$$$
