
 OpenBabel10282417203D

 24 23  0  0  1  0  0  0  0  0999 V2000
    1.4774   -1.2841    0.0408 C   0  0  0  0  0  0  0  0  0  0  0  0
    2.2177   -0.5677    1.1560 C   0  0  2  0  0  0  0  0  0  0  0  0
    3.1475    0.6582    0.8868 C   0  0  1  0  0  0  0  0  0  0  0  0
    3.5711    0.9982   -0.5615 C   0  0  1  0  0  0  0  0  0  0  0  0
    2.5355    1.6242   -1.5841 C   0  0  2  0  0  0  0  0  0  0  0  0
    1.1976    0.9548   -1.9458 C   0  0  0  0  0  0  0  0  0  0  0  0
    0.5530    1.1875   -3.7771 Br  0  0  0  0  0  0  0  0  0  0  0  0
    3.2653    1.8666   -2.7933 O   0  0  0  0  0  0  0  0  0  0  0  0
    4.6796    1.9502   -0.4466 O   0  0  0  0  0  0  0  0  0  0  0  0
    2.6531    1.8473    1.5420 O   0  0  0  0  0  0  0  0  0  0  0  0
    2.9662   -1.5997    1.8185 O   0  0  0  0  0  0  0  0  0  0  0  0
    2.6825   -2.0979   -1.2868 Br  0  0  0  0  0  0  0  0  0  0  0  0
    0.6713   -0.6655   -0.3434 H   0  0  0  0  0  0  0  0  0  0  0  0
    0.9777   -2.1861    0.3880 H   0  0  0  0  0  0  0  0  0  0  0  0
    1.4575   -0.2383    1.8763 H   0  0  0  0  0  0  0  0  0  0  0  0
    4.0741    0.4586    1.4512 H   0  0  0  0  0  0  0  0  0  0  0  0
    4.0819    0.1389   -0.9873 H   0  0  0  0  0  0  0  0  0  0  0  0
    2.2739    2.6086   -1.1875 H   0  0  0  0  0  0  0  0  0  0  0  0
    1.2510   -0.1162   -2.0097 H   0  0  0  0  0  0  0  0  0  0  0  0
    0.3791    1.2556   -1.2826 H   0  0  0  0  0  0  0  0  0  0  0  0
    3.4230    1.0059   -3.2237 H   0  0  0  0  0  0  0  0  0  0  0  0
    4.3523    2.7671   -0.0779 H   0  0  0  0  0  0  0  0  0  0  0  0
    1.9364    2.2487    1.0353 H   0  0  0  0  0  0  0  0  0  0  0  0
    3.3897   -2.1329    1.1168 H   0  0  0  0  0  0  0  0  0  0  0  0
  1 12  1  0  0  0  0
  1 13  1  0  0  0  0
  1 14  1  0  0  0  0
  2 11  1  0  0  0  0
  2 15  1  1  0  0  0
  2  3  1  0  0  0  0
  2  1  1  0  0  0  0
  3  4  1  0  0  0  0
  3 10  1  0  0  0  0
  3 16  1  1  0  0  0
  4  9  1  0  0  0  0
  4 17  1  6  0  0  0
  5  8  1  0  0  0  0
  5 18  1  1  0  0  0
  5  6  1  0  0  0  0
  5  4  1  0  0  0  0
  6  7  1  0  0  0  0
  6 19  1  0  0  0  0
  6 20  1  0  0  0  0
  8 21  1  0  0  0  0
  9 22  1  0  0  0  0
 10 23  1  0  0  0  0
 11 24  1  0  0  0  0
M  END
>  <DRUGBANK_ID>
DB12916

>  <COMMON_NAME>
Mitolactol

>  <CAS_NUMBER>
10318-26-0

>  <UNII>
LJ2P1SIK8Y

>  <SYNONYMS>
Mitolactol

$$$$
