
 OpenBabel10282417223D

 59 61  0  0  0  0  0  0  0  0999 V2000
    0.7276    0.1262   -0.2338 C   0  0  0  0  0  0  0  0  0  0  0  0
    0.5986   -1.2118   -0.9104 C   0  0  0  0  0  0  0  0  0  0  0  0
    1.2277   -2.4533   -0.2207 C   0  0  0  0  0  0  0  0  0  0  0  0
    0.4134   -3.3664    0.0164 O   0  0  0  0  0  0  0  0  0  0  0  0
    2.6345   -2.6812   -0.0161 N   0  0  0  0  0  0  0  0  0  0  0  0
    3.7726   -1.6202    0.0416 C   0  0  0  0  0  0  0  0  0  0  0  0
    3.5612   -0.3265    0.4492 C   0  0  0  0  0  0  0  0  0  0  0  0
    4.3576    0.7532   -0.0614 C   0  0  0  0  0  0  0  0  0  0  0  0
    5.5215    0.5638   -0.8209 C   0  0  0  0  0  0  0  0  0  0  0  0
    5.9598   -0.7161   -0.9839 C   0  0  0  0  0  0  0  0  0  0  0  0
    5.1016   -1.7441   -0.5389 C   0  0  0  0  0  0  0  0  0  0  0  0
    2.9936   -4.1330    0.4681 C   0  0  0  0  0  0  0  0  0  0  0  0
    4.4774   -4.3768    0.2391 C   0  0  0  0  0  0  0  0  0  0  0  0
    4.5908   -4.5051   -1.2993 C   0  0  0  0  0  0  0  0  0  0  0  0
    3.9589   -5.5446   -2.0823 N   0  0  0  0  0  0  0  0  0  0  0  0
    4.1515   -5.2973   -3.5669 C   0  0  0  0  0  0  0  0  0  0  0  0
    3.2810   -4.2740   -4.4630 C   0  0  0  0  0  0  0  0  0  0  0  0
    3.4974   -2.7651   -4.4390 C   0  0  0  0  0  0  0  0  0  0  0  0
    3.1467   -1.7592   -5.3433 C   0  0  0  0  0  0  0  0  0  0  0  0
    3.3113   -0.3617   -5.0380 C   0  0  0  0  0  0  0  0  0  0  0  0
    3.5957    0.0349   -3.7703 C   0  0  0  0  0  0  0  0  0  0  0  0
    3.7111   -0.9921   -2.9216 C   0  0  0  0  0  0  0  0  0  0  0  0
    4.0795   -2.2414   -3.3530 C   0  0  0  0  0  0  0  0  0  0  0  0
    2.5450   -5.5946   -1.7038 C   0  0  0  0  0  0  0  0  0  0  0  0
    2.3623   -5.4320   -0.1934 C   0  0  0  0  0  0  0  0  0  0  0  0
    2.5984   -4.1996    1.9633 C   0  0  0  0  0  0  0  0  0  0  0  0
    1.9561   -3.3889    2.5754 O   0  0  0  0  0  0  0  0  0  0  0  0
    3.0531   -5.3902    2.4805 O   0  0  0  0  0  0  0  0  0  0  0  0
    2.6017   -5.6560    3.8004 C   0  0  0  0  0  0  0  0  0  0  0  0
    0.6489    0.0223    0.8534 H   0  0  0  0  0  0  0  0  0  0  0  0
    0.0003    0.8749   -0.5574 H   0  0  0  0  0  0  0  0  0  0  0  0
    1.6706    0.5638   -0.5408 H   0  0  0  0  0  0  0  0  0  0  0  0
   -0.4933   -1.3881   -0.9728 H   0  0  0  0  0  0  0  0  0  0  0  0
    0.9250   -1.1638   -1.9525 H   0  0  0  0  0  0  0  0  0  0  0  0
    2.7054   -0.1171    1.0690 H   0  0  0  0  0  0  0  0  0  0  0  0
    3.9582    1.7604    0.0020 H   0  0  0  0  0  0  0  0  0  0  0  0
    6.0007    1.3577   -1.3875 H   0  0  0  0  0  0  0  0  0  0  0  0
    6.7701   -0.9688   -1.6790 H   0  0  0  0  0  0  0  0  0  0  0  0
    5.5103   -2.6247   -0.9821 H   0  0  0  0  0  0  0  0  0  0  0  0
    4.9825   -3.5312    0.7144 H   0  0  0  0  0  0  0  0  0  0  0  0
    4.9890   -5.1870    0.7487 H   0  0  0  0  0  0  0  0  0  0  0  0
    3.9599   -3.6895   -1.6208 H   0  0  0  0  0  0  0  0  0  0  0  0
    5.6269   -4.3836   -1.6205 H   0  0  0  0  0  0  0  0  0  0  0  0
    5.2170   -5.0955   -3.7562 H   0  0  0  0  0  0  0  0  0  0  0  0
    3.9826   -6.2893   -4.0069 H   0  0  0  0  0  0  0  0  0  0  0  0
    3.4152   -4.5851   -5.5013 H   0  0  0  0  0  0  0  0  0  0  0  0
    2.2292   -4.4663   -4.2148 H   0  0  0  0  0  0  0  0  0  0  0  0
    2.8064   -2.0205   -6.3312 H   0  0  0  0  0  0  0  0  0  0  0  0
    3.1491    0.4383   -5.7420 H   0  0  0  0  0  0  0  0  0  0  0  0
    3.7096    1.0333   -3.3585 H   0  0  0  0  0  0  0  0  0  0  0  0
    3.6567   -0.6956   -1.9164 H   0  0  0  0  0  0  0  0  0  0  0  0
    4.8171   -2.8301   -2.8599 H   0  0  0  0  0  0  0  0  0  0  0  0
    2.1607   -6.5674   -2.0277 H   0  0  0  0  0  0  0  0  0  0  0  0
    1.9583   -4.8087   -2.1791 H   0  0  0  0  0  0  0  0  0  0  0  0
    2.8993   -6.2930    0.2488 H   0  0  0  0  0  0  0  0  0  0  0  0
    1.3187   -5.5929    0.0810 H   0  0  0  0  0  0  0  0  0  0  0  0
    2.9782   -4.8925    4.4840 H   0  0  0  0  0  0  0  0  0  0  0  0
    1.5094   -5.7154    3.8301 H   0  0  0  0  0  0  0  0  0  0  0  0
    3.0097   -6.6272    4.0915 H   0  0  0  0  0  0  0  0  0  0  0  0
  1  2  1  0  0  0  0
  1 30  1  0  0  0  0
  1 31  1  0  0  0  0
  1 32  1  0  0  0  0
  2  3  1  0  0  0  0
  2 33  1  0  0  0  0
  2 34  1  0  0  0  0
  3  4  2  0  0  0  0
  3  5  1  0  0  0  0
  5  6  1  0  0  0  0
  5 12  1  0  0  0  0
  6  7  2  0  0  0  0
  6 11  1  0  0  0  0
  7  8  1  0  0  0  0
  7 35  1  0  0  0  0
  8  9  2  0  0  0  0
  8 36  1  0  0  0  0
  9 10  1  0  0  0  0
  9 37  1  0  0  0  0
 10 11  2  0  0  0  0
 10 38  1  0  0  0  0
 11 39  1  0  0  0  0
 12 13  1  0  0  0  0
 12 25  1  0  0  0  0
 12 26  1  0  0  0  0
 13 14  1  0  0  0  0
 13 40  1  0  0  0  0
 13 41  1  0  0  0  0
 14 15  1  0  0  0  0
 14 42  1  0  0  0  0
 14 43  1  0  0  0  0
 15 16  1  0  0  0  0
 15 24  1  0  0  0  0
 16 17  1  0  0  0  0
 16 44  1  0  0  0  0
 16 45  1  0  0  0  0
 17 18  1  0  0  0  0
 17 46  1  0  0  0  0
 17 47  1  0  0  0  0
 18 19  2  0  0  0  0
 18 23  1  0  0  0  0
 19 20  1  0  0  0  0
 19 48  1  0  0  0  0
 20 21  2  0  0  0  0
 20 49  1  0  0  0  0
 21 22  1  0  0  0  0
 21 50  1  0  0  0  0
 22 23  2  0  0  0  0
 22 51  1  0  0  0  0
 23 52  1  0  0  0  0
 24 25  1  0  0  0  0
 24 53  1  0  0  0  0
 24 54  1  0  0  0  0
 25 55  1  0  0  0  0
 25 56  1  0  0  0  0
 26 27  2  0  0  0  0
 26 28  1  0  0  0  0
 28 29  1  0  0  0  0
 29 57  1  0  0  0  0
 29 58  1  0  0  0  0
 29 59  1  0  0  0  0
M  ISO  1  29  11
M  END
>  <DRUGBANK_ID>
DB15360

>  <COMMON_NAME>
Carfentanil, C-11

>  <CAS_NUMBER>
98598-83-5

>  <UNII>
UVI40IC2GN

>  <SYNONYMS>
11C-CARFENTANIL

$$$$
