
 OpenBabel10282417143D

 54 57  0  0  1  0  0  0  0  0999 V2000
    3.3368    0.5344    0.0578 F   0  0  0  0  0  0  0  0  0  0  0  0
   -5.9764  -10.8453    5.5173 F   0  0  0  0  0  0  0  0  0  0  0  0
   -1.8763   -1.1365   -0.1383 O   0  0  0  0  0  0  0  0  0  0  0  0
   -4.9206   -5.8707    3.4917 O   0  0  0  0  0  0  0  0  0  0  0  0
   -3.8229    0.8930    2.3343 O   0  0  0  0  0  0  0  0  0  0  0  0
   -3.5762   -4.3490    1.2351 O   0  0  0  0  0  0  0  0  0  0  0  0
   -1.8813   -2.2514    2.3359 N   0  0  0  0  0  0  0  0  0  0  0  0
   -2.8550   -0.1974    0.3571 C   0  0  3  0  0  0  0  0  0  0  0  0
   -3.5303   -5.5216    3.3802 C   0  0  3  0  0  0  0  0  0  0  0  0
   -2.7775    0.0151    1.9003 C   0  0  3  0  0  0  0  0  0  0  0  0
   -3.4324   -4.1826    2.6546 C   0  0  3  0  0  0  0  0  0  0  0  0
   -2.7224    1.1071   -0.4222 C   0  0  0  0  0  0  0  0  0  0  0  0
   -2.7578   -6.5965    2.6265 C   0  0  0  0  0  0  0  0  0  0  0  0
   -2.9249   -1.2919    2.6752 C   0  0  0  0  0  0  0  0  0  0  0  0
   -2.0702   -3.5405    2.9748 C   0  0  0  0  0  0  0  0  0  0  0  0
   -1.3826    1.7449   -0.0713 C   0  0  0  0  0  0  0  0  0  0  0  0
   -2.7561   -7.8512    3.4667 C   0  0  0  0  0  0  0  0  0  0  0  0
   -0.2900    0.7105   -0.0850 C   0  0  0  0  0  0  0  0  0  0  0  0
   -4.1306   -8.1162    4.0022 C   0  0  0  0  0  0  0  0  0  0  0  0
   -0.5868   -0.6574   -0.1356 C   0  0  0  0  0  0  0  0  0  0  0  0
   -5.1244   -7.1277    3.9954 C   0  0  0  0  0  0  0  0  0  0  0  0
    1.0505    1.1035    0.0032 C   0  0  0  0  0  0  0  0  0  0  0  0
   -4.4265   -9.3745    4.5344 C   0  0  0  0  0  0  0  0  0  0  0  0
    0.4292   -1.6178   -0.1552 C   0  0  0  0  0  0  0  0  0  0  0  0
   -6.4057   -7.3975    4.4741 C   0  0  0  0  0  0  0  0  0  0  0  0
    2.0553    0.1414   -0.0071 C   0  0  0  0  0  0  0  0  0  0  0  0
   -5.7008   -9.6303    5.0191 C   0  0  0  0  0  0  0  0  0  0  0  0
    1.7625   -1.2125   -0.0898 C   0  0  0  0  0  0  0  0  0  0  0  0
   -6.6947   -8.6609    4.9925 C   0  0  0  0  0  0  0  0  0  0  0  0
   -3.6531    1.7723    1.9587 H   0  0  0  0  0  0  0  0  0  0  0  0
   -3.4870   -3.4726    0.8259 H   0  0  0  0  0  0  0  0  0  0  0  0
   -1.8348   -2.3777    1.3214 H   0  0  0  0  0  0  0  0  0  0  0  0
   -3.8357   -0.6324    0.1212 H   0  0  0  0  0  0  0  0  0  0  0  0
   -3.1502   -5.3881    4.4039 H   0  0  0  0  0  0  0  0  0  0  0  0
   -1.8219    0.4510    2.2093 H   0  0  0  0  0  0  0  0  0  0  0  0
   -4.2653   -3.5585    2.9919 H   0  0  0  0  0  0  0  0  0  0  0  0
   -3.5506    1.7894   -0.2084 H   0  0  0  0  0  0  0  0  0  0  0  0
   -2.7479    0.8859   -1.4969 H   0  0  0  0  0  0  0  0  0  0  0  0
   -1.7278   -6.2950    2.4145 H   0  0  0  0  0  0  0  0  0  0  0  0
   -3.2497   -6.8043    1.6675 H   0  0  0  0  0  0  0  0  0  0  0  0
   -2.8890   -1.0839    3.7510 H   0  0  0  0  0  0  0  0  0  0  0  0
   -3.9302   -1.6641    2.4599 H   0  0  0  0  0  0  0  0  0  0  0  0
   -1.2544   -4.1792    2.6173 H   0  0  0  0  0  0  0  0  0  0  0  0
   -1.9329   -3.4272    4.0553 H   0  0  0  0  0  0  0  0  0  0  0  0
   -1.4340    2.1924    0.9297 H   0  0  0  0  0  0  0  0  0  0  0  0
   -1.1619    2.5503   -0.7763 H   0  0  0  0  0  0  0  0  0  0  0  0
   -2.0616   -7.7298    4.3066 H   0  0  0  0  0  0  0  0  0  0  0  0
   -2.4107   -8.6866    2.8498 H   0  0  0  0  0  0  0  0  0  0  0  0
    1.3189    2.1512    0.0799 H   0  0  0  0  0  0  0  0  0  0  0  0
   -3.6739  -10.1547    4.5592 H   0  0  0  0  0  0  0  0  0  0  0  0
    0.1882   -2.6765   -0.1902 H   0  0  0  0  0  0  0  0  0  0  0  0
   -7.1730   -6.6295    4.4448 H   0  0  0  0  0  0  0  0  0  0  0  0
    2.5648   -1.9426   -0.0930 H   0  0  0  0  0  0  0  0  0  0  0  0
   -7.6844   -8.8905    5.3694 H   0  0  0  0  0  0  0  0  0  0  0  0
  1 26  1  0  0  0  0
  2 27  1  0  0  0  0
  3  8  1  0  0  0  0
  3 20  1  0  0  0  0
  4  9  1  0  0  0  0
  4 21  1  0  0  0  0
  5 10  1  0  0  0  0
  5 30  1  0  0  0  0
  6 11  1  0  0  0  0
  6 31  1  0  0  0  0
  7 14  1  0  0  0  0
  7 15  1  0  0  0  0
  7 32  1  0  0  0  0
  8 10  1  0  0  0  0
  8 12  1  0  0  0  0
  8 33  1  0  0  0  0
  9 11  1  0  0  0  0
  9 13  1  0  0  0  0
  9 34  1  0  0  0  0
 10 14  1  0  0  0  0
 10 35  1  0  0  0  0
 11 15  1  0  0  0  0
 11 36  1  0  0  0  0
 12 16  1  0  0  0  0
 12 37  1  0  0  0  0
 12 38  1  0  0  0  0
 13 17  1  0  0  0  0
 13 39  1  0  0  0  0
 13 40  1  0  0  0  0
 14 41  1  0  0  0  0
 14 42  1  0  0  0  0
 15 43  1  0  0  0  0
 15 44  1  0  0  0  0
 16 18  1  0  0  0  0
 16 45  1  0  0  0  0
 16 46  1  0  0  0  0
 17 19  1  0  0  0  0
 17 47  1  0  0  0  0
 17 48  1  0  0  0  0
 18 20  2  0  0  0  0
 18 22  1  0  0  0  0
 19 21  2  0  0  0  0
 19 23  1  0  0  0  0
 20 24  1  0  0  0  0
 21 25  1  0  0  0  0
 22 26  2  0  0  0  0
 22 49  1  0  0  0  0
 23 27  2  0  0  0  0
 23 50  1  0  0  0  0
 24 28  2  0  0  0  0
 24 51  1  0  0  0  0
 25 29  2  0  0  0  0
 25 52  1  0  0  0  0
 26 28  1  0  0  0  0
 27 29  1  0  0  0  0
 28 53  1  0  0  0  0
 29 54  1  0  0  0  0
M  END
>  <DRUGBANK_ID>
DB04861

>  <COMMON_NAME>
Nebivolol

>  <CAS_NUMBER>
118457-14-0

>  <UNII>
030Y90569U

>  <SYNONYMS>
Narbivolol; Nebivolol; Nebivololum

$$$$
