1177
 OpenBabel10282417113D

 63 67  0  0  1  0  0  0  0  0999 V2000
   -0.8686    0.1081    1.2514 O   0  0  0  0  0  0  0  0  0  0  0  0
   -0.7624    1.2294   -0.9048 O   0  0  0  0  0  0  0  0  0  0  0  0
   -0.6558    0.6122    4.1574 O   0  0  0  0  0  0  0  0  0  0  0  0
    0.4282    3.9577   -1.3040 O   0  0  0  0  0  0  0  0  0  0  0  0
    0.5339   -2.4423    0.0263 O   0  0  0  0  0  0  0  0  0  0  0  0
    2.5081   -2.4530    5.2222 O   0  0  0  0  0  0  0  0  0  0  0  0
   -0.0048    3.2442    4.4865 O   0  0  0  0  0  0  0  0  0  0  0  0
    0.9473   -4.9776   -0.0681 O   0  0  0  0  0  0  0  0  0  0  0  0
    2.7868   -4.9082    4.9403 O   0  0  0  0  0  0  0  0  0  0  0  0
    1.1745    4.1387    1.6601 N   0  0  0  0  0  0  0  0  0  0  0  0
    0.4930   -0.0725    1.5901 C   0  0  1  0  0  0  0  0  0  0  0  0
    0.7134    0.9541    3.9533 C   0  0  2  0  0  0  0  0  0  0  0  0
    1.0379    0.9570    2.5127 C   0  0  0  0  0  0  0  0  0  0  0  0
    1.6297   -0.1277    4.3904 C   0  0  0  0  0  0  0  0  0  0  0  0
    0.8940   -1.3708    2.1737 C   0  0  0  0  0  0  0  0  0  0  0  0
    1.4562   -1.3692    3.4902 C   0  0  0  0  0  0  0  0  0  0  0  0
   -1.1963    1.2967    0.4702 C   0  0  2  0  0  0  0  0  0  0  0  0
   -0.8436    2.6796    1.0871 C   0  0  0  0  0  0  0  0  0  0  0  0
    0.6711    3.0579    0.8225 C   0  0  1  0  0  0  0  0  0  0  0  0
    1.0594    2.9084   -0.6139 C   0  0  1  0  0  0  0  0  0  0  0  0
    0.6179    1.5271   -1.1352 C   0  0  2  0  0  0  0  0  0  0  0  0
    0.9035   -2.4972    1.3432 C   0  0  0  0  0  0  0  0  0  0  0  0
    0.9253    2.4282    4.4585 C   0  0  0  0  0  0  0  0  0  0  0  0
    1.9699   -2.5336    3.9709 C   0  0  0  0  0  0  0  0  0  0  0  0
    1.3910   -3.6742    1.8740 C   0  0  0  0  0  0  0  0  0  0  0  0
    1.9028   -3.6805    3.1851 C   0  0  0  0  0  0  0  0  0  0  0  0
    1.0517    1.3962   -2.5730 C   0  0  0  0  0  0  0  0  0  0  0  0
    2.3107    2.9024    4.8030 C   0  0  0  0  0  0  0  0  0  0  0  0
    1.3502   -4.9204    1.0702 C   0  0  0  0  0  0  0  0  0  0  0  0
    2.3675   -4.9178    3.7962 C   0  0  0  0  0  0  0  0  0  0  0  0
    1.8097   -6.1557    1.7173 C   0  0  0  0  0  0  0  0  0  0  0  0
    2.2925   -6.1511    3.0197 C   0  0  0  0  0  0  0  0  0  0  0  0
    1.7462   -7.3449    0.9971 C   0  0  0  0  0  0  0  0  0  0  0  0
    2.7182   -7.3261    3.6238 C   0  0  0  0  0  0  0  0  0  0  0  0
    2.1745   -8.5235    1.5966 C   0  0  0  0  0  0  0  0  0  0  0  0
    2.6588   -8.5129    2.9055 C   0  0  0  0  0  0  0  0  0  0  0  0
   -0.8637   -0.2021    3.6680 H   0  0  0  0  0  0  0  0  0  0  0  0
   -0.5237    3.7990   -1.1686 H   0  0  0  0  0  0  0  0  0  0  0  0
    0.0697   -1.6334   -0.2484 H   0  0  0  0  0  0  0  0  0  0  0  0
    2.7302   -3.3580    5.5241 H   0  0  0  0  0  0  0  0  0  0  0  0
    2.1942    4.1098    1.6971 H   0  0  0  0  0  0  0  0  0  0  0  0
    0.9043    5.0441    1.2997 H   0  0  0  0  0  0  0  0  0  0  0  0
    1.0673   -0.0933    0.6883 H   0  0  0  0  0  0  0  0  0  0  0  0
    0.4474    1.7909    2.3627 H   0  0  0  0  0  0  0  0  0  0  0  0
    2.1118    1.1126    2.3005 H   0  0  0  0  0  0  0  0  0  0  0  0
    2.6759    0.2083    4.3046 H   0  0  0  0  0  0  0  0  0  0  0  0
    1.3917   -0.3381    5.4291 H   0  0  0  0  0  0  0  0  0  0  0  0
   -2.2962    1.2553    0.4396 H   0  0  0  0  0  0  0  0  0  0  0  0
   -1.4775    3.4615    0.6603 H   0  0  0  0  0  0  0  0  0  0  0  0
   -1.1364    2.6730    2.1527 H   0  0  0  0  0  0  0  0  0  0  0  0
    1.4034    2.3239    1.0924 H   0  0  0  0  0  0  0  0  0  0  0  0
    2.1567    2.9609   -0.6924 H   0  0  0  0  0  0  0  0  0  0  0  0
    1.2066    0.7279   -0.7155 H   0  0  0  0  0  0  0  0  0  0  0  0
    0.4528    0.6722   -3.1204 H   0  0  0  0  0  0  0  0  0  0  0  0
    1.0346    2.3656   -3.0681 H   0  0  0  0  0  0  0  0  0  0  0  0
    2.1016    1.0658   -2.5669 H   0  0  0  0  0  0  0  0  0  0  0  0
    2.7195    2.2409    5.5639 H   0  0  0  0  0  0  0  0  0  0  0  0
    2.9623    2.9458    3.9258 H   0  0  0  0  0  0  0  0  0  0  0  0
    2.2429    3.9115    5.2269 H   0  0  0  0  0  0  0  0  0  0  0  0
    1.3654   -7.3513   -0.0226 H   0  0  0  0  0  0  0  0  0  0  0  0
    3.0925   -7.3123    4.6446 H   0  0  0  0  0  0  0  0  0  0  0  0
    2.1286   -9.4522    1.0373 H   0  0  0  0  0  0  0  0  0  0  0  0
    2.9934   -9.4328    3.3723 H   0  0  0  0  0  0  0  0  0  0  0  0
  2 17  1  0  0  0  0
  2 21  1  0  0  0  0
  3 37  1  0  0  0  0
  4 38  1  0  0  0  0
  5 22  1  0  0  0  0
  5 39  1  0  0  0  0
  6 24  1  0  0  0  0
  6 40  1  0  0  0  0
  7 23  2  0  0  0  0
  8 29  2  0  0  0  0
  9 30  2  0  0  0  0
 10 41  1  0  0  0  0
 10 42  1  0  0  0  0
 11 13  1  0  0  0  0
 11 15  1  0  0  0  0
 11 43  1  6  0  0  0
 11  1  1  0  0  0  0
 12 13  1  0  0  0  0
 12 14  1  0  0  0  0
 12 23  1  1  0  0  0
 12  3  1  0  0  0  0
 13 44  1  0  0  0  0
 13 45  1  0  0  0  0
 14 16  1  0  0  0  0
 14 46  1  0  0  0  0
 14 47  1  0  0  0  0
 15 16  2  0  0  0  0
 15 22  1  0  0  0  0
 16 24  1  0  0  0  0
 17  1  1  0  0  0  0
 17 18  1  0  0  0  0
 17 48  1  6  0  0  0
 18 19  1  0  0  0  0
 18 49  1  0  0  0  0
 18 50  1  0  0  0  0
 19 10  1  0  0  0  0
 19 20  1  0  0  0  0
 19 51  1  1  0  0  0
 20  4  1  0  0  0  0
 20 21  1  0  0  0  0
 20 52  1  6  0  0  0
 21 53  1  1  0  0  0
 21 27  1  0  0  0  0
 22 25  2  0  0  0  0
 23 28  1  0  0  0  0
 24 26  2  0  0  0  0
 25 26  1  0  0  0  0
 25 29  1  0  0  0  0
 26 30  1  0  0  0  0
 27 54  1  0  0  0  0
 27 55  1  0  0  0  0
 27 56  1  0  0  0  0
 28 57  1  0  0  0  0
 28 58  1  0  0  0  0
 28 59  1  0  0  0  0
 29 31  1  0  0  0  0
 30 32  1  0  0  0  0
 31 32  1  0  0  0  0
 31 33  2  0  0  0  0
 32 34  2  0  0  0  0
 33 35  1  0  0  0  0
 33 60  1  0  0  0  0
 34 36  1  0  0  0  0
 34 61  1  0  0  0  0
 35 36  2  0  0  0  0
 35 62  1  0  0  0  0
 36 63  1  0  0  0  0
M  END
>  <DRUGBANK_ID>
DB01177

>  <SECONDARY_ACCESSION_NUMBERS>
APRD00126

>  <COMMON_NAME>
Idarubicin

>  <CAS_NUMBER>
58957-92-9

>  <UNII>
ZRP63D75JW

>  <SYNONYMS>
(1S,3S)-3-acetyl-3,5,12-trihydroxy-6,11-dioxo-1,2,3,4,6,11-hexahydronaphthacen-1-yl 3-amino-2,3,6-trideoxy-Î±-L-lyxo-hexopyranoside; 4-Demethoxydaunomycin; 4-Demethoxydaunorubicin; Idarubicin; Idarubicina; Idarubicine; Idarubicinum

$$$$
