BYS
 OpenBabel10282417123D

 43 45  0  0  0  0  0  0  0  0999 V2000
    0.9518   -0.3347   -0.0538 C   0  0  1  0  0  0  0  0  0  0  0  0
    0.3955   -1.7673   -0.0771 C   0  0  0  0  0  0  0  0  0  0  0  0
    0.1365   -2.4245   -1.0695 O   0  0  0  0  0  0  0  0  0  0  0  0
    0.0370   -2.2620    1.1006 O   0  0  0  0  0  0  0  0  0  0  0  0
    0.5382    0.1045   -1.4874 C   0  0  0  0  0  0  0  0  0  0  0  0
   -1.0053   -0.0140   -1.7917 C   0  0  0  0  0  0  0  0  0  0  0  0
   -1.9826   -0.1582   -0.7650 C   0  0  0  0  0  0  0  0  0  0  0  0
   -3.3396    0.1046   -0.9549 C   0  0  0  0  0  0  0  0  0  0  0  0
   -3.7825    0.4930   -2.2023 C   0  0  0  0  0  0  0  0  0  0  0  0
   -2.8607    0.6186   -3.2406 C   0  0  0  0  0  0  0  0  0  0  0  0
   -1.4975    0.2990   -3.0608 C   0  0  0  0  0  0  0  0  0  0  0  0
    0.5129    0.6486    1.1373 C   0  0  1  0  0  0  0  0  0  0  0  0
    1.0763    0.1556    2.5115 C   0  0  0  0  0  0  0  0  0  0  0  0
    1.8981    0.6988    3.1992 O   0  0  0  0  0  0  0  0  0  0  0  0
    0.5031   -0.9885    2.9485 O   0  0  0  0  0  0  0  0  0  0  0  0
    0.9048    2.1925    0.9779 C   0  0  0  0  0  0  0  0  0  0  0  0
    0.4382    3.1060   -0.1775 C   0  0  0  0  0  0  0  0  0  0  0  0
   -0.4461    2.7157   -1.1676 C   0  0  0  0  0  0  0  0  0  0  0  0
   -0.5254    3.3189   -2.4170 C   0  0  0  0  0  0  0  0  0  0  0  0
   -0.8985    2.8315   -3.6322 O   0  0  0  0  0  0  0  0  0  0  0  0
   -1.3104    4.0337   -4.2857 C   0  0  0  0  0  0  0  0  0  0  0  0
   -0.7313    5.1877   -3.6355 O   0  0  0  0  0  0  0  0  0  0  0  0
   -0.2526    4.6279   -2.4901 C   0  0  0  0  0  0  0  0  0  0  0  0
    0.3997    5.2138   -1.4303 C   0  0  0  0  0  0  0  0  0  0  0  0
    0.8660    4.4181   -0.3419 C   0  0  0  0  0  0  0  0  0  0  0  0
    2.0484   -0.3960   -0.0125 H   0  0  0  0  0  0  0  0  0  0  0  0
   -0.5630    0.6577    1.3077 H   0  0  0  0  0  0  0  0  0  0  0  0
   -0.7261   -2.8430    0.9182 H   0  0  0  0  0  0  0  0  0  0  0  0
    0.9775    1.0939   -1.6416 H   0  0  0  0  0  0  0  0  0  0  0  0
    1.0927   -0.4467   -2.2588 H   0  0  0  0  0  0  0  0  0  0  0  0
   -1.7212   -0.3701    0.2600 H   0  0  0  0  0  0  0  0  0  0  0  0
   -4.0198    0.0631   -0.1072 H   0  0  0  0  0  0  0  0  0  0  0  0
   -4.8346    0.7096   -2.3590 H   0  0  0  0  0  0  0  0  0  0  0  0
   -3.1917    1.0549   -4.1803 H   0  0  0  0  0  0  0  0  0  0  0  0
   -0.8054    0.4734   -3.8830 H   0  0  0  0  0  0  0  0  0  0  0  0
    1.0790   -1.4226    3.6109 H   0  0  0  0  0  0  0  0  0  0  0  0
    0.5802    2.6903    1.9056 H   0  0  0  0  0  0  0  0  0  0  0  0
    2.0031    2.2290    0.9946 H   0  0  0  0  0  0  0  0  0  0  0  0
   -1.0774    1.9072   -0.9089 H   0  0  0  0  0  0  0  0  0  0  0  0
   -2.4065    4.0286   -4.2173 H   0  0  0  0  0  0  0  0  0  0  0  0
   -1.0688    4.0625   -5.3612 H   0  0  0  0  0  0  0  0  0  0  0  0
    0.5697    6.2761   -1.4575 H   0  0  0  0  0  0  0  0  0  0  0  0
    1.5241    4.8549    0.3997 H   0  0  0  0  0  0  0  0  0  0  0  0
  1 12  1  0  0  0  0
  1 26  1  1  0  0  0
  1  5  1  0  0  0  0
  1  2  1  0  0  0  0
  2  3  2  0  0  0  0
  2  4  1  0  0  0  0
  4 28  1  0  0  0  0
  5  6  1  0  0  0  0
  5 29  1  0  0  0  0
  5 30  1  0  0  0  0
  6  7  2  0  0  0  0
  6 11  1  0  0  0  0
  7  8  1  0  0  0  0
  7 31  1  0  0  0  0
  8  9  2  0  0  0  0
  8 32  1  0  0  0  0
  9 10  1  0  0  0  0
  9 33  1  0  0  0  0
 10 11  2  0  0  0  0
 10 34  1  0  0  0  0
 11 35  1  0  0  0  0
 12 13  1  0  0  0  0
 12 16  1  0  0  0  0
 12 27  1  1  0  0  0
 13 14  2  0  0  0  0
 13 15  1  0  0  0  0
 15 36  1  0  0  0  0
 16 17  1  0  0  0  0
 16 37  1  0  0  0  0
 16 38  1  0  0  0  0
 17 18  2  0  0  0  0
 17 25  1  0  0  0  0
 18 19  1  0  0  0  0
 18 39  1  0  0  0  0
 19 20  1  0  0  0  0
 19 23  2  0  0  0  0
 20 21  1  0  0  0  0
 21 22  1  0  0  0  0
 21 40  1  0  0  0  0
 21 41  1  0  0  0  0
 22 23  1  0  0  0  0
 23 24  1  0  0  0  0
 24 25  2  0  0  0  0
 24 42  1  0  0  0  0
 25 43  1  0  0  0  0
M  END
>  <DRUGBANK_ID>
DB02450

>  <SECONDARY_ACCESSION_NUMBERS>
EXPT00786

>  <COMMON_NAME>
2-Benzo[1,3]Dioxol-5-Ylmethyl-3-Benzyl-Succinic Acid

$$$$
