
 OpenBabel10282417213D

 43 46  0  0  0  0  0  0  0  0999 V2000
    2.4677   -0.0082    0.0589 C   0  0  0  0  0  0  0  0  0  0  0  0
    0.3768   -1.2139    0.2556 C   0  0  0  0  0  0  0  0  0  0  0  0
    0.3924    1.1937    0.2690 C   0  0  0  0  0  0  0  0  0  0  0  0
   -1.1150   -1.2452   -0.1405 C   0  0  0  0  0  0  0  0  0  0  0  0
   -1.0943    1.2276   -0.1117 C   0  0  0  0  0  0  0  0  0  0  0  0
   -6.5503    1.8382   -1.0923 C   0  0  0  0  0  0  0  0  0  0  0  0
   -5.3092    1.8868   -1.9440 C   0  0  0  0  0  0  0  0  0  0  0  0
   -4.5025   -0.7012    2.6764 C   0  0  0  0  0  0  0  0  0  0  0  0
   -7.8138    1.0625    0.8720 C   0  0  0  0  0  0  0  0  0  0  0  0
   -5.5802   -0.0840    2.0356 C   0  0  0  0  0  0  0  0  0  0  0  0
   -8.0601    0.4982    2.0655 C   0  0  0  0  0  0  0  0  0  0  0  0
   -3.2574   -0.6864    2.0793 C   0  0  0  0  0  0  0  0  0  0  0  0
   -5.4441    0.5496    0.7764 C   0  0  0  0  0  0  0  0  0  0  0  0
   -3.0323   -0.0479    0.8520 C   0  0  0  0  0  0  0  0  0  0  0  0
   -6.8951   -0.1313    2.7248 C   0  0  0  0  0  0  0  0  0  0  0  0
   -4.1509    0.5456    0.1961 C   0  0  0  0  0  0  0  0  0  0  0  0
   -9.3961    0.4931    2.6971 C   0  0  0  0  0  0  0  0  0  0  0  0
   -2.2364   -1.2756    2.7233 F   0  0  0  0  0  0  0  0  0  0  0  0
    1.0560   -0.0093   -0.2882 N   0  0  0  0  0  0  0  0  0  0  0  0
   -1.7337   -0.0121    0.3576 N   0  0  0  0  0  0  0  0  0  0  0  0
   -6.5937    1.1145    0.1869 N   0  0  0  0  0  0  0  0  0  0  0  0
   -6.9821   -0.6846    3.8159 O   0  0  0  0  0  0  0  0  0  0  0  0
   -9.7014   -0.0011    3.7733 O   0  0  0  0  0  0  0  0  0  0  0  0
  -10.3513    1.1087    1.9728 O   0  0  0  0  0  0  0  0  0  0  0  0
   -3.8032    1.1391   -1.4462 S   0  0  0  0  0  0  0  0  0  0  0  0
    2.9580    0.8740   -0.3666 H   0  0  0  0  0  0  0  0  0  0  0  0
    2.6219   -0.0066    1.1425 H   0  0  0  0  0  0  0  0  0  0  0  0
    2.9626   -0.8854   -0.3688 H   0  0  0  0  0  0  0  0  0  0  0  0
    0.8625   -2.1239   -0.1104 H   0  0  0  0  0  0  0  0  0  0  0  0
    0.4422   -1.2138    1.3526 H   0  0  0  0  0  0  0  0  0  0  0  0
    0.4710    1.2029    1.3638 H   0  0  0  0  0  0  0  0  0  0  0  0
    0.8694    2.1035   -0.1123 H   0  0  0  0  0  0  0  0  0  0  0  0
   -1.2069   -1.3026   -1.2349 H   0  0  0  0  0  0  0  0  0  0  0  0
   -1.5892   -2.1435    0.2708 H   0  0  0  0  0  0  0  0  0  0  0  0
   -1.1473    1.3241   -1.2044 H   0  0  0  0  0  0  0  0  0  0  0  0
   -1.5588    2.1106    0.3425 H   0  0  0  0  0  0  0  0  0  0  0  0
   -6.8469    2.8770   -0.9001 H   0  0  0  0  0  0  0  0  0  0  0  0
   -7.3338    1.4177   -1.7358 H   0  0  0  0  0  0  0  0  0  0  0  0
   -5.5135    1.4013   -2.9011 H   0  0  0  0  0  0  0  0  0  0  0  0
   -5.0667    2.9306   -2.1692 H   0  0  0  0  0  0  0  0  0  0  0  0
   -4.6186   -1.1857    3.6418 H   0  0  0  0  0  0  0  0  0  0  0  0
   -8.6204    1.5526    0.3261 H   0  0  0  0  0  0  0  0  0  0  0  0
  -11.1499    1.0029    2.5371 H   0  0  0  0  0  0  0  0  0  0  0  0
  1 26  1  0  0  0  0
  1 27  1  0  0  0  0
  1 28  1  0  0  0  0
  2 29  1  0  0  0  0
  2 30  1  0  0  0  0
  3 31  1  0  0  0  0
  3 32  1  0  0  0  0
  4  2  1  0  0  0  0
  4 33  1  0  0  0  0
  4 34  1  0  0  0  0
  5  3  1  0  0  0  0
  5 35  1  0  0  0  0
  5 36  1  0  0  0  0
  6 37  1  0  0  0  0
  6 38  1  0  0  0  0
  7  6  1  0  0  0  0
  7 39  1  0  0  0  0
  7 40  1  0  0  0  0
  8 41  1  0  0  0  0
  9 42  1  0  0  0  0
 10  8  2  0  0  0  0
 11  9  2  0  0  0  0
 12  8  1  0  0  0  0
 13 10  1  0  0  0  0
 14 12  2  0  0  0  0
 15 10  1  0  0  0  0
 15 11  1  0  0  0  0
 16 13  2  0  0  0  0
 16 14  1  0  0  0  0
 17 11  1  0  0  0  0
 18 12  1  0  0  0  0
 19  1  1  0  0  0  0
 19  2  1  0  0  0  0
 19  3  1  0  0  0  0
 20  4  1  0  0  0  0
 20  5  1  0  0  0  0
 20 14  1  0  0  0  0
 21  6  1  0  0  0  0
 21  9  1  0  0  0  0
 21 13  1  0  0  0  0
 22 15  2  0  0  0  0
 23 17  2  0  0  0  0
 24 17  1  0  0  0  0
 24 43  1  0  0  0  0
 25  7  1  0  0  0  0
 25 16  1  0  0  0  0
M  END
>  <DRUGBANK_ID>
DB13772

>  <COMMON_NAME>
Rufloxacin

>  <CAS_NUMBER>
101363-10-4

>  <UNII>
Y521XM2900

>  <SYNONYMS>
Rufloxacin

$$$$
