
 OpenBabel10282417173D

 57 57  0  0  0  0  0  0  0  0999 V2000
    0.9507   -0.1544    0.1370 C   0  0  0  0  0  0  0  0  0  0  0  0
    0.2703   -0.9429   -0.7785 N   0  0  0  0  0  0  0  0  0  0  0  0
    2.1458   -0.3026    0.3682 O   0  0  0  0  0  0  0  0  0  0  0  0
    0.9469   -2.0056   -1.5214 C   0  0  0  0  0  0  0  0  0  0  0  0
    0.5981   -3.4309   -1.0489 C   0  0  3  0  0  0  0  0  0  0  0  0
    1.3743   -4.4782   -1.8606 C   0  0  0  0  0  0  0  0  0  0  0  0
    2.7814   -4.3512   -1.7024 O   0  0  0  0  0  0  0  0  0  0  0  0
   -0.8032   -3.6664   -1.2347 O   0  0  0  0  0  0  0  0  0  0  0  0
    0.1864    0.9173    0.8823 C   0  0  0  0  0  0  0  0  0  0  0  0
    0.6052    2.3057    0.7931 C   0  0  0  0  0  0  0  0  0  0  0  0
    0.0415    3.4074    1.6054 C   0  0  0  0  0  0  0  0  0  0  0  0
   -1.0123    2.9097    2.5136 C   0  0  0  0  0  0  0  0  0  0  0  0
   -1.4138    1.5006    2.6646 C   0  0  0  0  0  0  0  0  0  0  0  0
   -0.8302    0.5427    1.7887 C   0  0  0  0  0  0  0  0  0  0  0  0
   -2.7612    4.3292    3.3438 I   0  0  0  0  0  0  0  0  0  0  0  0
   -1.5490   -1.5469    1.6281 I   0  0  0  0  0  0  0  0  0  0  0  0
    2.0352    2.4768   -1.1167 I   0  0  0  0  0  0  0  0  0  0  0  0
   -2.3872    1.1086    3.7856 C   0  0  0  0  0  0  0  0  0  0  0  0
   -2.8888   -0.1598    3.8479 N   0  0  0  0  0  0  0  0  0  0  0  0
   -3.8709   -0.5433    4.8384 C   0  0  0  0  0  0  0  0  0  0  0  0
   -5.1173   -1.0936    4.1513 C   0  0  3  0  0  0  0  0  0  0  0  0
   -6.1681   -1.4448    5.1995 C   0  0  0  0  0  0  0  0  0  0  0  0
   -6.5979   -0.3053    5.9351 O   0  0  0  0  0  0  0  0  0  0  0  0
   -2.7197    1.8526    4.6984 O   0  0  0  0  0  0  0  0  0  0  0  0
   -4.7697   -2.2668    3.4062 O   0  0  0  0  0  0  0  0  0  0  0  0
    0.5160    4.8766    1.5489 N   0  0  0  0  0  0  0  0  0  0  0  0
    1.5824    5.2632    0.6312 C   0  0  0  0  0  0  0  0  0  0  0  0
    1.0900    6.0278   -0.5999 C   0  0  0  0  0  0  0  0  0  0  0  0
    0.1962    5.8875    2.4815 C   0  0  0  0  0  0  0  0  0  0  0  0
   -0.4396    5.6940    3.5332 O   0  0  0  0  0  0  0  0  0  0  0  0
    0.7468    7.3328    2.4542 C   0  0  0  0  0  0  0  0  0  0  0  0
    0.3954    7.2202   -0.2968 O   0  0  0  0  0  0  0  0  0  0  0  0
    2.1198    7.3611    2.7750 O   0  0  0  0  0  0  0  0  0  0  0  0
   -0.7401   -0.9092   -0.8226 H   0  0  0  0  0  0  0  0  0  0  0  0
    0.6465   -1.8833   -2.5666 H   0  0  0  0  0  0  0  0  0  0  0  0
    2.0249   -1.8450   -1.4497 H   0  0  0  0  0  0  0  0  0  0  0  0
    0.8339   -3.5515    0.0154 H   0  0  0  0  0  0  0  0  0  0  0  0
    1.0928   -5.4872   -1.5384 H   0  0  0  0  0  0  0  0  0  0  0  0
    1.1224   -4.4136   -2.9256 H   0  0  0  0  0  0  0  0  0  0  0  0
    3.0634   -3.4933   -2.0622 H   0  0  0  0  0  0  0  0  0  0  0  0
   -1.2735   -3.0642   -0.6355 H   0  0  0  0  0  0  0  0  0  0  0  0
   -2.4524   -0.9016    3.3282 H   0  0  0  0  0  0  0  0  0  0  0  0
   -3.3984   -1.2926    5.4806 H   0  0  0  0  0  0  0  0  0  0  0  0
   -4.1346    0.3176    5.4554 H   0  0  0  0  0  0  0  0  0  0  0  0
   -5.5168   -0.3500    3.4492 H   0  0  0  0  0  0  0  0  0  0  0  0
   -7.0436   -1.8796    4.7097 H   0  0  0  0  0  0  0  0  0  0  0  0
   -5.7804   -2.1992    5.8929 H   0  0  0  0  0  0  0  0  0  0  0  0
   -5.8458    0.0546    6.4372 H   0  0  0  0  0  0  0  0  0  0  0  0
   -4.1441   -1.9834    2.7186 H   0  0  0  0  0  0  0  0  0  0  0  0
    2.3869    5.7732    1.1663 H   0  0  0  0  0  0  0  0  0  0  0  0
    2.1188    4.4012    0.3226 H   0  0  0  0  0  0  0  0  0  0  0  0
    1.9358    6.2905   -1.2404 H   0  0  0  0  0  0  0  0  0  0  0  0
    0.3817    5.4244   -1.1678 H   0  0  0  0  0  0  0  0  0  0  0  0
    0.5169    7.9840    1.6174 H   0  0  0  0  0  0  0  0  0  0  0  0
    0.2143    7.8601    3.2582 H   0  0  0  0  0  0  0  0  0  0  0  0
   -0.4046    6.9555    0.1909 H   0  0  0  0  0  0  0  0  0  0  0  0
    2.1709    6.9052    3.6351 H   0  0  0  0  0  0  0  0  0  0  0  0
  1  2  1  0  0  0  0
  1  3  2  0  0  0  0
  2  4  1  0  0  0  0
  2 34  1  0  0  0  0
  4  5  1  0  0  0  0
  4 35  1  0  0  0  0
  4 36  1  0  0  0  0
  5  8  1  0  0  0  0
  5  6  1  0  0  0  0
  5 37  1  0  0  0  0
  6  7  1  0  0  0  0
  6 38  1  0  0  0  0
  6 39  1  0  0  0  0
  7 40  1  0  0  0  0
  8 41  1  0  0  0  0
  9  1  1  0  0  0  0
  9 10  1  0  0  0  0
 10 17  1  0  0  0  0
 10 11  2  0  0  0  0
 11 12  1  0  0  0  0
 11 26  1  0  0  0  0
 12 13  2  0  0  0  0
 12 15  1  0  0  0  0
 13 18  1  0  0  0  0
 13 14  1  0  0  0  0
 14  9  2  0  0  0  0
 14 16  1  0  0  0  0
 18 19  1  0  0  0  0
 18 24  2  0  0  0  0
 19 20  1  0  0  0  0
 19 42  1  0  0  0  0
 20 21  1  0  0  0  0
 20 43  1  0  0  0  0
 20 44  1  0  0  0  0
 21 25  1  0  0  0  0
 21 22  1  0  0  0  0
 21 45  1  0  0  0  0
 22 23  1  0  0  0  0
 22 46  1  0  0  0  0
 22 47  1  0  0  0  0
 23 48  1  0  0  0  0
 25 49  1  0  0  0  0
 26 27  1  0  0  0  0
 26 29  1  0  0  0  0
 27 28  1  0  0  0  0
 27 50  1  0  0  0  0
 27 51  1  0  0  0  0
 28 32  1  0  0  0  0
 28 52  1  0  0  0  0
 28 53  1  0  0  0  0
 29 30  2  0  0  0  0
 29 31  1  0  0  0  0
 31 33  1  0  0  0  0
 31 54  1  0  0  0  0
 31 55  1  0  0  0  0
 32 56  1  0  0  0  0
 33 57  1  0  0  0  0
M  END
>  <DRUGBANK_ID>
DB09134

>  <COMMON_NAME>
Ioversol

>  <CAS_NUMBER>
87771-40-2

>  <UNII>
N3RIB7X24K

>  <SYNONYMS>
Ioversol; N,N'-Bis (2,3-dihydroxypropyl)-5-[N-(2-hydroxyethyl) -glycolamido] -2,4,6-triiodoisophthalamide; Optiray

$$$$
