
 OpenBabel10282417133D

 72 76  0  0  1  0  0  0  0  0999 V2000
    1.0132    0.0777   -0.0462 C   0  0  0  0  0  0  0  0  0  0  0  0
   -2.0713    2.8335   -1.6086 C   0  0  0  0  0  0  0  0  0  0  0  0
   -1.3917    1.8822   -0.8574 C   0  0  0  0  0  0  0  0  0  0  0  0
   -1.5736    4.1191   -1.6697 C   0  0  0  0  0  0  0  0  0  0  0  0
    0.0778    3.6077   -0.0657 C   0  0  0  0  0  0  0  0  0  0  0  0
    3.1277    6.0990    0.1547 C   0  0  0  0  0  0  0  0  0  0  0  0
    1.4980    8.5920    6.8407 C   0  0  0  0  0  0  0  0  0  0  0  0
    4.6043    8.9836   12.1596 C   0  0  0  0  0  0  0  0  0  0  0  0
    5.3673    7.0278    8.7404 C   0  0  0  0  0  0  0  0  0  0  0  0
    0.5151    1.3076    0.6822 C   0  0  0  0  0  0  0  0  0  0  0  0
   -0.3034    2.2720   -0.0869 C   0  0  0  0  0  0  0  0  0  0  0  0
    2.0674    6.8541   -0.7208 C   0  0  2  0  0  0  0  0  0  0  0  0
    2.7701    9.3702    6.4417 C   0  0  2  0  0  0  0  0  0  0  0  0
    3.8077    7.6889   10.0334 C   0  0  0  0  0  0  0  0  0  0  0  0
    0.8640    7.6977   -0.1427 C   0  0  2  0  0  0  0  0  0  0  0  0
    3.6265    8.5721    5.4546 C   0  0  2  0  0  0  0  0  0  0  0  0
   -0.2497    6.6872    0.0319 C   0  0  2  0  0  0  0  0  0  0  0  0
    4.6452    7.9065    6.3376 C   0  0  2  0  0  0  0  0  0  0  0  0
    2.8860    7.8256   11.0942 C   0  0  0  0  0  0  0  0  0  0  0  0
    4.8354    8.6262    9.9929 C   0  0  0  0  0  0  0  0  0  0  0  0
    0.0179    5.8244   -1.1600 C   0  0  2  0  0  0  0  0  0  0  0  0
    4.8816    8.9742    7.4382 C   0  0  2  0  0  0  0  0  0  0  0  0
    1.6073    7.2923   11.1907 N   0  0  0  0  0  0  0  0  0  0  0  0
    3.3612    8.4485   12.2048 N   0  0  0  0  0  0  0  0  0  0  0  0
    5.3742    9.2241   11.0730 N   0  0  0  0  0  0  0  0  0  0  0  0
    4.1527    6.6705    9.1508 N   0  0  0  0  0  0  0  0  0  0  0  0
   -0.5025    4.4770   -0.9375 N   0  3  0  0  0  0  0  0  0  0  0  0
    5.3687    8.4182    8.7308 N   0  0  0  0  0  0  0  0  0  0  0  0
    0.8219    1.5742    1.8130 O   0  0  0  0  0  0  0  0  0  0  0  0
    0.5447    8.8236   -0.9452 O   0  0  0  0  0  0  0  0  0  0  0  0
    4.2597    9.3897    4.4699 O   0  0  0  0  0  0  0  0  0  0  0  0
   -1.5474    7.2398    0.0298 O   0  0  0  0  0  0  0  0  0  0  0  0
    5.8567    7.5731    5.6547 O   0  0  0  0  0  0  0  0  0  0  0  0
    2.5216    6.2533    3.4394 O   0  0  0  0  0  0  0  0  0  0  0  0
    2.7638    7.9485    1.7887 O   0  0  0  0  0  0  0  0  0  0  0  0
   -0.9512    8.1825    5.0359 O   0  0  0  0  0  0  0  0  0  0  0  0
    0.0599    5.8608    4.4507 O   0  5  0  0  0  0  0  0  0  0  0  0
    2.5645    5.5639    1.3420 O   0  0  0  0  0  0  0  0  0  0  0  0
    1.3219    7.5159    5.9045 O   0  0  0  0  0  0  0  0  0  0  0  0
    1.4083    5.7929   -1.4607 O   0  0  0  0  0  0  0  0  0  0  0  0
    3.6335    9.6996    7.5803 O   0  0  0  0  0  0  0  0  0  0  0  0
    0.8315    7.9408    3.1639 O   0  0  0  0  0  0  0  0  0  0  0  0
    1.6980    6.7523    2.2530 P   0  0  3  0  0  0  0  0  0  0  0  0
    0.2465    7.3458    4.6730 P   0  0  3  0  0  0  0  0  0  0  0  0
    2.6278    7.4570   -1.4423 H   0  0  0  0  0  0  0  0  0  0  0  0
    2.4528   10.3287    6.0222 H   0  0  0  0  0  0  0  0  0  0  0  0
    0.9309    8.2306    0.7902 H   0  0  0  0  0  0  0  0  0  0  0  0
    3.0963    7.8162    4.8999 H   0  0  0  0  0  0  0  0  0  0  0  0
   -0.1529    6.0869    0.9432 H   0  0  0  0  0  0  0  0  0  0  0  0
    4.1874    6.9759    6.7002 H   0  0  0  0  0  0  0  0  0  0  0  0
   -0.4801    6.2732   -2.0241 H   0  0  0  0  0  0  0  0  0  0  0  0
    5.6671    9.6669    7.1074 H   0  0  0  0  0  0  0  0  0  0  0  0
    0.6874    0.0586   -1.0887 H   0  0  0  0  0  0  0  0  0  0  0  0
    0.6485   -0.8183    0.4592 H   0  0  0  0  0  0  0  0  0  0  0  0
    2.1075    0.0915   -0.0420 H   0  0  0  0  0  0  0  0  0  0  0  0
   -2.9663    2.5814   -2.1679 H   0  0  0  0  0  0  0  0  0  0  0  0
   -1.7319    0.8505   -0.8637 H   0  0  0  0  0  0  0  0  0  0  0  0
   -2.0146    4.8744   -2.3154 H   0  0  0  0  0  0  0  0  0  0  0  0
    0.8553    3.9654    0.6061 H   0  0  0  0  0  0  0  0  0  0  0  0
    3.5745    5.2617   -0.3963 H   0  0  0  0  0  0  0  0  0  0  0  0
    3.9867    6.7282    0.4260 H   0  0  0  0  0  0  0  0  0  0  0  0
    0.6245    9.2532    6.8992 H   0  0  0  0  0  0  0  0  0  0  0  0
    1.6213    8.2139    7.8763 H   0  0  0  0  0  0  0  0  0  0  0  0
    5.0361    9.2380   13.1241 H   0  0  0  0  0  0  0  0  0  0  0  0
    6.0970    6.4996    8.1369 H   0  0  0  0  0  0  0  0  0  0  0  0
    1.0800    7.1249   10.3422 H   0  0  0  0  0  0  0  0  0  0  0  0
    1.0959    7.6300   11.9979 H   0  0  0  0  0  0  0  0  0  0  0  0
    0.2489    8.6066   -1.8353 H   0  0  0  0  0  0  0  0  0  0  0  0
    4.7169   10.1050    4.9276 H   0  0  0  0  0  0  0  0  0  0  0  0
   -1.4776    8.1995   -0.1443 H   0  0  0  0  0  0  0  0  0  0  0  0
    5.8955    8.1612    4.8776 H   0  0  0  0  0  0  0  0  0  0  0  0
    2.7405    8.5028    0.9941 H   0  0  0  0  0  0  0  0  0  0  0  0
  1 53  1  0  0  0  0
  1 54  1  0  0  0  0
  1 55  1  0  0  0  0
  2 56  1  0  0  0  0
  3  2  2  0  0  0  0
  3 57  1  0  0  0  0
  4  2  1  0  0  0  0
  4 58  1  0  0  0  0
  5 59  1  0  0  0  0
  6 60  1  0  0  0  0
  6 61  1  0  0  0  0
  7 62  1  0  0  0  0
  7 63  1  0  0  0  0
  8 64  1  0  0  0  0
  9 65  1  0  0  0  0
 10  1  1  0  0  0  0
 11  3  1  0  0  0  0
 11  5  2  0  0  0  0
 11 10  1  0  0  0  0
 12 45  1  6  0  0  0
 12  6  1  0  0  0  0
 13  7  1  0  0  0  0
 13 46  1  6  0  0  0
 15 12  1  0  0  0  0
 15 30  1  0  0  0  0
 15 47  1  1  0  0  0
 16 13  1  0  0  0  0
 16 31  1  0  0  0  0
 16 48  1  6  0  0  0
 17 15  1  0  0  0  0
 17 32  1  0  0  0  0
 17 49  1  1  0  0  0
 18 16  1  0  0  0  0
 18 33  1  0  0  0  0
 18 50  1  1  0  0  0
 19 14  2  0  0  0  0
 20 14  1  0  0  0  0
 21 17  1  0  0  0  0
 21 27  1  0  0  0  0
 21 51  1  6  0  0  0
 22 18  1  0  0  0  0
 22 52  1  6  0  0  0
 22 28  1  0  0  0  0
 23 19  1  0  0  0  0
 23 66  1  0  0  0  0
 23 67  1  0  0  0  0
 24  8  2  0  0  0  0
 24 19  1  0  0  0  0
 25  8  1  0  0  0  0
 25 20  2  0  0  0  0
 26  9  2  0  0  0  0
 26 14  1  0  0  0  0
 27  4  2  0  0  0  0
 27  5  1  0  0  0  0
 28  9  1  0  0  0  0
 28 20  1  0  0  0  0
 29 10  2  0  0  0  0
 30 68  1  0  0  0  0
 31 69  1  0  0  0  0
 32 70  1  0  0  0  0
 33 71  1  0  0  0  0
 35 72  1  0  0  0  0
 38  6  1  0  0  0  0
 39  7  1  0  0  0  0
 40 12  1  0  0  0  0
 40 21  1  0  0  0  0
 41 13  1  0  0  0  0
 41 22  1  0  0  0  0
 43 34  2  0  0  0  0
 43 35  1  0  0  0  0
 43 38  1  0  0  0  0
 43 42  1  0  0  0  0
 44 36  2  0  0  0  0
 44 37  1  0  0  0  0
 44 39  1  0  0  0  0
 44 42  1  0  0  0  0
M  CHG  2  27   1  37  -1
M  END
>  <DRUGBANK_ID>
DB03363

>  <SECONDARY_ACCESSION_NUMBERS>
EXPT00368; EXPT02282; DB03969

>  <COMMON_NAME>
3-Acetylpyridine Adenine Dinucleotide

$$$$
