
 OpenBabel10282417193D

102104  0  0  1  0  0  0  0  0999 V2000
   -3.4745    6.2785    0.1889 N   0  0  0  0  0  0  0  0  0  0  0  0
   -3.1136    4.9225    0.7722 C   0  0  2  0  0  0  0  0  0  0  0  0
   -1.8421    5.3454    1.4474 C   0  0  0  0  0  0  0  0  0  0  0  0
   -0.7748    5.8727    0.5126 C   0  0  0  0  0  0  0  0  0  0  0  0
    0.4511    6.0878    1.1206 C   0  0  0  0  0  0  0  0  0  0  0  0
    1.5736    6.1625    0.3664 C   0  0  0  0  0  0  0  0  0  0  0  0
    1.4557    5.7686   -0.9189 C   0  0  0  0  0  0  0  0  0  0  0  0
    0.2468    5.4336   -1.4983 C   0  0  0  0  0  0  0  0  0  0  0  0
   -0.8706    5.8413   -0.8721 C   0  0  0  0  0  0  0  0  0  0  0  0
   -2.6691    3.5860   -0.1024 C   0  0  0  0  0  0  0  0  0  0  0  0
   -3.4586    2.4930   -0.4040 N   0  0  0  0  0  0  0  0  0  0  0  0
   -3.1785    1.5401   -1.5826 C   0  0  2  0  0  0  0  0  0  0  0  0
   -1.6766    1.2758   -1.6964 C   0  0  0  0  0  0  0  0  0  0  0  0
   -1.1808    0.2400   -2.6321 C   0  0  0  0  0  0  0  0  0  0  0  0
    0.0523    0.5074   -3.2470 C   0  0  0  0  0  0  0  0  0  0  0  0
    0.6228   -0.4238   -4.0850 C   0  0  0  0  0  0  0  0  0  0  0  0
   -0.0189   -1.6441   -4.2653 C   0  0  0  0  0  0  0  0  0  0  0  0
   -1.2335   -1.9211   -3.6304 C   0  0  0  0  0  0  0  0  0  0  0  0
   -1.8446   -0.9586   -2.8470 C   0  0  0  0  0  0  0  0  0  0  0  0
   -3.8006    1.7896   -3.0589 C   0  0  0  0  0  0  0  0  0  0  0  0
   -4.5461    0.9459   -3.5766 O   0  0  0  0  0  0  0  0  0  0  0  0
   -3.5228    2.8907   -3.8313 N   0  0  0  0  0  0  0  0  0  0  0  0
   -2.7745    4.0587   -3.4252 C   0  0  1  0  0  0  0  0  0  0  0  0
   -1.4044    4.2571   -4.1787 C   0  0  0  0  0  0  0  0  0  0  0  0
   -1.0226    5.5559   -4.5063 N   0  0  0  0  0  0  0  0  0  0  0  0
    0.1226    5.8523   -5.3910 C   0  0  1  0  0  0  0  0  0  0  0  0
   -0.2891    6.3338   -6.7775 C   0  0  0  0  0  0  0  0  0  0  0  0
    0.2394    7.3223   -7.2936 O   0  0  0  0  0  0  0  0  0  0  0  0
   -1.0484    5.4661   -7.5223 N   0  0  0  0  0  0  0  0  0  0  0  0
   -2.2501    4.7661   -7.0970 C   0  0  0  0  0  0  0  0  0  0  0  0
   -2.1329    3.2707   -7.3653 C   0  0  0  0  0  0  0  0  0  0  0  0
   -1.8163    3.0357   -8.8504 C   0  0  3  0  0  0  0  0  0  0  0  0
   -0.5453    3.8291   -9.2162 C   0  0  0  0  0  0  0  0  0  0  0  0
   -0.7034    5.3159   -8.9171 C   0  0  0  0  0  0  0  0  0  0  0  0
   -1.5274    1.5331   -9.0940 C   0  0  0  0  0  0  0  0  0  0  0  0
   -2.3555    0.9583  -10.0110 O   0  0  0  0  0  0  0  0  0  0  0  0
   -0.6412    0.9122   -8.5624 O   0  0  0  0  0  0  0  0  0  0  0  0
   -2.9574    3.5120   -9.6684 N   0  0  0  0  0  0  0  0  0  0  0  0
    1.0886    6.9295   -4.8684 C   0  0  0  0  0  0  0  0  0  0  0  0
    1.6971    6.5465   -3.5702 C   0  0  0  0  0  0  0  0  0  0  0  0
    2.3636    5.1013   -3.5703 C   0  0  0  0  0  0  0  0  0  0  0  0
    3.7292    5.1965   -4.1939 C   0  0  0  0  0  0  0  0  0  0  0  0
    4.5585    6.1104   -3.4097 N   0  0  0  0  0  0  0  0  0  0  0  0
   -0.6705    3.3045   -4.4344 O   0  0  0  0  0  0  0  0  0  0  0  0
   -3.6925    5.2900   -3.3017 C   0  0  0  0  0  0  0  0  0  0  0  0
   -5.0957    5.1427   -2.6112 C   0  0  0  0  0  0  0  0  0  0  0  0
   -5.1370    4.4045   -1.3222 C   0  0  0  0  0  0  0  0  0  0  0  0
   -5.6470    6.5181   -2.2755 C   0  0  0  0  0  0  0  0  0  0  0  0
   -1.5076    3.5010   -0.5578 O   0  0  0  0  0  0  0  0  0  0  0  0
   -3.2176    6.5022   -0.7625 H   0  0  0  0  0  0  0  0  0  0  0  0
   -4.3293    6.7307    0.4745 H   0  0  0  0  0  0  0  0  0  0  0  0
   -3.9291    4.6263    1.4287 H   0  0  0  0  0  0  0  0  0  0  0  0
   -2.0426    6.1250    2.1794 H   0  0  0  0  0  0  0  0  0  0  0  0
   -1.4304    4.4534    1.9297 H   0  0  0  0  0  0  0  0  0  0  0  0
    0.5221    6.0898    2.1905 H   0  0  0  0  0  0  0  0  0  0  0  0
    2.5681    6.3594    0.7184 H   0  0  0  0  0  0  0  0  0  0  0  0
    2.3904    5.8264   -1.4360 H   0  0  0  0  0  0  0  0  0  0  0  0
    0.1450    5.0016   -2.4853 H   0  0  0  0  0  0  0  0  0  0  0  0
   -1.7634    5.7079   -1.4552 H   0  0  0  0  0  0  0  0  0  0  0  0
   -4.3184    2.3292    0.1058 H   0  0  0  0  0  0  0  0  0  0  0  0
   -3.6690    0.6075   -1.2671 H   0  0  0  0  0  0  0  0  0  0  0  0
   -1.1931    2.1755   -2.0713 H   0  0  0  0  0  0  0  0  0  0  0  0
   -1.2640    1.0616   -0.7015 H   0  0  0  0  0  0  0  0  0  0  0  0
    0.5517    1.4645   -3.0850 H   0  0  0  0  0  0  0  0  0  0  0  0
    1.5612   -0.1890   -4.5747 H   0  0  0  0  0  0  0  0  0  0  0  0
    0.4283   -2.3850   -4.9152 H   0  0  0  0  0  0  0  0  0  0  0  0
   -1.7076   -2.8895   -3.7396 H   0  0  0  0  0  0  0  0  0  0  0  0
   -2.8233   -1.1504   -2.4173 H   0  0  0  0  0  0  0  0  0  0  0  0
   -3.9174    2.8692   -4.7657 H   0  0  0  0  0  0  0  0  0  0  0  0
   -2.4363    3.8026   -2.4510 H   0  0  0  0  0  0  0  0  0  0  0  0
   -1.6089    6.3388   -4.2631 H   0  0  0  0  0  0  0  0  0  0  0  0
    0.6793    4.9244   -5.5629 H   0  0  0  0  0  0  0  0  0  0  0  0
   -2.5228    4.9686   -6.0731 H   0  0  0  0  0  0  0  0  0  0  0  0
   -3.0815    5.2078   -7.6535 H   0  0  0  0  0  0  0  0  0  0  0  0
   -1.3264    2.8446   -6.7538 H   0  0  0  0  0  0  0  0  0  0  0  0
   -3.0508    2.7570   -7.0573 H   0  0  0  0  0  0  0  0  0  0  0  0
    0.2952    3.4457   -8.6153 H   0  0  0  0  0  0  0  0  0  0  0  0
   -0.2719    3.6822  -10.2644 H   0  0  0  0  0  0  0  0  0  0  0  0
   -1.4954    5.7846   -9.5058 H   0  0  0  0  0  0  0  0  0  0  0  0
    0.2372    5.8311   -9.1434 H   0  0  0  0  0  0  0  0  0  0  0  0
   -3.0121    1.5790  -10.3682 H   0  0  0  0  0  0  0  0  0  0  0  0
   -2.7571    3.5127  -10.6640 H   0  0  0  0  0  0  0  0  0  0  0  0
   -3.8417    3.0790   -9.4174 H   0  0  0  0  0  0  0  0  0  0  0  0
    1.9139    7.1431   -5.5515 H   0  0  0  0  0  0  0  0  0  0  0  0
    0.5403    7.8699   -4.7124 H   0  0  0  0  0  0  0  0  0  0  0  0
    2.3458    7.3267   -3.1646 H   0  0  0  0  0  0  0  0  0  0  0  0
    0.8274    6.7529   -2.9633 H   0  0  0  0  0  0  0  0  0  0  0  0
    2.5602    4.5857   -2.6191 H   0  0  0  0  0  0  0  0  0  0  0  0
    1.7363    4.3329   -4.0296 H   0  0  0  0  0  0  0  0  0  0  0  0
    4.1967    4.2085   -4.2002 H   0  0  0  0  0  0  0  0  0  0  0  0
    3.6005    5.5434   -5.2176 H   0  0  0  0  0  0  0  0  0  0  0  0
    5.3939    6.3388   -3.9361 H   0  0  0  0  0  0  0  0  0  0  0  0
    4.0922    7.0051   -3.2747 H   0  0  0  0  0  0  0  0  0  0  0  0
   -3.1252    6.0985   -2.8275 H   0  0  0  0  0  0  0  0  0  0  0  0
   -3.8876    5.6719   -4.3040 H   0  0  0  0  0  0  0  0  0  0  0  0
   -5.7451    4.5642   -3.2626 H   0  0  0  0  0  0  0  0  0  0  0  0
   -4.2459    4.7776   -0.9294 H   0  0  0  0  0  0  0  0  0  0  0  0
   -5.8827    4.5762   -0.5359 H   0  0  0  0  0  0  0  0  0  0  0  0
   -5.0480    3.3509   -1.4860 H   0  0  0  0  0  0  0  0  0  0  0  0
   -5.9333    7.0154   -3.1937 H   0  0  0  0  0  0  0  0  0  0  0  0
   -6.5046    6.4307   -1.5984 H   0  0  0  0  0  0  0  0  0  0  0  0
   -4.9210    7.1581   -1.7597 H   0  0  0  0  0  0  0  0  0  0  0  0
  1 50  1  0  0  0  0
  1 51  1  0  0  0  0
  2 10  1  0  0  0  0
  2 52  1  1  0  0  0
  2  3  1  0  0  0  0
  2  1  1  0  0  0  0
  3  4  1  0  0  0  0
  3 53  1  0  0  0  0
  3 54  1  0  0  0  0
  4  5  2  0  0  0  0
  5  6  1  0  0  0  0
  5 55  1  0  0  0  0
  6  7  2  0  0  0  0
  6 56  1  0  0  0  0
  7  8  1  0  0  0  0
  7 57  1  0  0  0  0
  8  9  2  0  0  0  0
  8 58  1  0  0  0  0
  9  4  1  0  0  0  0
  9 59  1  0  0  0  0
 10 11  1  0  0  0  0
 10 49  2  0  0  0  0
 11 60  1  0  0  0  0
 12 20  1  0  0  0  0
 12 61  1  1  0  0  0
 12 13  1  0  0  0  0
 12 11  1  0  0  0  0
 13 14  1  0  0  0  0
 13 62  1  0  0  0  0
 13 63  1  0  0  0  0
 14 15  2  0  0  0  0
 15 16  1  0  0  0  0
 15 64  1  0  0  0  0
 16 17  2  0  0  0  0
 16 65  1  0  0  0  0
 17 18  1  0  0  0  0
 17 66  1  0  0  0  0
 18 19  2  0  0  0  0
 18 67  1  0  0  0  0
 19 14  1  0  0  0  0
 19 68  1  0  0  0  0
 20 21  2  0  0  0  0
 20 22  1  0  0  0  0
 22 23  1  0  0  0  0
 22 69  1  0  0  0  0
 23 24  1  0  0  0  0
 23 45  1  0  0  0  0
 23 70  1  1  0  0  0
 24 25  1  0  0  0  0
 24 44  2  0  0  0  0
 25 26  1  0  0  0  0
 25 71  1  0  0  0  0
 26 27  1  0  0  0  0
 26 39  1  0  0  0  0
 26 72  1  6  0  0  0
 27 28  2  0  0  0  0
 27 29  1  0  0  0  0
 29 30  1  0  0  0  0
 29 34  1  0  0  0  0
 30 31  1  0  0  0  0
 30 73  1  0  0  0  0
 30 74  1  0  0  0  0
 31 32  1  0  0  0  0
 31 75  1  0  0  0  0
 31 76  1  0  0  0  0
 32 33  1  0  0  0  0
 32 35  1  0  0  0  0
 32 38  1  0  0  0  0
 33 34  1  0  0  0  0
 33 77  1  0  0  0  0
 33 78  1  0  0  0  0
 34 79  1  0  0  0  0
 34 80  1  0  0  0  0
 35 36  1  0  0  0  0
 35 37  2  0  0  0  0
 36 81  1  0  0  0  0
 38 82  1  0  0  0  0
 38 83  1  0  0  0  0
 39 40  1  0  0  0  0
 39 84  1  0  0  0  0
 39 85  1  0  0  0  0
 40 41  1  0  0  0  0
 40 86  1  0  0  0  0
 40 87  1  0  0  0  0
 41 42  1  0  0  0  0
 41 88  1  0  0  0  0
 41 89  1  0  0  0  0
 42 43  1  0  0  0  0
 42 90  1  0  0  0  0
 42 91  1  0  0  0  0
 43 92  1  0  0  0  0
 43 93  1  0  0  0  0
 45 46  1  0  0  0  0
 45 94  1  0  0  0  0
 45 95  1  0  0  0  0
 46 47  1  0  0  0  0
 46 48  1  0  0  0  0
 46 96  1  0  0  0  0
 47 97  1  0  0  0  0
 47 98  1  0  0  0  0
 47 99  1  0  0  0  0
 48100  1  0  0  0  0
 48101  1  0  0  0  0
 48102  1  0  0  0  0
M  END
>  <DRUGBANK_ID>
DB11938

>  <COMMON_NAME>
Difelikefalin

>  <CAS_NUMBER>
1024828-77-0

>  <UNII>
NA1U919MRO

>  <SYNONYMS>
Difelikefalin

$$$$
