1573
 OpenBabel10282417113D

 53 58  0  0  1  0  0  0  0  0999 V2000
   -1.9586    0.1752    1.0541 O   0  0  0  0  0  0  0  0  0  0  0  0
   -3.0287   -1.9212   -0.8033 O   0  0  0  0  0  0  0  0  0  0  0  0
   -2.9661    3.0049    0.5822 O   0  0  0  0  0  0  0  0  0  0  0  0
    2.9787   -1.0037    0.3029 N   0  0  0  0  0  0  0  0  0  0  0  0
    0.2068   -0.6296    0.5176 C   0  0  1  0  0  0  0  0  0  0  0  0
    0.8736   -1.2921   -0.7111 C   0  0  2  0  0  0  0  0  0  0  0  0
    2.2095   -0.6099   -0.8940 C   0  0  1  0  0  0  0  0  0  0  0  0
   -1.2364   -1.0410    0.7382 C   0  0  2  0  0  0  0  0  0  0  0  0
    1.0336   -0.8082    1.7928 C   0  0  0  0  0  0  0  0  0  0  0  0
    0.0073    0.8221    0.2128 C   0  0  0  0  0  0  0  0  0  0  0  0
    2.0510    0.9386   -1.1757 C   0  0  0  0  0  0  0  0  0  0  0  0
    2.4815   -0.3982    1.5421 C   0  0  0  0  0  0  0  0  0  0  0  0
    0.8583    1.6083   -0.5313 C   0  0  0  0  0  0  0  0  0  0  0  0
   -1.6963   -1.8900   -0.4956 C   0  0  2  0  0  0  0  0  0  0  0  0
    0.0538   -1.1825   -1.9686 C   0  0  0  0  0  0  0  0  0  0  0  0
   -1.2507    1.2348    0.5866 C   0  0  0  0  0  0  0  0  0  0  0  0
   -1.2107   -1.4494   -1.8295 C   0  0  0  0  0  0  0  0  0  0  0  0
    0.4665    2.9333   -0.7361 C   0  0  0  0  0  0  0  0  0  0  0  0
    4.3878   -0.7548    0.0937 C   0  0  0  0  0  0  0  0  0  0  0  0
   -1.7033    2.5210    0.3627 C   0  0  0  0  0  0  0  0  0  0  0  0
   -0.7928    3.3923   -0.2661 C   0  0  0  0  0  0  0  0  0  0  0  0
   -3.9168    2.2221    1.3312 C   0  0  0  0  0  0  0  0  0  0  0  0
   -4.5624    1.0262    0.6465 C   0  0  0  0  0  0  0  0  0  0  0  0
   -4.4658   -0.2260    1.2820 C   0  0  0  0  0  0  0  0  0  0  0  0
   -5.2285    1.1043   -0.5834 C   0  0  0  0  0  0  0  0  0  0  0  0
   -4.8826   -1.3892    0.6473 C   0  0  0  0  0  0  0  0  0  0  0  0
   -5.6700   -0.0618   -1.2223 C   0  0  0  0  0  0  0  0  0  0  0  0
   -5.4475   -1.3063   -0.6349 C   0  0  0  0  0  0  0  0  0  0  0  0
    0.9952   -2.3693   -0.5093 H   0  0  0  0  0  0  0  0  0  0  0  0
    2.6727   -1.0739   -1.7766 H   0  0  0  0  0  0  0  0  0  0  0  0
   -1.3637   -1.6598    1.6389 H   0  0  0  0  0  0  0  0  0  0  0  0
   -3.2392   -0.9725   -0.9489 H   0  0  0  0  0  0  0  0  0  0  0  0
    0.9942   -1.8613    2.1047 H   0  0  0  0  0  0  0  0  0  0  0  0
    0.6235   -0.2246    2.6300 H   0  0  0  0  0  0  0  0  0  0  0  0
    2.9572    1.4699   -0.8880 H   0  0  0  0  0  0  0  0  0  0  0  0
    1.9327    1.0530   -2.2622 H   0  0  0  0  0  0  0  0  0  0  0  0
    3.0759   -0.7323    2.3982 H   0  0  0  0  0  0  0  0  0  0  0  0
    2.5579    0.6938    1.5082 H   0  0  0  0  0  0  0  0  0  0  0  0
   -1.4099   -2.9265   -0.2871 H   0  0  0  0  0  0  0  0  0  0  0  0
    0.4235   -0.8183   -2.9251 H   0  0  0  0  0  0  0  0  0  0  0  0
   -1.9210   -1.3026   -2.6493 H   0  0  0  0  0  0  0  0  0  0  0  0
    1.1044    3.6107   -1.2999 H   0  0  0  0  0  0  0  0  0  0  0  0
    4.7338   -1.3299   -0.7720 H   0  0  0  0  0  0  0  0  0  0  0  0
    4.5892    0.3033   -0.0820 H   0  0  0  0  0  0  0  0  0  0  0  0
    4.9612   -1.0901    0.9589 H   0  0  0  0  0  0  0  0  0  0  0  0
   -1.0765    4.4278   -0.4529 H   0  0  0  0  0  0  0  0  0  0  0  0
   -3.4772    1.9410    2.2976 H   0  0  0  0  0  0  0  0  0  0  0  0
   -4.7509    2.8885    1.5786 H   0  0  0  0  0  0  0  0  0  0  0  0
   -3.8483   -0.3297    2.1764 H   0  0  0  0  0  0  0  0  0  0  0  0
   -5.3720    2.0628   -1.0738 H   0  0  0  0  0  0  0  0  0  0  0  0
   -4.4352   -2.3318    0.9895 H   0  0  0  0  0  0  0  0  0  0  0  0
   -6.1013   -0.0219   -2.2187 H   0  0  0  0  0  0  0  0  0  0  0  0
   -5.4293   -2.1919   -1.2808 H   0  0  0  0  0  0  0  0  0  0  0  0
  1  8  1  0  0  0  0
  1 16  1  0  0  0  0
  2 32  1  0  0  0  0
  3 20  1  0  0  0  0
  3 22  1  0  0  0  0
  4  7  1  0  0  0  0
  4 12  1  0  0  0  0
  4 19  1  0  0  0  0
  5  6  1  0  0  0  0
  5  8  1  0  0  0  0
  5  9  1  0  0  0  0
  5 10  1  6  0  0  0
  6  7  1  0  0  0  0
  6 15  1  0  0  0  0
  6 29  1  1  0  0  0
  7 11  1  0  0  0  0
  7 30  1  6  0  0  0
  8 14  1  0  0  0  0
  8 31  1  1  0  0  0
  9 12  1  0  0  0  0
  9 33  1  0  0  0  0
  9 34  1  0  0  0  0
 10 13  2  0  0  0  0
 10 16  1  0  0  0  0
 11 13  1  0  0  0  0
 11 35  1  0  0  0  0
 11 36  1  0  0  0  0
 12 37  1  0  0  0  0
 12 38  1  0  0  0  0
 13 18  1  0  0  0  0
 14  2  1  0  0  0  0
 14 17  1  0  0  0  0
 14 39  1  1  0  0  0
 15 17  2  0  0  0  0
 15 40  1  0  0  0  0
 16 20  2  0  0  0  0
 17 41  1  0  0  0  0
 18 21  2  0  0  0  0
 18 42  1  0  0  0  0
 19 43  1  0  0  0  0
 19 44  1  0  0  0  0
 19 45  1  0  0  0  0
 20 21  1  0  0  0  0
 21 46  1  0  0  0  0
 22 23  1  0  0  0  0
 22 47  1  0  0  0  0
 22 48  1  0  0  0  0
 23 24  2  0  0  0  0
 23 25  1  0  0  0  0
 24 26  1  0  0  0  0
 24 49  1  0  0  0  0
 25 27  2  0  0  0  0
 25 50  1  0  0  0  0
 26 28  2  0  0  0  0
 26 51  1  0  0  0  0
 27 28  1  0  0  0  0
 27 52  1  0  0  0  0
 28 53  1  0  0  0  0
M  END
>  <DRUGBANK_ID>
DB01573

>  <COMMON_NAME>
Benzylmorphine

>  <CAS_NUMBER>
14297-87-1

>  <UNII>
83C78V3OL9

$$$$
