CB3
 OpenBabel10282417133D

 58 60  0  0  0  0  0  0  0  0999 V2000
    1.2362    1.3843    0.1049 N   0  0  0  0  0  0  0  0  0  0  0  0
    2.3815    0.6665   -0.0348 C   0  0  0  0  0  0  0  0  0  0  0  0
    3.4977    1.4165   -0.1247 N   0  0  0  0  0  0  0  0  0  0  0  0
    2.4818   -0.6220   -0.0832 N   0  0  0  0  0  0  0  0  0  0  0  0
    1.3294   -1.3739    0.0012 C   0  0  0  0  0  0  0  0  0  0  0  0
    1.3341   -2.6008   -0.0397 O   0  0  0  0  0  0  0  0  0  0  0  0
    0.0201   -0.6859    0.0921 C   0  0  0  0  0  0  0  0  0  0  0  0
   -1.1709   -1.4041    0.1371 C   0  0  0  0  0  0  0  0  0  0  0  0
   -2.3813   -0.7239   -0.0218 C   0  0  0  0  0  0  0  0  0  0  0  0
   -2.3717    0.6665   -0.1645 C   0  0  0  0  0  0  0  0  0  0  0  0
   -1.2013    1.3830    0.0713 C   0  0  0  0  0  0  0  0  0  0  0  0
    0.0167    0.7102    0.0984 C   0  0  0  0  0  0  0  0  0  0  0  0
   -3.6897   -1.4662    0.0399 C   0  0  0  0  0  0  0  0  0  0  0  0
   -3.7825   -2.4900   -0.9807 N   0  0  0  0  0  0  0  0  0  0  0  0
   -3.9726   -6.4938    0.3646 C   0  0  0  0  0  0  0  0  0  0  0  0
   -3.3591   -6.0865   -0.8228 C   0  0  0  0  0  0  0  0  0  0  0  0
   -3.1342   -4.7717   -1.1694 C   0  0  0  0  0  0  0  0  0  0  0  0
   -3.8743   -3.7957   -0.5605 C   0  0  0  0  0  0  0  0  0  0  0  0
   -4.7386   -4.2048    0.4706 C   0  0  0  0  0  0  0  0  0  0  0  0
   -4.7182   -5.5092    0.9992 C   0  0  0  0  0  0  0  0  0  0  0  0
   -3.9015   -7.8798    0.9755 C   0  0  0  0  0  0  0  0  0  0  0  0
   -4.5321   -8.1283    2.0041 O   0  0  0  0  0  0  0  0  0  0  0  0
   -3.0994   -8.8822    0.4620 N   0  0  0  0  0  0  0  0  0  0  0  0
   -2.2891   -8.8463   -0.7381 C   0  0  1  0  0  0  0  0  0  0  0  0
   -0.8109   -9.0892   -0.5202 C   0  0  0  0  0  0  0  0  0  0  0  0
   -0.4849  -10.4781   -0.0478 C   0  0  0  0  0  0  0  0  0  0  0  0
   -0.6854  -11.5324   -1.0951 C   0  0  0  0  0  0  0  0  0  0  0  0
    0.1183  -11.8696   -1.9447 O   0  0  0  0  0  0  0  0  0  0  0  0
   -1.9207  -12.0465   -1.0968 O   0  0  0  0  0  0  0  0  0  0  0  0
   -3.0006   -9.3872   -1.9872 C   0  0  0  0  0  0  0  0  0  0  0  0
   -2.9262   -8.9109   -3.1097 O   0  0  0  0  0  0  0  0  0  0  0  0
   -3.6433  -10.5522   -1.8081 O   0  0  0  0  0  0  0  0  0  0  0  0
   -3.6273   -2.1358   -2.3914 C   0  0  0  0  0  0  0  0  0  0  0  0
   -4.7213   -1.2462   -2.7888 C   0  0  0  0  0  0  0  0  0  0  0  0
   -5.6416   -0.5098   -3.0774 C   0  0  0  0  0  0  0  0  0  0  0  0
   -2.1279   -7.8263   -0.9579 H   0  0  0  0  0  0  0  0  0  0  0  0
    1.2349    2.3883    0.0322 H   0  0  0  0  0  0  0  0  0  0  0  0
    3.5196    2.4214   -0.0902 H   0  0  0  0  0  0  0  0  0  0  0  0
    4.3766    0.9165   -0.1884 H   0  0  0  0  0  0  0  0  0  0  0  0
   -1.1555   -2.4863    0.2530 H   0  0  0  0  0  0  0  0  0  0  0  0
   -3.2812    1.1930   -0.4454 H   0  0  0  0  0  0  0  0  0  0  0  0
   -1.2577    2.4582    0.2077 H   0  0  0  0  0  0  0  0  0  0  0  0
   -3.7482   -1.8813    1.0550 H   0  0  0  0  0  0  0  0  0  0  0  0
   -4.5370   -0.7829   -0.0581 H   0  0  0  0  0  0  0  0  0  0  0  0
   -3.0893   -6.7217   -1.6452 H   0  0  0  0  0  0  0  0  0  0  0  0
   -2.4264   -4.5673   -1.9684 H   0  0  0  0  0  0  0  0  0  0  0  0
   -5.4653   -3.4975    0.8582 H   0  0  0  0  0  0  0  0  0  0  0  0
   -5.3279   -5.7465    1.8685 H   0  0  0  0  0  0  0  0  0  0  0  0
   -3.2009   -9.7749    0.9361 H   0  0  0  0  0  0  0  0  0  0  0  0
   -0.2553   -8.8079   -1.4268 H   0  0  0  0  0  0  0  0  0  0  0  0
   -0.4789   -8.3694    0.2512 H   0  0  0  0  0  0  0  0  0  0  0  0
    0.5697  -10.5031    0.2312 H   0  0  0  0  0  0  0  0  0  0  0  0
   -1.0669  -10.7084    0.8481 H   0  0  0  0  0  0  0  0  0  0  0  0
   -2.0292  -12.4552   -1.9805 H   0  0  0  0  0  0  0  0  0  0  0  0
   -3.6468  -10.9672   -2.6948 H   0  0  0  0  0  0  0  0  0  0  0  0
   -2.6587   -1.6535   -2.5715 H   0  0  0  0  0  0  0  0  0  0  0  0
   -3.6480   -3.0167   -3.0464 H   0  0  0  0  0  0  0  0  0  0  0  0
   -6.4515    0.1262   -3.3165 H   0  0  0  0  0  0  0  0  0  0  0  0
  1  2  1  0  0  0  0
  1 12  1  0  0  0  0
  1 37  1  0  0  0  0
  2  3  1  0  0  0  0
  2  4  2  0  0  0  0
  3 38  1  0  0  0  0
  3 39  1  0  0  0  0
  4  5  1  0  0  0  0
  5  6  2  0  0  0  0
  5  7  1  0  0  0  0
  7  8  2  0  0  0  0
  7 12  1  0  0  0  0
  8  9  1  0  0  0  0
  8 40  1  0  0  0  0
  9 10  2  0  0  0  0
  9 13  1  0  0  0  0
 10 11  1  0  0  0  0
 10 41  1  0  0  0  0
 11 12  2  0  0  0  0
 11 42  1  0  0  0  0
 13 14  1  0  0  0  0
 13 43  1  0  0  0  0
 13 44  1  0  0  0  0
 14 18  1  0  0  0  0
 14 33  1  0  0  0  0
 15 16  2  0  0  0  0
 15 20  1  0  0  0  0
 15 21  1  0  0  0  0
 16 17  1  0  0  0  0
 16 45  1  0  0  0  0
 17 18  2  0  0  0  0
 17 46  1  0  0  0  0
 18 19  1  0  0  0  0
 19 20  2  0  0  0  0
 19 47  1  0  0  0  0
 20 48  1  0  0  0  0
 21 22  2  0  0  0  0
 21 23  1  0  0  0  0
 23 49  1  0  0  0  0
 24 23  1  0  0  0  0
 24 25  1  0  0  0  0
 24 30  1  0  0  0  0
 24 36  1  6  0  0  0
 25 26  1  0  0  0  0
 25 50  1  0  0  0  0
 25 51  1  0  0  0  0
 26 27  1  0  0  0  0
 26 52  1  0  0  0  0
 26 53  1  0  0  0  0
 27 28  2  0  0  0  0
 27 29  1  0  0  0  0
 29 54  1  0  0  0  0
 30 31  2  0  0  0  0
 30 32  1  0  0  0  0
 32 55  1  0  0  0  0
 33 34  1  0  0  0  0
 33 56  1  0  0  0  0
 33 57  1  0  0  0  0
 34 35  3  0  0  0  0
 35 58  1  0  0  0  0
M  END
>  <DRUGBANK_ID>
DB03541

>  <SECONDARY_ACCESSION_NUMBERS>
EXPT00839

>  <COMMON_NAME>
10-Propargyl-5,8-Dideazafolic Acid

$$$$
