TRZ
 OpenBabel10282417173D

 51 52  0  0  0  0  0  0  0  0999 V2000
   -1.3358   -0.0326   -0.0742 C   0  0  0  0  0  0  0  0  0  0  0  0
   -0.5143    1.1294   -0.1365 C   0  0  0  0  0  0  0  0  0  0  0  0
    0.9075    1.0351   -0.4376 C   0  0  0  0  0  0  0  0  0  0  0  0
    1.4604   -0.1681   -0.1154 C   0  0  0  0  0  0  0  0  0  0  0  0
    0.6661   -1.2564    0.1870 C   0  0  0  0  0  0  0  0  0  0  0  0
   -0.6964   -1.2642   -0.0157 C   0  0  0  0  0  0  0  0  0  0  0  0
    2.1100    2.1032   -1.2115 C   0  0  0  0  0  0  0  0  0  0  0  0
    3.0572    0.7717   -1.4817 C   0  0  2  0  0  0  0  0  0  0  0  0
    2.9102   -0.0554   -0.1883 C   0  0  2  0  0  0  0  0  0  0  0  0
    3.7967   -1.2943   -0.1183 C   0  0  0  0  0  0  0  0  0  0  0  0
    4.8875   -0.8411    0.8457 C   0  0  0  0  0  0  0  0  0  0  0  0
    3.2734   -2.6330    0.3798 C   0  0  0  0  0  0  0  0  0  0  0  0
    4.6020    0.9798   -1.7506 C   0  0  0  0  0  0  0  0  0  0  0  0
    2.7119    2.7973   -2.6123 C   0  0  0  0  0  0  0  0  0  0  0  0
    0.7791    2.6851   -1.7318 C   0  0  0  0  0  0  0  0  0  0  0  0
   -2.8404    0.0080   -0.1845 C   0  0  0  0  0  0  0  0  0  0  0  0
   -0.5858   -3.8941   -0.2093 C   0  0  0  0  0  0  0  0  0  0  0  0
   -1.0227   -4.7527    0.9610 C   0  0  0  0  0  0  0  0  0  0  0  0
   -2.4454   -5.2370    0.8346 C   0  0  0  0  0  0  0  0  0  0  0  0
   -2.7841   -6.3522    0.5252 O   0  0  0  0  0  0  0  0  0  0  0  0
   -3.3435   -4.2655    1.0951 O   0  0  0  0  0  0  0  0  0  0  0  0
   -1.3637   -2.5835   -0.2852 C   0  0  0  0  0  0  0  0  0  0  0  0
   -2.5242   -2.6137   -0.6905 O   0  0  0  0  0  0  0  0  0  0  0  0
    2.6653    0.2116   -2.3468 H   0  0  0  0  0  0  0  0  0  0  0  0
    3.1728    0.6378    0.6313 H   0  0  0  0  0  0  0  0  0  0  0  0
   -1.0412    2.0808   -0.0501 H   0  0  0  0  0  0  0  0  0  0  0  0
    1.1040   -2.1640    0.5111 H   0  0  0  0  0  0  0  0  0  0  0  0
    4.1571   -1.5191   -1.1262 H   0  0  0  0  0  0  0  0  0  0  0  0
    4.4470   -0.7189    1.8451 H   0  0  0  0  0  0  0  0  0  0  0  0
    5.7108   -1.5443    0.8739 H   0  0  0  0  0  0  0  0  0  0  0  0
    5.2820    0.1436    0.5775 H   0  0  0  0  0  0  0  0  0  0  0  0
    2.5752   -3.0675   -0.3453 H   0  0  0  0  0  0  0  0  0  0  0  0
    4.0827   -3.3589    0.4547 H   0  0  0  0  0  0  0  0  0  0  0  0
    2.8188   -2.5524    1.3746 H   0  0  0  0  0  0  0  0  0  0  0  0
    5.1641    0.0387   -1.7566 H   0  0  0  0  0  0  0  0  0  0  0  0
    4.8427    1.3719   -2.7434 H   0  0  0  0  0  0  0  0  0  0  0  0
    5.0636    1.6283   -0.9982 H   0  0  0  0  0  0  0  0  0  0  0  0
    2.4291    2.2430   -3.5232 H   0  0  0  0  0  0  0  0  0  0  0  0
    2.4393    3.8568   -2.7469 H   0  0  0  0  0  0  0  0  0  0  0  0
    3.7961    2.9454   -2.6333 H   0  0  0  0  0  0  0  0  0  0  0  0
    0.2437    1.9360   -2.3382 H   0  0  0  0  0  0  0  0  0  0  0  0
    0.3222    3.1246   -0.8391 H   0  0  0  0  0  0  0  0  0  0  0  0
    0.7119    3.6025   -2.3135 H   0  0  0  0  0  0  0  0  0  0  0  0
   -3.1449   -0.4184   -1.1495 H   0  0  0  0  0  0  0  0  0  0  0  0
   -3.3009   -0.5888    0.6154 H   0  0  0  0  0  0  0  0  0  0  0  0
   -3.2643    1.0114   -0.1379 H   0  0  0  0  0  0  0  0  0  0  0  0
   -0.7194   -4.3991   -1.1727 H   0  0  0  0  0  0  0  0  0  0  0  0
    0.4912   -3.7688   -0.1396 H   0  0  0  0  0  0  0  0  0  0  0  0
   -0.3823   -5.6422    0.9918 H   0  0  0  0  0  0  0  0  0  0  0  0
   -0.8915   -4.2350    1.9163 H   0  0  0  0  0  0  0  0  0  0  0  0
   -4.1736   -4.5349    0.6504 H   0  0  0  0  0  0  0  0  0  0  0  0
  1  2  2  0  0  0  0
  1  6  1  0  0  0  0
  1 16  1  0  0  0  0
  2  3  1  0  0  0  0
  2 26  1  0  0  0  0
  3  4  2  0  0  0  0
  3  7  1  0  0  0  0
  4  5  1  0  0  0  0
  4  9  1  0  0  0  0
  5  6  2  0  0  0  0
  5 27  1  0  0  0  0
  6 22  1  0  0  0  0
  7  8  1  0  0  0  0
  7 14  1  0  0  0  0
  7 15  1  0  0  0  0
  8  9  1  0  0  0  0
  8 13  1  0  0  0  0
  8 24  1  6  0  0  0
  9 25  1  1  0  0  0
  9 10  1  0  0  0  0
 10 11  1  0  0  0  0
 10 12  1  0  0  0  0
 10 28  1  0  0  0  0
 11 29  1  0  0  0  0
 11 30  1  0  0  0  0
 11 31  1  0  0  0  0
 12 32  1  0  0  0  0
 12 33  1  0  0  0  0
 12 34  1  0  0  0  0
 13 35  1  0  0  0  0
 13 36  1  0  0  0  0
 13 37  1  0  0  0  0
 14 38  1  0  0  0  0
 14 39  1  0  0  0  0
 14 40  1  0  0  0  0
 15 41  1  0  0  0  0
 15 42  1  0  0  0  0
 15 43  1  0  0  0  0
 16 44  1  0  0  0  0
 16 45  1  0  0  0  0
 16 46  1  0  0  0  0
 17 18  1  0  0  0  0
 17 22  1  0  0  0  0
 17 47  1  0  0  0  0
 17 48  1  0  0  0  0
 18 19  1  0  0  0  0
 18 49  1  0  0  0  0
 18 50  1  0  0  0  0
 19 20  2  0  0  0  0
 19 21  1  0  0  0  0
 21 51  1  0  0  0  0
 22 23  2  0  0  0  0
M  END
>  <DRUGBANK_ID>
DB08647

>  <COMMON_NAME>
Trazeolide

$$$$
