
 OpenBabel10282417143D

 97105  0  0  1  0  0  0  0  0999 V2000
    3.6186   -1.1086   -4.6136 O   0  0  0  0  0  0  0  0  0  0  0  0
    7.3501    1.1374   -0.8457 O   0  0  0  0  0  0  0  0  0  0  0  0
    3.7962    1.1776   -4.8523 O   0  0  0  0  0  0  0  0  0  0  0  0
    9.2089    2.1652    0.1065 O   0  0  0  0  0  0  0  0  0  0  0  0
    7.5845   -1.2607   -2.3156 C   0  0  0  0  0  0  0  0  0  0  0  0
    6.8816   -1.9437   -3.8118 C   0  0  0  0  0  0  0  0  0  0  0  0
    5.3463   -0.9593   -4.8695 C   0  0  0  0  0  0  0  0  0  0  0  0
    6.9224    0.3405   -1.9258 C   0  0  0  0  0  0  0  0  0  0  0  0
    4.9824    0.6551   -4.4321 C   0  0  0  0  0  0  0  0  0  0  0  0
    5.6831    1.1884   -2.9423 C   0  0  0  0  0  0  0  0  0  0  0  0
    3.0789    0.2274   -4.1294 C   0  0  0  0  0  0  0  0  0  0  0  0
    4.9189    2.3114   -2.4698 C   0  0  0  0  0  0  0  0  0  0  0  0
    8.6620    1.5304   -0.7714 C   0  0  0  0  0  0  0  0  0  0  0  0
    9.4514    1.1163   -1.8472 C   0  0  0  0  0  0  0  0  0  0  0  0
    9.1919   -1.9766   -1.8382 C   0  0  2  0  0  0  0  0  0  0  0  0
    8.6832   -1.4959   -3.9322 C   0  0  1  0  0  0  0  0  0  0  0  0
    9.2889   -3.0678   -3.6700 N   0  0  3  0  0  0  0  0  0  0  0  0
    9.6379   -3.4641   -2.3048 C   0  0  2  0  0  0  0  0  0  0  0  0
   11.4563   -4.2224   -2.1288 C   0  0  2  0  0  0  0  0  0  0  0  0
    9.9203   -3.8775   -4.6167 C   0  0  2  0  0  0  0  0  0  0  0  0
   11.4381   -3.9966   -4.4374 C   0  0  1  0  0  0  0  0  0  0  0  0
   11.7630   -3.3235   -3.1412 N   0  0  0  0  0  0  0  0  0  0  0  0
    5.5737   -3.2107   -5.1156 C   0  0  0  0  0  0  0  0  0  0  0  0
    4.9213   -2.6648   -3.5835 C   0  0  0  0  0  0  0  0  0  0  0  0
    5.4481   -1.0790   -2.9386 C   0  0  0  0  0  0  0  0  0  0  0  0
    6.8511   -0.1110   -4.0745 C   0  0  0  0  0  0  0  0  0  0  0  0
    7.3618   -0.8318   -5.6599 C   0  0  0  0  0  0  0  0  0  0  0  0
    6.7372   -2.3259   -6.0763 C   0  0  0  0  0  0  0  0  0  0  0  0
    7.4691   -2.9597   -7.2232 C   0  0  0  0  0  0  0  0  0  0  0  0
    8.8610   -0.5247   -6.0553 C   0  0  2  0  0  0  0  0  0  0  0  0
    9.1137   -0.9435   -7.4075 N   0  0  0  0  0  0  0  0  0  0  0  0
    8.9398   -2.4133   -7.6519 C   0  0  0  0  0  0  0  0  0  0  0  0
    3.9162   -3.3398   -2.9797 O   0  0  0  0  0  0  0  0  0  0  0  0
    4.8838   -0.7718   -1.7302 O   0  0  0  0  0  0  0  0  0  0  0  0
    5.2908   -1.6871   -0.7230 C   0  0  0  0  0  0  0  0  0  0  0  0
    9.6554    0.3427   -4.2068 C   0  0  0  0  0  0  0  0  0  0  0  0
    9.4924    1.4829   -5.0062 O   0  0  0  0  0  0  0  0  0  0  0  0
   10.8108   -1.1140   -2.8629 S   0  0  0  0  0  0  0  0  0  0  0  0
   10.4267   -1.3141   -5.1766 C   0  0  0  0  0  0  0  0  0  0  0  0
    8.5454    1.0923   -5.7906 C   0  0  0  0  0  0  0  0  0  0  0  0
   12.8958   -2.5642   -2.5866 C   0  0  0  0  0  0  0  0  0  0  0  0
    7.5260    1.7709   -5.7235 O   0  0  0  0  0  0  0  0  0  0  0  0
    8.8287   -4.0892   -5.3911 O   0  0  0  0  0  0  0  0  0  0  0  0
    8.8166   -4.0434   -1.8274 H   0  0  0  0  0  0  0  0  0  0  0  0
   12.6443   -5.8899   -3.6382 C   0  0  0  0  0  0  0  0  0  0  0  0
   15.3067   -6.1718   -2.7250 C   0  0  0  0  0  0  0  0  0  0  0  0
   14.7145   -4.9349   -2.9635 C   0  0  0  0  0  0  0  0  0  0  0  0
   13.0397   -6.9479   -2.9152 C   0  0  0  0  0  0  0  0  0  0  0  0
   14.3616   -7.0893   -2.4169 C   0  0  0  0  0  0  0  0  0  0  0  0
   14.6408   -8.1140   -1.4008 C   0  0  0  0  0  0  0  0  0  0  0  0
   16.6482   -6.4224   -2.5822 O   0  0  0  0  0  0  0  0  0  0  0  0
   15.6834   -4.4454   -4.0642 O   0  0  0  0  0  0  0  0  0  0  0  0
   17.0772   -5.7351   -1.4035 C   0  0  0  0  0  0  0  0  0  0  0  0
   13.1030   -4.8621   -2.9769 C   0  0  0  0  0  0  0  0  0  0  0  0
   11.4972   -5.5762   -4.4499 C   0  0  0  0  0  0  0  0  0  0  0  0
    3.2392    0.3479   -3.0373 H   0  0  0  0  0  0  0  0  0  0  0  0
    1.9942    0.5235   -4.1141 H   0  0  0  0  0  0  0  0  0  0  0  0
    4.2209    1.8510   -1.7718 H   0  0  0  0  0  0  0  0  0  0  0  0
    5.7265    2.9250   -2.1374 H   0  0  0  0  0  0  0  0  0  0  0  0
    4.4236    2.6896   -3.3664 H   0  0  0  0  0  0  0  0  0  0  0  0
    9.2330    0.0831   -1.8226 H   0  0  0  0  0  0  0  0  0  0  0  0
    9.0039    1.6126   -2.7061 H   0  0  0  0  0  0  0  0  0  0  0  0
   10.5464    1.1628   -1.7559 H   0  0  0  0  0  0  0  0  0  0  0  0
    9.1374   -1.6971   -0.7932 H   0  0  0  0  0  0  0  0  0  0  0  0
    8.2952   -2.1173   -4.6692 H   0  0  0  0  0  0  0  0  0  0  0  0
   11.5129   -3.7380   -1.1429 H   0  0  0  0  0  0  0  0  0  0  0  0
   10.2888   -4.0134   -5.6399 H   0  0  0  0  0  0  0  0  0  0  0  0
   12.0326   -3.4083   -5.1480 H   0  0  0  0  0  0  0  0  0  0  0  0
    5.3321   -4.1992   -5.4820 H   0  0  0  0  0  0  0  0  0  0  0  0
    7.5444    0.6310   -3.7497 H   0  0  0  0  0  0  0  0  0  0  0  0
    7.5515   -4.0579   -7.1703 H   0  0  0  0  0  0  0  0  0  0  0  0
    6.6407   -2.8513   -7.8963 H   0  0  0  0  0  0  0  0  0  0  0  0
   10.0987   -0.6747   -7.5235 H   0  0  0  0  0  0  0  0  0  0  0  0
   10.0359   -2.5489   -7.4377 H   0  0  0  0  0  0  0  0  0  0  0  0
    9.3279   -3.4155   -7.3240 H   0  0  0  0  0  0  0  0  0  0  0  0
    3.8521   -4.1196   -3.5457 H   0  0  0  0  0  0  0  0  0  0  0  0
    4.8543   -2.6583   -0.9100 H   0  0  0  0  0  0  0  0  0  0  0  0
    6.3725   -1.8235   -0.5952 H   0  0  0  0  0  0  0  0  0  0  0  0
    4.9613   -1.2292    0.2019 H   0  0  0  0  0  0  0  0  0  0  0  0
   10.7702    0.3242   -4.4884 H   0  0  0  0  0  0  0  0  0  0  0  0
   10.2969    0.8900   -3.5014 H   0  0  0  0  0  0  0  0  0  0  0  0
   11.4262   -0.8744   -5.3392 H   0  0  0  0  0  0  0  0  0  0  0  0
   10.7647   -2.0950   -5.8289 H   0  0  0  0  0  0  0  0  0  0  0  0
   13.5020   -3.0982   -1.8493 H   0  0  0  0  0  0  0  0  0  0  0  0
   13.3786   -2.1432   -3.4432 H   0  0  0  0  0  0  0  0  0  0  0  0
   12.5712   -1.8406   -1.8166 H   0  0  0  0  0  0  0  0  0  0  0  0
    8.7563   -3.1402   -5.5982 H   0  0  0  0  0  0  0  0  0  0  0  0
   12.2406   -7.5282   -2.5004 H   0  0  0  0  0  0  0  0  0  0  0  0
   14.8657   -9.0481   -1.8988 H   0  0  0  0  0  0  0  0  0  0  0  0
   15.4660   -7.8177   -0.7494 H   0  0  0  0  0  0  0  0  0  0  0  0
   13.7538   -8.1699   -0.7691 H   0  0  0  0  0  0  0  0  0  0  0  0
   16.5920   -4.8947   -3.9714 H   0  0  0  0  0  0  0  0  0  0  0  0
   17.1031   -4.6684   -1.6230 H   0  0  0  0  0  0  0  0  0  0  0  0
   16.3897   -5.9253   -0.5720 H   0  0  0  0  0  0  0  0  0  0  0  0
   18.0740   -6.0573   -1.0849 H   0  0  0  0  0  0  0  0  0  0  0  0
   11.5941   -6.2915   -5.2662 H   0  0  0  0  0  0  0  0  0  0  0  0
   10.4954   -5.8727   -4.1468 H   0  0  0  0  0  0  0  0  0  0  0  0
  1  7  1  0  0  0  0
  1 11  1  0  0  0  0
  2 13  1  0  0  0  0
  2  8  1  0  0  0  0
  3  9  1  0  0  0  0
  3 11  1  0  0  0  0
  4 13  2  0  0  0  0
  5  8  2  0  0  0  0
  5  6  1  0  0  0  0
  6  7  2  0  0  0  0
  6 16  1  0  0  0  0
  7  9  1  0  0  0  0
  8 10  1  0  0  0  0
  9 10  2  0  0  0  0
 10 12  1  0  0  0  0
 11 56  1  0  0  0  0
 11 57  1  0  0  0  0
 12 58  1  0  0  0  0
 12 59  1  0  0  0  0
 12 60  1  0  0  0  0
 13 14  1  0  0  0  0
 14 61  1  0  0  0  0
 14 62  1  0  0  0  0
 14 63  1  0  0  0  0
 15  5  1  0  0  0  0
 15 18  1  0  0  0  0
 15 38  1  0  0  0  0
 15 64  1  6  0  0  0
 16 17  1  0  0  0  0
 16 36  1  0  0  0  0
 16 65  1  1  0  0  0
 17 20  1  0  0  0  0
 18 17  1  0  0  0  0
 18 44  1  6  0  0  0
 19 18  1  0  0  0  0
 19 22  1  0  0  0  0
 19 54  1  0  0  0  0
 19 66  1  1  0  0  0
 20 21  1  0  0  0  0
 20 67  1  1  0  0  0
 20 43  1  0  0  0  0
 21 22  1  0  0  0  0
 21 55  1  0  0  0  0
 21 68  1  6  0  0  0
 22 41  1  0  0  0  0
 23 24  2  0  0  0  0
 23 28  1  0  0  0  0
 23 69  1  0  0  0  0
 24 25  1  0  0  0  0
 24 33  1  0  0  0  0
 25 26  2  0  0  0  0
 25 34  1  0  0  0  0
 26 27  1  0  0  0  0
 26 70  1  0  0  0  0
 27 28  2  0  0  0  0
 29 28  1  0  0  0  0
 29 32  1  0  0  0  0
 29 71  1  0  0  0  0
 29 72  1  0  0  0  0
 30 27  1  1  0  0  0
 30 31  1  0  0  0  0
 30 39  1  0  0  0  0
 30 40  1  0  0  0  0
 31 32  1  0  0  0  0
 31 73  1  0  0  0  0
 32 74  1  0  0  0  0
 32 75  1  0  0  0  0
 33 76  1  0  0  0  0
 34 35  1  0  0  0  0
 35 77  1  0  0  0  0
 35 78  1  0  0  0  0
 35 79  1  0  0  0  0
 36 37  1  0  0  0  0
 36 80  1  0  0  0  0
 36 81  1  0  0  0  0
 37 40  1  0  0  0  0
 39 38  1  0  0  0  0
 39 82  1  0  0  0  0
 39 83  1  0  0  0  0
 40 42  2  0  0  0  0
 41 84  1  0  0  0  0
 41 85  1  0  0  0  0
 41 86  1  0  0  0  0
 43 87  1  0  0  0  0
 45 48  2  0  0  0  0
 46 47  1  0  0  0  0
 46 49  2  0  0  0  0
 46 51  1  0  0  0  0
 47 54  2  0  0  0  0
 47 52  1  0  0  0  0
 48 49  1  0  0  0  0
 48 88  1  0  0  0  0
 49 50  1  0  0  0  0
 50 89  1  0  0  0  0
 50 90  1  0  0  0  0
 50 91  1  0  0  0  0
 51 53  1  0  0  0  0
 52 92  1  0  0  0  0
 53 93  1  0  0  0  0
 53 94  1  0  0  0  0
 53 95  1  0  0  0  0
 54 45  1  0  0  0  0
 55 45  1  0  0  0  0
 55 96  1  0  0  0  0
 55 97  1  0  0  0  0
M  END
>  <DRUGBANK_ID>
DB05109

>  <COMMON_NAME>
Trabectedin

>  <CAS_NUMBER>
114899-77-3

>  <UNII>
ID0YZQ2TCP

>  <SYNONYMS>
Ecteinascidin 743; Trabectedin; Trabectedina

$$$$
