
 OpenBabel10282417133D

 10  9  0  0  0  0  0  0  0  0999 V2000
    0.9250    0.0244    0.0837 O   0  0  0  0  0  0  0  0  0  0  0  0
    0.5120    0.8595   -0.9929 C   0  0  0  0  0  0  0  0  0  0  0  0
    1.0306    2.2831   -0.8187 C   0  0  0  0  0  0  0  0  0  0  0  0
    2.8519    2.3414   -0.8995 S   0  0  0  0  0  0  0  0  0  0  0  0
    1.8950   -0.0520    0.0237 H   0  0  0  0  0  0  0  0  0  0  0  0
    0.8421    0.4152   -1.9382 H   0  0  0  0  0  0  0  0  0  0  0  0
   -0.5830    0.8665   -0.9957 H   0  0  0  0  0  0  0  0  0  0  0  0
    0.6326    2.9252   -1.6097 H   0  0  0  0  0  0  0  0  0  0  0  0
    0.7211    2.6865    0.1505 H   0  0  0  0  0  0  0  0  0  0  0  0
    3.0898    1.6448    0.2216 H   0  0  0  0  0  0  0  0  0  0  0  0
  1  2  1  0  0  0  0
  1  5  1  0  0  0  0
  2  3  1  0  0  0  0
  2  6  1  0  0  0  0
  2  7  1  0  0  0  0
  3  4  1  0  0  0  0
  3  8  1  0  0  0  0
  3  9  1  0  0  0  0
  4 10  1  0  0  0  0
M  END
>  <DRUGBANK_ID>
DB03345

>  <SECONDARY_ACCESSION_NUMBERS>
EXPT02882; DB03131

>  <COMMON_NAME>
Mercaptoethanol

>  <CAS_NUMBER>
60-24-2

>  <UNII>
14R9K67URN

>  <SYNONYMS>
2-mercaptoethanol; beta-mercaptoethanol; Thiomonoglycol

$$$$
