
 OpenBabel10282417243D

 52 54  0  0  1  0  0  0  0  0999 V2000
    2.9543    1.1889   -0.0133 N   0  0  0  0  0  0  0  0  0  0  0  0
    1.6982    0.6935   -0.0229 C   0  0  0  0  0  0  0  0  0  0  0  0
    0.6804    1.5098   -0.0560 N   0  0  0  0  0  0  0  0  0  0  0  0
   -0.5102    0.8762   -0.0316 C   0  0  0  0  0  0  0  0  0  0  0  0
   -1.7164    1.5112   -0.0421 N   0  0  0  0  0  0  0  0  0  0  0  0
   -2.7186    0.5739    0.0538 C   0  0  0  0  0  0  0  0  0  0  0  0
   -4.1549    0.9714    0.0586 C   0  0  0  0  0  0  0  0  0  0  0  0
   -4.9620    0.3132   -1.0714 C   0  0  0  0  0  0  0  0  0  0  0  0
   -4.9519   -1.2004   -1.0525 C   0  0  0  0  0  0  0  0  0  0  0  0
   -5.4487   -1.8250    0.2070 C   0  0  0  0  0  0  0  0  0  0  0  0
   -5.2306   -3.1389    0.4778 C   0  0  0  0  0  0  0  0  0  0  0  0
   -5.6421   -3.4655    1.7700 C   0  0  0  0  0  0  0  0  0  0  0  0
   -6.2447   -2.4502    2.4954 C   0  0  0  0  0  0  0  0  0  0  0  0
   -6.3394   -1.0710    1.4645 S   0  0  0  0  0  0  0  0  0  0  0  0
   -6.7954   -2.3527    3.8607 C   0  0  0  0  0  0  0  0  0  0  0  0
   -7.1802   -1.2999    4.3779 O   0  0  0  0  0  0  0  0  0  0  0  0
   -6.9056   -3.4784    4.6541 N   0  0  0  0  0  0  0  0  0  0  0  0
   -6.6466   -4.8663    4.3154 C   0  0  1  0  0  0  0  0  0  0  0  0
   -5.5388   -5.4753    5.1719 C   0  0  0  0  0  0  0  0  0  0  0  0
   -5.9213   -5.7073    6.6170 C   0  0  0  0  0  0  0  0  0  0  0  0
   -7.0703   -6.6694    6.8004 C   0  0  0  0  0  0  0  0  0  0  0  0
   -6.7095   -7.9365    7.0887 O   0  0  0  0  0  0  0  0  0  0  0  0
   -8.2230   -6.3421    6.7183 O   0  0  0  0  0  0  0  0  0  0  0  0
   -7.9024   -5.6437    3.8653 C   0  0  0  0  0  0  0  0  0  0  0  0
   -7.7611   -6.3336    2.7024 O   0  0  0  0  0  0  0  0  0  0  0  0
   -8.9897   -5.5874    4.4084 O   0  0  0  0  0  0  0  0  0  0  0  0
   -2.1124   -0.6658    0.1971 C   0  0  0  0  0  0  0  0  0  0  0  0
   -0.7353   -0.4749    0.0405 C   0  0  0  0  0  0  0  0  0  0  0  0
    0.3904   -1.3633    0.0137 C   0  0  0  0  0  0  0  0  0  0  0  0
    0.3143   -2.5873    0.0034 O   0  0  0  0  0  0  0  0  0  0  0  0
    1.5889   -0.6819    0.0023 N   0  0  0  0  0  0  0  0  0  0  0  0
    3.0332    2.1854    0.1524 H   0  0  0  0  0  0  0  0  0  0  0  0
    3.7530    0.6146    0.2034 H   0  0  0  0  0  0  0  0  0  0  0  0
   -1.8422    2.5127   -0.0823 H   0  0  0  0  0  0  0  0  0  0  0  0
   -4.5388    0.7359    1.0519 H   0  0  0  0  0  0  0  0  0  0  0  0
   -4.2731    2.0568   -0.0281 H   0  0  0  0  0  0  0  0  0  0  0  0
   -6.0056    0.6443   -1.0286 H   0  0  0  0  0  0  0  0  0  0  0  0
   -4.5651    0.6386   -2.0403 H   0  0  0  0  0  0  0  0  0  0  0  0
   -5.5200   -1.6165   -1.8907 H   0  0  0  0  0  0  0  0  0  0  0  0
   -3.9353   -1.5661   -1.2510 H   0  0  0  0  0  0  0  0  0  0  0  0
   -4.7331   -3.8344   -0.1841 H   0  0  0  0  0  0  0  0  0  0  0  0
   -5.3996   -4.4708    2.0258 H   0  0  0  0  0  0  0  0  0  0  0  0
   -7.4246   -3.3040    5.5106 H   0  0  0  0  0  0  0  0  0  0  0  0
   -6.1126   -4.8470    3.4149 H   0  0  0  0  0  0  0  0  0  0  0  0
   -5.1476   -6.3847    4.6972 H   0  0  0  0  0  0  0  0  0  0  0  0
   -4.6869   -4.7672    5.1647 H   0  0  0  0  0  0  0  0  0  0  0  0
   -5.0480   -6.0444    7.1810 H   0  0  0  0  0  0  0  0  0  0  0  0
   -6.2282   -4.7551    7.0600 H   0  0  0  0  0  0  0  0  0  0  0  0
   -5.8525   -8.0135    7.5390 H   0  0  0  0  0  0  0  0  0  0  0  0
   -7.2488   -5.8802    2.0070 H   0  0  0  0  0  0  0  0  0  0  0  0
   -2.5902   -1.6210    0.3649 H   0  0  0  0  0  0  0  0  0  0  0  0
    2.4100   -1.2586   -0.0013 H   0  0  0  0  0  0  0  0  0  0  0  0
  1  2  1  0  0  0  0
  1 32  1  0  0  0  0
  1 33  1  0  0  0  0
  2  3  2  0  0  0  0
  2 31  1  0  0  0  0
  3  4  1  0  0  0  0
  4  5  1  0  0  0  0
  4 28  2  0  0  0  0
  5  6  1  0  0  0  0
  5 34  1  0  0  0  0
  6  7  1  0  0  0  0
  6 27  2  0  0  0  0
  7  8  1  0  0  0  0
  7 35  1  0  0  0  0
  7 36  1  0  0  0  0
  8  9  1  0  0  0  0
  8 37  1  0  0  0  0
  8 38  1  0  0  0  0
  9 10  1  0  0  0  0
  9 39  1  0  0  0  0
  9 40  1  0  0  0  0
 10 11  2  0  0  0  0
 10 14  1  0  0  0  0
 11 12  1  0  0  0  0
 11 41  1  0  0  0  0
 12 13  2  0  0  0  0
 12 42  1  0  0  0  0
 13 14  1  0  0  0  0
 13 15  1  0  0  0  0
 15 16  2  0  0  0  0
 15 17  1  0  0  0  0
 17 43  1  0  0  0  0
 18 17  1  0  0  0  0
 18 19  1  0  0  0  0
 18 24  1  0  0  0  0
 18 44  1  6  0  0  0
 19 20  1  0  0  0  0
 19 45  1  0  0  0  0
 19 46  1  0  0  0  0
 20 21  1  0  0  0  0
 20 47  1  0  0  0  0
 20 48  1  0  0  0  0
 21 22  1  0  0  0  0
 21 23  2  0  0  0  0
 22 49  1  0  0  0  0
 24 25  1  0  0  0  0
 24 26  2  0  0  0  0
 25 50  1  0  0  0  0
 27 28  1  0  0  0  0
 27 51  1  0  0  0  0
 28 29  1  0  0  0  0
 29 30  2  0  0  0  0
 29 31  1  0  0  0  0
 31 52  1  0  0  0  0
M  END
>  <DRUGBANK_ID>
DB18023

>  <COMMON_NAME>
AGF-94

>  <CAS_NUMBER>
136784-51-5

>  <UNII>
X28K3E95TF

>  <SYNONYMS>
(5-(3-(2-amino-4-oxo-4,7-dihydro-3 h-pyrrolo(2,3-d)pyrimidin-6-yl)propyl)thiophene-2-carbonyl)-l-glutamic acid

$$$$
