
 OpenBabel10282417203D

 31 31  0  0  0  0  0  0  0  0999 V2000
    0.9743   -0.0005    0.0713 C   0  0  0  0  0  0  0  0  0  0  0  0
    0.4708    1.0846   -0.8604 C   0  0  0  0  0  0  0  0  0  0  0  0
    0.8976    0.8971   -2.3317 C   0  0  3  0  0  0  0  0  0  0  0  0
    0.4204   -0.5452   -2.7518 C   0  0  0  0  0  0  0  0  0  0  0  0
   -0.5336   -0.9036   -3.4058 O   0  0  0  0  0  0  0  0  0  0  0  0
    1.2022   -1.5506   -2.3093 O   0  0  0  0  0  0  0  0  0  0  0  0
    0.3522    2.1225   -3.2124 C   0  0  0  0  0  0  0  0  0  0  0  0
   -0.4834    1.5900   -4.3712 C   0  0  0  0  0  0  0  0  0  0  0  0
    0.4352    0.8204   -5.3424 C   0  0  0  0  0  0  0  0  0  0  0  0
    1.4473    1.7439   -5.9876 C   0  0  0  0  0  0  0  0  0  0  0  0
    2.2736    2.4711   -4.9247 C   0  0  0  0  0  0  0  0  0  0  0  0
    1.3899    3.0960   -3.8510 C   0  0  0  0  0  0  0  0  0  0  0  0
   -0.4873    2.9601   -2.3902 O   0  0  0  0  0  0  0  0  0  0  0  0
    0.5518   -0.9743   -0.1867 H   0  0  0  0  0  0  0  0  0  0  0  0
    0.6564    0.2000    1.0953 H   0  0  0  0  0  0  0  0  0  0  0  0
    2.0653   -0.0595    0.0307 H   0  0  0  0  0  0  0  0  0  0  0  0
   -0.6257    1.0980   -0.8058 H   0  0  0  0  0  0  0  0  0  0  0  0
    0.8334    2.0508   -0.4883 H   0  0  0  0  0  0  0  0  0  0  0  0
    1.9944    0.9006   -2.4029 H   0  0  0  0  0  0  0  0  0  0  0  0
    0.6612   -2.3122   -2.6282 H   0  0  0  0  0  0  0  0  0  0  0  0
   -1.3061    1.0037   -3.9498 H   0  0  0  0  0  0  0  0  0  0  0  0
   -1.0169    2.3936   -4.8893 H   0  0  0  0  0  0  0  0  0  0  0  0
    1.0652    0.0706   -4.8528 H   0  0  0  0  0  0  0  0  0  0  0  0
   -0.1610    0.2703   -6.0719 H   0  0  0  0  0  0  0  0  0  0  0  0
    2.1185    1.1549   -6.6225 H   0  0  0  0  0  0  0  0  0  0  0  0
    0.9165    2.4549   -6.6269 H   0  0  0  0  0  0  0  0  0  0  0  0
    2.9778    1.7818   -4.4465 H   0  0  0  0  0  0  0  0  0  0  0  0
    2.8729    3.2461   -5.4178 H   0  0  0  0  0  0  0  0  0  0  0  0
    0.8275    3.9069   -4.3477 H   0  0  0  0  0  0  0  0  0  0  0  0
    1.9905    3.6140   -3.0947 H   0  0  0  0  0  0  0  0  0  0  0  0
   -0.7166    3.7725   -2.8727 H   0  0  0  0  0  0  0  0  0  0  0  0
  1  2  1  0  0  0  0
  1 14  1  0  0  0  0
  1 15  1  0  0  0  0
  1 16  1  0  0  0  0
  2  3  1  0  0  0  0
  2 17  1  0  0  0  0
  2 18  1  0  0  0  0
  3  4  1  0  0  0  0
  3  7  1  0  0  0  0
  3 19  1  0  0  0  0
  4  5  2  0  0  0  0
  4  6  1  0  0  0  0
  6 20  1  0  0  0  0
  7  8  1  0  0  0  0
  7 12  1  0  0  0  0
  7 13  1  0  0  0  0
  8  9  1  0  0  0  0
  8 21  1  0  0  0  0
  8 22  1  0  0  0  0
  9 10  1  0  0  0  0
  9 23  1  0  0  0  0
  9 24  1  0  0  0  0
 10 11  1  0  0  0  0
 10 25  1  0  0  0  0
 10 26  1  0  0  0  0
 11 12  1  0  0  0  0
 11 27  1  0  0  0  0
 11 28  1  0  0  0  0
 12 29  1  0  0  0  0
 12 30  1  0  0  0  0
 13 31  1  0  0  0  0
M  END
>  <DRUGBANK_ID>
DB13493

>  <COMMON_NAME>
Cyclobutyrol

>  <CAS_NUMBER>
512-16-3

>  <UNII>
8T4L120N6M

>  <SYNONYMS>
ciclobutirol; Cyclobutyrol

$$$$
