A74
 OpenBabel10282417163D

 46 49  0  0  0  0  0  0  0  0999 V2000
   -0.5579   -1.2382   -0.0521 C   0  0  0  0  0  0  0  0  0  0  0  0
    0.8109   -1.1854    0.1256 C   0  0  0  0  0  0  0  0  0  0  0  0
    1.4378    0.0570    0.1102 C   0  0  0  0  0  0  0  0  0  0  0  0
    0.6819    1.2410    0.1018 C   0  0  0  0  0  0  0  0  0  0  0  0
   -0.7150    1.1697   -0.0429 C   0  0  0  0  0  0  0  0  0  0  0  0
   -1.2451   -0.0653   -0.3509 C   0  0  0  0  0  0  0  0  0  0  0  0
   -1.7095    2.6343    0.1073 S   0  0  0  0  0  0  0  0  0  0  0  0
   -1.3012    3.2668    1.3564 O   0  0  0  0  0  0  0  0  0  0  0  0
   -1.5057    3.3448   -1.1328 O   0  0  0  0  0  0  0  0  0  0  0  0
   -3.3797    2.4056    0.2608 N   0  0  0  0  0  0  0  0  0  0  0  0
   -3.9696    1.1255    0.3397 C   0  0  0  0  0  0  0  0  0  0  0  0
   -4.9830    0.7626   -0.4338 N   0  0  0  0  0  0  0  0  0  0  0  0
   -5.0979   -0.6146   -0.2380 C   0  0  0  0  0  0  0  0  0  0  0  0
   -5.8521   -1.6244   -0.8837 C   0  0  0  0  0  0  0  0  0  0  0  0
   -5.7053   -2.9690   -0.4704 C   0  0  0  0  0  0  0  0  0  0  0  0
   -4.7669   -3.2961    0.5104 C   0  0  0  0  0  0  0  0  0  0  0  0
   -3.9663   -2.3271    1.1420 C   0  0  0  0  0  0  0  0  0  0  0  0
   -4.2057   -1.0011    0.7519 C   0  0  0  0  0  0  0  0  0  0  0  0
   -3.5339    0.1239    1.1653 O   0  0  0  0  0  0  0  0  0  0  0  0
    3.1547    0.1018    0.0311 Cl  0  0  0  0  0  0  0  0  0  0  0  0
   -2.2501   -0.2252   -1.7662 Cl  0  0  0  0  0  0  0  0  0  0  0  0
   -6.5160   -3.8963   -1.0831 O   0  0  0  0  0  0  0  0  0  0  0  0
   -6.4531   -5.2412   -0.5906 C   0  0  0  0  0  0  0  0  0  0  0  0
   -1.0076   -4.0149    2.7858 C   0  0  0  0  0  0  0  0  0  0  0  0
   -1.0408   -3.3818    4.0184 C   0  0  0  0  0  0  0  0  0  0  0  0
   -1.9645   -2.4452    4.3165 N   0  0  0  0  0  0  0  0  0  0  0  0
   -2.8759   -2.1274    3.3668 C   0  0  0  0  0  0  0  0  0  0  0  0
   -2.9368   -2.7046    2.1066 C   0  0  0  0  0  0  0  0  0  0  0  0
   -1.9705   -3.6830    1.8322 C   0  0  0  0  0  0  0  0  0  0  0  0
   -0.1735   -3.6275    5.0447 O   0  0  0  0  0  0  0  0  0  0  0  0
    0.8345   -4.6001    4.8069 C   0  0  0  0  0  0  0  0  0  0  0  0
   -1.0502   -2.1946   -0.1740 H   0  0  0  0  0  0  0  0  0  0  0  0
    1.3734   -2.1151    0.1377 H   0  0  0  0  0  0  0  0  0  0  0  0
    1.1925    2.2028    0.1220 H   0  0  0  0  0  0  0  0  0  0  0  0
   -3.9132    3.0814   -0.2826 H   0  0  0  0  0  0  0  0  0  0  0  0
   -6.5217   -1.3790   -1.7040 H   0  0  0  0  0  0  0  0  0  0  0  0
   -4.6303   -4.3291    0.8217 H   0  0  0  0  0  0  0  0  0  0  0  0
   -5.4716   -5.6863   -0.7916 H   0  0  0  0  0  0  0  0  0  0  0  0
   -6.6900   -5.2922    0.4795 H   0  0  0  0  0  0  0  0  0  0  0  0
   -7.1992   -5.8456   -1.1166 H   0  0  0  0  0  0  0  0  0  0  0  0
   -0.2597   -4.7577    2.5383 H   0  0  0  0  0  0  0  0  0  0  0  0
   -3.6019   -1.3753    3.6656 H   0  0  0  0  0  0  0  0  0  0  0  0
   -1.9272   -4.1795    0.8639 H   0  0  0  0  0  0  0  0  0  0  0  0
    0.3957   -5.5829    4.6014 H   0  0  0  0  0  0  0  0  0  0  0  0
    1.4970   -4.2879    3.9921 H   0  0  0  0  0  0  0  0  0  0  0  0
    1.4429   -4.6932    5.7110 H   0  0  0  0  0  0  0  0  0  0  0  0
  1  2  1  0  0  0  0
  1  6  2  0  0  0  0
  1 32  1  0  0  0  0
  2  3  2  0  0  0  0
  2 33  1  0  0  0  0
  3  4  1  0  0  0  0
  3 20  1  0  0  0  0
  4  5  2  0  0  0  0
  4 34  1  0  0  0  0
  5  6  1  0  0  0  0
  5  7  1  0  0  0  0
  6 21  1  0  0  0  0
  7  8  2  0  0  0  0
  7  9  2  0  0  0  0
  7 10  1  0  0  0  0
 10 11  1  0  0  0  0
 10 35  1  0  0  0  0
 11 12  2  0  0  0  0
 11 19  1  0  0  0  0
 12 13  1  0  0  0  0
 13 14  1  0  0  0  0
 13 18  2  0  0  0  0
 14 15  2  0  0  0  0
 14 36  1  0  0  0  0
 15 16  1  0  0  0  0
 15 22  1  0  0  0  0
 16 17  2  0  0  0  0
 16 37  1  0  0  0  0
 17 18  1  0  0  0  0
 17 28  1  0  0  0  0
 18 19  1  0  0  0  0
 22 23  1  0  0  0  0
 23 38  1  0  0  0  0
 23 39  1  0  0  0  0
 23 40  1  0  0  0  0
 24 25  1  0  0  0  0
 24 29  2  0  0  0  0
 24 41  1  0  0  0  0
 25 26  2  0  0  0  0
 25 30  1  0  0  0  0
 26 27  1  0  0  0  0
 27 28  2  0  0  0  0
 27 42  1  0  0  0  0
 28 29  1  0  0  0  0
 29 43  1  0  0  0  0
 30 31  1  0  0  0  0
 31 44  1  0  0  0  0
 31 45  1  0  0  0  0
 31 46  1  0  0  0  0
M  END
>  <DRUGBANK_ID>
DB07321

>  <COMMON_NAME>
2,5-DICHLORO-N-[5-METHOXY-7-(6-METHOXYPYRIDIN-3-YL)-1,3-BENZOXAZOL-2-YL]BENZENESULFONAMIDE

$$$$
