
 OpenBabel10282417203D

 65 67  0  0  1  0  0  0  0  0999 V2000
  -11.0484    4.4593    0.0279 C   0  0  0  0  0  0  0  0  0  0  0  0
  -10.1757    3.8109   -1.0151 C   0  0  0  0  0  0  0  0  0  0  0  0
  -10.7645    2.8198   -1.8205 C   0  0  0  0  0  0  0  0  0  0  0  0
  -10.0441    2.1960   -2.8350 C   0  0  0  0  0  0  0  0  0  0  0  0
   -8.7181    2.5478   -3.0578 C   0  0  0  0  0  0  0  0  0  0  0  0
   -8.1023    3.5245   -2.2618 C   0  0  0  0  0  0  0  0  0  0  0  0
   -8.8239    4.1545   -1.2245 C   0  0  0  0  0  0  0  0  0  0  0  0
   -8.2428    5.0962   -0.3567 N   0  0  0  0  0  0  0  0  0  0  0  0
   -6.9790    5.0664    0.1715 C   0  0  0  0  0  0  0  0  0  0  0  0
   -6.6848    5.8792    1.0517 O   0  0  0  0  0  0  0  0  0  0  0  0
   -5.9952    3.9782   -0.2903 C   0  0  2  0  0  0  0  0  0  0  0  0
   -5.7449    4.0820   -1.6998 N   0  0  0  0  0  0  0  0  0  0  0  0
   -6.6795    3.8475   -2.5508 C   0  0  0  0  0  0  0  0  0  0  0  0
   -6.2328    3.9250   -3.9444 C   0  0  0  0  0  0  0  0  0  0  0  0
   -6.5884    5.0514   -4.6800 C   0  0  0  0  0  0  0  0  0  0  0  0
   -5.8470    5.3550   -5.8136 C   0  0  0  0  0  0  0  0  0  0  0  0
   -4.9500    4.4156   -6.3260 C   0  0  0  0  0  0  0  0  0  0  0  0
   -4.7082    3.2322   -5.6337 C   0  0  0  0  0  0  0  0  0  0  0  0
   -5.2736    3.0167   -4.3918 C   0  0  0  0  0  0  0  0  0  0  0  0
   -3.8925    2.3095   -6.1575 F   0  0  0  0  0  0  0  0  0  0  0  0
   -6.4271    2.6461   -0.0171 N   0  0  0  0  0  0  0  0  0  0  0  0
   -6.1828    2.0559    1.1504 C   0  0  0  0  0  0  0  0  0  0  0  0
   -7.1492    1.4000    1.5613 O   0  0  0  0  0  0  0  0  0  0  0  0
   -4.7880    2.1814    1.8781 C   0  0  2  0  0  0  0  0  0  0  0  0
   -3.5392    1.6661    1.0895 C   0  0  0  0  0  0  0  0  0  0  0  0
   -2.1271    2.1346    1.5144 C   0  0  0  0  0  0  0  0  0  0  0  0
   -1.8107    1.9866    2.9897 C   0  0  0  0  0  0  0  0  0  0  0  0
   -2.0424    0.7180    3.4029 F   0  0  0  0  0  0  0  0  0  0  0  0
   -0.5265    2.2684    3.2748 F   0  0  0  0  0  0  0  0  0  0  0  0
   -2.5656    2.8404    3.7099 F   0  0  0  0  0  0  0  0  0  0  0  0
   -4.9081    1.4696    3.2620 C   0  0  2  0  0  0  0  0  0  0  0  0
   -5.4006   -0.0037    3.2990 C   0  0  0  0  0  0  0  0  0  0  0  0
   -5.5867   -0.6714    1.9308 C   0  0  0  0  0  0  0  0  0  0  0  0
   -4.7099   -1.6915    1.2686 C   0  0  0  0  0  0  0  0  0  0  0  0
   -4.8377   -2.9122    1.7950 F   0  0  0  0  0  0  0  0  0  0  0  0
   -5.1202   -1.7471   -0.0342 F   0  0  0  0  0  0  0  0  0  0  0  0
   -3.4054   -1.3666    1.2354 F   0  0  0  0  0  0  0  0  0  0  0  0
   -5.6590    2.4297    4.1874 C   0  0  0  0  0  0  0  0  0  0  0  0
   -5.1340    3.0459    5.0850 O   0  0  0  0  0  0  0  0  0  0  0  0
   -6.9738    2.6137    3.8758 N   0  0  0  0  0  0  0  0  0  0  0  0
  -10.4876    5.0017    0.7923 H   0  0  0  0  0  0  0  0  0  0  0  0
  -11.6385    3.7093    0.5652 H   0  0  0  0  0  0  0  0  0  0  0  0
  -11.7213    5.1646   -0.4680 H   0  0  0  0  0  0  0  0  0  0  0  0
  -11.8010    2.5269   -1.6560 H   0  0  0  0  0  0  0  0  0  0  0  0
  -10.5187    1.4420   -3.4590 H   0  0  0  0  0  0  0  0  0  0  0  0
   -8.1711    2.0395   -3.8487 H   0  0  0  0  0  0  0  0  0  0  0  0
   -8.8316    5.7594    0.1290 H   0  0  0  0  0  0  0  0  0  0  0  0
   -5.0614    4.1594    0.2407 H   0  0  0  0  0  0  0  0  0  0  0  0
   -7.3730    5.7179   -4.3345 H   0  0  0  0  0  0  0  0  0  0  0  0
   -5.9508    6.3307   -6.2789 H   0  0  0  0  0  0  0  0  0  0  0  0
   -4.4296    4.6053   -7.2582 H   0  0  0  0  0  0  0  0  0  0  0  0
   -4.9581    2.1774   -3.7800 H   0  0  0  0  0  0  0  0  0  0  0  0
   -7.3719    2.4068   -0.2946 H   0  0  0  0  0  0  0  0  0  0  0  0
   -4.6367    3.2544    2.0334 H   0  0  0  0  0  0  0  0  0  0  0  0
   -3.4708    0.6025    1.2438 H   0  0  0  0  0  0  0  0  0  0  0  0
   -3.6575    1.7785    0.0035 H   0  0  0  0  0  0  0  0  0  0  0  0
   -1.3935    1.5237    0.9693 H   0  0  0  0  0  0  0  0  0  0  0  0
   -1.9750    3.1727    1.2117 H   0  0  0  0  0  0  0  0  0  0  0  0
   -3.9535    1.3906    3.7567 H   0  0  0  0  0  0  0  0  0  0  0  0
   -4.7877   -0.6175    3.9708 H   0  0  0  0  0  0  0  0  0  0  0  0
   -6.3785    0.0359    3.7973 H   0  0  0  0  0  0  0  0  0  0  0  0
   -6.6246   -1.0082    1.8863 H   0  0  0  0  0  0  0  0  0  0  0  0
   -5.4870    0.0691    1.1625 H   0  0  0  0  0  0  0  0  0  0  0  0
   -7.4391    2.0443    3.1730 H   0  0  0  0  0  0  0  0  0  0  0  0
   -7.5253    3.2121    4.4685 H   0  0  0  0  0  0  0  0  0  0  0  0
  1  2  1  0  0  0  0
  1 41  1  0  0  0  0
  1 42  1  0  0  0  0
  1 43  1  0  0  0  0
  2  3  2  0  0  0  0
  2  7  1  0  0  0  0
  3  4  1  0  0  0  0
  3 44  1  0  0  0  0
  4  5  2  0  0  0  0
  4 45  1  0  0  0  0
  5  6  1  0  0  0  0
  5 46  1  0  0  0  0
  6  7  2  0  0  0  0
  6 13  1  0  0  0  0
  7  8  1  0  0  0  0
  8  9  1  0  0  0  0
  8 47  1  0  0  0  0
  9 10  2  0  0  0  0
  9 11  1  0  0  0  0
 11 12  1  0  0  0  0
 11 21  1  0  0  0  0
 11 48  1  1  0  0  0
 12 13  2  0  0  0  0
 13 14  1  0  0  0  0
 14 15  2  0  0  0  0
 14 19  1  0  0  0  0
 15 16  1  0  0  0  0
 15 49  1  0  0  0  0
 16 17  2  0  0  0  0
 16 50  1  0  0  0  0
 17 18  1  0  0  0  0
 17 51  1  0  0  0  0
 18 19  2  0  0  0  0
 18 20  1  0  0  0  0
 19 52  1  0  0  0  0
 21 22  1  0  0  0  0
 21 53  1  0  0  0  0
 22 23  2  0  0  0  0
 24 54  1  1  0  0  0
 24 25  1  0  0  0  0
 24 22  1  0  0  0  0
 25 26  1  0  0  0  0
 25 55  1  0  0  0  0
 25 56  1  0  0  0  0
 26 27  1  0  0  0  0
 26 57  1  0  0  0  0
 26 58  1  0  0  0  0
 27 28  1  0  0  0  0
 27 29  1  0  0  0  0
 27 30  1  0  0  0  0
 31 38  1  0  0  0  0
 31 59  1  1  0  0  0
 31 32  1  0  0  0  0
 31 24  1  0  0  0  0
 32 33  1  0  0  0  0
 32 60  1  0  0  0  0
 32 61  1  0  0  0  0
 33 34  1  0  0  0  0
 33 62  1  0  0  0  0
 33 63  1  0  0  0  0
 34 35  1  0  0  0  0
 34 36  1  0  0  0  0
 34 37  1  0  0  0  0
 38 39  2  0  0  0  0
 38 40  1  0  0  0  0
 40 64  1  0  0  0  0
 40 65  1  0  0  0  0
M  END
>  <DRUGBANK_ID>
DB13126

>  <COMMON_NAME>
BMS-986115

>  <CAS_NUMBER>
1584647-27-7

>  <UNII>
LSK1L593UU

$$$$
