
 OpenBabel10282417213D

 54 56  0  0  0  0  0  0  0  0999 V2000
    1.0029   -0.0466    0.2797 C   0  0  0  0  0  0  0  0  0  0  0  0
    0.5362    0.4880   -1.0291 C   0  0  0  0  0  0  0  0  0  0  0  0
    0.9587   -0.3221   -2.2697 N   0  3  3  0  0  0  0  0  0  0  0  0
    2.6186   -0.3721   -2.4229 C   0  0  0  0  0  0  0  0  0  0  0  0
    3.3005   -1.5501   -3.2506 C   0  0  0  0  0  0  0  0  0  0  0  0
    2.5726   -2.8533   -3.0685 C   0  0  0  0  0  0  0  0  0  0  0  0
    1.0728   -2.6605   -3.3096 C   0  0  3  0  0  0  0  0  0  0  0  0
    0.4432   -1.7676   -2.2245 C   0  0  0  0  0  0  0  0  0  0  0  0
    0.7056   -2.2166   -4.6526 O   0  0  0  0  0  0  0  0  0  0  0  0
    1.1643   -1.0536   -5.2283 C   0  0  0  0  0  0  0  0  0  0  0  0
    1.9922   -0.2956   -4.7757 O   0  0  0  0  0  0  0  0  0  0  0  0
    0.4531   -0.5725   -6.4853 C   0  0  0  0  0  0  0  0  0  0  0  0
    1.0854   -1.3923   -7.5663 C   0  0  0  0  0  0  0  0  0  0  0  0
    2.0207   -0.8439   -8.4386 C   0  0  0  0  0  0  0  0  0  0  0  0
    2.6075   -1.6611   -9.3885 C   0  0  0  0  0  0  0  0  0  0  0  0
    2.3023   -3.0239   -9.4377 C   0  0  0  0  0  0  0  0  0  0  0  0
    1.4842   -3.6031   -8.4875 C   0  0  0  0  0  0  0  0  0  0  0  0
    0.8959   -2.7881   -7.5566 C   0  0  0  0  0  0  0  0  0  0  0  0
   -1.0643   -0.5450   -6.3961 C   0  0  0  0  0  0  0  0  0  0  0  0
   -1.7949   -1.7322   -6.2715 C   0  0  0  0  0  0  0  0  0  0  0  0
   -3.1756   -1.7482   -6.2658 C   0  0  0  0  0  0  0  0  0  0  0  0
   -3.8675   -0.5512   -6.2667 C   0  0  0  0  0  0  0  0  0  0  0  0
   -3.1759    0.6564   -6.2682 C   0  0  0  0  0  0  0  0  0  0  0  0
   -1.7882    0.6644   -6.3809 C   0  0  0  0  0  0  0  0  0  0  0  0
    0.8742    0.8282   -6.5423 O   0  0  0  0  0  0  0  0  0  0  0  0
    0.1544    0.6200   -3.2612 C   0  0  0  0  0  0  0  0  0  0  0  0
    0.6123   -1.0473    0.4572 H   0  0  0  0  0  0  0  0  0  0  0  0
    0.6139    0.6072    1.0641 H   0  0  0  0  0  0  0  0  0  0  0  0
    2.0877   -0.0400    0.3359 H   0  0  0  0  0  0  0  0  0  0  0  0
   -0.5654    0.5122   -1.0143 H   0  0  0  0  0  0  0  0  0  0  0  0
    0.8957    1.5151   -1.1822 H   0  0  0  0  0  0  0  0  0  0  0  0
    2.9670   -0.5692   -1.4084 H   0  0  0  0  0  0  0  0  0  0  0  0
    2.9503    0.6261   -2.7212 H   0  0  0  0  0  0  0  0  0  0  0  0
    4.3660   -1.6217   -3.0020 H   0  0  0  0  0  0  0  0  0  0  0  0
    3.4326   -1.4460   -4.3361 H   0  0  0  0  0  0  0  0  0  0  0  0
    2.9715   -3.6087   -3.7579 H   0  0  0  0  0  0  0  0  0  0  0  0
    2.7754   -3.2092   -2.0507 H   0  0  0  0  0  0  0  0  0  0  0  0
    0.6290   -3.6630   -3.1948 H   0  0  0  0  0  0  0  0  0  0  0  0
   -0.6506   -1.7542   -2.2809 H   0  0  0  0  0  0  0  0  0  0  0  0
    0.7319   -2.1865   -1.2529 H   0  0  0  0  0  0  0  0  0  0  0  0
    2.3263    0.1991   -8.3690 H   0  0  0  0  0  0  0  0  0  0  0  0
    3.3113   -1.2306  -10.0914 H   0  0  0  0  0  0  0  0  0  0  0  0
    2.7226   -3.6501  -10.2126 H   0  0  0  0  0  0  0  0  0  0  0  0
    1.2916   -4.6696   -8.4446 H   0  0  0  0  0  0  0  0  0  0  0  0
    0.3255   -3.2971   -6.7903 H   0  0  0  0  0  0  0  0  0  0  0  0
   -1.3243   -2.6973   -6.1769 H   0  0  0  0  0  0  0  0  0  0  0  0
   -3.6848   -2.7070   -6.2553 H   0  0  0  0  0  0  0  0  0  0  0  0
   -4.9512   -0.5666   -6.2630 H   0  0  0  0  0  0  0  0  0  0  0  0
   -3.7205    1.5937   -6.1977 H   0  0  0  0  0  0  0  0  0  0  0  0
   -1.2921    1.6340   -6.4417 H   0  0  0  0  0  0  0  0  0  0  0  0
    0.6892    1.1657   -7.4300 H   0  0  0  0  0  0  0  0  0  0  0  0
   -0.8903    0.6848   -2.9287 H   0  0  0  0  0  0  0  0  0  0  0  0
    0.6451    1.5952   -3.3105 H   0  0  0  0  0  0  0  0  0  0  0  0
   -0.0152    0.2467   -4.2373 H   0  0  0  0  0  0  0  0  0  0  0  0
  1  2  1  0  0  0  0
  1 27  1  0  0  0  0
  1 28  1  0  0  0  0
  1 29  1  0  0  0  0
  2  3  1  0  0  0  0
  2 30  1  0  0  0  0
  2 31  1  0  0  0  0
  3  4  1  0  0  0  0
  3  8  1  0  0  0  0
  3 26  1  0  0  0  0
  4  5  1  0  0  0  0
  4 32  1  0  0  0  0
  4 33  1  0  0  0  0
  5  6  1  0  0  0  0
  5 34  1  0  0  0  0
  5 35  1  0  0  0  0
  6  7  1  0  0  0  0
  6 36  1  0  0  0  0
  6 37  1  0  0  0  0
  7  8  1  0  0  0  0
  7  9  1  0  0  0  0
  7 38  1  0  0  0  0
  8 39  1  0  0  0  0
  8 40  1  0  0  0  0
  9 10  1  0  0  0  0
 10 11  2  0  0  0  0
 10 12  1  0  0  0  0
 12 13  1  0  0  0  0
 12 19  1  0  0  0  0
 12 25  1  0  0  0  0
 13 14  2  0  0  0  0
 13 18  1  0  0  0  0
 14 15  1  0  0  0  0
 14 41  1  0  0  0  0
 15 16  2  0  0  0  0
 15 42  1  0  0  0  0
 16 17  1  0  0  0  0
 16 43  1  0  0  0  0
 17 18  2  0  0  0  0
 17 44  1  0  0  0  0
 18 45  1  0  0  0  0
 19 20  2  0  0  0  0
 19 24  1  0  0  0  0
 20 21  1  0  0  0  0
 20 46  1  0  0  0  0
 21 22  2  0  0  0  0
 21 47  1  0  0  0  0
 22 23  1  0  0  0  0
 22 48  1  0  0  0  0
 23 24  2  0  0  0  0
 23 49  1  0  0  0  0
 24 50  1  0  0  0  0
 25 51  1  0  0  0  0
 26 52  1  0  0  0  0
 26 53  1  0  0  0  0
 26 54  1  0  0  0  0
M  CHG  1   3   1
M  END
>  <DRUGBANK_ID>
DB13844

>  <COMMON_NAME>
Pipenzolate

>  <CAS_NUMBER>
13473-38-6

>  <UNII>
RS3K5YXV34

$$$$
