
 OpenBabel10282417193D

168172  0  0  0  0  0  0  0  0999 V2000
    8.2715    6.5301   15.4006 C   0  0  2  0  0  0  0  0  0  0  0  0
    9.2275    7.5718   14.7407 C   0  0  0  0  0  0  0  0  0  0  0  0
    8.9225    7.9686   13.4540 N   0  0  0  0  0  0  0  0  0  0  0  0
    9.9281    8.7146   12.5970 C   0  0  2  0  0  0  0  0  0  0  0  0
    9.0861    9.2971   11.4107 C   0  0  0  0  0  0  0  0  0  0  0  0
    7.7648    8.9221   11.0970 N   0  0  0  0  0  0  0  0  0  0  0  0
    6.9895    9.3920    9.8451 C   0  0  2  0  0  0  0  0  0  0  0  0
    5.6028    8.7115    9.6264 C   0  0  0  0  0  0  0  0  0  0  0  0
    4.8065    8.3199   10.6744 N   0  0  0  0  0  0  0  0  0  0  0  0
    3.6413    7.3995   10.4518 C   0  0  2  0  0  0  0  0  0  0  0  0
    3.5475    6.5970   11.7866 C   0  0  0  0  0  0  0  0  0  0  0  0
    2.4126    6.7513   12.5694 N   0  0  0  0  0  0  0  0  0  0  0  0
    2.2091    5.8204   13.6988 N   0  0  0  0  0  0  0  0  0  0  0  0
    0.8897    5.6598   14.0618 C   0  0  0  0  0  0  0  0  0  0  0  0
    0.6502    5.1857   15.3317 N   0  0  0  0  0  0  0  0  0  0  0  0
   -0.6849    5.2081   16.0615 C   0  0  2  0  0  0  0  0  0  0  0  0
   -1.7548    6.3255   15.7168 C   0  0  0  0  0  0  0  0  0  0  0  0
   -1.3803    7.3162   14.8550 N   0  0  0  0  0  0  0  0  0  0  0  0
   -2.2867    8.2438   14.2288 C   0  0  2  0  0  0  0  0  0  0  0  0
   -3.0610    7.7957   12.9590 C   0  0  0  0  0  0  0  0  0  0  0  0
   -2.4811    7.9677   11.6992 N   0  0  0  0  0  0  0  0  0  0  0  0
   -3.1333    7.5336   10.4183 C   0  0  2  0  0  0  0  0  0  0  0  0
   -3.4863    5.9834   10.4496 C   0  0  0  0  0  0  0  0  0  0  0  0
   -3.4156    5.3108   11.6256 N   0  0  0  0  0  0  0  0  0  0  0  0
    7.6315    7.2377   16.6023 C   0  0  0  0  0  0  0  0  0  0  0  0
    8.9460    5.3169   15.9772 N   0  0  0  0  0  0  0  0  0  0  0  0
    8.5822    5.1974   17.4006 C   0  0  0  0  0  0  0  0  0  0  0  0
    7.3665    6.1123   17.5804 C   0  0  2  0  0  0  0  0  0  0  0  0
   10.2681    7.9439   15.2735 O   0  0  0  0  0  0  0  0  0  0  0  0
    9.6854   10.1639   10.7264 O   0  0  0  0  0  0  0  0  0  0  0  0
    5.1422    8.6305    8.4839 O   0  0  0  0  0  0  0  0  0  0  0  0
    4.4567    5.8494   12.1594 O   0  0  0  0  0  0  0  0  0  0  0  0
    0.0480    6.1941   13.3420 O   0  0  0  0  0  0  0  0  0  0  0  0
   -2.8811    6.3329   16.2122 O   0  0  0  0  0  0  0  0  0  0  0  0
   -4.1198    7.1821   13.1052 O   0  0  0  0  0  0  0  0  0  0  0  0
   -3.8873    5.2945    9.5152 O   0  0  0  0  0  0  0  0  0  0  0  0
   -2.2087    7.8397    9.1871 C   0  0  0  0  0  0  0  0  0  0  0  0
   -2.8099    7.5196    7.8359 C   0  0  0  0  0  0  0  0  0  0  0  0
   -4.0831    7.0371    7.5991 C   0  0  0  0  0  0  0  0  0  0  0  0
   -4.1567    6.5718    6.3231 N   0  0  0  0  0  0  0  0  0  0  0  0
   -3.0641    6.9998    5.6227 C   0  0  0  0  0  0  0  0  0  0  0  0
   -2.2018    7.6155    6.5377 C   0  0  0  0  0  0  0  0  0  0  0  0
   -0.9945    8.1486    6.0474 C   0  0  0  0  0  0  0  0  0  0  0  0
   -0.7078    8.0475    4.6788 C   0  0  0  0  0  0  0  0  0  0  0  0
   -1.5879    7.4107    3.8044 C   0  0  0  0  0  0  0  0  0  0  0  0
   -2.7869    6.8692    4.2617 C   0  0  0  0  0  0  0  0  0  0  0  0
   -0.4139    5.2329   17.6151 C   0  0  0  0  0  0  0  0  0  0  0  0
   -1.6673    5.2475   18.5337 C   0  0  0  0  0  0  0  0  0  0  0  0
   -2.5330    4.0043   18.3280 C   0  0  0  0  0  0  0  0  0  0  0  0
   -1.3122    5.3940   20.0131 C   0  0  0  0  0  0  0  0  0  0  0  0
   -1.5419    9.5265   13.9173 C   0  0  0  0  0  0  0  0  0  0  0  0
   -2.5527   10.5801   13.4764 C   0  0  0  0  0  0  0  0  0  0  0  0
   -3.6445   10.7653   14.5239 C   0  0  0  0  0  0  0  0  0  0  0  0
   -3.0488   11.2787   15.7439 N   0  0  0  0  0  0  0  0  0  0  0  0
   -3.4623   12.4614   16.2420 C   0  0  0  0  0  0  0  0  0  0  0  0
   -2.8528   12.8636   17.3793 N   0  0  0  0  0  0  0  0  0  0  0  0
   -3.1266   14.1009   18.0731 C   0  0  0  0  0  0  0  0  0  0  0  0
   -4.3623   13.1179   15.5991 N   0  0  0  0  0  0  0  0  0  0  0  0
   11.4843    8.0258   12.1981 C   0  0  0  0  0  0  0  0  0  0  0  0
   12.3568    8.6990   11.1267 C   0  0  0  0  0  0  0  0  0  0  0  0
   13.6824    8.4234   11.2670 N   0  0  0  0  0  0  0  0  0  0  0  0
   12.0110    9.2260   10.0797 O   0  0  0  0  0  0  0  0  0  0  0  0
    3.8845    6.3922    9.2663 C   0  0  0  0  0  0  0  0  0  0  0  0
    2.7850    5.4164    8.9520 C   0  0  0  0  0  0  0  0  0  0  0  0
    2.0123    4.8475    9.9578 C   0  0  0  0  0  0  0  0  0  0  0  0
    0.9022    4.0787    9.6858 C   0  0  0  0  0  0  0  0  0  0  0  0
    0.5896    3.7939    8.3711 C   0  0  0  0  0  0  0  0  0  0  0  0
    1.3811    4.2960    7.3375 C   0  0  0  0  0  0  0  0  0  0  0  0
    2.5035    5.0720    7.6235 C   0  0  0  0  0  0  0  0  0  0  0  0
    7.7325    9.3393    8.3941 C   0  0  2  0  0  0  0  0  0  0  0  0
    7.2483    8.4168    7.4061 O   0  0  0  0  0  0  0  0  0  0  0  0
    9.1357    8.8791    8.4858 C   0  0  0  0  0  0  0  0  0  0  0  0
    6.1490    5.4564   17.2179 O   0  0  0  0  0  0  0  0  0  0  0  0
    7.4500    6.1953   14.7579 H   0  0  0  0  0  0  0  0  0  0  0  0
    9.6962    4.2732   15.4115 C   0  0  0  0  0  0  0  0  0  0  0  0
   10.0628    4.1581   13.8847 C   0  0  2  0  0  0  0  0  0  0  0  0
   11.5157    4.4038   13.6680 N   0  0  0  0  0  0  0  0  0  0  0  0
   12.1764    3.7821   12.6310 C   0  0  0  0  0  0  0  0  0  0  0  0
   13.6584    4.0332   12.5099 C   0  0  0  0  0  0  0  0  0  0  0  0
    9.2121    5.0631   13.0401 C   0  0  0  0  0  0  0  0  0  0  0  0
    9.2663    5.0926   11.5467 C   0  0  0  0  0  0  0  0  0  0  0  0
    9.7611    6.2297   11.0072 C   0  0  0  0  0  0  0  0  0  0  0  0
   10.3529    6.4413    9.7840 C   0  0  0  0  0  0  0  0  0  0  0  0
   10.1596    5.4956    8.8601 C   0  0  0  0  0  0  0  0  0  0  0  0
    9.4527    4.3686    9.2703 C   0  0  0  0  0  0  0  0  0  0  0  0
    8.9639    4.1808   10.6017 C   0  0  0  0  0  0  0  0  0  0  0  0
   10.1740    3.4099   16.1642 O   0  0  0  0  0  0  0  0  0  0  0  0
   11.6095    3.0230   11.8507 O   0  0  0  0  0  0  0  0  0  0  0  0
   10.6459    5.7136    7.6136 O   0  0  0  0  0  0  0  0  0  0  0  0
    8.1941    7.4442   12.9658 H   0  0  0  0  0  0  0  0  0  0  0  0
   10.2280    9.5683   13.1991 H   0  0  0  0  0  0  0  0  0  0  0  0
    7.1610    8.6549   11.8662 H   0  0  0  0  0  0  0  0  0  0  0  0
    6.7585   10.4499   10.0346 H   0  0  0  0  0  0  0  0  0  0  0  0
    4.8332    8.8429   11.5400 H   0  0  0  0  0  0  0  0  0  0  0  0
    2.7354    7.9946   10.2589 H   0  0  0  0  0  0  0  0  0  0  0  0
    1.5406    7.1588   12.2147 H   0  0  0  0  0  0  0  0  0  0  0  0
    2.8202    5.0045   13.6933 H   0  0  0  0  0  0  0  0  0  0  0  0
    1.2329    4.4001   15.5994 H   0  0  0  0  0  0  0  0  0  0  0  0
   -1.1611    4.2482   15.8219 H   0  0  0  0  0  0  0  0  0  0  0  0
   -0.5499    7.1533   14.3165 H   0  0  0  0  0  0  0  0  0  0  0  0
   -3.0532    8.3898   14.9892 H   0  0  0  0  0  0  0  0  0  0  0  0
   -1.9120    8.7942   11.5827 H   0  0  0  0  0  0  0  0  0  0  0  0
   -4.0463    8.1433   10.3046 H   0  0  0  0  0  0  0  0  0  0  0  0
   -4.0235    4.5070   11.6674 H   0  0  0  0  0  0  0  0  0  0  0  0
   -3.4178    5.8413   12.4823 H   0  0  0  0  0  0  0  0  0  0  0  0
    6.7247    7.7735   16.2994 H   0  0  0  0  0  0  0  0  0  0  0  0
    8.3299    7.9594   17.0391 H   0  0  0  0  0  0  0  0  0  0  0  0
    9.4338    5.5501   17.9927 H   0  0  0  0  0  0  0  0  0  0  0  0
    8.3542    4.1589   17.6655 H   0  0  0  0  0  0  0  0  0  0  0  0
    7.2534    6.4789   18.6045 H   0  0  0  0  0  0  0  0  0  0  0  0
   -1.8987    8.8971    9.1783 H   0  0  0  0  0  0  0  0  0  0  0  0
   -1.2812    7.2636    9.3134 H   0  0  0  0  0  0  0  0  0  0  0  0
   -4.9014    6.8166    8.2677 H   0  0  0  0  0  0  0  0  0  0  0  0
   -4.9223    6.0238    5.9564 H   0  0  0  0  0  0  0  0  0  0  0  0
   -0.3029    8.6536    6.7132 H   0  0  0  0  0  0  0  0  0  0  0  0
    0.2166    8.4692    4.2941 H   0  0  0  0  0  0  0  0  0  0  0  0
   -1.3416    7.3316    2.7491 H   0  0  0  0  0  0  0  0  0  0  0  0
   -3.4813    6.3760    3.5891 H   0  0  0  0  0  0  0  0  0  0  0  0
    0.2009    4.3639   17.8943 H   0  0  0  0  0  0  0  0  0  0  0  0
    0.1982    6.1148   17.8482 H   0  0  0  0  0  0  0  0  0  0  0  0
   -2.2628    6.1393   18.3239 H   0  0  0  0  0  0  0  0  0  0  0  0
   -1.9919    3.1007   18.6261 H   0  0  0  0  0  0  0  0  0  0  0  0
   -3.4509    4.0656   18.9222 H   0  0  0  0  0  0  0  0  0  0  0  0
   -2.8365    3.8857   17.2843 H   0  0  0  0  0  0  0  0  0  0  0  0
   -0.7344    6.3084   20.1827 H   0  0  0  0  0  0  0  0  0  0  0  0
   -2.2290    5.4741   20.6117 H   0  0  0  0  0  0  0  0  0  0  0  0
   -0.7390    4.5390   20.3792 H   0  0  0  0  0  0  0  0  0  0  0  0
   -0.9836    9.8524   14.8011 H   0  0  0  0  0  0  0  0  0  0  0  0
   -0.7772    9.3583   13.1466 H   0  0  0  0  0  0  0  0  0  0  0  0
   -2.0294   11.5137   13.2585 H   0  0  0  0  0  0  0  0  0  0  0  0
   -3.0487   10.2953   12.5412 H   0  0  0  0  0  0  0  0  0  0  0  0
   -4.4004   11.4214   14.0867 H   0  0  0  0  0  0  0  0  0  0  0  0
   -4.2111    9.8538   14.7390 H   0  0  0  0  0  0  0  0  0  0  0  0
   -2.4325   10.6719   16.2670 H   0  0  0  0  0  0  0  0  0  0  0  0
   -2.1625   12.2626   17.8102 H   0  0  0  0  0  0  0  0  0  0  0  0
   -3.4848   13.8996   19.0856 H   0  0  0  0  0  0  0  0  0  0  0  0
   -2.2245   14.7158   18.1264 H   0  0  0  0  0  0  0  0  0  0  0  0
   -3.8909   14.7094   17.5848 H   0  0  0  0  0  0  0  0  0  0  0  0
   -4.5856   13.9849   16.0632 H   0  0  0  0  0  0  0  0  0  0  0  0
   12.0131    7.7370   13.1106 H   0  0  0  0  0  0  0  0  0  0  0  0
   11.5771    7.0050   11.7714 H   0  0  0  0  0  0  0  0  0  0  0  0
   14.2987    8.8200   10.5679 H   0  0  0  0  0  0  0  0  0  0  0  0
   14.0454    7.8854   12.0362 H   0  0  0  0  0  0  0  0  0  0  0  0
    3.9712    6.9482    8.3281 H   0  0  0  0  0  0  0  0  0  0  0  0
    4.8351    5.8643    9.4085 H   0  0  0  0  0  0  0  0  0  0  0  0
    2.2439    4.9549   10.9975 H   0  0  0  0  0  0  0  0  0  0  0  0
    0.3044    3.7201   10.5168 H   0  0  0  0  0  0  0  0  0  0  0  0
   -0.2639    3.1610    8.1604 H   0  0  0  0  0  0  0  0  0  0  0  0
    1.1060    4.0972    6.3063 H   0  0  0  0  0  0  0  0  0  0  0  0
    3.1386    5.4136    6.8047 H   0  0  0  0  0  0  0  0  0  0  0  0
    7.7189   10.3370    7.9478 H   0  0  0  0  0  0  0  0  0  0  0  0
    6.2723    8.4393    7.4120 H   0  0  0  0  0  0  0  0  0  0  0  0
    9.6233    8.4677    7.6034 H   0  0  0  0  0  0  0  0  0  0  0  0
    9.7522    9.7080    8.7870 H   0  0  0  0  0  0  0  0  0  0  0  0
    9.0353    8.0657    9.1848 H   0  0  0  0  0  0  0  0  0  0  0  0
    6.3123    4.9173   16.4246 H   0  0  0  0  0  0  0  0  0  0  0  0
    9.8302    3.1449   13.5532 H   0  0  0  0  0  0  0  0  0  0  0  0
   12.0010    5.0877   14.2407 H   0  0  0  0  0  0  0  0  0  0  0  0
   14.1729    3.0755   12.6434 H   0  0  0  0  0  0  0  0  0  0  0  0
   13.8854    4.4136   11.5080 H   0  0  0  0  0  0  0  0  0  0  0  0
   14.0374    4.7404   13.2500 H   0  0  0  0  0  0  0  0  0  0  0  0
    8.1731    5.1006   13.3504 H   0  0  0  0  0  0  0  0  0  0  0  0
    9.7221    5.9598   13.3719 H   0  0  0  0  0  0  0  0  0  0  0  0
    9.8153    6.9458   11.7452 H   0  0  0  0  0  0  0  0  0  0  0  0
   10.9189    7.3369    9.5626 H   0  0  0  0  0  0  0  0  0  0  0  0
    9.3449    3.5672    8.5651 H   0  0  0  0  0  0  0  0  0  0  0  0
    8.4115    3.3114   10.9113 H   0  0  0  0  0  0  0  0  0  0  0  0
   10.9417    6.6480    7.5523 H   0  0  0  0  0  0  0  0  0  0  0  0
  1  2  1  0  0  0  0
  1 25  1  0  0  0  0
  1 26  1  0  0  0  0
  1 74  1  6  0  0  0
  2  3  1  0  0  0  0
  2 29  2  0  0  0  0
  3 90  1  0  0  0  0
  4 59  1  0  0  0  0
  4 91  1  1  0  0  0
  4  5  1  0  0  0  0
  4  3  1  0  0  0  0
  5  6  1  0  0  0  0
  5 30  2  0  0  0  0
  6 92  1  0  0  0  0
  7 93  1  1  0  0  0
  7  8  1  0  0  0  0
  7  6  1  0  0  0  0
  8  9  1  0  0  0  0
  8 31  2  0  0  0  0
  9 94  1  0  0  0  0
 10 63  1  0  0  0  0
 10 95  1  6  0  0  0
 10 11  1  0  0  0  0
 10  9  1  0  0  0  0
 11 12  1  0  0  0  0
 11 32  2  0  0  0  0
 12 13  1  0  0  0  0
 12 96  1  0  0  0  0
 13 14  1  0  0  0  0
 13 97  1  0  0  0  0
 14 15  1  0  0  0  0
 14 33  2  0  0  0  0
 15 98  1  0  0  0  0
 16 47  1  0  0  0  0
 16 99  1  6  0  0  0
 16 17  1  0  0  0  0
 16 15  1  0  0  0  0
 17 18  1  0  0  0  0
 17 34  2  0  0  0  0
 18100  1  0  0  0  0
 19 51  1  0  0  0  0
 19101  1  1  0  0  0
 19 20  1  0  0  0  0
 19 18  1  0  0  0  0
 20 21  1  0  0  0  0
 20 35  2  0  0  0  0
 21102  1  0  0  0  0
 22 37  1  0  0  0  0
 22103  1  6  0  0  0
 22 23  1  0  0  0  0
 22 21  1  0  0  0  0
 23 24  1  0  0  0  0
 23 36  2  0  0  0  0
 24104  1  0  0  0  0
 24105  1  0  0  0  0
 25 28  1  0  0  0  0
 25106  1  0  0  0  0
 25107  1  0  0  0  0
 26 27  1  0  0  0  0
 26 75  1  0  0  0  0
 27108  1  0  0  0  0
 27109  1  0  0  0  0
 28 27  1  0  0  0  0
 28 73  1  0  0  0  0
 28110  1  1  0  0  0
 37 38  1  0  0  0  0
 37111  1  0  0  0  0
 37112  1  0  0  0  0
 39 38  2  0  0  0  0
 39 40  1  0  0  0  0
 39113  1  0  0  0  0
 40 41  1  0  0  0  0
 40114  1  0  0  0  0
 41 42  2  0  0  0  0
 41 46  1  0  0  0  0
 42 38  1  0  0  0  0
 42 43  1  0  0  0  0
 43115  1  0  0  0  0
 44 43  2  0  0  0  0
 44116  1  0  0  0  0
 45 44  1  0  0  0  0
 45117  1  0  0  0  0
 46 45  2  0  0  0  0
 46118  1  0  0  0  0
 47 48  1  0  0  0  0
 47119  1  0  0  0  0
 47120  1  0  0  0  0
 48 49  1  0  0  0  0
 48 50  1  0  0  0  0
 48121  1  0  0  0  0
 49122  1  0  0  0  0
 49123  1  0  0  0  0
 49124  1  0  0  0  0
 50125  1  0  0  0  0
 50126  1  0  0  0  0
 50127  1  0  0  0  0
 51 52  1  0  0  0  0
 51128  1  0  0  0  0
 51129  1  0  0  0  0
 52 53  1  0  0  0  0
 52130  1  0  0  0  0
 52131  1  0  0  0  0
 53 54  1  0  0  0  0
 53132  1  0  0  0  0
 53133  1  0  0  0  0
 54 55  1  0  0  0  0
 54134  1  0  0  0  0
 55 56  1  0  0  0  0
 55 58  2  0  0  0  0
 56 57  1  0  0  0  0
 56135  1  0  0  0  0
 57136  1  0  0  0  0
 57137  1  0  0  0  0
 57138  1  0  0  0  0
 58139  1  0  0  0  0
 59 60  1  0  0  0  0
 59140  1  0  0  0  0
 59141  1  0  0  0  0
 60 61  1  0  0  0  0
 60 62  2  0  0  0  0
 61142  1  0  0  0  0
 61143  1  0  0  0  0
 63 64  1  0  0  0  0
 63144  1  0  0  0  0
 63145  1  0  0  0  0
 64 69  1  0  0  0  0
 65 64  2  0  0  0  0
 65146  1  0  0  0  0
 66 65  1  0  0  0  0
 66147  1  0  0  0  0
 67 66  2  0  0  0  0
 67148  1  0  0  0  0
 68 67  1  0  0  0  0
 68149  1  0  0  0  0
 69 68  2  0  0  0  0
 69150  1  0  0  0  0
 70 72  1  0  0  0  0
 70151  1  6  0  0  0
 70 71  1  0  0  0  0
 70  7  1  0  0  0  0
 71152  1  0  0  0  0
 72153  1  0  0  0  0
 72154  1  0  0  0  0
 72155  1  0  0  0  0
 73156  1  0  0  0  0
 75 87  2  0  0  0  0
 76 80  1  0  0  0  0
 76157  1  6  0  0  0
 76 77  1  0  0  0  0
 76 75  1  0  0  0  0
 77 78  1  0  0  0  0
 77158  1  0  0  0  0
 78 79  1  0  0  0  0
 78 88  2  0  0  0  0
 79159  1  0  0  0  0
 79160  1  0  0  0  0
 79161  1  0  0  0  0
 80 81  1  0  0  0  0
 80162  1  0  0  0  0
 80163  1  0  0  0  0
 81 86  1  0  0  0  0
 82 81  2  0  0  0  0
 82164  1  0  0  0  0
 83 82  1  0  0  0  0
 83165  1  0  0  0  0
 84 83  2  0  0  0  0
 84 89  1  0  0  0  0
 85 84  1  0  0  0  0
 85166  1  0  0  0  0
 86 85  2  0  0  0  0
 86167  1  0  0  0  0
 89168  1  0  0  0  0
M  END
>  <DRUGBANK_ID>
DB11975

>  <COMMON_NAME>
TAK-448

>  <CAS_NUMBER>
1234319-68-6

>  <UNII>
YO029HR229

$$$$
