
 OpenBabel10282417113D

 26 27  0  0  0  0  0  0  0  0999 V2000
   -1.2302    0.0392   -0.0110 C   0  0  0  0  0  0  0  0  0  0  0  0
    0.9301    0.6809    0.1202 N   0  0  0  0  0  0  0  0  0  0  0  0
    2.1135    1.5073    0.0083 C   0  0  0  0  0  0  0  0  0  0  0  0
   -0.3903    1.0862    0.0284 C   0  0  0  0  0  0  0  0  0  0  0  0
   -0.7822    2.5223    0.0099 C   0  0  0  0  0  0  0  0  0  0  0  0
    0.9376   -0.7191    0.0878 N   0  0  0  0  0  0  0  0  0  0  0  0
    2.0949   -1.4945    0.0144 C   0  0  0  0  0  0  0  0  0  0  0  0
    4.4728   -2.9262   -0.2060 C   0  0  0  0  0  0  0  0  0  0  0  0
    3.4700   -3.0923   -1.1623 C   0  0  0  0  0  0  0  0  0  0  0  0
    2.2758   -2.3821   -1.0489 C   0  0  0  0  0  0  0  0  0  0  0  0
    3.0849   -1.3621    0.9919 C   0  0  0  0  0  0  0  0  0  0  0  0
    4.2894   -2.0465    0.8603 C   0  0  0  0  0  0  0  0  0  0  0  0
   -0.3723   -1.1704   -0.0157 C   0  0  0  0  0  0  0  0  0  0  0  0
   -0.8117   -2.3109   -0.0622 O   0  0  0  0  0  0  0  0  0  0  0  0
   -2.3021    0.0098   -0.0441 H   0  0  0  0  0  0  0  0  0  0  0  0
    2.0826    2.1326   -0.8905 H   0  0  0  0  0  0  0  0  0  0  0  0
    2.1677    2.1640    0.8825 H   0  0  0  0  0  0  0  0  0  0  0  0
    3.0509    0.9501   -0.0352 H   0  0  0  0  0  0  0  0  0  0  0  0
   -0.3933    3.0334    0.8960 H   0  0  0  0  0  0  0  0  0  0  0  0
   -0.3860    3.0219   -0.8806 H   0  0  0  0  0  0  0  0  0  0  0  0
   -1.8704    2.6386    0.0036 H   0  0  0  0  0  0  0  0  0  0  0  0
    5.3971   -3.4913   -0.2864 H   0  0  0  0  0  0  0  0  0  0  0  0
    3.6228   -3.7608   -2.0052 H   0  0  0  0  0  0  0  0  0  0  0  0
    1.5089   -2.4896   -1.8122 H   0  0  0  0  0  0  0  0  0  0  0  0
    2.9044   -0.7371    1.8630 H   0  0  0  0  0  0  0  0  0  0  0  0
    5.0828   -1.8890    1.5849 H   0  0  0  0  0  0  0  0  0  0  0  0
  1  4  2  0  0  0  0
  1 15  1  0  0  0  0
  2  3  1  0  0  0  0
  3 16  1  0  0  0  0
  3 17  1  0  0  0  0
  3 18  1  0  0  0  0
  4  2  1  0  0  0  0
  4  5  1  0  0  0  0
  5 19  1  0  0  0  0
  5 20  1  0  0  0  0
  5 21  1  0  0  0  0
  6 13  1  0  0  0  0
  6  2  1  0  0  0  0
  6  7  1  0  0  0  0
  7 11  1  0  0  0  0
  8  9  2  0  0  0  0
  8 12  1  0  0  0  0
  8 22  1  0  0  0  0
  9 10  1  0  0  0  0
  9 23  1  0  0  0  0
 10  7  2  0  0  0  0
 10 24  1  0  0  0  0
 11 12  2  0  0  0  0
 11 25  1  0  0  0  0
 12 26  1  0  0  0  0
 13  1  1  0  0  0  0
 13 14  2  0  0  0  0
M  END
>  <DRUGBANK_ID>
DB01435

>  <COMMON_NAME>
Antipyrine

>  <CAS_NUMBER>
60-80-0

>  <UNII>
T3CHA1B51H

>  <SYNONYMS>
1,2-Dihydro-1,5-dimethyl-2-phenyl-3H-pyrazol-3-one; 2,3-Dimethyl-1-phenyl-5-pyrazolone; Analgesine; Antipyrine; Fenazon; Fenazona; Phenazon; Phenazone

$$$$
