
 OpenBabel10282417143D

 79 81  0  0  0  0  0  0  0  0999 V2000
   -2.2324    0.3070   -2.0220 C   0  0  1  0  0  0  0  0  0  0  0  0
    0.6952   -2.6656    1.6307 C   0  0  0  0  0  0  0  0  0  0  0  0
    1.1554   -1.2955    1.9527 C   0  0  0  0  0  0  0  0  0  0  0  0
   -2.2800    0.0922   -0.4929 C   0  0  2  0  0  0  0  0  0  0  0  0
   -3.4036    1.3178   -2.1973 C   0  0  2  0  0  0  0  0  0  0  0  0
   -0.4495   -2.9947    0.9860 C   0  0  0  0  0  0  0  0  0  0  0  0
    2.5635   -0.9665    1.4475 C   0  0  2  0  0  0  0  0  0  0  0  0
   -1.2486   -0.9357   -0.1323 C   0  0  0  0  0  0  0  0  0  0  0  0
   -1.4830   -2.0837    0.5313 C   0  0  0  0  0  0  0  0  0  0  0  0
   -3.7668   -0.1034   -0.2016 C   0  0  0  0  0  0  0  0  0  0  0  0
   -4.4562    0.8925   -1.1421 C   0  0  0  0  0  0  0  0  0  0  0  0
    3.5673   -2.0069    1.9147 C   0  0  0  0  0  0  0  0  0  0  0  0
    1.6951   -3.7413    1.9910 C   0  0  0  0  0  0  0  0  0  0  0  0
    3.1267   -3.4197    1.5341 C   0  0  1  0  0  0  0  0  0  0  0  0
    0.3477   -0.3722    2.5105 C   0  0  0  0  0  0  0  0  0  0  0  0
   -1.4619    2.6596   -6.2398 C   0  0  0  0  0  0  0  0  0  0  0  0
   -2.4043    1.8792   -5.5300 C   0  0  0  0  0  0  0  0  0  0  0  0
   -0.9240    2.2839   -7.4196 C   0  0  0  0  0  0  0  0  0  0  0  0
   -0.1398    3.2160   -8.3070 C   0  0  0  0  0  0  0  0  0  0  0  0
   -3.0619    2.3466   -4.4469 C   0  0  0  0  0  0  0  0  0  0  0  0
   -4.0086    1.5218   -3.6113 C   0  0  1  0  0  0  0  0  0  0  0  0
   -0.8598    0.8979   -2.4172 C   0  0  0  0  0  0  0  0  0  0  0  0
    2.9926    0.3299    1.8558 O   0  0  0  0  0  0  0  0  0  0  0  0
   -2.4027   -1.0777   -2.7097 C   0  0  0  0  0  0  0  0  0  0  0  0
    1.1847    2.6646   -8.3791 O   0  0  0  0  0  0  0  0  0  0  0  0
    3.2706   -3.6272    0.1265 O   0  0  0  0  0  0  0  0  0  0  0  0
    0.1260   -0.5059   -0.6211 C   0  0  0  0  0  0  0  0  0  0  0  0
    0.2523   -0.0690   -2.0629 C   0  0  0  0  0  0  0  0  0  0  0  0
   -0.6849    3.1981   -9.7569 C   0  0  0  0  0  0  0  0  0  0  0  0
   -0.0191    4.6575   -7.7409 C   0  0  0  0  0  0  0  0  0  0  0  0
   -4.3979    0.2247   -4.3243 C   0  0  0  0  0  0  0  0  0  0  0  0
   -1.3245    5.4479   -7.5690 C   0  0  0  0  0  0  0  0  0  0  0  0
   -2.1333    3.6353   -9.9388 C   0  0  0  0  0  0  0  0  0  0  0  0
   -1.9852    1.0160    0.0310 H   0  0  0  0  0  0  0  0  0  0  0  0
   -3.0395    2.3045   -1.8534 H   0  0  0  0  0  0  0  0  0  0  0  0
   -0.6708   -4.0433    0.7784 H   0  0  0  0  0  0  0  0  0  0  0  0
    2.5912   -0.9422    0.3529 H   0  0  0  0  0  0  0  0  0  0  0  0
   -2.5002   -2.3883    0.7751 H   0  0  0  0  0  0  0  0  0  0  0  0
   -4.1115   -1.1178   -0.4285 H   0  0  0  0  0  0  0  0  0  0  0  0
   -4.0096    0.0945    0.8480 H   0  0  0  0  0  0  0  0  0  0  0  0
   -5.3449    0.4462   -1.5947 H   0  0  0  0  0  0  0  0  0  0  0  0
   -4.7928    1.7714   -0.5758 H   0  0  0  0  0  0  0  0  0  0  0  0
    3.6849   -1.9246    3.0010 H   0  0  0  0  0  0  0  0  0  0  0  0
    4.5439   -1.7784    1.4706 H   0  0  0  0  0  0  0  0  0  0  0  0
    1.3939   -4.7047    1.5601 H   0  0  0  0  0  0  0  0  0  0  0  0
    1.6766   -3.8498    3.0816 H   0  0  0  0  0  0  0  0  0  0  0  0
    3.8068   -4.1317    2.0113 H   0  0  0  0  0  0  0  0  0  0  0  0
   -0.6882   -0.5840    2.7557 H   0  0  0  0  0  0  0  0  0  0  0  0
    0.6466    0.6702    2.5768 H   0  0  0  0  0  0  0  0  0  0  0  0
   -1.2563    3.6253   -5.8010 H   0  0  0  0  0  0  0  0  0  0  0  0
   -2.5542    0.8831   -5.9175 H   0  0  0  0  0  0  0  0  0  0  0  0
   -1.1171    1.2877   -7.8106 H   0  0  0  0  0  0  0  0  0  0  0  0
   -2.8977    3.3704   -4.1136 H   0  0  0  0  0  0  0  0  0  0  0  0
   -4.9310    2.1090   -3.4970 H   0  0  0  0  0  0  0  0  0  0  0  0
   -0.6830    1.8474   -1.8936 H   0  0  0  0  0  0  0  0  0  0  0  0
   -0.7937    1.1022   -3.4856 H   0  0  0  0  0  0  0  0  0  0  0  0
    2.8821    0.3734    2.8190 H   0  0  0  0  0  0  0  0  0  0  0  0
   -3.3991   -1.4952   -2.5512 H   0  0  0  0  0  0  0  0  0  0  0  0
   -2.1487   -1.0291   -3.7668 H   0  0  0  0  0  0  0  0  0  0  0  0
   -1.7151   -1.8471   -2.3485 H   0  0  0  0  0  0  0  0  0  0  0  0
    1.5189    2.5790   -7.4695 H   0  0  0  0  0  0  0  0  0  0  0  0
    2.6157   -3.0816   -0.3434 H   0  0  0  0  0  0  0  0  0  0  0  0
    0.4428    0.3442   -0.0079 H   0  0  0  0  0  0  0  0  0  0  0  0
    0.8306   -1.3284   -0.5465 H   0  0  0  0  0  0  0  0  0  0  0  0
    1.2345    0.3938   -2.2079 H   0  0  0  0  0  0  0  0  0  0  0  0
    0.2354   -0.9508   -2.7132 H   0  0  0  0  0  0  0  0  0  0  0  0
   -0.0375    3.8234  -10.3861 H   0  0  0  0  0  0  0  0  0  0  0  0
   -0.5832    2.1850  -10.1715 H   0  0  0  0  0  0  0  0  0  0  0  0
    0.4889    4.6026   -6.7663 H   0  0  0  0  0  0  0  0  0  0  0  0
    0.6650    5.2368   -8.3693 H   0  0  0  0  0  0  0  0  0  0  0  0
   -4.9270   -0.4691   -3.6728 H   0  0  0  0  0  0  0  0  0  0  0  0
   -4.9932    0.4075   -5.2202 H   0  0  0  0  0  0  0  0  0  0  0  0
   -3.5251   -0.2962   -4.7081 H   0  0  0  0  0  0  0  0  0  0  0  0
   -2.1710    4.8522   -7.2116 H   0  0  0  0  0  0  0  0  0  0  0  0
   -1.1880    6.2715   -6.8658 H   0  0  0  0  0  0  0  0  0  0  0  0
   -1.6366    5.9061   -8.5041 H   0  0  0  0  0  0  0  0  0  0  0  0
   -2.2487    4.7113   -9.8382 H   0  0  0  0  0  0  0  0  0  0  0  0
   -2.4830    3.4187  -10.9506 H   0  0  0  0  0  0  0  0  0  0  0  0
   -2.8009    3.1444   -9.2252 H   0  0  0  0  0  0  0  0  0  0  0  0
  1 24  1  6  0  0  0
  2  6  2  0  0  0  0
  3  2  1  0  0  0  0
  4  1  1  0  0  0  0
  4 34  1  1  0  0  0
  5  1  1  0  0  0  0
  5 11  1  0  0  0  0
  5 35  1  1  0  0  0
  5 21  1  0  0  0  0
  6  9  1  0  0  0  0
  6 36  1  0  0  0  0
  7  3  1  0  0  0  0
  7 23  1  0  0  0  0
  7 12  1  0  0  0  0
  7 37  1  6  0  0  0
  8  4  1  0  0  0  0
  8 27  1  0  0  0  0
  9  8  2  0  0  0  0
  9 38  1  0  0  0  0
 10  4  1  0  0  0  0
 10 11  1  0  0  0  0
 10 39  1  0  0  0  0
 10 40  1  0  0  0  0
 11 41  1  0  0  0  0
 11 42  1  0  0  0  0
 12 14  1  0  0  0  0
 12 43  1  0  0  0  0
 12 44  1  0  0  0  0
 13  2  1  0  0  0  0
 13 45  1  0  0  0  0
 13 46  1  0  0  0  0
 14 13  1  0  0  0  0
 14 26  1  0  0  0  0
 14 47  1  1  0  0  0
 15  3  2  0  0  0  0
 15 48  1  0  0  0  0
 15 49  1  0  0  0  0
 16 17  1  0  0  0  0
 16 50  1  0  0  0  0
 17 20  2  0  0  0  0
 17 51  1  0  0  0  0
 18 16  2  0  0  0  0
 18 52  1  0  0  0  0
 19 18  1  0  0  0  0
 20 21  1  0  0  0  0
 20 53  1  0  0  0  0
 21 31  1  0  0  0  0
 21 54  1  1  0  0  0
 22  1  1  0  0  0  0
 22 55  1  0  0  0  0
 22 56  1  0  0  0  0
 23 57  1  0  0  0  0
 24 58  1  0  0  0  0
 24 59  1  0  0  0  0
 24 60  1  0  0  0  0
 25 19  1  0  0  0  0
 25 61  1  0  0  0  0
 26 62  1  0  0  0  0
 27 28  1  0  0  0  0
 27 63  1  0  0  0  0
 27 64  1  0  0  0  0
 28 22  1  0  0  0  0
 28 65  1  0  0  0  0
 28 66  1  0  0  0  0
 29 19  1  0  0  0  0
 29 67  1  0  0  0  0
 29 68  1  0  0  0  0
 30 19  1  0  0  0  0
 30 69  1  0  0  0  0
 30 70  1  0  0  0  0
 31 71  1  0  0  0  0
 31 72  1  0  0  0  0
 31 73  1  0  0  0  0
 32 30  1  0  0  0  0
 32 74  1  0  0  0  0
 32 75  1  0  0  0  0
 32 76  1  0  0  0  0
 33 29  1  0  0  0  0
 33 77  1  0  0  0  0
 33 78  1  0  0  0  0
 33 79  1  0  0  0  0
M  END
>  <DRUGBANK_ID>
DB04258

>  <SECONDARY_ACCESSION_NUMBERS>
EXPT01322

>  <COMMON_NAME>
Seocalcitol

>  <CAS_NUMBER>
134404-52-7

>  <UNII>
Q0OZ0D9223

>  <SYNONYMS>
(5Z,7E,22E,24E)-(1S,3R)-26,27-dimethyl-24a-homo-9,10-seco-5,7,10(19),22,24-cholestapentaene-1,3,25-triol; Seocalcitol

$$$$
