
 OpenBabel10282417203D

 39 42  0  0  0  0  0  0  0  0999 V2000
    1.0152   -0.0263    0.1041 C   0  0  0  0  0  0  0  0  0  0  0  0
    0.5564   -0.9939    1.1738 C   0  0  0  0  0  0  0  0  0  0  0  0
    1.1085   -0.5336    2.8053 S   0  0  0  0  0  0  0  0  0  0  0  0
    0.6842    0.8302    3.0517 O   0  0  0  0  0  0  0  0  0  0  0  0
    0.7242   -1.5954    3.7195 O   0  0  0  0  0  0  0  0  0  0  0  0
    2.8994   -0.5363    2.7444 C   0  0  0  0  0  0  0  0  0  0  0  0
    3.6015    0.6810    2.7648 C   0  0  0  0  0  0  0  0  0  0  0  0
    5.0096    0.7104    2.7862 C   0  0  0  0  0  0  0  0  0  0  0  0
    5.6509   -0.5278    2.7964 C   0  0  0  0  0  0  0  0  0  0  0  0
    4.9834   -1.7432    2.7683 C   0  0  0  0  0  0  0  0  0  0  0  0
    3.5788   -1.7657    2.7557 C   0  0  0  0  0  0  0  0  0  0  0  0
    5.8899   -2.7707    2.7537 N   0  0  0  0  0  0  0  0  0  0  0  0
    7.0650   -2.1693    2.8154 C   0  0  0  0  0  0  0  0  0  0  0  0
    6.9991   -0.7933    2.8416 O   0  0  0  0  0  0  0  0  0  0  0  0
    8.3886   -2.7938    2.8224 C   0  0  0  0  0  0  0  0  0  0  0  0
    9.2881   -2.6042    3.8769 C   0  0  0  0  0  0  0  0  0  0  0  0
   10.4972   -3.3157    3.9191 C   0  0  0  0  0  0  0  0  0  0  0  0
   10.8322   -4.2403    2.9155 C   0  0  0  0  0  0  0  0  0  0  0  0
   12.0230   -4.9891    2.9694 C   0  0  0  0  0  0  0  0  0  0  0  0
   12.3414   -5.9051    1.9650 C   0  0  0  0  0  0  0  0  0  0  0  0
   11.4732   -6.0854    0.8936 C   0  0  0  0  0  0  0  0  0  0  0  0
   10.2846   -5.3525    0.8278 C   0  0  0  0  0  0  0  0  0  0  0  0
    9.9441   -4.4285    1.8342 C   0  0  0  0  0  0  0  0  0  0  0  0
    8.7352   -3.7000    1.8040 C   0  0  0  0  0  0  0  0  0  0  0  0
    0.6574    0.9873    0.3113 H   0  0  0  0  0  0  0  0  0  0  0  0
    0.6324   -0.3263   -0.8762 H   0  0  0  0  0  0  0  0  0  0  0  0
    2.1063    0.0061    0.0457 H   0  0  0  0  0  0  0  0  0  0  0  0
   -0.5398   -1.0167    1.2061 H   0  0  0  0  0  0  0  0  0  0  0  0
    0.9037   -2.0102    0.9666 H   0  0  0  0  0  0  0  0  0  0  0  0
    3.0567    1.6258    2.7791 H   0  0  0  0  0  0  0  0  0  0  0  0
    5.5614    1.6435    2.8050 H   0  0  0  0  0  0  0  0  0  0  0  0
    3.0560   -2.7157    2.7743 H   0  0  0  0  0  0  0  0  0  0  0  0
    9.0424   -1.9362    4.6995 H   0  0  0  0  0  0  0  0  0  0  0  0
   11.1740   -3.1578    4.7571 H   0  0  0  0  0  0  0  0  0  0  0  0
   12.7111   -4.8699    3.8037 H   0  0  0  0  0  0  0  0  0  0  0  0
   13.2651   -6.4765    2.0210 H   0  0  0  0  0  0  0  0  0  0  0  0
   11.7177   -6.7998    0.1110 H   0  0  0  0  0  0  0  0  0  0  0  0
    9.6200   -5.5143   -0.0182 H   0  0  0  0  0  0  0  0  0  0  0  0
    8.0377   -3.8567    0.9823 H   0  0  0  0  0  0  0  0  0  0  0  0
  1  2  1  0  0  0  0
  1 25  1  0  0  0  0
  1 26  1  0  0  0  0
  1 27  1  0  0  0  0
  2  3  1  0  0  0  0
  2 28  1  0  0  0  0
  2 29  1  0  0  0  0
  3  4  2  0  0  0  0
  3  5  2  0  0  0  0
  3  6  1  0  0  0  0
  6  7  2  0  0  0  0
  6 11  1  0  0  0  0
  7  8  1  0  0  0  0
  7 30  1  0  0  0  0
  8  9  2  0  0  0  0
  8 31  1  0  0  0  0
  9 10  1  0  0  0  0
  9 14  1  0  0  0  0
 10 11  2  0  0  0  0
 10 12  1  0  0  0  0
 11 32  1  0  0  0  0
 12 13  2  0  0  0  0
 13 14  1  0  0  0  0
 13 15  1  0  0  0  0
 15 16  2  0  0  0  0
 15 24  1  0  0  0  0
 16 17  1  0  0  0  0
 16 33  1  0  0  0  0
 17 18  2  0  0  0  0
 17 34  1  0  0  0  0
 18 19  1  0  0  0  0
 18 23  1  0  0  0  0
 19 20  2  0  0  0  0
 19 35  1  0  0  0  0
 20 21  1  0  0  0  0
 20 36  1  0  0  0  0
 21 22  2  0  0  0  0
 21 37  1  0  0  0  0
 22 23  1  0  0  0  0
 22 38  1  0  0  0  0
 23 24  2  0  0  0  0
 24 39  1  0  0  0  0
M  END
>  <DRUGBANK_ID>
DB12888

>  <COMMON_NAME>
Ezutromid

>  <CAS_NUMBER>
945531-77-1

>  <UNII>
645R07LF0D

>  <SYNONYMS>
5-(Ethylsulfonyl)-2-(naphthalen-2-yl)benzo(d)oxazole; Benzoxazole, 5-(ethylsulfonyl)-2-(2-naphthalenyl)-; Ezutromid

$$$$
