
 OpenBabel10282417123D

 25 25  0  0  1  0  0  0  0  0999 V2000
    1.1123    0.0220   -0.0893 C   0  0  0  0  0  0  0  0  0  0  0  0
    0.4719   -1.3175   -0.5612 C   0  0  2  0  0  0  0  0  0  0  0  0
   -0.2604   -2.1574    0.5085 C   0  0  1  0  0  0  0  0  0  0  0  0
    0.2606   -3.5664    0.7895 C   0  0  1  0  0  0  0  0  0  0  0  0
    1.0838   -4.2219   -0.2919 C   0  0  2  0  0  0  0  0  0  0  0  0
    1.6489   -3.2969   -1.3610 C   0  0  0  0  0  0  0  0  0  0  0  0
    1.4071   -2.0389   -1.4581 N   0  0  0  0  0  0  0  0  0  0  0  0
    2.4695   -3.9648   -2.2517 N   0  0  0  0  0  0  0  0  0  0  0  0
    0.7488    0.4647    1.2156 O   0  0  0  0  0  0  0  0  0  0  0  0
   -0.3632   -1.5144    1.7867 O   0  0  0  0  0  0  0  0  0  0  0  0
    1.0623   -3.5979    1.9915 O   0  0  0  0  0  0  0  0  0  0  0  0
    0.4015   -5.3332   -0.8708 O   0  0  0  0  0  0  0  0  0  0  0  0
    2.9407   -3.2782   -3.3594 O   0  0  0  0  0  0  0  0  0  0  0  0
   -0.3244   -1.0013   -1.2539 H   0  0  0  0  0  0  0  0  0  0  0  0
   -1.2956   -2.2510    0.1544 H   0  0  0  0  0  0  0  0  0  0  0  0
   -0.6160   -4.1852    1.0186 H   0  0  0  0  0  0  0  0  0  0  0  0
    1.9744   -4.6562    0.1824 H   0  0  0  0  0  0  0  0  0  0  0  0
    0.7936    0.8245   -0.7640 H   0  0  0  0  0  0  0  0  0  0  0  0
    2.2031   -0.0230   -0.1192 H   0  0  0  0  0  0  0  0  0  0  0  0
    2.6696   -4.9605   -2.1753 H   0  0  0  0  0  0  0  0  0  0  0  0
    1.0405   -0.2320    1.8421 H   0  0  0  0  0  0  0  0  0  0  0  0
   -0.7510   -0.6278    1.6382 H   0  0  0  0  0  0  0  0  0  0  0  0
    1.6248   -2.8065    1.9791 H   0  0  0  0  0  0  0  0  0  0  0  0
    0.1205   -5.0900   -1.7690 H   0  0  0  0  0  0  0  0  0  0  0  0
    2.6001   -2.3692   -3.2302 H   0  0  0  0  0  0  0  0  0  0  0  0
  1 18  1  0  0  0  0
  1 19  1  0  0  0  0
  2  1  1  0  0  0  0
  2 14  1  6  0  0  0
  3  2  1  0  0  0  0
  3 15  1  6  0  0  0
  3 10  1  0  0  0  0
  4  3  1  0  0  0  0
  4 11  1  0  0  0  0
  4 16  1  1  0  0  0
  5  4  1  0  0  0  0
  5 17  1  1  0  0  0
  5 12  1  0  0  0  0
  6  5  1  0  0  0  0
  7  2  1  0  0  0  0
  7  6  2  0  0  0  0
  8  6  1  0  0  0  0
  8 20  1  0  0  0  0
  9  1  1  0  0  0  0
  9 21  1  0  0  0  0
 10 22  1  0  0  0  0
 11 23  1  0  0  0  0
 12 24  1  0  0  0  0
 13  8  1  0  0  0  0
 13 25  1  0  0  0  0
M  END
>  <DRUGBANK_ID>
DB02525

>  <SECONDARY_ACCESSION_NUMBERS>
EXPT01656

>  <COMMON_NAME>
D-galactohydroximo-1,5-lactam

$$$$
