
 OpenBabel10282417143D

 59 59  0  0  0  0  0  0  0  0999 V2000
    0.8311   -0.1130   -0.1200 S   0  0  0  0  0  0  0  0  0  0  0  0
    5.1225    0.0486    2.3965 O   0  0  0  0  0  0  0  0  0  0  0  0
    1.4939    3.0565    5.9673 O   0  0  0  0  0  0  0  0  0  0  0  0
    3.8136    4.8549    0.7868 O   0  0  0  0  0  0  0  0  0  0  0  0
    6.6867    0.9344    5.2719 N   0  0  0  0  0  0  0  0  0  0  0  0
    3.9757    0.6000    4.2716 N   0  0  0  0  0  0  0  0  0  0  0  0
    8.8411    0.1401    4.8278 N   0  0  0  0  0  0  0  0  0  0  0  0
    7.8139   -0.2352    6.8090 N   0  0  0  0  0  0  0  0  0  0  0  0
    2.3394    3.7842    4.0699 N   0  0  0  0  0  0  0  0  0  0  0  0
    2.6462    2.9678    1.0247 N   0  0  0  0  0  0  0  0  0  0  0  0
    6.6937    3.1838    4.0810 C   0  0  0  0  0  0  0  0  0  0  0  0
    6.5888    4.2402    2.7519 C   0  0  0  0  0  0  0  0  0  0  0  0
    6.8820    4.0770    5.3369 C   0  0  0  0  0  0  0  0  0  0  0  0
    5.8283    5.6271    2.8464 C   0  0  0  0  0  0  0  0  0  0  0  0
    5.8429    5.2534    5.3984 C   0  0  0  0  0  0  0  0  0  0  0  0
    5.8980    6.2400    4.2242 C   0  0  0  0  0  0  0  0  0  0  0  0
    6.5581    1.4802    3.9311 C   0  0  2  0  0  0  0  0  0  0  0  0
    5.1761    0.6132    3.5053 C   0  0  0  0  0  0  0  0  0  0  0  0
    7.7631    0.2859    5.5866 C   0  0  0  0  0  0  0  0  0  0  0  0
    3.4445    1.5655    5.3215 C   0  0  0  0  0  0  0  0  0  0  0  0
    2.3473    2.8429    5.0957 C   0  0  0  0  0  0  0  0  0  0  0  0
    3.3497    4.0761    3.0740 C   0  0  2  0  0  0  0  0  0  0  0  0
    3.2057    4.1037    1.5479 C   0  0  0  0  0  0  0  0  0  0  0  0
    4.2978    2.9968    3.1139 C   0  0  0  0  0  0  0  0  0  0  0  0
    2.1623    1.8470    1.8134 C   0  0  0  0  0  0  0  0  0  0  0  0
    0.6957    1.7874    1.8763 C   0  0  0  0  0  0  0  0  0  0  0  0
    0.2315    1.5102    0.4870 C   0  0  0  0  0  0  0  0  0  0  0  0
    3.2335    0.1444    3.7466 H   0  0  0  0  0  0  0  0  0  0  0  0
    9.6383   -0.4090    5.1044 H   0  0  0  0  0  0  0  0  0  0  0  0
    8.8653    0.5155    3.8911 H   0  0  0  0  0  0  0  0  0  0  0  0
    6.9541   -0.2108    7.3466 H   0  0  0  0  0  0  0  0  0  0  0  0
    8.5483   -0.8486    7.1225 H   0  0  0  0  0  0  0  0  0  0  0  0
    1.8035    4.6181    4.2825 H   0  0  0  0  0  0  0  0  0  0  0  0
    2.7859    2.8746    0.0248 H   0  0  0  0  0  0  0  0  0  0  0  0
    2.1658    0.0873   -0.0180 H   0  0  0  0  0  0  0  0  0  0  0  0
    5.8197    3.0039    4.6323 H   0  0  0  0  0  0  0  0  0  0  0  0
    7.6144    4.5299    2.5308 H   0  0  0  0  0  0  0  0  0  0  0  0
    6.3120    3.7774    1.7887 H   0  0  0  0  0  0  0  0  0  0  0  0
    6.7154    3.4840    6.2522 H   0  0  0  0  0  0  0  0  0  0  0  0
    7.8864    4.4778    5.3641 H   0  0  0  0  0  0  0  0  0  0  0  0
    6.1459    6.2858    2.0248 H   0  0  0  0  0  0  0  0  0  0  0  0
    4.7848    5.7381    2.5537 H   0  0  0  0  0  0  0  0  0  0  0  0
    6.0406    5.8303    6.3055 H   0  0  0  0  0  0  0  0  0  0  0  0
    4.8138    4.8787    5.5525 H   0  0  0  0  0  0  0  0  0  0  0  0
    6.8331    6.7913    4.2508 H   0  0  0  0  0  0  0  0  0  0  0  0
    5.0779    6.9696    4.3455 H   0  0  0  0  0  0  0  0  0  0  0  0
    7.2856    1.1533    3.1754 H   0  0  0  0  0  0  0  0  0  0  0  0
    4.3143    1.9746    5.8435 H   0  0  0  0  0  0  0  0  0  0  0  0
    2.9331    0.9221    6.0427 H   0  0  0  0  0  0  0  0  0  0  0  0
    3.8132    4.8976    3.5805 H   0  0  0  0  0  0  0  0  0  0  0  0
    5.0971    2.8109    2.4292 H   0  0  0  0  0  0  0  0  0  0  0  0
    4.4396    2.9980    4.1519 H   0  0  0  0  0  0  0  0  0  0  0  0
    3.8811    2.0730    2.8935 H   0  0  0  0  0  0  0  0  0  0  0  0
    2.2703    1.9548    2.8730 H   0  0  0  0  0  0  0  0  0  0  0  0
    2.7388    0.9487    1.5766 H   0  0  0  0  0  0  0  0  0  0  0  0
    0.3466    2.7582    2.2632 H   0  0  0  0  0  0  0  0  0  0  0  0
    0.4137    1.0342    2.6232 H   0  0  0  0  0  0  0  0  0  0  0  0
    0.6024    2.2983   -0.1784 H   0  0  0  0  0  0  0  0  0  0  0  0
   -0.8507    1.5410    0.4984 H   0  0  0  0  0  0  0  0  0  0  0  0
  1 27  1  0  0  0  0
  1 35  1  0  0  0  0
  2 18  2  0  0  0  0
  3 21  2  0  0  0  0
  4 23  2  0  0  0  0
  5 19  2  0  0  0  0
  6 18  1  0  0  0  0
  6 20  1  0  0  0  0
  6 28  1  0  0  0  0
  7 19  1  0  0  0  0
  7 29  1  0  0  0  0
  7 30  1  0  0  0  0
  8 19  1  0  0  0  0
  8 31  1  0  0  0  0
  8 32  1  0  0  0  0
  9 21  1  0  0  0  0
  9 33  1  0  0  0  0
 10 23  1  0  0  0  0
 10 25  1  0  0  0  0
 10 34  1  0  0  0  0
 11 12  1  0  0  0  0
 11 13  1  0  0  0  0
 11 36  1  0  0  0  0
 12 14  1  0  0  0  0
 12 37  1  0  0  0  0
 12 38  1  0  0  0  0
 13 15  1  0  0  0  0
 13 39  1  0  0  0  0
 13 40  1  0  0  0  0
 14 16  1  0  0  0  0
 14 41  1  0  0  0  0
 14 42  1  0  0  0  0
 15 16  1  0  0  0  0
 15 43  1  0  0  0  0
 15 44  1  0  0  0  0
 16 45  1  0  0  0  0
 16 46  1  0  0  0  0
 17 18  1  0  0  0  0
 17 47  1  6  0  0  0
 17 11  1  0  0  0  0
 17  5  1  0  0  0  0
 20 21  1  0  0  0  0
 20 48  1  0  0  0  0
 20 49  1  0  0  0  0
 22  9  1  0  0  0  0
 22 23  1  0  0  0  0
 22 24  1  0  0  0  0
 22 50  1  1  0  0  0
 24 51  1  0  0  0  0
 24 52  1  0  0  0  0
 24 53  1  0  0  0  0
 25 26  1  0  0  0  0
 25 54  1  0  0  0  0
 25 55  1  0  0  0  0
 26 27  1  0  0  0  0
 26 56  1  0  0  0  0
 26 57  1  0  0  0  0
 27 58  1  0  0  0  0
 27 59  1  0  0  0  0
M  END
>  <DRUGBANK_ID>
DB04278

>  <SECONDARY_ACCESSION_NUMBERS>
EXPT02368

>  <COMMON_NAME>
2-[2-(2-Cyclohexyl-2-guanidino-acetylamino)-acetylamino]-N-(3-mercapto-propyl)-propionamide

>  <SYNONYMS>
N-{(2R)-2-Cyclohexyl-2-[(diaminomethylene)amino]acetyl}glycyl-N-(3-sulfanylpropyl)-L-alaninamide

$$$$
