
 OpenBabel10282417233D

 32 33  0  0  0  0  0  0  0  0999 V2000
    0.9790    0.0403   -0.0188 C   0  0  0  0  0  0  0  0  0  0  0  0
    0.4378   -0.6264   -1.2806 C   0  0  0  0  0  0  0  0  0  0  0  0
    0.8993   -2.0804   -1.4412 C   0  0  0  0  0  0  0  0  0  0  0  0
    0.4472   -3.0138   -0.3689 C   0  0  0  0  0  0  0  0  0  0  0  0
   -0.2389   -2.6276    0.7091 N   0  0  0  0  0  0  0  0  0  0  0  0
   -0.3053   -3.7664    1.4879 O   0  0  0  0  0  0  0  0  0  0  0  0
    0.2915   -4.7871    0.7803 C   0  0  0  0  0  0  0  0  0  0  0  0
    0.3774   -6.1238    1.2546 C   0  0  0  0  0  0  0  0  0  0  0  0
   -0.0432   -6.4919    2.4720 C   0  0  0  0  0  0  0  0  0  0  0  0
    0.0563   -7.8865    2.9337 C   0  0  0  0  0  0  0  0  0  0  0  0
    1.2389   -8.6257    2.7595 C   0  0  0  0  0  0  0  0  0  0  0  0
    1.2977   -9.9512    3.1836 C   0  0  0  0  0  0  0  0  0  0  0  0
    2.4217  -10.7121    3.0140 O   0  0  0  0  0  0  0  0  0  0  0  0
    0.1960  -10.5423    3.7937 C   0  0  0  0  0  0  0  0  0  0  0  0
    0.2464  -11.8412    4.2118 O   0  0  0  0  0  0  0  0  0  0  0  0
   -0.9722   -9.8216    3.9908 C   0  0  0  0  0  0  0  0  0  0  0  0
   -1.0398   -8.4891    3.5697 C   0  0  0  0  0  0  0  0  0  0  0  0
    0.7640   -4.3475   -0.3751 N   0  0  0  0  0  0  0  0  0  0  0  0
    0.6433   -0.4508    0.8967 H   0  0  0  0  0  0  0  0  0  0  0  0
    0.6330    1.0749    0.0456 H   0  0  0  0  0  0  0  0  0  0  0  0
    2.0725    0.0295   -0.0136 H   0  0  0  0  0  0  0  0  0  0  0  0
   -0.6580   -0.5782   -1.2876 H   0  0  0  0  0  0  0  0  0  0  0  0
    0.7827   -0.0477   -2.1471 H   0  0  0  0  0  0  0  0  0  0  0  0
    0.5432   -2.4564   -2.4095 H   0  0  0  0  0  0  0  0  0  0  0  0
    1.9958   -2.1016   -1.4885 H   0  0  0  0  0  0  0  0  0  0  0  0
    0.8013   -6.8408    0.5593 H   0  0  0  0  0  0  0  0  0  0  0  0
   -0.4960   -5.7846    3.1676 H   0  0  0  0  0  0  0  0  0  0  0  0
    2.1028   -8.1604    2.2949 H   0  0  0  0  0  0  0  0  0  0  0  0
    3.0944  -10.1697    2.5666 H   0  0  0  0  0  0  0  0  0  0  0  0
    1.1479  -12.1463    3.9905 H   0  0  0  0  0  0  0  0  0  0  0  0
   -1.8260  -10.2972    4.4639 H   0  0  0  0  0  0  0  0  0  0  0  0
   -1.9647   -7.9380    3.7278 H   0  0  0  0  0  0  0  0  0  0  0  0
  1  2  1  0  0  0  0
  1 19  1  0  0  0  0
  1 20  1  0  0  0  0
  1 21  1  0  0  0  0
  2  3  1  0  0  0  0
  2 22  1  0  0  0  0
  2 23  1  0  0  0  0
  3  4  1  0  0  0  0
  3 24  1  0  0  0  0
  3 25  1  0  0  0  0
  4  5  2  0  0  0  0
  4 18  1  0  0  0  0
  5  6  1  0  0  0  0
  6  7  1  0  0  0  0
  7  8  1  0  0  0  0
  7 18  2  0  0  0  0
  8  9  2  0  0  0  0
  8 26  1  0  0  0  0
  9 10  1  0  0  0  0
  9 27  1  0  0  0  0
 10 11  2  0  0  0  0
 10 17  1  0  0  0  0
 11 12  1  0  0  0  0
 11 28  1  0  0  0  0
 12 13  1  0  0  0  0
 12 14  2  0  0  0  0
 13 29  1  0  0  0  0
 14 15  1  0  0  0  0
 14 16  1  0  0  0  0
 15 30  1  0  0  0  0
 16 17  2  0  0  0  0
 16 31  1  0  0  0  0
 17 32  1  0  0  0  0
M  END
>  <DRUGBANK_ID>
DB17138

>  <COMMON_NAME>
4-(2-(3-Propyl-(1,2,4)oxadiazol-5-yl)-vinyl)-benzene-1,2-diol

>  <CAS_NUMBER>
1332498-21-1

>  <UNII>
ZGL5E40F57

$$$$
