
 OpenBabel10282417143D

 31 32  0  0  1  0  0  0  0  0999 V2000
    0.3898    1.2161   -1.9406 C   0  0  0  0  0  0  0  0  0  0  0  0
    0.5978    1.3365   -0.4205 C   0  0  1  0  0  0  0  0  0  0  0  0
    1.3366    2.5536   -0.3196 O   0  0  0  0  0  0  0  0  0  0  0  0
    1.6998    2.8941    1.0132 C   0  0  0  0  0  0  0  0  0  0  0  0
    0.4606    3.0030    1.8879 C   0  0  1  0  0  0  0  0  0  0  0  0
   -0.1964    4.2276    1.5779 O   0  0  0  0  0  0  0  0  0  0  0  0
   -1.6021    4.2841    1.4357 C   0  0  1  0  0  0  0  0  0  0  0  0
   -1.8683    4.5918    0.0739 O   0  0  0  0  0  0  0  0  0  0  0  0
   -2.4796    3.0774    1.8560 C   0  0  2  0  0  0  0  0  0  0  0  0
   -3.5520    3.4763    2.7288 O   0  0  0  0  0  0  0  0  0  0  0  0
   -1.6647    1.9652    2.4989 C   0  0  1  0  0  0  0  0  0  0  0  0
   -2.3939    0.7350    2.5687 O   0  0  0  0  0  0  0  0  0  0  0  0
   -0.3847    1.7479    1.6990 C   0  0  1  0  0  0  0  0  0  0  0  0
   -0.6518    1.4831    0.2877 O   0  0  0  0  0  0  0  0  0  0  0  0
    1.3562    0.0258    0.0286 C   0  0  0  0  0  0  0  0  0  0  0  0
    0.6203   -1.1132    0.0661 O   0  0  0  0  0  0  0  0  0  0  0  0
    2.5277    0.0167    0.4002 O   0  0  0  0  0  0  0  0  0  0  0  0
    1.3714    1.1366   -2.4317 H   0  0  0  0  0  0  0  0  0  0  0  0
   -0.0806    2.1132   -2.3648 H   0  0  0  0  0  0  0  0  0  0  0  0
   -0.2049    0.3494   -2.2396 H   0  0  0  0  0  0  0  0  0  0  0  0
    2.3931    2.1505    1.4130 H   0  0  0  0  0  0  0  0  0  0  0  0
    2.2356    3.8473    0.9714 H   0  0  0  0  0  0  0  0  0  0  0  0
    0.7780    3.0903    2.9337 H   0  0  0  0  0  0  0  0  0  0  0  0
   -1.9115    5.1668    2.0052 H   0  0  0  0  0  0  0  0  0  0  0  0
   -1.5873    3.8045   -0.4224 H   0  0  0  0  0  0  0  0  0  0  0  0
   -2.9950    2.6740    0.9767 H   0  0  0  0  0  0  0  0  0  0  0  0
   -3.2340    4.1763    3.3248 H   0  0  0  0  0  0  0  0  0  0  0  0
   -1.4290    2.2298    3.5383 H   0  0  0  0  0  0  0  0  0  0  0  0
   -2.7151    0.5314    1.6740 H   0  0  0  0  0  0  0  0  0  0  0  0
    0.1276    0.8690    2.1060 H   0  0  0  0  0  0  0  0  0  0  0  0
   -0.3196   -1.0592   -0.1940 H   0  0  0  0  0  0  0  0  0  0  0  0
  1 18  1  0  0  0  0
  1 19  1  0  0  0  0
  1 20  1  0  0  0  0
  2  3  1  0  0  0  0
  2 14  1  0  0  0  0
  2 15  1  1  0  0  0
  2  1  1  0  0  0  0
  3  4  1  0  0  0  0
  4  5  1  0  0  0  0
  4 21  1  0  0  0  0
  4 22  1  0  0  0  0
  5  6  1  0  0  0  0
  5 13  1  0  0  0  0
  5 23  1  1  0  0  0
  6  7  1  0  0  0  0
  7  8  1  0  0  0  0
  7  9  1  0  0  0  0
  7 24  1  1  0  0  0
  8 25  1  0  0  0  0
  9 11  1  0  0  0  0
  9 26  1  6  0  0  0
  9 10  1  0  0  0  0
 10 27  1  0  0  0  0
 11 12  1  0  0  0  0
 11 13  1  0  0  0  0
 11 28  1  1  0  0  0
 12 29  1  0  0  0  0
 13 14  1  0  0  0  0
 13 30  1  1  0  0  0
 15 16  1  0  0  0  0
 15 17  2  0  0  0  0
 16 31  1  0  0  0  0
M  END
>  <DRUGBANK_ID>
DB04386

>  <SECONDARY_ACCESSION_NUMBERS>
EXPT00886

>  <COMMON_NAME>
4,6-O-(1-Carboxyethylidene)-Beta-D-Glucose

$$$$
