
 OpenBabel10282417133D

 26 27  0  0  1  0  0  0  0  0999 V2000
    0.9688    0.1784   -0.0287 C   0  0  0  0  0  0  0  0  0  0  0  0
    3.8199    5.1424   -3.1429 C   0  0  0  0  0  0  0  0  0  0  0  0
    2.6454    4.1740   -2.9328 C   0  0  2  0  0  0  0  0  0  0  0  0
    1.8274    4.3959   -0.6139 C   0  0  2  0  0  0  0  0  0  0  0  0
    1.3071    4.9312   -2.9342 C   0  0  2  0  0  0  0  0  0  0  0  0
    1.1594    5.4641   -1.4999 C   0  0  2  0  0  0  0  0  0  0  0  0
    2.6954    3.5389   -1.5320 C   0  0  1  0  0  0  0  0  0  0  0  0
    1.0740    2.3491   -0.6290 C   0  0  0  0  0  0  0  0  0  0  0  0
    0.3341    1.2353   -0.3918 N   0  0  0  0  0  0  0  0  0  0  0  0
    0.8261    3.4734   -0.0553 N   0  0  0  0  0  0  0  0  0  0  0  0
    4.4399    4.8973   -4.3971 O   0  0  0  0  0  0  0  0  0  0  0  0
    0.2585    4.0102   -3.2283 O   0  0  0  0  0  0  0  0  0  0  0  0
    1.7476    6.7558   -1.3396 O   0  0  0  0  0  0  0  0  0  0  0  0
    2.1000    2.2415   -1.5091 O   0  0  0  0  0  0  0  0  0  0  0  0
    2.6409    3.3909   -3.7004 H   0  0  0  0  0  0  0  0  0  0  0  0
    2.4126    4.8461    0.1940 H   0  0  0  0  0  0  0  0  0  0  0  0
    1.2811    5.7163   -3.6961 H   0  0  0  0  0  0  0  0  0  0  0  0
    0.1049    5.5850   -1.2339 H   0  0  0  0  0  0  0  0  0  0  0  0
    3.7201    3.4301   -1.1604 H   0  0  0  0  0  0  0  0  0  0  0  0
    0.4007   -0.7329    0.2261 H   0  0  0  0  0  0  0  0  0  0  0  0
    2.0666    0.1129    0.0694 H   0  0  0  0  0  0  0  0  0  0  0  0
    3.5117    6.1905   -3.1703 H   0  0  0  0  0  0  0  0  0  0  0  0
    4.5868    5.0463   -2.3677 H   0  0  0  0  0  0  0  0  0  0  0  0
    4.5858    3.9396   -4.4818 H   0  0  0  0  0  0  0  0  0  0  0  0
   -0.5865    4.4641   -3.0528 H   0  0  0  0  0  0  0  0  0  0  0  0
    2.7087    6.7273   -1.4557 H   0  0  0  0  0  0  0  0  0  0  0  0
  1 20  1  0  0  0  0
  1 21  1  0  0  0  0
  2 22  1  0  0  0  0
  2 23  1  0  0  0  0
  3 15  1  6  0  0  0
  3  2  1  0  0  0  0
  4 16  1  1  0  0  0
  5  3  1  0  0  0  0
  5 17  1  6  0  0  0
  5 12  1  0  0  0  0
  6  4  1  0  0  0  0
  6  5  1  0  0  0  0
  6 13  1  0  0  0  0
  6 18  1  1  0  0  0
  7  3  1  0  0  0  0
  7  4  1  0  0  0  0
  7 19  1  1  0  0  0
  9  1  2  0  0  0  0
  9  8  1  0  0  0  0
 10  4  1  0  0  0  0
 10  8  2  0  0  0  0
 11  2  1  0  0  0  0
 11 24  1  0  0  0  0
 12 25  1  0  0  0  0
 13 26  1  0  0  0  0
 14  7  1  0  0  0  0
 14  8  1  0  0  0  0
M  END
>  <DRUGBANK_ID>
DB03539

>  <SECONDARY_ACCESSION_NUMBERS>
EXPT02280

>  <COMMON_NAME>
2-(Acetylamino)-2-Deoxy-6-O-Methyl-Alpha-D-Allopyranose

$$$$
