
 OpenBabel10282417183D

 64 66  0  0  0  0  0  0  0  0999 V2000
    0.8927    0.4500    0.4640 C   0  0  0  0  0  0  0  0  0  0  0  0
    1.1942   -0.8790    0.6239 C   0  0  0  0  0  0  0  0  0  0  0  0
   -0.0895   -1.8593    0.3177 C   0  0  3  0  0  0  0  0  0  0  0  0
   -1.4821   -1.0800    0.2767 C   0  0  0  0  0  0  0  0  0  0  0  0
   -1.4661    0.2508    0.0546 C   0  0  0  0  0  0  0  0  0  0  0  0
   -0.2697    0.8377   -0.1304 N   0  0  0  0  0  0  0  0  0  0  0  0
   -0.0729   -3.0797    1.2315 C   0  0  0  0  0  0  0  0  0  0  0  0
   -0.8438   -4.2084    0.9467 C   0  0  0  0  0  0  0  0  0  0  0  0
   -0.9475   -5.2336    1.8703 C   0  0  0  0  0  0  0  0  0  0  0  0
    0.0531   -5.3745    2.8150 C   0  0  0  0  0  0  0  0  0  0  0  0
    1.0442   -4.4117    2.8827 C   0  0  0  0  0  0  0  0  0  0  0  0
    0.8234   -3.1845    2.2950 C   0  0  0  0  0  0  0  0  0  0  0  0
    2.3539   -4.7060    3.4661 N   0  3  0  0  0  0  0  0  0  0  0  0
   -2.7791   -1.7521    0.4677 C   0  0  0  0  0  0  0  0  0  0  0  0
   -2.9276   -2.9757    0.5746 O   0  0  0  0  0  0  0  0  0  0  0  0
   -3.8499   -0.9499    0.5304 O   0  0  0  0  0  0  0  0  0  0  0  0
   -5.0790   -1.6060    0.8510 C   0  0  0  0  0  0  0  0  0  0  0  0
   -5.4850   -2.5328   -0.2505 C   0  0  0  0  0  0  0  0  0  0  0  0
   -5.6329   -3.8551   -0.0645 C   0  0  0  0  0  0  0  0  0  0  0  0
   -2.5218    1.3191    0.0693 C   0  0  0  0  0  0  0  0  0  0  0  0
    1.7016    1.6842    0.4838 C   0  0  0  0  0  0  0  0  0  0  0  0
    2.6355   -1.6912    0.7339 C   0  0  0  0  0  0  0  0  0  0  0  0
    3.8785   -1.1253    0.6955 O   0  0  0  0  0  0  0  0  0  0  0  0
    2.6611   -2.9121    0.5227 O   0  0  0  0  0  0  0  0  0  0  0  0
    4.1673    0.2144    0.3374 C   0  0  0  0  0  0  0  0  0  0  0  0
    3.8385    0.6274   -1.2482 C   0  0  0  0  0  0  0  0  0  0  0  0
    2.5795    0.3524   -1.9409 O   0  0  0  0  0  0  0  0  0  0  0  0
    3.2622   -3.8698    3.3336 O   0  0  0  0  0  0  0  0  0  0  0  0
    2.4842   -5.7950    4.0401 O   0  5  0  0  0  0  0  0  0  0  0  0
   -5.8752   -4.7592   -1.1849 C   0  0  0  0  0  0  0  0  0  0  0  0
   -5.0939   -4.6601   -2.3431 C   0  0  0  0  0  0  0  0  0  0  0  0
    2.2797   -1.0179   -2.0618 C   0  0  0  0  0  0  0  0  0  0  0  0
   -6.8595   -5.7467   -1.1023 C   0  0  0  0  0  0  0  0  0  0  0  0
   -7.0604   -6.6189   -2.1743 C   0  0  0  0  0  0  0  0  0  0  0  0
   -6.3314   -6.4598   -3.3535 C   0  0  0  0  0  0  0  0  0  0  0  0
   -5.3378   -5.4885   -3.4337 C   0  0  0  0  0  0  0  0  0  0  0  0
    0.0441   -2.2618   -0.7024 H   0  0  0  0  0  0  0  0  0  0  0  0
   -0.2950    1.7975   -0.4761 H   0  0  0  0  0  0  0  0  0  0  0  0
   -1.4663   -4.2652    0.0542 H   0  0  0  0  0  0  0  0  0  0  0  0
   -1.7687   -5.9367    1.7918 H   0  0  0  0  0  0  0  0  0  0  0  0
    0.0737   -6.2370    3.4635 H   0  0  0  0  0  0  0  0  0  0  0  0
    1.5008   -2.3825    2.5541 H   0  0  0  0  0  0  0  0  0  0  0  0
   -4.9659   -2.1084    1.8190 H   0  0  0  0  0  0  0  0  0  0  0  0
   -5.8364   -0.8287    0.9617 H   0  0  0  0  0  0  0  0  0  0  0  0
   -5.5526   -2.1034   -1.2463 H   0  0  0  0  0  0  0  0  0  0  0  0
   -5.4805   -4.3072    0.9136 H   0  0  0  0  0  0  0  0  0  0  0  0
   -2.2765    1.9851    0.9086 H   0  0  0  0  0  0  0  0  0  0  0  0
   -2.4898    1.9075   -0.8544 H   0  0  0  0  0  0  0  0  0  0  0  0
   -3.5455    1.0219    0.2141 H   0  0  0  0  0  0  0  0  0  0  0  0
    1.6056    2.3398   -0.3925 H   0  0  0  0  0  0  0  0  0  0  0  0
    1.8962    2.2115    1.4103 H   0  0  0  0  0  0  0  0  0  0  0  0
    2.5753    1.2557    0.2058 H   0  0  0  0  0  0  0  0  0  0  0  0
    3.7398    0.7404    1.2123 H   0  0  0  0  0  0  0  0  0  0  0  0
    5.2099    0.4982    0.5215 H   0  0  0  0  0  0  0  0  0  0  0  0
    3.8898    1.7273   -1.2992 H   0  0  0  0  0  0  0  0  0  0  0  0
    4.6042    0.2165   -1.8948 H   0  0  0  0  0  0  0  0  0  0  0  0
   -4.2968   -3.9227   -2.4023 H   0  0  0  0  0  0  0  0  0  0  0  0
    2.9908   -1.6699   -2.5570 H   0  0  0  0  0  0  0  0  0  0  0  0
    2.4668   -1.3298   -1.0995 H   0  0  0  0  0  0  0  0  0  0  0  0
    1.2179   -1.2715   -2.1736 H   0  0  0  0  0  0  0  0  0  0  0  0
   -7.4887   -5.8303   -0.2193 H   0  0  0  0  0  0  0  0  0  0  0  0
   -7.7895   -7.4204   -2.0947 H   0  0  0  0  0  0  0  0  0  0  0  0
   -6.5380   -7.0930   -4.2114 H   0  0  0  0  0  0  0  0  0  0  0  0
   -4.7469   -5.3743   -4.3373 H   0  0  0  0  0  0  0  0  0  0  0  0
  1 21  1  0  0  0  0
  1  2  2  0  0  0  0
  2 22  1  0  0  0  0
  2  3  1  0  0  0  0
  3  4  1  0  0  0  0
  3  7  1  0  0  0  0
  3 37  1  0  0  0  0
  4  5  2  0  0  0  0
  4 14  1  0  0  0  0
  5  6  1  0  0  0  0
  5 20  1  0  0  0  0
  6  1  1  0  0  0  0
  6 38  1  0  0  0  0
  7  8  2  0  0  0  0
  8  9  1  0  0  0  0
  8 39  1  0  0  0  0
  9 10  2  0  0  0  0
  9 40  1  0  0  0  0
 10 11  1  0  0  0  0
 10 41  1  0  0  0  0
 11 12  2  0  0  0  0
 11 13  1  0  0  0  0
 12  7  1  0  0  0  0
 12 42  1  0  0  0  0
 13 28  2  0  0  0  0
 13 29  1  0  0  0  0
 14 15  2  0  0  0  0
 14 16  1  0  0  0  0
 16 17  1  0  0  0  0
 17 18  1  0  0  0  0
 17 43  1  0  0  0  0
 17 44  1  0  0  0  0
 18 19  2  0  0  0  0
 18 45  1  0  0  0  0
 19 30  1  0  0  0  0
 19 46  1  0  0  0  0
 20 47  1  0  0  0  0
 20 48  1  0  0  0  0
 20 49  1  0  0  0  0
 21 50  1  0  0  0  0
 21 51  1  0  0  0  0
 21 52  1  0  0  0  0
 22 23  1  0  0  0  0
 22 24  2  0  0  0  0
 23 25  1  0  0  0  0
 25 26  1  0  0  0  0
 25 53  1  0  0  0  0
 25 54  1  0  0  0  0
 26 27  1  0  0  0  0
 26 55  1  0  0  0  0
 26 56  1  0  0  0  0
 27 32  1  0  0  0  0
 30 33  2  0  0  0  0
 31 30  1  0  0  0  0
 31 36  2  0  0  0  0
 31 57  1  0  0  0  0
 32 58  1  0  0  0  0
 32 59  1  0  0  0  0
 32 60  1  0  0  0  0
 33 34  1  0  0  0  0
 33 61  1  0  0  0  0
 34 35  2  0  0  0  0
 34 62  1  0  0  0  0
 35 36  1  0  0  0  0
 35 63  1  0  0  0  0
 36 64  1  0  0  0  0
M  CHG  2  13   1  29  -1
M  END
>  <DRUGBANK_ID>
DB09232

>  <COMMON_NAME>
Cilnidipine

>  <CAS_NUMBER>
132203-70-4

>  <UNII>
97T5AZ1JIP

>  <SYNONYMS>
Cilnidipine

$$$$
