547
 OpenBabel10282417163D

 56 60  0  0  0  0  0  0  0  0999 V2000
   -1.9108   -0.8606    0.0320 C   0  0  0  0  0  0  0  0  0  0  0  0
   -0.7305   -1.5176    0.0239 N   0  0  0  0  0  0  0  0  0  0  0  0
    0.3527   -0.6990    0.0495 C   0  0  0  0  0  0  0  0  0  0  0  0
    0.3546    0.6911    0.0744 C   0  0  0  0  0  0  0  0  0  0  0  0
   -0.9292    1.3112   -0.0521 C   0  0  0  0  0  0  0  0  0  0  0  0
   -2.0681    0.4991    0.0016 C   0  0  0  0  0  0  0  0  0  0  0  0
    1.6480   -1.1649    0.0105 O   0  0  0  0  0  0  0  0  0  0  0  0
    2.4679   -0.0868    0.0782 C   0  0  0  0  0  0  0  0  0  0  0  0
    1.7478    1.0984    0.1439 C   0  0  0  0  0  0  0  0  0  0  0  0
    2.4650    2.3939    0.2119 C   0  0  0  0  0  0  0  0  0  0  0  0
    2.2709    3.2293    1.3268 C   0  0  0  0  0  0  0  0  0  0  0  0
    2.5536    4.6014    1.2443 C   0  0  0  0  0  0  0  0  0  0  0  0
    3.0150    5.1561    0.0503 C   0  0  0  0  0  0  0  0  0  0  0  0
    3.2670    4.3270   -1.0453 C   0  0  0  0  0  0  0  0  0  0  0  0
    3.0705    2.9421   -0.9441 C   0  0  0  0  0  0  0  0  0  0  0  0
    3.9019   -0.2291    0.0873 C   0  0  0  0  0  0  0  0  0  0  0  0
    4.6123    0.3860    1.1357 C   0  0  0  0  0  0  0  0  0  0  0  0
    5.9779    0.5936    1.0542 C   0  0  0  0  0  0  0  0  0  0  0  0
    6.6417    0.2755   -0.1276 C   0  0  0  0  0  0  0  0  0  0  0  0
    5.9359   -0.2754   -1.2012 C   0  0  0  0  0  0  0  0  0  0  0  0
    4.5863   -0.6011   -1.0752 C   0  0  0  0  0  0  0  0  0  0  0  0
   -1.1702    2.6071   -0.4746 N   0  0  0  0  0  0  0  0  0  0  0  0
   -0.0573    3.5145   -0.4616 C   0  0  0  0  0  0  0  0  0  0  0  0
   -0.1801    4.7120   -1.3613 C   0  0  0  0  0  0  0  0  0  0  0  0
   -1.4209    5.4196   -1.0855 N   0  0  0  0  0  0  0  0  0  0  0  0
   -1.8511    5.3515    0.3249 C   0  0  0  0  0  0  0  0  0  0  0  0
   -1.0509    6.2334    1.2778 C   0  0  0  0  0  0  0  0  0  0  0  0
   -1.3485    7.6158    0.9304 N   0  0  0  0  0  0  0  0  0  0  0  0
   -0.8391    7.8353   -0.4419 C   0  0  0  0  0  0  0  0  0  0  0  0
   -1.3600    6.8260   -1.5088 C   0  0  0  0  0  0  0  0  0  0  0  0
   -2.8072   -1.4830    0.0180 H   0  0  0  0  0  0  0  0  0  0  0  0
   -3.0566    0.9510   -0.0542 H   0  0  0  0  0  0  0  0  0  0  0  0
    1.6951    2.8636    2.1746 H   0  0  0  0  0  0  0  0  0  0  0  0
    2.2535    5.2618    2.0571 H   0  0  0  0  0  0  0  0  0  0  0  0
    3.0780    6.2380   -0.0575 H   0  0  0  0  0  0  0  0  0  0  0  0
    3.4860    4.7750   -2.0146 H   0  0  0  0  0  0  0  0  0  0  0  0
    3.2201    2.3320   -1.8347 H   0  0  0  0  0  0  0  0  0  0  0  0
    4.0690    0.8093    1.9834 H   0  0  0  0  0  0  0  0  0  0  0  0
    6.5043    1.0581    1.8828 H   0  0  0  0  0  0  0  0  0  0  0  0
    7.7030    0.4781   -0.2160 H   0  0  0  0  0  0  0  0  0  0  0  0
    6.4373   -0.4151   -2.1571 H   0  0  0  0  0  0  0  0  0  0  0  0
    4.0499   -1.0458   -1.9085 H   0  0  0  0  0  0  0  0  0  0  0  0
   -2.0842    2.9942   -0.2737 H   0  0  0  0  0  0  0  0  0  0  0  0
    0.1431    3.8285    0.5673 H   0  0  0  0  0  0  0  0  0  0  0  0
    0.7356    2.9876   -0.9331 H   0  0  0  0  0  0  0  0  0  0  0  0
    0.7096    5.3444   -1.2513 H   0  0  0  0  0  0  0  0  0  0  0  0
   -0.1330    4.3210   -2.3889 H   0  0  0  0  0  0  0  0  0  0  0  0
   -2.9184    5.5820    0.3125 H   0  0  0  0  0  0  0  0  0  0  0  0
   -1.8443    4.3792    0.8105 H   0  0  0  0  0  0  0  0  0  0  0  0
    0.0297    6.0461    1.2299 H   0  0  0  0  0  0  0  0  0  0  0  0
   -1.3516    5.9923    2.3027 H   0  0  0  0  0  0  0  0  0  0  0  0
   -2.3690    7.6795    0.8895 H   0  0  0  0  0  0  0  0  0  0  0  0
    0.2572    7.8141   -0.4064 H   0  0  0  0  0  0  0  0  0  0  0  0
   -1.1392    8.8425   -0.7393 H   0  0  0  0  0  0  0  0  0  0  0  0
   -0.8125    6.9585   -2.4535 H   0  0  0  0  0  0  0  0  0  0  0  0
   -2.3991    7.0834   -1.7294 H   0  0  0  0  0  0  0  0  0  0  0  0
  1  2  2  0  0  0  0
  1  6  1  0  0  0  0
  1 31  1  0  0  0  0
  2  3  1  0  0  0  0
  3  7  1  0  0  0  0
  3  4  2  0  0  0  0
  4  9  1  0  0  0  0
  4  5  1  0  0  0  0
  5  6  2  0  0  0  0
  5 22  1  0  0  0  0
  6 32  1  0  0  0  0
  7  8  1  0  0  0  0
  8 16  1  0  0  0  0
  8  9  2  0  0  0  0
  9 10  1  0  0  0  0
 10 11  2  0  0  0  0
 10 15  1  0  0  0  0
 11 12  1  0  0  0  0
 11 33  1  0  0  0  0
 12 13  2  0  0  0  0
 12 34  1  0  0  0  0
 13 14  1  0  0  0  0
 13 35  1  0  0  0  0
 14 15  2  0  0  0  0
 14 36  1  0  0  0  0
 15 37  1  0  0  0  0
 16 17  1  0  0  0  0
 16 21  2  0  0  0  0
 17 18  2  0  0  0  0
 17 38  1  0  0  0  0
 18 19  1  0  0  0  0
 18 39  1  0  0  0  0
 19 20  2  0  0  0  0
 19 40  1  0  0  0  0
 20 21  1  0  0  0  0
 20 41  1  0  0  0  0
 21 42  1  0  0  0  0
 22 23  1  0  0  0  0
 22 43  1  0  0  0  0
 23 24  1  0  0  0  0
 23 44  1  0  0  0  0
 23 45  1  0  0  0  0
 24 25  1  0  0  0  0
 24 46  1  0  0  0  0
 24 47  1  0  0  0  0
 25 30  1  0  0  0  0
 25 26  1  0  0  0  0
 26 27  1  0  0  0  0
 26 48  1  0  0  0  0
 26 49  1  0  0  0  0
 27 28  1  0  0  0  0
 27 50  1  0  0  0  0
 27 51  1  0  0  0  0
 28 29  1  0  0  0  0
 28 52  1  0  0  0  0
 29 30  1  0  0  0  0
 29 53  1  0  0  0  0
 29 54  1  0  0  0  0
 30 55  1  0  0  0  0
 30 56  1  0  0  0  0
M  END
>  <DRUGBANK_ID>
DB07146

>  <COMMON_NAME>
2,3-DIPHENYL-N-(2-PIPERAZIN-1-YLETHYL)FURO[2,3-B]PYRIDIN-4-AMINE

$$$$
