
 OpenBabel10282417153D

 51 54  0  0  0  0  0  0  0  0999 V2000
   -1.3663   -0.0241   -0.0022 N   0  0  0  0  0  0  0  0  0  0  0  0
   -0.7628    1.1970   -0.0084 C   0  0  0  0  0  0  0  0  0  0  0  0
   -1.5699    2.3303    0.0693 N   0  0  0  0  0  0  0  0  0  0  0  0
   -3.0182    2.2229    0.0155 C   0  0  0  0  0  0  0  0  0  0  0  0
   -3.5238    2.9892    1.2092 C   0  0  0  0  0  0  0  0  0  0  0  0
   -3.3187    4.3711    1.3233 C   0  0  0  0  0  0  0  0  0  0  0  0
   -3.6831    4.9980    2.5026 C   0  0  0  0  0  0  0  0  0  0  0  0
   -4.2312    4.3541    3.5540 N   0  0  0  0  0  0  0  0  0  0  0  0
   -4.4222    3.0235    3.4196 C   0  0  0  0  0  0  0  0  0  0  0  0
   -4.0932    2.3062    2.2832 C   0  0  0  0  0  0  0  0  0  0  0  0
    0.6399    1.3240    0.0003 C   0  0  0  0  0  0  0  0  0  0  0  0
    1.3981    0.1321   -0.0067 C   0  0  0  0  0  0  0  0  0  0  0  0
    0.7787   -1.1152   -0.0064 C   0  0  0  0  0  0  0  0  0  0  0  0
   -0.5983   -1.1402   -0.0011 C   0  0  0  0  0  0  0  0  0  0  0  0
    1.4081    2.6294   -0.0140 C   0  0  0  0  0  0  0  0  0  0  0  0
    0.7215    3.8382    0.0889 N   0  0  0  0  0  0  0  0  0  0  0  0
    1.3288    5.1243    0.0603 C   0  0  0  0  0  0  0  0  0  0  0  0
    2.4133    5.4437   -0.7718 C   0  0  0  0  0  0  0  0  0  0  0  0
    2.9838    6.7347   -0.7596 C   0  0  0  0  0  0  0  0  0  0  0  0
    2.4734    7.6965    0.1074 C   0  0  0  0  0  0  0  0  0  0  0  0
    1.3836    7.3784    0.9209 C   0  0  0  0  0  0  0  0  0  0  0  0
    0.7874    6.1216    0.8797 C   0  0  0  0  0  0  0  0  0  0  0  0
    0.8961    8.4742    1.6271 N   0  0  0  0  0  0  0  0  0  0  0  0
    1.8716    9.5568    1.4759 C   0  0  0  0  0  0  0  0  0  0  0  0
    2.9188    9.1245    0.3806 C   0  0  0  0  0  0  0  0  0  0  0  0
    2.8944   10.0472   -0.8489 C   0  0  0  0  0  0  0  0  0  0  0  0
    4.3573    9.1979    0.9235 C   0  0  0  0  0  0  0  0  0  0  0  0
    2.6438    2.5641   -0.0703 O   0  0  0  0  0  0  0  0  0  0  0  0
   -1.2631    3.0430   -0.5791 H   0  0  0  0  0  0  0  0  0  0  0  0
   -3.3744    2.7118   -0.9005 H   0  0  0  0  0  0  0  0  0  0  0  0
   -3.4253    1.2039   -0.0053 H   0  0  0  0  0  0  0  0  0  0  0  0
   -2.8520    4.9444    0.5289 H   0  0  0  0  0  0  0  0  0  0  0  0
   -3.5277    6.0640    2.6414 H   0  0  0  0  0  0  0  0  0  0  0  0
   -4.8495    2.5248    4.2839 H   0  0  0  0  0  0  0  0  0  0  0  0
   -4.2450    1.2324    2.2472 H   0  0  0  0  0  0  0  0  0  0  0  0
    2.4865    0.1708   -0.0054 H   0  0  0  0  0  0  0  0  0  0  0  0
    1.3549   -2.0358   -0.0051 H   0  0  0  0  0  0  0  0  0  0  0  0
   -1.1385   -2.0850    0.0125 H   0  0  0  0  0  0  0  0  0  0  0  0
   -0.1731    3.8034    0.5669 H   0  0  0  0  0  0  0  0  0  0  0  0
    2.8064    4.6959   -1.4576 H   0  0  0  0  0  0  0  0  0  0  0  0
    3.8138    6.9558   -1.4234 H   0  0  0  0  0  0  0  0  0  0  0  0
   -0.0583    5.9114    1.5248 H   0  0  0  0  0  0  0  0  0  0  0  0
    0.3418    8.3534    2.4649 H   0  0  0  0  0  0  0  0  0  0  0  0
    1.3107   10.4522    1.1870 H   0  0  0  0  0  0  0  0  0  0  0  0
    2.3519    9.7748    2.4398 H   0  0  0  0  0  0  0  0  0  0  0  0
    3.1857   11.0703   -0.5703 H   0  0  0  0  0  0  0  0  0  0  0  0
    3.6231    9.7121   -1.5983 H   0  0  0  0  0  0  0  0  0  0  0  0
    1.9161   10.0986   -1.3322 H   0  0  0  0  0  0  0  0  0  0  0  0
    4.4844    8.6523    1.8622 H   0  0  0  0  0  0  0  0  0  0  0  0
    5.0690    8.7878    0.1961 H   0  0  0  0  0  0  0  0  0  0  0  0
    4.6524   10.2414    1.1008 H   0  0  0  0  0  0  0  0  0  0  0  0
  2  1  1  0  0  0  0
  3  2  1  0  0  0  0
  3 29  1  0  0  0  0
  4  3  1  0  0  0  0
  4 30  1  0  0  0  0
  4 31  1  0  0  0  0
  5  4  1  0  0  0  0
  6  5  1  0  0  0  0
  6 32  1  0  0  0  0
  7  6  2  0  0  0  0
  7 33  1  0  0  0  0
  8  7  1  0  0  0  0
  9  8  2  0  0  0  0
  9 34  1  0  0  0  0
 10  5  2  0  0  0  0
 10  9  1  0  0  0  0
 10 35  1  0  0  0  0
 11  2  2  0  0  0  0
 12 11  1  0  0  0  0
 12 36  1  0  0  0  0
 13 12  2  0  0  0  0
 13 37  1  0  0  0  0
 14  1  2  0  0  0  0
 14 13  1  0  0  0  0
 14 38  1  0  0  0  0
 15 11  1  0  0  0  0
 16 15  1  0  0  0  0
 16 39  1  0  0  0  0
 17 16  1  0  0  0  0
 18 17  2  0  0  0  0
 18 40  1  0  0  0  0
 19 18  1  0  0  0  0
 19 41  1  0  0  0  0
 20 19  2  0  0  0  0
 21 20  1  0  0  0  0
 22 17  1  0  0  0  0
 22 21  2  0  0  0  0
 22 42  1  0  0  0  0
 23 21  1  0  0  0  0
 23 43  1  0  0  0  0
 24 23  1  0  0  0  0
 24 44  1  0  0  0  0
 24 45  1  0  0  0  0
 25 20  1  0  0  0  0
 25 24  1  0  0  0  0
 26 25  1  0  0  0  0
 26 46  1  0  0  0  0
 26 47  1  0  0  0  0
 26 48  1  0  0  0  0
 27 25  1  0  0  0  0
 27 49  1  0  0  0  0
 27 50  1  0  0  0  0
 27 51  1  0  0  0  0
 28 15  2  0  0  0  0
M  END
>  <DRUGBANK_ID>
DB05575

>  <COMMON_NAME>
Motesanib

>  <CAS_NUMBER>
453562-69-1

>  <UNII>
U1JK633AYI

>  <SYNONYMS>
Motesanib

$$$$
