
 OpenBabel10282417133D

 22 22  0  0  1  0  0  0  0  0999 V2000
    0.9583    0.0996    0.0130 C   0  0  0  0  0  0  0  0  0  0  0  0
    0.5388   -2.0228    1.3116 C   0  0  0  0  0  0  0  0  0  0  0  0
    0.4570   -0.4979    1.3236 C   0  0  2  0  0  0  0  0  0  0  0  0
   -0.6777   -2.4483    2.1123 C   0  0  2  0  0  0  0  0  0  0  0  0
   -1.0260   -0.1967    1.5989 C   0  0  2  0  0  0  0  0  0  0  0  0
   -1.1954    0.6647    2.8571 C   0  0  0  0  0  0  0  0  0  0  0  0
   -1.1047   -3.7814    1.7974 N   0  0  0  0  0  0  0  0  0  0  0  0
   -1.7199   -1.5170    1.7298 N   0  0  0  0  0  0  0  0  0  0  0  0
   -1.6520    1.8015    2.8824 O   0  0  0  0  0  0  0  0  0  0  0  0
   -0.7426    0.0965    3.9943 O   0  0  0  0  0  0  0  0  0  0  0  0
    1.0856   -0.1112    2.1362 H   0  0  0  0  0  0  0  0  0  0  0  0
   -0.4801   -2.3784    3.1857 H   0  0  0  0  0  0  0  0  0  0  0  0
   -1.4859    0.3643    0.7760 H   0  0  0  0  0  0  0  0  0  0  0  0
    0.6475    1.1436   -0.0925 H   0  0  0  0  0  0  0  0  0  0  0  0
    0.5821   -0.4533   -0.8545 H   0  0  0  0  0  0  0  0  0  0  0  0
    2.0526    0.0685   -0.0217 H   0  0  0  0  0  0  0  0  0  0  0  0
    0.5016   -2.4114    0.2853 H   0  0  0  0  0  0  0  0  0  0  0  0
    1.4674   -2.3829    1.7665 H   0  0  0  0  0  0  0  0  0  0  0  0
   -1.9501   -3.9925    2.3212 H   0  0  0  0  0  0  0  0  0  0  0  0
   -1.3184   -3.8913    0.8124 H   0  0  0  0  0  0  0  0  0  0  0  0
   -2.0615   -1.7656    0.8049 H   0  0  0  0  0  0  0  0  0  0  0  0
   -0.9284    0.7571    4.6937 H   0  0  0  0  0  0  0  0  0  0  0  0
  1 14  1  0  0  0  0
  1 15  1  0  0  0  0
  1 16  1  0  0  0  0
  2 17  1  0  0  0  0
  2 18  1  0  0  0  0
  3  1  1  0  0  0  0
  3  2  1  0  0  0  0
  3 11  1  1  0  0  0
  4  2  1  0  0  0  0
  4  7  1  0  0  0  0
  4 12  1  1  0  0  0
  5  3  1  0  0  0  0
  5  6  1  0  0  0  0
  5 13  1  6  0  0  0
  7 19  1  0  0  0  0
  7 20  1  0  0  0  0
  8  4  1  0  0  0  0
  8  5  1  0  0  0  0
  8 21  1  0  0  0  0
  9  6  2  0  0  0  0
 10  6  1  0  0  0  0
 10 22  1  0  0  0  0
M  END
>  <DRUGBANK_ID>
DB03184

>  <SECONDARY_ACCESSION_NUMBERS>
EXPT03249

>  <COMMON_NAME>
5-Amino-3-Methyl-Pyrrolidine-2-Carboxylic Acid

$$$$
