
 OpenBabel10282417183D

 57 58  0  0  0  0  0  0  0  0999 V2000
   -1.3925   -2.4400   -2.3500 C   0  0  1  0  0  0  0  0  0  0  0  0
   -0.5183   -1.3175   -2.3682 O   0  0  0  0  0  0  0  0  0  0  0  0
    0.2675   -1.3016   -3.6022 C   0  0  1  0  0  0  0  0  0  0  0  0
    1.1129   -2.5889   -3.6552 C   0  0  1  0  0  0  0  0  0  0  0  0
    0.2158   -3.8297   -3.6174 C   0  0  2  0  0  0  0  0  0  0  0  0
   -0.6501   -3.8010   -2.3517 C   0  0  1  0  0  0  0  0  0  0  0  0
   -5.3316   -2.1969   -3.5985 C   0  0  2  0  0  0  0  0  0  0  0  0
   -6.2056   -2.8586   -4.6178 C   0  0  0  0  0  0  0  0  0  0  0  0
   -5.9265   -4.3653   -4.5620 C   0  0  0  0  0  0  0  0  0  0  0  0
   -4.5222   -4.7000   -4.8401 N   0  0  0  0  0  0  0  0  0  0  0  0
   -3.5871   -3.9930   -3.9345 C   0  0  1  0  0  0  0  0  0  0  0  0
   -3.9261   -2.5233   -4.0725 C   0  0  0  0  0  0  0  0  0  0  0  0
   -3.6192   -4.4968   -2.4604 C   0  0  0  0  0  0  0  0  0  0  0  0
   -3.3112   -3.6378   -1.4039 N   0  0  0  0  0  0  0  0  0  0  0  0
   -2.6197   -2.2859   -1.3728 C   0  0  2  0  0  0  0  0  0  0  0  0
   -0.7866   -0.8028   -5.0995 S   0  0  0  0  0  0  0  0  0  0  0  0
   -5.7188   -2.7107   -2.1649 C   0  0  0  0  0  0  0  0  0  0  0  0
   -7.1375   -2.5305   -1.7287 C   0  0  0  0  0  0  0  0  0  0  0  0
    0.1143   -3.9912   -1.1764 O   0  0  0  0  0  0  0  0  0  0  0  0
    0.9327   -5.0462   -3.7477 O   0  0  0  0  0  0  0  0  0  0  0  0
    2.0376   -2.5722   -4.7283 O   0  0  0  0  0  0  0  0  0  0  0  0
   -3.9435   -5.6819   -2.1923 O   0  0  0  0  0  0  0  0  0  0  0  0
   -3.3747   -0.6983   -1.5504 C   0  0  2  0  0  0  0  0  0  0  0  0
   -2.8464    0.1945   -0.4592 C   0  0  0  0  0  0  0  0  0  0  0  0
   -5.1258   -0.1067   -1.3553 Cl  0  0  0  0  0  0  0  0  0  0  0  0
   -2.2093   -2.2487   -0.3562 H   0  0  0  0  0  0  0  0  0  0  0  0
   -1.7668   -2.4533   -3.3509 H   0  0  0  0  0  0  0  0  0  0  0  0
   -0.6123   -2.1001   -6.3902 C   0  0  0  0  0  0  0  0  0  0  0  0
    0.9377   -0.4463   -3.4808 H   0  0  0  0  0  0  0  0  0  0  0  0
    1.7234   -2.6280   -2.7463 H   0  0  0  0  0  0  0  0  0  0  0  0
   -0.4620   -3.8443   -4.4609 H   0  0  0  0  0  0  0  0  0  0  0  0
   -1.3024   -4.6724   -2.4359 H   0  0  0  0  0  0  0  0  0  0  0  0
   -5.4196   -1.1079   -3.6908 H   0  0  0  0  0  0  0  0  0  0  0  0
   -7.2402   -2.6038   -4.3900 H   0  0  0  0  0  0  0  0  0  0  0  0
   -5.9777   -2.4412   -5.6065 H   0  0  0  0  0  0  0  0  0  0  0  0
   -6.1777   -4.7727   -3.5801 H   0  0  0  0  0  0  0  0  0  0  0  0
   -6.5831   -4.8646   -5.2674 H   0  0  0  0  0  0  0  0  0  0  0  0
   -4.3839   -5.7049   -4.7270 H   0  0  0  0  0  0  0  0  0  0  0  0
   -2.5857   -4.2162   -4.3153 H   0  0  0  0  0  0  0  0  0  0  0  0
   -3.6957   -2.1784   -5.0906 H   0  0  0  0  0  0  0  0  0  0  0  0
   -3.3268   -1.8677   -3.5028 H   0  0  0  0  0  0  0  0  0  0  0  0
   -3.4006   -4.1200   -0.5098 H   0  0  0  0  0  0  0  0  0  0  0  0
   -5.5868   -3.7731   -2.0395 H   0  0  0  0  0  0  0  0  0  0  0  0
   -5.0959   -2.3474   -1.3558 H   0  0  0  0  0  0  0  0  0  0  0  0
   -7.7432   -3.2452   -2.2801 H   0  0  0  0  0  0  0  0  0  0  0  0
   -7.1883   -2.7815   -0.6630 H   0  0  0  0  0  0  0  0  0  0  0  0
   -7.4925   -1.5146   -1.8821 H   0  0  0  0  0  0  0  0  0  0  0  0
    0.4910   -3.1290   -0.9353 H   0  0  0  0  0  0  0  0  0  0  0  0
    1.3584   -5.2145   -2.8900 H   0  0  0  0  0  0  0  0  0  0  0  0
    1.5472   -2.6935   -5.5514 H   0  0  0  0  0  0  0  0  0  0  0  0
   -3.1026   -0.2839   -2.5259 H   0  0  0  0  0  0  0  0  0  0  0  0
   -3.1330   -0.2500    0.5007 H   0  0  0  0  0  0  0  0  0  0  0  0
   -1.7801    0.3288   -0.5544 H   0  0  0  0  0  0  0  0  0  0  0  0
   -3.3070    1.1943   -0.5097 H   0  0  0  0  0  0  0  0  0  0  0  0
    0.3653   -2.0553   -6.8724 H   0  0  0  0  0  0  0  0  0  0  0  0
   -0.8265   -3.1204   -6.0788 H   0  0  0  0  0  0  0  0  0  0  0  0
   -1.3488   -1.9120   -7.1781 H   0  0  0  0  0  0  0  0  0  0  0  0
  1  2  1  0  0  0  0
  1  6  1  0  0  0  0
  1 27  1  6  0  0  0
  2  3  1  0  0  0  0
  3  4  1  0  0  0  0
  3 29  1  1  0  0  0
  3 16  1  0  0  0  0
  4  5  1  0  0  0  0
  4 21  1  0  0  0  0
  4 30  1  1  0  0  0
  5 20  1  0  0  0  0
  5  6  1  0  0  0  0
  5 31  1  6  0  0  0
  6 19  1  0  0  0  0
  6 32  1  6  0  0  0
  7 12  1  0  0  0  0
  7  8  1  0  0  0  0
  7 33  1  6  0  0  0
  7 17  1  0  0  0  0
  8  9  1  0  0  0  0
  8 34  1  0  0  0  0
  8 35  1  0  0  0  0
  9 10  1  0  0  0  0
  9 36  1  0  0  0  0
  9 37  1  0  0  0  0
 10 11  1  0  0  0  0
 10 38  1  0  0  0  0
 11 12  1  0  0  0  0
 11 13  1  0  0  0  0
 11 39  1  6  0  0  0
 12 40  1  0  0  0  0
 12 41  1  0  0  0  0
 13 14  1  0  0  0  0
 13 22  2  0  0  0  0
 14 42  1  0  0  0  0
 15 26  1  1  0  0  0
 15  1  1  0  0  0  0
 15 14  1  0  0  0  0
 16 28  1  0  0  0  0
 17 18  1  0  0  0  0
 17 43  1  0  0  0  0
 17 44  1  0  0  0  0
 18 45  1  0  0  0  0
 18 46  1  0  0  0  0
 18 47  1  0  0  0  0
 19 48  1  0  0  0  0
 20 49  1  0  0  0  0
 21 50  1  0  0  0  0
 23 25  1  0  0  0  0
 23 51  1  6  0  0  0
 23 24  1  0  0  0  0
 23 15  1  0  0  0  0
 24 52  1  0  0  0  0
 24 53  1  0  0  0  0
 24 54  1  0  0  0  0
 28 55  1  0  0  0  0
 28 56  1  0  0  0  0
 28 57  1  0  0  0  0
M  END
>  <DRUGBANK_ID>
DB11537

>  <COMMON_NAME>
Pirlimycin

>  <CAS_NUMBER>
79548-73-5

>  <UNII>
LM19JT6G5K

>  <SYNONYMS>
Pirlimycin; Pirlimycina; Pirlimycine; Pirlimycinum

$$$$
