
 OpenBabel10282417123D

 17 17  0  0  0  0  0  0  0  0999 V2000
    0.9674   -0.0837   -0.0988 O   0  0  0  0  0  0  0  0  0  0  0  0
    0.6520    0.5162    1.1279 N   0  0  0  0  0  0  0  0  0  0  0  0
    1.5342    0.8814    2.1032 C   0  0  0  0  0  0  0  0  0  0  0  0
    1.1310    1.2865    3.1968 O   0  0  0  0  0  0  0  0  0  0  0  0
    2.9949    0.8230    1.8569 C   0  0  0  0  0  0  0  0  0  0  0  0
    3.5322    1.2706    0.6442 C   0  0  0  0  0  0  0  0  0  0  0  0
    4.9100    1.2515    0.4376 C   0  0  0  0  0  0  0  0  0  0  0  0
    5.7615    0.8540    1.4664 C   0  0  0  0  0  0  0  0  0  0  0  0
    5.2361    0.4635    2.6990 C   0  0  0  0  0  0  0  0  0  0  0  0
    3.8523    0.4084    2.8846 C   0  0  0  0  0  0  0  0  0  0  0  0
    1.9056   -0.3316   -0.0436 H   0  0  0  0  0  0  0  0  0  0  0  0
   -0.3380    0.5614    1.3527 H   0  0  0  0  0  0  0  0  0  0  0  0
    2.8845    1.6510   -0.1417 H   0  0  0  0  0  0  0  0  0  0  0  0
    5.3176    1.5771   -0.5158 H   0  0  0  0  0  0  0  0  0  0  0  0
    6.8378    0.8645    1.3120 H   0  0  0  0  0  0  0  0  0  0  0  0
    5.9077    0.2187    3.5189 H   0  0  0  0  0  0  0  0  0  0  0  0
    3.4500    0.0578    3.8337 H   0  0  0  0  0  0  0  0  0  0  0  0
  1  2  1  0  0  0  0
  1 11  1  0  0  0  0
  2  3  1  0  0  0  0
  2 12  1  0  0  0  0
  3  4  2  0  0  0  0
  3  5  1  0  0  0  0
  5  6  2  0  0  0  0
  5 10  1  0  0  0  0
  6  7  1  0  0  0  0
  6 13  1  0  0  0  0
  7  8  2  0  0  0  0
  7 14  1  0  0  0  0
  8  9  1  0  0  0  0
  8 15  1  0  0  0  0
  9 10  2  0  0  0  0
  9 16  1  0  0  0  0
 10 17  1  0  0  0  0
M  END
>  <DRUGBANK_ID>
DB01924

>  <SECONDARY_ACCESSION_NUMBERS>
EXPT00700

>  <COMMON_NAME>
Benzhydroxamic Acid

>  <CAS_NUMBER>
495-18-1

>  <UNII>
K8YW73872D

$$$$
