
 OpenBabel10282417233D

 48 51  0  0  0  0  0  0  0  0999 V2000
    0.8549    0.0074    0.0103 C   0  0  0  0  0  0  0  0  0  0  0  0
    0.2667   -1.3482   -0.1330 C   0  0  0  0  0  0  0  0  0  0  0  0
    0.5676   -2.4813    0.6097 C   0  0  0  0  0  0  0  0  0  0  0  0
   -0.0825   -3.5497   -0.0211 C   0  0  0  0  0  0  0  0  0  0  0  0
    0.2392   -4.8948   -0.0108 O   0  0  0  0  0  0  0  0  0  0  0  0
    1.5711   -5.3259    0.5144 C   0  0  0  0  0  0  0  0  0  0  0  0
    3.0078   -4.8539   -0.1222 C   0  0  0  0  0  0  0  0  0  0  0  0
    2.8419   -3.5273   -0.6579 N   0  0  0  0  0  0  0  0  0  0  0  0
    1.9587   -3.6737   -1.8091 C   0  0  0  0  0  0  0  0  0  0  0  0
    2.5676   -3.8542   -3.1429 C   0  0  0  0  0  0  0  0  0  0  0  0
    3.2285   -2.6368   -3.4290 O   0  0  0  0  0  0  0  0  0  0  0  0
    4.2381   -2.3812   -2.4307 C   0  0  0  0  0  0  0  0  0  0  0  0
    3.7755   -2.4523   -0.9497 C   0  0  0  0  0  0  0  0  0  0  0  0
   -0.9543   -3.1019   -0.9533 N   0  0  0  0  0  0  0  0  0  0  0  0
   -0.6915   -1.7393   -1.0599 N   0  0  0  0  0  0  0  0  0  0  0  0
   -1.4148   -0.8728   -1.9509 C   0  0  0  0  0  0  0  0  0  0  0  0
   -0.8024    0.0843   -2.7748 C   0  0  0  0  0  0  0  0  0  0  0  0
   -1.5791    1.0064   -3.5097 C   0  0  0  0  0  0  0  0  0  0  0  0
   -2.9884    0.9705   -3.4267 C   0  0  0  0  0  0  0  0  0  0  0  0
   -3.7906    1.8592   -4.1820 C   0  0  0  0  0  0  0  0  0  0  0  0
   -5.1862    1.8007   -4.0829 C   0  0  0  0  0  0  0  0  0  0  0  0
   -5.7848    0.8895   -3.2273 C   0  0  0  0  0  0  0  0  0  0  0  0
   -5.0013    0.0104   -2.4714 C   0  0  0  0  0  0  0  0  0  0  0  0
   -3.5961    0.0297   -2.5891 C   0  0  0  0  0  0  0  0  0  0  0  0
   -2.8126   -0.8994   -1.8627 C   0  0  0  0  0  0  0  0  0  0  0  0
    0.5899    0.3979    0.9938 H   0  0  0  0  0  0  0  0  0  0  0  0
    0.5418    0.7381   -0.7339 H   0  0  0  0  0  0  0  0  0  0  0  0
    1.9476   -0.0317   -0.0399 H   0  0  0  0  0  0  0  0  0  0  0  0
    1.3689   -2.5555    1.3241 H   0  0  0  0  0  0  0  0  0  0  0  0
    1.5689   -5.1404    1.5892 H   0  0  0  0  0  0  0  0  0  0  0  0
    1.5659   -6.4201    0.3749 H   0  0  0  0  0  0  0  0  0  0  0  0
    3.8015   -4.9849    0.6321 H   0  0  0  0  0  0  0  0  0  0  0  0
    3.3122   -5.5389   -0.9334 H   0  0  0  0  0  0  0  0  0  0  0  0
    1.3993   -2.7515   -1.8711 H   0  0  0  0  0  0  0  0  0  0  0  0
    1.3213   -4.5435   -1.7358 H   0  0  0  0  0  0  0  0  0  0  0  0
    3.2303   -4.7225   -3.1737 H   0  0  0  0  0  0  0  0  0  0  0  0
    1.7094   -4.0251   -3.8035 H   0  0  0  0  0  0  0  0  0  0  0  0
    4.5942   -1.3717   -2.6497 H   0  0  0  0  0  0  0  0  0  0  0  0
    5.0309   -3.1096   -2.5850 H   0  0  0  0  0  0  0  0  0  0  0  0
    3.1746   -1.5425   -0.8049 H   0  0  0  0  0  0  0  0  0  0  0  0
    4.5984   -2.2974   -0.2380 H   0  0  0  0  0  0  0  0  0  0  0  0
    0.2806    0.1372   -2.8949 H   0  0  0  0  0  0  0  0  0  0  0  0
   -1.0929    1.7455   -4.1386 H   0  0  0  0  0  0  0  0  0  0  0  0
   -3.3443    2.5788   -4.8569 H   0  0  0  0  0  0  0  0  0  0  0  0
   -5.7999    2.4705   -4.6832 H   0  0  0  0  0  0  0  0  0  0  0  0
   -6.8695    0.8421   -3.1476 H   0  0  0  0  0  0  0  0  0  0  0  0
   -5.4868   -0.6926   -1.8080 H   0  0  0  0  0  0  0  0  0  0  0  0
   -3.2819   -1.5989   -1.1846 H   0  0  0  0  0  0  0  0  0  0  0  0
  1  2  1  0  0  0  0
  1 26  1  0  0  0  0
  1 27  1  0  0  0  0
  1 28  1  0  0  0  0
  2  3  2  0  0  0  0
  2 15  1  0  0  0  0
  3  4  1  0  0  0  0
  3 29  1  0  0  0  0
  4  5  1  0  0  0  0
  5  6  1  0  0  0  0
  6  7  1  0  0  0  0
  6 30  1  0  0  0  0
  6 31  1  0  0  0  0
  7  8  1  0  0  0  0
  7 32  1  0  0  0  0
  7 33  1  0  0  0  0
  8  9  1  0  0  0  0
  8 13  1  0  0  0  0
  9 10  1  0  0  0  0
  9 34  1  0  0  0  0
  9 35  1  0  0  0  0
 10 11  1  0  0  0  0
 10 36  1  0  0  0  0
 10 37  1  0  0  0  0
 12 11  1  0  0  0  0
 12 38  1  0  0  0  0
 12 39  1  0  0  0  0
 13 12  1  0  0  0  0
 13 40  1  0  0  0  0
 13 41  1  0  0  0  0
 14  4  2  0  0  0  0
 15 14  1  0  0  0  0
 15 16  1  0  0  0  0
 16 17  1  0  0  0  0
 16 25  2  0  0  0  0
 17 18  2  0  0  0  0
 17 42  1  0  0  0  0
 18 19  1  0  0  0  0
 18 43  1  0  0  0  0
 19 20  1  0  0  0  0
 20 21  2  0  0  0  0
 20 44  1  0  0  0  0
 21 45  1  0  0  0  0
 22 21  1  0  0  0  0
 22 46  1  0  0  0  0
 23 22  2  0  0  0  0
 23 47  1  0  0  0  0
 24 23  1  0  0  0  0
 24 19  2  0  0  0  0
 25 24  1  0  0  0  0
 25 48  1  0  0  0  0
M  END
>  <DRUGBANK_ID>
DB16881

>  <COMMON_NAME>
E-52862

>  <CAS_NUMBER>
878141-96-9

>  <UNII>
ZW18DSD1H4

$$$$
