TPX
 OpenBabel10282417173D

 40 40  0  0  0  0  0  0  0  0999 V2000
   -0.7267   -1.4228    1.0806 C   0  0  0  0  0  0  0  0  0  0  0  0
    0.1066   -1.1649   -0.1567 C   0  0  2  0  0  0  0  0  0  0  0  0
    1.0635    0.0665    0.0423 C   0  0  2  0  0  0  0  0  0  0  0  0
    0.3511    1.4029    0.1068 C   0  0  0  0  0  0  0  0  0  0  0  0
   -0.8021   -1.2003   -1.4244 C   0  0  0  0  0  0  0  0  0  0  0  0
   -0.1463   -1.1475   -2.8098 C   0  0  0  0  0  0  0  0  0  0  0  0
   -0.8666   -2.5440    1.5615 O   0  0  0  0  0  0  0  0  0  0  0  0
    0.0987    1.8490    1.3513 O   0  0  0  0  0  0  0  0  0  0  0  0
    0.0269    2.0562   -0.8728 O   0  0  0  0  0  0  0  0  0  0  0  0
    1.9326    0.1235   -1.1929 C   0  0  0  0  0  0  0  0  0  0  0  0
    3.3544    0.4224   -1.1198 N   0  0  0  0  0  0  0  0  0  0  0  0
    3.2700    0.6431   -3.6860 O   0  0  0  0  0  0  0  0  0  0  0  0
    5.4781    0.5781   -2.4804 O   0  0  0  0  0  0  0  0  0  0  0  0
    4.1338    0.0930   -2.6526 S   0  0  0  0  0  0  0  0  0  0  0  0
    4.2095   -1.6856   -2.9240 C   0  0  0  0  0  0  0  0  0  0  0  0
    5.3225   -2.1943   -3.5915 C   0  0  0  0  0  0  0  0  0  0  0  0
    3.2097   -2.5959   -2.5709 C   0  0  0  0  0  0  0  0  0  0  0  0
    5.4088   -3.5704   -3.8710 C   0  0  0  0  0  0  0  0  0  0  0  0
    3.2755   -3.9512   -2.8622 C   0  0  0  0  0  0  0  0  0  0  0  0
    4.3844   -4.4540   -3.5090 C   0  0  0  0  0  0  0  0  0  0  0  0
    4.4317   -5.9213   -3.7856 C   0  0  0  0  0  0  0  0  0  0  0  0
    0.7512   -2.0597   -0.2119 H   0  0  0  0  0  0  0  0  0  0  0  0
    1.6702   -0.0791    0.9445 H   0  0  0  0  0  0  0  0  0  0  0  0
   -1.2486   -0.5591    1.5186 H   0  0  0  0  0  0  0  0  0  0  0  0
   -1.3668   -2.1424   -1.4030 H   0  0  0  0  0  0  0  0  0  0  0  0
   -1.5367   -0.3938   -1.3619 H   0  0  0  0  0  0  0  0  0  0  0  0
    0.5929   -1.9367   -2.9339 H   0  0  0  0  0  0  0  0  0  0  0  0
   -0.8664   -1.2806   -3.6180 H   0  0  0  0  0  0  0  0  0  0  0  0
    0.3113   -0.1852   -3.0276 H   0  0  0  0  0  0  0  0  0  0  0  0
    0.4832    1.3482    2.0933 H   0  0  0  0  0  0  0  0  0  0  0  0
    1.9288   -0.8832   -1.5057 H   0  0  0  0  0  0  0  0  0  0  0  0
    1.5169    0.7562   -1.9677 H   0  0  0  0  0  0  0  0  0  0  0  0
    3.4813    1.4339   -0.9932 H   0  0  0  0  0  0  0  0  0  0  0  0
    6.1259   -1.5327   -3.9081 H   0  0  0  0  0  0  0  0  0  0  0  0
    2.3037   -2.3798   -2.0595 H   0  0  0  0  0  0  0  0  0  0  0  0
    6.2894   -3.9510   -4.3799 H   0  0  0  0  0  0  0  0  0  0  0  0
    2.4457   -4.5927   -2.5660 H   0  0  0  0  0  0  0  0  0  0  0  0
    4.3507   -6.4795   -2.8457 H   0  0  0  0  0  0  0  0  0  0  0  0
    3.5970   -6.2056   -4.4359 H   0  0  0  0  0  0  0  0  0  0  0  0
    5.3669   -6.1981   -4.2741 H   0  0  0  0  0  0  0  0  0  0  0  0
  1  7  2  0  0  0  0
  1 24  1  0  0  0  0
  2  5  1  0  0  0  0
  2 22  1  6  0  0  0
  2  3  1  0  0  0  0
  2  1  1  0  0  0  0
  3 23  1  1  0  0  0
  3 10  1  0  0  0  0
  3  4  1  0  0  0  0
  4  8  1  0  0  0  0
  4  9  2  0  0  0  0
  5  6  1  0  0  0  0
  5 25  1  0  0  0  0
  5 26  1  0  0  0  0
  6 27  1  0  0  0  0
  6 28  1  0  0  0  0
  6 29  1  0  0  0  0
  8 30  1  0  0  0  0
 10 11  1  0  0  0  0
 10 31  1  0  0  0  0
 10 32  1  0  0  0  0
 11 14  1  0  0  0  0
 11 33  1  0  0  0  0
 12 14  2  0  0  0  0
 13 14  2  0  0  0  0
 14 15  1  0  0  0  0
 15 16  2  0  0  0  0
 15 17  1  0  0  0  0
 16 18  1  0  0  0  0
 16 34  1  0  0  0  0
 17 19  2  0  0  0  0
 17 35  1  0  0  0  0
 18 20  2  0  0  0  0
 18 36  1  0  0  0  0
 19 20  1  0  0  0  0
 19 37  1  0  0  0  0
 20 21  1  0  0  0  0
 21 38  1  0  0  0  0
 21 39  1  0  0  0  0
 21 40  1  0  0  0  0
M  END
>  <DRUGBANK_ID>
DB08640

>  <COMMON_NAME>
(2S,3S)-3-FORMYL-2-({[(4-METHYLPHENYL)SULFONYL]AMINO}METHYL)PENTANOIC ACID

$$$$
